# CIF file generated by openbabel 3.1.0, see https://openbabel.org
data_I
_chemical_name_common 'image0'
_cell_length_a 42.559
_cell_length_b 42.559
_cell_length_c 42.559
_cell_angle_alpha 90
_cell_angle_beta 90
_cell_angle_gamma 90
_space_group_name_H-M_alt 'P 1'
_space_group_name_Hall 'P 1'
loop_
    _symmetry_equiv_pos_as_xyz
    x,y,z
loop_
    _atom_site_label
    _atom_site_type_symbol
    _atom_site_fract_x
    _atom_site_fract_y
    _atom_site_fract_z
    _atom_site_occupancy
    C1       C        0.38171    0.86480    0.94991    1.000
    C2       C        0.38794    0.86715    0.98421    1.000
    C3       C        0.41473    0.88770    0.99428    1.000
    H1       H        0.43220    0.88490    0.98030    1.000
    H2       H        0.42120    0.88190    0.01510    1.000
    C4       C        0.40440    0.92172    0.99380    1.000
    C5       C        0.37590    0.93350    0.99930    1.000
    H3       H        0.35850    0.92120    0.00430    1.000
    C6       C        0.37500    0.96830    0.99670    1.000
    H4       H        0.35710    0.98040    0.99980    1.000
    C7       C        0.40280    0.98020    0.98930    1.000
    H5       H        0.40670    0.00150    0.98650    1.000
    S1       S        0.43055    0.95123    0.98540    1.000
    C8       C        0.36982    0.85007    0.00348    1.000
    H6       H        0.35540    0.83680    0.99380    1.000
    C9       C        0.36984    0.84969    0.03736    1.000
    C10      C        0.37629    0.87212    0.05945    1.000
    H7       H        0.38450    0.89190    0.05510    1.000
    C11      C        0.35754    0.83201    0.08540    1.000
    C12      C        0.34240    0.79624    0.04170    1.000
    C13      C        0.30717    0.80104    0.04071    1.000
    C14      C        0.29374    0.83087    0.04111    1.000
    H8       H        0.30670    0.84850    0.04120    1.000
    C15      C        0.26170    0.83461    0.04139    1.000
    H9       H        0.25310    0.85470    0.04170    1.000
    C16      C        0.24216    0.80872    0.04117    1.000
    C17      C        0.25536    0.77899    0.03988    1.000
    H10      H        0.24240    0.76140    0.03890    1.000
    C18      C        0.28732    0.77529    0.04004    1.000
    H11      H        0.29580    0.75520    0.03970    1.000
    C19      C        0.20775    0.81265    0.04316    1.000
    C20      C        0.34718    0.81112    0.11148    1.000
    H12      H        0.32910    0.79930    0.10480    1.000
    H13      H        0.34110    0.82380    0.12910    1.000
    C21      C        0.37370    0.78800    0.12100    1.000
    H14      H        0.39230    0.79960    0.12730    1.000
    H15      H        0.37920    0.77470    0.10330    1.000
    C22      C        0.36170    0.76760    0.14870    1.000
    H16      H        0.34110    0.75930    0.14360    1.000
    H17      H        0.37580    0.74990    0.15170    1.000
    C23      C        0.35970    0.78640    0.17940    1.000
    H18      H        0.35230    0.77310    0.19600    1.000
    H19      H        0.38020    0.79430    0.18470    1.000
    H20      H        0.34550    0.80370    0.17670    1.000
    N1       N        0.36888    0.86119    0.08910    1.000
    N2       N        0.35794    0.82414    0.05469    1.000
    O1       O        0.40084    0.87671    0.93060    1.000
    O2       O        0.35741    0.85118    0.93945    1.000
    O3       O        0.19883    0.84183    0.04485    1.000
    H21      H        0.18040    0.84740    0.04810    1.000
    O4       O        0.18897    0.79078    0.04289    1.000
    H22      H        0.43330    0.88110    0.98330    1.000
    H23      H        0.41830    0.88430    0.01630    1.000
    C24      C        0.41040    0.92240    0.98950    1.000
    C25      C        0.42990    0.94440    0.97880    1.000
    H24      H        0.45040    0.94050    0.97250    1.000
    C26      C        0.41480    0.97600    0.97830    1.000
    H25      H        0.42480    0.99420    0.97140    1.000
    C27      C        0.38530    0.97540    0.98890    1.000
    H26      H        0.37230    0.99280    0.99050    1.000
    S2       S        0.37477    0.93822    0.99897    1.000
    H27      H        0.33910    0.79200    0.10260    1.000
    H28      H        0.33010    0.82130    0.12220    1.000
    C28      C        0.37330    0.80140    0.13470    1.000
    H29      H        0.38480    0.81980    0.14160    1.000
    H30      H        0.38790    0.78730    0.12450    1.000
    C29      C        0.35770    0.78480    0.16340    1.000
    H31      H        0.34300    0.79910    0.17340    1.000
    H32      H        0.34600    0.76660    0.15630    1.000
    C30      C        0.38260    0.77450    0.18730    1.000
    H33      H        0.37260    0.76430    0.20480    1.000
    H34      H        0.39700    0.76010    0.17750    1.000
    H35      H        0.39390    0.79260    0.19470    1.000
    C31      C        0.88171    0.36480    0.44991    1.000
    C32      C        0.88794    0.36715    0.48421    1.000
    C33      C        0.91473    0.38770    0.49428    1.000
    H36      H        0.93220    0.38490    0.48030    1.000
    H37      H        0.92120    0.38190    0.51510    1.000
    C34      C        0.90440    0.42172    0.49380    1.000
    C35      C        0.87590    0.43350    0.49930    1.000
    H38      H        0.85850    0.42120    0.50430    1.000
    C36      C        0.87500    0.46830    0.49670    1.000
    H39      H        0.85710    0.48040    0.49980    1.000
    C37      C        0.90280    0.48020    0.48930    1.000
    H40      H        0.90670    0.50150    0.48650    1.000
    S3       S        0.93055    0.45123    0.48540    1.000
    C38      C        0.86982    0.35007    0.50348    1.000
    H41      H        0.85540    0.33680    0.49380    1.000
    C39      C        0.86984    0.34969    0.53736    1.000
    C40      C        0.87629    0.37212    0.55945    1.000
    H42      H        0.88450    0.39190    0.55510    1.000
    C41      C        0.85754    0.33201    0.58540    1.000
    C42      C        0.84240    0.29624    0.54170    1.000
    C43      C        0.80717    0.30104    0.54071    1.000
    C44      C        0.79374    0.33087    0.54111    1.000
    H43      H        0.80670    0.34850    0.54120    1.000
    C45      C        0.76170    0.33461    0.54139    1.000
    H44      H        0.75310    0.35470    0.54170    1.000
    C46      C        0.74216    0.30872    0.54117    1.000
    C47      C        0.75536    0.27899    0.53988    1.000
    H45      H        0.74240    0.26140    0.53890    1.000
    C48      C        0.78732    0.27529    0.54004    1.000
    H46      H        0.79580    0.25520    0.53970    1.000
    C49      C        0.70775    0.31265    0.54316    1.000
    C50      C        0.84718    0.31112    0.61148    1.000
    H47      H        0.82910    0.29930    0.60480    1.000
    H48      H        0.84110    0.32380    0.62910    1.000
    C51      C        0.87370    0.28800    0.62100    1.000
    H49      H        0.89230    0.29960    0.62730    1.000
    H50      H        0.87920    0.27470    0.60330    1.000
    C52      C        0.86170    0.26760    0.64870    1.000
    H51      H        0.84110    0.25930    0.64360    1.000
    H52      H        0.87580    0.24990    0.65170    1.000
    C53      C        0.85970    0.28640    0.67940    1.000
    H53      H        0.85230    0.27310    0.69600    1.000
    H54      H        0.88020    0.29430    0.68470    1.000
    H55      H        0.84550    0.30370    0.67670    1.000
    N3       N        0.86888    0.36119    0.58910    1.000
    N4       N        0.85794    0.32414    0.55469    1.000
    O5       O        0.90084    0.37671    0.43060    1.000
    O6       O        0.85741    0.35118    0.43945    1.000
    O7       O        0.69883    0.34183    0.54485    1.000
    H56      H        0.68040    0.34740    0.54810    1.000
    O8       O        0.68897    0.29078    0.54289    1.000
    H57      H        0.93330    0.38110    0.48330    1.000
    H58      H        0.91830    0.38430    0.51630    1.000
    C54      C        0.91040    0.42240    0.48950    1.000
    C55      C        0.92990    0.44440    0.47880    1.000
    H59      H        0.95040    0.44050    0.47250    1.000
    C56      C        0.91480    0.47600    0.47830    1.000
    H60      H        0.92480    0.49420    0.47140    1.000
    C57      C        0.88530    0.47540    0.48890    1.000
    H61      H        0.87230    0.49280    0.49050    1.000
    S4       S        0.87477    0.43822    0.49897    1.000
    H62      H        0.83910    0.29200    0.60260    1.000
    H63      H        0.83010    0.32130    0.62220    1.000
    C58      C        0.87330    0.30140    0.63470    1.000
    H64      H        0.88480    0.31980    0.64160    1.000
    H65      H        0.88790    0.28730    0.62450    1.000
    C59      C        0.85770    0.28480    0.66340    1.000
    H66      H        0.84300    0.29910    0.67340    1.000
    H67      H        0.84600    0.26660    0.65630    1.000
    C60      C        0.88260    0.27450    0.68730    1.000
    H68      H        0.87260    0.26430    0.70480    1.000
    H69      H        0.89700    0.26010    0.67750    1.000
    H70      H        0.89390    0.29260    0.69470    1.000
    C61      C        0.11829    0.13520    0.44991    1.000
    C62      C        0.11206    0.13285    0.48421    1.000
    C63      C        0.08527    0.11230    0.49428    1.000
    H71      H        0.06780    0.11510    0.48030    1.000
    H72      H        0.07880    0.11810    0.51510    1.000
    C64      C        0.09560    0.07828    0.49380    1.000
    C65      C        0.12410    0.06650    0.49930    1.000
    H73      H        0.14150    0.07880    0.50430    1.000
    C66      C        0.12500    0.03170    0.49670    1.000
    H74      H        0.14290    0.01960    0.49980    1.000
    C67      C        0.09720    0.01980    0.48930    1.000
    H75      H        0.09330    0.99850    0.48650    1.000
    S5       S        0.06945    0.04877    0.48540    1.000
    C68      C        0.13018    0.14993    0.50348    1.000
    H76      H        0.14460    0.16320    0.49380    1.000
    C69      C        0.13016    0.15031    0.53736    1.000
    C70      C        0.12371    0.12788    0.55945    1.000
    H77      H        0.11550    0.10810    0.55510    1.000
    C71      C        0.14246    0.16799    0.58540    1.000
    C72      C        0.15760    0.20376    0.54170    1.000
    C73      C        0.19283    0.19896    0.54071    1.000
    C74      C        0.20626    0.16913    0.54111    1.000
    H78      H        0.19330    0.15150    0.54120    1.000
    C75      C        0.23830    0.16539    0.54139    1.000
    H79      H        0.24690    0.14530    0.54170    1.000
    C76      C        0.25784    0.19128    0.54117    1.000
    C77      C        0.24464    0.22101    0.53988    1.000
    H80      H        0.25760    0.23860    0.53890    1.000
    C78      C        0.21268    0.22471    0.54004    1.000
    H81      H        0.20420    0.24480    0.53970    1.000
    C79      C        0.29225    0.18735    0.54316    1.000
    C80      C        0.15282    0.18888    0.61148    1.000
    H82      H        0.17090    0.20070    0.60480    1.000
    H83      H        0.15890    0.17620    0.62910    1.000
    C81      C        0.12630    0.21200    0.62100    1.000
    H84      H        0.10770    0.20040    0.62730    1.000
    H85      H        0.12080    0.22530    0.60330    1.000
    C82      C        0.13830    0.23240    0.64870    1.000
    H86      H        0.15890    0.24070    0.64360    1.000
    H87      H        0.12420    0.25010    0.65170    1.000
    C83      C        0.14030    0.21360    0.67940    1.000
    H88      H        0.14770    0.22690    0.69600    1.000
    H89      H        0.11980    0.20570    0.68470    1.000
    H90      H        0.15450    0.19630    0.67670    1.000
    N5       N        0.13112    0.13881    0.58910    1.000
    N6       N        0.14206    0.17586    0.55469    1.000
    O9       O        0.09916    0.12329    0.43060    1.000
    O10      O        0.14259    0.14882    0.43945    1.000
    O11      O        0.30117    0.15817    0.54485    1.000
    H91      H        0.31960    0.15260    0.54810    1.000
    O12      O        0.31103    0.20922    0.54289    1.000
    H92      H        0.06670    0.11890    0.48330    1.000
    H93      H        0.08170    0.11570    0.51630    1.000
    C84      C        0.08960    0.07760    0.48950    1.000
    C85      C        0.07010    0.05560    0.47880    1.000
    H94      H        0.04960    0.05950    0.47250    1.000
    C86      C        0.08520    0.02400    0.47830    1.000
    H95      H        0.07520    0.00580    0.47140    1.000
    C87      C        0.11470    0.02460    0.48890    1.000
    H96      H        0.12770    0.00720    0.49050    1.000
    S6       S        0.12523    0.06178    0.49897    1.000
    H97      H        0.16090    0.20800    0.60260    1.000
    H98      H        0.16990    0.17870    0.62220    1.000
    C88      C        0.12670    0.19860    0.63470    1.000
    H99      H        0.11520    0.18020    0.64160    1.000
    H100     H        0.11210    0.21270    0.62450    1.000
    C89      C        0.14230    0.21520    0.66340    1.000
    H101     H        0.15700    0.20090    0.67340    1.000
    H102     H        0.15400    0.23340    0.65630    1.000
    C90      C        0.11740    0.22550    0.68730    1.000
    H103     H        0.12740    0.23570    0.70480    1.000
    H104     H        0.10300    0.23990    0.67750    1.000
    H105     H        0.10610    0.20740    0.69470    1.000
    C91      C        0.61829    0.63520    0.94991    1.000
    C92      C        0.61206    0.63285    0.98421    1.000
    C93      C        0.58527    0.61230    0.99428    1.000
    H106     H        0.56780    0.61510    0.98030    1.000
    H107     H        0.57880    0.61810    0.01510    1.000
    C94      C        0.59560    0.57828    0.99380    1.000
    C95      C        0.62410    0.56650    0.99930    1.000
    H108     H        0.64150    0.57880    0.00430    1.000
    C96      C        0.62500    0.53170    0.99670    1.000
    H109     H        0.64290    0.51960    0.99980    1.000
    C97      C        0.59720    0.51980    0.98930    1.000
    H110     H        0.59330    0.49850    0.98650    1.000
    S7       S        0.56945    0.54877    0.98540    1.000
    C98      C        0.63018    0.64993    0.00348    1.000
    H111     H        0.64460    0.66320    0.99380    1.000
    C99      C        0.63016    0.65031    0.03736    1.000
    C100     C        0.62371    0.62788    0.05945    1.000
    H112     H        0.61550    0.60810    0.05510    1.000
    C101     C        0.64246    0.66799    0.08540    1.000
    C102     C        0.65760    0.70376    0.04170    1.000
    C103     C        0.69283    0.69896    0.04071    1.000
    C104     C        0.70626    0.66913    0.04111    1.000
    H113     H        0.69330    0.65150    0.04120    1.000
    C105     C        0.73830    0.66539    0.04139    1.000
    H114     H        0.74690    0.64530    0.04170    1.000
    C106     C        0.75784    0.69128    0.04117    1.000
    C107     C        0.74464    0.72101    0.03988    1.000
    H115     H        0.75760    0.73860    0.03890    1.000
    C108     C        0.71268    0.72471    0.04004    1.000
    H116     H        0.70420    0.74480    0.03970    1.000
    C109     C        0.79225    0.68735    0.04316    1.000
    C110     C        0.65282    0.68888    0.11148    1.000
    H117     H        0.67090    0.70070    0.10480    1.000
    H118     H        0.65890    0.67620    0.12910    1.000
    C111     C        0.62630    0.71200    0.12100    1.000
    H119     H        0.60770    0.70040    0.12730    1.000
    H120     H        0.62080    0.72530    0.10330    1.000
    C112     C        0.63830    0.73240    0.14870    1.000
    H121     H        0.65890    0.74070    0.14360    1.000
    H122     H        0.62420    0.75010    0.15170    1.000
    C113     C        0.64030    0.71360    0.17940    1.000
    H123     H        0.64770    0.72690    0.19600    1.000
    H124     H        0.61980    0.70570    0.18470    1.000
    H125     H        0.65450    0.69630    0.17670    1.000
    N7       N        0.63112    0.63881    0.08910    1.000
    N8       N        0.64206    0.67586    0.05469    1.000
    O13      O        0.59916    0.62329    0.93060    1.000
    O14      O        0.64259    0.64882    0.93945    1.000
    O15      O        0.80117    0.65817    0.04485    1.000
    H126     H        0.81960    0.65260    0.04810    1.000
    O16      O        0.81103    0.70922    0.04289    1.000
    H127     H        0.56670    0.61890    0.98330    1.000
    H128     H        0.58170    0.61570    0.01630    1.000
    C114     C        0.58960    0.57760    0.98950    1.000
    C115     C        0.57010    0.55560    0.97880    1.000
    H129     H        0.54960    0.55950    0.97250    1.000
    C116     C        0.58520    0.52400    0.97830    1.000
    H130     H        0.57520    0.50580    0.97140    1.000
    C117     C        0.61470    0.52460    0.98890    1.000
    H131     H        0.62770    0.50720    0.99050    1.000
    S8       S        0.62523    0.56178    0.99897    1.000
    H132     H        0.66090    0.70800    0.10260    1.000
    H133     H        0.66990    0.67870    0.12220    1.000
    C118     C        0.62670    0.69860    0.13470    1.000
    H134     H        0.61520    0.68020    0.14160    1.000
    H135     H        0.61210    0.71270    0.12450    1.000
    C119     C        0.64230    0.71520    0.16340    1.000
    H136     H        0.65700    0.70090    0.17340    1.000
    H137     H        0.65400    0.73340    0.15630    1.000
    C120     C        0.61740    0.72550    0.18730    1.000
    H138     H        0.62740    0.73570    0.20480    1.000
    H139     H        0.60300    0.73990    0.17750    1.000
    H140     H        0.60610    0.70740    0.19470    1.000
    C121     C        0.61829    0.36480    0.55009    1.000
    C122     C        0.61206    0.36715    0.51579    1.000
    C123     C        0.58527    0.38770    0.50572    1.000
    H141     H        0.56780    0.38490    0.51970    1.000
    H142     H        0.57880    0.38190    0.48490    1.000
    C124     C        0.59560    0.42172    0.50620    1.000
    C125     C        0.62410    0.43350    0.50070    1.000
    H143     H        0.64150    0.42120    0.49570    1.000
    C126     C        0.62500    0.46830    0.50330    1.000
    H144     H        0.64290    0.48040    0.50020    1.000
    C127     C        0.59720    0.48020    0.51070    1.000
    H145     H        0.59330    0.50150    0.51350    1.000
    S9       S        0.56945    0.45123    0.51460    1.000
    C128     C        0.63018    0.35007    0.49652    1.000
    H146     H        0.64460    0.33680    0.50620    1.000
    C129     C        0.63016    0.34969    0.46264    1.000
    C130     C        0.62371    0.37212    0.44055    1.000
    H147     H        0.61550    0.39190    0.44490    1.000
    C131     C        0.64246    0.33201    0.41460    1.000
    C132     C        0.65760    0.29624    0.45830    1.000
    C133     C        0.69283    0.30104    0.45929    1.000
    C134     C        0.70626    0.33087    0.45889    1.000
    H148     H        0.69330    0.34850    0.45880    1.000
    C135     C        0.73830    0.33461    0.45861    1.000
    H149     H        0.74690    0.35470    0.45830    1.000
    C136     C        0.75784    0.30872    0.45883    1.000
    C137     C        0.74464    0.27899    0.46012    1.000
    H150     H        0.75760    0.26140    0.46110    1.000
    C138     C        0.71268    0.27529    0.45996    1.000
    H151     H        0.70420    0.25520    0.46030    1.000
    C139     C        0.79225    0.31265    0.45684    1.000
    C140     C        0.65282    0.31112    0.38852    1.000
    H152     H        0.67090    0.29930    0.39520    1.000
    H153     H        0.65890    0.32380    0.37090    1.000
    C141     C        0.62630    0.28800    0.37900    1.000
    H154     H        0.60770    0.29960    0.37270    1.000
    H155     H        0.62080    0.27470    0.39670    1.000
    C142     C        0.63830    0.26760    0.35130    1.000
    H156     H        0.65890    0.25930    0.35640    1.000
    H157     H        0.62420    0.24990    0.34830    1.000
    C143     C        0.64030    0.28640    0.32060    1.000
    H158     H        0.64770    0.27310    0.30400    1.000
    H159     H        0.61980    0.29430    0.31530    1.000
    H160     H        0.65450    0.30370    0.32330    1.000
    N9       N        0.63112    0.36119    0.41090    1.000
    N10      N        0.64206    0.32414    0.44531    1.000
    O17      O        0.59916    0.37671    0.56940    1.000
    O18      O        0.64259    0.35118    0.56055    1.000
    O19      O        0.80117    0.34183    0.45515    1.000
    H161     H        0.81960    0.34740    0.45190    1.000
    O20      O        0.81103    0.29078    0.45711    1.000
    H162     H        0.56670    0.38110    0.51670    1.000
    H163     H        0.58170    0.38430    0.48370    1.000
    C144     C        0.58960    0.42240    0.51050    1.000
    C145     C        0.57010    0.44440    0.52120    1.000
    H164     H        0.54960    0.44050    0.52750    1.000
    C146     C        0.58520    0.47600    0.52170    1.000
    H165     H        0.57520    0.49420    0.52860    1.000
    C147     C        0.61470    0.47540    0.51110    1.000
    H166     H        0.62770    0.49280    0.50950    1.000
    S10      S        0.62523    0.43822    0.50103    1.000
    H167     H        0.66090    0.29200    0.39740    1.000
    H168     H        0.66990    0.32130    0.37780    1.000
    C148     C        0.62670    0.30140    0.36530    1.000
    H169     H        0.61520    0.31980    0.35840    1.000
    H170     H        0.61210    0.28730    0.37550    1.000
    C149     C        0.64230    0.28480    0.33660    1.000
    H171     H        0.65700    0.29910    0.32660    1.000
    H172     H        0.65400    0.26660    0.34370    1.000
    C150     C        0.61740    0.27450    0.31270    1.000
    H173     H        0.62740    0.26430    0.29520    1.000
    H174     H        0.60300    0.26010    0.32250    1.000
    H175     H        0.60610    0.29260    0.30530    1.000
    C151     C        0.11829    0.86480    0.05009    1.000
    C152     C        0.11206    0.86715    0.01579    1.000
    C153     C        0.08527    0.88770    0.00572    1.000
    H176     H        0.06780    0.88490    0.01970    1.000
    H177     H        0.07880    0.88190    0.98490    1.000
    C154     C        0.09560    0.92172    0.00620    1.000
    C155     C        0.12410    0.93350    0.00070    1.000
    H178     H        0.14150    0.92120    0.99570    1.000
    C156     C        0.12500    0.96830    0.00330    1.000
    H179     H        0.14290    0.98040    0.00020    1.000
    C157     C        0.09720    0.98020    0.01070    1.000
    H180     H        0.09330    0.00150    0.01350    1.000
    S11      S        0.06945    0.95123    0.01460    1.000
    C158     C        0.13018    0.85007    0.99652    1.000
    H181     H        0.14460    0.83680    0.00620    1.000
    C159     C        0.13016    0.84969    0.96264    1.000
    C160     C        0.12371    0.87212    0.94055    1.000
    H182     H        0.11550    0.89190    0.94490    1.000
    C161     C        0.14246    0.83201    0.91460    1.000
    C162     C        0.15760    0.79624    0.95830    1.000
    C163     C        0.19283    0.80104    0.95929    1.000
    C164     C        0.20626    0.83087    0.95889    1.000
    H183     H        0.19330    0.84850    0.95880    1.000
    C165     C        0.23830    0.83461    0.95861    1.000
    H184     H        0.24690    0.85470    0.95830    1.000
    C166     C        0.25784    0.80872    0.95883    1.000
    C167     C        0.24464    0.77899    0.96012    1.000
    H185     H        0.25760    0.76140    0.96110    1.000
    C168     C        0.21268    0.77529    0.95996    1.000
    H186     H        0.20420    0.75520    0.96030    1.000
    C169     C        0.29225    0.81265    0.95684    1.000
    C170     C        0.15282    0.81112    0.88852    1.000
    H187     H        0.17090    0.79930    0.89520    1.000
    H188     H        0.15890    0.82380    0.87090    1.000
    C171     C        0.12630    0.78800    0.87900    1.000
    H189     H        0.10770    0.79960    0.87270    1.000
    H190     H        0.12080    0.77470    0.89670    1.000
    C172     C        0.13830    0.76760    0.85130    1.000
    H191     H        0.15890    0.75930    0.85640    1.000
    H192     H        0.12420    0.74990    0.84830    1.000
    C173     C        0.14030    0.78640    0.82060    1.000
    H193     H        0.14770    0.77310    0.80400    1.000
    H194     H        0.11980    0.79430    0.81530    1.000
    H195     H        0.15450    0.80370    0.82330    1.000
    N11      N        0.13112    0.86119    0.91090    1.000
    N12      N        0.14206    0.82414    0.94531    1.000
    O21      O        0.09916    0.87671    0.06940    1.000
    O22      O        0.14259    0.85118    0.06055    1.000
    O23      O        0.30117    0.84183    0.95515    1.000
    H196     H        0.31960    0.84740    0.95190    1.000
    O24      O        0.31103    0.79078    0.95711    1.000
    H197     H        0.06670    0.88110    0.01670    1.000
    H198     H        0.08170    0.88430    0.98370    1.000
    C174     C        0.08960    0.92240    0.01050    1.000
    C175     C        0.07010    0.94440    0.02120    1.000
    H199     H        0.04960    0.94050    0.02750    1.000
    C176     C        0.08520    0.97600    0.02170    1.000
    H200     H        0.07520    0.99420    0.02860    1.000
    C177     C        0.11470    0.97540    0.01110    1.000
    H201     H        0.12770    0.99280    0.00950    1.000
    S12      S        0.12523    0.93822    0.00103    1.000
    H202     H        0.16090    0.79200    0.89740    1.000
    H203     H        0.16990    0.82130    0.87780    1.000
    C178     C        0.12670    0.80140    0.86530    1.000
    H204     H        0.11520    0.81980    0.85840    1.000
    H205     H        0.11210    0.78730    0.87550    1.000
    C179     C        0.14230    0.78480    0.83660    1.000
    H206     H        0.15700    0.79910    0.82660    1.000
    H207     H        0.15400    0.76660    0.84370    1.000
    C180     C        0.11740    0.77450    0.81270    1.000
    H208     H        0.12740    0.76430    0.79520    1.000
    H209     H        0.10300    0.76010    0.82250    1.000
    H210     H        0.10610    0.79260    0.80530    1.000
    C181     C        0.88171    0.63520    0.05009    1.000
    C182     C        0.88794    0.63285    0.01579    1.000
    C183     C        0.91473    0.61230    0.00572    1.000
    H211     H        0.93220    0.61510    0.01970    1.000
    H212     H        0.92120    0.61810    0.98490    1.000
    C184     C        0.90440    0.57828    0.00620    1.000
    C185     C        0.87590    0.56650    0.00070    1.000
    H213     H        0.85850    0.57880    0.99570    1.000
    C186     C        0.87500    0.53170    0.00330    1.000
    H214     H        0.85710    0.51960    0.00020    1.000
    C187     C        0.90280    0.51980    0.01070    1.000
    H215     H        0.90670    0.49850    0.01350    1.000
    S13      S        0.93055    0.54877    0.01460    1.000
    C188     C        0.86982    0.64993    0.99652    1.000
    H216     H        0.85540    0.66320    0.00620    1.000
    C189     C        0.86984    0.65031    0.96264    1.000
    C190     C        0.87629    0.62788    0.94055    1.000
    H217     H        0.88450    0.60810    0.94490    1.000
    C191     C        0.85754    0.66799    0.91460    1.000
    C192     C        0.84240    0.70376    0.95830    1.000
    C193     C        0.80717    0.69896    0.95929    1.000
    C194     C        0.79374    0.66913    0.95889    1.000
    H218     H        0.80670    0.65150    0.95880    1.000
    C195     C        0.76170    0.66539    0.95861    1.000
    H219     H        0.75310    0.64530    0.95830    1.000
    C196     C        0.74216    0.69128    0.95883    1.000
    C197     C        0.75536    0.72101    0.96012    1.000
    H220     H        0.74240    0.73860    0.96110    1.000
    C198     C        0.78732    0.72471    0.95996    1.000
    H221     H        0.79580    0.74480    0.96030    1.000
    C199     C        0.70775    0.68735    0.95684    1.000
    C200     C        0.84718    0.68888    0.88852    1.000
    H222     H        0.82910    0.70070    0.89520    1.000
    H223     H        0.84110    0.67620    0.87090    1.000
    C201     C        0.87370    0.71200    0.87900    1.000
    H224     H        0.89230    0.70040    0.87270    1.000
    H225     H        0.87920    0.72530    0.89670    1.000
    C202     C        0.86170    0.73240    0.85130    1.000
    H226     H        0.84110    0.74070    0.85640    1.000
    H227     H        0.87580    0.75010    0.84830    1.000
    C203     C        0.85970    0.71360    0.82060    1.000
    H228     H        0.85230    0.72690    0.80400    1.000
    H229     H        0.88020    0.70570    0.81530    1.000
    H230     H        0.84550    0.69630    0.82330    1.000
    N13      N        0.86888    0.63881    0.91090    1.000
    N14      N        0.85794    0.67586    0.94531    1.000
    O25      O        0.90084    0.62329    0.06940    1.000
    O26      O        0.85741    0.64882    0.06055    1.000
    O27      O        0.69883    0.65817    0.95515    1.000
    H231     H        0.68040    0.65260    0.95190    1.000
    O28      O        0.68897    0.70922    0.95711    1.000
    H232     H        0.93330    0.61890    0.01670    1.000
    H233     H        0.91830    0.61570    0.98370    1.000
    C204     C        0.91040    0.57760    0.01050    1.000
    C205     C        0.92990    0.55560    0.02120    1.000
    H234     H        0.95040    0.55950    0.02750    1.000
    C206     C        0.91480    0.52400    0.02170    1.000
    H235     H        0.92480    0.50580    0.02860    1.000
    C207     C        0.88530    0.52460    0.01110    1.000
    H236     H        0.87230    0.50720    0.00950    1.000
    S14      S        0.87477    0.56178    0.00103    1.000
    H237     H        0.83910    0.70800    0.89740    1.000
    H238     H        0.83010    0.67870    0.87780    1.000
    C208     C        0.87330    0.69860    0.86530    1.000
    H239     H        0.88480    0.68020    0.85840    1.000
    H240     H        0.88790    0.71270    0.87550    1.000
    C209     C        0.85770    0.71520    0.83660    1.000
    H241     H        0.84300    0.70090    0.82660    1.000
    H242     H        0.84600    0.73340    0.84370    1.000
    C210     C        0.88260    0.72550    0.81270    1.000
    H243     H        0.87260    0.73570    0.79520    1.000
    H244     H        0.89700    0.73990    0.82250    1.000
    H245     H        0.89390    0.70740    0.80530    1.000
    C211     C        0.38171    0.13520    0.55009    1.000
    C212     C        0.38794    0.13285    0.51579    1.000
    C213     C        0.41473    0.11230    0.50572    1.000
    H246     H        0.43220    0.11510    0.51970    1.000
    H247     H        0.42120    0.11810    0.48490    1.000
    C214     C        0.40440    0.07828    0.50620    1.000
    C215     C        0.37590    0.06650    0.50070    1.000
    H248     H        0.35850    0.07880    0.49570    1.000
    C216     C        0.37500    0.03170    0.50330    1.000
    H249     H        0.35710    0.01960    0.50020    1.000
    C217     C        0.40280    0.01980    0.51070    1.000
    H250     H        0.40670    0.99850    0.51350    1.000
    S15      S        0.43055    0.04877    0.51460    1.000
    C218     C        0.36982    0.14993    0.49652    1.000
    H251     H        0.35540    0.16320    0.50620    1.000
    C219     C        0.36984    0.15031    0.46264    1.000
    C220     C        0.37629    0.12788    0.44055    1.000
    H252     H        0.38450    0.10810    0.44490    1.000
    C221     C        0.35754    0.16799    0.41460    1.000
    C222     C        0.34240    0.20376    0.45830    1.000
    C223     C        0.30717    0.19896    0.45929    1.000
    C224     C        0.29374    0.16913    0.45889    1.000
    H253     H        0.30670    0.15150    0.45880    1.000
    C225     C        0.26170    0.16539    0.45861    1.000
    H254     H        0.25310    0.14530    0.45830    1.000
    C226     C        0.24216    0.19128    0.45883    1.000
    C227     C        0.25536    0.22101    0.46012    1.000
    H255     H        0.24240    0.23860    0.46110    1.000
    C228     C        0.28732    0.22471    0.45996    1.000
    H256     H        0.29580    0.24480    0.46030    1.000
    C229     C        0.20775    0.18735    0.45684    1.000
    C230     C        0.34718    0.18888    0.38852    1.000
    H257     H        0.32910    0.20070    0.39520    1.000
    H258     H        0.34110    0.17620    0.37090    1.000
    C231     C        0.37370    0.21200    0.37900    1.000
    H259     H        0.39230    0.20040    0.37270    1.000
    H260     H        0.37920    0.22530    0.39670    1.000
    C232     C        0.36170    0.23240    0.35130    1.000
    H261     H        0.34110    0.24070    0.35640    1.000
    H262     H        0.37580    0.25010    0.34830    1.000
    C233     C        0.35970    0.21360    0.32060    1.000
    H263     H        0.35230    0.22690    0.30400    1.000
    H264     H        0.38020    0.20570    0.31530    1.000
    H265     H        0.34550    0.19630    0.32330    1.000
    N15      N        0.36888    0.13881    0.41090    1.000
    N16      N        0.35794    0.17586    0.44531    1.000
    O29      O        0.40084    0.12329    0.56940    1.000
    O30      O        0.35741    0.14882    0.56055    1.000
    O31      O        0.19883    0.15817    0.45515    1.000
    H266     H        0.18040    0.15260    0.45190    1.000
    O32      O        0.18897    0.20922    0.45711    1.000
    H267     H        0.43330    0.11890    0.51670    1.000
    H268     H        0.41830    0.11570    0.48370    1.000
    C234     C        0.41040    0.07760    0.51050    1.000
    C235     C        0.42990    0.05560    0.52120    1.000
    H269     H        0.45040    0.05950    0.52750    1.000
    C236     C        0.41480    0.02400    0.52170    1.000
    H270     H        0.42480    0.00580    0.52860    1.000
    C237     C        0.38530    0.02460    0.51110    1.000
    H271     H        0.37230    0.00720    0.50950    1.000
    S16      S        0.37477    0.06178    0.50103    1.000
    H272     H        0.33910    0.20800    0.39740    1.000
    H273     H        0.33010    0.17870    0.37780    1.000
    C238     C        0.37330    0.19860    0.36530    1.000
    H274     H        0.38480    0.18020    0.35840    1.000
    H275     H        0.38790    0.21270    0.37550    1.000
    C239     C        0.35770    0.21520    0.33660    1.000
    H276     H        0.34300    0.20090    0.32660    1.000
    H277     H        0.34600    0.23340    0.34370    1.000
    C240     C        0.38260    0.22550    0.31270    1.000
    H278     H        0.37260    0.23570    0.29520    1.000
    H279     H        0.39700    0.23990    0.32250    1.000
    H280     H        0.39390    0.20740    0.30530    1.000
    C241     C        0.94991    0.38171    0.86480    1.000
    C242     C        0.98421    0.38794    0.86715    1.000
    C243     C        0.99428    0.41473    0.88770    1.000
    H281     H        0.98030    0.43220    0.88490    1.000
    H282     H        0.01510    0.42120    0.88190    1.000
    C244     C        0.99380    0.40440    0.92172    1.000
    C245     C        0.99930    0.37590    0.93350    1.000
    H283     H        0.00430    0.35850    0.92120    1.000
    C246     C        0.99670    0.37500    0.96830    1.000
    H284     H        0.99980    0.35710    0.98040    1.000
    C247     C        0.98930    0.40280    0.98020    1.000
    H285     H        0.98650    0.40670    0.00150    1.000
    S17      S        0.98540    0.43055    0.95123    1.000
    C248     C        0.00348    0.36982    0.85007    1.000
    H286     H        0.99380    0.35540    0.83680    1.000
    C249     C        0.03736    0.36984    0.84969    1.000
    C250     C        0.05945    0.37629    0.87212    1.000
    H287     H        0.05510    0.38450    0.89190    1.000
    C251     C        0.08540    0.35754    0.83201    1.000
    C252     C        0.04170    0.34240    0.79624    1.000
    C253     C        0.04071    0.30717    0.80104    1.000
    C254     C        0.04111    0.29374    0.83087    1.000
    H288     H        0.04120    0.30670    0.84850    1.000
    C255     C        0.04139    0.26170    0.83461    1.000
    H289     H        0.04170    0.25310    0.85470    1.000
    C256     C        0.04117    0.24216    0.80872    1.000
    C257     C        0.03988    0.25536    0.77899    1.000
    H290     H        0.03890    0.24240    0.76140    1.000
    C258     C        0.04004    0.28732    0.77529    1.000
    H291     H        0.03970    0.29580    0.75520    1.000
    C259     C        0.04316    0.20775    0.81265    1.000
    C260     C        0.11148    0.34718    0.81112    1.000
    H292     H        0.10480    0.32910    0.79930    1.000
    H293     H        0.12910    0.34110    0.82380    1.000
    C261     C        0.12100    0.37370    0.78800    1.000
    H294     H        0.12730    0.39230    0.79960    1.000
    H295     H        0.10330    0.37920    0.77470    1.000
    C262     C        0.14870    0.36170    0.76760    1.000
    H296     H        0.14360    0.34110    0.75930    1.000
    H297     H        0.15170    0.37580    0.74990    1.000
    C263     C        0.17940    0.35970    0.78640    1.000
    H298     H        0.19600    0.35230    0.77310    1.000
    H299     H        0.18470    0.38020    0.79430    1.000
    H300     H        0.17670    0.34550    0.80370    1.000
    N17      N        0.08910    0.36888    0.86119    1.000
    N18      N        0.05469    0.35794    0.82414    1.000
    O33      O        0.93060    0.40084    0.87671    1.000
    O34      O        0.93945    0.35741    0.85118    1.000
    O35      O        0.04485    0.19883    0.84183    1.000
    H301     H        0.04810    0.18040    0.84740    1.000
    O36      O        0.04289    0.18897    0.79078    1.000
    H302     H        0.98330    0.43330    0.88110    1.000
    H303     H        0.01630    0.41830    0.88430    1.000
    C264     C        0.98950    0.41040    0.92240    1.000
    C265     C        0.97880    0.42990    0.94440    1.000
    H304     H        0.97250    0.45040    0.94050    1.000
    C266     C        0.97830    0.41480    0.97600    1.000
    H305     H        0.97140    0.42480    0.99420    1.000
    C267     C        0.98890    0.38530    0.97540    1.000
    H306     H        0.99050    0.37230    0.99280    1.000
    S18      S        0.99897    0.37477    0.93822    1.000
    H307     H        0.10260    0.33910    0.79200    1.000
    H308     H        0.12220    0.33010    0.82130    1.000
    C268     C        0.13470    0.37330    0.80140    1.000
    H309     H        0.14160    0.38480    0.81980    1.000
    H310     H        0.12450    0.38790    0.78730    1.000
    C269     C        0.16340    0.35770    0.78480    1.000
    H311     H        0.17340    0.34300    0.79910    1.000
    H312     H        0.15630    0.34600    0.76660    1.000
    C270     C        0.18730    0.38260    0.77450    1.000
    H313     H        0.20480    0.37260    0.76430    1.000
    H314     H        0.17750    0.39700    0.76010    1.000
    H315     H        0.19470    0.39390    0.79260    1.000
    C271     C        0.44991    0.88171    0.36480    1.000
    C272     C        0.48421    0.88794    0.36715    1.000
    C273     C        0.49428    0.91473    0.38770    1.000
    H316     H        0.48030    0.93220    0.38490    1.000
    H317     H        0.51510    0.92120    0.38190    1.000
    C274     C        0.49380    0.90440    0.42172    1.000
    C275     C        0.49930    0.87590    0.43350    1.000
    H318     H        0.50430    0.85850    0.42120    1.000
    C276     C        0.49670    0.87500    0.46830    1.000
    H319     H        0.49980    0.85710    0.48040    1.000
    C277     C        0.48930    0.90280    0.48020    1.000
    H320     H        0.48650    0.90670    0.50150    1.000
    S19      S        0.48540    0.93055    0.45123    1.000
    C278     C        0.50348    0.86982    0.35007    1.000
    H321     H        0.49380    0.85540    0.33680    1.000
    C279     C        0.53736    0.86984    0.34969    1.000
    C280     C        0.55945    0.87629    0.37212    1.000
    H322     H        0.55510    0.88450    0.39190    1.000
    C281     C        0.58540    0.85754    0.33201    1.000
    C282     C        0.54170    0.84240    0.29624    1.000
    C283     C        0.54071    0.80717    0.30104    1.000
    C284     C        0.54111    0.79374    0.33087    1.000
    H323     H        0.54120    0.80670    0.34850    1.000
    C285     C        0.54139    0.76170    0.33461    1.000
    H324     H        0.54170    0.75310    0.35470    1.000
    C286     C        0.54117    0.74216    0.30872    1.000
    C287     C        0.53988    0.75536    0.27899    1.000
    H325     H        0.53890    0.74240    0.26140    1.000
    C288     C        0.54004    0.78732    0.27529    1.000
    H326     H        0.53970    0.79580    0.25520    1.000
    C289     C        0.54316    0.70775    0.31265    1.000
    C290     C        0.61148    0.84718    0.31112    1.000
    H327     H        0.60480    0.82910    0.29930    1.000
    H328     H        0.62910    0.84110    0.32380    1.000
    C291     C        0.62100    0.87370    0.28800    1.000
    H329     H        0.62730    0.89230    0.29960    1.000
    H330     H        0.60330    0.87920    0.27470    1.000
    C292     C        0.64870    0.86170    0.26760    1.000
    H331     H        0.64360    0.84110    0.25930    1.000
    H332     H        0.65170    0.87580    0.24990    1.000
    C293     C        0.67940    0.85970    0.28640    1.000
    H333     H        0.69600    0.85230    0.27310    1.000
    H334     H        0.68470    0.88020    0.29430    1.000
    H335     H        0.67670    0.84550    0.30370    1.000
    N19      N        0.58910    0.86888    0.36119    1.000
    N20      N        0.55469    0.85794    0.32414    1.000
    O37      O        0.43060    0.90084    0.37671    1.000
    O38      O        0.43945    0.85741    0.35118    1.000
    O39      O        0.54485    0.69883    0.34183    1.000
    H336     H        0.54810    0.68040    0.34740    1.000
    O40      O        0.54289    0.68897    0.29078    1.000
    H337     H        0.48330    0.93330    0.38110    1.000
    H338     H        0.51630    0.91830    0.38430    1.000
    C294     C        0.48950    0.91040    0.42240    1.000
    C295     C        0.47880    0.92990    0.44440    1.000
    H339     H        0.47250    0.95040    0.44050    1.000
    C296     C        0.47830    0.91480    0.47600    1.000
    H340     H        0.47140    0.92480    0.49420    1.000
    C297     C        0.48890    0.88530    0.47540    1.000
    H341     H        0.49050    0.87230    0.49280    1.000
    S20      S        0.49897    0.87477    0.43822    1.000
    H342     H        0.60260    0.83910    0.29200    1.000
    H343     H        0.62220    0.83010    0.32130    1.000
    C298     C        0.63470    0.87330    0.30140    1.000
    H344     H        0.64160    0.88480    0.31980    1.000
    H345     H        0.62450    0.88790    0.28730    1.000
    C299     C        0.66340    0.85770    0.28480    1.000
    H346     H        0.67340    0.84300    0.29910    1.000
    H347     H        0.65630    0.84600    0.26660    1.000
    C300     C        0.68730    0.88260    0.27450    1.000
    H348     H        0.70480    0.87260    0.26430    1.000
    H349     H        0.67750    0.89700    0.26010    1.000
    H350     H        0.69470    0.89390    0.29260    1.000
    C301     C        0.44991    0.11829    0.13520    1.000
    C302     C        0.48421    0.11206    0.13285    1.000
    C303     C        0.49428    0.08527    0.11230    1.000
    H351     H        0.48030    0.06780    0.11510    1.000
    H352     H        0.51510    0.07880    0.11810    1.000
    C304     C        0.49380    0.09560    0.07828    1.000
    C305     C        0.49930    0.12410    0.06650    1.000
    H353     H        0.50430    0.14150    0.07880    1.000
    C306     C        0.49670    0.12500    0.03170    1.000
    H354     H        0.49980    0.14290    0.01960    1.000
    C307     C        0.48930    0.09720    0.01980    1.000
    H355     H        0.48650    0.09330    0.99850    1.000
    S21      S        0.48540    0.06945    0.04877    1.000
    C308     C        0.50348    0.13018    0.14993    1.000
    H356     H        0.49380    0.14460    0.16320    1.000
    C309     C        0.53736    0.13016    0.15031    1.000
    C310     C        0.55945    0.12371    0.12788    1.000
    H357     H        0.55510    0.11550    0.10810    1.000
    C311     C        0.58540    0.14246    0.16799    1.000
    C312     C        0.54170    0.15760    0.20376    1.000
    C313     C        0.54071    0.19283    0.19896    1.000
    C314     C        0.54111    0.20626    0.16913    1.000
    H358     H        0.54120    0.19330    0.15150    1.000
    C315     C        0.54139    0.23830    0.16539    1.000
    H359     H        0.54170    0.24690    0.14530    1.000
    C316     C        0.54117    0.25784    0.19128    1.000
    C317     C        0.53988    0.24464    0.22101    1.000
    H360     H        0.53890    0.25760    0.23860    1.000
    C318     C        0.54004    0.21268    0.22471    1.000
    H361     H        0.53970    0.20420    0.24480    1.000
    C319     C        0.54316    0.29225    0.18735    1.000
    C320     C        0.61148    0.15282    0.18888    1.000
    H362     H        0.60480    0.17090    0.20070    1.000
    H363     H        0.62910    0.15890    0.17620    1.000
    C321     C        0.62100    0.12630    0.21200    1.000
    H364     H        0.62730    0.10770    0.20040    1.000
    H365     H        0.60330    0.12080    0.22530    1.000
    C322     C        0.64870    0.13830    0.23240    1.000
    H366     H        0.64360    0.15890    0.24070    1.000
    H367     H        0.65170    0.12420    0.25010    1.000
    C323     C        0.67940    0.14030    0.21360    1.000
    H368     H        0.69600    0.14770    0.22690    1.000
    H369     H        0.68470    0.11980    0.20570    1.000
    H370     H        0.67670    0.15450    0.19630    1.000
    N21      N        0.58910    0.13112    0.13881    1.000
    N22      N        0.55469    0.14206    0.17586    1.000
    O41      O        0.43060    0.09916    0.12329    1.000
    O42      O        0.43945    0.14259    0.14882    1.000
    O43      O        0.54485    0.30117    0.15817    1.000
    H371     H        0.54810    0.31960    0.15260    1.000
    O44      O        0.54289    0.31103    0.20922    1.000
    H372     H        0.48330    0.06670    0.11890    1.000
    H373     H        0.51630    0.08170    0.11570    1.000
    C324     C        0.48950    0.08960    0.07760    1.000
    C325     C        0.47880    0.07010    0.05560    1.000
    H374     H        0.47250    0.04960    0.05950    1.000
    C326     C        0.47830    0.08520    0.02400    1.000
    H375     H        0.47140    0.07520    0.00580    1.000
    C327     C        0.48890    0.11470    0.02460    1.000
    H376     H        0.49050    0.12770    0.00720    1.000
    S22      S        0.49897    0.12523    0.06178    1.000
    H377     H        0.60260    0.16090    0.20800    1.000
    H378     H        0.62220    0.16990    0.17870    1.000
    C328     C        0.63470    0.12670    0.19860    1.000
    H379     H        0.64160    0.11520    0.18020    1.000
    H380     H        0.62450    0.11210    0.21270    1.000
    C329     C        0.66340    0.14230    0.21520    1.000
    H381     H        0.67340    0.15700    0.20090    1.000
    H382     H        0.65630    0.15400    0.23340    1.000
    C330     C        0.68730    0.11740    0.22550    1.000
    H383     H        0.70480    0.12740    0.23570    1.000
    H384     H        0.67750    0.10300    0.23990    1.000
    H385     H        0.69470    0.10610    0.20740    1.000
    C331     C        0.94991    0.61829    0.63520    1.000
    C332     C        0.98421    0.61206    0.63285    1.000
    C333     C        0.99428    0.58527    0.61230    1.000
    H386     H        0.98030    0.56780    0.61510    1.000
    H387     H        0.01510    0.57880    0.61810    1.000
    C334     C        0.99380    0.59560    0.57828    1.000
    C335     C        0.99930    0.62410    0.56650    1.000
    H388     H        0.00430    0.64150    0.57880    1.000
    C336     C        0.99670    0.62500    0.53170    1.000
    H389     H        0.99980    0.64290    0.51960    1.000
    C337     C        0.98930    0.59720    0.51980    1.000
    H390     H        0.98650    0.59330    0.49850    1.000
    S23      S        0.98540    0.56945    0.54877    1.000
    C338     C        0.00348    0.63018    0.64993    1.000
    H391     H        0.99380    0.64460    0.66320    1.000
    C339     C        0.03736    0.63016    0.65031    1.000
    C340     C        0.05945    0.62371    0.62788    1.000
    H392     H        0.05510    0.61550    0.60810    1.000
    C341     C        0.08540    0.64246    0.66799    1.000
    C342     C        0.04170    0.65760    0.70376    1.000
    C343     C        0.04071    0.69283    0.69896    1.000
    C344     C        0.04111    0.70626    0.66913    1.000
    H393     H        0.04120    0.69330    0.65150    1.000
    C345     C        0.04139    0.73830    0.66539    1.000
    H394     H        0.04170    0.74690    0.64530    1.000
    C346     C        0.04117    0.75784    0.69128    1.000
    C347     C        0.03988    0.74464    0.72101    1.000
    H395     H        0.03890    0.75760    0.73860    1.000
    C348     C        0.04004    0.71268    0.72471    1.000
    H396     H        0.03970    0.70420    0.74480    1.000
    C349     C        0.04316    0.79225    0.68735    1.000
    C350     C        0.11148    0.65282    0.68888    1.000
    H397     H        0.10480    0.67090    0.70070    1.000
    H398     H        0.12910    0.65890    0.67620    1.000
    C351     C        0.12100    0.62630    0.71200    1.000
    H399     H        0.12730    0.60770    0.70040    1.000
    H400     H        0.10330    0.62080    0.72530    1.000
    C352     C        0.14870    0.63830    0.73240    1.000
    H401     H        0.14360    0.65890    0.74070    1.000
    H402     H        0.15170    0.62420    0.75010    1.000
    C353     C        0.17940    0.64030    0.71360    1.000
    H403     H        0.19600    0.64770    0.72690    1.000
    H404     H        0.18470    0.61980    0.70570    1.000
    H405     H        0.17670    0.65450    0.69630    1.000
    N23      N        0.08910    0.63112    0.63881    1.000
    N24      N        0.05469    0.64206    0.67586    1.000
    O45      O        0.93060    0.59916    0.62329    1.000
    O46      O        0.93945    0.64259    0.64882    1.000
    O47      O        0.04485    0.80117    0.65817    1.000
    H406     H        0.04810    0.81960    0.65260    1.000
    O48      O        0.04289    0.81103    0.70922    1.000
    H407     H        0.98330    0.56670    0.61890    1.000
    H408     H        0.01630    0.58170    0.61570    1.000
    C354     C        0.98950    0.58960    0.57760    1.000
    C355     C        0.97880    0.57010    0.55560    1.000
    H409     H        0.97250    0.54960    0.55950    1.000
    C356     C        0.97830    0.58520    0.52400    1.000
    H410     H        0.97140    0.57520    0.50580    1.000
    C357     C        0.98890    0.61470    0.52460    1.000
    H411     H        0.99050    0.62770    0.50720    1.000
    S24      S        0.99897    0.62523    0.56178    1.000
    H412     H        0.10260    0.66090    0.70800    1.000
    H413     H        0.12220    0.66990    0.67870    1.000
    C358     C        0.13470    0.62670    0.69860    1.000
    H414     H        0.14160    0.61520    0.68020    1.000
    H415     H        0.12450    0.61210    0.71270    1.000
    C359     C        0.16340    0.64230    0.71520    1.000
    H416     H        0.17340    0.65700    0.70090    1.000
    H417     H        0.15630    0.65400    0.73340    1.000
    C360     C        0.18730    0.61740    0.72550    1.000
    H418     H        0.20480    0.62740    0.73570    1.000
    H419     H        0.17750    0.60300    0.73990    1.000
    H420     H        0.19470    0.60610    0.70740    1.000
    C361     C        0.55009    0.61829    0.36480    1.000
    C362     C        0.51579    0.61206    0.36715    1.000
    C363     C        0.50572    0.58527    0.38770    1.000
    H421     H        0.51970    0.56780    0.38490    1.000
    H422     H        0.48490    0.57880    0.38190    1.000
    C364     C        0.50620    0.59560    0.42172    1.000
    C365     C        0.50070    0.62410    0.43350    1.000
    H423     H        0.49570    0.64150    0.42120    1.000
    C366     C        0.50330    0.62500    0.46830    1.000
    H424     H        0.50020    0.64290    0.48040    1.000
    C367     C        0.51070    0.59720    0.48020    1.000
    H425     H        0.51350    0.59330    0.50150    1.000
    S25      S        0.51460    0.56945    0.45123    1.000
    C368     C        0.49652    0.63018    0.35007    1.000
    H426     H        0.50620    0.64460    0.33680    1.000
    C369     C        0.46264    0.63016    0.34969    1.000
    C370     C        0.44055    0.62371    0.37212    1.000
    H427     H        0.44490    0.61550    0.39190    1.000
    C371     C        0.41460    0.64246    0.33201    1.000
    C372     C        0.45830    0.65760    0.29624    1.000
    C373     C        0.45929    0.69283    0.30104    1.000
    C374     C        0.45889    0.70626    0.33087    1.000
    H428     H        0.45880    0.69330    0.34850    1.000
    C375     C        0.45861    0.73830    0.33461    1.000
    H429     H        0.45830    0.74690    0.35470    1.000
    C376     C        0.45883    0.75784    0.30872    1.000
    C377     C        0.46012    0.74464    0.27899    1.000
    H430     H        0.46110    0.75760    0.26140    1.000
    C378     C        0.45996    0.71268    0.27529    1.000
    H431     H        0.46030    0.70420    0.25520    1.000
    C379     C        0.45684    0.79225    0.31265    1.000
    C380     C        0.38852    0.65282    0.31112    1.000
    H432     H        0.39520    0.67090    0.29930    1.000
    H433     H        0.37090    0.65890    0.32380    1.000
    C381     C        0.37900    0.62630    0.28800    1.000
    H434     H        0.37270    0.60770    0.29960    1.000
    H435     H        0.39670    0.62080    0.27470    1.000
    C382     C        0.35130    0.63830    0.26760    1.000
    H436     H        0.35640    0.65890    0.25930    1.000
    H437     H        0.34830    0.62420    0.24990    1.000
    C383     C        0.32060    0.64030    0.28640    1.000
    H438     H        0.30400    0.64770    0.27310    1.000
    H439     H        0.31530    0.61980    0.29430    1.000
    H440     H        0.32330    0.65450    0.30370    1.000
    N25      N        0.41090    0.63112    0.36119    1.000
    N26      N        0.44531    0.64206    0.32414    1.000
    O49      O        0.56940    0.59916    0.37671    1.000
    O50      O        0.56055    0.64259    0.35118    1.000
    O51      O        0.45515    0.80117    0.34183    1.000
    H441     H        0.45190    0.81960    0.34740    1.000
    O52      O        0.45711    0.81103    0.29078    1.000
    H442     H        0.51670    0.56670    0.38110    1.000
    H443     H        0.48370    0.58170    0.38430    1.000
    C384     C        0.51050    0.58960    0.42240    1.000
    C385     C        0.52120    0.57010    0.44440    1.000
    H444     H        0.52750    0.54960    0.44050    1.000
    C386     C        0.52170    0.58520    0.47600    1.000
    H445     H        0.52860    0.57520    0.49420    1.000
    C387     C        0.51110    0.61470    0.47540    1.000
    H446     H        0.50950    0.62770    0.49280    1.000
    S26      S        0.50103    0.62523    0.43822    1.000
    H447     H        0.39740    0.66090    0.29200    1.000
    H448     H        0.37780    0.66990    0.32130    1.000
    C388     C        0.36530    0.62670    0.30140    1.000
    H449     H        0.35840    0.61520    0.31980    1.000
    H450     H        0.37550    0.61210    0.28730    1.000
    C389     C        0.33660    0.64230    0.28480    1.000
    H451     H        0.32660    0.65700    0.29910    1.000
    H452     H        0.34370    0.65400    0.26660    1.000
    C390     C        0.31270    0.61740    0.27450    1.000
    H453     H        0.29520    0.62740    0.26430    1.000
    H454     H        0.32250    0.60300    0.26010    1.000
    H455     H        0.30530    0.60610    0.29260    1.000
    C391     C        0.05009    0.11829    0.86480    1.000
    C392     C        0.01579    0.11206    0.86715    1.000
    C393     C        0.00572    0.08527    0.88770    1.000
    H456     H        0.01970    0.06780    0.88490    1.000
    H457     H        0.98490    0.07880    0.88190    1.000
    C394     C        0.00620    0.09560    0.92172    1.000
    C395     C        0.00070    0.12410    0.93350    1.000
    H458     H        0.99570    0.14150    0.92120    1.000
    C396     C        0.00330    0.12500    0.96830    1.000
    H459     H        0.00020    0.14290    0.98040    1.000
    C397     C        0.01070    0.09720    0.98020    1.000
    H460     H        0.01350    0.09330    0.00150    1.000
    S27      S        0.01460    0.06945    0.95123    1.000
    C398     C        0.99652    0.13018    0.85007    1.000
    H461     H        0.00620    0.14460    0.83680    1.000
    C399     C        0.96264    0.13016    0.84969    1.000
    C400     C        0.94055    0.12371    0.87212    1.000
    H462     H        0.94490    0.11550    0.89190    1.000
    C401     C        0.91460    0.14246    0.83201    1.000
    C402     C        0.95830    0.15760    0.79624    1.000
    C403     C        0.95929    0.19283    0.80104    1.000
    C404     C        0.95889    0.20626    0.83087    1.000
    H463     H        0.95880    0.19330    0.84850    1.000
    C405     C        0.95861    0.23830    0.83461    1.000
    H464     H        0.95830    0.24690    0.85470    1.000
    C406     C        0.95883    0.25784    0.80872    1.000
    C407     C        0.96012    0.24464    0.77899    1.000
    H465     H        0.96110    0.25760    0.76140    1.000
    C408     C        0.95996    0.21268    0.77529    1.000
    H466     H        0.96030    0.20420    0.75520    1.000
    C409     C        0.95684    0.29225    0.81265    1.000
    C410     C        0.88852    0.15282    0.81112    1.000
    H467     H        0.89520    0.17090    0.79930    1.000
    H468     H        0.87090    0.15890    0.82380    1.000
    C411     C        0.87900    0.12630    0.78800    1.000
    H469     H        0.87270    0.10770    0.79960    1.000
    H470     H        0.89670    0.12080    0.77470    1.000
    C412     C        0.85130    0.13830    0.76760    1.000
    H471     H        0.85640    0.15890    0.75930    1.000
    H472     H        0.84830    0.12420    0.74990    1.000
    C413     C        0.82060    0.14030    0.78640    1.000
    H473     H        0.80400    0.14770    0.77310    1.000
    H474     H        0.81530    0.11980    0.79430    1.000
    H475     H        0.82330    0.15450    0.80370    1.000
    N27      N        0.91090    0.13112    0.86119    1.000
    N28      N        0.94531    0.14206    0.82414    1.000
    O53      O        0.06940    0.09916    0.87671    1.000
    O54      O        0.06055    0.14259    0.85118    1.000
    O55      O        0.95515    0.30117    0.84183    1.000
    H476     H        0.95190    0.31960    0.84740    1.000
    O56      O        0.95711    0.31103    0.79078    1.000
    H477     H        0.01670    0.06670    0.88110    1.000
    H478     H        0.98370    0.08170    0.88430    1.000
    C414     C        0.01050    0.08960    0.92240    1.000
    C415     C        0.02120    0.07010    0.94440    1.000
    H479     H        0.02750    0.04960    0.94050    1.000
    C416     C        0.02170    0.08520    0.97600    1.000
    H480     H        0.02860    0.07520    0.99420    1.000
    C417     C        0.01110    0.11470    0.97540    1.000
    H481     H        0.00950    0.12770    0.99280    1.000
    S28      S        0.00103    0.12523    0.93822    1.000
    H482     H        0.89740    0.16090    0.79200    1.000
    H483     H        0.87780    0.16990    0.82130    1.000
    C418     C        0.86530    0.12670    0.80140    1.000
    H484     H        0.85840    0.11520    0.81980    1.000
    H485     H        0.87550    0.11210    0.78730    1.000
    C419     C        0.83660    0.14230    0.78480    1.000
    H486     H        0.82660    0.15700    0.79910    1.000
    H487     H        0.84370    0.15400    0.76660    1.000
    C420     C        0.81270    0.11740    0.77450    1.000
    H488     H        0.79520    0.12740    0.76430    1.000
    H489     H        0.82250    0.10300    0.76010    1.000
    H490     H        0.80530    0.10610    0.79260    1.000
    C421     C        0.05009    0.88171    0.63520    1.000
    C422     C        0.01579    0.88794    0.63285    1.000
    C423     C        0.00572    0.91473    0.61230    1.000
    H491     H        0.01970    0.93220    0.61510    1.000
    H492     H        0.98490    0.92120    0.61810    1.000
    C424     C        0.00620    0.90440    0.57828    1.000
    C425     C        0.00070    0.87590    0.56650    1.000
    H493     H        0.99570    0.85850    0.57880    1.000
    C426     C        0.00330    0.87500    0.53170    1.000
    H494     H        0.00020    0.85710    0.51960    1.000
    C427     C        0.01070    0.90280    0.51980    1.000
    H495     H        0.01350    0.90670    0.49850    1.000
    S29      S        0.01460    0.93055    0.54877    1.000
    C428     C        0.99652    0.86982    0.64993    1.000
    H496     H        0.00620    0.85540    0.66320    1.000
    C429     C        0.96264    0.86984    0.65031    1.000
    C430     C        0.94055    0.87629    0.62788    1.000
    H497     H        0.94490    0.88450    0.60810    1.000
    C431     C        0.91460    0.85754    0.66799    1.000
    C432     C        0.95830    0.84240    0.70376    1.000
    C433     C        0.95929    0.80717    0.69896    1.000
    C434     C        0.95889    0.79374    0.66913    1.000
    H498     H        0.95880    0.80670    0.65150    1.000
    C435     C        0.95861    0.76170    0.66539    1.000
    H499     H        0.95830    0.75310    0.64530    1.000
    C436     C        0.95883    0.74216    0.69128    1.000
    C437     C        0.96012    0.75536    0.72101    1.000
    H500     H        0.96110    0.74240    0.73860    1.000
    C438     C        0.95996    0.78732    0.72471    1.000
    H501     H        0.96030    0.79580    0.74480    1.000
    C439     C        0.95684    0.70775    0.68735    1.000
    C440     C        0.88852    0.84718    0.68888    1.000
    H502     H        0.89520    0.82910    0.70070    1.000
    H503     H        0.87090    0.84110    0.67620    1.000
    C441     C        0.87900    0.87370    0.71200    1.000
    H504     H        0.87270    0.89230    0.70040    1.000
    H505     H        0.89670    0.87920    0.72530    1.000
    C442     C        0.85130    0.86170    0.73240    1.000
    H506     H        0.85640    0.84110    0.74070    1.000
    H507     H        0.84830    0.87580    0.75010    1.000
    C443     C        0.82060    0.85970    0.71360    1.000
    H508     H        0.80400    0.85230    0.72690    1.000
    H509     H        0.81530    0.88020    0.70570    1.000
    H510     H        0.82330    0.84550    0.69630    1.000
    N29      N        0.91090    0.86888    0.63881    1.000
    N30      N        0.94531    0.85794    0.67586    1.000
    O57      O        0.06940    0.90084    0.62329    1.000
    O58      O        0.06055    0.85741    0.64882    1.000
    O59      O        0.95515    0.69883    0.65817    1.000
    H511     H        0.95190    0.68040    0.65260    1.000
    O60      O        0.95711    0.68897    0.70922    1.000
    H512     H        0.01670    0.93330    0.61890    1.000
    H513     H        0.98370    0.91830    0.61570    1.000
    C444     C        0.01050    0.91040    0.57760    1.000
    C445     C        0.02120    0.92990    0.55560    1.000
    H514     H        0.02750    0.95040    0.55950    1.000
    C446     C        0.02170    0.91480    0.52400    1.000
    H515     H        0.02860    0.92480    0.50580    1.000
    C447     C        0.01110    0.88530    0.52460    1.000
    H516     H        0.00950    0.87230    0.50720    1.000
    S30      S        0.00103    0.87477    0.56178    1.000
    H517     H        0.89740    0.83910    0.70800    1.000
    H518     H        0.87780    0.83010    0.67870    1.000
    C448     C        0.86530    0.87330    0.69860    1.000
    H519     H        0.85840    0.88480    0.68020    1.000
    H520     H        0.87550    0.88790    0.71270    1.000
    C449     C        0.83660    0.85770    0.71520    1.000
    H521     H        0.82660    0.84300    0.70090    1.000
    H522     H        0.84370    0.84600    0.73340    1.000
    C450     C        0.81270    0.88260    0.72550    1.000
    H523     H        0.79520    0.87260    0.73570    1.000
    H524     H        0.82250    0.89700    0.73990    1.000
    H525     H        0.80530    0.89390    0.70740    1.000
    C451     C        0.55009    0.38171    0.13520    1.000
    C452     C        0.51579    0.38794    0.13285    1.000
    C453     C        0.50572    0.41473    0.11230    1.000
    H526     H        0.51970    0.43220    0.11510    1.000
    H527     H        0.48490    0.42120    0.11810    1.000
    C454     C        0.50620    0.40440    0.07828    1.000
    C455     C        0.50070    0.37590    0.06650    1.000
    H528     H        0.49570    0.35850    0.07880    1.000
    C456     C        0.50330    0.37500    0.03170    1.000
    H529     H        0.50020    0.35710    0.01960    1.000
    C457     C        0.51070    0.40280    0.01980    1.000
    H530     H        0.51350    0.40670    0.99850    1.000
    S31      S        0.51460    0.43055    0.04877    1.000
    C458     C        0.49652    0.36982    0.14993    1.000
    H531     H        0.50620    0.35540    0.16320    1.000
    C459     C        0.46264    0.36984    0.15031    1.000
    C460     C        0.44055    0.37629    0.12788    1.000
    H532     H        0.44490    0.38450    0.10810    1.000
    C461     C        0.41460    0.35754    0.16799    1.000
    C462     C        0.45830    0.34240    0.20376    1.000
    C463     C        0.45929    0.30717    0.19896    1.000
    C464     C        0.45889    0.29374    0.16913    1.000
    H533     H        0.45880    0.30670    0.15150    1.000
    C465     C        0.45861    0.26170    0.16539    1.000
    H534     H        0.45830    0.25310    0.14530    1.000
    C466     C        0.45883    0.24216    0.19128    1.000
    C467     C        0.46012    0.25536    0.22101    1.000
    H535     H        0.46110    0.24240    0.23860    1.000
    C468     C        0.45996    0.28732    0.22471    1.000
    H536     H        0.46030    0.29580    0.24480    1.000
    C469     C        0.45684    0.20775    0.18735    1.000
    C470     C        0.38852    0.34718    0.18888    1.000
    H537     H        0.39520    0.32910    0.20070    1.000
    H538     H        0.37090    0.34110    0.17620    1.000
    C471     C        0.37900    0.37370    0.21200    1.000
    H539     H        0.37270    0.39230    0.20040    1.000
    H540     H        0.39670    0.37920    0.22530    1.000
    C472     C        0.35130    0.36170    0.23240    1.000
    H541     H        0.35640    0.34110    0.24070    1.000
    H542     H        0.34830    0.37580    0.25010    1.000
    C473     C        0.32060    0.35970    0.21360    1.000
    H543     H        0.30400    0.35230    0.22690    1.000
    H544     H        0.31530    0.38020    0.20570    1.000
    H545     H        0.32330    0.34550    0.19630    1.000
    N31      N        0.41090    0.36888    0.13881    1.000
    N32      N        0.44531    0.35794    0.17586    1.000
    O61      O        0.56940    0.40084    0.12329    1.000
    O62      O        0.56055    0.35741    0.14882    1.000
    O63      O        0.45515    0.19883    0.15817    1.000
    H546     H        0.45190    0.18040    0.15260    1.000
    O64      O        0.45711    0.18897    0.20922    1.000
    H547     H        0.51670    0.43330    0.11890    1.000
    H548     H        0.48370    0.41830    0.11570    1.000
    C474     C        0.51050    0.41040    0.07760    1.000
    C475     C        0.52120    0.42990    0.05560    1.000
    H549     H        0.52750    0.45040    0.05950    1.000
    C476     C        0.52170    0.41480    0.02400    1.000
    H550     H        0.52860    0.42480    0.00580    1.000
    C477     C        0.51110    0.38530    0.02460    1.000
    H551     H        0.50950    0.37230    0.00720    1.000
    S32      S        0.50103    0.37477    0.06178    1.000
    H552     H        0.39740    0.33910    0.20800    1.000
    H553     H        0.37780    0.33010    0.17870    1.000
    C478     C        0.36530    0.37330    0.19860    1.000
    H554     H        0.35840    0.38480    0.18020    1.000
    H555     H        0.37550    0.38790    0.21270    1.000
    C479     C        0.33660    0.35770    0.21520    1.000
    H556     H        0.32660    0.34300    0.20090    1.000
    H557     H        0.34370    0.34600    0.23340    1.000
    C480     C        0.31270    0.38260    0.22550    1.000
    H558     H        0.29520    0.37260    0.23570    1.000
    H559     H        0.32250    0.39700    0.23990    1.000
    H560     H        0.30530    0.39390    0.20740    1.000
    C481     C        0.86480    0.94991    0.38171    1.000
    C482     C        0.86715    0.98421    0.38794    1.000
    C483     C        0.88770    0.99428    0.41473    1.000
    H561     H        0.88490    0.98030    0.43220    1.000
    H562     H        0.88190    0.01510    0.42120    1.000
    C484     C        0.92172    0.99380    0.40440    1.000
    C485     C        0.93350    0.99930    0.37590    1.000
    H563     H        0.92120    0.00430    0.35850    1.000
    C486     C        0.96830    0.99670    0.37500    1.000
    H564     H        0.98040    0.99980    0.35710    1.000
    C487     C        0.98020    0.98930    0.40280    1.000
    H565     H        0.00150    0.98650    0.40670    1.000
    S33      S        0.95123    0.98540    0.43055    1.000
    C488     C        0.85007    0.00348    0.36982    1.000
    H566     H        0.83680    0.99380    0.35540    1.000
    C489     C        0.84969    0.03736    0.36984    1.000
    C490     C        0.87212    0.05945    0.37629    1.000
    H567     H        0.89190    0.05510    0.38450    1.000
    C491     C        0.83201    0.08540    0.35754    1.000
    C492     C        0.79624    0.04170    0.34240    1.000
    C493     C        0.80104    0.04071    0.30717    1.000
    C494     C        0.83087    0.04111    0.29374    1.000
    H568     H        0.84850    0.04120    0.30670    1.000
    C495     C        0.83461    0.04139    0.26170    1.000
    H569     H        0.85470    0.04170    0.25310    1.000
    C496     C        0.80872    0.04117    0.24216    1.000
    C497     C        0.77899    0.03988    0.25536    1.000
    H570     H        0.76140    0.03890    0.24240    1.000
    C498     C        0.77529    0.04004    0.28732    1.000
    H571     H        0.75520    0.03970    0.29580    1.000
    C499     C        0.81265    0.04316    0.20775    1.000
    C500     C        0.81112    0.11148    0.34718    1.000
    H572     H        0.79930    0.10480    0.32910    1.000
    H573     H        0.82380    0.12910    0.34110    1.000
    C501     C        0.78800    0.12100    0.37370    1.000
    H574     H        0.79960    0.12730    0.39230    1.000
    H575     H        0.77470    0.10330    0.37920    1.000
    C502     C        0.76760    0.14870    0.36170    1.000
    H576     H        0.75930    0.14360    0.34110    1.000
    H577     H        0.74990    0.15170    0.37580    1.000
    C503     C        0.78640    0.17940    0.35970    1.000
    H578     H        0.77310    0.19600    0.35230    1.000
    H579     H        0.79430    0.18470    0.38020    1.000
    H580     H        0.80370    0.17670    0.34550    1.000
    N33      N        0.86119    0.08910    0.36888    1.000
    N34      N        0.82414    0.05469    0.35794    1.000
    O65      O        0.87671    0.93060    0.40084    1.000
    O66      O        0.85118    0.93945    0.35741    1.000
    O67      O        0.84183    0.04485    0.19883    1.000
    H581     H        0.84740    0.04810    0.18040    1.000
    O68      O        0.79078    0.04289    0.18897    1.000
    H582     H        0.88110    0.98330    0.43330    1.000
    H583     H        0.88430    0.01630    0.41830    1.000
    C504     C        0.92240    0.98950    0.41040    1.000
    C505     C        0.94440    0.97880    0.42990    1.000
    H584     H        0.94050    0.97250    0.45040    1.000
    C506     C        0.97600    0.97830    0.41480    1.000
    H585     H        0.99420    0.97140    0.42480    1.000
    C507     C        0.97540    0.98890    0.38530    1.000
    H586     H        0.99280    0.99050    0.37230    1.000
    S34      S        0.93822    0.99897    0.37477    1.000
    H587     H        0.79200    0.10260    0.33910    1.000
    H588     H        0.82130    0.12220    0.33010    1.000
    C508     C        0.80140    0.13470    0.37330    1.000
    H589     H        0.81980    0.14160    0.38480    1.000
    H590     H        0.78730    0.12450    0.38790    1.000
    C509     C        0.78480    0.16340    0.35770    1.000
    H591     H        0.79910    0.17340    0.34300    1.000
    H592     H        0.76660    0.15630    0.34600    1.000
    C510     C        0.77450    0.18730    0.38260    1.000
    H593     H        0.76430    0.20480    0.37260    1.000
    H594     H        0.76010    0.17750    0.39700    1.000
    H595     H        0.79260    0.19470    0.39390    1.000
    C511     C        0.36480    0.44991    0.88171    1.000
    C512     C        0.36715    0.48421    0.88794    1.000
    C513     C        0.38770    0.49428    0.91473    1.000
    H596     H        0.38490    0.48030    0.93220    1.000
    H597     H        0.38190    0.51510    0.92120    1.000
    C514     C        0.42172    0.49380    0.90440    1.000
    C515     C        0.43350    0.49930    0.87590    1.000
    H598     H        0.42120    0.50430    0.85850    1.000
    C516     C        0.46830    0.49670    0.87500    1.000
    H599     H        0.48040    0.49980    0.85710    1.000
    C517     C        0.48020    0.48930    0.90280    1.000
    H600     H        0.50150    0.48650    0.90670    1.000
    S35      S        0.45123    0.48540    0.93055    1.000
    C518     C        0.35007    0.50348    0.86982    1.000
    H601     H        0.33680    0.49380    0.85540    1.000
    C519     C        0.34969    0.53736    0.86984    1.000
    C520     C        0.37212    0.55945    0.87629    1.000
    H602     H        0.39190    0.55510    0.88450    1.000
    C521     C        0.33201    0.58540    0.85754    1.000
    C522     C        0.29624    0.54170    0.84240    1.000
    C523     C        0.30104    0.54071    0.80717    1.000
    C524     C        0.33087    0.54111    0.79374    1.000
    H603     H        0.34850    0.54120    0.80670    1.000
    C525     C        0.33461    0.54139    0.76170    1.000
    H604     H        0.35470    0.54170    0.75310    1.000
    C526     C        0.30872    0.54117    0.74216    1.000
    C527     C        0.27899    0.53988    0.75536    1.000
    H605     H        0.26140    0.53890    0.74240    1.000
    C528     C        0.27529    0.54004    0.78732    1.000
    H606     H        0.25520    0.53970    0.79580    1.000
    C529     C        0.31265    0.54316    0.70775    1.000
    C530     C        0.31112    0.61148    0.84718    1.000
    H607     H        0.29930    0.60480    0.82910    1.000
    H608     H        0.32380    0.62910    0.84110    1.000
    C531     C        0.28800    0.62100    0.87370    1.000
    H609     H        0.29960    0.62730    0.89230    1.000
    H610     H        0.27470    0.60330    0.87920    1.000
    C532     C        0.26760    0.64870    0.86170    1.000
    H611     H        0.25930    0.64360    0.84110    1.000
    H612     H        0.24990    0.65170    0.87580    1.000
    C533     C        0.28640    0.67940    0.85970    1.000
    H613     H        0.27310    0.69600    0.85230    1.000
    H614     H        0.29430    0.68470    0.88020    1.000
    H615     H        0.30370    0.67670    0.84550    1.000
    N35      N        0.36119    0.58910    0.86888    1.000
    N36      N        0.32414    0.55469    0.85794    1.000
    O69      O        0.37671    0.43060    0.90084    1.000
    O70      O        0.35118    0.43945    0.85741    1.000
    O71      O        0.34183    0.54485    0.69883    1.000
    H616     H        0.34740    0.54810    0.68040    1.000
    O72      O        0.29078    0.54289    0.68897    1.000
    H617     H        0.38110    0.48330    0.93330    1.000
    H618     H        0.38430    0.51630    0.91830    1.000
    C534     C        0.42240    0.48950    0.91040    1.000
    C535     C        0.44440    0.47880    0.92990    1.000
    H619     H        0.44050    0.47250    0.95040    1.000
    C536     C        0.47600    0.47830    0.91480    1.000
    H620     H        0.49420    0.47140    0.92480    1.000
    C537     C        0.47540    0.48890    0.88530    1.000
    H621     H        0.49280    0.49050    0.87230    1.000
    S36      S        0.43822    0.49897    0.87477    1.000
    H622     H        0.29200    0.60260    0.83910    1.000
    H623     H        0.32130    0.62220    0.83010    1.000
    C538     C        0.30140    0.63470    0.87330    1.000
    H624     H        0.31980    0.64160    0.88480    1.000
    H625     H        0.28730    0.62450    0.88790    1.000
    C539     C        0.28480    0.66340    0.85770    1.000
    H626     H        0.29910    0.67340    0.84300    1.000
    H627     H        0.26660    0.65630    0.84600    1.000
    C540     C        0.27450    0.68730    0.88260    1.000
    H628     H        0.26430    0.70480    0.87260    1.000
    H629     H        0.26010    0.67750    0.89700    1.000
    H630     H        0.29260    0.69470    0.89390    1.000
    C541     C        0.13520    0.44991    0.11829    1.000
    C542     C        0.13285    0.48421    0.11206    1.000
    C543     C        0.11230    0.49428    0.08527    1.000
    H631     H        0.11510    0.48030    0.06780    1.000
    H632     H        0.11810    0.51510    0.07880    1.000
    C544     C        0.07828    0.49380    0.09560    1.000
    C545     C        0.06650    0.49930    0.12410    1.000
    H633     H        0.07880    0.50430    0.14150    1.000
    C546     C        0.03170    0.49670    0.12500    1.000
    H634     H        0.01960    0.49980    0.14290    1.000
    C547     C        0.01980    0.48930    0.09720    1.000
    H635     H        0.99850    0.48650    0.09330    1.000
    S37      S        0.04877    0.48540    0.06945    1.000
    C548     C        0.14993    0.50348    0.13018    1.000
    H636     H        0.16320    0.49380    0.14460    1.000
    C549     C        0.15031    0.53736    0.13016    1.000
    C550     C        0.12788    0.55945    0.12371    1.000
    H637     H        0.10810    0.55510    0.11550    1.000
    C551     C        0.16799    0.58540    0.14246    1.000
    C552     C        0.20376    0.54170    0.15760    1.000
    C553     C        0.19896    0.54071    0.19283    1.000
    C554     C        0.16913    0.54111    0.20626    1.000
    H638     H        0.15150    0.54120    0.19330    1.000
    C555     C        0.16539    0.54139    0.23830    1.000
    H639     H        0.14530    0.54170    0.24690    1.000
    C556     C        0.19128    0.54117    0.25784    1.000
    C557     C        0.22101    0.53988    0.24464    1.000
    H640     H        0.23860    0.53890    0.25760    1.000
    C558     C        0.22471    0.54004    0.21268    1.000
    H641     H        0.24480    0.53970    0.20420    1.000
    C559     C        0.18735    0.54316    0.29225    1.000
    C560     C        0.18888    0.61148    0.15282    1.000
    H642     H        0.20070    0.60480    0.17090    1.000
    H643     H        0.17620    0.62910    0.15890    1.000
    C561     C        0.21200    0.62100    0.12630    1.000
    H644     H        0.20040    0.62730    0.10770    1.000
    H645     H        0.22530    0.60330    0.12080    1.000
    C562     C        0.23240    0.64870    0.13830    1.000
    H646     H        0.24070    0.64360    0.15890    1.000
    H647     H        0.25010    0.65170    0.12420    1.000
    C563     C        0.21360    0.67940    0.14030    1.000
    H648     H        0.22690    0.69600    0.14770    1.000
    H649     H        0.20570    0.68470    0.11980    1.000
    H650     H        0.19630    0.67670    0.15450    1.000
    N37      N        0.13881    0.58910    0.13112    1.000
    N38      N        0.17586    0.55469    0.14206    1.000
    O73      O        0.12329    0.43060    0.09916    1.000
    O74      O        0.14882    0.43945    0.14259    1.000
    O75      O        0.15817    0.54485    0.30117    1.000
    H651     H        0.15260    0.54810    0.31960    1.000
    O76      O        0.20922    0.54289    0.31103    1.000
    H652     H        0.11890    0.48330    0.06670    1.000
    H653     H        0.11570    0.51630    0.08170    1.000
    C564     C        0.07760    0.48950    0.08960    1.000
    C565     C        0.05560    0.47880    0.07010    1.000
    H654     H        0.05950    0.47250    0.04960    1.000
    C566     C        0.02400    0.47830    0.08520    1.000
    H655     H        0.00580    0.47140    0.07520    1.000
    C567     C        0.02460    0.48890    0.11470    1.000
    H656     H        0.00720    0.49050    0.12770    1.000
    S38      S        0.06178    0.49897    0.12523    1.000
    H657     H        0.20800    0.60260    0.16090    1.000
    H658     H        0.17870    0.62220    0.16990    1.000
    C568     C        0.19860    0.63470    0.12670    1.000
    H659     H        0.18020    0.64160    0.11520    1.000
    H660     H        0.21270    0.62450    0.11210    1.000
    C569     C        0.21520    0.66340    0.14230    1.000
    H661     H        0.20090    0.67340    0.15700    1.000
    H662     H        0.23340    0.65630    0.15400    1.000
    C570     C        0.22550    0.68730    0.11740    1.000
    H663     H        0.23570    0.70480    0.12740    1.000
    H664     H        0.23990    0.67750    0.10300    1.000
    H665     H        0.20740    0.69470    0.10610    1.000
    C571     C        0.63520    0.94991    0.61829    1.000
    C572     C        0.63285    0.98421    0.61206    1.000
    C573     C        0.61230    0.99428    0.58527    1.000
    H666     H        0.61510    0.98030    0.56780    1.000
    H667     H        0.61810    0.01510    0.57880    1.000
    C574     C        0.57828    0.99380    0.59560    1.000
    C575     C        0.56650    0.99930    0.62410    1.000
    H668     H        0.57880    0.00430    0.64150    1.000
    C576     C        0.53170    0.99670    0.62500    1.000
    H669     H        0.51960    0.99980    0.64290    1.000
    C577     C        0.51980    0.98930    0.59720    1.000
    H670     H        0.49850    0.98650    0.59330    1.000
    S39      S        0.54877    0.98540    0.56945    1.000
    C578     C        0.64993    0.00348    0.63018    1.000
    H671     H        0.66320    0.99380    0.64460    1.000
    C579     C        0.65031    0.03736    0.63016    1.000
    C580     C        0.62788    0.05945    0.62371    1.000
    H672     H        0.60810    0.05510    0.61550    1.000
    C581     C        0.66799    0.08540    0.64246    1.000
    C582     C        0.70376    0.04170    0.65760    1.000
    C583     C        0.69896    0.04071    0.69283    1.000
    C584     C        0.66913    0.04111    0.70626    1.000
    H673     H        0.65150    0.04120    0.69330    1.000
    C585     C        0.66539    0.04139    0.73830    1.000
    H674     H        0.64530    0.04170    0.74690    1.000
    C586     C        0.69128    0.04117    0.75784    1.000
    C587     C        0.72101    0.03988    0.74464    1.000
    H675     H        0.73860    0.03890    0.75760    1.000
    C588     C        0.72471    0.04004    0.71268    1.000
    H676     H        0.74480    0.03970    0.70420    1.000
    C589     C        0.68735    0.04316    0.79225    1.000
    C590     C        0.68888    0.11148    0.65282    1.000
    H677     H        0.70070    0.10480    0.67090    1.000
    H678     H        0.67620    0.12910    0.65890    1.000
    C591     C        0.71200    0.12100    0.62630    1.000
    H679     H        0.70040    0.12730    0.60770    1.000
    H680     H        0.72530    0.10330    0.62080    1.000
    C592     C        0.73240    0.14870    0.63830    1.000
    H681     H        0.74070    0.14360    0.65890    1.000
    H682     H        0.75010    0.15170    0.62420    1.000
    C593     C        0.71360    0.17940    0.64030    1.000
    H683     H        0.72690    0.19600    0.64770    1.000
    H684     H        0.70570    0.18470    0.61980    1.000
    H685     H        0.69630    0.17670    0.65450    1.000
    N39      N        0.63881    0.08910    0.63112    1.000
    N40      N        0.67586    0.05469    0.64206    1.000
    O77      O        0.62329    0.93060    0.59916    1.000
    O78      O        0.64882    0.93945    0.64259    1.000
    O79      O        0.65817    0.04485    0.80117    1.000
    H686     H        0.65260    0.04810    0.81960    1.000
    O80      O        0.70922    0.04289    0.81103    1.000
    H687     H        0.61890    0.98330    0.56670    1.000
    H688     H        0.61570    0.01630    0.58170    1.000
    C594     C        0.57760    0.98950    0.58960    1.000
    C595     C        0.55560    0.97880    0.57010    1.000
    H689     H        0.55950    0.97250    0.54960    1.000
    C596     C        0.52400    0.97830    0.58520    1.000
    H690     H        0.50580    0.97140    0.57520    1.000
    C597     C        0.52460    0.98890    0.61470    1.000
    H691     H        0.50720    0.99050    0.62770    1.000
    S40      S        0.56178    0.99897    0.62523    1.000
    H692     H        0.70800    0.10260    0.66090    1.000
    H693     H        0.67870    0.12220    0.66990    1.000
    C598     C        0.69860    0.13470    0.62670    1.000
    H694     H        0.68020    0.14160    0.61520    1.000
    H695     H        0.71270    0.12450    0.61210    1.000
    C599     C        0.71520    0.16340    0.64230    1.000
    H696     H        0.70090    0.17340    0.65700    1.000
    H697     H        0.73340    0.15630    0.65400    1.000
    C600     C        0.72550    0.18730    0.61740    1.000
    H698     H        0.73570    0.20480    0.62740    1.000
    H699     H        0.73990    0.17750    0.60300    1.000
    H700     H        0.70740    0.19470    0.60610    1.000
    C601     C        0.36480    0.55009    0.61829    1.000
    C602     C        0.36715    0.51579    0.61206    1.000
    C603     C        0.38770    0.50572    0.58527    1.000
    H701     H        0.38490    0.51970    0.56780    1.000
    H702     H        0.38190    0.48490    0.57880    1.000
    C604     C        0.42172    0.50620    0.59560    1.000
    C605     C        0.43350    0.50070    0.62410    1.000
    H703     H        0.42120    0.49570    0.64150    1.000
    C606     C        0.46830    0.50330    0.62500    1.000
    H704     H        0.48040    0.50020    0.64290    1.000
    C607     C        0.48020    0.51070    0.59720    1.000
    H705     H        0.50150    0.51350    0.59330    1.000
    S41      S        0.45123    0.51460    0.56945    1.000
    C608     C        0.35007    0.49652    0.63018    1.000
    H706     H        0.33680    0.50620    0.64460    1.000
    C609     C        0.34969    0.46264    0.63016    1.000
    C610     C        0.37212    0.44055    0.62371    1.000
    H707     H        0.39190    0.44490    0.61550    1.000
    C611     C        0.33201    0.41460    0.64246    1.000
    C612     C        0.29624    0.45830    0.65760    1.000
    C613     C        0.30104    0.45929    0.69283    1.000
    C614     C        0.33087    0.45889    0.70626    1.000
    H708     H        0.34850    0.45880    0.69330    1.000
    C615     C        0.33461    0.45861    0.73830    1.000
    H709     H        0.35470    0.45830    0.74690    1.000
    C616     C        0.30872    0.45883    0.75784    1.000
    C617     C        0.27899    0.46012    0.74464    1.000
    H710     H        0.26140    0.46110    0.75760    1.000
    C618     C        0.27529    0.45996    0.71268    1.000
    H711     H        0.25520    0.46030    0.70420    1.000
    C619     C        0.31265    0.45684    0.79225    1.000
    C620     C        0.31112    0.38852    0.65282    1.000
    H712     H        0.29930    0.39520    0.67090    1.000
    H713     H        0.32380    0.37090    0.65890    1.000
    C621     C        0.28800    0.37900    0.62630    1.000
    H714     H        0.29960    0.37270    0.60770    1.000
    H715     H        0.27470    0.39670    0.62080    1.000
    C622     C        0.26760    0.35130    0.63830    1.000
    H716     H        0.25930    0.35640    0.65890    1.000
    H717     H        0.24990    0.34830    0.62420    1.000
    C623     C        0.28640    0.32060    0.64030    1.000
    H718     H        0.27310    0.30400    0.64770    1.000
    H719     H        0.29430    0.31530    0.61980    1.000
    H720     H        0.30370    0.32330    0.65450    1.000
    N41      N        0.36119    0.41090    0.63112    1.000
    N42      N        0.32414    0.44531    0.64206    1.000
    O81      O        0.37671    0.56940    0.59916    1.000
    O82      O        0.35118    0.56055    0.64259    1.000
    O83      O        0.34183    0.45515    0.80117    1.000
    H721     H        0.34740    0.45190    0.81960    1.000
    O84      O        0.29078    0.45711    0.81103    1.000
    H722     H        0.38110    0.51670    0.56670    1.000
    H723     H        0.38430    0.48370    0.58170    1.000
    C624     C        0.42240    0.51050    0.58960    1.000
    C625     C        0.44440    0.52120    0.57010    1.000
    H724     H        0.44050    0.52750    0.54960    1.000
    C626     C        0.47600    0.52170    0.58520    1.000
    H725     H        0.49420    0.52860    0.57520    1.000
    C627     C        0.47540    0.51110    0.61470    1.000
    H726     H        0.49280    0.50950    0.62770    1.000
    S42      S        0.43822    0.50103    0.62523    1.000
    H727     H        0.29200    0.39740    0.66090    1.000
    H728     H        0.32130    0.37780    0.66990    1.000
    C628     C        0.30140    0.36530    0.62670    1.000
    H729     H        0.31980    0.35840    0.61520    1.000
    H730     H        0.28730    0.37550    0.61210    1.000
    C629     C        0.28480    0.33660    0.64230    1.000
    H731     H        0.29910    0.32660    0.65700    1.000
    H732     H        0.26660    0.34370    0.65400    1.000
    C630     C        0.27450    0.31270    0.61740    1.000
    H733     H        0.26430    0.29520    0.62740    1.000
    H734     H        0.26010    0.32250    0.60300    1.000
    H735     H        0.29260    0.30530    0.60610    1.000
    C631     C        0.86480    0.05009    0.11829    1.000
    C632     C        0.86715    0.01579    0.11206    1.000
    C633     C        0.88770    0.00572    0.08527    1.000
    H736     H        0.88490    0.01970    0.06780    1.000
    H737     H        0.88190    0.98490    0.07880    1.000
    C634     C        0.92172    0.00620    0.09560    1.000
    C635     C        0.93350    0.00070    0.12410    1.000
    H738     H        0.92120    0.99570    0.14150    1.000
    C636     C        0.96830    0.00330    0.12500    1.000
    H739     H        0.98040    0.00020    0.14290    1.000
    C637     C        0.98020    0.01070    0.09720    1.000
    H740     H        0.00150    0.01350    0.09330    1.000
    S43      S        0.95123    0.01460    0.06945    1.000
    C638     C        0.85007    0.99652    0.13018    1.000
    H741     H        0.83680    0.00620    0.14460    1.000
    C639     C        0.84969    0.96264    0.13016    1.000
    C640     C        0.87212    0.94055    0.12371    1.000
    H742     H        0.89190    0.94490    0.11550    1.000
    C641     C        0.83201    0.91460    0.14246    1.000
    C642     C        0.79624    0.95830    0.15760    1.000
    C643     C        0.80104    0.95929    0.19283    1.000
    C644     C        0.83087    0.95889    0.20626    1.000
    H743     H        0.84850    0.95880    0.19330    1.000
    C645     C        0.83461    0.95861    0.23830    1.000
    H744     H        0.85470    0.95830    0.24690    1.000
    C646     C        0.80872    0.95883    0.25784    1.000
    C647     C        0.77899    0.96012    0.24464    1.000
    H745     H        0.76140    0.96110    0.25760    1.000
    C648     C        0.77529    0.95996    0.21268    1.000
    H746     H        0.75520    0.96030    0.20420    1.000
    C649     C        0.81265    0.95684    0.29225    1.000
    C650     C        0.81112    0.88852    0.15282    1.000
    H747     H        0.79930    0.89520    0.17090    1.000
    H748     H        0.82380    0.87090    0.15890    1.000
    C651     C        0.78800    0.87900    0.12630    1.000
    H749     H        0.79960    0.87270    0.10770    1.000
    H750     H        0.77470    0.89670    0.12080    1.000
    C652     C        0.76760    0.85130    0.13830    1.000
    H751     H        0.75930    0.85640    0.15890    1.000
    H752     H        0.74990    0.84830    0.12420    1.000
    C653     C        0.78640    0.82060    0.14030    1.000
    H753     H        0.77310    0.80400    0.14770    1.000
    H754     H        0.79430    0.81530    0.11980    1.000
    H755     H        0.80370    0.82330    0.15450    1.000
    N43      N        0.86119    0.91090    0.13112    1.000
    N44      N        0.82414    0.94531    0.14206    1.000
    O85      O        0.87671    0.06940    0.09916    1.000
    O86      O        0.85118    0.06055    0.14259    1.000
    O87      O        0.84183    0.95515    0.30117    1.000
    H756     H        0.84740    0.95190    0.31960    1.000
    O88      O        0.79078    0.95711    0.31103    1.000
    H757     H        0.88110    0.01670    0.06670    1.000
    H758     H        0.88430    0.98370    0.08170    1.000
    C654     C        0.92240    0.01050    0.08960    1.000
    C655     C        0.94440    0.02120    0.07010    1.000
    H759     H        0.94050    0.02750    0.04960    1.000
    C656     C        0.97600    0.02170    0.08520    1.000
    H760     H        0.99420    0.02860    0.07520    1.000
    C657     C        0.97540    0.01110    0.11470    1.000
    H761     H        0.99280    0.00950    0.12770    1.000
    S44      S        0.93822    0.00103    0.12523    1.000
    H762     H        0.79200    0.89740    0.16090    1.000
    H763     H        0.82130    0.87780    0.16990    1.000
    C658     C        0.80140    0.86530    0.12670    1.000
    H764     H        0.81980    0.85840    0.11520    1.000
    H765     H        0.78730    0.87550    0.11210    1.000
    C659     C        0.78480    0.83660    0.14230    1.000
    H766     H        0.79910    0.82660    0.15700    1.000
    H767     H        0.76660    0.84370    0.15400    1.000
    C660     C        0.77450    0.81270    0.11740    1.000
    H768     H        0.76430    0.79520    0.12740    1.000
    H769     H        0.76010    0.82250    0.10300    1.000
    H770     H        0.79260    0.80530    0.10610    1.000
    C661     C        0.63520    0.05009    0.88171    1.000
    C662     C        0.63285    0.01579    0.88794    1.000
    C663     C        0.61230    0.00572    0.91473    1.000
    H771     H        0.61510    0.01970    0.93220    1.000
    H772     H        0.61810    0.98490    0.92120    1.000
    C664     C        0.57828    0.00620    0.90440    1.000
    C665     C        0.56650    0.00070    0.87590    1.000
    H773     H        0.57880    0.99570    0.85850    1.000
    C666     C        0.53170    0.00330    0.87500    1.000
    H774     H        0.51960    0.00020    0.85710    1.000
    C667     C        0.51980    0.01070    0.90280    1.000
    H775     H        0.49850    0.01350    0.90670    1.000
    S45      S        0.54877    0.01460    0.93055    1.000
    C668     C        0.64993    0.99652    0.86982    1.000
    H776     H        0.66320    0.00620    0.85540    1.000
    C669     C        0.65031    0.96264    0.86984    1.000
    C670     C        0.62788    0.94055    0.87629    1.000
    H777     H        0.60810    0.94490    0.88450    1.000
    C671     C        0.66799    0.91460    0.85754    1.000
    C672     C        0.70376    0.95830    0.84240    1.000
    C673     C        0.69896    0.95929    0.80717    1.000
    C674     C        0.66913    0.95889    0.79374    1.000
    H778     H        0.65150    0.95880    0.80670    1.000
    C675     C        0.66539    0.95861    0.76170    1.000
    H779     H        0.64530    0.95830    0.75310    1.000
    C676     C        0.69128    0.95883    0.74216    1.000
    C677     C        0.72101    0.96012    0.75536    1.000
    H780     H        0.73860    0.96110    0.74240    1.000
    C678     C        0.72471    0.95996    0.78732    1.000
    H781     H        0.74480    0.96030    0.79580    1.000
    C679     C        0.68735    0.95684    0.70775    1.000
    C680     C        0.68888    0.88852    0.84718    1.000
    H782     H        0.70070    0.89520    0.82910    1.000
    H783     H        0.67620    0.87090    0.84110    1.000
    C681     C        0.71200    0.87900    0.87370    1.000
    H784     H        0.70040    0.87270    0.89230    1.000
    H785     H        0.72530    0.89670    0.87920    1.000
    C682     C        0.73240    0.85130    0.86170    1.000
    H786     H        0.74070    0.85640    0.84110    1.000
    H787     H        0.75010    0.84830    0.87580    1.000
    C683     C        0.71360    0.82060    0.85970    1.000
    H788     H        0.72690    0.80400    0.85230    1.000
    H789     H        0.70570    0.81530    0.88020    1.000
    H790     H        0.69630    0.82330    0.84550    1.000
    N45      N        0.63881    0.91090    0.86888    1.000
    N46      N        0.67586    0.94531    0.85794    1.000
    O89      O        0.62329    0.06940    0.90084    1.000
    O90      O        0.64882    0.06055    0.85741    1.000
    O91      O        0.65817    0.95515    0.69883    1.000
    H791     H        0.65260    0.95190    0.68040    1.000
    O92      O        0.70922    0.95711    0.68897    1.000
    H792     H        0.61890    0.01670    0.93330    1.000
    H793     H        0.61570    0.98370    0.91830    1.000
    C684     C        0.57760    0.01050    0.91040    1.000
    C685     C        0.55560    0.02120    0.92990    1.000
    H794     H        0.55950    0.02750    0.95040    1.000
    C686     C        0.52400    0.02170    0.91480    1.000
    H795     H        0.50580    0.02860    0.92480    1.000
    C687     C        0.52460    0.01110    0.88530    1.000
    H796     H        0.50720    0.00950    0.87230    1.000
    S46      S        0.56178    0.00103    0.87477    1.000
    H797     H        0.70800    0.89740    0.83910    1.000
    H798     H        0.67870    0.87780    0.83010    1.000
    C688     C        0.69860    0.86530    0.87330    1.000
    H799     H        0.68020    0.85840    0.88480    1.000
    H800     H        0.71270    0.87550    0.88790    1.000
    C689     C        0.71520    0.83660    0.85770    1.000
    H801     H        0.70090    0.82660    0.84300    1.000
    H802     H        0.73340    0.84370    0.84600    1.000
    C690     C        0.72550    0.81270    0.88260    1.000
    H803     H        0.73570    0.79520    0.87260    1.000
    H804     H        0.73990    0.82250    0.89700    1.000
    H805     H        0.70740    0.80530    0.89390    1.000
    C691     C        0.13520    0.55009    0.38171    1.000
    C692     C        0.13285    0.51579    0.38794    1.000
    C693     C        0.11230    0.50572    0.41473    1.000
    H806     H        0.11510    0.51970    0.43220    1.000
    H807     H        0.11810    0.48490    0.42120    1.000
    C694     C        0.07828    0.50620    0.40440    1.000
    C695     C        0.06650    0.50070    0.37590    1.000
    H808     H        0.07880    0.49570    0.35850    1.000
    C696     C        0.03170    0.50330    0.37500    1.000
    H809     H        0.01960    0.50020    0.35710    1.000
    C697     C        0.01980    0.51070    0.40280    1.000
    H810     H        0.99850    0.51350    0.40670    1.000
    S47      S        0.04877    0.51460    0.43055    1.000
    C698     C        0.14993    0.49652    0.36982    1.000
    H811     H        0.16320    0.50620    0.35540    1.000
    C699     C        0.15031    0.46264    0.36984    1.000
    C700     C        0.12788    0.44055    0.37629    1.000
    H812     H        0.10810    0.44490    0.38450    1.000
    C701     C        0.16799    0.41460    0.35754    1.000
    C702     C        0.20376    0.45830    0.34240    1.000
    C703     C        0.19896    0.45929    0.30717    1.000
    C704     C        0.16913    0.45889    0.29374    1.000
    H813     H        0.15150    0.45880    0.30670    1.000
    C705     C        0.16539    0.45861    0.26170    1.000
    H814     H        0.14530    0.45830    0.25310    1.000
    C706     C        0.19128    0.45883    0.24216    1.000
    C707     C        0.22101    0.46012    0.25536    1.000
    H815     H        0.23860    0.46110    0.24240    1.000
    C708     C        0.22471    0.45996    0.28732    1.000
    H816     H        0.24480    0.46030    0.29580    1.000
    C709     C        0.18735    0.45684    0.20775    1.000
    C710     C        0.18888    0.38852    0.34718    1.000
    H817     H        0.20070    0.39520    0.32910    1.000
    H818     H        0.17620    0.37090    0.34110    1.000
    C711     C        0.21200    0.37900    0.37370    1.000
    H819     H        0.20040    0.37270    0.39230    1.000
    H820     H        0.22530    0.39670    0.37920    1.000
    C712     C        0.23240    0.35130    0.36170    1.000
    H821     H        0.24070    0.35640    0.34110    1.000
    H822     H        0.25010    0.34830    0.37580    1.000
    C713     C        0.21360    0.32060    0.35970    1.000
    H823     H        0.22690    0.30400    0.35230    1.000
    H824     H        0.20570    0.31530    0.38020    1.000
    H825     H        0.19630    0.32330    0.34550    1.000
    N47      N        0.13881    0.41090    0.36888    1.000
    N48      N        0.17586    0.44531    0.35794    1.000
    O93      O        0.12329    0.56940    0.40084    1.000
    O94      O        0.14882    0.56055    0.35741    1.000
    O95      O        0.15817    0.45515    0.19883    1.000
    H826     H        0.15260    0.45190    0.18040    1.000
    O96      O        0.20922    0.45711    0.18897    1.000
    H827     H        0.11890    0.51670    0.43330    1.000
    H828     H        0.11570    0.48370    0.41830    1.000
    C714     C        0.07760    0.51050    0.41040    1.000
    C715     C        0.05560    0.52120    0.42990    1.000
    H829     H        0.05950    0.52750    0.45040    1.000
    C716     C        0.02400    0.52170    0.41480    1.000
    H830     H        0.00580    0.52860    0.42480    1.000
    C717     C        0.02460    0.51110    0.38530    1.000
    H831     H        0.00720    0.50950    0.37230    1.000
    S48      S        0.06178    0.50103    0.37477    1.000
    H832     H        0.20800    0.39740    0.33910    1.000
    H833     H        0.17870    0.37780    0.33010    1.000
    C718     C        0.19860    0.36530    0.37330    1.000
    H834     H        0.18020    0.35840    0.38480    1.000
    H835     H        0.21270    0.37550    0.38790    1.000
    C719     C        0.21520    0.33660    0.35770    1.000
    H836     H        0.20090    0.32660    0.34300    1.000
    H837     H        0.23340    0.34370    0.34600    1.000
    C720     C        0.22550    0.31270    0.38260    1.000
    H838     H        0.23570    0.29520    0.37260    1.000
    H839     H        0.23990    0.32250    0.39700    1.000
    H840     H        0.20740    0.30530    0.39390    1.000
    C721     C        0.61480    0.63171    0.30009    1.000
    C722     C        0.61715    0.63794    0.26579    1.000
    C723     C        0.63770    0.66473    0.25572    1.000
    H841     H        0.63490    0.68220    0.26970    1.000
    H842     H        0.63190    0.67120    0.23490    1.000
    C724     C        0.67172    0.65440    0.25620    1.000
    C725     C        0.68350    0.62590    0.25070    1.000
    H843     H        0.67120    0.60850    0.24570    1.000
    C726     C        0.71830    0.62500    0.25330    1.000
    H844     H        0.73040    0.60710    0.25020    1.000
    C727     C        0.73020    0.65280    0.26070    1.000
    H845     H        0.75150    0.65670    0.26350    1.000
    S49      S        0.70123    0.68055    0.26460    1.000
    C728     C        0.60007    0.61982    0.24652    1.000
    H846     H        0.58680    0.60540    0.25620    1.000
    C729     C        0.59969    0.61984    0.21264    1.000
    C730     C        0.62212    0.62629    0.19055    1.000
    H847     H        0.64190    0.63450    0.19490    1.000
    C731     C        0.58201    0.60754    0.16460    1.000
    C732     C        0.54624    0.59240    0.20830    1.000
    C733     C        0.55104    0.55717    0.20929    1.000
    C734     C        0.58087    0.54374    0.20889    1.000
    H848     H        0.59850    0.55670    0.20880    1.000
    C735     C        0.58461    0.51170    0.20861    1.000
    H849     H        0.60470    0.50310    0.20830    1.000
    C736     C        0.55872    0.49216    0.20883    1.000
    C737     C        0.52899    0.50536    0.21012    1.000
    H850     H        0.51140    0.49240    0.21110    1.000
    C738     C        0.52529    0.53732    0.20996    1.000
    H851     H        0.50520    0.54580    0.21030    1.000
    C739     C        0.56265    0.45775    0.20684    1.000
    C740     C        0.56112    0.59718    0.13852    1.000
    H852     H        0.54930    0.57910    0.14520    1.000
    H853     H        0.57380    0.59110    0.12090    1.000
    C741     C        0.53800    0.62370    0.12900    1.000
    H854     H        0.54960    0.64230    0.12270    1.000
    H855     H        0.52470    0.62920    0.14670    1.000
    C742     C        0.51760    0.61170    0.10130    1.000
    H856     H        0.50930    0.59110    0.10640    1.000
    H857     H        0.49990    0.62580    0.09830    1.000
    C743     C        0.53640    0.60970    0.07060    1.000
    H858     H        0.52310    0.60230    0.05400    1.000
    H859     H        0.54430    0.63020    0.06530    1.000
    H860     H        0.55370    0.59550    0.07330    1.000
    N49      N        0.61119    0.61888    0.16090    1.000
    N50      N        0.57414    0.60794    0.19531    1.000
    O97      O        0.62671    0.65084    0.31940    1.000
    O98      O        0.60118    0.60741    0.31055    1.000
    O99      O        0.59183    0.44883    0.20515    1.000
    H861     H        0.59740    0.43040    0.20190    1.000
    O100     O        0.54078    0.43897    0.20711    1.000
    H862     H        0.63110    0.68330    0.26670    1.000
    H863     H        0.63430    0.66830    0.23370    1.000
    C744     C        0.67240    0.66040    0.26050    1.000
    C745     C        0.69440    0.67990    0.27120    1.000
    H864     H        0.69050    0.70040    0.27750    1.000
    C746     C        0.72600    0.66480    0.27170    1.000
    H865     H        0.74420    0.67480    0.27860    1.000
    C747     C        0.72540    0.63530    0.26110    1.000
    H866     H        0.74280    0.62230    0.25950    1.000
    S50      S        0.68822    0.62477    0.25103    1.000
    H867     H        0.54200    0.58910    0.14740    1.000
    H868     H        0.57130    0.58010    0.12780    1.000
    C748     C        0.55140    0.62330    0.11530    1.000
    H869     H        0.56980    0.63480    0.10840    1.000
    H870     H        0.53730    0.63790    0.12550    1.000
    C749     C        0.53480    0.60770    0.08660    1.000
    H871     H        0.54910    0.59300    0.07660    1.000
    H872     H        0.51660    0.59600    0.09370    1.000
    C750     C        0.52450    0.63260    0.06270    1.000
    H873     H        0.51430    0.62260    0.04520    1.000
    H874     H        0.51010    0.64700    0.07250    1.000
    H875     H        0.54260    0.64390    0.05530    1.000
    C751     C        0.11480    0.13171    0.80009    1.000
    C752     C        0.11715    0.13794    0.76579    1.000
    C753     C        0.13770    0.16473    0.75572    1.000
    H876     H        0.13490    0.18220    0.76970    1.000
    H877     H        0.13190    0.17120    0.73490    1.000
    C754     C        0.17172    0.15440    0.75620    1.000
    C755     C        0.18350    0.12590    0.75070    1.000
    H878     H        0.17120    0.10850    0.74570    1.000
    C756     C        0.21830    0.12500    0.75330    1.000
    H879     H        0.23040    0.10710    0.75020    1.000
    C757     C        0.23020    0.15280    0.76070    1.000
    H880     H        0.25150    0.15670    0.76350    1.000
    S51      S        0.20123    0.18055    0.76460    1.000
    C758     C        0.10007    0.11982    0.74652    1.000
    H881     H        0.08680    0.10540    0.75620    1.000
    C759     C        0.09969    0.11984    0.71264    1.000
    C760     C        0.12212    0.12629    0.69055    1.000
    H882     H        0.14190    0.13450    0.69490    1.000
    C761     C        0.08201    0.10754    0.66460    1.000
    C762     C        0.04624    0.09240    0.70830    1.000
    C763     C        0.05104    0.05717    0.70929    1.000
    C764     C        0.08087    0.04374    0.70889    1.000
    H883     H        0.09850    0.05670    0.70880    1.000
    C765     C        0.08461    0.01170    0.70861    1.000
    H884     H        0.10470    0.00310    0.70830    1.000
    C766     C        0.05872    0.99216    0.70883    1.000
    C767     C        0.02899    0.00536    0.71012    1.000
    H885     H        0.01140    0.99240    0.71110    1.000
    C768     C        0.02529    0.03732    0.70996    1.000
    H886     H        0.00520    0.04580    0.71030    1.000
    C769     C        0.06265    0.95775    0.70684    1.000
    C770     C        0.06112    0.09718    0.63852    1.000
    H887     H        0.04930    0.07910    0.64520    1.000
    H888     H        0.07380    0.09110    0.62090    1.000
    C771     C        0.03800    0.12370    0.62900    1.000
    H889     H        0.04960    0.14230    0.62270    1.000
    H890     H        0.02470    0.12920    0.64670    1.000
    C772     C        0.01760    0.11170    0.60130    1.000
    H891     H        0.00930    0.09110    0.60640    1.000
    H892     H        0.99990    0.12580    0.59830    1.000
    C773     C        0.03640    0.10970    0.57060    1.000
    H893     H        0.02310    0.10230    0.55400    1.000
    H894     H        0.04430    0.13020    0.56530    1.000
    H895     H        0.05370    0.09550    0.57330    1.000
    N51      N        0.11119    0.11888    0.66090    1.000
    N52      N        0.07414    0.10794    0.69531    1.000
    O101     O        0.12671    0.15084    0.81940    1.000
    O102     O        0.10118    0.10741    0.81055    1.000
    O103     O        0.09183    0.94883    0.70515    1.000
    H896     H        0.09740    0.93040    0.70190    1.000
    O104     O        0.04078    0.93897    0.70711    1.000
    H897     H        0.13110    0.18330    0.76670    1.000
    H898     H        0.13430    0.16830    0.73370    1.000
    C774     C        0.17240    0.16040    0.76050    1.000
    C775     C        0.19440    0.17990    0.77120    1.000
    H899     H        0.19050    0.20040    0.77750    1.000
    C776     C        0.22600    0.16480    0.77170    1.000
    H900     H        0.24420    0.17480    0.77860    1.000
    C777     C        0.22540    0.13530    0.76110    1.000
    H901     H        0.24280    0.12230    0.75950    1.000
    S52      S        0.18822    0.12477    0.75103    1.000
    H902     H        0.04200    0.08910    0.64740    1.000
    H903     H        0.07130    0.08010    0.62780    1.000
    C778     C        0.05140    0.12330    0.61530    1.000
    H904     H        0.06980    0.13480    0.60840    1.000
    H905     H        0.03730    0.13790    0.62550    1.000
    C779     C        0.03480    0.10770    0.58660    1.000
    H906     H        0.04910    0.09300    0.57660    1.000
    H907     H        0.01660    0.09600    0.59370    1.000
    C780     C        0.02450    0.13260    0.56270    1.000
    H908     H        0.01430    0.12260    0.54520    1.000
    H909     H        0.01010    0.14700    0.57250    1.000
    H910     H        0.04260    0.14390    0.55530    1.000
    C781     C        0.88520    0.36829    0.80009    1.000
    C782     C        0.88285    0.36206    0.76579    1.000
    C783     C        0.86230    0.33527    0.75572    1.000
    H911     H        0.86510    0.31780    0.76970    1.000
    H912     H        0.86810    0.32880    0.73490    1.000
    C784     C        0.82828    0.34560    0.75620    1.000
    C785     C        0.81650    0.37410    0.75070    1.000
    H913     H        0.82880    0.39150    0.74570    1.000
    C786     C        0.78170    0.37500    0.75330    1.000
    H914     H        0.76960    0.39290    0.75020    1.000
    C787     C        0.76980    0.34720    0.76070    1.000
    H915     H        0.74850    0.34330    0.76350    1.000
    S53      S        0.79877    0.31945    0.76460    1.000
    C788     C        0.89993    0.38018    0.74652    1.000
    H916     H        0.91320    0.39460    0.75620    1.000
    C789     C        0.90031    0.38016    0.71264    1.000
    C790     C        0.87788    0.37371    0.69055    1.000
    H917     H        0.85810    0.36550    0.69490    1.000
    C791     C        0.91799    0.39246    0.66460    1.000
    C792     C        0.95376    0.40760    0.70830    1.000
    C793     C        0.94896    0.44283    0.70929    1.000
    C794     C        0.91913    0.45626    0.70889    1.000
    H918     H        0.90150    0.44330    0.70880    1.000
    C795     C        0.91539    0.48830    0.70861    1.000
    H919     H        0.89530    0.49690    0.70830    1.000
    C796     C        0.94128    0.50784    0.70883    1.000
    C797     C        0.97101    0.49464    0.71012    1.000
    H920     H        0.98860    0.50760    0.71110    1.000
    C798     C        0.97471    0.46268    0.70996    1.000
    H921     H        0.99480    0.45420    0.71030    1.000
    C799     C        0.93735    0.54225    0.70684    1.000
    C800     C        0.93888    0.40282    0.63852    1.000
    H922     H        0.95070    0.42090    0.64520    1.000
    H923     H        0.92620    0.40890    0.62090    1.000
    C801     C        0.96200    0.37630    0.62900    1.000
    H924     H        0.95040    0.35770    0.62270    1.000
    H925     H        0.97530    0.37080    0.64670    1.000
    C802     C        0.98240    0.38830    0.60130    1.000
    H926     H        0.99070    0.40890    0.60640    1.000
    H927     H        0.00010    0.37420    0.59830    1.000
    C803     C        0.96360    0.39030    0.57060    1.000
    H928     H        0.97690    0.39770    0.55400    1.000
    H929     H        0.95570    0.36980    0.56530    1.000
    H930     H        0.94630    0.40450    0.57330    1.000
    N53      N        0.88881    0.38112    0.66090    1.000
    N54      N        0.92586    0.39206    0.69531    1.000
    O105     O        0.87329    0.34916    0.81940    1.000
    O106     O        0.89882    0.39259    0.81055    1.000
    O107     O        0.90817    0.55117    0.70515    1.000
    H931     H        0.90260    0.56960    0.70190    1.000
    O108     O        0.95922    0.56103    0.70711    1.000
    H932     H        0.86890    0.31670    0.76670    1.000
    H933     H        0.86570    0.33170    0.73370    1.000
    C804     C        0.82760    0.33960    0.76050    1.000
    C805     C        0.80560    0.32010    0.77120    1.000
    H934     H        0.80950    0.29960    0.77750    1.000
    C806     C        0.77400    0.33520    0.77170    1.000
    H935     H        0.75580    0.32520    0.77860    1.000
    C807     C        0.77460    0.36470    0.76110    1.000
    H936     H        0.75720    0.37770    0.75950    1.000
    S54      S        0.81178    0.37523    0.75103    1.000
    H937     H        0.95800    0.41090    0.64740    1.000
    H938     H        0.92870    0.41990    0.62780    1.000
    C808     C        0.94860    0.37670    0.61530    1.000
    H939     H        0.93020    0.36520    0.60840    1.000
    H940     H        0.96270    0.36210    0.62550    1.000
    C809     C        0.96520    0.39230    0.58660    1.000
    H941     H        0.95090    0.40700    0.57660    1.000
    H942     H        0.98340    0.40400    0.59370    1.000
    C810     C        0.97550    0.36740    0.56270    1.000
    H943     H        0.98570    0.37740    0.54520    1.000
    H944     H        0.98990    0.35300    0.57250    1.000
    H945     H        0.95740    0.35610    0.55530    1.000
    C811     C        0.38520    0.86829    0.30009    1.000
    C812     C        0.38285    0.86206    0.26579    1.000
    C813     C        0.36230    0.83527    0.25572    1.000
    H946     H        0.36510    0.81780    0.26970    1.000
    H947     H        0.36810    0.82880    0.23490    1.000
    C814     C        0.32828    0.84560    0.25620    1.000
    C815     C        0.31650    0.87410    0.25070    1.000
    H948     H        0.32880    0.89150    0.24570    1.000
    C816     C        0.28170    0.87500    0.25330    1.000
    H949     H        0.26960    0.89290    0.25020    1.000
    C817     C        0.26980    0.84720    0.26070    1.000
    H950     H        0.24850    0.84330    0.26350    1.000
    S55      S        0.29877    0.81945    0.26460    1.000
    C818     C        0.39993    0.88018    0.24652    1.000
    H951     H        0.41320    0.89460    0.25620    1.000
    C819     C        0.40031    0.88016    0.21264    1.000
    C820     C        0.37788    0.87371    0.19055    1.000
    H952     H        0.35810    0.86550    0.19490    1.000
    C821     C        0.41799    0.89246    0.16460    1.000
    C822     C        0.45376    0.90760    0.20830    1.000
    C823     C        0.44896    0.94283    0.20929    1.000
    C824     C        0.41913    0.95626    0.20889    1.000
    H953     H        0.40150    0.94330    0.20880    1.000
    C825     C        0.41539    0.98830    0.20861    1.000
    H954     H        0.39530    0.99690    0.20830    1.000
    C826     C        0.44128    0.00784    0.20883    1.000
    C827     C        0.47101    0.99464    0.21012    1.000
    H955     H        0.48860    0.00760    0.21110    1.000
    C828     C        0.47471    0.96268    0.20996    1.000
    H956     H        0.49480    0.95420    0.21030    1.000
    C829     C        0.43735    0.04225    0.20684    1.000
    C830     C        0.43888    0.90282    0.13852    1.000
    H957     H        0.45070    0.92090    0.14520    1.000
    H958     H        0.42620    0.90890    0.12090    1.000
    C831     C        0.46200    0.87630    0.12900    1.000
    H959     H        0.45040    0.85770    0.12270    1.000
    H960     H        0.47530    0.87080    0.14670    1.000
    C832     C        0.48240    0.88830    0.10130    1.000
    H961     H        0.49070    0.90890    0.10640    1.000
    H962     H        0.50010    0.87420    0.09830    1.000
    C833     C        0.46360    0.89030    0.07060    1.000
    H963     H        0.47690    0.89770    0.05400    1.000
    H964     H        0.45570    0.86980    0.06530    1.000
    H965     H        0.44630    0.90450    0.07330    1.000
    N55      N        0.38881    0.88112    0.16090    1.000
    N56      N        0.42586    0.89206    0.19531    1.000
    O109     O        0.37329    0.84916    0.31940    1.000
    O110     O        0.39882    0.89259    0.31055    1.000
    O111     O        0.40817    0.05117    0.20515    1.000
    H966     H        0.40260    0.06960    0.20190    1.000
    O112     O        0.45922    0.06103    0.20711    1.000
    H967     H        0.36890    0.81670    0.26670    1.000
    H968     H        0.36570    0.83170    0.23370    1.000
    C834     C        0.32760    0.83960    0.26050    1.000
    C835     C        0.30560    0.82010    0.27120    1.000
    H969     H        0.30950    0.79960    0.27750    1.000
    C836     C        0.27400    0.83520    0.27170    1.000
    H970     H        0.25580    0.82520    0.27860    1.000
    C837     C        0.27460    0.86470    0.26110    1.000
    H971     H        0.25720    0.87770    0.25950    1.000
    S56      S        0.31178    0.87523    0.25103    1.000
    H972     H        0.45800    0.91090    0.14740    1.000
    H973     H        0.42870    0.91990    0.12780    1.000
    C838     C        0.44860    0.87670    0.11530    1.000
    H974     H        0.43020    0.86520    0.10840    1.000
    H975     H        0.46270    0.86210    0.12550    1.000
    C839     C        0.46520    0.89230    0.08660    1.000
    H976     H        0.45090    0.90700    0.07660    1.000
    H977     H        0.48340    0.90400    0.09370    1.000
    C840     C        0.47550    0.86740    0.06270    1.000
    H978     H        0.48570    0.87740    0.04520    1.000
    H979     H        0.48990    0.85300    0.07250    1.000
    H980     H        0.45740    0.85610    0.05530    1.000
    C841     C        0.11480    0.86829    0.69991    1.000
    C842     C        0.11715    0.86206    0.73421    1.000
    C843     C        0.13770    0.83527    0.74428    1.000
    H981     H        0.13490    0.81780    0.73030    1.000
    H982     H        0.13190    0.82880    0.76510    1.000
    C844     C        0.17172    0.84560    0.74380    1.000
    C845     C        0.18350    0.87410    0.74930    1.000
    H983     H        0.17120    0.89150    0.75430    1.000
    C846     C        0.21830    0.87500    0.74670    1.000
    H984     H        0.23040    0.89290    0.74980    1.000
    C847     C        0.23020    0.84720    0.73930    1.000
    H985     H        0.25150    0.84330    0.73650    1.000
    S57      S        0.20123    0.81945    0.73540    1.000
    C848     C        0.10007    0.88018    0.75348    1.000
    H986     H        0.08680    0.89460    0.74380    1.000
    C849     C        0.09969    0.88016    0.78736    1.000
    C850     C        0.12212    0.87371    0.80945    1.000
    H987     H        0.14190    0.86550    0.80510    1.000
    C851     C        0.08201    0.89246    0.83540    1.000
    C852     C        0.04624    0.90760    0.79170    1.000
    C853     C        0.05104    0.94283    0.79071    1.000
    C854     C        0.08087    0.95626    0.79111    1.000
    H988     H        0.09850    0.94330    0.79120    1.000
    C855     C        0.08461    0.98830    0.79139    1.000
    H989     H        0.10470    0.99690    0.79170    1.000
    C856     C        0.05872    0.00784    0.79117    1.000
    C857     C        0.02899    0.99464    0.78988    1.000
    H990     H        0.01140    0.00760    0.78890    1.000
    C858     C        0.02529    0.96268    0.79004    1.000
    H991     H        0.00520    0.95420    0.78970    1.000
    C859     C        0.06265    0.04225    0.79316    1.000
    C860     C        0.06112    0.90282    0.86148    1.000
    H992     H        0.04930    0.92090    0.85480    1.000
    H993     H        0.07380    0.90890    0.87910    1.000
    C861     C        0.03800    0.87630    0.87100    1.000
    H994     H        0.04960    0.85770    0.87730    1.000
    H995     H        0.02470    0.87080    0.85330    1.000
    C862     C        0.01760    0.88830    0.89870    1.000
    H996     H        0.00930    0.90890    0.89360    1.000
    H997     H        0.99990    0.87420    0.90170    1.000
    C863     C        0.03640    0.89030    0.92940    1.000
    H998     H        0.02310    0.89770    0.94600    1.000
    H999     H        0.04430    0.86980    0.93470    1.000
    H1000    H        0.05370    0.90450    0.92670    1.000
    N57      N        0.11119    0.88112    0.83910    1.000
    N58      N        0.07414    0.89206    0.80469    1.000
    O113     O        0.12671    0.84916    0.68060    1.000
    O114     O        0.10118    0.89259    0.68945    1.000
    O115     O        0.09183    0.05117    0.79485    1.000
    H1001    H        0.09740    0.06960    0.79810    1.000
    O116     O        0.04078    0.06103    0.79289    1.000
    H1002    H        0.13110    0.81670    0.73330    1.000
    H1003    H        0.13430    0.83170    0.76630    1.000
    C864     C        0.17240    0.83960    0.73950    1.000
    C865     C        0.19440    0.82010    0.72880    1.000
    H1004    H        0.19050    0.79960    0.72250    1.000
    C866     C        0.22600    0.83520    0.72830    1.000
    H1005    H        0.24420    0.82520    0.72140    1.000
    C867     C        0.22540    0.86470    0.73890    1.000
    H1006    H        0.24280    0.87770    0.74050    1.000
    S58      S        0.18822    0.87523    0.74897    1.000
    H1007    H        0.04200    0.91090    0.85260    1.000
    H1008    H        0.07130    0.91990    0.87220    1.000
    C868     C        0.05140    0.87670    0.88470    1.000
    H1009    H        0.06980    0.86520    0.89160    1.000
    H1010    H        0.03730    0.86210    0.87450    1.000
    C869     C        0.03480    0.89230    0.91340    1.000
    H1011    H        0.04910    0.90700    0.92340    1.000
    H1012    H        0.01660    0.90400    0.90630    1.000
    C870     C        0.02450    0.86740    0.93730    1.000
    H1013    H        0.01430    0.87740    0.95480    1.000
    H1014    H        0.01010    0.85300    0.92750    1.000
    H1015    H        0.04260    0.85610    0.94470    1.000
    C871     C        0.61480    0.36829    0.19991    1.000
    C872     C        0.61715    0.36206    0.23421    1.000
    C873     C        0.63770    0.33527    0.24428    1.000
    H1016    H        0.63490    0.31780    0.23030    1.000
    H1017    H        0.63190    0.32880    0.26510    1.000
    C874     C        0.67172    0.34560    0.24380    1.000
    C875     C        0.68350    0.37410    0.24930    1.000
    H1018    H        0.67120    0.39150    0.25430    1.000
    C876     C        0.71830    0.37500    0.24670    1.000
    H1019    H        0.73040    0.39290    0.24980    1.000
    C877     C        0.73020    0.34720    0.23930    1.000
    H1020    H        0.75150    0.34330    0.23650    1.000
    S59      S        0.70123    0.31945    0.23540    1.000
    C878     C        0.60007    0.38018    0.25348    1.000
    H1021    H        0.58680    0.39460    0.24380    1.000
    C879     C        0.59969    0.38016    0.28736    1.000
    C880     C        0.62212    0.37371    0.30945    1.000
    H1022    H        0.64190    0.36550    0.30510    1.000
    C881     C        0.58201    0.39246    0.33540    1.000
    C882     C        0.54624    0.40760    0.29170    1.000
    C883     C        0.55104    0.44283    0.29071    1.000
    C884     C        0.58087    0.45626    0.29111    1.000
    H1023    H        0.59850    0.44330    0.29120    1.000
    C885     C        0.58461    0.48830    0.29139    1.000
    H1024    H        0.60470    0.49690    0.29170    1.000
    C886     C        0.55872    0.50784    0.29117    1.000
    C887     C        0.52899    0.49464    0.28988    1.000
    H1025    H        0.51140    0.50760    0.28890    1.000
    C888     C        0.52529    0.46268    0.29004    1.000
    H1026    H        0.50520    0.45420    0.28970    1.000
    C889     C        0.56265    0.54225    0.29316    1.000
    C890     C        0.56112    0.40282    0.36148    1.000
    H1027    H        0.54930    0.42090    0.35480    1.000
    H1028    H        0.57380    0.40890    0.37910    1.000
    C891     C        0.53800    0.37630    0.37100    1.000
    H1029    H        0.54960    0.35770    0.37730    1.000
    H1030    H        0.52470    0.37080    0.35330    1.000
    C892     C        0.51760    0.38830    0.39870    1.000
    H1031    H        0.50930    0.40890    0.39360    1.000
    H1032    H        0.49990    0.37420    0.40170    1.000
    C893     C        0.53640    0.39030    0.42940    1.000
    H1033    H        0.52310    0.39770    0.44600    1.000
    H1034    H        0.54430    0.36980    0.43470    1.000
    H1035    H        0.55370    0.40450    0.42670    1.000
    N59      N        0.61119    0.38112    0.33910    1.000
    N60      N        0.57414    0.39206    0.30469    1.000
    O117     O        0.62671    0.34916    0.18060    1.000
    O118     O        0.60118    0.39259    0.18945    1.000
    O119     O        0.59183    0.55117    0.29485    1.000
    H1036    H        0.59740    0.56960    0.29810    1.000
    O120     O        0.54078    0.56103    0.29289    1.000
    H1037    H        0.63110    0.31670    0.23330    1.000
    H1038    H        0.63430    0.33170    0.26630    1.000
    C894     C        0.67240    0.33960    0.23950    1.000
    C895     C        0.69440    0.32010    0.22880    1.000
    H1039    H        0.69050    0.29960    0.22250    1.000
    C896     C        0.72600    0.33520    0.22830    1.000
    H1040    H        0.74420    0.32520    0.22140    1.000
    C897     C        0.72540    0.36470    0.23890    1.000
    H1041    H        0.74280    0.37770    0.24050    1.000
    S60      S        0.68822    0.37523    0.24897    1.000
    H1042    H        0.54200    0.41090    0.35260    1.000
    H1043    H        0.57130    0.41990    0.37220    1.000
    C898     C        0.55140    0.37670    0.38470    1.000
    H1044    H        0.56980    0.36520    0.39160    1.000
    H1045    H        0.53730    0.36210    0.37450    1.000
    C899     C        0.53480    0.39230    0.41340    1.000
    H1046    H        0.54910    0.40700    0.42340    1.000
    H1047    H        0.51660    0.40400    0.40630    1.000
    C900     C        0.52450    0.36740    0.43730    1.000
    H1048    H        0.51430    0.37740    0.45480    1.000
    H1049    H        0.51010    0.35300    0.42750    1.000
    H1050    H        0.54260    0.35610    0.44470    1.000
    C901     C        0.38520    0.13171    0.19991    1.000
    C902     C        0.38285    0.13794    0.23421    1.000
    C903     C        0.36230    0.16473    0.24428    1.000
    H1051    H        0.36510    0.18220    0.23030    1.000
    H1052    H        0.36810    0.17120    0.26510    1.000
    C904     C        0.32828    0.15440    0.24380    1.000
    C905     C        0.31650    0.12590    0.24930    1.000
    H1053    H        0.32880    0.10850    0.25430    1.000
    C906     C        0.28170    0.12500    0.24670    1.000
    H1054    H        0.26960    0.10710    0.24980    1.000
    C907     C        0.26980    0.15280    0.23930    1.000
    H1055    H        0.24850    0.15670    0.23650    1.000
    S61      S        0.29877    0.18055    0.23540    1.000
    C908     C        0.39993    0.11982    0.25348    1.000
    H1056    H        0.41320    0.10540    0.24380    1.000
    C909     C        0.40031    0.11984    0.28736    1.000
    C910     C        0.37788    0.12629    0.30945    1.000
    H1057    H        0.35810    0.13450    0.30510    1.000
    C911     C        0.41799    0.10754    0.33540    1.000
    C912     C        0.45376    0.09240    0.29170    1.000
    C913     C        0.44896    0.05717    0.29071    1.000
    C914     C        0.41913    0.04374    0.29111    1.000
    H1058    H        0.40150    0.05670    0.29120    1.000
    C915     C        0.41539    0.01170    0.29139    1.000
    H1059    H        0.39530    0.00310    0.29170    1.000
    C916     C        0.44128    0.99216    0.29117    1.000
    C917     C        0.47101    0.00536    0.28988    1.000
    H1060    H        0.48860    0.99240    0.28890    1.000
    C918     C        0.47471    0.03732    0.29004    1.000
    H1061    H        0.49480    0.04580    0.28970    1.000
    C919     C        0.43735    0.95775    0.29316    1.000
    C920     C        0.43888    0.09718    0.36148    1.000
    H1062    H        0.45070    0.07910    0.35480    1.000
    H1063    H        0.42620    0.09110    0.37910    1.000
    C921     C        0.46200    0.12370    0.37100    1.000
    H1064    H        0.45040    0.14230    0.37730    1.000
    H1065    H        0.47530    0.12920    0.35330    1.000
    C922     C        0.48240    0.11170    0.39870    1.000
    H1066    H        0.49070    0.09110    0.39360    1.000
    H1067    H        0.50010    0.12580    0.40170    1.000
    C923     C        0.46360    0.10970    0.42940    1.000
    H1068    H        0.47690    0.10230    0.44600    1.000
    H1069    H        0.45570    0.13020    0.43470    1.000
    H1070    H        0.44630    0.09550    0.42670    1.000
    N61      N        0.38881    0.11888    0.33910    1.000
    N62      N        0.42586    0.10794    0.30469    1.000
    O121     O        0.37329    0.15084    0.18060    1.000
    O122     O        0.39882    0.10741    0.18945    1.000
    O123     O        0.40817    0.94883    0.29485    1.000
    H1071    H        0.40260    0.93040    0.29810    1.000
    O124     O        0.45922    0.93897    0.29289    1.000
    H1072    H        0.36890    0.18330    0.23330    1.000
    H1073    H        0.36570    0.16830    0.26630    1.000
    C924     C        0.32760    0.16040    0.23950    1.000
    C925     C        0.30560    0.17990    0.22880    1.000
    H1074    H        0.30950    0.20040    0.22250    1.000
    C926     C        0.27400    0.16480    0.22830    1.000
    H1075    H        0.25580    0.17480    0.22140    1.000
    C927     C        0.27460    0.13530    0.23890    1.000
    H1076    H        0.25720    0.12230    0.24050    1.000
    S62      S        0.31178    0.12477    0.24897    1.000
    H1077    H        0.45800    0.08910    0.35260    1.000
    H1078    H        0.42870    0.08010    0.37220    1.000
    C928     C        0.44860    0.12330    0.38470    1.000
    H1079    H        0.43020    0.13480    0.39160    1.000
    H1080    H        0.46270    0.13790    0.37450    1.000
    C929     C        0.46520    0.10770    0.41340    1.000
    H1081    H        0.45090    0.09300    0.42340    1.000
    H1082    H        0.48340    0.09600    0.40630    1.000
    C930     C        0.47550    0.13260    0.43730    1.000
    H1083    H        0.48570    0.12260    0.45480    1.000
    H1084    H        0.48990    0.14700    0.42750    1.000
    H1085    H        0.45740    0.14390    0.44470    1.000
    C931     C        0.88520    0.63171    0.69991    1.000
    C932     C        0.88285    0.63794    0.73421    1.000
    C933     C        0.86230    0.66473    0.74428    1.000
    H1086    H        0.86510    0.68220    0.73030    1.000
    H1087    H        0.86810    0.67120    0.76510    1.000
    C934     C        0.82828    0.65440    0.74380    1.000
    C935     C        0.81650    0.62590    0.74930    1.000
    H1088    H        0.82880    0.60850    0.75430    1.000
    C936     C        0.78170    0.62500    0.74670    1.000
    H1089    H        0.76960    0.60710    0.74980    1.000
    C937     C        0.76980    0.65280    0.73930    1.000
    H1090    H        0.74850    0.65670    0.73650    1.000
    S63      S        0.79877    0.68055    0.73540    1.000
    C938     C        0.89993    0.61982    0.75348    1.000
    H1091    H        0.91320    0.60540    0.74380    1.000
    C939     C        0.90031    0.61984    0.78736    1.000
    C940     C        0.87788    0.62629    0.80945    1.000
    H1092    H        0.85810    0.63450    0.80510    1.000
    C941     C        0.91799    0.60754    0.83540    1.000
    C942     C        0.95376    0.59240    0.79170    1.000
    C943     C        0.94896    0.55717    0.79071    1.000
    C944     C        0.91913    0.54374    0.79111    1.000
    H1093    H        0.90150    0.55670    0.79120    1.000
    C945     C        0.91539    0.51170    0.79139    1.000
    H1094    H        0.89530    0.50310    0.79170    1.000
    C946     C        0.94128    0.49216    0.79117    1.000
    C947     C        0.97101    0.50536    0.78988    1.000
    H1095    H        0.98860    0.49240    0.78890    1.000
    C948     C        0.97471    0.53732    0.79004    1.000
    H1096    H        0.99480    0.54580    0.78970    1.000
    C949     C        0.93735    0.45775    0.79316    1.000
    C950     C        0.93888    0.59718    0.86148    1.000
    H1097    H        0.95070    0.57910    0.85480    1.000
    H1098    H        0.92620    0.59110    0.87910    1.000
    C951     C        0.96200    0.62370    0.87100    1.000
    H1099    H        0.95040    0.64230    0.87730    1.000
    H1100    H        0.97530    0.62920    0.85330    1.000
    C952     C        0.98240    0.61170    0.89870    1.000
    H1101    H        0.99070    0.59110    0.89360    1.000
    H1102    H        0.00010    0.62580    0.90170    1.000
    C953     C        0.96360    0.60970    0.92940    1.000
    H1103    H        0.97690    0.60230    0.94600    1.000
    H1104    H        0.95570    0.63020    0.93470    1.000
    H1105    H        0.94630    0.59550    0.92670    1.000
    N63      N        0.88881    0.61888    0.83910    1.000
    N64      N        0.92586    0.60794    0.80469    1.000
    O125     O        0.87329    0.65084    0.68060    1.000
    O126     O        0.89882    0.60741    0.68945    1.000
    O127     O        0.90817    0.44883    0.79485    1.000
    H1106    H        0.90260    0.43040    0.79810    1.000
    O128     O        0.95922    0.43897    0.79289    1.000
    H1107    H        0.86890    0.68330    0.73330    1.000
    H1108    H        0.86570    0.66830    0.76630    1.000
    C954     C        0.82760    0.66040    0.73950    1.000
    C955     C        0.80560    0.67990    0.72880    1.000
    H1109    H        0.80950    0.70040    0.72250    1.000
    C956     C        0.77400    0.66480    0.72830    1.000
    H1110    H        0.75580    0.67480    0.72140    1.000
    C957     C        0.77460    0.63530    0.73890    1.000
    H1111    H        0.75720    0.62230    0.74050    1.000
    S64      S        0.81178    0.62477    0.74897    1.000
    H1112    H        0.95800    0.58910    0.85260    1.000
    H1113    H        0.92870    0.58010    0.87220    1.000
    C958     C        0.94860    0.62330    0.88470    1.000
    H1114    H        0.93020    0.63480    0.89160    1.000
    H1115    H        0.96270    0.63790    0.87450    1.000
    C959     C        0.96520    0.60770    0.91340    1.000
    H1116    H        0.95090    0.59300    0.92340    1.000
    H1117    H        0.98340    0.59600    0.90630    1.000
    C960     C        0.97550    0.63260    0.93730    1.000
    H1118    H        0.98570    0.62260    0.95480    1.000
    H1119    H        0.98990    0.64700    0.92750    1.000
    H1120    H        0.95740    0.64390    0.94470    1.000
    C961     C        0.13171    0.19991    0.38520    1.000
    C962     C        0.13794    0.23421    0.38285    1.000
    C963     C        0.16473    0.24428    0.36230    1.000
    H1121    H        0.18220    0.23030    0.36510    1.000
    H1122    H        0.17120    0.26510    0.36810    1.000
    C964     C        0.15440    0.24380    0.32828    1.000
    C965     C        0.12590    0.24930    0.31650    1.000
    H1123    H        0.10850    0.25430    0.32880    1.000
    C966     C        0.12500    0.24670    0.28170    1.000
    H1124    H        0.10710    0.24980    0.26960    1.000
    C967     C        0.15280    0.23930    0.26980    1.000
    H1125    H        0.15670    0.23650    0.24850    1.000
    S65      S        0.18055    0.23540    0.29877    1.000
    C968     C        0.11982    0.25348    0.39993    1.000
    H1126    H        0.10540    0.24380    0.41320    1.000
    C969     C        0.11984    0.28736    0.40031    1.000
    C970     C        0.12629    0.30945    0.37788    1.000
    H1127    H        0.13450    0.30510    0.35810    1.000
    C971     C        0.10754    0.33540    0.41799    1.000
    C972     C        0.09240    0.29170    0.45376    1.000
    C973     C        0.05717    0.29071    0.44896    1.000
    C974     C        0.04374    0.29111    0.41913    1.000
    H1128    H        0.05670    0.29120    0.40150    1.000
    C975     C        0.01170    0.29139    0.41539    1.000
    H1129    H        0.00310    0.29170    0.39530    1.000
    C976     C        0.99216    0.29117    0.44128    1.000
    C977     C        0.00536    0.28988    0.47101    1.000
    H1130    H        0.99240    0.28890    0.48860    1.000
    C978     C        0.03732    0.29004    0.47471    1.000
    H1131    H        0.04580    0.28970    0.49480    1.000
    C979     C        0.95775    0.29316    0.43735    1.000
    C980     C        0.09718    0.36148    0.43888    1.000
    H1132    H        0.07910    0.35480    0.45070    1.000
    H1133    H        0.09110    0.37910    0.42620    1.000
    C981     C        0.12370    0.37100    0.46200    1.000
    H1134    H        0.14230    0.37730    0.45040    1.000
    H1135    H        0.12920    0.35330    0.47530    1.000
    C982     C        0.11170    0.39870    0.48240    1.000
    H1136    H        0.09110    0.39360    0.49070    1.000
    H1137    H        0.12580    0.40170    0.50010    1.000
    C983     C        0.10970    0.42940    0.46360    1.000
    H1138    H        0.10230    0.44600    0.47690    1.000
    H1139    H        0.13020    0.43470    0.45570    1.000
    H1140    H        0.09550    0.42670    0.44630    1.000
    N65      N        0.11888    0.33910    0.38881    1.000
    N66      N        0.10794    0.30469    0.42586    1.000
    O129     O        0.15084    0.18060    0.37329    1.000
    O130     O        0.10741    0.18945    0.39882    1.000
    O131     O        0.94883    0.29485    0.40817    1.000
    H1141    H        0.93040    0.29810    0.40260    1.000
    O132     O        0.93897    0.29289    0.45922    1.000
    H1142    H        0.18330    0.23330    0.36890    1.000
    H1143    H        0.16830    0.26630    0.36570    1.000
    C984     C        0.16040    0.23950    0.32760    1.000
    C985     C        0.17990    0.22880    0.30560    1.000
    H1144    H        0.20040    0.22250    0.30950    1.000
    C986     C        0.16480    0.22830    0.27400    1.000
    H1145    H        0.17480    0.22140    0.25580    1.000
    C987     C        0.13530    0.23890    0.27460    1.000
    H1146    H        0.12230    0.24050    0.25720    1.000
    S66      S        0.12477    0.24897    0.31178    1.000
    H1147    H        0.08910    0.35260    0.45800    1.000
    H1148    H        0.08010    0.37220    0.42870    1.000
    C988     C        0.12330    0.38470    0.44860    1.000
    H1149    H        0.13480    0.39160    0.43020    1.000
    H1150    H        0.13790    0.37450    0.46270    1.000
    C989     C        0.10770    0.41340    0.46520    1.000
    H1151    H        0.09300    0.42340    0.45090    1.000
    H1152    H        0.09600    0.40630    0.48340    1.000
    C990     C        0.13260    0.43730    0.47550    1.000
    H1153    H        0.12260    0.45480    0.48570    1.000
    H1154    H        0.14700    0.42750    0.48990    1.000
    H1155    H        0.14390    0.44470    0.45740    1.000
    C991     C        0.63171    0.69991    0.88520    1.000
    C992     C        0.63794    0.73421    0.88285    1.000
    C993     C        0.66473    0.74428    0.86230    1.000
    H1156    H        0.68220    0.73030    0.86510    1.000
    H1157    H        0.67120    0.76510    0.86810    1.000
    C994     C        0.65440    0.74380    0.82828    1.000
    C995     C        0.62590    0.74930    0.81650    1.000
    H1158    H        0.60850    0.75430    0.82880    1.000
    C996     C        0.62500    0.74670    0.78170    1.000
    H1159    H        0.60710    0.74980    0.76960    1.000
    C997     C        0.65280    0.73930    0.76980    1.000
    H1160    H        0.65670    0.73650    0.74850    1.000
    S67      S        0.68055    0.73540    0.79877    1.000
    C998     C        0.61982    0.75348    0.89993    1.000
    H1161    H        0.60540    0.74380    0.91320    1.000
    C999     C        0.61984    0.78736    0.90031    1.000
    C1000    C        0.62629    0.80945    0.87788    1.000
    H1162    H        0.63450    0.80510    0.85810    1.000
    C1001    C        0.60754    0.83540    0.91799    1.000
    C1002    C        0.59240    0.79170    0.95376    1.000
    C1003    C        0.55717    0.79071    0.94896    1.000
    C1004    C        0.54374    0.79111    0.91913    1.000
    H1163    H        0.55670    0.79120    0.90150    1.000
    C1005    C        0.51170    0.79139    0.91539    1.000
    H1164    H        0.50310    0.79170    0.89530    1.000
    C1006    C        0.49216    0.79117    0.94128    1.000
    C1007    C        0.50536    0.78988    0.97101    1.000
    H1165    H        0.49240    0.78890    0.98860    1.000
    C1008    C        0.53732    0.79004    0.97471    1.000
    H1166    H        0.54580    0.78970    0.99480    1.000
    C1009    C        0.45775    0.79316    0.93735    1.000
    C1010    C        0.59718    0.86148    0.93888    1.000
    H1167    H        0.57910    0.85480    0.95070    1.000
    H1168    H        0.59110    0.87910    0.92620    1.000
    C1011    C        0.62370    0.87100    0.96200    1.000
    H1169    H        0.64230    0.87730    0.95040    1.000
    H1170    H        0.62920    0.85330    0.97530    1.000
    C1012    C        0.61170    0.89870    0.98240    1.000
    H1171    H        0.59110    0.89360    0.99070    1.000
    H1172    H        0.62580    0.90170    0.00010    1.000
    C1013    C        0.60970    0.92940    0.96360    1.000
    H1173    H        0.60230    0.94600    0.97690    1.000
    H1174    H        0.63020    0.93470    0.95570    1.000
    H1175    H        0.59550    0.92670    0.94630    1.000
    N67      N        0.61888    0.83910    0.88881    1.000
    N68      N        0.60794    0.80469    0.92586    1.000
    O133     O        0.65084    0.68060    0.87329    1.000
    O134     O        0.60741    0.68945    0.89882    1.000
    O135     O        0.44883    0.79485    0.90817    1.000
    H1176    H        0.43040    0.79810    0.90260    1.000
    O136     O        0.43897    0.79289    0.95922    1.000
    H1177    H        0.68330    0.73330    0.86890    1.000
    H1178    H        0.66830    0.76630    0.86570    1.000
    C1014    C        0.66040    0.73950    0.82760    1.000
    C1015    C        0.67990    0.72880    0.80560    1.000
    H1179    H        0.70040    0.72250    0.80950    1.000
    C1016    C        0.66480    0.72830    0.77400    1.000
    H1180    H        0.67480    0.72140    0.75580    1.000
    C1017    C        0.63530    0.73890    0.77460    1.000
    H1181    H        0.62230    0.74050    0.75720    1.000
    S68      S        0.62477    0.74897    0.81178    1.000
    H1182    H        0.58910    0.85260    0.95800    1.000
    H1183    H        0.58010    0.87220    0.92870    1.000
    C1018    C        0.62330    0.88470    0.94860    1.000
    H1184    H        0.63480    0.89160    0.93020    1.000
    H1185    H        0.63790    0.87450    0.96270    1.000
    C1019    C        0.60770    0.91340    0.96520    1.000
    H1186    H        0.59300    0.92340    0.95090    1.000
    H1187    H        0.59600    0.90630    0.98340    1.000
    C1020    C        0.63260    0.93730    0.97550    1.000
    H1188    H        0.62260    0.95480    0.98570    1.000
    H1189    H        0.64700    0.92750    0.98990    1.000
    H1190    H        0.64390    0.94470    0.95740    1.000
    C1021    C        0.86829    0.69991    0.11480    1.000
    C1022    C        0.86206    0.73421    0.11715    1.000
    C1023    C        0.83527    0.74428    0.13770    1.000
    H1191    H        0.81780    0.73030    0.13490    1.000
    H1192    H        0.82880    0.76510    0.13190    1.000
    C1024    C        0.84560    0.74380    0.17172    1.000
    C1025    C        0.87410    0.74930    0.18350    1.000
    H1193    H        0.89150    0.75430    0.17120    1.000
    C1026    C        0.87500    0.74670    0.21830    1.000
    H1194    H        0.89290    0.74980    0.23040    1.000
    C1027    C        0.84720    0.73930    0.23020    1.000
    H1195    H        0.84330    0.73650    0.25150    1.000
    S69      S        0.81945    0.73540    0.20123    1.000
    C1028    C        0.88018    0.75348    0.10007    1.000
    H1196    H        0.89460    0.74380    0.08680    1.000
    C1029    C        0.88016    0.78736    0.09969    1.000
    C1030    C        0.87371    0.80945    0.12212    1.000
    H1197    H        0.86550    0.80510    0.14190    1.000
    C1031    C        0.89246    0.83540    0.08201    1.000
    C1032    C        0.90760    0.79170    0.04624    1.000
    C1033    C        0.94283    0.79071    0.05104    1.000
    C1034    C        0.95626    0.79111    0.08087    1.000
    H1198    H        0.94330    0.79120    0.09850    1.000
    C1035    C        0.98830    0.79139    0.08461    1.000
    H1199    H        0.99690    0.79170    0.10470    1.000
    C1036    C        0.00784    0.79117    0.05872    1.000
    C1037    C        0.99464    0.78988    0.02899    1.000
    H1200    H        0.00760    0.78890    0.01140    1.000
    C1038    C        0.96268    0.79004    0.02529    1.000
    H1201    H        0.95420    0.78970    0.00520    1.000
    C1039    C        0.04225    0.79316    0.06265    1.000
    C1040    C        0.90282    0.86148    0.06112    1.000
    H1202    H        0.92090    0.85480    0.04930    1.000
    H1203    H        0.90890    0.87910    0.07380    1.000
    C1041    C        0.87630    0.87100    0.03800    1.000
    H1204    H        0.85770    0.87730    0.04960    1.000
    H1205    H        0.87080    0.85330    0.02470    1.000
    C1042    C        0.88830    0.89870    0.01760    1.000
    H1206    H        0.90890    0.89360    0.00930    1.000
    H1207    H        0.87420    0.90170    0.99990    1.000
    C1043    C        0.89030    0.92940    0.03640    1.000
    H1208    H        0.89770    0.94600    0.02310    1.000
    H1209    H        0.86980    0.93470    0.04430    1.000
    H1210    H        0.90450    0.92670    0.05370    1.000
    N69      N        0.88112    0.83910    0.11119    1.000
    N70      N        0.89206    0.80469    0.07414    1.000
    O137     O        0.84916    0.68060    0.12671    1.000
    O138     O        0.89259    0.68945    0.10118    1.000
    O139     O        0.05117    0.79485    0.09183    1.000
    H1211    H        0.06960    0.79810    0.09740    1.000
    O140     O        0.06103    0.79289    0.04078    1.000
    H1212    H        0.81670    0.73330    0.13110    1.000
    H1213    H        0.83170    0.76630    0.13430    1.000
    C1044    C        0.83960    0.73950    0.17240    1.000
    C1045    C        0.82010    0.72880    0.19440    1.000
    H1214    H        0.79960    0.72250    0.19050    1.000
    C1046    C        0.83520    0.72830    0.22600    1.000
    H1215    H        0.82520    0.72140    0.24420    1.000
    C1047    C        0.86470    0.73890    0.22540    1.000
    H1216    H        0.87770    0.74050    0.24280    1.000
    S70      S        0.87523    0.74897    0.18822    1.000
    H1217    H        0.91090    0.85260    0.04200    1.000
    H1218    H        0.91990    0.87220    0.07130    1.000
    C1048    C        0.87670    0.88470    0.05140    1.000
    H1219    H        0.86520    0.89160    0.06980    1.000
    H1220    H        0.86210    0.87450    0.03730    1.000
    C1049    C        0.89230    0.91340    0.03480    1.000
    H1221    H        0.90700    0.92340    0.04910    1.000
    H1222    H        0.90400    0.90630    0.01660    1.000
    C1050    C        0.86740    0.93730    0.02450    1.000
    H1223    H        0.87740    0.95480    0.01430    1.000
    H1224    H        0.85300    0.92750    0.01010    1.000
    H1225    H        0.85610    0.94470    0.04260    1.000
    C1051    C        0.36829    0.19991    0.61480    1.000
    C1052    C        0.36206    0.23421    0.61715    1.000
    C1053    C        0.33527    0.24428    0.63770    1.000
    H1226    H        0.31780    0.23030    0.63490    1.000
    H1227    H        0.32880    0.26510    0.63190    1.000
    C1054    C        0.34560    0.24380    0.67172    1.000
    C1055    C        0.37410    0.24930    0.68350    1.000
    H1228    H        0.39150    0.25430    0.67120    1.000
    C1056    C        0.37500    0.24670    0.71830    1.000
    H1229    H        0.39290    0.24980    0.73040    1.000
    C1057    C        0.34720    0.23930    0.73020    1.000
    H1230    H        0.34330    0.23650    0.75150    1.000
    S71      S        0.31945    0.23540    0.70123    1.000
    C1058    C        0.38018    0.25348    0.60007    1.000
    H1231    H        0.39460    0.24380    0.58680    1.000
    C1059    C        0.38016    0.28736    0.59969    1.000
    C1060    C        0.37371    0.30945    0.62212    1.000
    H1232    H        0.36550    0.30510    0.64190    1.000
    C1061    C        0.39246    0.33540    0.58201    1.000
    C1062    C        0.40760    0.29170    0.54624    1.000
    C1063    C        0.44283    0.29071    0.55104    1.000
    C1064    C        0.45626    0.29111    0.58087    1.000
    H1233    H        0.44330    0.29120    0.59850    1.000
    C1065    C        0.48830    0.29139    0.58461    1.000
    H1234    H        0.49690    0.29170    0.60470    1.000
    C1066    C        0.50784    0.29117    0.55872    1.000
    C1067    C        0.49464    0.28988    0.52899    1.000
    H1235    H        0.50760    0.28890    0.51140    1.000
    C1068    C        0.46268    0.29004    0.52529    1.000
    H1236    H        0.45420    0.28970    0.50520    1.000
    C1069    C        0.54225    0.29316    0.56265    1.000
    C1070    C        0.40282    0.36148    0.56112    1.000
    H1237    H        0.42090    0.35480    0.54930    1.000
    H1238    H        0.40890    0.37910    0.57380    1.000
    C1071    C        0.37630    0.37100    0.53800    1.000
    H1239    H        0.35770    0.37730    0.54960    1.000
    H1240    H        0.37080    0.35330    0.52470    1.000
    C1072    C        0.38830    0.39870    0.51760    1.000
    H1241    H        0.40890    0.39360    0.50930    1.000
    H1242    H        0.37420    0.40170    0.49990    1.000
    C1073    C        0.39030    0.42940    0.53640    1.000
    H1243    H        0.39770    0.44600    0.52310    1.000
    H1244    H        0.36980    0.43470    0.54430    1.000
    H1245    H        0.40450    0.42670    0.55370    1.000
    N71      N        0.38112    0.33910    0.61119    1.000
    N72      N        0.39206    0.30469    0.57414    1.000
    O141     O        0.34916    0.18060    0.62671    1.000
    O142     O        0.39259    0.18945    0.60118    1.000
    O143     O        0.55117    0.29485    0.59183    1.000
    H1246    H        0.56960    0.29810    0.59740    1.000
    O144     O        0.56103    0.29289    0.54078    1.000
    H1247    H        0.31670    0.23330    0.63110    1.000
    H1248    H        0.33170    0.26630    0.63430    1.000
    C1074    C        0.33960    0.23950    0.67240    1.000
    C1075    C        0.32010    0.22880    0.69440    1.000
    H1249    H        0.29960    0.22250    0.69050    1.000
    C1076    C        0.33520    0.22830    0.72600    1.000
    H1250    H        0.32520    0.22140    0.74420    1.000
    C1077    C        0.36470    0.23890    0.72540    1.000
    H1251    H        0.37770    0.24050    0.74280    1.000
    S72      S        0.37523    0.24897    0.68822    1.000
    H1252    H        0.41090    0.35260    0.54200    1.000
    H1253    H        0.41990    0.37220    0.57130    1.000
    C1078    C        0.37670    0.38470    0.55140    1.000
    H1254    H        0.36520    0.39160    0.56980    1.000
    H1255    H        0.36210    0.37450    0.53730    1.000
    C1079    C        0.39230    0.41340    0.53480    1.000
    H1256    H        0.40700    0.42340    0.54910    1.000
    H1257    H        0.40400    0.40630    0.51660    1.000
    C1080    C        0.36740    0.43730    0.52450    1.000
    H1258    H        0.37740    0.45480    0.51430    1.000
    H1259    H        0.35300    0.42750    0.51010    1.000
    H1260    H        0.35610    0.44470    0.54260    1.000
    C1081    C        0.36829    0.80009    0.88520    1.000
    C1082    C        0.36206    0.76579    0.88285    1.000
    C1083    C        0.33527    0.75572    0.86230    1.000
    H1261    H        0.31780    0.76970    0.86510    1.000
    H1262    H        0.32880    0.73490    0.86810    1.000
    C1084    C        0.34560    0.75620    0.82828    1.000
    C1085    C        0.37410    0.75070    0.81650    1.000
    H1263    H        0.39150    0.74570    0.82880    1.000
    C1086    C        0.37500    0.75330    0.78170    1.000
    H1264    H        0.39290    0.75020    0.76960    1.000
    C1087    C        0.34720    0.76070    0.76980    1.000
    H1265    H        0.34330    0.76350    0.74850    1.000
    S73      S        0.31945    0.76460    0.79877    1.000
    C1088    C        0.38018    0.74652    0.89993    1.000
    H1266    H        0.39460    0.75620    0.91320    1.000
    C1089    C        0.38016    0.71264    0.90031    1.000
    C1090    C        0.37371    0.69055    0.87788    1.000
    H1267    H        0.36550    0.69490    0.85810    1.000
    C1091    C        0.39246    0.66460    0.91799    1.000
    C1092    C        0.40760    0.70830    0.95376    1.000
    C1093    C        0.44283    0.70929    0.94896    1.000
    C1094    C        0.45626    0.70889    0.91913    1.000
    H1268    H        0.44330    0.70880    0.90150    1.000
    C1095    C        0.48830    0.70861    0.91539    1.000
    H1269    H        0.49690    0.70830    0.89530    1.000
    C1096    C        0.50784    0.70883    0.94128    1.000
    C1097    C        0.49464    0.71012    0.97101    1.000
    H1270    H        0.50760    0.71110    0.98860    1.000
    C1098    C        0.46268    0.70996    0.97471    1.000
    H1271    H        0.45420    0.71030    0.99480    1.000
    C1099    C        0.54225    0.70684    0.93735    1.000
    C1100    C        0.40282    0.63852    0.93888    1.000
    H1272    H        0.42090    0.64520    0.95070    1.000
    H1273    H        0.40890    0.62090    0.92620    1.000
    C1101    C        0.37630    0.62900    0.96200    1.000
    H1274    H        0.35770    0.62270    0.95040    1.000
    H1275    H        0.37080    0.64670    0.97530    1.000
    C1102    C        0.38830    0.60130    0.98240    1.000
    H1276    H        0.40890    0.60640    0.99070    1.000
    H1277    H        0.37420    0.59830    0.00010    1.000
    C1103    C        0.39030    0.57060    0.96360    1.000
    H1278    H        0.39770    0.55400    0.97690    1.000
    H1279    H        0.36980    0.56530    0.95570    1.000
    H1280    H        0.40450    0.57330    0.94630    1.000
    N73      N        0.38112    0.66090    0.88881    1.000
    N74      N        0.39206    0.69531    0.92586    1.000
    O145     O        0.34916    0.81940    0.87329    1.000
    O146     O        0.39259    0.81055    0.89882    1.000
    O147     O        0.55117    0.70515    0.90817    1.000
    H1281    H        0.56960    0.70190    0.90260    1.000
    O148     O        0.56103    0.70711    0.95922    1.000
    H1282    H        0.31670    0.76670    0.86890    1.000
    H1283    H        0.33170    0.73370    0.86570    1.000
    C1104    C        0.33960    0.76050    0.82760    1.000
    C1105    C        0.32010    0.77120    0.80560    1.000
    H1284    H        0.29960    0.77750    0.80950    1.000
    C1106    C        0.33520    0.77170    0.77400    1.000
    H1285    H        0.32520    0.77860    0.75580    1.000
    C1107    C        0.36470    0.76110    0.77460    1.000
    H1286    H        0.37770    0.75950    0.75720    1.000
    S74      S        0.37523    0.75103    0.81178    1.000
    H1287    H        0.41090    0.64740    0.95800    1.000
    H1288    H        0.41990    0.62780    0.92870    1.000
    C1108    C        0.37670    0.61530    0.94860    1.000
    H1289    H        0.36520    0.60840    0.93020    1.000
    H1290    H        0.36210    0.62550    0.96270    1.000
    C1109    C        0.39230    0.58660    0.96520    1.000
    H1291    H        0.40700    0.57660    0.95090    1.000
    H1292    H        0.40400    0.59370    0.98340    1.000
    C1110    C        0.36740    0.56270    0.97550    1.000
    H1293    H        0.37740    0.54520    0.98570    1.000
    H1294    H        0.35300    0.57250    0.98990    1.000
    H1295    H        0.35610    0.55530    0.95740    1.000
    C1111    C        0.86829    0.30009    0.38520    1.000
    C1112    C        0.86206    0.26579    0.38285    1.000
    C1113    C        0.83527    0.25572    0.36230    1.000
    H1296    H        0.81780    0.26970    0.36510    1.000
    H1297    H        0.82880    0.23490    0.36810    1.000
    C1114    C        0.84560    0.25620    0.32828    1.000
    C1115    C        0.87410    0.25070    0.31650    1.000
    H1298    H        0.89150    0.24570    0.32880    1.000
    C1116    C        0.87500    0.25330    0.28170    1.000
    H1299    H        0.89290    0.25020    0.26960    1.000
    C1117    C        0.84720    0.26070    0.26980    1.000
    H1300    H        0.84330    0.26350    0.24850    1.000
    S75      S        0.81945    0.26460    0.29877    1.000
    C1118    C        0.88018    0.24652    0.39993    1.000
    H1301    H        0.89460    0.25620    0.41320    1.000
    C1119    C        0.88016    0.21264    0.40031    1.000
    C1120    C        0.87371    0.19055    0.37788    1.000
    H1302    H        0.86550    0.19490    0.35810    1.000
    C1121    C        0.89246    0.16460    0.41799    1.000
    C1122    C        0.90760    0.20830    0.45376    1.000
    C1123    C        0.94283    0.20929    0.44896    1.000
    C1124    C        0.95626    0.20889    0.41913    1.000
    H1303    H        0.94330    0.20880    0.40150    1.000
    C1125    C        0.98830    0.20861    0.41539    1.000
    H1304    H        0.99690    0.20830    0.39530    1.000
    C1126    C        0.00784    0.20883    0.44128    1.000
    C1127    C        0.99464    0.21012    0.47101    1.000
    H1305    H        0.00760    0.21110    0.48860    1.000
    C1128    C        0.96268    0.20996    0.47471    1.000
    H1306    H        0.95420    0.21030    0.49480    1.000
    C1129    C        0.04225    0.20684    0.43735    1.000
    C1130    C        0.90282    0.13852    0.43888    1.000
    H1307    H        0.92090    0.14520    0.45070    1.000
    H1308    H        0.90890    0.12090    0.42620    1.000
    C1131    C        0.87630    0.12900    0.46200    1.000
    H1309    H        0.85770    0.12270    0.45040    1.000
    H1310    H        0.87080    0.14670    0.47530    1.000
    C1132    C        0.88830    0.10130    0.48240    1.000
    H1311    H        0.90890    0.10640    0.49070    1.000
    H1312    H        0.87420    0.09830    0.50010    1.000
    C1133    C        0.89030    0.07060    0.46360    1.000
    H1313    H        0.89770    0.05400    0.47690    1.000
    H1314    H        0.86980    0.06530    0.45570    1.000
    H1315    H        0.90450    0.07330    0.44630    1.000
    N75      N        0.88112    0.16090    0.38881    1.000
    N76      N        0.89206    0.19531    0.42586    1.000
    O149     O        0.84916    0.31940    0.37329    1.000
    O150     O        0.89259    0.31055    0.39882    1.000
    O151     O        0.05117    0.20515    0.40817    1.000
    H1316    H        0.06960    0.20190    0.40260    1.000
    O152     O        0.06103    0.20711    0.45922    1.000
    H1317    H        0.81670    0.26670    0.36890    1.000
    H1318    H        0.83170    0.23370    0.36570    1.000
    C1134    C        0.83960    0.26050    0.32760    1.000
    C1135    C        0.82010    0.27120    0.30560    1.000
    H1319    H        0.79960    0.27750    0.30950    1.000
    C1136    C        0.83520    0.27170    0.27400    1.000
    H1320    H        0.82520    0.27860    0.25580    1.000
    C1137    C        0.86470    0.26110    0.27460    1.000
    H1321    H        0.87770    0.25950    0.25720    1.000
    S76      S        0.87523    0.25103    0.31178    1.000
    H1322    H        0.91090    0.14740    0.45800    1.000
    H1323    H        0.91990    0.12780    0.42870    1.000
    C1138    C        0.87670    0.11530    0.44860    1.000
    H1324    H        0.86520    0.10840    0.43020    1.000
    H1325    H        0.86210    0.12550    0.46270    1.000
    C1139    C        0.89230    0.08660    0.46520    1.000
    H1326    H        0.90700    0.07660    0.45090    1.000
    H1327    H        0.90400    0.09370    0.48340    1.000
    C1140    C        0.86740    0.06270    0.47550    1.000
    H1328    H        0.87740    0.04520    0.48570    1.000
    H1329    H        0.85300    0.07250    0.48990    1.000
    H1330    H        0.85610    0.05530    0.45740    1.000
    C1141    C        0.63171    0.30009    0.61480    1.000
    C1142    C        0.63794    0.26579    0.61715    1.000
    C1143    C        0.66473    0.25572    0.63770    1.000
    H1331    H        0.68220    0.26970    0.63490    1.000
    H1332    H        0.67120    0.23490    0.63190    1.000
    C1144    C        0.65440    0.25620    0.67172    1.000
    C1145    C        0.62590    0.25070    0.68350    1.000
    H1333    H        0.60850    0.24570    0.67120    1.000
    C1146    C        0.62500    0.25330    0.71830    1.000
    H1334    H        0.60710    0.25020    0.73040    1.000
    C1147    C        0.65280    0.26070    0.73020    1.000
    H1335    H        0.65670    0.26350    0.75150    1.000
    S77      S        0.68055    0.26460    0.70123    1.000
    C1148    C        0.61982    0.24652    0.60007    1.000
    H1336    H        0.60540    0.25620    0.58680    1.000
    C1149    C        0.61984    0.21264    0.59969    1.000
    C1150    C        0.62629    0.19055    0.62212    1.000
    H1337    H        0.63450    0.19490    0.64190    1.000
    C1151    C        0.60754    0.16460    0.58201    1.000
    C1152    C        0.59240    0.20830    0.54624    1.000
    C1153    C        0.55717    0.20929    0.55104    1.000
    C1154    C        0.54374    0.20889    0.58087    1.000
    H1338    H        0.55670    0.20880    0.59850    1.000
    C1155    C        0.51170    0.20861    0.58461    1.000
    H1339    H        0.50310    0.20830    0.60470    1.000
    C1156    C        0.49216    0.20883    0.55872    1.000
    C1157    C        0.50536    0.21012    0.52899    1.000
    H1340    H        0.49240    0.21110    0.51140    1.000
    C1158    C        0.53732    0.20996    0.52529    1.000
    H1341    H        0.54580    0.21030    0.50520    1.000
    C1159    C        0.45775    0.20684    0.56265    1.000
    C1160    C        0.59718    0.13852    0.56112    1.000
    H1342    H        0.57910    0.14520    0.54930    1.000
    H1343    H        0.59110    0.12090    0.57380    1.000
    C1161    C        0.62370    0.12900    0.53800    1.000
    H1344    H        0.64230    0.12270    0.54960    1.000
    H1345    H        0.62920    0.14670    0.52470    1.000
    C1162    C        0.61170    0.10130    0.51760    1.000
    H1346    H        0.59110    0.10640    0.50930    1.000
    H1347    H        0.62580    0.09830    0.49990    1.000
    C1163    C        0.60970    0.07060    0.53640    1.000
    H1348    H        0.60230    0.05400    0.52310    1.000
    H1349    H        0.63020    0.06530    0.54430    1.000
    H1350    H        0.59550    0.07330    0.55370    1.000
    N77      N        0.61888    0.16090    0.61119    1.000
    N78      N        0.60794    0.19531    0.57414    1.000
    O153     O        0.65084    0.31940    0.62671    1.000
    O154     O        0.60741    0.31055    0.60118    1.000
    O155     O        0.44883    0.20515    0.59183    1.000
    H1351    H        0.43040    0.20190    0.59740    1.000
    O156     O        0.43897    0.20711    0.54078    1.000
    H1352    H        0.68330    0.26670    0.63110    1.000
    H1353    H        0.66830    0.23370    0.63430    1.000
    C1164    C        0.66040    0.26050    0.67240    1.000
    C1165    C        0.67990    0.27120    0.69440    1.000
    H1354    H        0.70040    0.27750    0.69050    1.000
    C1166    C        0.66480    0.27170    0.72600    1.000
    H1355    H        0.67480    0.27860    0.74420    1.000
    C1167    C        0.63530    0.26110    0.72540    1.000
    H1356    H        0.62230    0.25950    0.74280    1.000
    S78      S        0.62477    0.25103    0.68822    1.000
    H1357    H        0.58910    0.14740    0.54200    1.000
    H1358    H        0.58010    0.12780    0.57130    1.000
    C1168    C        0.62330    0.11530    0.55140    1.000
    H1359    H        0.63480    0.10840    0.56980    1.000
    H1360    H        0.63790    0.12550    0.53730    1.000
    C1169    C        0.60770    0.08660    0.53480    1.000
    H1361    H        0.59300    0.07660    0.54910    1.000
    H1362    H        0.59600    0.09370    0.51660    1.000
    C1170    C        0.63260    0.06270    0.52450    1.000
    H1363    H        0.62260    0.04520    0.51430    1.000
    H1364    H        0.64700    0.07250    0.51010    1.000
    H1365    H        0.64390    0.05530    0.54260    1.000
    C1171    C        0.13171    0.80009    0.11480    1.000
    C1172    C        0.13794    0.76579    0.11715    1.000
    C1173    C        0.16473    0.75572    0.13770    1.000
    H1366    H        0.18220    0.76970    0.13490    1.000
    H1367    H        0.17120    0.73490    0.13190    1.000
    C1174    C        0.15440    0.75620    0.17172    1.000
    C1175    C        0.12590    0.75070    0.18350    1.000
    H1368    H        0.10850    0.74570    0.17120    1.000
    C1176    C        0.12500    0.75330    0.21830    1.000
    H1369    H        0.10710    0.75020    0.23040    1.000
    C1177    C        0.15280    0.76070    0.23020    1.000
    H1370    H        0.15670    0.76350    0.25150    1.000
    S79      S        0.18055    0.76460    0.20123    1.000
    C1178    C        0.11982    0.74652    0.10007    1.000
    H1371    H        0.10540    0.75620    0.08680    1.000
    C1179    C        0.11984    0.71264    0.09969    1.000
    C1180    C        0.12629    0.69055    0.12212    1.000
    H1372    H        0.13450    0.69490    0.14190    1.000
    C1181    C        0.10754    0.66460    0.08201    1.000
    C1182    C        0.09240    0.70830    0.04624    1.000
    C1183    C        0.05717    0.70929    0.05104    1.000
    C1184    C        0.04374    0.70889    0.08087    1.000
    H1373    H        0.05670    0.70880    0.09850    1.000
    C1185    C        0.01170    0.70861    0.08461    1.000
    H1374    H        0.00310    0.70830    0.10470    1.000
    C1186    C        0.99216    0.70883    0.05872    1.000
    C1187    C        0.00536    0.71012    0.02899    1.000
    H1375    H        0.99240    0.71110    0.01140    1.000
    C1188    C        0.03732    0.70996    0.02529    1.000
    H1376    H        0.04580    0.71030    0.00520    1.000
    C1189    C        0.95775    0.70684    0.06265    1.000
    C1190    C        0.09718    0.63852    0.06112    1.000
    H1377    H        0.07910    0.64520    0.04930    1.000
    H1378    H        0.09110    0.62090    0.07380    1.000
    C1191    C        0.12370    0.62900    0.03800    1.000
    H1379    H        0.14230    0.62270    0.04960    1.000
    H1380    H        0.12920    0.64670    0.02470    1.000
    C1192    C        0.11170    0.60130    0.01760    1.000
    H1381    H        0.09110    0.60640    0.00930    1.000
    H1382    H        0.12580    0.59830    0.99990    1.000
    C1193    C        0.10970    0.57060    0.03640    1.000
    H1383    H        0.10230    0.55400    0.02310    1.000
    H1384    H        0.13020    0.56530    0.04430    1.000
    H1385    H        0.09550    0.57330    0.05370    1.000
    N79      N        0.11888    0.66090    0.11119    1.000
    N80      N        0.10794    0.69531    0.07414    1.000
    O157     O        0.15084    0.81940    0.12671    1.000
    O158     O        0.10741    0.81055    0.10118    1.000
    O159     O        0.94883    0.70515    0.09183    1.000
    H1386    H        0.93040    0.70190    0.09740    1.000
    O160     O        0.93897    0.70711    0.04078    1.000
    H1387    H        0.18330    0.76670    0.13110    1.000
    H1388    H        0.16830    0.73370    0.13430    1.000
    C1194    C        0.16040    0.76050    0.17240    1.000
    C1195    C        0.17990    0.77120    0.19440    1.000
    H1389    H        0.20040    0.77750    0.19050    1.000
    C1196    C        0.16480    0.77170    0.22600    1.000
    H1390    H        0.17480    0.77860    0.24420    1.000
    C1197    C        0.13530    0.76110    0.22540    1.000
    H1391    H        0.12230    0.75950    0.24280    1.000
    S80      S        0.12477    0.75103    0.18822    1.000
    H1392    H        0.08910    0.64740    0.04200    1.000
    H1393    H        0.08010    0.62780    0.07130    1.000
    C1198    C        0.12330    0.61530    0.05140    1.000
    H1394    H        0.13480    0.60840    0.06980    1.000
    H1395    H        0.13790    0.62550    0.03730    1.000
    C1199    C        0.10770    0.58660    0.03480    1.000
    H1396    H        0.09300    0.57660    0.04910    1.000
    H1397    H        0.09600    0.59370    0.01660    1.000
    C1200    C        0.13260    0.56270    0.02450    1.000
    H1398    H        0.12260    0.54520    0.01430    1.000
    H1399    H        0.14700    0.57250    0.01010    1.000
    H1400    H        0.14390    0.55530    0.04260    1.000
    C1201    C        0.69991    0.11480    0.86829    1.000
    C1202    C        0.73421    0.11715    0.86206    1.000
    C1203    C        0.74428    0.13770    0.83527    1.000
    H1401    H        0.73030    0.13490    0.81780    1.000
    H1402    H        0.76510    0.13190    0.82880    1.000
    C1204    C        0.74380    0.17172    0.84560    1.000
    C1205    C        0.74930    0.18350    0.87410    1.000
    H1403    H        0.75430    0.17120    0.89150    1.000
    C1206    C        0.74670    0.21830    0.87500    1.000
    H1404    H        0.74980    0.23040    0.89290    1.000
    C1207    C        0.73930    0.23020    0.84720    1.000
    H1405    H        0.73650    0.25150    0.84330    1.000
    S81      S        0.73540    0.20123    0.81945    1.000
    C1208    C        0.75348    0.10007    0.88018    1.000
    H1406    H        0.74380    0.08680    0.89460    1.000
    C1209    C        0.78736    0.09969    0.88016    1.000
    C1210    C        0.80945    0.12212    0.87371    1.000
    H1407    H        0.80510    0.14190    0.86550    1.000
    C1211    C        0.83540    0.08201    0.89246    1.000
    C1212    C        0.79170    0.04624    0.90760    1.000
    C1213    C        0.79071    0.05104    0.94283    1.000
    C1214    C        0.79111    0.08087    0.95626    1.000
    H1408    H        0.79120    0.09850    0.94330    1.000
    C1215    C        0.79139    0.08461    0.98830    1.000
    H1409    H        0.79170    0.10470    0.99690    1.000
    C1216    C        0.79117    0.05872    0.00784    1.000
    C1217    C        0.78988    0.02899    0.99464    1.000
    H1410    H        0.78890    0.01140    0.00760    1.000
    C1218    C        0.79004    0.02529    0.96268    1.000
    H1411    H        0.78970    0.00520    0.95420    1.000
    C1219    C        0.79316    0.06265    0.04225    1.000
    C1220    C        0.86148    0.06112    0.90282    1.000
    H1412    H        0.85480    0.04930    0.92090    1.000
    H1413    H        0.87910    0.07380    0.90890    1.000
    C1221    C        0.87100    0.03800    0.87630    1.000
    H1414    H        0.87730    0.04960    0.85770    1.000
    H1415    H        0.85330    0.02470    0.87080    1.000
    C1222    C        0.89870    0.01760    0.88830    1.000
    H1416    H        0.89360    0.00930    0.90890    1.000
    H1417    H        0.90170    0.99990    0.87420    1.000
    C1223    C        0.92940    0.03640    0.89030    1.000
    H1418    H        0.94600    0.02310    0.89770    1.000
    H1419    H        0.93470    0.04430    0.86980    1.000
    H1420    H        0.92670    0.05370    0.90450    1.000
    N81      N        0.83910    0.11119    0.88112    1.000
    N82      N        0.80469    0.07414    0.89206    1.000
    O161     O        0.68060    0.12671    0.84916    1.000
    O162     O        0.68945    0.10118    0.89259    1.000
    O163     O        0.79485    0.09183    0.05117    1.000
    H1421    H        0.79810    0.09740    0.06960    1.000
    O164     O        0.79289    0.04078    0.06103    1.000
    H1422    H        0.73330    0.13110    0.81670    1.000
    H1423    H        0.76630    0.13430    0.83170    1.000
    C1224    C        0.73950    0.17240    0.83960    1.000
    C1225    C        0.72880    0.19440    0.82010    1.000
    H1424    H        0.72250    0.19050    0.79960    1.000
    C1226    C        0.72830    0.22600    0.83520    1.000
    H1425    H        0.72140    0.24420    0.82520    1.000
    C1227    C        0.73890    0.22540    0.86470    1.000
    H1426    H        0.74050    0.24280    0.87770    1.000
    S82      S        0.74897    0.18822    0.87523    1.000
    H1427    H        0.85260    0.04200    0.91090    1.000
    H1428    H        0.87220    0.07130    0.91990    1.000
    C1228    C        0.88470    0.05140    0.87670    1.000
    H1429    H        0.89160    0.06980    0.86520    1.000
    H1430    H        0.87450    0.03730    0.86210    1.000
    C1229    C        0.91340    0.03480    0.89230    1.000
    H1431    H        0.92340    0.04910    0.90700    1.000
    H1432    H        0.90630    0.01660    0.90400    1.000
    C1230    C        0.93730    0.02450    0.86740    1.000
    H1433    H        0.95480    0.01430    0.87740    1.000
    H1434    H        0.92750    0.01010    0.85300    1.000
    H1435    H        0.94470    0.04260    0.85610    1.000
    C1231    C        0.19991    0.61480    0.36829    1.000
    C1232    C        0.23421    0.61715    0.36206    1.000
    C1233    C        0.24428    0.63770    0.33527    1.000
    H1436    H        0.23030    0.63490    0.31780    1.000
    H1437    H        0.26510    0.63190    0.32880    1.000
    C1234    C        0.24380    0.67172    0.34560    1.000
    C1235    C        0.24930    0.68350    0.37410    1.000
    H1438    H        0.25430    0.67120    0.39150    1.000
    C1236    C        0.24670    0.71830    0.37500    1.000
    H1439    H        0.24980    0.73040    0.39290    1.000
    C1237    C        0.23930    0.73020    0.34720    1.000
    H1440    H        0.23650    0.75150    0.34330    1.000
    S83      S        0.23540    0.70123    0.31945    1.000
    C1238    C        0.25348    0.60007    0.38018    1.000
    H1441    H        0.24380    0.58680    0.39460    1.000
    C1239    C        0.28736    0.59969    0.38016    1.000
    C1240    C        0.30945    0.62212    0.37371    1.000
    H1442    H        0.30510    0.64190    0.36550    1.000
    C1241    C        0.33540    0.58201    0.39246    1.000
    C1242    C        0.29170    0.54624    0.40760    1.000
    C1243    C        0.29071    0.55104    0.44283    1.000
    C1244    C        0.29111    0.58087    0.45626    1.000
    H1443    H        0.29120    0.59850    0.44330    1.000
    C1245    C        0.29139    0.58461    0.48830    1.000
    H1444    H        0.29170    0.60470    0.49690    1.000
    C1246    C        0.29117    0.55872    0.50784    1.000
    C1247    C        0.28988    0.52899    0.49464    1.000
    H1445    H        0.28890    0.51140    0.50760    1.000
    C1248    C        0.29004    0.52529    0.46268    1.000
    H1446    H        0.28970    0.50520    0.45420    1.000
    C1249    C        0.29316    0.56265    0.54225    1.000
    C1250    C        0.36148    0.56112    0.40282    1.000
    H1447    H        0.35480    0.54930    0.42090    1.000
    H1448    H        0.37910    0.57380    0.40890    1.000
    C1251    C        0.37100    0.53800    0.37630    1.000
    H1449    H        0.37730    0.54960    0.35770    1.000
    H1450    H        0.35330    0.52470    0.37080    1.000
    C1252    C        0.39870    0.51760    0.38830    1.000
    H1451    H        0.39360    0.50930    0.40890    1.000
    H1452    H        0.40170    0.49990    0.37420    1.000
    C1253    C        0.42940    0.53640    0.39030    1.000
    H1453    H        0.44600    0.52310    0.39770    1.000
    H1454    H        0.43470    0.54430    0.36980    1.000
    H1455    H        0.42670    0.55370    0.40450    1.000
    N83      N        0.33910    0.61119    0.38112    1.000
    N84      N        0.30469    0.57414    0.39206    1.000
    O165     O        0.18060    0.62671    0.34916    1.000
    O166     O        0.18945    0.60118    0.39259    1.000
    O167     O        0.29485    0.59183    0.55117    1.000
    H1456    H        0.29810    0.59740    0.56960    1.000
    O168     O        0.29289    0.54078    0.56103    1.000
    H1457    H        0.23330    0.63110    0.31670    1.000
    H1458    H        0.26630    0.63430    0.33170    1.000
    C1254    C        0.23950    0.67240    0.33960    1.000
    C1255    C        0.22880    0.69440    0.32010    1.000
    H1459    H        0.22250    0.69050    0.29960    1.000
    C1256    C        0.22830    0.72600    0.33520    1.000
    H1460    H        0.22140    0.74420    0.32520    1.000
    C1257    C        0.23890    0.72540    0.36470    1.000
    H1461    H        0.24050    0.74280    0.37770    1.000
    S84      S        0.24897    0.68822    0.37523    1.000
    H1462    H        0.35260    0.54200    0.41090    1.000
    H1463    H        0.37220    0.57130    0.41990    1.000
    C1258    C        0.38470    0.55140    0.37670    1.000
    H1464    H        0.39160    0.56980    0.36520    1.000
    H1465    H        0.37450    0.53730    0.36210    1.000
    C1259    C        0.41340    0.53480    0.39230    1.000
    H1466    H        0.42340    0.54910    0.40700    1.000
    H1467    H        0.40630    0.51660    0.40400    1.000
    C1260    C        0.43730    0.52450    0.36740    1.000
    H1468    H        0.45480    0.51430    0.37740    1.000
    H1469    H        0.42750    0.51010    0.35300    1.000
    H1470    H        0.44470    0.54260    0.35610    1.000
    C1261    C        0.19991    0.38520    0.13171    1.000
    C1262    C        0.23421    0.38285    0.13794    1.000
    C1263    C        0.24428    0.36230    0.16473    1.000
    H1471    H        0.23030    0.36510    0.18220    1.000
    H1472    H        0.26510    0.36810    0.17120    1.000
    C1264    C        0.24380    0.32828    0.15440    1.000
    C1265    C        0.24930    0.31650    0.12590    1.000
    H1473    H        0.25430    0.32880    0.10850    1.000
    C1266    C        0.24670    0.28170    0.12500    1.000
    H1474    H        0.24980    0.26960    0.10710    1.000
    C1267    C        0.23930    0.26980    0.15280    1.000
    H1475    H        0.23650    0.24850    0.15670    1.000
    S85      S        0.23540    0.29877    0.18055    1.000
    C1268    C        0.25348    0.39993    0.11982    1.000
    H1476    H        0.24380    0.41320    0.10540    1.000
    C1269    C        0.28736    0.40031    0.11984    1.000
    C1270    C        0.30945    0.37788    0.12629    1.000
    H1477    H        0.30510    0.35810    0.13450    1.000
    C1271    C        0.33540    0.41799    0.10754    1.000
    C1272    C        0.29170    0.45376    0.09240    1.000
    C1273    C        0.29071    0.44896    0.05717    1.000
    C1274    C        0.29111    0.41913    0.04374    1.000
    H1478    H        0.29120    0.40150    0.05670    1.000
    C1275    C        0.29139    0.41539    0.01170    1.000
    H1479    H        0.29170    0.39530    0.00310    1.000
    C1276    C        0.29117    0.44128    0.99216    1.000
    C1277    C        0.28988    0.47101    0.00536    1.000
    H1480    H        0.28890    0.48860    0.99240    1.000
    C1278    C        0.29004    0.47471    0.03732    1.000
    H1481    H        0.28970    0.49480    0.04580    1.000
    C1279    C        0.29316    0.43735    0.95775    1.000
    C1280    C        0.36148    0.43888    0.09718    1.000
    H1482    H        0.35480    0.45070    0.07910    1.000
    H1483    H        0.37910    0.42620    0.09110    1.000
    C1281    C        0.37100    0.46200    0.12370    1.000
    H1484    H        0.37730    0.45040    0.14230    1.000
    H1485    H        0.35330    0.47530    0.12920    1.000
    C1282    C        0.39870    0.48240    0.11170    1.000
    H1486    H        0.39360    0.49070    0.09110    1.000
    H1487    H        0.40170    0.50010    0.12580    1.000
    C1283    C        0.42940    0.46360    0.10970    1.000
    H1488    H        0.44600    0.47690    0.10230    1.000
    H1489    H        0.43470    0.45570    0.13020    1.000
    H1490    H        0.42670    0.44630    0.09550    1.000
    N85      N        0.33910    0.38881    0.11888    1.000
    N86      N        0.30469    0.42586    0.10794    1.000
    O169     O        0.18060    0.37329    0.15084    1.000
    O170     O        0.18945    0.39882    0.10741    1.000
    O171     O        0.29485    0.40817    0.94883    1.000
    H1491    H        0.29810    0.40260    0.93040    1.000
    O172     O        0.29289    0.45922    0.93897    1.000
    H1492    H        0.23330    0.36890    0.18330    1.000
    H1493    H        0.26630    0.36570    0.16830    1.000
    C1284    C        0.23950    0.32760    0.16040    1.000
    C1285    C        0.22880    0.30560    0.17990    1.000
    H1494    H        0.22250    0.30950    0.20040    1.000
    C1286    C        0.22830    0.27400    0.16480    1.000
    H1495    H        0.22140    0.25580    0.17480    1.000
    C1287    C        0.23890    0.27460    0.13530    1.000
    H1496    H        0.24050    0.25720    0.12230    1.000
    S86      S        0.24897    0.31178    0.12477    1.000
    H1497    H        0.35260    0.45800    0.08910    1.000
    H1498    H        0.37220    0.42870    0.08010    1.000
    C1288    C        0.38470    0.44860    0.12330    1.000
    H1499    H        0.39160    0.43020    0.13480    1.000
    H1500    H        0.37450    0.46270    0.13790    1.000
    C1289    C        0.41340    0.46520    0.10770    1.000
    H1501    H        0.42340    0.45090    0.09300    1.000
    H1502    H        0.40630    0.48340    0.09600    1.000
    C1290    C        0.43730    0.47550    0.13260    1.000
    H1503    H        0.45480    0.48570    0.12260    1.000
    H1504    H        0.42750    0.48990    0.14700    1.000
    H1505    H        0.44470    0.45740    0.14390    1.000
    C1291    C        0.69991    0.88520    0.63171    1.000
    C1292    C        0.73421    0.88285    0.63794    1.000
    C1293    C        0.74428    0.86230    0.66473    1.000
    H1506    H        0.73030    0.86510    0.68220    1.000
    H1507    H        0.76510    0.86810    0.67120    1.000
    C1294    C        0.74380    0.82828    0.65440    1.000
    C1295    C        0.74930    0.81650    0.62590    1.000
    H1508    H        0.75430    0.82880    0.60850    1.000
    C1296    C        0.74670    0.78170    0.62500    1.000
    H1509    H        0.74980    0.76960    0.60710    1.000
    C1297    C        0.73930    0.76980    0.65280    1.000
    H1510    H        0.73650    0.74850    0.65670    1.000
    S87      S        0.73540    0.79877    0.68055    1.000
    C1298    C        0.75348    0.89993    0.61982    1.000
    H1511    H        0.74380    0.91320    0.60540    1.000
    C1299    C        0.78736    0.90031    0.61984    1.000
    C1300    C        0.80945    0.87788    0.62629    1.000
    H1512    H        0.80510    0.85810    0.63450    1.000
    C1301    C        0.83540    0.91799    0.60754    1.000
    C1302    C        0.79170    0.95376    0.59240    1.000
    C1303    C        0.79071    0.94896    0.55717    1.000
    C1304    C        0.79111    0.91913    0.54374    1.000
    H1513    H        0.79120    0.90150    0.55670    1.000
    C1305    C        0.79139    0.91539    0.51170    1.000
    H1514    H        0.79170    0.89530    0.50310    1.000
    C1306    C        0.79117    0.94128    0.49216    1.000
    C1307    C        0.78988    0.97101    0.50536    1.000
    H1515    H        0.78890    0.98860    0.49240    1.000
    C1308    C        0.79004    0.97471    0.53732    1.000
    H1516    H        0.78970    0.99480    0.54580    1.000
    C1309    C        0.79316    0.93735    0.45775    1.000
    C1310    C        0.86148    0.93888    0.59718    1.000
    H1517    H        0.85480    0.95070    0.57910    1.000
    H1518    H        0.87910    0.92620    0.59110    1.000
    C1311    C        0.87100    0.96200    0.62370    1.000
    H1519    H        0.87730    0.95040    0.64230    1.000
    H1520    H        0.85330    0.97530    0.62920    1.000
    C1312    C        0.89870    0.98240    0.61170    1.000
    H1521    H        0.89360    0.99070    0.59110    1.000
    H1522    H        0.90170    0.00010    0.62580    1.000
    C1313    C        0.92940    0.96360    0.60970    1.000
    H1523    H        0.94600    0.97690    0.60230    1.000
    H1524    H        0.93470    0.95570    0.63020    1.000
    H1525    H        0.92670    0.94630    0.59550    1.000
    N87      N        0.83910    0.88881    0.61888    1.000
    N88      N        0.80469    0.92586    0.60794    1.000
    O173     O        0.68060    0.87329    0.65084    1.000
    O174     O        0.68945    0.89882    0.60741    1.000
    O175     O        0.79485    0.90817    0.44883    1.000
    H1526    H        0.79810    0.90260    0.43040    1.000
    O176     O        0.79289    0.95922    0.43897    1.000
    H1527    H        0.73330    0.86890    0.68330    1.000
    H1528    H        0.76630    0.86570    0.66830    1.000
    C1314    C        0.73950    0.82760    0.66040    1.000
    C1315    C        0.72880    0.80560    0.67990    1.000
    H1529    H        0.72250    0.80950    0.70040    1.000
    C1316    C        0.72830    0.77400    0.66480    1.000
    H1530    H        0.72140    0.75580    0.67480    1.000
    C1317    C        0.73890    0.77460    0.63530    1.000
    H1531    H        0.74050    0.75720    0.62230    1.000
    S88      S        0.74897    0.81178    0.62477    1.000
    H1532    H        0.85260    0.95800    0.58910    1.000
    H1533    H        0.87220    0.92870    0.58010    1.000
    C1318    C        0.88470    0.94860    0.62330    1.000
    H1534    H        0.89160    0.93020    0.63480    1.000
    H1535    H        0.87450    0.96270    0.63790    1.000
    C1319    C        0.91340    0.96520    0.60770    1.000
    H1536    H        0.92340    0.95090    0.59300    1.000
    H1537    H        0.90630    0.98340    0.59600    1.000
    C1320    C        0.93730    0.97550    0.63260    1.000
    H1538    H        0.95480    0.98570    0.62260    1.000
    H1539    H        0.92750    0.98990    0.64700    1.000
    H1540    H        0.94470    0.95740    0.64390    1.000
    C1321    C        0.30009    0.61480    0.63171    1.000
    C1322    C        0.26579    0.61715    0.63794    1.000
    C1323    C        0.25572    0.63770    0.66473    1.000
    H1541    H        0.26970    0.63490    0.68220    1.000
    H1542    H        0.23490    0.63190    0.67120    1.000
    C1324    C        0.25620    0.67172    0.65440    1.000
    C1325    C        0.25070    0.68350    0.62590    1.000
    H1543    H        0.24570    0.67120    0.60850    1.000
    C1326    C        0.25330    0.71830    0.62500    1.000
    H1544    H        0.25020    0.73040    0.60710    1.000
    C1327    C        0.26070    0.73020    0.65280    1.000
    H1545    H        0.26350    0.75150    0.65670    1.000
    S89      S        0.26460    0.70123    0.68055    1.000
    C1328    C        0.24652    0.60007    0.61982    1.000
    H1546    H        0.25620    0.58680    0.60540    1.000
    C1329    C        0.21264    0.59969    0.61984    1.000
    C1330    C        0.19055    0.62212    0.62629    1.000
    H1547    H        0.19490    0.64190    0.63450    1.000
    C1331    C        0.16460    0.58201    0.60754    1.000
    C1332    C        0.20830    0.54624    0.59240    1.000
    C1333    C        0.20929    0.55104    0.55717    1.000
    C1334    C        0.20889    0.58087    0.54374    1.000
    H1548    H        0.20880    0.59850    0.55670    1.000
    C1335    C        0.20861    0.58461    0.51170    1.000
    H1549    H        0.20830    0.60470    0.50310    1.000
    C1336    C        0.20883    0.55872    0.49216    1.000
    C1337    C        0.21012    0.52899    0.50536    1.000
    H1550    H        0.21110    0.51140    0.49240    1.000
    C1338    C        0.20996    0.52529    0.53732    1.000
    H1551    H        0.21030    0.50520    0.54580    1.000
    C1339    C        0.20684    0.56265    0.45775    1.000
    C1340    C        0.13852    0.56112    0.59718    1.000
    H1552    H        0.14520    0.54930    0.57910    1.000
    H1553    H        0.12090    0.57380    0.59110    1.000
    C1341    C        0.12900    0.53800    0.62370    1.000
    H1554    H        0.12270    0.54960    0.64230    1.000
    H1555    H        0.14670    0.52470    0.62920    1.000
    C1342    C        0.10130    0.51760    0.61170    1.000
    H1556    H        0.10640    0.50930    0.59110    1.000
    H1557    H        0.09830    0.49990    0.62580    1.000
    C1343    C        0.07060    0.53640    0.60970    1.000
    H1558    H        0.05400    0.52310    0.60230    1.000
    H1559    H        0.06530    0.54430    0.63020    1.000
    H1560    H        0.07330    0.55370    0.59550    1.000
    N89      N        0.16090    0.61119    0.61888    1.000
    N90      N        0.19531    0.57414    0.60794    1.000
    O177     O        0.31940    0.62671    0.65084    1.000
    O178     O        0.31055    0.60118    0.60741    1.000
    O179     O        0.20515    0.59183    0.44883    1.000
    H1561    H        0.20190    0.59740    0.43040    1.000
    O180     O        0.20711    0.54078    0.43897    1.000
    H1562    H        0.26670    0.63110    0.68330    1.000
    H1563    H        0.23370    0.63430    0.66830    1.000
    C1344    C        0.26050    0.67240    0.66040    1.000
    C1345    C        0.27120    0.69440    0.67990    1.000
    H1564    H        0.27750    0.69050    0.70040    1.000
    C1346    C        0.27170    0.72600    0.66480    1.000
    H1565    H        0.27860    0.74420    0.67480    1.000
    C1347    C        0.26110    0.72540    0.63530    1.000
    H1566    H        0.25950    0.74280    0.62230    1.000
    S90      S        0.25103    0.68822    0.62477    1.000
    H1567    H        0.14740    0.54200    0.58910    1.000
    H1568    H        0.12780    0.57130    0.58010    1.000
    C1348    C        0.11530    0.55140    0.62330    1.000
    H1569    H        0.10840    0.56980    0.63480    1.000
    H1570    H        0.12550    0.53730    0.63790    1.000
    C1349    C        0.08660    0.53480    0.60770    1.000
    H1571    H        0.07660    0.54910    0.59300    1.000
    H1572    H        0.09370    0.51660    0.59600    1.000
    C1350    C        0.06270    0.52450    0.63260    1.000
    H1573    H        0.04520    0.51430    0.62260    1.000
    H1574    H        0.07250    0.51010    0.64700    1.000
    H1575    H        0.05530    0.54260    0.64390    1.000
    C1351    C        0.80009    0.11480    0.13171    1.000
    C1352    C        0.76579    0.11715    0.13794    1.000
    C1353    C        0.75572    0.13770    0.16473    1.000
    H1576    H        0.76970    0.13490    0.18220    1.000
    H1577    H        0.73490    0.13190    0.17120    1.000
    C1354    C        0.75620    0.17172    0.15440    1.000
    C1355    C        0.75070    0.18350    0.12590    1.000
    H1578    H        0.74570    0.17120    0.10850    1.000
    C1356    C        0.75330    0.21830    0.12500    1.000
    H1579    H        0.75020    0.23040    0.10710    1.000
    C1357    C        0.76070    0.23020    0.15280    1.000
    H1580    H        0.76350    0.25150    0.15670    1.000
    S91      S        0.76460    0.20123    0.18055    1.000
    C1358    C        0.74652    0.10007    0.11982    1.000
    H1581    H        0.75620    0.08680    0.10540    1.000
    C1359    C        0.71264    0.09969    0.11984    1.000
    C1360    C        0.69055    0.12212    0.12629    1.000
    H1582    H        0.69490    0.14190    0.13450    1.000
    C1361    C        0.66460    0.08201    0.10754    1.000
    C1362    C        0.70830    0.04624    0.09240    1.000
    C1363    C        0.70929    0.05104    0.05717    1.000
    C1364    C        0.70889    0.08087    0.04374    1.000
    H1583    H        0.70880    0.09850    0.05670    1.000
    C1365    C        0.70861    0.08461    0.01170    1.000
    H1584    H        0.70830    0.10470    0.00310    1.000
    C1366    C        0.70883    0.05872    0.99216    1.000
    C1367    C        0.71012    0.02899    0.00536    1.000
    H1585    H        0.71110    0.01140    0.99240    1.000
    C1368    C        0.70996    0.02529    0.03732    1.000
    H1586    H        0.71030    0.00520    0.04580    1.000
    C1369    C        0.70684    0.06265    0.95775    1.000
    C1370    C        0.63852    0.06112    0.09718    1.000
    H1587    H        0.64520    0.04930    0.07910    1.000
    H1588    H        0.62090    0.07380    0.09110    1.000
    C1371    C        0.62900    0.03800    0.12370    1.000
    H1589    H        0.62270    0.04960    0.14230    1.000
    H1590    H        0.64670    0.02470    0.12920    1.000
    C1372    C        0.60130    0.01760    0.11170    1.000
    H1591    H        0.60640    0.00930    0.09110    1.000
    H1592    H        0.59830    0.99990    0.12580    1.000
    C1373    C        0.57060    0.03640    0.10970    1.000
    H1593    H        0.55400    0.02310    0.10230    1.000
    H1594    H        0.56530    0.04430    0.13020    1.000
    H1595    H        0.57330    0.05370    0.09550    1.000
    N91      N        0.66090    0.11119    0.11888    1.000
    N92      N        0.69531    0.07414    0.10794    1.000
    O181     O        0.81940    0.12671    0.15084    1.000
    O182     O        0.81055    0.10118    0.10741    1.000
    O183     O        0.70515    0.09183    0.94883    1.000
    H1596    H        0.70190    0.09740    0.93040    1.000
    O184     O        0.70711    0.04078    0.93897    1.000
    H1597    H        0.76670    0.13110    0.18330    1.000
    H1598    H        0.73370    0.13430    0.16830    1.000
    C1374    C        0.76050    0.17240    0.16040    1.000
    C1375    C        0.77120    0.19440    0.17990    1.000
    H1599    H        0.77750    0.19050    0.20040    1.000
    C1376    C        0.77170    0.22600    0.16480    1.000
    H1600    H        0.77860    0.24420    0.17480    1.000
    C1377    C        0.76110    0.22540    0.13530    1.000
    H1601    H        0.75950    0.24280    0.12230    1.000
    S92      S        0.75103    0.18822    0.12477    1.000
    H1602    H        0.64740    0.04200    0.08910    1.000
    H1603    H        0.62780    0.07130    0.08010    1.000
    C1378    C        0.61530    0.05140    0.12330    1.000
    H1604    H        0.60840    0.06980    0.13480    1.000
    H1605    H        0.62550    0.03730    0.13790    1.000
    C1379    C        0.58660    0.03480    0.10770    1.000
    H1606    H        0.57660    0.04910    0.09300    1.000
    H1607    H        0.59370    0.01660    0.09600    1.000
    C1380    C        0.56270    0.02450    0.13260    1.000
    H1608    H        0.54520    0.01430    0.12260    1.000
    H1609    H        0.57250    0.01010    0.14700    1.000
    H1610    H        0.55530    0.04260    0.14390    1.000
    C1381    C        0.80009    0.88520    0.36829    1.000
    C1382    C        0.76579    0.88285    0.36206    1.000
    C1383    C        0.75572    0.86230    0.33527    1.000
    H1611    H        0.76970    0.86510    0.31780    1.000
    H1612    H        0.73490    0.86810    0.32880    1.000
    C1384    C        0.75620    0.82828    0.34560    1.000
    C1385    C        0.75070    0.81650    0.37410    1.000
    H1613    H        0.74570    0.82880    0.39150    1.000
    C1386    C        0.75330    0.78170    0.37500    1.000
    H1614    H        0.75020    0.76960    0.39290    1.000
    C1387    C        0.76070    0.76980    0.34720    1.000
    H1615    H        0.76350    0.74850    0.34330    1.000
    S93      S        0.76460    0.79877    0.31945    1.000
    C1388    C        0.74652    0.89993    0.38018    1.000
    H1616    H        0.75620    0.91320    0.39460    1.000
    C1389    C        0.71264    0.90031    0.38016    1.000
    C1390    C        0.69055    0.87788    0.37371    1.000
    H1617    H        0.69490    0.85810    0.36550    1.000
    C1391    C        0.66460    0.91799    0.39246    1.000
    C1392    C        0.70830    0.95376    0.40760    1.000
    C1393    C        0.70929    0.94896    0.44283    1.000
    C1394    C        0.70889    0.91913    0.45626    1.000
    H1618    H        0.70880    0.90150    0.44330    1.000
    C1395    C        0.70861    0.91539    0.48830    1.000
    H1619    H        0.70830    0.89530    0.49690    1.000
    C1396    C        0.70883    0.94128    0.50784    1.000
    C1397    C        0.71012    0.97101    0.49464    1.000
    H1620    H        0.71110    0.98860    0.50760    1.000
    C1398    C        0.70996    0.97471    0.46268    1.000
    H1621    H        0.71030    0.99480    0.45420    1.000
    C1399    C        0.70684    0.93735    0.54225    1.000
    C1400    C        0.63852    0.93888    0.40282    1.000
    H1622    H        0.64520    0.95070    0.42090    1.000
    H1623    H        0.62090    0.92620    0.40890    1.000
    C1401    C        0.62900    0.96200    0.37630    1.000
    H1624    H        0.62270    0.95040    0.35770    1.000
    H1625    H        0.64670    0.97530    0.37080    1.000
    C1402    C        0.60130    0.98240    0.38830    1.000
    H1626    H        0.60640    0.99070    0.40890    1.000
    H1627    H        0.59830    0.00010    0.37420    1.000
    C1403    C        0.57060    0.96360    0.39030    1.000
    H1628    H        0.55400    0.97690    0.39770    1.000
    H1629    H        0.56530    0.95570    0.36980    1.000
    H1630    H        0.57330    0.94630    0.40450    1.000
    N93      N        0.66090    0.88881    0.38112    1.000
    N94      N        0.69531    0.92586    0.39206    1.000
    O185     O        0.81940    0.87329    0.34916    1.000
    O186     O        0.81055    0.89882    0.39259    1.000
    O187     O        0.70515    0.90817    0.55117    1.000
    H1631    H        0.70190    0.90260    0.56960    1.000
    O188     O        0.70711    0.95922    0.56103    1.000
    H1632    H        0.76670    0.86890    0.31670    1.000
    H1633    H        0.73370    0.86570    0.33170    1.000
    C1404    C        0.76050    0.82760    0.33960    1.000
    C1405    C        0.77120    0.80560    0.32010    1.000
    H1634    H        0.77750    0.80950    0.29960    1.000
    C1406    C        0.77170    0.77400    0.33520    1.000
    H1635    H        0.77860    0.75580    0.32520    1.000
    C1407    C        0.76110    0.77460    0.36470    1.000
    H1636    H        0.75950    0.75720    0.37770    1.000
    S94      S        0.75103    0.81178    0.37523    1.000
    H1637    H        0.64740    0.95800    0.41090    1.000
    H1638    H        0.62780    0.92870    0.41990    1.000
    C1408    C        0.61530    0.94860    0.37670    1.000
    H1639    H        0.60840    0.93020    0.36520    1.000
    H1640    H        0.62550    0.96270    0.36210    1.000
    C1409    C        0.58660    0.96520    0.39230    1.000
    H1641    H        0.57660    0.95090    0.40700    1.000
    H1642    H        0.59370    0.98340    0.40400    1.000
    C1410    C        0.56270    0.97550    0.36740    1.000
    H1643    H        0.54520    0.98570    0.37740    1.000
    H1644    H        0.57250    0.98990    0.35300    1.000
    H1645    H        0.55530    0.95740    0.35610    1.000
    C1411    C        0.30009    0.38520    0.86829    1.000
    C1412    C        0.26579    0.38285    0.86206    1.000
    C1413    C        0.25572    0.36230    0.83527    1.000
    H1646    H        0.26970    0.36510    0.81780    1.000
    H1647    H        0.23490    0.36810    0.82880    1.000
    C1414    C        0.25620    0.32828    0.84560    1.000
    C1415    C        0.25070    0.31650    0.87410    1.000
    H1648    H        0.24570    0.32880    0.89150    1.000
    C1416    C        0.25330    0.28170    0.87500    1.000
    H1649    H        0.25020    0.26960    0.89290    1.000
    C1417    C        0.26070    0.26980    0.84720    1.000
    H1650    H        0.26350    0.24850    0.84330    1.000
    S95      S        0.26460    0.29877    0.81945    1.000
    C1418    C        0.24652    0.39993    0.88018    1.000
    H1651    H        0.25620    0.41320    0.89460    1.000
    C1419    C        0.21264    0.40031    0.88016    1.000
    C1420    C        0.19055    0.37788    0.87371    1.000
    H1652    H        0.19490    0.35810    0.86550    1.000
    C1421    C        0.16460    0.41799    0.89246    1.000
    C1422    C        0.20830    0.45376    0.90760    1.000
    C1423    C        0.20929    0.44896    0.94283    1.000
    C1424    C        0.20889    0.41913    0.95626    1.000
    H1653    H        0.20880    0.40150    0.94330    1.000
    C1425    C        0.20861    0.41539    0.98830    1.000
    H1654    H        0.20830    0.39530    0.99690    1.000
    C1426    C        0.20883    0.44128    0.00784    1.000
    C1427    C        0.21012    0.47101    0.99464    1.000
    H1655    H        0.21110    0.48860    0.00760    1.000
    C1428    C        0.20996    0.47471    0.96268    1.000
    H1656    H        0.21030    0.49480    0.95420    1.000
    C1429    C        0.20684    0.43735    0.04225    1.000
    C1430    C        0.13852    0.43888    0.90282    1.000
    H1657    H        0.14520    0.45070    0.92090    1.000
    H1658    H        0.12090    0.42620    0.90890    1.000
    C1431    C        0.12900    0.46200    0.87630    1.000
    H1659    H        0.12270    0.45040    0.85770    1.000
    H1660    H        0.14670    0.47530    0.87080    1.000
    C1432    C        0.10130    0.48240    0.88830    1.000
    H1661    H        0.10640    0.49070    0.90890    1.000
    H1662    H        0.09830    0.50010    0.87420    1.000
    C1433    C        0.07060    0.46360    0.89030    1.000
    H1663    H        0.05400    0.47690    0.89770    1.000
    H1664    H        0.06530    0.45570    0.86980    1.000
    H1665    H        0.07330    0.44630    0.90450    1.000
    N95      N        0.16090    0.38881    0.88112    1.000
    N96      N        0.19531    0.42586    0.89206    1.000
    O189     O        0.31940    0.37329    0.84916    1.000
    O190     O        0.31055    0.39882    0.89259    1.000
    O191     O        0.20515    0.40817    0.05117    1.000
    H1666    H        0.20190    0.40260    0.06960    1.000
    O192     O        0.20711    0.45922    0.06103    1.000
    H1667    H        0.26670    0.36890    0.81670    1.000
    H1668    H        0.23370    0.36570    0.83170    1.000
    C1434    C        0.26050    0.32760    0.83960    1.000
    C1435    C        0.27120    0.30560    0.82010    1.000
    H1669    H        0.27750    0.30950    0.79960    1.000
    C1436    C        0.27170    0.27400    0.83520    1.000
    H1670    H        0.27860    0.25580    0.82520    1.000
    C1437    C        0.26110    0.27460    0.86470    1.000
    H1671    H        0.25950    0.25720    0.87770    1.000
    S96      S        0.25103    0.31178    0.87523    1.000
    H1672    H        0.14740    0.45800    0.91090    1.000
    H1673    H        0.12780    0.42870    0.91990    1.000
    C1438    C        0.11530    0.44860    0.87670    1.000
    H1674    H        0.10840    0.43020    0.86520    1.000
    H1675    H        0.12550    0.46270    0.86210    1.000
    C1439    C        0.08660    0.46520    0.89230    1.000
    H1676    H        0.07660    0.45090    0.90700    1.000
    H1677    H        0.09370    0.48340    0.90400    1.000
    C1440    C        0.06270    0.47550    0.86740    1.000
    H1678    H        0.04520    0.48570    0.87740    1.000
    H1679    H        0.07250    0.48990    0.85300    1.000
    H1680    H        0.05530    0.45740    0.85610    1.000
    C1441    C        0.61829    0.13520    0.05009    1.000
    C1442    C        0.61206    0.13285    0.01579    1.000
    C1443    C        0.58527    0.11230    0.00572    1.000
    H1681    H        0.56780    0.11510    0.01970    1.000
    H1682    H        0.57880    0.11810    0.98490    1.000
    C1444    C        0.59560    0.07828    0.00620    1.000
    C1445    C        0.62410    0.06650    0.00070    1.000
    H1683    H        0.64150    0.07880    0.99570    1.000
    C1446    C        0.62500    0.03170    0.00330    1.000
    H1684    H        0.64290    0.01960    0.00020    1.000
    C1447    C        0.59720    0.01980    0.01070    1.000
    H1685    H        0.59330    0.99850    0.01350    1.000
    S97      S        0.56945    0.04877    0.01460    1.000
    C1448    C        0.63018    0.14993    0.99652    1.000
    H1686    H        0.64460    0.16320    0.00620    1.000
    C1449    C        0.63016    0.15031    0.96264    1.000
    C1450    C        0.62371    0.12788    0.94055    1.000
    H1687    H        0.61550    0.10810    0.94490    1.000
    C1451    C        0.64246    0.16799    0.91460    1.000
    C1452    C        0.65760    0.20376    0.95830    1.000
    C1453    C        0.69283    0.19896    0.95929    1.000
    C1454    C        0.70626    0.16913    0.95889    1.000
    H1688    H        0.69330    0.15150    0.95880    1.000
    C1455    C        0.73830    0.16539    0.95861    1.000
    H1689    H        0.74690    0.14530    0.95830    1.000
    C1456    C        0.75784    0.19128    0.95883    1.000
    C1457    C        0.74464    0.22101    0.96012    1.000
    H1690    H        0.75760    0.23860    0.96110    1.000
    C1458    C        0.71268    0.22471    0.95996    1.000
    H1691    H        0.70420    0.24480    0.96030    1.000
    C1459    C        0.79225    0.18735    0.95684    1.000
    C1460    C        0.65282    0.18888    0.88852    1.000
    H1692    H        0.67090    0.20070    0.89520    1.000
    H1693    H        0.65890    0.17620    0.87090    1.000
    C1461    C        0.62630    0.21200    0.87900    1.000
    H1694    H        0.60770    0.20040    0.87270    1.000
    H1695    H        0.62080    0.22530    0.89670    1.000
    C1462    C        0.63830    0.23240    0.85130    1.000
    H1696    H        0.65890    0.24070    0.85640    1.000
    H1697    H        0.62420    0.25010    0.84830    1.000
    C1463    C        0.64030    0.21360    0.82060    1.000
    H1698    H        0.64770    0.22690    0.80400    1.000
    H1699    H        0.61980    0.20570    0.81530    1.000
    H1700    H        0.65450    0.19630    0.82330    1.000
    N97      N        0.63112    0.13881    0.91090    1.000
    N98      N        0.64206    0.17586    0.94531    1.000
    O193     O        0.59916    0.12329    0.06940    1.000
    O194     O        0.64259    0.14882    0.06055    1.000
    O195     O        0.80117    0.15817    0.95515    1.000
    H1701    H        0.81960    0.15260    0.95190    1.000
    O196     O        0.81103    0.20922    0.95711    1.000
    H1702    H        0.56670    0.11890    0.01670    1.000
    H1703    H        0.58170    0.11570    0.98370    1.000
    C1464    C        0.58960    0.07760    0.01050    1.000
    C1465    C        0.57010    0.05560    0.02120    1.000
    H1704    H        0.54960    0.05950    0.02750    1.000
    C1466    C        0.58520    0.02400    0.02170    1.000
    H1705    H        0.57520    0.00580    0.02860    1.000
    C1467    C        0.61470    0.02460    0.01110    1.000
    H1706    H        0.62770    0.00720    0.00950    1.000
    S98      S        0.62523    0.06178    0.00103    1.000
    H1707    H        0.66090    0.20800    0.89740    1.000
    H1708    H        0.66990    0.17870    0.87780    1.000
    C1468    C        0.62670    0.19860    0.86530    1.000
    H1709    H        0.61520    0.18020    0.85840    1.000
    H1710    H        0.61210    0.21270    0.87550    1.000
    C1469    C        0.64230    0.21520    0.83660    1.000
    H1711    H        0.65700    0.20090    0.82660    1.000
    H1712    H        0.65400    0.23340    0.84370    1.000
    C1470    C        0.61740    0.22550    0.81270    1.000
    H1713    H        0.62740    0.23570    0.79520    1.000
    H1714    H        0.60300    0.23990    0.82250    1.000
    H1715    H        0.60610    0.20740    0.80530    1.000
    C1471    C        0.11829    0.63520    0.55009    1.000
    C1472    C        0.11206    0.63285    0.51579    1.000
    C1473    C        0.08527    0.61230    0.50572    1.000
    H1716    H        0.06780    0.61510    0.51970    1.000
    H1717    H        0.07880    0.61810    0.48490    1.000
    C1474    C        0.09560    0.57828    0.50620    1.000
    C1475    C        0.12410    0.56650    0.50070    1.000
    H1718    H        0.14150    0.57880    0.49570    1.000
    C1476    C        0.12500    0.53170    0.50330    1.000
    H1719    H        0.14290    0.51960    0.50020    1.000
    C1477    C        0.09720    0.51980    0.51070    1.000
    H1720    H        0.09330    0.49850    0.51350    1.000
    S99      S        0.06945    0.54877    0.51460    1.000
    C1478    C        0.13018    0.64993    0.49652    1.000
    H1721    H        0.14460    0.66320    0.50620    1.000
    C1479    C        0.13016    0.65031    0.46264    1.000
    C1480    C        0.12371    0.62788    0.44055    1.000
    H1722    H        0.11550    0.60810    0.44490    1.000
    C1481    C        0.14246    0.66799    0.41460    1.000
    C1482    C        0.15760    0.70376    0.45830    1.000
    C1483    C        0.19283    0.69896    0.45929    1.000
    C1484    C        0.20626    0.66913    0.45889    1.000
    H1723    H        0.19330    0.65150    0.45880    1.000
    C1485    C        0.23830    0.66539    0.45861    1.000
    H1724    H        0.24690    0.64530    0.45830    1.000
    C1486    C        0.25784    0.69128    0.45883    1.000
    C1487    C        0.24464    0.72101    0.46012    1.000
    H1725    H        0.25760    0.73860    0.46110    1.000
    C1488    C        0.21268    0.72471    0.45996    1.000
    H1726    H        0.20420    0.74480    0.46030    1.000
    C1489    C        0.29225    0.68735    0.45684    1.000
    C1490    C        0.15282    0.68888    0.38852    1.000
    H1727    H        0.17090    0.70070    0.39520    1.000
    H1728    H        0.15890    0.67620    0.37090    1.000
    C1491    C        0.12630    0.71200    0.37900    1.000
    H1729    H        0.10770    0.70040    0.37270    1.000
    H1730    H        0.12080    0.72530    0.39670    1.000
    C1492    C        0.13830    0.73240    0.35130    1.000
    H1731    H        0.15890    0.74070    0.35640    1.000
    H1732    H        0.12420    0.75010    0.34830    1.000
    C1493    C        0.14030    0.71360    0.32060    1.000
    H1733    H        0.14770    0.72690    0.30400    1.000
    H1734    H        0.11980    0.70570    0.31530    1.000
    H1735    H        0.15450    0.69630    0.32330    1.000
    N99      N        0.13112    0.63881    0.41090    1.000
    N100     N        0.14206    0.67586    0.44531    1.000
    O197     O        0.09916    0.62329    0.56940    1.000
    O198     O        0.14259    0.64882    0.56055    1.000
    O199     O        0.30117    0.65817    0.45515    1.000
    H1736    H        0.31960    0.65260    0.45190    1.000
    O200     O        0.31103    0.70922    0.45711    1.000
    H1737    H        0.06670    0.61890    0.51670    1.000
    H1738    H        0.08170    0.61570    0.48370    1.000
    C1494    C        0.08960    0.57760    0.51050    1.000
    C1495    C        0.07010    0.55560    0.52120    1.000
    H1739    H        0.04960    0.55950    0.52750    1.000
    C1496    C        0.08520    0.52400    0.52170    1.000
    H1740    H        0.07520    0.50580    0.52860    1.000
    C1497    C        0.11470    0.52460    0.51110    1.000
    H1741    H        0.12770    0.50720    0.50950    1.000
    S100     S        0.12523    0.56178    0.50103    1.000
    H1742    H        0.16090    0.70800    0.39740    1.000
    H1743    H        0.16990    0.67870    0.37780    1.000
    C1498    C        0.12670    0.69860    0.36530    1.000
    H1744    H        0.11520    0.68020    0.35840    1.000
    H1745    H        0.11210    0.71270    0.37550    1.000
    C1499    C        0.14230    0.71520    0.33660    1.000
    H1746    H        0.15700    0.70090    0.32660    1.000
    H1747    H        0.15400    0.73340    0.34370    1.000
    C1500    C        0.11740    0.72550    0.31270    1.000
    H1748    H        0.12740    0.73570    0.29520    1.000
    H1749    H        0.10300    0.73990    0.32250    1.000
    H1750    H        0.10610    0.70740    0.30530    1.000
    C1501    C        0.88171    0.86480    0.55009    1.000
    C1502    C        0.88794    0.86715    0.51579    1.000
    C1503    C        0.91473    0.88770    0.50572    1.000
    H1751    H        0.93220    0.88490    0.51970    1.000
    H1752    H        0.92120    0.88190    0.48490    1.000
    C1504    C        0.90440    0.92172    0.50620    1.000
    C1505    C        0.87590    0.93350    0.50070    1.000
    H1753    H        0.85850    0.92120    0.49570    1.000
    C1506    C        0.87500    0.96830    0.50330    1.000
    H1754    H        0.85710    0.98040    0.50020    1.000
    C1507    C        0.90280    0.98020    0.51070    1.000
    H1755    H        0.90670    0.00150    0.51350    1.000
    S101     S        0.93055    0.95123    0.51460    1.000
    C1508    C        0.86982    0.85007    0.49652    1.000
    H1756    H        0.85540    0.83680    0.50620    1.000
    C1509    C        0.86984    0.84969    0.46264    1.000
    C1510    C        0.87629    0.87212    0.44055    1.000
    H1757    H        0.88450    0.89190    0.44490    1.000
    C1511    C        0.85754    0.83201    0.41460    1.000
    C1512    C        0.84240    0.79624    0.45830    1.000
    C1513    C        0.80717    0.80104    0.45929    1.000
    C1514    C        0.79374    0.83087    0.45889    1.000
    H1758    H        0.80670    0.84850    0.45880    1.000
    C1515    C        0.76170    0.83461    0.45861    1.000
    H1759    H        0.75310    0.85470    0.45830    1.000
    C1516    C        0.74216    0.80872    0.45883    1.000
    C1517    C        0.75536    0.77899    0.46012    1.000
    H1760    H        0.74240    0.76140    0.46110    1.000
    C1518    C        0.78732    0.77529    0.45996    1.000
    H1761    H        0.79580    0.75520    0.46030    1.000
    C1519    C        0.70775    0.81265    0.45684    1.000
    C1520    C        0.84718    0.81112    0.38852    1.000
    H1762    H        0.82910    0.79930    0.39520    1.000
    H1763    H        0.84110    0.82380    0.37090    1.000
    C1521    C        0.87370    0.78800    0.37900    1.000
    H1764    H        0.89230    0.79960    0.37270    1.000
    H1765    H        0.87920    0.77470    0.39670    1.000
    C1522    C        0.86170    0.76760    0.35130    1.000
    H1766    H        0.84110    0.75930    0.35640    1.000
    H1767    H        0.87580    0.74990    0.34830    1.000
    C1523    C        0.85970    0.78640    0.32060    1.000
    H1768    H        0.85230    0.77310    0.30400    1.000
    H1769    H        0.88020    0.79430    0.31530    1.000
    H1770    H        0.84550    0.80370    0.32330    1.000
    N101     N        0.86888    0.86119    0.41090    1.000
    N102     N        0.85794    0.82414    0.44531    1.000
    O201     O        0.90084    0.87671    0.56940    1.000
    O202     O        0.85741    0.85118    0.56055    1.000
    O203     O        0.69883    0.84183    0.45515    1.000
    H1771    H        0.68040    0.84740    0.45190    1.000
    O204     O        0.68897    0.79078    0.45711    1.000
    H1772    H        0.93330    0.88110    0.51670    1.000
    H1773    H        0.91830    0.88430    0.48370    1.000
    C1524    C        0.91040    0.92240    0.51050    1.000
    C1525    C        0.92990    0.94440    0.52120    1.000
    H1774    H        0.95040    0.94050    0.52750    1.000
    C1526    C        0.91480    0.97600    0.52170    1.000
    H1775    H        0.92480    0.99420    0.52860    1.000
    C1527    C        0.88530    0.97540    0.51110    1.000
    H1776    H        0.87230    0.99280    0.50950    1.000
    S102     S        0.87477    0.93822    0.50103    1.000
    H1777    H        0.83910    0.79200    0.39740    1.000
    H1778    H        0.83010    0.82130    0.37780    1.000
    C1528    C        0.87330    0.80140    0.36530    1.000
    H1779    H        0.88480    0.81980    0.35840    1.000
    H1780    H        0.88790    0.78730    0.37550    1.000
    C1529    C        0.85770    0.78480    0.33660    1.000
    H1781    H        0.84300    0.79910    0.32660    1.000
    H1782    H        0.84600    0.76660    0.34370    1.000
    C1530    C        0.88260    0.77450    0.31270    1.000
    H1783    H        0.87260    0.76430    0.29520    1.000
    H1784    H        0.89700    0.76010    0.32250    1.000
    H1785    H        0.89390    0.79260    0.30530    1.000
    C1531    C        0.38171    0.36480    0.05009    1.000
    C1532    C        0.38794    0.36715    0.01579    1.000
    C1533    C        0.41473    0.38770    0.00572    1.000
    H1786    H        0.43220    0.38490    0.01970    1.000
    H1787    H        0.42120    0.38190    0.98490    1.000
    C1534    C        0.40440    0.42172    0.00620    1.000
    C1535    C        0.37590    0.43350    0.00070    1.000
    H1788    H        0.35850    0.42120    0.99570    1.000
    C1536    C        0.37500    0.46830    0.00330    1.000
    H1789    H        0.35710    0.48040    0.00020    1.000
    C1537    C        0.40280    0.48020    0.01070    1.000
    H1790    H        0.40670    0.50150    0.01350    1.000
    S103     S        0.43055    0.45123    0.01460    1.000
    C1538    C        0.36982    0.35007    0.99652    1.000
    H1791    H        0.35540    0.33680    0.00620    1.000
    C1539    C        0.36984    0.34969    0.96264    1.000
    C1540    C        0.37629    0.37212    0.94055    1.000
    H1792    H        0.38450    0.39190    0.94490    1.000
    C1541    C        0.35754    0.33201    0.91460    1.000
    C1542    C        0.34240    0.29624    0.95830    1.000
    C1543    C        0.30717    0.30104    0.95929    1.000
    C1544    C        0.29374    0.33087    0.95889    1.000
    H1793    H        0.30670    0.34850    0.95880    1.000
    C1545    C        0.26170    0.33461    0.95861    1.000
    H1794    H        0.25310    0.35470    0.95830    1.000
    C1546    C        0.24216    0.30872    0.95883    1.000
    C1547    C        0.25536    0.27899    0.96012    1.000
    H1795    H        0.24240    0.26140    0.96110    1.000
    C1548    C        0.28732    0.27529    0.95996    1.000
    H1796    H        0.29580    0.25520    0.96030    1.000
    C1549    C        0.20775    0.31265    0.95684    1.000
    C1550    C        0.34718    0.31112    0.88852    1.000
    H1797    H        0.32910    0.29930    0.89520    1.000
    H1798    H        0.34110    0.32380    0.87090    1.000
    C1551    C        0.37370    0.28800    0.87900    1.000
    H1799    H        0.39230    0.29960    0.87270    1.000
    H1800    H        0.37920    0.27470    0.89670    1.000
    C1552    C        0.36170    0.26760    0.85130    1.000
    H1801    H        0.34110    0.25930    0.85640    1.000
    H1802    H        0.37580    0.24990    0.84830    1.000
    C1553    C        0.35970    0.28640    0.82060    1.000
    H1803    H        0.35230    0.27310    0.80400    1.000
    H1804    H        0.38020    0.29430    0.81530    1.000
    H1805    H        0.34550    0.30370    0.82330    1.000
    N103     N        0.36888    0.36119    0.91090    1.000
    N104     N        0.35794    0.32414    0.94531    1.000
    O205     O        0.40084    0.37671    0.06940    1.000
    O206     O        0.35741    0.35118    0.06055    1.000
    O207     O        0.19883    0.34183    0.95515    1.000
    H1806    H        0.18040    0.34740    0.95190    1.000
    O208     O        0.18897    0.29078    0.95711    1.000
    H1807    H        0.43330    0.38110    0.01670    1.000
    H1808    H        0.41830    0.38430    0.98370    1.000
    C1554    C        0.41040    0.42240    0.01050    1.000
    C1555    C        0.42990    0.44440    0.02120    1.000
    H1809    H        0.45040    0.44050    0.02750    1.000
    C1556    C        0.41480    0.47600    0.02170    1.000
    H1810    H        0.42480    0.49420    0.02860    1.000
    C1557    C        0.38530    0.47540    0.01110    1.000
    H1811    H        0.37230    0.49280    0.00950    1.000
    S104     S        0.37477    0.43822    0.00103    1.000
    H1812    H        0.33910    0.29200    0.89740    1.000
    H1813    H        0.33010    0.32130    0.87780    1.000
    C1558    C        0.37330    0.30140    0.86530    1.000
    H1814    H        0.38480    0.31980    0.85840    1.000
    H1815    H        0.38790    0.28730    0.87550    1.000
    C1559    C        0.35770    0.28480    0.83660    1.000
    H1816    H        0.34300    0.29910    0.82660    1.000
    H1817    H        0.34600    0.26660    0.84370    1.000
    C1560    C        0.38260    0.27450    0.81270    1.000
    H1818    H        0.37260    0.26430    0.79520    1.000
    H1819    H        0.39700    0.26010    0.82250    1.000
    H1820    H        0.39390    0.29260    0.80530    1.000
    C1561    C        0.38171    0.63520    0.44991    1.000
    C1562    C        0.38794    0.63285    0.48421    1.000
    C1563    C        0.41473    0.61230    0.49428    1.000
    H1821    H        0.43220    0.61510    0.48030    1.000
    H1822    H        0.42120    0.61810    0.51510    1.000
    C1564    C        0.40440    0.57828    0.49380    1.000
    C1565    C        0.37590    0.56650    0.49930    1.000
    H1823    H        0.35850    0.57880    0.50430    1.000
    C1566    C        0.37500    0.53170    0.49670    1.000
    H1824    H        0.35710    0.51960    0.49980    1.000
    C1567    C        0.40280    0.51980    0.48930    1.000
    H1825    H        0.40670    0.49850    0.48650    1.000
    S105     S        0.43055    0.54877    0.48540    1.000
    C1568    C        0.36982    0.64993    0.50348    1.000
    H1826    H        0.35540    0.66320    0.49380    1.000
    C1569    C        0.36984    0.65031    0.53736    1.000
    C1570    C        0.37629    0.62788    0.55945    1.000
    H1827    H        0.38450    0.60810    0.55510    1.000
    C1571    C        0.35754    0.66799    0.58540    1.000
    C1572    C        0.34240    0.70376    0.54170    1.000
    C1573    C        0.30717    0.69896    0.54071    1.000
    C1574    C        0.29374    0.66913    0.54111    1.000
    H1828    H        0.30670    0.65150    0.54120    1.000
    C1575    C        0.26170    0.66539    0.54139    1.000
    H1829    H        0.25310    0.64530    0.54170    1.000
    C1576    C        0.24216    0.69128    0.54117    1.000
    C1577    C        0.25536    0.72101    0.53988    1.000
    H1830    H        0.24240    0.73860    0.53890    1.000
    C1578    C        0.28732    0.72471    0.54004    1.000
    H1831    H        0.29580    0.74480    0.53970    1.000
    C1579    C        0.20775    0.68735    0.54316    1.000
    C1580    C        0.34718    0.68888    0.61148    1.000
    H1832    H        0.32910    0.70070    0.60480    1.000
    H1833    H        0.34110    0.67620    0.62910    1.000
    C1581    C        0.37370    0.71200    0.62100    1.000
    H1834    H        0.39230    0.70040    0.62730    1.000
    H1835    H        0.37920    0.72530    0.60330    1.000
    C1582    C        0.36170    0.73240    0.64870    1.000
    H1836    H        0.34110    0.74070    0.64360    1.000
    H1837    H        0.37580    0.75010    0.65170    1.000
    C1583    C        0.35970    0.71360    0.67940    1.000
    H1838    H        0.35230    0.72690    0.69600    1.000
    H1839    H        0.38020    0.70570    0.68470    1.000
    H1840    H        0.34550    0.69630    0.67670    1.000
    N105     N        0.36888    0.63881    0.58910    1.000
    N106     N        0.35794    0.67586    0.55469    1.000
    O209     O        0.40084    0.62329    0.43060    1.000
    O210     O        0.35741    0.64882    0.43945    1.000
    O211     O        0.19883    0.65817    0.54485    1.000
    H1841    H        0.18040    0.65260    0.54810    1.000
    O212     O        0.18897    0.70922    0.54289    1.000
    H1842    H        0.43330    0.61890    0.48330    1.000
    H1843    H        0.41830    0.61570    0.51630    1.000
    C1584    C        0.41040    0.57760    0.48950    1.000
    C1585    C        0.42990    0.55560    0.47880    1.000
    H1844    H        0.45040    0.55950    0.47250    1.000
    C1586    C        0.41480    0.52400    0.47830    1.000
    H1845    H        0.42480    0.50580    0.47140    1.000
    C1587    C        0.38530    0.52460    0.48890    1.000
    H1846    H        0.37230    0.50720    0.49050    1.000
    S106     S        0.37477    0.56178    0.49897    1.000
    H1847    H        0.33910    0.70800    0.60260    1.000
    H1848    H        0.33010    0.67870    0.62220    1.000
    C1588    C        0.37330    0.69860    0.63470    1.000
    H1849    H        0.38480    0.68020    0.64160    1.000
    H1850    H        0.38790    0.71270    0.62450    1.000
    C1589    C        0.35770    0.71520    0.66340    1.000
    H1851    H        0.34300    0.70090    0.67340    1.000
    H1852    H        0.34600    0.73340    0.65630    1.000
    C1590    C        0.38260    0.72550    0.68730    1.000
    H1853    H        0.37260    0.73570    0.70480    1.000
    H1854    H        0.39700    0.73990    0.67750    1.000
    H1855    H        0.39390    0.70740    0.69470    1.000
    C1591    C        0.88171    0.13520    0.94991    1.000
    C1592    C        0.88794    0.13285    0.98421    1.000
    C1593    C        0.91473    0.11230    0.99428    1.000
    H1856    H        0.93220    0.11510    0.98030    1.000
    H1857    H        0.92120    0.11810    0.01510    1.000
    C1594    C        0.90440    0.07828    0.99380    1.000
    C1595    C        0.87590    0.06650    0.99930    1.000
    H1858    H        0.85850    0.07880    0.00430    1.000
    C1596    C        0.87500    0.03170    0.99670    1.000
    H1859    H        0.85710    0.01960    0.99980    1.000
    C1597    C        0.90280    0.01980    0.98930    1.000
    H1860    H        0.90670    0.99850    0.98650    1.000
    S107     S        0.93055    0.04877    0.98540    1.000
    C1598    C        0.86982    0.14993    0.00348    1.000
    H1861    H        0.85540    0.16320    0.99380    1.000
    C1599    C        0.86984    0.15031    0.03736    1.000
    C1600    C        0.87629    0.12788    0.05945    1.000
    H1862    H        0.88450    0.10810    0.05510    1.000
    C1601    C        0.85754    0.16799    0.08540    1.000
    C1602    C        0.84240    0.20376    0.04170    1.000
    C1603    C        0.80717    0.19896    0.04071    1.000
    C1604    C        0.79374    0.16913    0.04111    1.000
    H1863    H        0.80670    0.15150    0.04120    1.000
    C1605    C        0.76170    0.16539    0.04139    1.000
    H1864    H        0.75310    0.14530    0.04170    1.000
    C1606    C        0.74216    0.19128    0.04117    1.000
    C1607    C        0.75536    0.22101    0.03988    1.000
    H1865    H        0.74240    0.23860    0.03890    1.000
    C1608    C        0.78732    0.22471    0.04004    1.000
    H1866    H        0.79580    0.24480    0.03970    1.000
    C1609    C        0.70775    0.18735    0.04316    1.000
    C1610    C        0.84718    0.18888    0.11148    1.000
    H1867    H        0.82910    0.20070    0.10480    1.000
    H1868    H        0.84110    0.17620    0.12910    1.000
    C1611    C        0.87370    0.21200    0.12100    1.000
    H1869    H        0.89230    0.20040    0.12730    1.000
    H1870    H        0.87920    0.22530    0.10330    1.000
    C1612    C        0.86170    0.23240    0.14870    1.000
    H1871    H        0.84110    0.24070    0.14360    1.000
    H1872    H        0.87580    0.25010    0.15170    1.000
    C1613    C        0.85970    0.21360    0.17940    1.000
    H1873    H        0.85230    0.22690    0.19600    1.000
    H1874    H        0.88020    0.20570    0.18470    1.000
    H1875    H        0.84550    0.19630    0.17670    1.000
    N107     N        0.86888    0.13881    0.08910    1.000
    N108     N        0.85794    0.17586    0.05469    1.000
    O213     O        0.90084    0.12329    0.93060    1.000
    O214     O        0.85741    0.14882    0.93945    1.000
    O215     O        0.69883    0.15817    0.04485    1.000
    H1876    H        0.68040    0.15260    0.04810    1.000
    O216     O        0.68897    0.20922    0.04289    1.000
    H1877    H        0.93330    0.11890    0.98330    1.000
    H1878    H        0.91830    0.11570    0.01630    1.000
    C1614    C        0.91040    0.07760    0.98950    1.000
    C1615    C        0.92990    0.05560    0.97880    1.000
    H1879    H        0.95040    0.05950    0.97250    1.000
    C1616    C        0.91480    0.02400    0.97830    1.000
    H1880    H        0.92480    0.00580    0.97140    1.000
    C1617    C        0.88530    0.02460    0.98890    1.000
    H1881    H        0.87230    0.00720    0.99050    1.000
    S108     S        0.87477    0.06178    0.99897    1.000
    H1882    H        0.83910    0.20800    0.10260    1.000
    H1883    H        0.83010    0.17870    0.12220    1.000
    C1618    C        0.87330    0.19860    0.13470    1.000
    H1884    H        0.88480    0.18020    0.14160    1.000
    H1885    H        0.88790    0.21270    0.12450    1.000
    C1619    C        0.85770    0.21520    0.16340    1.000
    H1886    H        0.84300    0.20090    0.17340    1.000
    H1887    H        0.84600    0.23340    0.15630    1.000
    C1620    C        0.88260    0.22550    0.18730    1.000
    H1888    H        0.87260    0.23570    0.20480    1.000
    H1889    H        0.89700    0.23990    0.17750    1.000
    H1890    H        0.89390    0.20740    0.19470    1.000
    C1621    C        0.11829    0.36480    0.94991    1.000
    C1622    C        0.11206    0.36715    0.98421    1.000
    C1623    C        0.08527    0.38770    0.99428    1.000
    H1891    H        0.06780    0.38490    0.98030    1.000
    H1892    H        0.07880    0.38190    0.01510    1.000
    C1624    C        0.09560    0.42172    0.99380    1.000
    C1625    C        0.12410    0.43350    0.99930    1.000
    H1893    H        0.14150    0.42120    0.00430    1.000
    C1626    C        0.12500    0.46830    0.99670    1.000
    H1894    H        0.14290    0.48040    0.99980    1.000
    C1627    C        0.09720    0.48020    0.98930    1.000
    H1895    H        0.09330    0.50150    0.98650    1.000
    S109     S        0.06945    0.45123    0.98540    1.000
    C1628    C        0.13018    0.35007    0.00348    1.000
    H1896    H        0.14460    0.33680    0.99380    1.000
    C1629    C        0.13016    0.34969    0.03736    1.000
    C1630    C        0.12371    0.37212    0.05945    1.000
    H1897    H        0.11550    0.39190    0.05510    1.000
    C1631    C        0.14246    0.33201    0.08540    1.000
    C1632    C        0.15760    0.29624    0.04170    1.000
    C1633    C        0.19283    0.30104    0.04071    1.000
    C1634    C        0.20626    0.33087    0.04111    1.000
    H1898    H        0.19330    0.34850    0.04120    1.000
    C1635    C        0.23830    0.33461    0.04139    1.000
    H1899    H        0.24690    0.35470    0.04170    1.000
    C1636    C        0.25784    0.30872    0.04117    1.000
    C1637    C        0.24464    0.27899    0.03988    1.000
    H1900    H        0.25760    0.26140    0.03890    1.000
    C1638    C        0.21268    0.27529    0.04004    1.000
    H1901    H        0.20420    0.25520    0.03970    1.000
    C1639    C        0.29225    0.31265    0.04316    1.000
    C1640    C        0.15282    0.31112    0.11148    1.000
    H1902    H        0.17090    0.29930    0.10480    1.000
    H1903    H        0.15890    0.32380    0.12910    1.000
    C1641    C        0.12630    0.28800    0.12100    1.000
    H1904    H        0.10770    0.29960    0.12730    1.000
    H1905    H        0.12080    0.27470    0.10330    1.000
    C1642    C        0.13830    0.26760    0.14870    1.000
    H1906    H        0.15890    0.25930    0.14360    1.000
    H1907    H        0.12420    0.24990    0.15170    1.000
    C1643    C        0.14030    0.28640    0.17940    1.000
    H1908    H        0.14770    0.27310    0.19600    1.000
    H1909    H        0.11980    0.29430    0.18470    1.000
    H1910    H        0.15450    0.30370    0.17670    1.000
    N109     N        0.13112    0.36119    0.08910    1.000
    N110     N        0.14206    0.32414    0.05469    1.000
    O217     O        0.09916    0.37671    0.93060    1.000
    O218     O        0.14259    0.35118    0.93945    1.000
    O219     O        0.30117    0.34183    0.04485    1.000
    H1911    H        0.31960    0.34740    0.04810    1.000
    O220     O        0.31103    0.29078    0.04289    1.000
    H1912    H        0.06670    0.38110    0.98330    1.000
    H1913    H        0.08170    0.38430    0.01630    1.000
    C1644    C        0.08960    0.42240    0.98950    1.000
    C1645    C        0.07010    0.44440    0.97880    1.000
    H1914    H        0.04960    0.44050    0.97250    1.000
    C1646    C        0.08520    0.47600    0.97830    1.000
    H1915    H        0.07520    0.49420    0.97140    1.000
    C1647    C        0.11470    0.47540    0.98890    1.000
    H1916    H        0.12770    0.49280    0.99050    1.000
    S110     S        0.12523    0.43822    0.99897    1.000
    H1917    H        0.16090    0.29200    0.10260    1.000
    H1918    H        0.16990    0.32130    0.12220    1.000
    C1648    C        0.12670    0.30140    0.13470    1.000
    H1919    H        0.11520    0.31980    0.14160    1.000
    H1920    H        0.11210    0.28730    0.12450    1.000
    C1649    C        0.14230    0.28480    0.16340    1.000
    H1921    H        0.15700    0.29910    0.17340    1.000
    H1922    H        0.15400    0.26660    0.15630    1.000
    C1650    C        0.11740    0.27450    0.18730    1.000
    H1923    H        0.12740    0.26430    0.20480    1.000
    H1924    H        0.10300    0.26010    0.17750    1.000
    H1925    H        0.10610    0.29260    0.19470    1.000
    C1651    C        0.61829    0.86480    0.44991    1.000
    C1652    C        0.61206    0.86715    0.48421    1.000
    C1653    C        0.58527    0.88770    0.49428    1.000
    H1926    H        0.56780    0.88490    0.48030    1.000
    H1927    H        0.57880    0.88190    0.51510    1.000
    C1654    C        0.59560    0.92172    0.49380    1.000
    C1655    C        0.62410    0.93350    0.49930    1.000
    H1928    H        0.64150    0.92120    0.50430    1.000
    C1656    C        0.62500    0.96830    0.49670    1.000
    H1929    H        0.64290    0.98040    0.49980    1.000
    C1657    C        0.59720    0.98020    0.48930    1.000
    H1930    H        0.59330    0.00150    0.48650    1.000
    S111     S        0.56945    0.95123    0.48540    1.000
    C1658    C        0.63018    0.85007    0.50348    1.000
    H1931    H        0.64460    0.83680    0.49380    1.000
    C1659    C        0.63016    0.84969    0.53736    1.000
    C1660    C        0.62371    0.87212    0.55945    1.000
    H1932    H        0.61550    0.89190    0.55510    1.000
    C1661    C        0.64246    0.83201    0.58540    1.000
    C1662    C        0.65760    0.79624    0.54170    1.000
    C1663    C        0.69283    0.80104    0.54071    1.000
    C1664    C        0.70626    0.83087    0.54111    1.000
    H1933    H        0.69330    0.84850    0.54120    1.000
    C1665    C        0.73830    0.83461    0.54139    1.000
    H1934    H        0.74690    0.85470    0.54170    1.000
    C1666    C        0.75784    0.80872    0.54117    1.000
    C1667    C        0.74464    0.77899    0.53988    1.000
    H1935    H        0.75760    0.76140    0.53890    1.000
    C1668    C        0.71268    0.77529    0.54004    1.000
    H1936    H        0.70420    0.75520    0.53970    1.000
    C1669    C        0.79225    0.81265    0.54316    1.000
    C1670    C        0.65282    0.81112    0.61148    1.000
    H1937    H        0.67090    0.79930    0.60480    1.000
    H1938    H        0.65890    0.82380    0.62910    1.000
    C1671    C        0.62630    0.78800    0.62100    1.000
    H1939    H        0.60770    0.79960    0.62730    1.000
    H1940    H        0.62080    0.77470    0.60330    1.000
    C1672    C        0.63830    0.76760    0.64870    1.000
    H1941    H        0.65890    0.75930    0.64360    1.000
    H1942    H        0.62420    0.74990    0.65170    1.000
    C1673    C        0.64030    0.78640    0.67940    1.000
    H1943    H        0.64770    0.77310    0.69600    1.000
    H1944    H        0.61980    0.79430    0.68470    1.000
    H1945    H        0.65450    0.80370    0.67670    1.000
    N111     N        0.63112    0.86119    0.58910    1.000
    N112     N        0.64206    0.82414    0.55469    1.000
    O221     O        0.59916    0.87671    0.43060    1.000
    O222     O        0.64259    0.85118    0.43945    1.000
    O223     O        0.80117    0.84183    0.54485    1.000
    H1946    H        0.81960    0.84740    0.54810    1.000
    O224     O        0.81103    0.79078    0.54289    1.000
    H1947    H        0.56670    0.88110    0.48330    1.000
    H1948    H        0.58170    0.88430    0.51630    1.000
    C1674    C        0.58960    0.92240    0.48950    1.000
    C1675    C        0.57010    0.94440    0.47880    1.000
    H1949    H        0.54960    0.94050    0.47250    1.000
    C1676    C        0.58520    0.97600    0.47830    1.000
    H1950    H        0.57520    0.99420    0.47140    1.000
    C1677    C        0.61470    0.97540    0.48890    1.000
    H1951    H        0.62770    0.99280    0.49050    1.000
    S112     S        0.62523    0.93822    0.49897    1.000
    H1952    H        0.66090    0.79200    0.60260    1.000
    H1953    H        0.66990    0.82130    0.62220    1.000
    C1678    C        0.62670    0.80140    0.63470    1.000
    H1954    H        0.61520    0.81980    0.64160    1.000
    H1955    H        0.61210    0.78730    0.62450    1.000
    C1679    C        0.64230    0.78480    0.66340    1.000
    H1956    H        0.65700    0.79910    0.67340    1.000
    H1957    H        0.65400    0.76660    0.65630    1.000
    C1680    C        0.61740    0.77450    0.68730    1.000
    H1958    H        0.62740    0.76430    0.70480    1.000
    H1959    H        0.60300    0.76010    0.67750    1.000
    H1960    H        0.60610    0.79260    0.69470    1.000
    C1681    C        0.05009    0.61829    0.13520    1.000
    C1682    C        0.01579    0.61206    0.13285    1.000
    C1683    C        0.00572    0.58527    0.11230    1.000
    H1961    H        0.01970    0.56780    0.11510    1.000
    H1962    H        0.98490    0.57880    0.11810    1.000
    C1684    C        0.00620    0.59560    0.07828    1.000
    C1685    C        0.00070    0.62410    0.06650    1.000
    H1963    H        0.99570    0.64150    0.07880    1.000
    C1686    C        0.00330    0.62500    0.03170    1.000
    H1964    H        0.00020    0.64290    0.01960    1.000
    C1687    C        0.01070    0.59720    0.01980    1.000
    H1965    H        0.01350    0.59330    0.99850    1.000
    S113     S        0.01460    0.56945    0.04877    1.000
    C1688    C        0.99652    0.63018    0.14993    1.000
    H1966    H        0.00620    0.64460    0.16320    1.000
    C1689    C        0.96264    0.63016    0.15031    1.000
    C1690    C        0.94055    0.62371    0.12788    1.000
    H1967    H        0.94490    0.61550    0.10810    1.000
    C1691    C        0.91460    0.64246    0.16799    1.000
    C1692    C        0.95830    0.65760    0.20376    1.000
    C1693    C        0.95929    0.69283    0.19896    1.000
    C1694    C        0.95889    0.70626    0.16913    1.000
    H1968    H        0.95880    0.69330    0.15150    1.000
    C1695    C        0.95861    0.73830    0.16539    1.000
    H1969    H        0.95830    0.74690    0.14530    1.000
    C1696    C        0.95883    0.75784    0.19128    1.000
    C1697    C        0.96012    0.74464    0.22101    1.000
    H1970    H        0.96110    0.75760    0.23860    1.000
    C1698    C        0.95996    0.71268    0.22471    1.000
    H1971    H        0.96030    0.70420    0.24480    1.000
    C1699    C        0.95684    0.79225    0.18735    1.000
    C1700    C        0.88852    0.65282    0.18888    1.000
    H1972    H        0.89520    0.67090    0.20070    1.000
    H1973    H        0.87090    0.65890    0.17620    1.000
    C1701    C        0.87900    0.62630    0.21200    1.000
    H1974    H        0.87270    0.60770    0.20040    1.000
    H1975    H        0.89670    0.62080    0.22530    1.000
    C1702    C        0.85130    0.63830    0.23240    1.000
    H1976    H        0.85640    0.65890    0.24070    1.000
    H1977    H        0.84830    0.62420    0.25010    1.000
    C1703    C        0.82060    0.64030    0.21360    1.000
    H1978    H        0.80400    0.64770    0.22690    1.000
    H1979    H        0.81530    0.61980    0.20570    1.000
    H1980    H        0.82330    0.65450    0.19630    1.000
    N113     N        0.91090    0.63112    0.13881    1.000
    N114     N        0.94531    0.64206    0.17586    1.000
    O225     O        0.06940    0.59916    0.12329    1.000
    O226     O        0.06055    0.64259    0.14882    1.000
    O227     O        0.95515    0.80117    0.15817    1.000
    H1981    H        0.95190    0.81960    0.15260    1.000
    O228     O        0.95711    0.81103    0.20922    1.000
    H1982    H        0.01670    0.56670    0.11890    1.000
    H1983    H        0.98370    0.58170    0.11570    1.000
    C1704    C        0.01050    0.58960    0.07760    1.000
    C1705    C        0.02120    0.57010    0.05560    1.000
    H1984    H        0.02750    0.54960    0.05950    1.000
    C1706    C        0.02170    0.58520    0.02400    1.000
    H1985    H        0.02860    0.57520    0.00580    1.000
    C1707    C        0.01110    0.61470    0.02460    1.000
    H1986    H        0.00950    0.62770    0.00720    1.000
    S114     S        0.00103    0.62523    0.06178    1.000
    H1987    H        0.89740    0.66090    0.20800    1.000
    H1988    H        0.87780    0.66990    0.17870    1.000
    C1708    C        0.86530    0.62670    0.19860    1.000
    H1989    H        0.85840    0.61520    0.18020    1.000
    H1990    H        0.87550    0.61210    0.21270    1.000
    C1709    C        0.83660    0.64230    0.21520    1.000
    H1991    H        0.82660    0.65700    0.20090    1.000
    H1992    H        0.84370    0.65400    0.23340    1.000
    C1710    C        0.81270    0.61740    0.22550    1.000
    H1993    H        0.79520    0.62740    0.23570    1.000
    H1994    H        0.82250    0.60300    0.23990    1.000
    H1995    H        0.80530    0.60610    0.20740    1.000
    C1711    C        0.55009    0.11829    0.63520    1.000
    C1712    C        0.51579    0.11206    0.63285    1.000
    C1713    C        0.50572    0.08527    0.61230    1.000
    H1996    H        0.51970    0.06780    0.61510    1.000
    H1997    H        0.48490    0.07880    0.61810    1.000
    C1714    C        0.50620    0.09560    0.57828    1.000
    C1715    C        0.50070    0.12410    0.56650    1.000
    H1998    H        0.49570    0.14150    0.57880    1.000
    C1716    C        0.50330    0.12500    0.53170    1.000
    H1999    H        0.50020    0.14290    0.51960    1.000
    C1717    C        0.51070    0.09720    0.51980    1.000
    H2000    H        0.51350    0.09330    0.49850    1.000
    S115     S        0.51460    0.06945    0.54877    1.000
    C1718    C        0.49652    0.13018    0.64993    1.000
    H2001    H        0.50620    0.14460    0.66320    1.000
    C1719    C        0.46264    0.13016    0.65031    1.000
    C1720    C        0.44055    0.12371    0.62788    1.000
    H2002    H        0.44490    0.11550    0.60810    1.000
    C1721    C        0.41460    0.14246    0.66799    1.000
    C1722    C        0.45830    0.15760    0.70376    1.000
    C1723    C        0.45929    0.19283    0.69896    1.000
    C1724    C        0.45889    0.20626    0.66913    1.000
    H2003    H        0.45880    0.19330    0.65150    1.000
    C1725    C        0.45861    0.23830    0.66539    1.000
    H2004    H        0.45830    0.24690    0.64530    1.000
    C1726    C        0.45883    0.25784    0.69128    1.000
    C1727    C        0.46012    0.24464    0.72101    1.000
    H2005    H        0.46110    0.25760    0.73860    1.000
    C1728    C        0.45996    0.21268    0.72471    1.000
    H2006    H        0.46030    0.20420    0.74480    1.000
    C1729    C        0.45684    0.29225    0.68735    1.000
    C1730    C        0.38852    0.15282    0.68888    1.000
    H2007    H        0.39520    0.17090    0.70070    1.000
    H2008    H        0.37090    0.15890    0.67620    1.000
    C1731    C        0.37900    0.12630    0.71200    1.000
    H2009    H        0.37270    0.10770    0.70040    1.000
    H2010    H        0.39670    0.12080    0.72530    1.000
    C1732    C        0.35130    0.13830    0.73240    1.000
    H2011    H        0.35640    0.15890    0.74070    1.000
    H2012    H        0.34830    0.12420    0.75010    1.000
    C1733    C        0.32060    0.14030    0.71360    1.000
    H2013    H        0.30400    0.14770    0.72690    1.000
    H2014    H        0.31530    0.11980    0.70570    1.000
    H2015    H        0.32330    0.15450    0.69630    1.000
    N115     N        0.41090    0.13112    0.63881    1.000
    N116     N        0.44531    0.14206    0.67586    1.000
    O229     O        0.56940    0.09916    0.62329    1.000
    O230     O        0.56055    0.14259    0.64882    1.000
    O231     O        0.45515    0.30117    0.65817    1.000
    H2016    H        0.45190    0.31960    0.65260    1.000
    O232     O        0.45711    0.31103    0.70922    1.000
    H2017    H        0.51670    0.06670    0.61890    1.000
    H2018    H        0.48370    0.08170    0.61570    1.000
    C1734    C        0.51050    0.08960    0.57760    1.000
    C1735    C        0.52120    0.07010    0.55560    1.000
    H2019    H        0.52750    0.04960    0.55950    1.000
    C1736    C        0.52170    0.08520    0.52400    1.000
    H2020    H        0.52860    0.07520    0.50580    1.000
    C1737    C        0.51110    0.11470    0.52460    1.000
    H2021    H        0.50950    0.12770    0.50720    1.000
    S116     S        0.50103    0.12523    0.56178    1.000
    H2022    H        0.39740    0.16090    0.70800    1.000
    H2023    H        0.37780    0.16990    0.67870    1.000
    C1738    C        0.36530    0.12670    0.69860    1.000
    H2024    H        0.35840    0.11520    0.68020    1.000
    H2025    H        0.37550    0.11210    0.71270    1.000
    C1739    C        0.33660    0.14230    0.71520    1.000
    H2026    H        0.32660    0.15700    0.70090    1.000
    H2027    H        0.34370    0.15400    0.73340    1.000
    C1740    C        0.31270    0.11740    0.72550    1.000
    H2028    H        0.29520    0.12740    0.73570    1.000
    H2029    H        0.32250    0.10300    0.73990    1.000
    H2030    H        0.30530    0.10610    0.70740    1.000
    C1741    C        0.55009    0.88171    0.86480    1.000
    C1742    C        0.51579    0.88794    0.86715    1.000
    C1743    C        0.50572    0.91473    0.88770    1.000
    H2031    H        0.51970    0.93220    0.88490    1.000
    H2032    H        0.48490    0.92120    0.88190    1.000
    C1744    C        0.50620    0.90440    0.92172    1.000
    C1745    C        0.50070    0.87590    0.93350    1.000
    H2033    H        0.49570    0.85850    0.92120    1.000
    C1746    C        0.50330    0.87500    0.96830    1.000
    H2034    H        0.50020    0.85710    0.98040    1.000
    C1747    C        0.51070    0.90280    0.98020    1.000
    H2035    H        0.51350    0.90670    0.00150    1.000
    S117     S        0.51460    0.93055    0.95123    1.000
    C1748    C        0.49652    0.86982    0.85007    1.000
    H2036    H        0.50620    0.85540    0.83680    1.000
    C1749    C        0.46264    0.86984    0.84969    1.000
    C1750    C        0.44055    0.87629    0.87212    1.000
    H2037    H        0.44490    0.88450    0.89190    1.000
    C1751    C        0.41460    0.85754    0.83201    1.000
    C1752    C        0.45830    0.84240    0.79624    1.000
    C1753    C        0.45929    0.80717    0.80104    1.000
    C1754    C        0.45889    0.79374    0.83087    1.000
    H2038    H        0.45880    0.80670    0.84850    1.000
    C1755    C        0.45861    0.76170    0.83461    1.000
    H2039    H        0.45830    0.75310    0.85470    1.000
    C1756    C        0.45883    0.74216    0.80872    1.000
    C1757    C        0.46012    0.75536    0.77899    1.000
    H2040    H        0.46110    0.74240    0.76140    1.000
    C1758    C        0.45996    0.78732    0.77529    1.000
    H2041    H        0.46030    0.79580    0.75520    1.000
    C1759    C        0.45684    0.70775    0.81265    1.000
    C1760    C        0.38852    0.84718    0.81112    1.000
    H2042    H        0.39520    0.82910    0.79930    1.000
    H2043    H        0.37090    0.84110    0.82380    1.000
    C1761    C        0.37900    0.87370    0.78800    1.000
    H2044    H        0.37270    0.89230    0.79960    1.000
    H2045    H        0.39670    0.87920    0.77470    1.000
    C1762    C        0.35130    0.86170    0.76760    1.000
    H2046    H        0.35640    0.84110    0.75930    1.000
    H2047    H        0.34830    0.87580    0.74990    1.000
    C1763    C        0.32060    0.85970    0.78640    1.000
    H2048    H        0.30400    0.85230    0.77310    1.000
    H2049    H        0.31530    0.88020    0.79430    1.000
    H2050    H        0.32330    0.84550    0.80370    1.000
    N117     N        0.41090    0.86888    0.86119    1.000
    N118     N        0.44531    0.85794    0.82414    1.000
    O233     O        0.56940    0.90084    0.87671    1.000
    O234     O        0.56055    0.85741    0.85118    1.000
    O235     O        0.45515    0.69883    0.84183    1.000
    H2051    H        0.45190    0.68040    0.84740    1.000
    O236     O        0.45711    0.68897    0.79078    1.000
    H2052    H        0.51670    0.93330    0.88110    1.000
    H2053    H        0.48370    0.91830    0.88430    1.000
    C1764    C        0.51050    0.91040    0.92240    1.000
    C1765    C        0.52120    0.92990    0.94440    1.000
    H2054    H        0.52750    0.95040    0.94050    1.000
    C1766    C        0.52170    0.91480    0.97600    1.000
    H2055    H        0.52860    0.92480    0.99420    1.000
    C1767    C        0.51110    0.88530    0.97540    1.000
    H2056    H        0.50950    0.87230    0.99280    1.000
    S118     S        0.50103    0.87477    0.93822    1.000
    H2057    H        0.39740    0.83910    0.79200    1.000
    H2058    H        0.37780    0.83010    0.82130    1.000
    C1768    C        0.36530    0.87330    0.80140    1.000
    H2059    H        0.35840    0.88480    0.81980    1.000
    H2060    H        0.37550    0.88790    0.78730    1.000
    C1769    C        0.33660    0.85770    0.78480    1.000
    H2061    H        0.32660    0.84300    0.79910    1.000
    H2062    H        0.34370    0.84600    0.76660    1.000
    C1770    C        0.31270    0.88260    0.77450    1.000
    H2063    H        0.29520    0.87260    0.76430    1.000
    H2064    H        0.32250    0.89700    0.76010    1.000
    H2065    H        0.30530    0.89390    0.79260    1.000
    C1771    C        0.05009    0.38171    0.36480    1.000
    C1772    C        0.01579    0.38794    0.36715    1.000
    C1773    C        0.00572    0.41473    0.38770    1.000
    H2066    H        0.01970    0.43220    0.38490    1.000
    H2067    H        0.98490    0.42120    0.38190    1.000
    C1774    C        0.00620    0.40440    0.42172    1.000
    C1775    C        0.00070    0.37590    0.43350    1.000
    H2068    H        0.99570    0.35850    0.42120    1.000
    C1776    C        0.00330    0.37500    0.46830    1.000
    H2069    H        0.00020    0.35710    0.48040    1.000
    C1777    C        0.01070    0.40280    0.48020    1.000
    H2070    H        0.01350    0.40670    0.50150    1.000
    S119     S        0.01460    0.43055    0.45123    1.000
    C1778    C        0.99652    0.36982    0.35007    1.000
    H2071    H        0.00620    0.35540    0.33680    1.000
    C1779    C        0.96264    0.36984    0.34969    1.000
    C1780    C        0.94055    0.37629    0.37212    1.000
    H2072    H        0.94490    0.38450    0.39190    1.000
    C1781    C        0.91460    0.35754    0.33201    1.000
    C1782    C        0.95830    0.34240    0.29624    1.000
    C1783    C        0.95929    0.30717    0.30104    1.000
    C1784    C        0.95889    0.29374    0.33087    1.000
    H2073    H        0.95880    0.30670    0.34850    1.000
    C1785    C        0.95861    0.26170    0.33461    1.000
    H2074    H        0.95830    0.25310    0.35470    1.000
    C1786    C        0.95883    0.24216    0.30872    1.000
    C1787    C        0.96012    0.25536    0.27899    1.000
    H2075    H        0.96110    0.24240    0.26140    1.000
    C1788    C        0.95996    0.28732    0.27529    1.000
    H2076    H        0.96030    0.29580    0.25520    1.000
    C1789    C        0.95684    0.20775    0.31265    1.000
    C1790    C        0.88852    0.34718    0.31112    1.000
    H2077    H        0.89520    0.32910    0.29930    1.000
    H2078    H        0.87090    0.34110    0.32380    1.000
    C1791    C        0.87900    0.37370    0.28800    1.000
    H2079    H        0.87270    0.39230    0.29960    1.000
    H2080    H        0.89670    0.37920    0.27470    1.000
    C1792    C        0.85130    0.36170    0.26760    1.000
    H2081    H        0.85640    0.34110    0.25930    1.000
    H2082    H        0.84830    0.37580    0.24990    1.000
    C1793    C        0.82060    0.35970    0.28640    1.000
    H2083    H        0.80400    0.35230    0.27310    1.000
    H2084    H        0.81530    0.38020    0.29430    1.000
    H2085    H        0.82330    0.34550    0.30370    1.000
    N119     N        0.91090    0.36888    0.36119    1.000
    N120     N        0.94531    0.35794    0.32414    1.000
    O237     O        0.06940    0.40084    0.37671    1.000
    O238     O        0.06055    0.35741    0.35118    1.000
    O239     O        0.95515    0.19883    0.34183    1.000
    H2086    H        0.95190    0.18040    0.34740    1.000
    O240     O        0.95711    0.18897    0.29078    1.000
    H2087    H        0.01670    0.43330    0.38110    1.000
    H2088    H        0.98370    0.41830    0.38430    1.000
    C1794    C        0.01050    0.41040    0.42240    1.000
    C1795    C        0.02120    0.42990    0.44440    1.000
    H2089    H        0.02750    0.45040    0.44050    1.000
    C1796    C        0.02170    0.41480    0.47600    1.000
    H2090    H        0.02860    0.42480    0.49420    1.000
    C1797    C        0.01110    0.38530    0.47540    1.000
    H2091    H        0.00950    0.37230    0.49280    1.000
    S120     S        0.00103    0.37477    0.43822    1.000
    H2092    H        0.89740    0.33910    0.29200    1.000
    H2093    H        0.87780    0.33010    0.32130    1.000
    C1798    C        0.86530    0.37330    0.30140    1.000
    H2094    H        0.85840    0.38480    0.31980    1.000
    H2095    H        0.87550    0.38790    0.28730    1.000
    C1799    C        0.83660    0.35770    0.28480    1.000
    H2096    H        0.82660    0.34300    0.29910    1.000
    H2097    H        0.84370    0.34600    0.26660    1.000
    C1800    C        0.81270    0.38260    0.27450    1.000
    H2098    H        0.79520    0.37260    0.26430    1.000
    H2099    H        0.82250    0.39700    0.26010    1.000
    H2100    H        0.80530    0.39390    0.29260    1.000
    C1801    C        0.44991    0.38171    0.63520    1.000
    C1802    C        0.48421    0.38794    0.63285    1.000
    C1803    C        0.49428    0.41473    0.61230    1.000
    H2101    H        0.48030    0.43220    0.61510    1.000
    H2102    H        0.51510    0.42120    0.61810    1.000
    C1804    C        0.49380    0.40440    0.57828    1.000
    C1805    C        0.49930    0.37590    0.56650    1.000
    H2103    H        0.50430    0.35850    0.57880    1.000
    C1806    C        0.49670    0.37500    0.53170    1.000
    H2104    H        0.49980    0.35710    0.51960    1.000
    C1807    C        0.48930    0.40280    0.51980    1.000
    H2105    H        0.48650    0.40670    0.49850    1.000
    S121     S        0.48540    0.43055    0.54877    1.000
    C1808    C        0.50348    0.36982    0.64993    1.000
    H2106    H        0.49380    0.35540    0.66320    1.000
    C1809    C        0.53736    0.36984    0.65031    1.000
    C1810    C        0.55945    0.37629    0.62788    1.000
    H2107    H        0.55510    0.38450    0.60810    1.000
    C1811    C        0.58540    0.35754    0.66799    1.000
    C1812    C        0.54170    0.34240    0.70376    1.000
    C1813    C        0.54071    0.30717    0.69896    1.000
    C1814    C        0.54111    0.29374    0.66913    1.000
    H2108    H        0.54120    0.30670    0.65150    1.000
    C1815    C        0.54139    0.26170    0.66539    1.000
    H2109    H        0.54170    0.25310    0.64530    1.000
    C1816    C        0.54117    0.24216    0.69128    1.000
    C1817    C        0.53988    0.25536    0.72101    1.000
    H2110    H        0.53890    0.24240    0.73860    1.000
    C1818    C        0.54004    0.28732    0.72471    1.000
    H2111    H        0.53970    0.29580    0.74480    1.000
    C1819    C        0.54316    0.20775    0.68735    1.000
    C1820    C        0.61148    0.34718    0.68888    1.000
    H2112    H        0.60480    0.32910    0.70070    1.000
    H2113    H        0.62910    0.34110    0.67620    1.000
    C1821    C        0.62100    0.37370    0.71200    1.000
    H2114    H        0.62730    0.39230    0.70040    1.000
    H2115    H        0.60330    0.37920    0.72530    1.000
    C1822    C        0.64870    0.36170    0.73240    1.000
    H2116    H        0.64360    0.34110    0.74070    1.000
    H2117    H        0.65170    0.37580    0.75010    1.000
    C1823    C        0.67940    0.35970    0.71360    1.000
    H2118    H        0.69600    0.35230    0.72690    1.000
    H2119    H        0.68470    0.38020    0.70570    1.000
    H2120    H        0.67670    0.34550    0.69630    1.000
    N121     N        0.58910    0.36888    0.63881    1.000
    N122     N        0.55469    0.35794    0.67586    1.000
    O241     O        0.43060    0.40084    0.62329    1.000
    O242     O        0.43945    0.35741    0.64882    1.000
    O243     O        0.54485    0.19883    0.65817    1.000
    H2121    H        0.54810    0.18040    0.65260    1.000
    O244     O        0.54289    0.18897    0.70922    1.000
    H2122    H        0.48330    0.43330    0.61890    1.000
    H2123    H        0.51630    0.41830    0.61570    1.000
    C1824    C        0.48950    0.41040    0.57760    1.000
    C1825    C        0.47880    0.42990    0.55560    1.000
    H2124    H        0.47250    0.45040    0.55950    1.000
    C1826    C        0.47830    0.41480    0.52400    1.000
    H2125    H        0.47140    0.42480    0.50580    1.000
    C1827    C        0.48890    0.38530    0.52460    1.000
    H2126    H        0.49050    0.37230    0.50720    1.000
    S122     S        0.49897    0.37477    0.56178    1.000
    H2127    H        0.60260    0.33910    0.70800    1.000
    H2128    H        0.62220    0.33010    0.67870    1.000
    C1828    C        0.63470    0.37330    0.69860    1.000
    H2129    H        0.64160    0.38480    0.68020    1.000
    H2130    H        0.62450    0.38790    0.71270    1.000
    C1829    C        0.66340    0.35770    0.71520    1.000
    H2131    H        0.67340    0.34300    0.70090    1.000
    H2132    H        0.65630    0.34600    0.73340    1.000
    C1830    C        0.68730    0.38260    0.72550    1.000
    H2133    H        0.70480    0.37260    0.73570    1.000
    H2134    H        0.67750    0.39700    0.73990    1.000
    H2135    H        0.69470    0.39390    0.70740    1.000
    C1831    C        0.94991    0.88171    0.13520    1.000
    C1832    C        0.98421    0.88794    0.13285    1.000
    C1833    C        0.99428    0.91473    0.11230    1.000
    H2136    H        0.98030    0.93220    0.11510    1.000
    H2137    H        0.01510    0.92120    0.11810    1.000
    C1834    C        0.99380    0.90440    0.07828    1.000
    C1835    C        0.99930    0.87590    0.06650    1.000
    H2138    H        0.00430    0.85850    0.07880    1.000
    C1836    C        0.99670    0.87500    0.03170    1.000
    H2139    H        0.99980    0.85710    0.01960    1.000
    C1837    C        0.98930    0.90280    0.01980    1.000
    H2140    H        0.98650    0.90670    0.99850    1.000
    S123     S        0.98540    0.93055    0.04877    1.000
    C1838    C        0.00348    0.86982    0.14993    1.000
    H2141    H        0.99380    0.85540    0.16320    1.000
    C1839    C        0.03736    0.86984    0.15031    1.000
    C1840    C        0.05945    0.87629    0.12788    1.000
    H2142    H        0.05510    0.88450    0.10810    1.000
    C1841    C        0.08540    0.85754    0.16799    1.000
    C1842    C        0.04170    0.84240    0.20376    1.000
    C1843    C        0.04071    0.80717    0.19896    1.000
    C1844    C        0.04111    0.79374    0.16913    1.000
    H2143    H        0.04120    0.80670    0.15150    1.000
    C1845    C        0.04139    0.76170    0.16539    1.000
    H2144    H        0.04170    0.75310    0.14530    1.000
    C1846    C        0.04117    0.74216    0.19128    1.000
    C1847    C        0.03988    0.75536    0.22101    1.000
    H2145    H        0.03890    0.74240    0.23860    1.000
    C1848    C        0.04004    0.78732    0.22471    1.000
    H2146    H        0.03970    0.79580    0.24480    1.000
    C1849    C        0.04316    0.70775    0.18735    1.000
    C1850    C        0.11148    0.84718    0.18888    1.000
    H2147    H        0.10480    0.82910    0.20070    1.000
    H2148    H        0.12910    0.84110    0.17620    1.000
    C1851    C        0.12100    0.87370    0.21200    1.000
    H2149    H        0.12730    0.89230    0.20040    1.000
    H2150    H        0.10330    0.87920    0.22530    1.000
    C1852    C        0.14870    0.86170    0.23240    1.000
    H2151    H        0.14360    0.84110    0.24070    1.000
    H2152    H        0.15170    0.87580    0.25010    1.000
    C1853    C        0.17940    0.85970    0.21360    1.000
    H2153    H        0.19600    0.85230    0.22690    1.000
    H2154    H        0.18470    0.88020    0.20570    1.000
    H2155    H        0.17670    0.84550    0.19630    1.000
    N123     N        0.08910    0.86888    0.13881    1.000
    N124     N        0.05469    0.85794    0.17586    1.000
    O245     O        0.93060    0.90084    0.12329    1.000
    O246     O        0.93945    0.85741    0.14882    1.000
    O247     O        0.04485    0.69883    0.15817    1.000
    H2156    H        0.04810    0.68040    0.15260    1.000
    O248     O        0.04289    0.68897    0.20922    1.000
    H2157    H        0.98330    0.93330    0.11890    1.000
    H2158    H        0.01630    0.91830    0.11570    1.000
    C1854    C        0.98950    0.91040    0.07760    1.000
    C1855    C        0.97880    0.92990    0.05560    1.000
    H2159    H        0.97250    0.95040    0.05950    1.000
    C1856    C        0.97830    0.91480    0.02400    1.000
    H2160    H        0.97140    0.92480    0.00580    1.000
    C1857    C        0.98890    0.88530    0.02460    1.000
    H2161    H        0.99050    0.87230    0.00720    1.000
    S124     S        0.99897    0.87477    0.06178    1.000
    H2162    H        0.10260    0.83910    0.20800    1.000
    H2163    H        0.12220    0.83010    0.17870    1.000
    C1858    C        0.13470    0.87330    0.19860    1.000
    H2164    H        0.14160    0.88480    0.18020    1.000
    H2165    H        0.12450    0.88790    0.21270    1.000
    C1859    C        0.16340    0.85770    0.21520    1.000
    H2166    H        0.17340    0.84300    0.20090    1.000
    H2167    H        0.15630    0.84600    0.23340    1.000
    C1860    C        0.18730    0.88260    0.22550    1.000
    H2168    H        0.20480    0.87260    0.23570    1.000
    H2169    H        0.17750    0.89700    0.23990    1.000
    H2170    H        0.19470    0.89390    0.20740    1.000
    C1861    C        0.94991    0.11829    0.36480    1.000
    C1862    C        0.98421    0.11206    0.36715    1.000
    C1863    C        0.99428    0.08527    0.38770    1.000
    H2171    H        0.98030    0.06780    0.38490    1.000
    H2172    H        0.01510    0.07880    0.38190    1.000
    C1864    C        0.99380    0.09560    0.42172    1.000
    C1865    C        0.99930    0.12410    0.43350    1.000
    H2173    H        0.00430    0.14150    0.42120    1.000
    C1866    C        0.99670    0.12500    0.46830    1.000
    H2174    H        0.99980    0.14290    0.48040    1.000
    C1867    C        0.98930    0.09720    0.48020    1.000
    H2175    H        0.98650    0.09330    0.50150    1.000
    S125     S        0.98540    0.06945    0.45123    1.000
    C1868    C        0.00348    0.13018    0.35007    1.000
    H2176    H        0.99380    0.14460    0.33680    1.000
    C1869    C        0.03736    0.13016    0.34969    1.000
    C1870    C        0.05945    0.12371    0.37212    1.000
    H2177    H        0.05510    0.11550    0.39190    1.000
    C1871    C        0.08540    0.14246    0.33201    1.000
    C1872    C        0.04170    0.15760    0.29624    1.000
    C1873    C        0.04071    0.19283    0.30104    1.000
    C1874    C        0.04111    0.20626    0.33087    1.000
    H2178    H        0.04120    0.19330    0.34850    1.000
    C1875    C        0.04139    0.23830    0.33461    1.000
    H2179    H        0.04170    0.24690    0.35470    1.000
    C1876    C        0.04117    0.25784    0.30872    1.000
    C1877    C        0.03988    0.24464    0.27899    1.000
    H2180    H        0.03890    0.25760    0.26140    1.000
    C1878    C        0.04004    0.21268    0.27529    1.000
    H2181    H        0.03970    0.20420    0.25520    1.000
    C1879    C        0.04316    0.29225    0.31265    1.000
    C1880    C        0.11148    0.15282    0.31112    1.000
    H2182    H        0.10480    0.17090    0.29930    1.000
    H2183    H        0.12910    0.15890    0.32380    1.000
    C1881    C        0.12100    0.12630    0.28800    1.000
    H2184    H        0.12730    0.10770    0.29960    1.000
    H2185    H        0.10330    0.12080    0.27470    1.000
    C1882    C        0.14870    0.13830    0.26760    1.000
    H2186    H        0.14360    0.15890    0.25930    1.000
    H2187    H        0.15170    0.12420    0.24990    1.000
    C1883    C        0.17940    0.14030    0.28640    1.000
    H2188    H        0.19600    0.14770    0.27310    1.000
    H2189    H        0.18470    0.11980    0.29430    1.000
    H2190    H        0.17670    0.15450    0.30370    1.000
    N125     N        0.08910    0.13112    0.36119    1.000
    N126     N        0.05469    0.14206    0.32414    1.000
    O249     O        0.93060    0.09916    0.37671    1.000
    O250     O        0.93945    0.14259    0.35118    1.000
    O251     O        0.04485    0.30117    0.34183    1.000
    H2191    H        0.04810    0.31960    0.34740    1.000
    O252     O        0.04289    0.31103    0.29078    1.000
    H2192    H        0.98330    0.06670    0.38110    1.000
    H2193    H        0.01630    0.08170    0.38430    1.000
    C1884    C        0.98950    0.08960    0.42240    1.000
    C1885    C        0.97880    0.07010    0.44440    1.000
    H2194    H        0.97250    0.04960    0.44050    1.000
    C1886    C        0.97830    0.08520    0.47600    1.000
    H2195    H        0.97140    0.07520    0.49420    1.000
    C1887    C        0.98890    0.11470    0.47540    1.000
    H2196    H        0.99050    0.12770    0.49280    1.000
    S126     S        0.99897    0.12523    0.43822    1.000
    H2197    H        0.10260    0.16090    0.29200    1.000
    H2198    H        0.12220    0.16990    0.32130    1.000
    C1888    C        0.13470    0.12670    0.30140    1.000
    H2199    H        0.14160    0.11520    0.31980    1.000
    H2200    H        0.12450    0.11210    0.28730    1.000
    C1889    C        0.16340    0.14230    0.28480    1.000
    H2201    H        0.17340    0.15700    0.29910    1.000
    H2202    H        0.15630    0.15400    0.26660    1.000
    C1890    C        0.18730    0.11740    0.27450    1.000
    H2203    H        0.20480    0.12740    0.26430    1.000
    H2204    H        0.17750    0.10300    0.26010    1.000
    H2205    H        0.19470    0.10610    0.29260    1.000
    C1891    C        0.44991    0.61829    0.86480    1.000
    C1892    C        0.48421    0.61206    0.86715    1.000
    C1893    C        0.49428    0.58527    0.88770    1.000
    H2206    H        0.48030    0.56780    0.88490    1.000
    H2207    H        0.51510    0.57880    0.88190    1.000
    C1894    C        0.49380    0.59560    0.92172    1.000
    C1895    C        0.49930    0.62410    0.93350    1.000
    H2208    H        0.50430    0.64150    0.92120    1.000
    C1896    C        0.49670    0.62500    0.96830    1.000
    H2209    H        0.49980    0.64290    0.98040    1.000
    C1897    C        0.48930    0.59720    0.98020    1.000
    H2210    H        0.48650    0.59330    0.00150    1.000
    S127     S        0.48540    0.56945    0.95123    1.000
    C1898    C        0.50348    0.63018    0.85007    1.000
    H2211    H        0.49380    0.64460    0.83680    1.000
    C1899    C        0.53736    0.63016    0.84969    1.000
    C1900    C        0.55945    0.62371    0.87212    1.000
    H2212    H        0.55510    0.61550    0.89190    1.000
    C1901    C        0.58540    0.64246    0.83201    1.000
    C1902    C        0.54170    0.65760    0.79624    1.000
    C1903    C        0.54071    0.69283    0.80104    1.000
    C1904    C        0.54111    0.70626    0.83087    1.000
    H2213    H        0.54120    0.69330    0.84850    1.000
    C1905    C        0.54139    0.73830    0.83461    1.000
    H2214    H        0.54170    0.74690    0.85470    1.000
    C1906    C        0.54117    0.75784    0.80872    1.000
    C1907    C        0.53988    0.74464    0.77899    1.000
    H2215    H        0.53890    0.75760    0.76140    1.000
    C1908    C        0.54004    0.71268    0.77529    1.000
    H2216    H        0.53970    0.70420    0.75520    1.000
    C1909    C        0.54316    0.79225    0.81265    1.000
    C1910    C        0.61148    0.65282    0.81112    1.000
    H2217    H        0.60480    0.67090    0.79930    1.000
    H2218    H        0.62910    0.65890    0.82380    1.000
    C1911    C        0.62100    0.62630    0.78800    1.000
    H2219    H        0.62730    0.60770    0.79960    1.000
    H2220    H        0.60330    0.62080    0.77470    1.000
    C1912    C        0.64870    0.63830    0.76760    1.000
    H2221    H        0.64360    0.65890    0.75930    1.000
    H2222    H        0.65170    0.62420    0.74990    1.000
    C1913    C        0.67940    0.64030    0.78640    1.000
    H2223    H        0.69600    0.64770    0.77310    1.000
    H2224    H        0.68470    0.61980    0.79430    1.000
    H2225    H        0.67670    0.65450    0.80370    1.000
    N127     N        0.58910    0.63112    0.86119    1.000
    N128     N        0.55469    0.64206    0.82414    1.000
    O253     O        0.43060    0.59916    0.87671    1.000
    O254     O        0.43945    0.64259    0.85118    1.000
    O255     O        0.54485    0.80117    0.84183    1.000
    H2226    H        0.54810    0.81960    0.84740    1.000
    O256     O        0.54289    0.81103    0.79078    1.000
    H2227    H        0.48330    0.56670    0.88110    1.000
    H2228    H        0.51630    0.58170    0.88430    1.000
    C1914    C        0.48950    0.58960    0.92240    1.000
    C1915    C        0.47880    0.57010    0.94440    1.000
    H2229    H        0.47250    0.54960    0.94050    1.000
    C1916    C        0.47830    0.58520    0.97600    1.000
    H2230    H        0.47140    0.57520    0.99420    1.000
    C1917    C        0.48890    0.61470    0.97540    1.000
    H2231    H        0.49050    0.62770    0.99280    1.000
    S128     S        0.49897    0.62523    0.93822    1.000
    H2232    H        0.60260    0.66090    0.79200    1.000
    H2233    H        0.62220    0.66990    0.82130    1.000
    C1918    C        0.63470    0.62670    0.80140    1.000
    H2234    H        0.64160    0.61520    0.81980    1.000
    H2235    H        0.62450    0.61210    0.78730    1.000
    C1919    C        0.66340    0.64230    0.78480    1.000
    H2236    H        0.67340    0.65700    0.79910    1.000
    H2237    H        0.65630    0.65400    0.76660    1.000
    C1920    C        0.68730    0.61740    0.77450    1.000
    H2238    H        0.70480    0.62740    0.76430    1.000
    H2239    H        0.67750    0.60300    0.76010    1.000
    H2240    H        0.69470    0.60610    0.79260    1.000
    C1921    C        0.13520    0.05009    0.61829    1.000
    C1922    C        0.13285    0.01579    0.61206    1.000
    C1923    C        0.11230    0.00572    0.58527    1.000
    H2241    H        0.11510    0.01970    0.56780    1.000
    H2242    H        0.11810    0.98490    0.57880    1.000
    C1924    C        0.07828    0.00620    0.59560    1.000
    C1925    C        0.06650    0.00070    0.62410    1.000
    H2243    H        0.07880    0.99570    0.64150    1.000
    C1926    C        0.03170    0.00330    0.62500    1.000
    H2244    H        0.01960    0.00020    0.64290    1.000
    C1927    C        0.01980    0.01070    0.59720    1.000
    H2245    H        0.99850    0.01350    0.59330    1.000
    S129     S        0.04877    0.01460    0.56945    1.000
    C1928    C        0.14993    0.99652    0.63018    1.000
    H2246    H        0.16320    0.00620    0.64460    1.000
    C1929    C        0.15031    0.96264    0.63016    1.000
    C1930    C        0.12788    0.94055    0.62371    1.000
    H2247    H        0.10810    0.94490    0.61550    1.000
    C1931    C        0.16799    0.91460    0.64246    1.000
    C1932    C        0.20376    0.95830    0.65760    1.000
    C1933    C        0.19896    0.95929    0.69283    1.000
    C1934    C        0.16913    0.95889    0.70626    1.000
    H2248    H        0.15150    0.95880    0.69330    1.000
    C1935    C        0.16539    0.95861    0.73830    1.000
    H2249    H        0.14530    0.95830    0.74690    1.000
    C1936    C        0.19128    0.95883    0.75784    1.000
    C1937    C        0.22101    0.96012    0.74464    1.000
    H2250    H        0.23860    0.96110    0.75760    1.000
    C1938    C        0.22471    0.95996    0.71268    1.000
    H2251    H        0.24480    0.96030    0.70420    1.000
    C1939    C        0.18735    0.95684    0.79225    1.000
    C1940    C        0.18888    0.88852    0.65282    1.000
    H2252    H        0.20070    0.89520    0.67090    1.000
    H2253    H        0.17620    0.87090    0.65890    1.000
    C1941    C        0.21200    0.87900    0.62630    1.000
    H2254    H        0.20040    0.87270    0.60770    1.000
    H2255    H        0.22530    0.89670    0.62080    1.000
    C1942    C        0.23240    0.85130    0.63830    1.000
    H2256    H        0.24070    0.85640    0.65890    1.000
    H2257    H        0.25010    0.84830    0.62420    1.000
    C1943    C        0.21360    0.82060    0.64030    1.000
    H2258    H        0.22690    0.80400    0.64770    1.000
    H2259    H        0.20570    0.81530    0.61980    1.000
    H2260    H        0.19630    0.82330    0.65450    1.000
    N129     N        0.13881    0.91090    0.63112    1.000
    N130     N        0.17586    0.94531    0.64206    1.000
    O257     O        0.12329    0.06940    0.59916    1.000
    O258     O        0.14882    0.06055    0.64259    1.000
    O259     O        0.15817    0.95515    0.80117    1.000
    H2261    H        0.15260    0.95190    0.81960    1.000
    O260     O        0.20922    0.95711    0.81103    1.000
    H2262    H        0.11890    0.01670    0.56670    1.000
    H2263    H        0.11570    0.98370    0.58170    1.000
    C1944    C        0.07760    0.01050    0.58960    1.000
    C1945    C        0.05560    0.02120    0.57010    1.000
    H2264    H        0.05950    0.02750    0.54960    1.000
    C1946    C        0.02400    0.02170    0.58520    1.000
    H2265    H        0.00580    0.02860    0.57520    1.000
    C1947    C        0.02460    0.01110    0.61470    1.000
    H2266    H        0.00720    0.00950    0.62770    1.000
    S130     S        0.06178    0.00103    0.62523    1.000
    H2267    H        0.20800    0.89740    0.66090    1.000
    H2268    H        0.17870    0.87780    0.66990    1.000
    C1948    C        0.19860    0.86530    0.62670    1.000
    H2269    H        0.18020    0.85840    0.61520    1.000
    H2270    H        0.21270    0.87550    0.61210    1.000
    C1949    C        0.21520    0.83660    0.64230    1.000
    H2271    H        0.20090    0.82660    0.65700    1.000
    H2272    H        0.23340    0.84370    0.65400    1.000
    C1950    C        0.22550    0.81270    0.61740    1.000
    H2273    H        0.23570    0.79520    0.62740    1.000
    H2274    H        0.23990    0.82250    0.60300    1.000
    H2275    H        0.20740    0.80530    0.60610    1.000
    C1951    C        0.63520    0.55009    0.11829    1.000
    C1952    C        0.63285    0.51579    0.11206    1.000
    C1953    C        0.61230    0.50572    0.08527    1.000
    H2276    H        0.61510    0.51970    0.06780    1.000
    H2277    H        0.61810    0.48490    0.07880    1.000
    C1954    C        0.57828    0.50620    0.09560    1.000
    C1955    C        0.56650    0.50070    0.12410    1.000
    H2278    H        0.57880    0.49570    0.14150    1.000
    C1956    C        0.53170    0.50330    0.12500    1.000
    H2279    H        0.51960    0.50020    0.14290    1.000
    C1957    C        0.51980    0.51070    0.09720    1.000
    H2280    H        0.49850    0.51350    0.09330    1.000
    S131     S        0.54877    0.51460    0.06945    1.000
    C1958    C        0.64993    0.49652    0.13018    1.000
    H2281    H        0.66320    0.50620    0.14460    1.000
    C1959    C        0.65031    0.46264    0.13016    1.000
    C1960    C        0.62788    0.44055    0.12371    1.000
    H2282    H        0.60810    0.44490    0.11550    1.000
    C1961    C        0.66799    0.41460    0.14246    1.000
    C1962    C        0.70376    0.45830    0.15760    1.000
    C1963    C        0.69896    0.45929    0.19283    1.000
    C1964    C        0.66913    0.45889    0.20626    1.000
    H2283    H        0.65150    0.45880    0.19330    1.000
    C1965    C        0.66539    0.45861    0.23830    1.000
    H2284    H        0.64530    0.45830    0.24690    1.000
    C1966    C        0.69128    0.45883    0.25784    1.000
    C1967    C        0.72101    0.46012    0.24464    1.000
    H2285    H        0.73860    0.46110    0.25760    1.000
    C1968    C        0.72471    0.45996    0.21268    1.000
    H2286    H        0.74480    0.46030    0.20420    1.000
    C1969    C        0.68735    0.45684    0.29225    1.000
    C1970    C        0.68888    0.38852    0.15282    1.000
    H2287    H        0.70070    0.39520    0.17090    1.000
    H2288    H        0.67620    0.37090    0.15890    1.000
    C1971    C        0.71200    0.37900    0.12630    1.000
    H2289    H        0.70040    0.37270    0.10770    1.000
    H2290    H        0.72530    0.39670    0.12080    1.000
    C1972    C        0.73240    0.35130    0.13830    1.000
    H2291    H        0.74070    0.35640    0.15890    1.000
    H2292    H        0.75010    0.34830    0.12420    1.000
    C1973    C        0.71360    0.32060    0.14030    1.000
    H2293    H        0.72690    0.30400    0.14770    1.000
    H2294    H        0.70570    0.31530    0.11980    1.000
    H2295    H        0.69630    0.32330    0.15450    1.000
    N131     N        0.63881    0.41090    0.13112    1.000
    N132     N        0.67586    0.44531    0.14206    1.000
    O261     O        0.62329    0.56940    0.09916    1.000
    O262     O        0.64882    0.56055    0.14259    1.000
    O263     O        0.65817    0.45515    0.30117    1.000
    H2296    H        0.65260    0.45190    0.31960    1.000
    O264     O        0.70922    0.45711    0.31103    1.000
    H2297    H        0.61890    0.51670    0.06670    1.000
    H2298    H        0.61570    0.48370    0.08170    1.000
    C1974    C        0.57760    0.51050    0.08960    1.000
    C1975    C        0.55560    0.52120    0.07010    1.000
    H2299    H        0.55950    0.52750    0.04960    1.000
    C1976    C        0.52400    0.52170    0.08520    1.000
    H2300    H        0.50580    0.52860    0.07520    1.000
    C1977    C        0.52460    0.51110    0.11470    1.000
    H2301    H        0.50720    0.50950    0.12770    1.000
    S132     S        0.56178    0.50103    0.12523    1.000
    H2302    H        0.70800    0.39740    0.16090    1.000
    H2303    H        0.67870    0.37780    0.16990    1.000
    C1978    C        0.69860    0.36530    0.12670    1.000
    H2304    H        0.68020    0.35840    0.11520    1.000
    H2305    H        0.71270    0.37550    0.11210    1.000
    C1979    C        0.71520    0.33660    0.14230    1.000
    H2306    H        0.70090    0.32660    0.15700    1.000
    H2307    H        0.73340    0.34370    0.15400    1.000
    C1980    C        0.72550    0.31270    0.11740    1.000
    H2308    H        0.73570    0.29520    0.12740    1.000
    H2309    H        0.73990    0.32250    0.10300    1.000
    H2310    H        0.70740    0.30530    0.10610    1.000
    C1981    C        0.86480    0.55009    0.88171    1.000
    C1982    C        0.86715    0.51579    0.88794    1.000
    C1983    C        0.88770    0.50572    0.91473    1.000
    H2311    H        0.88490    0.51970    0.93220    1.000
    H2312    H        0.88190    0.48490    0.92120    1.000
    C1984    C        0.92172    0.50620    0.90440    1.000
    C1985    C        0.93350    0.50070    0.87590    1.000
    H2313    H        0.92120    0.49570    0.85850    1.000
    C1986    C        0.96830    0.50330    0.87500    1.000
    H2314    H        0.98040    0.50020    0.85710    1.000
    C1987    C        0.98020    0.51070    0.90280    1.000
    H2315    H        0.00150    0.51350    0.90670    1.000
    S133     S        0.95123    0.51460    0.93055    1.000
    C1988    C        0.85007    0.49652    0.86982    1.000
    H2316    H        0.83680    0.50620    0.85540    1.000
    C1989    C        0.84969    0.46264    0.86984    1.000
    C1990    C        0.87212    0.44055    0.87629    1.000
    H2317    H        0.89190    0.44490    0.88450    1.000
    C1991    C        0.83201    0.41460    0.85754    1.000
    C1992    C        0.79624    0.45830    0.84240    1.000
    C1993    C        0.80104    0.45929    0.80717    1.000
    C1994    C        0.83087    0.45889    0.79374    1.000
    H2318    H        0.84850    0.45880    0.80670    1.000
    C1995    C        0.83461    0.45861    0.76170    1.000
    H2319    H        0.85470    0.45830    0.75310    1.000
    C1996    C        0.80872    0.45883    0.74216    1.000
    C1997    C        0.77899    0.46012    0.75536    1.000
    H2320    H        0.76140    0.46110    0.74240    1.000
    C1998    C        0.77529    0.45996    0.78732    1.000
    H2321    H        0.75520    0.46030    0.79580    1.000
    C1999    C        0.81265    0.45684    0.70775    1.000
    C2000    C        0.81112    0.38852    0.84718    1.000
    H2322    H        0.79930    0.39520    0.82910    1.000
    H2323    H        0.82380    0.37090    0.84110    1.000
    C2001    C        0.78800    0.37900    0.87370    1.000
    H2324    H        0.79960    0.37270    0.89230    1.000
    H2325    H        0.77470    0.39670    0.87920    1.000
    C2002    C        0.76760    0.35130    0.86170    1.000
    H2326    H        0.75930    0.35640    0.84110    1.000
    H2327    H        0.74990    0.34830    0.87580    1.000
    C2003    C        0.78640    0.32060    0.85970    1.000
    H2328    H        0.77310    0.30400    0.85230    1.000
    H2329    H        0.79430    0.31530    0.88020    1.000
    H2330    H        0.80370    0.32330    0.84550    1.000
    N133     N        0.86119    0.41090    0.86888    1.000
    N134     N        0.82414    0.44531    0.85794    1.000
    O265     O        0.87671    0.56940    0.90084    1.000
    O266     O        0.85118    0.56055    0.85741    1.000
    O267     O        0.84183    0.45515    0.69883    1.000
    H2331    H        0.84740    0.45190    0.68040    1.000
    O268     O        0.79078    0.45711    0.68897    1.000
    H2332    H        0.88110    0.51670    0.93330    1.000
    H2333    H        0.88430    0.48370    0.91830    1.000
    C2004    C        0.92240    0.51050    0.91040    1.000
    C2005    C        0.94440    0.52120    0.92990    1.000
    H2334    H        0.94050    0.52750    0.95040    1.000
    C2006    C        0.97600    0.52170    0.91480    1.000
    H2335    H        0.99420    0.52860    0.92480    1.000
    C2007    C        0.97540    0.51110    0.88530    1.000
    H2336    H        0.99280    0.50950    0.87230    1.000
    S134     S        0.93822    0.50103    0.87477    1.000
    H2337    H        0.79200    0.39740    0.83910    1.000
    H2338    H        0.82130    0.37780    0.83010    1.000
    C2008    C        0.80140    0.36530    0.87330    1.000
    H2339    H        0.81980    0.35840    0.88480    1.000
    H2340    H        0.78730    0.37550    0.88790    1.000
    C2009    C        0.78480    0.33660    0.85770    1.000
    H2341    H        0.79910    0.32660    0.84300    1.000
    H2342    H        0.76660    0.34370    0.84600    1.000
    C2010    C        0.77450    0.31270    0.88260    1.000
    H2343    H        0.76430    0.29520    0.87260    1.000
    H2344    H        0.76010    0.32250    0.89700    1.000
    H2345    H        0.79260    0.30530    0.89390    1.000
    C2011    C        0.36480    0.05009    0.38171    1.000
    C2012    C        0.36715    0.01579    0.38794    1.000
    C2013    C        0.38770    0.00572    0.41473    1.000
    H2346    H        0.38490    0.01970    0.43220    1.000
    H2347    H        0.38190    0.98490    0.42120    1.000
    C2014    C        0.42172    0.00620    0.40440    1.000
    C2015    C        0.43350    0.00070    0.37590    1.000
    H2348    H        0.42120    0.99570    0.35850    1.000
    C2016    C        0.46830    0.00330    0.37500    1.000
    H2349    H        0.48040    0.00020    0.35710    1.000
    C2017    C        0.48020    0.01070    0.40280    1.000
    H2350    H        0.50150    0.01350    0.40670    1.000
    S135     S        0.45123    0.01460    0.43055    1.000
    C2018    C        0.35007    0.99652    0.36982    1.000
    H2351    H        0.33680    0.00620    0.35540    1.000
    C2019    C        0.34969    0.96264    0.36984    1.000
    C2020    C        0.37212    0.94055    0.37629    1.000
    H2352    H        0.39190    0.94490    0.38450    1.000
    C2021    C        0.33201    0.91460    0.35754    1.000
    C2022    C        0.29624    0.95830    0.34240    1.000
    C2023    C        0.30104    0.95929    0.30717    1.000
    C2024    C        0.33087    0.95889    0.29374    1.000
    H2353    H        0.34850    0.95880    0.30670    1.000
    C2025    C        0.33461    0.95861    0.26170    1.000
    H2354    H        0.35470    0.95830    0.25310    1.000
    C2026    C        0.30872    0.95883    0.24216    1.000
    C2027    C        0.27899    0.96012    0.25536    1.000
    H2355    H        0.26140    0.96110    0.24240    1.000
    C2028    C        0.27529    0.95996    0.28732    1.000
    H2356    H        0.25520    0.96030    0.29580    1.000
    C2029    C        0.31265    0.95684    0.20775    1.000
    C2030    C        0.31112    0.88852    0.34718    1.000
    H2357    H        0.29930    0.89520    0.32910    1.000
    H2358    H        0.32380    0.87090    0.34110    1.000
    C2031    C        0.28800    0.87900    0.37370    1.000
    H2359    H        0.29960    0.87270    0.39230    1.000
    H2360    H        0.27470    0.89670    0.37920    1.000
    C2032    C        0.26760    0.85130    0.36170    1.000
    H2361    H        0.25930    0.85640    0.34110    1.000
    H2362    H        0.24990    0.84830    0.37580    1.000
    C2033    C        0.28640    0.82060    0.35970    1.000
    H2363    H        0.27310    0.80400    0.35230    1.000
    H2364    H        0.29430    0.81530    0.38020    1.000
    H2365    H        0.30370    0.82330    0.34550    1.000
    N135     N        0.36119    0.91090    0.36888    1.000
    N136     N        0.32414    0.94531    0.35794    1.000
    O269     O        0.37671    0.06940    0.40084    1.000
    O270     O        0.35118    0.06055    0.35741    1.000
    O271     O        0.34183    0.95515    0.19883    1.000
    H2366    H        0.34740    0.95190    0.18040    1.000
    O272     O        0.29078    0.95711    0.18897    1.000
    H2367    H        0.38110    0.01670    0.43330    1.000
    H2368    H        0.38430    0.98370    0.41830    1.000
    C2034    C        0.42240    0.01050    0.41040    1.000
    C2035    C        0.44440    0.02120    0.42990    1.000
    H2369    H        0.44050    0.02750    0.45040    1.000
    C2036    C        0.47600    0.02170    0.41480    1.000
    H2370    H        0.49420    0.02860    0.42480    1.000
    C2037    C        0.47540    0.01110    0.38530    1.000
    H2371    H        0.49280    0.00950    0.37230    1.000
    S136     S        0.43822    0.00103    0.37477    1.000
    H2372    H        0.29200    0.89740    0.33910    1.000
    H2373    H        0.32130    0.87780    0.33010    1.000
    C2038    C        0.30140    0.86530    0.37330    1.000
    H2374    H        0.31980    0.85840    0.38480    1.000
    H2375    H        0.28730    0.87550    0.38790    1.000
    C2039    C        0.28480    0.83660    0.35770    1.000
    H2376    H        0.29910    0.82660    0.34300    1.000
    H2377    H        0.26660    0.84370    0.34600    1.000
    C2040    C        0.27450    0.81270    0.38260    1.000
    H2378    H        0.26430    0.79520    0.37260    1.000
    H2379    H        0.26010    0.82250    0.39700    1.000
    H2380    H        0.29260    0.80530    0.39390    1.000
    C2041    C        0.63520    0.44991    0.38171    1.000
    C2042    C        0.63285    0.48421    0.38794    1.000
    C2043    C        0.61230    0.49428    0.41473    1.000
    H2381    H        0.61510    0.48030    0.43220    1.000
    H2382    H        0.61810    0.51510    0.42120    1.000
    C2044    C        0.57828    0.49380    0.40440    1.000
    C2045    C        0.56650    0.49930    0.37590    1.000
    H2383    H        0.57880    0.50430    0.35850    1.000
    C2046    C        0.53170    0.49670    0.37500    1.000
    H2384    H        0.51960    0.49980    0.35710    1.000
    C2047    C        0.51980    0.48930    0.40280    1.000
    H2385    H        0.49850    0.48650    0.40670    1.000
    S137     S        0.54877    0.48540    0.43055    1.000
    C2048    C        0.64993    0.50348    0.36982    1.000
    H2386    H        0.66320    0.49380    0.35540    1.000
    C2049    C        0.65031    0.53736    0.36984    1.000
    C2050    C        0.62788    0.55945    0.37629    1.000
    H2387    H        0.60810    0.55510    0.38450    1.000
    C2051    C        0.66799    0.58540    0.35754    1.000
    C2052    C        0.70376    0.54170    0.34240    1.000
    C2053    C        0.69896    0.54071    0.30717    1.000
    C2054    C        0.66913    0.54111    0.29374    1.000
    H2388    H        0.65150    0.54120    0.30670    1.000
    C2055    C        0.66539    0.54139    0.26170    1.000
    H2389    H        0.64530    0.54170    0.25310    1.000
    C2056    C        0.69128    0.54117    0.24216    1.000
    C2057    C        0.72101    0.53988    0.25536    1.000
    H2390    H        0.73860    0.53890    0.24240    1.000
    C2058    C        0.72471    0.54004    0.28732    1.000
    H2391    H        0.74480    0.53970    0.29580    1.000
    C2059    C        0.68735    0.54316    0.20775    1.000
    C2060    C        0.68888    0.61148    0.34718    1.000
    H2392    H        0.70070    0.60480    0.32910    1.000
    H2393    H        0.67620    0.62910    0.34110    1.000
    C2061    C        0.71200    0.62100    0.37370    1.000
    H2394    H        0.70040    0.62730    0.39230    1.000
    H2395    H        0.72530    0.60330    0.37920    1.000
    C2062    C        0.73240    0.64870    0.36170    1.000
    H2396    H        0.74070    0.64360    0.34110    1.000
    H2397    H        0.75010    0.65170    0.37580    1.000
    C2063    C        0.71360    0.67940    0.35970    1.000
    H2398    H        0.72690    0.69600    0.35230    1.000
    H2399    H        0.70570    0.68470    0.38020    1.000
    H2400    H        0.69630    0.67670    0.34550    1.000
    N137     N        0.63881    0.58910    0.36888    1.000
    N138     N        0.67586    0.55469    0.35794    1.000
    O273     O        0.62329    0.43060    0.40084    1.000
    O274     O        0.64882    0.43945    0.35741    1.000
    O275     O        0.65817    0.54485    0.19883    1.000
    H2401    H        0.65260    0.54810    0.18040    1.000
    O276     O        0.70922    0.54289    0.18897    1.000
    H2402    H        0.61890    0.48330    0.43330    1.000
    H2403    H        0.61570    0.51630    0.41830    1.000
    C2064    C        0.57760    0.48950    0.41040    1.000
    C2065    C        0.55560    0.47880    0.42990    1.000
    H2404    H        0.55950    0.47250    0.45040    1.000
    C2066    C        0.52400    0.47830    0.41480    1.000
    H2405    H        0.50580    0.47140    0.42480    1.000
    C2067    C        0.52460    0.48890    0.38530    1.000
    H2406    H        0.50720    0.49050    0.37230    1.000
    S138     S        0.56178    0.49897    0.37477    1.000
    H2407    H        0.70800    0.60260    0.33910    1.000
    H2408    H        0.67870    0.62220    0.33010    1.000
    C2068    C        0.69860    0.63470    0.37330    1.000
    H2409    H        0.68020    0.64160    0.38480    1.000
    H2410    H        0.71270    0.62450    0.38790    1.000
    C2069    C        0.71520    0.66340    0.35770    1.000
    H2411    H        0.70090    0.67340    0.34300    1.000
    H2412    H        0.73340    0.65630    0.34600    1.000
    C2070    C        0.72550    0.68730    0.38260    1.000
    H2413    H        0.73570    0.70480    0.37260    1.000
    H2414    H        0.73990    0.67750    0.39700    1.000
    H2415    H        0.70740    0.69470    0.39390    1.000
    C2071    C        0.13520    0.94991    0.88171    1.000
    C2072    C        0.13285    0.98421    0.88794    1.000
    C2073    C        0.11230    0.99428    0.91473    1.000
    H2416    H        0.11510    0.98030    0.93220    1.000
    H2417    H        0.11810    0.01510    0.92120    1.000
    C2074    C        0.07828    0.99380    0.90440    1.000
    C2075    C        0.06650    0.99930    0.87590    1.000
    H2418    H        0.07880    0.00430    0.85850    1.000
    C2076    C        0.03170    0.99670    0.87500    1.000
    H2419    H        0.01960    0.99980    0.85710    1.000
    C2077    C        0.01980    0.98930    0.90280    1.000
    H2420    H        0.99850    0.98650    0.90670    1.000
    S139     S        0.04877    0.98540    0.93055    1.000
    C2078    C        0.14993    0.00348    0.86982    1.000
    H2421    H        0.16320    0.99380    0.85540    1.000
    C2079    C        0.15031    0.03736    0.86984    1.000
    C2080    C        0.12788    0.05945    0.87629    1.000
    H2422    H        0.10810    0.05510    0.88450    1.000
    C2081    C        0.16799    0.08540    0.85754    1.000
    C2082    C        0.20376    0.04170    0.84240    1.000
    C2083    C        0.19896    0.04071    0.80717    1.000
    C2084    C        0.16913    0.04111    0.79374    1.000
    H2423    H        0.15150    0.04120    0.80670    1.000
    C2085    C        0.16539    0.04139    0.76170    1.000
    H2424    H        0.14530    0.04170    0.75310    1.000
    C2086    C        0.19128    0.04117    0.74216    1.000
    C2087    C        0.22101    0.03988    0.75536    1.000
    H2425    H        0.23860    0.03890    0.74240    1.000
    C2088    C        0.22471    0.04004    0.78732    1.000
    H2426    H        0.24480    0.03970    0.79580    1.000
    C2089    C        0.18735    0.04316    0.70775    1.000
    C2090    C        0.18888    0.11148    0.84718    1.000
    H2427    H        0.20070    0.10480    0.82910    1.000
    H2428    H        0.17620    0.12910    0.84110    1.000
    C2091    C        0.21200    0.12100    0.87370    1.000
    H2429    H        0.20040    0.12730    0.89230    1.000
    H2430    H        0.22530    0.10330    0.87920    1.000
    C2092    C        0.23240    0.14870    0.86170    1.000
    H2431    H        0.24070    0.14360    0.84110    1.000
    H2432    H        0.25010    0.15170    0.87580    1.000
    C2093    C        0.21360    0.17940    0.85970    1.000
    H2433    H        0.22690    0.19600    0.85230    1.000
    H2434    H        0.20570    0.18470    0.88020    1.000
    H2435    H        0.19630    0.17670    0.84550    1.000
    N139     N        0.13881    0.08910    0.86888    1.000
    N140     N        0.17586    0.05469    0.85794    1.000
    O277     O        0.12329    0.93060    0.90084    1.000
    O278     O        0.14882    0.93945    0.85741    1.000
    O279     O        0.15817    0.04485    0.69883    1.000
    H2436    H        0.15260    0.04810    0.68040    1.000
    O280     O        0.20922    0.04289    0.68897    1.000
    H2437    H        0.11890    0.98330    0.93330    1.000
    H2438    H        0.11570    0.01630    0.91830    1.000
    C2094    C        0.07760    0.98950    0.91040    1.000
    C2095    C        0.05560    0.97880    0.92990    1.000
    H2439    H        0.05950    0.97250    0.95040    1.000
    C2096    C        0.02400    0.97830    0.91480    1.000
    H2440    H        0.00580    0.97140    0.92480    1.000
    C2097    C        0.02460    0.98890    0.88530    1.000
    H2441    H        0.00720    0.99050    0.87230    1.000
    S140     S        0.06178    0.99897    0.87477    1.000
    H2442    H        0.20800    0.10260    0.83910    1.000
    H2443    H        0.17870    0.12220    0.83010    1.000
    C2098    C        0.19860    0.13470    0.87330    1.000
    H2444    H        0.18020    0.14160    0.88480    1.000
    H2445    H        0.21270    0.12450    0.88790    1.000
    C2099    C        0.21520    0.16340    0.85770    1.000
    H2446    H        0.20090    0.17340    0.84300    1.000
    H2447    H        0.23340    0.15630    0.84600    1.000
    C2100    C        0.22550    0.18730    0.88260    1.000
    H2448    H        0.23570    0.20480    0.87260    1.000
    H2449    H        0.23990    0.17750    0.89700    1.000
    H2450    H        0.20740    0.19470    0.89390    1.000
    C2101    C        0.36480    0.94991    0.11829    1.000
    C2102    C        0.36715    0.98421    0.11206    1.000
    C2103    C        0.38770    0.99428    0.08527    1.000
    H2451    H        0.38490    0.98030    0.06780    1.000
    H2452    H        0.38190    0.01510    0.07880    1.000
    C2104    C        0.42172    0.99380    0.09560    1.000
    C2105    C        0.43350    0.99930    0.12410    1.000
    H2453    H        0.42120    0.00430    0.14150    1.000
    C2106    C        0.46830    0.99670    0.12500    1.000
    H2454    H        0.48040    0.99980    0.14290    1.000
    C2107    C        0.48020    0.98930    0.09720    1.000
    H2455    H        0.50150    0.98650    0.09330    1.000
    S141     S        0.45123    0.98540    0.06945    1.000
    C2108    C        0.35007    0.00348    0.13018    1.000
    H2456    H        0.33680    0.99380    0.14460    1.000
    C2109    C        0.34969    0.03736    0.13016    1.000
    C2110    C        0.37212    0.05945    0.12371    1.000
    H2457    H        0.39190    0.05510    0.11550    1.000
    C2111    C        0.33201    0.08540    0.14246    1.000
    C2112    C        0.29624    0.04170    0.15760    1.000
    C2113    C        0.30104    0.04071    0.19283    1.000
    C2114    C        0.33087    0.04111    0.20626    1.000
    H2458    H        0.34850    0.04120    0.19330    1.000
    C2115    C        0.33461    0.04139    0.23830    1.000
    H2459    H        0.35470    0.04170    0.24690    1.000
    C2116    C        0.30872    0.04117    0.25784    1.000
    C2117    C        0.27899    0.03988    0.24464    1.000
    H2460    H        0.26140    0.03890    0.25760    1.000
    C2118    C        0.27529    0.04004    0.21268    1.000
    H2461    H        0.25520    0.03970    0.20420    1.000
    C2119    C        0.31265    0.04316    0.29225    1.000
    C2120    C        0.31112    0.11148    0.15282    1.000
    H2462    H        0.29930    0.10480    0.17090    1.000
    H2463    H        0.32380    0.12910    0.15890    1.000
    C2121    C        0.28800    0.12100    0.12630    1.000
    H2464    H        0.29960    0.12730    0.10770    1.000
    H2465    H        0.27470    0.10330    0.12080    1.000
    C2122    C        0.26760    0.14870    0.13830    1.000
    H2466    H        0.25930    0.14360    0.15890    1.000
    H2467    H        0.24990    0.15170    0.12420    1.000
    C2123    C        0.28640    0.17940    0.14030    1.000
    H2468    H        0.27310    0.19600    0.14770    1.000
    H2469    H        0.29430    0.18470    0.11980    1.000
    H2470    H        0.30370    0.17670    0.15450    1.000
    N141     N        0.36119    0.08910    0.13112    1.000
    N142     N        0.32414    0.05469    0.14206    1.000
    O281     O        0.37671    0.93060    0.09916    1.000
    O282     O        0.35118    0.93945    0.14259    1.000
    O283     O        0.34183    0.04485    0.30117    1.000
    H2471    H        0.34740    0.04810    0.31960    1.000
    O284     O        0.29078    0.04289    0.31103    1.000
    H2472    H        0.38110    0.98330    0.06670    1.000
    H2473    H        0.38430    0.01630    0.08170    1.000
    C2124    C        0.42240    0.98950    0.08960    1.000
    C2125    C        0.44440    0.97880    0.07010    1.000
    H2474    H        0.44050    0.97250    0.04960    1.000
    C2126    C        0.47600    0.97830    0.08520    1.000
    H2475    H        0.49420    0.97140    0.07520    1.000
    C2127    C        0.47540    0.98890    0.11470    1.000
    H2476    H        0.49280    0.99050    0.12770    1.000
    S142     S        0.43822    0.99897    0.12523    1.000
    H2477    H        0.29200    0.10260    0.16090    1.000
    H2478    H        0.32130    0.12220    0.16990    1.000
    C2128    C        0.30140    0.13470    0.12670    1.000
    H2479    H        0.31980    0.14160    0.11520    1.000
    H2480    H        0.28730    0.12450    0.11210    1.000
    C2129    C        0.28480    0.16340    0.14230    1.000
    H2481    H        0.29910    0.17340    0.15700    1.000
    H2482    H        0.26660    0.15630    0.15400    1.000
    C2130    C        0.27450    0.18730    0.11740    1.000
    H2483    H        0.26430    0.20480    0.12740    1.000
    H2484    H        0.26010    0.17750    0.10300    1.000
    H2485    H        0.29260    0.19470    0.10610    1.000
    C2131    C        0.86480    0.44991    0.61829    1.000
    C2132    C        0.86715    0.48421    0.61206    1.000
    C2133    C        0.88770    0.49428    0.58527    1.000
    H2486    H        0.88490    0.48030    0.56780    1.000
    H2487    H        0.88190    0.51510    0.57880    1.000
    C2134    C        0.92172    0.49380    0.59560    1.000
    C2135    C        0.93350    0.49930    0.62410    1.000
    H2488    H        0.92120    0.50430    0.64150    1.000
    C2136    C        0.96830    0.49670    0.62500    1.000
    H2489    H        0.98040    0.49980    0.64290    1.000
    C2137    C        0.98020    0.48930    0.59720    1.000
    H2490    H        0.00150    0.48650    0.59330    1.000
    S143     S        0.95123    0.48540    0.56945    1.000
    C2138    C        0.85007    0.50348    0.63018    1.000
    H2491    H        0.83680    0.49380    0.64460    1.000
    C2139    C        0.84969    0.53736    0.63016    1.000
    C2140    C        0.87212    0.55945    0.62371    1.000
    H2492    H        0.89190    0.55510    0.61550    1.000
    C2141    C        0.83201    0.58540    0.64246    1.000
    C2142    C        0.79624    0.54170    0.65760    1.000
    C2143    C        0.80104    0.54071    0.69283    1.000
    C2144    C        0.83087    0.54111    0.70626    1.000
    H2493    H        0.84850    0.54120    0.69330    1.000
    C2145    C        0.83461    0.54139    0.73830    1.000
    H2494    H        0.85470    0.54170    0.74690    1.000
    C2146    C        0.80872    0.54117    0.75784    1.000
    C2147    C        0.77899    0.53988    0.74464    1.000
    H2495    H        0.76140    0.53890    0.75760    1.000
    C2148    C        0.77529    0.54004    0.71268    1.000
    H2496    H        0.75520    0.53970    0.70420    1.000
    C2149    C        0.81265    0.54316    0.79225    1.000
    C2150    C        0.81112    0.61148    0.65282    1.000
    H2497    H        0.79930    0.60480    0.67090    1.000
    H2498    H        0.82380    0.62910    0.65890    1.000
    C2151    C        0.78800    0.62100    0.62630    1.000
    H2499    H        0.79960    0.62730    0.60770    1.000
    H2500    H        0.77470    0.60330    0.62080    1.000
    C2152    C        0.76760    0.64870    0.63830    1.000
    H2501    H        0.75930    0.64360    0.65890    1.000
    H2502    H        0.74990    0.65170    0.62420    1.000
    C2153    C        0.78640    0.67940    0.64030    1.000
    H2503    H        0.77310    0.69600    0.64770    1.000
    H2504    H        0.79430    0.68470    0.61980    1.000
    H2505    H        0.80370    0.67670    0.65450    1.000
    N143     N        0.86119    0.58910    0.63112    1.000
    N144     N        0.82414    0.55469    0.64206    1.000
    O285     O        0.87671    0.43060    0.59916    1.000
    O286     O        0.85118    0.43945    0.64259    1.000
    O287     O        0.84183    0.54485    0.80117    1.000
    H2506    H        0.84740    0.54810    0.81960    1.000
    O288     O        0.79078    0.54289    0.81103    1.000
    H2507    H        0.88110    0.48330    0.56670    1.000
    H2508    H        0.88430    0.51630    0.58170    1.000
    C2154    C        0.92240    0.48950    0.58960    1.000
    C2155    C        0.94440    0.47880    0.57010    1.000
    H2509    H        0.94050    0.47250    0.54960    1.000
    C2156    C        0.97600    0.47830    0.58520    1.000
    H2510    H        0.99420    0.47140    0.57520    1.000
    C2157    C        0.97540    0.48890    0.61470    1.000
    H2511    H        0.99280    0.49050    0.62770    1.000
    S144     S        0.93822    0.49897    0.62523    1.000
    H2512    H        0.79200    0.60260    0.66090    1.000
    H2513    H        0.82130    0.62220    0.66990    1.000
    C2158    C        0.80140    0.63470    0.62670    1.000
    H2514    H        0.81980    0.64160    0.61520    1.000
    H2515    H        0.78730    0.62450    0.61210    1.000
    C2159    C        0.78480    0.66340    0.64230    1.000
    H2516    H        0.79910    0.67340    0.65700    1.000
    H2517    H        0.76660    0.65630    0.65400    1.000
    C2160    C        0.77450    0.68730    0.61740    1.000
    H2518    H        0.76430    0.70480    0.62740    1.000
    H2519    H        0.76010    0.67750    0.60300    1.000
    H2520    H        0.79260    0.69470    0.60610    1.000
    C2161    C        0.38520    0.36829    0.69991    1.000
    C2162    C        0.38285    0.36206    0.73421    1.000
    C2163    C        0.36230    0.33527    0.74428    1.000
    H2521    H        0.36510    0.31780    0.73030    1.000
    H2522    H        0.36810    0.32880    0.76510    1.000
    C2164    C        0.32828    0.34560    0.74380    1.000
    C2165    C        0.31650    0.37410    0.74930    1.000
    H2523    H        0.32880    0.39150    0.75430    1.000
    C2166    C        0.28170    0.37500    0.74670    1.000
    H2524    H        0.26960    0.39290    0.74980    1.000
    C2167    C        0.26980    0.34720    0.73930    1.000
    H2525    H        0.24850    0.34330    0.73650    1.000
    S145     S        0.29877    0.31945    0.73540    1.000
    C2168    C        0.39993    0.38018    0.75348    1.000
    H2526    H        0.41320    0.39460    0.74380    1.000
    C2169    C        0.40031    0.38016    0.78736    1.000
    C2170    C        0.37788    0.37371    0.80945    1.000
    H2527    H        0.35810    0.36550    0.80510    1.000
    C2171    C        0.41799    0.39246    0.83540    1.000
    C2172    C        0.45376    0.40760    0.79170    1.000
    C2173    C        0.44896    0.44283    0.79071    1.000
    C2174    C        0.41913    0.45626    0.79111    1.000
    H2528    H        0.40150    0.44330    0.79120    1.000
    C2175    C        0.41539    0.48830    0.79139    1.000
    H2529    H        0.39530    0.49690    0.79170    1.000
    C2176    C        0.44128    0.50784    0.79117    1.000
    C2177    C        0.47101    0.49464    0.78988    1.000
    H2530    H        0.48860    0.50760    0.78890    1.000
    C2178    C        0.47471    0.46268    0.79004    1.000
    H2531    H        0.49480    0.45420    0.78970    1.000
    C2179    C        0.43735    0.54225    0.79316    1.000
    C2180    C        0.43888    0.40282    0.86148    1.000
    H2532    H        0.45070    0.42090    0.85480    1.000
    H2533    H        0.42620    0.40890    0.87910    1.000
    C2181    C        0.46200    0.37630    0.87100    1.000
    H2534    H        0.45040    0.35770    0.87730    1.000
    H2535    H        0.47530    0.37080    0.85330    1.000
    C2182    C        0.48240    0.38830    0.89870    1.000
    H2536    H        0.49070    0.40890    0.89360    1.000
    H2537    H        0.50010    0.37420    0.90170    1.000
    C2183    C        0.46360    0.39030    0.92940    1.000
    H2538    H        0.47690    0.39770    0.94600    1.000
    H2539    H        0.45570    0.36980    0.93470    1.000
    H2540    H        0.44630    0.40450    0.92670    1.000
    N145     N        0.38881    0.38112    0.83910    1.000
    N146     N        0.42586    0.39206    0.80469    1.000
    O289     O        0.37329    0.34916    0.68060    1.000
    O290     O        0.39882    0.39259    0.68945    1.000
    O291     O        0.40817    0.55117    0.79485    1.000
    H2541    H        0.40260    0.56960    0.79810    1.000
    O292     O        0.45922    0.56103    0.79289    1.000
    H2542    H        0.36890    0.31670    0.73330    1.000
    H2543    H        0.36570    0.33170    0.76630    1.000
    C2184    C        0.32760    0.33960    0.73950    1.000
    C2185    C        0.30560    0.32010    0.72880    1.000
    H2544    H        0.30950    0.29960    0.72250    1.000
    C2186    C        0.27400    0.33520    0.72830    1.000
    H2545    H        0.25580    0.32520    0.72140    1.000
    C2187    C        0.27460    0.36470    0.73890    1.000
    H2546    H        0.25720    0.37770    0.74050    1.000
    S146     S        0.31178    0.37523    0.74897    1.000
    H2547    H        0.45800    0.41090    0.85260    1.000
    H2548    H        0.42870    0.41990    0.87220    1.000
    C2188    C        0.44860    0.37670    0.88470    1.000
    H2549    H        0.43020    0.36520    0.89160    1.000
    H2550    H        0.46270    0.36210    0.87450    1.000
    C2189    C        0.46520    0.39230    0.91340    1.000
    H2551    H        0.45090    0.40700    0.92340    1.000
    H2552    H        0.48340    0.40400    0.90630    1.000
    C2190    C        0.47550    0.36740    0.93730    1.000
    H2553    H        0.48570    0.37740    0.95480    1.000
    H2554    H        0.48990    0.35300    0.92750    1.000
    H2555    H        0.45740    0.35610    0.94470    1.000
    C2191    C        0.88520    0.86829    0.19991    1.000
    C2192    C        0.88285    0.86206    0.23421    1.000
    C2193    C        0.86230    0.83527    0.24428    1.000
    H2556    H        0.86510    0.81780    0.23030    1.000
    H2557    H        0.86810    0.82880    0.26510    1.000
    C2194    C        0.82828    0.84560    0.24380    1.000
    C2195    C        0.81650    0.87410    0.24930    1.000
    H2558    H        0.82880    0.89150    0.25430    1.000
    C2196    C        0.78170    0.87500    0.24670    1.000
    H2559    H        0.76960    0.89290    0.24980    1.000
    C2197    C        0.76980    0.84720    0.23930    1.000
    H2560    H        0.74850    0.84330    0.23650    1.000
    S147     S        0.79877    0.81945    0.23540    1.000
    C2198    C        0.89993    0.88018    0.25348    1.000
    H2561    H        0.91320    0.89460    0.24380    1.000
    C2199    C        0.90031    0.88016    0.28736    1.000
    C2200    C        0.87788    0.87371    0.30945    1.000
    H2562    H        0.85810    0.86550    0.30510    1.000
    C2201    C        0.91799    0.89246    0.33540    1.000
    C2202    C        0.95376    0.90760    0.29170    1.000
    C2203    C        0.94896    0.94283    0.29071    1.000
    C2204    C        0.91913    0.95626    0.29111    1.000
    H2563    H        0.90150    0.94330    0.29120    1.000
    C2205    C        0.91539    0.98830    0.29139    1.000
    H2564    H        0.89530    0.99690    0.29170    1.000
    C2206    C        0.94128    0.00784    0.29117    1.000
    C2207    C        0.97101    0.99464    0.28988    1.000
    H2565    H        0.98860    0.00760    0.28890    1.000
    C2208    C        0.97471    0.96268    0.29004    1.000
    H2566    H        0.99480    0.95420    0.28970    1.000
    C2209    C        0.93735    0.04225    0.29316    1.000
    C2210    C        0.93888    0.90282    0.36148    1.000
    H2567    H        0.95070    0.92090    0.35480    1.000
    H2568    H        0.92620    0.90890    0.37910    1.000
    C2211    C        0.96200    0.87630    0.37100    1.000
    H2569    H        0.95040    0.85770    0.37730    1.000
    H2570    H        0.97530    0.87080    0.35330    1.000
    C2212    C        0.98240    0.88830    0.39870    1.000
    H2571    H        0.99070    0.90890    0.39360    1.000
    H2572    H        0.00010    0.87420    0.40170    1.000
    C2213    C        0.96360    0.89030    0.42940    1.000
    H2573    H        0.97690    0.89770    0.44600    1.000
    H2574    H        0.95570    0.86980    0.43470    1.000
    H2575    H        0.94630    0.90450    0.42670    1.000
    N147     N        0.88881    0.88112    0.33910    1.000
    N148     N        0.92586    0.89206    0.30469    1.000
    O293     O        0.87329    0.84916    0.18060    1.000
    O294     O        0.89882    0.89259    0.18945    1.000
    O295     O        0.90817    0.05117    0.29485    1.000
    H2576    H        0.90260    0.06960    0.29810    1.000
    O296     O        0.95922    0.06103    0.29289    1.000
    H2577    H        0.86890    0.81670    0.23330    1.000
    H2578    H        0.86570    0.83170    0.26630    1.000
    C2214    C        0.82760    0.83960    0.23950    1.000
    C2215    C        0.80560    0.82010    0.22880    1.000
    H2579    H        0.80950    0.79960    0.22250    1.000
    C2216    C        0.77400    0.83520    0.22830    1.000
    H2580    H        0.75580    0.82520    0.22140    1.000
    C2217    C        0.77460    0.86470    0.23890    1.000
    H2581    H        0.75720    0.87770    0.24050    1.000
    S148     S        0.81178    0.87523    0.24897    1.000
    H2582    H        0.95800    0.91090    0.35260    1.000
    H2583    H        0.92870    0.91990    0.37220    1.000
    C2218    C        0.94860    0.87670    0.38470    1.000
    H2584    H        0.93020    0.86520    0.39160    1.000
    H2585    H        0.96270    0.86210    0.37450    1.000
    C2219    C        0.96520    0.89230    0.41340    1.000
    H2586    H        0.95090    0.90700    0.42340    1.000
    H2587    H        0.98340    0.90400    0.40630    1.000
    C2220    C        0.97550    0.86740    0.43730    1.000
    H2588    H        0.98570    0.87740    0.45480    1.000
    H2589    H        0.98990    0.85300    0.42750    1.000
    H2590    H        0.95740    0.85610    0.44470    1.000
    C2221    C        0.11480    0.63171    0.19991    1.000
    C2222    C        0.11715    0.63794    0.23421    1.000
    C2223    C        0.13770    0.66473    0.24428    1.000
    H2591    H        0.13490    0.68220    0.23030    1.000
    H2592    H        0.13190    0.67120    0.26510    1.000
    C2224    C        0.17172    0.65440    0.24380    1.000
    C2225    C        0.18350    0.62590    0.24930    1.000
    H2593    H        0.17120    0.60850    0.25430    1.000
    C2226    C        0.21830    0.62500    0.24670    1.000
    H2594    H        0.23040    0.60710    0.24980    1.000
    C2227    C        0.23020    0.65280    0.23930    1.000
    H2595    H        0.25150    0.65670    0.23650    1.000
    S149     S        0.20123    0.68055    0.23540    1.000
    C2228    C        0.10007    0.61982    0.25348    1.000
    H2596    H        0.08680    0.60540    0.24380    1.000
    C2229    C        0.09969    0.61984    0.28736    1.000
    C2230    C        0.12212    0.62629    0.30945    1.000
    H2597    H        0.14190    0.63450    0.30510    1.000
    C2231    C        0.08201    0.60754    0.33540    1.000
    C2232    C        0.04624    0.59240    0.29170    1.000
    C2233    C        0.05104    0.55717    0.29071    1.000
    C2234    C        0.08087    0.54374    0.29111    1.000
    H2598    H        0.09850    0.55670    0.29120    1.000
    C2235    C        0.08461    0.51170    0.29139    1.000
    H2599    H        0.10470    0.50310    0.29170    1.000
    C2236    C        0.05872    0.49216    0.29117    1.000
    C2237    C        0.02899    0.50536    0.28988    1.000
    H2600    H        0.01140    0.49240    0.28890    1.000
    C2238    C        0.02529    0.53732    0.29004    1.000
    H2601    H        0.00520    0.54580    0.28970    1.000
    C2239    C        0.06265    0.45775    0.29316    1.000
    C2240    C        0.06112    0.59718    0.36148    1.000
    H2602    H        0.04930    0.57910    0.35480    1.000
    H2603    H        0.07380    0.59110    0.37910    1.000
    C2241    C        0.03800    0.62370    0.37100    1.000
    H2604    H        0.04960    0.64230    0.37730    1.000
    H2605    H        0.02470    0.62920    0.35330    1.000
    C2242    C        0.01760    0.61170    0.39870    1.000
    H2606    H        0.00930    0.59110    0.39360    1.000
    H2607    H        0.99990    0.62580    0.40170    1.000
    C2243    C        0.03640    0.60970    0.42940    1.000
    H2608    H        0.02310    0.60230    0.44600    1.000
    H2609    H        0.04430    0.63020    0.43470    1.000
    H2610    H        0.05370    0.59550    0.42670    1.000
    N149     N        0.11119    0.61888    0.33910    1.000
    N150     N        0.07414    0.60794    0.30469    1.000
    O297     O        0.12671    0.65084    0.18060    1.000
    O298     O        0.10118    0.60741    0.18945    1.000
    O299     O        0.09183    0.44883    0.29485    1.000
    H2611    H        0.09740    0.43040    0.29810    1.000
    O300     O        0.04078    0.43897    0.29289    1.000
    H2612    H        0.13110    0.68330    0.23330    1.000
    H2613    H        0.13430    0.66830    0.26630    1.000
    C2244    C        0.17240    0.66040    0.23950    1.000
    C2245    C        0.19440    0.67990    0.22880    1.000
    H2614    H        0.19050    0.70040    0.22250    1.000
    C2246    C        0.22600    0.66480    0.22830    1.000
    H2615    H        0.24420    0.67480    0.22140    1.000
    C2247    C        0.22540    0.63530    0.23890    1.000
    H2616    H        0.24280    0.62230    0.24050    1.000
    S150     S        0.18822    0.62477    0.24897    1.000
    H2617    H        0.04200    0.58910    0.35260    1.000
    H2618    H        0.07130    0.58010    0.37220    1.000
    C2248    C        0.05140    0.62330    0.38470    1.000
    H2619    H        0.06980    0.63480    0.39160    1.000
    H2620    H        0.03730    0.63790    0.37450    1.000
    C2249    C        0.03480    0.60770    0.41340    1.000
    H2621    H        0.04910    0.59300    0.42340    1.000
    H2622    H        0.01660    0.59600    0.40630    1.000
    C2250    C        0.02450    0.63260    0.43730    1.000
    H2623    H        0.01430    0.62260    0.45480    1.000
    H2624    H        0.01010    0.64700    0.42750    1.000
    H2625    H        0.04260    0.64390    0.44470    1.000
    C2251    C        0.61480    0.13171    0.69991    1.000
    C2252    C        0.61715    0.13794    0.73421    1.000
    C2253    C        0.63770    0.16473    0.74428    1.000
    H2626    H        0.63490    0.18220    0.73030    1.000
    H2627    H        0.63190    0.17120    0.76510    1.000
    C2254    C        0.67172    0.15440    0.74380    1.000
    C2255    C        0.68350    0.12590    0.74930    1.000
    H2628    H        0.67120    0.10850    0.75430    1.000
    C2256    C        0.71830    0.12500    0.74670    1.000
    H2629    H        0.73040    0.10710    0.74980    1.000
    C2257    C        0.73020    0.15280    0.73930    1.000
    H2630    H        0.75150    0.15670    0.73650    1.000
    S151     S        0.70123    0.18055    0.73540    1.000
    C2258    C        0.60007    0.11982    0.75348    1.000
    H2631    H        0.58680    0.10540    0.74380    1.000
    C2259    C        0.59969    0.11984    0.78736    1.000
    C2260    C        0.62212    0.12629    0.80945    1.000
    H2632    H        0.64190    0.13450    0.80510    1.000
    C2261    C        0.58201    0.10754    0.83540    1.000
    C2262    C        0.54624    0.09240    0.79170    1.000
    C2263    C        0.55104    0.05717    0.79071    1.000
    C2264    C        0.58087    0.04374    0.79111    1.000
    H2633    H        0.59850    0.05670    0.79120    1.000
    C2265    C        0.58461    0.01170    0.79139    1.000
    H2634    H        0.60470    0.00310    0.79170    1.000
    C2266    C        0.55872    0.99216    0.79117    1.000
    C2267    C        0.52899    0.00536    0.78988    1.000
    H2635    H        0.51140    0.99240    0.78890    1.000
    C2268    C        0.52529    0.03732    0.79004    1.000
    H2636    H        0.50520    0.04580    0.78970    1.000
    C2269    C        0.56265    0.95775    0.79316    1.000
    C2270    C        0.56112    0.09718    0.86148    1.000
    H2637    H        0.54930    0.07910    0.85480    1.000
    H2638    H        0.57380    0.09110    0.87910    1.000
    C2271    C        0.53800    0.12370    0.87100    1.000
    H2639    H        0.54960    0.14230    0.87730    1.000
    H2640    H        0.52470    0.12920    0.85330    1.000
    C2272    C        0.51760    0.11170    0.89870    1.000
    H2641    H        0.50930    0.09110    0.89360    1.000
    H2642    H        0.49990    0.12580    0.90170    1.000
    C2273    C        0.53640    0.10970    0.92940    1.000
    H2643    H        0.52310    0.10230    0.94600    1.000
    H2644    H        0.54430    0.13020    0.93470    1.000
    H2645    H        0.55370    0.09550    0.92670    1.000
    N151     N        0.61119    0.11888    0.83910    1.000
    N152     N        0.57414    0.10794    0.80469    1.000
    O301     O        0.62671    0.15084    0.68060    1.000
    O302     O        0.60118    0.10741    0.68945    1.000
    O303     O        0.59183    0.94883    0.79485    1.000
    H2646    H        0.59740    0.93040    0.79810    1.000
    O304     O        0.54078    0.93897    0.79289    1.000
    H2647    H        0.63110    0.18330    0.73330    1.000
    H2648    H        0.63430    0.16830    0.76630    1.000
    C2274    C        0.67240    0.16040    0.73950    1.000
    C2275    C        0.69440    0.17990    0.72880    1.000
    H2649    H        0.69050    0.20040    0.72250    1.000
    C2276    C        0.72600    0.16480    0.72830    1.000
    H2650    H        0.74420    0.17480    0.72140    1.000
    C2277    C        0.72540    0.13530    0.73890    1.000
    H2651    H        0.74280    0.12230    0.74050    1.000
    S152     S        0.68822    0.12477    0.74897    1.000
    H2652    H        0.54200    0.08910    0.85260    1.000
    H2653    H        0.57130    0.08010    0.87220    1.000
    C2278    C        0.55140    0.12330    0.88470    1.000
    H2654    H        0.56980    0.13480    0.89160    1.000
    H2655    H        0.53730    0.13790    0.87450    1.000
    C2279    C        0.53480    0.10770    0.91340    1.000
    H2656    H        0.54910    0.09300    0.92340    1.000
    H2657    H        0.51660    0.09600    0.90630    1.000
    C2280    C        0.52450    0.13260    0.93730    1.000
    H2658    H        0.51430    0.12260    0.95480    1.000
    H2659    H        0.51010    0.14700    0.92750    1.000
    H2660    H        0.54260    0.14390    0.94470    1.000
    C2281    C        0.88520    0.13171    0.30009    1.000
    C2282    C        0.88285    0.13794    0.26579    1.000
    C2283    C        0.86230    0.16473    0.25572    1.000
    H2661    H        0.86510    0.18220    0.26970    1.000
    H2662    H        0.86810    0.17120    0.23490    1.000
    C2284    C        0.82828    0.15440    0.25620    1.000
    C2285    C        0.81650    0.12590    0.25070    1.000
    H2663    H        0.82880    0.10850    0.24570    1.000
    C2286    C        0.78170    0.12500    0.25330    1.000
    H2664    H        0.76960    0.10710    0.25020    1.000
    C2287    C        0.76980    0.15280    0.26070    1.000
    H2665    H        0.74850    0.15670    0.26350    1.000
    S153     S        0.79877    0.18055    0.26460    1.000
    C2288    C        0.89993    0.11982    0.24652    1.000
    H2666    H        0.91320    0.10540    0.25620    1.000
    C2289    C        0.90031    0.11984    0.21264    1.000
    C2290    C        0.87788    0.12629    0.19055    1.000
    H2667    H        0.85810    0.13450    0.19490    1.000
    C2291    C        0.91799    0.10754    0.16460    1.000
    C2292    C        0.95376    0.09240    0.20830    1.000
    C2293    C        0.94896    0.05717    0.20929    1.000
    C2294    C        0.91913    0.04374    0.20889    1.000
    H2668    H        0.90150    0.05670    0.20880    1.000
    C2295    C        0.91539    0.01170    0.20861    1.000
    H2669    H        0.89530    0.00310    0.20830    1.000
    C2296    C        0.94128    0.99216    0.20883    1.000
    C2297    C        0.97101    0.00536    0.21012    1.000
    H2670    H        0.98860    0.99240    0.21110    1.000
    C2298    C        0.97471    0.03732    0.20996    1.000
    H2671    H        0.99480    0.04580    0.21030    1.000
    C2299    C        0.93735    0.95775    0.20684    1.000
    C2300    C        0.93888    0.09718    0.13852    1.000
    H2672    H        0.95070    0.07910    0.14520    1.000
    H2673    H        0.92620    0.09110    0.12090    1.000
    C2301    C        0.96200    0.12370    0.12900    1.000
    H2674    H        0.95040    0.14230    0.12270    1.000
    H2675    H        0.97530    0.12920    0.14670    1.000
    C2302    C        0.98240    0.11170    0.10130    1.000
    H2676    H        0.99070    0.09110    0.10640    1.000
    H2677    H        0.00010    0.12580    0.09830    1.000
    C2303    C        0.96360    0.10970    0.07060    1.000
    H2678    H        0.97690    0.10230    0.05400    1.000
    H2679    H        0.95570    0.13020    0.06530    1.000
    H2680    H        0.94630    0.09550    0.07330    1.000
    N153     N        0.88881    0.11888    0.16090    1.000
    N154     N        0.92586    0.10794    0.19531    1.000
    O305     O        0.87329    0.15084    0.31940    1.000
    O306     O        0.89882    0.10741    0.31055    1.000
    O307     O        0.90817    0.94883    0.20515    1.000
    H2681    H        0.90260    0.93040    0.20190    1.000
    O308     O        0.95922    0.93897    0.20711    1.000
    H2682    H        0.86890    0.18330    0.26670    1.000
    H2683    H        0.86570    0.16830    0.23370    1.000
    C2304    C        0.82760    0.16040    0.26050    1.000
    C2305    C        0.80560    0.17990    0.27120    1.000
    H2684    H        0.80950    0.20040    0.27750    1.000
    C2306    C        0.77400    0.16480    0.27170    1.000
    H2685    H        0.75580    0.17480    0.27860    1.000
    C2307    C        0.77460    0.13530    0.26110    1.000
    H2686    H        0.75720    0.12230    0.25950    1.000
    S154     S        0.81178    0.12477    0.25103    1.000
    H2687    H        0.95800    0.08910    0.14740    1.000
    H2688    H        0.92870    0.08010    0.12780    1.000
    C2308    C        0.94860    0.12330    0.11530    1.000
    H2689    H        0.93020    0.13480    0.10840    1.000
    H2690    H        0.96270    0.13790    0.12550    1.000
    C2309    C        0.96520    0.10770    0.08660    1.000
    H2691    H        0.95090    0.09300    0.07660    1.000
    H2692    H        0.98340    0.09600    0.09370    1.000
    C2310    C        0.97550    0.13260    0.06270    1.000
    H2693    H        0.98570    0.12260    0.04520    1.000
    H2694    H        0.98990    0.14700    0.07250    1.000
    H2695    H        0.95740    0.14390    0.05530    1.000
    C2311    C        0.38520    0.63171    0.80009    1.000
    C2312    C        0.38285    0.63794    0.76579    1.000
    C2313    C        0.36230    0.66473    0.75572    1.000
    H2696    H        0.36510    0.68220    0.76970    1.000
    H2697    H        0.36810    0.67120    0.73490    1.000
    C2314    C        0.32828    0.65440    0.75620    1.000
    C2315    C        0.31650    0.62590    0.75070    1.000
    H2698    H        0.32880    0.60850    0.74570    1.000
    C2316    C        0.28170    0.62500    0.75330    1.000
    H2699    H        0.26960    0.60710    0.75020    1.000
    C2317    C        0.26980    0.65280    0.76070    1.000
    H2700    H        0.24850    0.65670    0.76350    1.000
    S155     S        0.29877    0.68055    0.76460    1.000
    C2318    C        0.39993    0.61982    0.74652    1.000
    H2701    H        0.41320    0.60540    0.75620    1.000
    C2319    C        0.40031    0.61984    0.71264    1.000
    C2320    C        0.37788    0.62629    0.69055    1.000
    H2702    H        0.35810    0.63450    0.69490    1.000
    C2321    C        0.41799    0.60754    0.66460    1.000
    C2322    C        0.45376    0.59240    0.70830    1.000
    C2323    C        0.44896    0.55717    0.70929    1.000
    C2324    C        0.41913    0.54374    0.70889    1.000
    H2703    H        0.40150    0.55670    0.70880    1.000
    C2325    C        0.41539    0.51170    0.70861    1.000
    H2704    H        0.39530    0.50310    0.70830    1.000
    C2326    C        0.44128    0.49216    0.70883    1.000
    C2327    C        0.47101    0.50536    0.71012    1.000
    H2705    H        0.48860    0.49240    0.71110    1.000
    C2328    C        0.47471    0.53732    0.70996    1.000
    H2706    H        0.49480    0.54580    0.71030    1.000
    C2329    C        0.43735    0.45775    0.70684    1.000
    C2330    C        0.43888    0.59718    0.63852    1.000
    H2707    H        0.45070    0.57910    0.64520    1.000
    H2708    H        0.42620    0.59110    0.62090    1.000
    C2331    C        0.46200    0.62370    0.62900    1.000
    H2709    H        0.45040    0.64230    0.62270    1.000
    H2710    H        0.47530    0.62920    0.64670    1.000
    C2332    C        0.48240    0.61170    0.60130    1.000
    H2711    H        0.49070    0.59110    0.60640    1.000
    H2712    H        0.50010    0.62580    0.59830    1.000
    C2333    C        0.46360    0.60970    0.57060    1.000
    H2713    H        0.47690    0.60230    0.55400    1.000
    H2714    H        0.45570    0.63020    0.56530    1.000
    H2715    H        0.44630    0.59550    0.57330    1.000
    N155     N        0.38881    0.61888    0.66090    1.000
    N156     N        0.42586    0.60794    0.69531    1.000
    O309     O        0.37329    0.65084    0.81940    1.000
    O310     O        0.39882    0.60741    0.81055    1.000
    O311     O        0.40817    0.44883    0.70515    1.000
    H2716    H        0.40260    0.43040    0.70190    1.000
    O312     O        0.45922    0.43897    0.70711    1.000
    H2717    H        0.36890    0.68330    0.76670    1.000
    H2718    H        0.36570    0.66830    0.73370    1.000
    C2334    C        0.32760    0.66040    0.76050    1.000
    C2335    C        0.30560    0.67990    0.77120    1.000
    H2719    H        0.30950    0.70040    0.77750    1.000
    C2336    C        0.27400    0.66480    0.77170    1.000
    H2720    H        0.25580    0.67480    0.77860    1.000
    C2337    C        0.27460    0.63530    0.76110    1.000
    H2721    H        0.25720    0.62230    0.75950    1.000
    S156     S        0.31178    0.62477    0.75103    1.000
    H2722    H        0.45800    0.58910    0.64740    1.000
    H2723    H        0.42870    0.58010    0.62780    1.000
    C2338    C        0.44860    0.62330    0.61530    1.000
    H2724    H        0.43020    0.63480    0.60840    1.000
    H2725    H        0.46270    0.63790    0.62550    1.000
    C2339    C        0.46520    0.60770    0.58660    1.000
    H2726    H        0.45090    0.59300    0.57660    1.000
    H2727    H        0.48340    0.59600    0.59370    1.000
    C2340    C        0.47550    0.63260    0.56270    1.000
    H2728    H        0.48570    0.62260    0.54520    1.000
    H2729    H        0.48990    0.64700    0.57250    1.000
    H2730    H        0.45740    0.64390    0.55530    1.000
    C2341    C        0.61480    0.86829    0.80009    1.000
    C2342    C        0.61715    0.86206    0.76579    1.000
    C2343    C        0.63770    0.83527    0.75572    1.000
    H2731    H        0.63490    0.81780    0.76970    1.000
    H2732    H        0.63190    0.82880    0.73490    1.000
    C2344    C        0.67172    0.84560    0.75620    1.000
    C2345    C        0.68350    0.87410    0.75070    1.000
    H2733    H        0.67120    0.89150    0.74570    1.000
    C2346    C        0.71830    0.87500    0.75330    1.000
    H2734    H        0.73040    0.89290    0.75020    1.000
    C2347    C        0.73020    0.84720    0.76070    1.000
    H2735    H        0.75150    0.84330    0.76350    1.000
    S157     S        0.70123    0.81945    0.76460    1.000
    C2348    C        0.60007    0.88018    0.74652    1.000
    H2736    H        0.58680    0.89460    0.75620    1.000
    C2349    C        0.59969    0.88016    0.71264    1.000
    C2350    C        0.62212    0.87371    0.69055    1.000
    H2737    H        0.64190    0.86550    0.69490    1.000
    C2351    C        0.58201    0.89246    0.66460    1.000
    C2352    C        0.54624    0.90760    0.70830    1.000
    C2353    C        0.55104    0.94283    0.70929    1.000
    C2354    C        0.58087    0.95626    0.70889    1.000
    H2738    H        0.59850    0.94330    0.70880    1.000
    C2355    C        0.58461    0.98830    0.70861    1.000
    H2739    H        0.60470    0.99690    0.70830    1.000
    C2356    C        0.55872    0.00784    0.70883    1.000
    C2357    C        0.52899    0.99464    0.71012    1.000
    H2740    H        0.51140    0.00760    0.71110    1.000
    C2358    C        0.52529    0.96268    0.70996    1.000
    H2741    H        0.50520    0.95420    0.71030    1.000
    C2359    C        0.56265    0.04225    0.70684    1.000
    C2360    C        0.56112    0.90282    0.63852    1.000
    H2742    H        0.54930    0.92090    0.64520    1.000
    H2743    H        0.57380    0.90890    0.62090    1.000
    C2361    C        0.53800    0.87630    0.62900    1.000
    H2744    H        0.54960    0.85770    0.62270    1.000
    H2745    H        0.52470    0.87080    0.64670    1.000
    C2362    C        0.51760    0.88830    0.60130    1.000
    H2746    H        0.50930    0.90890    0.60640    1.000
    H2747    H        0.49990    0.87420    0.59830    1.000
    C2363    C        0.53640    0.89030    0.57060    1.000
    H2748    H        0.52310    0.89770    0.55400    1.000
    H2749    H        0.54430    0.86980    0.56530    1.000
    H2750    H        0.55370    0.90450    0.57330    1.000
    N157     N        0.61119    0.88112    0.66090    1.000
    N158     N        0.57414    0.89206    0.69531    1.000
    O313     O        0.62671    0.84916    0.81940    1.000
    O314     O        0.60118    0.89259    0.81055    1.000
    O315     O        0.59183    0.05117    0.70515    1.000
    H2751    H        0.59740    0.06960    0.70190    1.000
    O316     O        0.54078    0.06103    0.70711    1.000
    H2752    H        0.63110    0.81670    0.76670    1.000
    H2753    H        0.63430    0.83170    0.73370    1.000
    C2364    C        0.67240    0.83960    0.76050    1.000
    C2365    C        0.69440    0.82010    0.77120    1.000
    H2754    H        0.69050    0.79960    0.77750    1.000
    C2366    C        0.72600    0.83520    0.77170    1.000
    H2755    H        0.74420    0.82520    0.77860    1.000
    C2367    C        0.72540    0.86470    0.76110    1.000
    H2756    H        0.74280    0.87770    0.75950    1.000
    S158     S        0.68822    0.87523    0.75103    1.000
    H2757    H        0.54200    0.91090    0.64740    1.000
    H2758    H        0.57130    0.91990    0.62780    1.000
    C2368    C        0.55140    0.87670    0.61530    1.000
    H2759    H        0.56980    0.86520    0.60840    1.000
    H2760    H        0.53730    0.86210    0.62550    1.000
    C2369    C        0.53480    0.89230    0.58660    1.000
    H2761    H        0.54910    0.90700    0.57660    1.000
    H2762    H        0.51660    0.90400    0.59370    1.000
    C2370    C        0.52450    0.86740    0.56270    1.000
    H2763    H        0.51430    0.87740    0.54520    1.000
    H2764    H        0.51010    0.85300    0.57250    1.000
    H2765    H        0.54260    0.85610    0.55530    1.000
    C2371    C        0.11480    0.36829    0.30009    1.000
    C2372    C        0.11715    0.36206    0.26579    1.000
    C2373    C        0.13770    0.33527    0.25572    1.000
    H2766    H        0.13490    0.31780    0.26970    1.000
    H2767    H        0.13190    0.32880    0.23490    1.000
    C2374    C        0.17172    0.34560    0.25620    1.000
    C2375    C        0.18350    0.37410    0.25070    1.000
    H2768    H        0.17120    0.39150    0.24570    1.000
    C2376    C        0.21830    0.37500    0.25330    1.000
    H2769    H        0.23040    0.39290    0.25020    1.000
    C2377    C        0.23020    0.34720    0.26070    1.000
    H2770    H        0.25150    0.34330    0.26350    1.000
    S159     S        0.20123    0.31945    0.26460    1.000
    C2378    C        0.10007    0.38018    0.24652    1.000
    H2771    H        0.08680    0.39460    0.25620    1.000
    C2379    C        0.09969    0.38016    0.21264    1.000
    C2380    C        0.12212    0.37371    0.19055    1.000
    H2772    H        0.14190    0.36550    0.19490    1.000
    C2381    C        0.08201    0.39246    0.16460    1.000
    C2382    C        0.04624    0.40760    0.20830    1.000
    C2383    C        0.05104    0.44283    0.20929    1.000
    C2384    C        0.08087    0.45626    0.20889    1.000
    H2773    H        0.09850    0.44330    0.20880    1.000
    C2385    C        0.08461    0.48830    0.20861    1.000
    H2774    H        0.10470    0.49690    0.20830    1.000
    C2386    C        0.05872    0.50784    0.20883    1.000
    C2387    C        0.02899    0.49464    0.21012    1.000
    H2775    H        0.01140    0.50760    0.21110    1.000
    C2388    C        0.02529    0.46268    0.20996    1.000
    H2776    H        0.00520    0.45420    0.21030    1.000
    C2389    C        0.06265    0.54225    0.20684    1.000
    C2390    C        0.06112    0.40282    0.13852    1.000
    H2777    H        0.04930    0.42090    0.14520    1.000
    H2778    H        0.07380    0.40890    0.12090    1.000
    C2391    C        0.03800    0.37630    0.12900    1.000
    H2779    H        0.04960    0.35770    0.12270    1.000
    H2780    H        0.02470    0.37080    0.14670    1.000
    C2392    C        0.01760    0.38830    0.10130    1.000
    H2781    H        0.00930    0.40890    0.10640    1.000
    H2782    H        0.99990    0.37420    0.09830    1.000
    C2393    C        0.03640    0.39030    0.07060    1.000
    H2783    H        0.02310    0.39770    0.05400    1.000
    H2784    H        0.04430    0.36980    0.06530    1.000
    H2785    H        0.05370    0.40450    0.07330    1.000
    N159     N        0.11119    0.38112    0.16090    1.000
    N160     N        0.07414    0.39206    0.19531    1.000
    O317     O        0.12671    0.34916    0.31940    1.000
    O318     O        0.10118    0.39259    0.31055    1.000
    O319     O        0.09183    0.55117    0.20515    1.000
    H2786    H        0.09740    0.56960    0.20190    1.000
    O320     O        0.04078    0.56103    0.20711    1.000
    H2787    H        0.13110    0.31670    0.26670    1.000
    H2788    H        0.13430    0.33170    0.23370    1.000
    C2394    C        0.17240    0.33960    0.26050    1.000
    C2395    C        0.19440    0.32010    0.27120    1.000
    H2789    H        0.19050    0.29960    0.27750    1.000
    C2396    C        0.22600    0.33520    0.27170    1.000
    H2790    H        0.24420    0.32520    0.27860    1.000
    C2397    C        0.22540    0.36470    0.26110    1.000
    H2791    H        0.24280    0.37770    0.25950    1.000
    S160     S        0.18822    0.37523    0.25103    1.000
    H2792    H        0.04200    0.41090    0.14740    1.000
    H2793    H        0.07130    0.41990    0.12780    1.000
    C2398    C        0.05140    0.37670    0.11530    1.000
    H2794    H        0.06980    0.36520    0.10840    1.000
    H2795    H        0.03730    0.36210    0.12550    1.000
    C2399    C        0.03480    0.39230    0.08660    1.000
    H2796    H        0.04910    0.40700    0.07660    1.000
    H2797    H        0.01660    0.40400    0.09370    1.000
    C2400    C        0.02450    0.36740    0.06270    1.000
    H2798    H        0.01430    0.37740    0.04520    1.000
    H2799    H        0.01010    0.35300    0.07250    1.000
    H2800    H        0.04260    0.35610    0.05530    1.000
    C2401    C        0.86829    0.80009    0.61480    1.000
    C2402    C        0.86206    0.76579    0.61715    1.000
    C2403    C        0.83527    0.75572    0.63770    1.000
    H2801    H        0.81780    0.76970    0.63490    1.000
    H2802    H        0.82880    0.73490    0.63190    1.000
    C2404    C        0.84560    0.75620    0.67172    1.000
    C2405    C        0.87410    0.75070    0.68350    1.000
    H2803    H        0.89150    0.74570    0.67120    1.000
    C2406    C        0.87500    0.75330    0.71830    1.000
    H2804    H        0.89290    0.75020    0.73040    1.000
    C2407    C        0.84720    0.76070    0.73020    1.000
    H2805    H        0.84330    0.76350    0.75150    1.000
    S161     S        0.81945    0.76460    0.70123    1.000
    C2408    C        0.88018    0.74652    0.60007    1.000
    H2806    H        0.89460    0.75620    0.58680    1.000
    C2409    C        0.88016    0.71264    0.59969    1.000
    C2410    C        0.87371    0.69055    0.62212    1.000
    H2807    H        0.86550    0.69490    0.64190    1.000
    C2411    C        0.89246    0.66460    0.58201    1.000
    C2412    C        0.90760    0.70830    0.54624    1.000
    C2413    C        0.94283    0.70929    0.55104    1.000
    C2414    C        0.95626    0.70889    0.58087    1.000
    H2808    H        0.94330    0.70880    0.59850    1.000
    C2415    C        0.98830    0.70861    0.58461    1.000
    H2809    H        0.99690    0.70830    0.60470    1.000
    C2416    C        0.00784    0.70883    0.55872    1.000
    C2417    C        0.99464    0.71012    0.52899    1.000
    H2810    H        0.00760    0.71110    0.51140    1.000
    C2418    C        0.96268    0.70996    0.52529    1.000
    H2811    H        0.95420    0.71030    0.50520    1.000
    C2419    C        0.04225    0.70684    0.56265    1.000
    C2420    C        0.90282    0.63852    0.56112    1.000
    H2812    H        0.92090    0.64520    0.54930    1.000
    H2813    H        0.90890    0.62090    0.57380    1.000
    C2421    C        0.87630    0.62900    0.53800    1.000
    H2814    H        0.85770    0.62270    0.54960    1.000
    H2815    H        0.87080    0.64670    0.52470    1.000
    C2422    C        0.88830    0.60130    0.51760    1.000
    H2816    H        0.90890    0.60640    0.50930    1.000
    H2817    H        0.87420    0.59830    0.49990    1.000
    C2423    C        0.89030    0.57060    0.53640    1.000
    H2818    H        0.89770    0.55400    0.52310    1.000
    H2819    H        0.86980    0.56530    0.54430    1.000
    H2820    H        0.90450    0.57330    0.55370    1.000
    N161     N        0.88112    0.66090    0.61119    1.000
    N162     N        0.89206    0.69531    0.57414    1.000
    O321     O        0.84916    0.81940    0.62671    1.000
    O322     O        0.89259    0.81055    0.60118    1.000
    O323     O        0.05117    0.70515    0.59183    1.000
    H2821    H        0.06960    0.70190    0.59740    1.000
    O324     O        0.06103    0.70711    0.54078    1.000
    H2822    H        0.81670    0.76670    0.63110    1.000
    H2823    H        0.83170    0.73370    0.63430    1.000
    C2424    C        0.83960    0.76050    0.67240    1.000
    C2425    C        0.82010    0.77120    0.69440    1.000
    H2824    H        0.79960    0.77750    0.69050    1.000
    C2426    C        0.83520    0.77170    0.72600    1.000
    H2825    H        0.82520    0.77860    0.74420    1.000
    C2427    C        0.86470    0.76110    0.72540    1.000
    H2826    H        0.87770    0.75950    0.74280    1.000
    S162     S        0.87523    0.75103    0.68822    1.000
    H2827    H        0.91090    0.64740    0.54200    1.000
    H2828    H        0.91990    0.62780    0.57130    1.000
    C2428    C        0.87670    0.61530    0.55140    1.000
    H2829    H        0.86520    0.60840    0.56980    1.000
    H2830    H        0.86210    0.62550    0.53730    1.000
    C2429    C        0.89230    0.58660    0.53480    1.000
    H2831    H        0.90700    0.57660    0.54910    1.000
    H2832    H        0.90400    0.59370    0.51660    1.000
    C2430    C        0.86740    0.56270    0.52450    1.000
    H2833    H        0.87740    0.54520    0.51430    1.000
    H2834    H        0.85300    0.57250    0.51010    1.000
    H2835    H        0.85610    0.55530    0.54260    1.000
    C2431    C        0.36829    0.30009    0.11480    1.000
    C2432    C        0.36206    0.26579    0.11715    1.000
    C2433    C        0.33527    0.25572    0.13770    1.000
    H2836    H        0.31780    0.26970    0.13490    1.000
    H2837    H        0.32880    0.23490    0.13190    1.000
    C2434    C        0.34560    0.25620    0.17172    1.000
    C2435    C        0.37410    0.25070    0.18350    1.000
    H2838    H        0.39150    0.24570    0.17120    1.000
    C2436    C        0.37500    0.25330    0.21830    1.000
    H2839    H        0.39290    0.25020    0.23040    1.000
    C2437    C        0.34720    0.26070    0.23020    1.000
    H2840    H        0.34330    0.26350    0.25150    1.000
    S163     S        0.31945    0.26460    0.20123    1.000
    C2438    C        0.38018    0.24652    0.10007    1.000
    H2841    H        0.39460    0.25620    0.08680    1.000
    C2439    C        0.38016    0.21264    0.09969    1.000
    C2440    C        0.37371    0.19055    0.12212    1.000
    H2842    H        0.36550    0.19490    0.14190    1.000
    C2441    C        0.39246    0.16460    0.08201    1.000
    C2442    C        0.40760    0.20830    0.04624    1.000
    C2443    C        0.44283    0.20929    0.05104    1.000
    C2444    C        0.45626    0.20889    0.08087    1.000
    H2843    H        0.44330    0.20880    0.09850    1.000
    C2445    C        0.48830    0.20861    0.08461    1.000
    H2844    H        0.49690    0.20830    0.10470    1.000
    C2446    C        0.50784    0.20883    0.05872    1.000
    C2447    C        0.49464    0.21012    0.02899    1.000
    H2845    H        0.50760    0.21110    0.01140    1.000
    C2448    C        0.46268    0.20996    0.02529    1.000
    H2846    H        0.45420    0.21030    0.00520    1.000
    C2449    C        0.54225    0.20684    0.06265    1.000
    C2450    C        0.40282    0.13852    0.06112    1.000
    H2847    H        0.42090    0.14520    0.04930    1.000
    H2848    H        0.40890    0.12090    0.07380    1.000
    C2451    C        0.37630    0.12900    0.03800    1.000
    H2849    H        0.35770    0.12270    0.04960    1.000
    H2850    H        0.37080    0.14670    0.02470    1.000
    C2452    C        0.38830    0.10130    0.01760    1.000
    H2851    H        0.40890    0.10640    0.00930    1.000
    H2852    H        0.37420    0.09830    0.99990    1.000
    C2453    C        0.39030    0.07060    0.03640    1.000
    H2853    H        0.39770    0.05400    0.02310    1.000
    H2854    H        0.36980    0.06530    0.04430    1.000
    H2855    H        0.40450    0.07330    0.05370    1.000
    N163     N        0.38112    0.16090    0.11119    1.000
    N164     N        0.39206    0.19531    0.07414    1.000
    O325     O        0.34916    0.31940    0.12671    1.000
    O326     O        0.39259    0.31055    0.10118    1.000
    O327     O        0.55117    0.20515    0.09183    1.000
    H2856    H        0.56960    0.20190    0.09740    1.000
    O328     O        0.56103    0.20711    0.04078    1.000
    H2857    H        0.31670    0.26670    0.13110    1.000
    H2858    H        0.33170    0.23370    0.13430    1.000
    C2454    C        0.33960    0.26050    0.17240    1.000
    C2455    C        0.32010    0.27120    0.19440    1.000
    H2859    H        0.29960    0.27750    0.19050    1.000
    C2456    C        0.33520    0.27170    0.22600    1.000
    H2860    H        0.32520    0.27860    0.24420    1.000
    C2457    C        0.36470    0.26110    0.22540    1.000
    H2861    H        0.37770    0.25950    0.24280    1.000
    S164     S        0.37523    0.25103    0.18822    1.000
    H2862    H        0.41090    0.14740    0.04200    1.000
    H2863    H        0.41990    0.12780    0.07130    1.000
    C2458    C        0.37670    0.11530    0.05140    1.000
    H2864    H        0.36520    0.10840    0.06980    1.000
    H2865    H        0.36210    0.12550    0.03730    1.000
    C2459    C        0.39230    0.08660    0.03480    1.000
    H2866    H        0.40700    0.07660    0.04910    1.000
    H2867    H        0.40400    0.09370    0.01660    1.000
    C2460    C        0.36740    0.06270    0.02450    1.000
    H2868    H        0.37740    0.04520    0.01430    1.000
    H2869    H        0.35300    0.07250    0.01010    1.000
    H2870    H        0.35610    0.05530    0.04260    1.000
    C2461    C        0.13171    0.30009    0.88520    1.000
    C2462    C        0.13794    0.26579    0.88285    1.000
    C2463    C        0.16473    0.25572    0.86230    1.000
    H2871    H        0.18220    0.26970    0.86510    1.000
    H2872    H        0.17120    0.23490    0.86810    1.000
    C2464    C        0.15440    0.25620    0.82828    1.000
    C2465    C        0.12590    0.25070    0.81650    1.000
    H2873    H        0.10850    0.24570    0.82880    1.000
    C2466    C        0.12500    0.25330    0.78170    1.000
    H2874    H        0.10710    0.25020    0.76960    1.000
    C2467    C        0.15280    0.26070    0.76980    1.000
    H2875    H        0.15670    0.26350    0.74850    1.000
    S165     S        0.18055    0.26460    0.79877    1.000
    C2468    C        0.11982    0.24652    0.89993    1.000
    H2876    H        0.10540    0.25620    0.91320    1.000
    C2469    C        0.11984    0.21264    0.90031    1.000
    C2470    C        0.12629    0.19055    0.87788    1.000
    H2877    H        0.13450    0.19490    0.85810    1.000
    C2471    C        0.10754    0.16460    0.91799    1.000
    C2472    C        0.09240    0.20830    0.95376    1.000
    C2473    C        0.05717    0.20929    0.94896    1.000
    C2474    C        0.04374    0.20889    0.91913    1.000
    H2878    H        0.05670    0.20880    0.90150    1.000
    C2475    C        0.01170    0.20861    0.91539    1.000
    H2879    H        0.00310    0.20830    0.89530    1.000
    C2476    C        0.99216    0.20883    0.94128    1.000
    C2477    C        0.00536    0.21012    0.97101    1.000
    H2880    H        0.99240    0.21110    0.98860    1.000
    C2478    C        0.03732    0.20996    0.97471    1.000
    H2881    H        0.04580    0.21030    0.99480    1.000
    C2479    C        0.95775    0.20684    0.93735    1.000
    C2480    C        0.09718    0.13852    0.93888    1.000
    H2882    H        0.07910    0.14520    0.95070    1.000
    H2883    H        0.09110    0.12090    0.92620    1.000
    C2481    C        0.12370    0.12900    0.96200    1.000
    H2884    H        0.14230    0.12270    0.95040    1.000
    H2885    H        0.12920    0.14670    0.97530    1.000
    C2482    C        0.11170    0.10130    0.98240    1.000
    H2886    H        0.09110    0.10640    0.99070    1.000
    H2887    H        0.12580    0.09830    0.00010    1.000
    C2483    C        0.10970    0.07060    0.96360    1.000
    H2888    H        0.10230    0.05400    0.97690    1.000
    H2889    H        0.13020    0.06530    0.95570    1.000
    H2890    H        0.09550    0.07330    0.94630    1.000
    N165     N        0.11888    0.16090    0.88881    1.000
    N166     N        0.10794    0.19531    0.92586    1.000
    O329     O        0.15084    0.31940    0.87329    1.000
    O330     O        0.10741    0.31055    0.89882    1.000
    O331     O        0.94883    0.20515    0.90817    1.000
    H2891    H        0.93040    0.20190    0.90260    1.000
    O332     O        0.93897    0.20711    0.95922    1.000
    H2892    H        0.18330    0.26670    0.86890    1.000
    H2893    H        0.16830    0.23370    0.86570    1.000
    C2484    C        0.16040    0.26050    0.82760    1.000
    C2485    C        0.17990    0.27120    0.80560    1.000
    H2894    H        0.20040    0.27750    0.80950    1.000
    C2486    C        0.16480    0.27170    0.77400    1.000
    H2895    H        0.17480    0.27860    0.75580    1.000
    C2487    C        0.13530    0.26110    0.77460    1.000
    H2896    H        0.12230    0.25950    0.75720    1.000
    S166     S        0.12477    0.25103    0.81178    1.000
    H2897    H        0.08910    0.14740    0.95800    1.000
    H2898    H        0.08010    0.12780    0.92870    1.000
    C2488    C        0.12330    0.11530    0.94860    1.000
    H2899    H        0.13480    0.10840    0.93020    1.000
    H2900    H        0.13790    0.12550    0.96270    1.000
    C2489    C        0.10770    0.08660    0.96520    1.000
    H2901    H        0.09300    0.07660    0.95090    1.000
    H2902    H        0.09600    0.09370    0.98340    1.000
    C2490    C        0.13260    0.06270    0.97550    1.000
    H2903    H        0.12260    0.04520    0.98570    1.000
    H2904    H        0.14700    0.07250    0.98990    1.000
    H2905    H        0.14390    0.05530    0.95740    1.000
    C2491    C        0.63171    0.80009    0.38520    1.000
    C2492    C        0.63794    0.76579    0.38285    1.000
    C2493    C        0.66473    0.75572    0.36230    1.000
    H2906    H        0.68220    0.76970    0.36510    1.000
    H2907    H        0.67120    0.73490    0.36810    1.000
    C2494    C        0.65440    0.75620    0.32828    1.000
    C2495    C        0.62590    0.75070    0.31650    1.000
    H2908    H        0.60850    0.74570    0.32880    1.000
    C2496    C        0.62500    0.75330    0.28170    1.000
    H2909    H        0.60710    0.75020    0.26960    1.000
    C2497    C        0.65280    0.76070    0.26980    1.000
    H2910    H        0.65670    0.76350    0.24850    1.000
    S167     S        0.68055    0.76460    0.29877    1.000
    C2498    C        0.61982    0.74652    0.39993    1.000
    H2911    H        0.60540    0.75620    0.41320    1.000
    C2499    C        0.61984    0.71264    0.40031    1.000
    C2500    C        0.62629    0.69055    0.37788    1.000
    H2912    H        0.63450    0.69490    0.35810    1.000
    C2501    C        0.60754    0.66460    0.41799    1.000
    C2502    C        0.59240    0.70830    0.45376    1.000
    C2503    C        0.55717    0.70929    0.44896    1.000
    C2504    C        0.54374    0.70889    0.41913    1.000
    H2913    H        0.55670    0.70880    0.40150    1.000
    C2505    C        0.51170    0.70861    0.41539    1.000
    H2914    H        0.50310    0.70830    0.39530    1.000
    C2506    C        0.49216    0.70883    0.44128    1.000
    C2507    C        0.50536    0.71012    0.47101    1.000
    H2915    H        0.49240    0.71110    0.48860    1.000
    C2508    C        0.53732    0.70996    0.47471    1.000
    H2916    H        0.54580    0.71030    0.49480    1.000
    C2509    C        0.45775    0.70684    0.43735    1.000
    C2510    C        0.59718    0.63852    0.43888    1.000
    H2917    H        0.57910    0.64520    0.45070    1.000
    H2918    H        0.59110    0.62090    0.42620    1.000
    C2511    C        0.62370    0.62900    0.46200    1.000
    H2919    H        0.64230    0.62270    0.45040    1.000
    H2920    H        0.62920    0.64670    0.47530    1.000
    C2512    C        0.61170    0.60130    0.48240    1.000
    H2921    H        0.59110    0.60640    0.49070    1.000
    H2922    H        0.62580    0.59830    0.50010    1.000
    C2513    C        0.60970    0.57060    0.46360    1.000
    H2923    H        0.60230    0.55400    0.47690    1.000
    H2924    H        0.63020    0.56530    0.45570    1.000
    H2925    H        0.59550    0.57330    0.44630    1.000
    N167     N        0.61888    0.66090    0.38881    1.000
    N168     N        0.60794    0.69531    0.42586    1.000
    O333     O        0.65084    0.81940    0.37329    1.000
    O334     O        0.60741    0.81055    0.39882    1.000
    O335     O        0.44883    0.70515    0.40817    1.000
    H2926    H        0.43040    0.70190    0.40260    1.000
    O336     O        0.43897    0.70711    0.45922    1.000
    H2927    H        0.68330    0.76670    0.36890    1.000
    H2928    H        0.66830    0.73370    0.36570    1.000
    C2514    C        0.66040    0.76050    0.32760    1.000
    C2515    C        0.67990    0.77120    0.30560    1.000
    H2929    H        0.70040    0.77750    0.30950    1.000
    C2516    C        0.66480    0.77170    0.27400    1.000
    H2930    H        0.67480    0.77860    0.25580    1.000
    C2517    C        0.63530    0.76110    0.27460    1.000
    H2931    H        0.62230    0.75950    0.25720    1.000
    S168     S        0.62477    0.75103    0.31178    1.000
    H2932    H        0.58910    0.64740    0.45800    1.000
    H2933    H        0.58010    0.62780    0.42870    1.000
    C2518    C        0.62330    0.61530    0.44860    1.000
    H2934    H        0.63480    0.60840    0.43020    1.000
    H2935    H        0.63790    0.62550    0.46270    1.000
    C2519    C        0.60770    0.58660    0.46520    1.000
    H2936    H        0.59300    0.57660    0.45090    1.000
    H2937    H        0.59600    0.59370    0.48340    1.000
    C2520    C        0.63260    0.56270    0.47550    1.000
    H2938    H        0.62260    0.54520    0.48570    1.000
    H2939    H        0.64700    0.57250    0.48990    1.000
    H2940    H        0.64390    0.55530    0.45740    1.000
    C2521    C        0.63171    0.19991    0.11480    1.000
    C2522    C        0.63794    0.23421    0.11715    1.000
    C2523    C        0.66473    0.24428    0.13770    1.000
    H2941    H        0.68220    0.23030    0.13490    1.000
    H2942    H        0.67120    0.26510    0.13190    1.000
    C2524    C        0.65440    0.24380    0.17172    1.000
    C2525    C        0.62590    0.24930    0.18350    1.000
    H2943    H        0.60850    0.25430    0.17120    1.000
    C2526    C        0.62500    0.24670    0.21830    1.000
    H2944    H        0.60710    0.24980    0.23040    1.000
    C2527    C        0.65280    0.23930    0.23020    1.000
    H2945    H        0.65670    0.23650    0.25150    1.000
    S169     S        0.68055    0.23540    0.20123    1.000
    C2528    C        0.61982    0.25348    0.10007    1.000
    H2946    H        0.60540    0.24380    0.08680    1.000
    C2529    C        0.61984    0.28736    0.09969    1.000
    C2530    C        0.62629    0.30945    0.12212    1.000
    H2947    H        0.63450    0.30510    0.14190    1.000
    C2531    C        0.60754    0.33540    0.08201    1.000
    C2532    C        0.59240    0.29170    0.04624    1.000
    C2533    C        0.55717    0.29071    0.05104    1.000
    C2534    C        0.54374    0.29111    0.08087    1.000
    H2948    H        0.55670    0.29120    0.09850    1.000
    C2535    C        0.51170    0.29139    0.08461    1.000
    H2949    H        0.50310    0.29170    0.10470    1.000
    C2536    C        0.49216    0.29117    0.05872    1.000
    C2537    C        0.50536    0.28988    0.02899    1.000
    H2950    H        0.49240    0.28890    0.01140    1.000
    C2538    C        0.53732    0.29004    0.02529    1.000
    H2951    H        0.54580    0.28970    0.00520    1.000
    C2539    C        0.45775    0.29316    0.06265    1.000
    C2540    C        0.59718    0.36148    0.06112    1.000
    H2952    H        0.57910    0.35480    0.04930    1.000
    H2953    H        0.59110    0.37910    0.07380    1.000
    C2541    C        0.62370    0.37100    0.03800    1.000
    H2954    H        0.64230    0.37730    0.04960    1.000
    H2955    H        0.62920    0.35330    0.02470    1.000
    C2542    C        0.61170    0.39870    0.01760    1.000
    H2956    H        0.59110    0.39360    0.00930    1.000
    H2957    H        0.62580    0.40170    0.99990    1.000
    C2543    C        0.60970    0.42940    0.03640    1.000
    H2958    H        0.60230    0.44600    0.02310    1.000
    H2959    H        0.63020    0.43470    0.04430    1.000
    H2960    H        0.59550    0.42670    0.05370    1.000
    N169     N        0.61888    0.33910    0.11119    1.000
    N170     N        0.60794    0.30469    0.07414    1.000
    O337     O        0.65084    0.18060    0.12671    1.000
    O338     O        0.60741    0.18945    0.10118    1.000
    O339     O        0.44883    0.29485    0.09183    1.000
    H2961    H        0.43040    0.29810    0.09740    1.000
    O340     O        0.43897    0.29289    0.04078    1.000
    H2962    H        0.68330    0.23330    0.13110    1.000
    H2963    H        0.66830    0.26630    0.13430    1.000
    C2544    C        0.66040    0.23950    0.17240    1.000
    C2545    C        0.67990    0.22880    0.19440    1.000
    H2964    H        0.70040    0.22250    0.19050    1.000
    C2546    C        0.66480    0.22830    0.22600    1.000
    H2965    H        0.67480    0.22140    0.24420    1.000
    C2547    C        0.63530    0.23890    0.22540    1.000
    H2966    H        0.62230    0.24050    0.24280    1.000
    S170     S        0.62477    0.24897    0.18822    1.000
    H2967    H        0.58910    0.35260    0.04200    1.000
    H2968    H        0.58010    0.37220    0.07130    1.000
    C2548    C        0.62330    0.38470    0.05140    1.000
    H2969    H        0.63480    0.39160    0.06980    1.000
    H2970    H        0.63790    0.37450    0.03730    1.000
    C2549    C        0.60770    0.41340    0.03480    1.000
    H2971    H        0.59300    0.42340    0.04910    1.000
    H2972    H        0.59600    0.40630    0.01660    1.000
    C2550    C        0.63260    0.43730    0.02450    1.000
    H2973    H        0.62260    0.45480    0.01430    1.000
    H2974    H        0.64700    0.42750    0.01010    1.000
    H2975    H        0.64390    0.44470    0.04260    1.000
    C2551    C        0.13171    0.69991    0.61480    1.000
    C2552    C        0.13794    0.73421    0.61715    1.000
    C2553    C        0.16473    0.74428    0.63770    1.000
    H2976    H        0.18220    0.73030    0.63490    1.000
    H2977    H        0.17120    0.76510    0.63190    1.000
    C2554    C        0.15440    0.74380    0.67172    1.000
    C2555    C        0.12590    0.74930    0.68350    1.000
    H2978    H        0.10850    0.75430    0.67120    1.000
    C2556    C        0.12500    0.74670    0.71830    1.000
    H2979    H        0.10710    0.74980    0.73040    1.000
    C2557    C        0.15280    0.73930    0.73020    1.000
    H2980    H        0.15670    0.73650    0.75150    1.000
    S171     S        0.18055    0.73540    0.70123    1.000
    C2558    C        0.11982    0.75348    0.60007    1.000
    H2981    H        0.10540    0.74380    0.58680    1.000
    C2559    C        0.11984    0.78736    0.59969    1.000
    C2560    C        0.12629    0.80945    0.62212    1.000
    H2982    H        0.13450    0.80510    0.64190    1.000
    C2561    C        0.10754    0.83540    0.58201    1.000
    C2562    C        0.09240    0.79170    0.54624    1.000
    C2563    C        0.05717    0.79071    0.55104    1.000
    C2564    C        0.04374    0.79111    0.58087    1.000
    H2983    H        0.05670    0.79120    0.59850    1.000
    C2565    C        0.01170    0.79139    0.58461    1.000
    H2984    H        0.00310    0.79170    0.60470    1.000
    C2566    C        0.99216    0.79117    0.55872    1.000
    C2567    C        0.00536    0.78988    0.52899    1.000
    H2985    H        0.99240    0.78890    0.51140    1.000
    C2568    C        0.03732    0.79004    0.52529    1.000
    H2986    H        0.04580    0.78970    0.50520    1.000
    C2569    C        0.95775    0.79316    0.56265    1.000
    C2570    C        0.09718    0.86148    0.56112    1.000
    H2987    H        0.07910    0.85480    0.54930    1.000
    H2988    H        0.09110    0.87910    0.57380    1.000
    C2571    C        0.12370    0.87100    0.53800    1.000
    H2989    H        0.14230    0.87730    0.54960    1.000
    H2990    H        0.12920    0.85330    0.52470    1.000
    C2572    C        0.11170    0.89870    0.51760    1.000
    H2991    H        0.09110    0.89360    0.50930    1.000
    H2992    H        0.12580    0.90170    0.49990    1.000
    C2573    C        0.10970    0.92940    0.53640    1.000
    H2993    H        0.10230    0.94600    0.52310    1.000
    H2994    H        0.13020    0.93470    0.54430    1.000
    H2995    H        0.09550    0.92670    0.55370    1.000
    N171     N        0.11888    0.83910    0.61119    1.000
    N172     N        0.10794    0.80469    0.57414    1.000
    O341     O        0.15084    0.68060    0.62671    1.000
    O342     O        0.10741    0.68945    0.60118    1.000
    O343     O        0.94883    0.79485    0.59183    1.000
    H2996    H        0.93040    0.79810    0.59740    1.000
    O344     O        0.93897    0.79289    0.54078    1.000
    H2997    H        0.18330    0.73330    0.63110    1.000
    H2998    H        0.16830    0.76630    0.63430    1.000
    C2574    C        0.16040    0.73950    0.67240    1.000
    C2575    C        0.17990    0.72880    0.69440    1.000
    H2999    H        0.20040    0.72250    0.69050    1.000
    C2576    C        0.16480    0.72830    0.72600    1.000
    H3000    H        0.17480    0.72140    0.74420    1.000
    C2577    C        0.13530    0.73890    0.72540    1.000
    H3001    H        0.12230    0.74050    0.74280    1.000
    S172     S        0.12477    0.74897    0.68822    1.000
    H3002    H        0.08910    0.85260    0.54200    1.000
    H3003    H        0.08010    0.87220    0.57130    1.000
    C2578    C        0.12330    0.88470    0.55140    1.000
    H3004    H        0.13480    0.89160    0.56980    1.000
    H3005    H        0.13790    0.87450    0.53730    1.000
    C2579    C        0.10770    0.91340    0.53480    1.000
    H3006    H        0.09300    0.92340    0.54910    1.000
    H3007    H        0.09600    0.90630    0.51660    1.000
    C2580    C        0.13260    0.93730    0.52450    1.000
    H3008    H        0.12260    0.95480    0.51430    1.000
    H3009    H        0.14700    0.92750    0.51010    1.000
    H3010    H        0.14390    0.94470    0.54260    1.000
    C2581    C        0.36829    0.69991    0.38520    1.000
    C2582    C        0.36206    0.73421    0.38285    1.000
    C2583    C        0.33527    0.74428    0.36230    1.000
    H3011    H        0.31780    0.73030    0.36510    1.000
    H3012    H        0.32880    0.76510    0.36810    1.000
    C2584    C        0.34560    0.74380    0.32828    1.000
    C2585    C        0.37410    0.74930    0.31650    1.000
    H3013    H        0.39150    0.75430    0.32880    1.000
    C2586    C        0.37500    0.74670    0.28170    1.000
    H3014    H        0.39290    0.74980    0.26960    1.000
    C2587    C        0.34720    0.73930    0.26980    1.000
    H3015    H        0.34330    0.73650    0.24850    1.000
    S173     S        0.31945    0.73540    0.29877    1.000
    C2588    C        0.38018    0.75348    0.39993    1.000
    H3016    H        0.39460    0.74380    0.41320    1.000
    C2589    C        0.38016    0.78736    0.40031    1.000
    C2590    C        0.37371    0.80945    0.37788    1.000
    H3017    H        0.36550    0.80510    0.35810    1.000
    C2591    C        0.39246    0.83540    0.41799    1.000
    C2592    C        0.40760    0.79170    0.45376    1.000
    C2593    C        0.44283    0.79071    0.44896    1.000
    C2594    C        0.45626    0.79111    0.41913    1.000
    H3018    H        0.44330    0.79120    0.40150    1.000
    C2595    C        0.48830    0.79139    0.41539    1.000
    H3019    H        0.49690    0.79170    0.39530    1.000
    C2596    C        0.50784    0.79117    0.44128    1.000
    C2597    C        0.49464    0.78988    0.47101    1.000
    H3020    H        0.50760    0.78890    0.48860    1.000
    C2598    C        0.46268    0.79004    0.47471    1.000
    H3021    H        0.45420    0.78970    0.49480    1.000
    C2599    C        0.54225    0.79316    0.43735    1.000
    C2600    C        0.40282    0.86148    0.43888    1.000
    H3022    H        0.42090    0.85480    0.45070    1.000
    H3023    H        0.40890    0.87910    0.42620    1.000
    C2601    C        0.37630    0.87100    0.46200    1.000
    H3024    H        0.35770    0.87730    0.45040    1.000
    H3025    H        0.37080    0.85330    0.47530    1.000
    C2602    C        0.38830    0.89870    0.48240    1.000
    H3026    H        0.40890    0.89360    0.49070    1.000
    H3027    H        0.37420    0.90170    0.50010    1.000
    C2603    C        0.39030    0.92940    0.46360    1.000
    H3028    H        0.39770    0.94600    0.47690    1.000
    H3029    H        0.36980    0.93470    0.45570    1.000
    H3030    H        0.40450    0.92670    0.44630    1.000
    N173     N        0.38112    0.83910    0.38881    1.000
    N174     N        0.39206    0.80469    0.42586    1.000
    O345     O        0.34916    0.68060    0.37329    1.000
    O346     O        0.39259    0.68945    0.39882    1.000
    O347     O        0.55117    0.79485    0.40817    1.000
    H3031    H        0.56960    0.79810    0.40260    1.000
    O348     O        0.56103    0.79289    0.45922    1.000
    H3032    H        0.31670    0.73330    0.36890    1.000
    H3033    H        0.33170    0.76630    0.36570    1.000
    C2604    C        0.33960    0.73950    0.32760    1.000
    C2605    C        0.32010    0.72880    0.30560    1.000
    H3034    H        0.29960    0.72250    0.30950    1.000
    C2606    C        0.33520    0.72830    0.27400    1.000
    H3035    H        0.32520    0.72140    0.25580    1.000
    C2607    C        0.36470    0.73890    0.27460    1.000
    H3036    H        0.37770    0.74050    0.25720    1.000
    S174     S        0.37523    0.74897    0.31178    1.000
    H3037    H        0.41090    0.85260    0.45800    1.000
    H3038    H        0.41990    0.87220    0.42870    1.000
    C2608    C        0.37670    0.88470    0.44860    1.000
    H3039    H        0.36520    0.89160    0.43020    1.000
    H3040    H        0.36210    0.87450    0.46270    1.000
    C2609    C        0.39230    0.91340    0.46520    1.000
    H3041    H        0.40700    0.92340    0.45090    1.000
    H3042    H        0.40400    0.90630    0.48340    1.000
    C2610    C        0.36740    0.93730    0.47550    1.000
    H3043    H        0.37740    0.95480    0.48570    1.000
    H3044    H        0.35300    0.92750    0.48990    1.000
    H3045    H        0.35610    0.94470    0.45740    1.000
    C2611    C        0.86829    0.19991    0.88520    1.000
    C2612    C        0.86206    0.23421    0.88285    1.000
    C2613    C        0.83527    0.24428    0.86230    1.000
    H3046    H        0.81780    0.23030    0.86510    1.000
    H3047    H        0.82880    0.26510    0.86810    1.000
    C2614    C        0.84560    0.24380    0.82828    1.000
    C2615    C        0.87410    0.24930    0.81650    1.000
    H3048    H        0.89150    0.25430    0.82880    1.000
    C2616    C        0.87500    0.24670    0.78170    1.000
    H3049    H        0.89290    0.24980    0.76960    1.000
    C2617    C        0.84720    0.23930    0.76980    1.000
    H3050    H        0.84330    0.23650    0.74850    1.000
    S175     S        0.81945    0.23540    0.79877    1.000
    C2618    C        0.88018    0.25348    0.89993    1.000
    H3051    H        0.89460    0.24380    0.91320    1.000
    C2619    C        0.88016    0.28736    0.90031    1.000
    C2620    C        0.87371    0.30945    0.87788    1.000
    H3052    H        0.86550    0.30510    0.85810    1.000
    C2621    C        0.89246    0.33540    0.91799    1.000
    C2622    C        0.90760    0.29170    0.95376    1.000
    C2623    C        0.94283    0.29071    0.94896    1.000
    C2624    C        0.95626    0.29111    0.91913    1.000
    H3053    H        0.94330    0.29120    0.90150    1.000
    C2625    C        0.98830    0.29139    0.91539    1.000
    H3054    H        0.99690    0.29170    0.89530    1.000
    C2626    C        0.00784    0.29117    0.94128    1.000
    C2627    C        0.99464    0.28988    0.97101    1.000
    H3055    H        0.00760    0.28890    0.98860    1.000
    C2628    C        0.96268    0.29004    0.97471    1.000
    H3056    H        0.95420    0.28970    0.99480    1.000
    C2629    C        0.04225    0.29316    0.93735    1.000
    C2630    C        0.90282    0.36148    0.93888    1.000
    H3057    H        0.92090    0.35480    0.95070    1.000
    H3058    H        0.90890    0.37910    0.92620    1.000
    C2631    C        0.87630    0.37100    0.96200    1.000
    H3059    H        0.85770    0.37730    0.95040    1.000
    H3060    H        0.87080    0.35330    0.97530    1.000
    C2632    C        0.88830    0.39870    0.98240    1.000
    H3061    H        0.90890    0.39360    0.99070    1.000
    H3062    H        0.87420    0.40170    0.00010    1.000
    C2633    C        0.89030    0.42940    0.96360    1.000
    H3063    H        0.89770    0.44600    0.97690    1.000
    H3064    H        0.86980    0.43470    0.95570    1.000
    H3065    H        0.90450    0.42670    0.94630    1.000
    N175     N        0.88112    0.33910    0.88881    1.000
    N176     N        0.89206    0.30469    0.92586    1.000
    O349     O        0.84916    0.18060    0.87329    1.000
    O350     O        0.89259    0.18945    0.89882    1.000
    O351     O        0.05117    0.29485    0.90817    1.000
    H3066    H        0.06960    0.29810    0.90260    1.000
    O352     O        0.06103    0.29289    0.95922    1.000
    H3067    H        0.81670    0.23330    0.86890    1.000
    H3068    H        0.83170    0.26630    0.86570    1.000
    C2634    C        0.83960    0.23950    0.82760    1.000
    C2635    C        0.82010    0.22880    0.80560    1.000
    H3069    H        0.79960    0.22250    0.80950    1.000
    C2636    C        0.83520    0.22830    0.77400    1.000
    H3070    H        0.82520    0.22140    0.75580    1.000
    C2637    C        0.86470    0.23890    0.77460    1.000
    H3071    H        0.87770    0.24050    0.75720    1.000
    S176     S        0.87523    0.24897    0.81178    1.000
    H3072    H        0.91090    0.35260    0.95800    1.000
    H3073    H        0.91990    0.37220    0.92870    1.000
    C2638    C        0.87670    0.38470    0.94860    1.000
    H3074    H        0.86520    0.39160    0.93020    1.000
    H3075    H        0.86210    0.37450    0.96270    1.000
    C2639    C        0.89230    0.41340    0.96520    1.000
    H3076    H        0.90700    0.42340    0.95090    1.000
    H3077    H        0.90400    0.40630    0.98340    1.000
    C2640    C        0.86740    0.43730    0.97550    1.000
    H3078    H        0.87740    0.45480    0.98570    1.000
    H3079    H        0.85300    0.42750    0.98990    1.000
    H3080    H        0.85610    0.44470    0.95740    1.000
    C2641    C        0.30009    0.88520    0.13171    1.000
    C2642    C        0.26579    0.88285    0.13794    1.000
    C2643    C        0.25572    0.86230    0.16473    1.000
    H3081    H        0.26970    0.86510    0.18220    1.000
    H3082    H        0.23490    0.86810    0.17120    1.000
    C2644    C        0.25620    0.82828    0.15440    1.000
    C2645    C        0.25070    0.81650    0.12590    1.000
    H3083    H        0.24570    0.82880    0.10850    1.000
    C2646    C        0.25330    0.78170    0.12500    1.000
    H3084    H        0.25020    0.76960    0.10710    1.000
    C2647    C        0.26070    0.76980    0.15280    1.000
    H3085    H        0.26350    0.74850    0.15670    1.000
    S177     S        0.26460    0.79877    0.18055    1.000
    C2648    C        0.24652    0.89993    0.11982    1.000
    H3086    H        0.25620    0.91320    0.10540    1.000
    C2649    C        0.21264    0.90031    0.11984    1.000
    C2650    C        0.19055    0.87788    0.12629    1.000
    H3087    H        0.19490    0.85810    0.13450    1.000
    C2651    C        0.16460    0.91799    0.10754    1.000
    C2652    C        0.20830    0.95376    0.09240    1.000
    C2653    C        0.20929    0.94896    0.05717    1.000
    C2654    C        0.20889    0.91913    0.04374    1.000
    H3088    H        0.20880    0.90150    0.05670    1.000
    C2655    C        0.20861    0.91539    0.01170    1.000
    H3089    H        0.20830    0.89530    0.00310    1.000
    C2656    C        0.20883    0.94128    0.99216    1.000
    C2657    C        0.21012    0.97101    0.00536    1.000
    H3090    H        0.21110    0.98860    0.99240    1.000
    C2658    C        0.20996    0.97471    0.03732    1.000
    H3091    H        0.21030    0.99480    0.04580    1.000
    C2659    C        0.20684    0.93735    0.95775    1.000
    C2660    C        0.13852    0.93888    0.09718    1.000
    H3092    H        0.14520    0.95070    0.07910    1.000
    H3093    H        0.12090    0.92620    0.09110    1.000
    C2661    C        0.12900    0.96200    0.12370    1.000
    H3094    H        0.12270    0.95040    0.14230    1.000
    H3095    H        0.14670    0.97530    0.12920    1.000
    C2662    C        0.10130    0.98240    0.11170    1.000
    H3096    H        0.10640    0.99070    0.09110    1.000
    H3097    H        0.09830    0.00010    0.12580    1.000
    C2663    C        0.07060    0.96360    0.10970    1.000
    H3098    H        0.05400    0.97690    0.10230    1.000
    H3099    H        0.06530    0.95570    0.13020    1.000
    H3100    H        0.07330    0.94630    0.09550    1.000
    N177     N        0.16090    0.88881    0.11888    1.000
    N178     N        0.19531    0.92586    0.10794    1.000
    O353     O        0.31940    0.87329    0.15084    1.000
    O354     O        0.31055    0.89882    0.10741    1.000
    O355     O        0.20515    0.90817    0.94883    1.000
    H3101    H        0.20190    0.90260    0.93040    1.000
    O356     O        0.20711    0.95922    0.93897    1.000
    H3102    H        0.26670    0.86890    0.18330    1.000
    H3103    H        0.23370    0.86570    0.16830    1.000
    C2664    C        0.26050    0.82760    0.16040    1.000
    C2665    C        0.27120    0.80560    0.17990    1.000
    H3104    H        0.27750    0.80950    0.20040    1.000
    C2666    C        0.27170    0.77400    0.16480    1.000
    H3105    H        0.27860    0.75580    0.17480    1.000
    C2667    C        0.26110    0.77460    0.13530    1.000
    H3106    H        0.25950    0.75720    0.12230    1.000
    S178     S        0.25103    0.81178    0.12477    1.000
    H3107    H        0.14740    0.95800    0.08910    1.000
    H3108    H        0.12780    0.92870    0.08010    1.000
    C2668    C        0.11530    0.94860    0.12330    1.000
    H3109    H        0.10840    0.93020    0.13480    1.000
    H3110    H        0.12550    0.96270    0.13790    1.000
    C2669    C        0.08660    0.96520    0.10770    1.000
    H3111    H        0.07660    0.95090    0.09300    1.000
    H3112    H        0.09370    0.98340    0.09600    1.000
    C2670    C        0.06270    0.97550    0.13260    1.000
    H3113    H        0.04520    0.98570    0.12260    1.000
    H3114    H        0.07250    0.98990    0.14700    1.000
    H3115    H        0.05530    0.95740    0.14390    1.000
    C2671    C        0.80009    0.38520    0.63171    1.000
    C2672    C        0.76579    0.38285    0.63794    1.000
    C2673    C        0.75572    0.36230    0.66473    1.000
    H3116    H        0.76970    0.36510    0.68220    1.000
    H3117    H        0.73490    0.36810    0.67120    1.000
    C2674    C        0.75620    0.32828    0.65440    1.000
    C2675    C        0.75070    0.31650    0.62590    1.000
    H3118    H        0.74570    0.32880    0.60850    1.000
    C2676    C        0.75330    0.28170    0.62500    1.000
    H3119    H        0.75020    0.26960    0.60710    1.000
    C2677    C        0.76070    0.26980    0.65280    1.000
    H3120    H        0.76350    0.24850    0.65670    1.000
    S179     S        0.76460    0.29877    0.68055    1.000
    C2678    C        0.74652    0.39993    0.61982    1.000
    H3121    H        0.75620    0.41320    0.60540    1.000
    C2679    C        0.71264    0.40031    0.61984    1.000
    C2680    C        0.69055    0.37788    0.62629    1.000
    H3122    H        0.69490    0.35810    0.63450    1.000
    C2681    C        0.66460    0.41799    0.60754    1.000
    C2682    C        0.70830    0.45376    0.59240    1.000
    C2683    C        0.70929    0.44896    0.55717    1.000
    C2684    C        0.70889    0.41913    0.54374    1.000
    H3123    H        0.70880    0.40150    0.55670    1.000
    C2685    C        0.70861    0.41539    0.51170    1.000
    H3124    H        0.70830    0.39530    0.50310    1.000
    C2686    C        0.70883    0.44128    0.49216    1.000
    C2687    C        0.71012    0.47101    0.50536    1.000
    H3125    H        0.71110    0.48860    0.49240    1.000
    C2688    C        0.70996    0.47471    0.53732    1.000
    H3126    H        0.71030    0.49480    0.54580    1.000
    C2689    C        0.70684    0.43735    0.45775    1.000
    C2690    C        0.63852    0.43888    0.59718    1.000
    H3127    H        0.64520    0.45070    0.57910    1.000
    H3128    H        0.62090    0.42620    0.59110    1.000
    C2691    C        0.62900    0.46200    0.62370    1.000
    H3129    H        0.62270    0.45040    0.64230    1.000
    H3130    H        0.64670    0.47530    0.62920    1.000
    C2692    C        0.60130    0.48240    0.61170    1.000
    H3131    H        0.60640    0.49070    0.59110    1.000
    H3132    H        0.59830    0.50010    0.62580    1.000
    C2693    C        0.57060    0.46360    0.60970    1.000
    H3133    H        0.55400    0.47690    0.60230    1.000
    H3134    H        0.56530    0.45570    0.63020    1.000
    H3135    H        0.57330    0.44630    0.59550    1.000
    N179     N        0.66090    0.38881    0.61888    1.000
    N180     N        0.69531    0.42586    0.60794    1.000
    O357     O        0.81940    0.37329    0.65084    1.000
    O358     O        0.81055    0.39882    0.60741    1.000
    O359     O        0.70515    0.40817    0.44883    1.000
    H3136    H        0.70190    0.40260    0.43040    1.000
    O360     O        0.70711    0.45922    0.43897    1.000
    H3137    H        0.76670    0.36890    0.68330    1.000
    H3138    H        0.73370    0.36570    0.66830    1.000
    C2694    C        0.76050    0.32760    0.66040    1.000
    C2695    C        0.77120    0.30560    0.67990    1.000
    H3139    H        0.77750    0.30950    0.70040    1.000
    C2696    C        0.77170    0.27400    0.66480    1.000
    H3140    H        0.77860    0.25580    0.67480    1.000
    C2697    C        0.76110    0.27460    0.63530    1.000
    H3141    H        0.75950    0.25720    0.62230    1.000
    S180     S        0.75103    0.31178    0.62477    1.000
    H3142    H        0.64740    0.45800    0.58910    1.000
    H3143    H        0.62780    0.42870    0.58010    1.000
    C2698    C        0.61530    0.44860    0.62330    1.000
    H3144    H        0.60840    0.43020    0.63480    1.000
    H3145    H        0.62550    0.46270    0.63790    1.000
    C2699    C        0.58660    0.46520    0.60770    1.000
    H3146    H        0.57660    0.45090    0.59300    1.000
    H3147    H        0.59370    0.48340    0.59600    1.000
    C2700    C        0.56270    0.47550    0.63260    1.000
    H3148    H        0.54520    0.48570    0.62260    1.000
    H3149    H        0.57250    0.48990    0.64700    1.000
    H3150    H        0.55530    0.45740    0.64390    1.000
    C2701    C        0.80009    0.61480    0.86829    1.000
    C2702    C        0.76579    0.61715    0.86206    1.000
    C2703    C        0.75572    0.63770    0.83527    1.000
    H3151    H        0.76970    0.63490    0.81780    1.000
    H3152    H        0.73490    0.63190    0.82880    1.000
    C2704    C        0.75620    0.67172    0.84560    1.000
    C2705    C        0.75070    0.68350    0.87410    1.000
    H3153    H        0.74570    0.67120    0.89150    1.000
    C2706    C        0.75330    0.71830    0.87500    1.000
    H3154    H        0.75020    0.73040    0.89290    1.000
    C2707    C        0.76070    0.73020    0.84720    1.000
    H3155    H        0.76350    0.75150    0.84330    1.000
    S181     S        0.76460    0.70123    0.81945    1.000
    C2708    C        0.74652    0.60007    0.88018    1.000
    H3156    H        0.75620    0.58680    0.89460    1.000
    C2709    C        0.71264    0.59969    0.88016    1.000
    C2710    C        0.69055    0.62212    0.87371    1.000
    H3157    H        0.69490    0.64190    0.86550    1.000
    C2711    C        0.66460    0.58201    0.89246    1.000
    C2712    C        0.70830    0.54624    0.90760    1.000
    C2713    C        0.70929    0.55104    0.94283    1.000
    C2714    C        0.70889    0.58087    0.95626    1.000
    H3158    H        0.70880    0.59850    0.94330    1.000
    C2715    C        0.70861    0.58461    0.98830    1.000
    H3159    H        0.70830    0.60470    0.99690    1.000
    C2716    C        0.70883    0.55872    0.00784    1.000
    C2717    C        0.71012    0.52899    0.99464    1.000
    H3160    H        0.71110    0.51140    0.00760    1.000
    C2718    C        0.70996    0.52529    0.96268    1.000
    H3161    H        0.71030    0.50520    0.95420    1.000
    C2719    C        0.70684    0.56265    0.04225    1.000
    C2720    C        0.63852    0.56112    0.90282    1.000
    H3162    H        0.64520    0.54930    0.92090    1.000
    H3163    H        0.62090    0.57380    0.90890    1.000
    C2721    C        0.62900    0.53800    0.87630    1.000
    H3164    H        0.62270    0.54960    0.85770    1.000
    H3165    H        0.64670    0.52470    0.87080    1.000
    C2722    C        0.60130    0.51760    0.88830    1.000
    H3166    H        0.60640    0.50930    0.90890    1.000
    H3167    H        0.59830    0.49990    0.87420    1.000
    C2723    C        0.57060    0.53640    0.89030    1.000
    H3168    H        0.55400    0.52310    0.89770    1.000
    H3169    H        0.56530    0.54430    0.86980    1.000
    H3170    H        0.57330    0.55370    0.90450    1.000
    N181     N        0.66090    0.61119    0.88112    1.000
    N182     N        0.69531    0.57414    0.89206    1.000
    O361     O        0.81940    0.62671    0.84916    1.000
    O362     O        0.81055    0.60118    0.89259    1.000
    O363     O        0.70515    0.59183    0.05117    1.000
    H3171    H        0.70190    0.59740    0.06960    1.000
    O364     O        0.70711    0.54078    0.06103    1.000
    H3172    H        0.76670    0.63110    0.81670    1.000
    H3173    H        0.73370    0.63430    0.83170    1.000
    C2724    C        0.76050    0.67240    0.83960    1.000
    C2725    C        0.77120    0.69440    0.82010    1.000
    H3174    H        0.77750    0.69050    0.79960    1.000
    C2726    C        0.77170    0.72600    0.83520    1.000
    H3175    H        0.77860    0.74420    0.82520    1.000
    C2727    C        0.76110    0.72540    0.86470    1.000
    H3176    H        0.75950    0.74280    0.87770    1.000
    S182     S        0.75103    0.68822    0.87523    1.000
    H3177    H        0.64740    0.54200    0.91090    1.000
    H3178    H        0.62780    0.57130    0.91990    1.000
    C2728    C        0.61530    0.55140    0.87670    1.000
    H3179    H        0.60840    0.56980    0.86520    1.000
    H3180    H        0.62550    0.53730    0.86210    1.000
    C2729    C        0.58660    0.53480    0.89230    1.000
    H3181    H        0.57660    0.54910    0.90700    1.000
    H3182    H        0.59370    0.51660    0.90400    1.000
    C2730    C        0.56270    0.52450    0.86740    1.000
    H3183    H        0.54520    0.51430    0.87740    1.000
    H3184    H        0.57250    0.51010    0.85300    1.000
    H3185    H        0.55530    0.54260    0.85610    1.000
    C2731    C        0.30009    0.11480    0.36829    1.000
    C2732    C        0.26579    0.11715    0.36206    1.000
    C2733    C        0.25572    0.13770    0.33527    1.000
    H3186    H        0.26970    0.13490    0.31780    1.000
    H3187    H        0.23490    0.13190    0.32880    1.000
    C2734    C        0.25620    0.17172    0.34560    1.000
    C2735    C        0.25070    0.18350    0.37410    1.000
    H3188    H        0.24570    0.17120    0.39150    1.000
    C2736    C        0.25330    0.21830    0.37500    1.000
    H3189    H        0.25020    0.23040    0.39290    1.000
    C2737    C        0.26070    0.23020    0.34720    1.000
    H3190    H        0.26350    0.25150    0.34330    1.000
    S183     S        0.26460    0.20123    0.31945    1.000
    C2738    C        0.24652    0.10007    0.38018    1.000
    H3191    H        0.25620    0.08680    0.39460    1.000
    C2739    C        0.21264    0.09969    0.38016    1.000
    C2740    C        0.19055    0.12212    0.37371    1.000
    H3192    H        0.19490    0.14190    0.36550    1.000
    C2741    C        0.16460    0.08201    0.39246    1.000
    C2742    C        0.20830    0.04624    0.40760    1.000
    C2743    C        0.20929    0.05104    0.44283    1.000
    C2744    C        0.20889    0.08087    0.45626    1.000
    H3193    H        0.20880    0.09850    0.44330    1.000
    C2745    C        0.20861    0.08461    0.48830    1.000
    H3194    H        0.20830    0.10470    0.49690    1.000
    C2746    C        0.20883    0.05872    0.50784    1.000
    C2747    C        0.21012    0.02899    0.49464    1.000
    H3195    H        0.21110    0.01140    0.50760    1.000
    C2748    C        0.20996    0.02529    0.46268    1.000
    H3196    H        0.21030    0.00520    0.45420    1.000
    C2749    C        0.20684    0.06265    0.54225    1.000
    C2750    C        0.13852    0.06112    0.40282    1.000
    H3197    H        0.14520    0.04930    0.42090    1.000
    H3198    H        0.12090    0.07380    0.40890    1.000
    C2751    C        0.12900    0.03800    0.37630    1.000
    H3199    H        0.12270    0.04960    0.35770    1.000
    H3200    H        0.14670    0.02470    0.37080    1.000
    C2752    C        0.10130    0.01760    0.38830    1.000
    H3201    H        0.10640    0.00930    0.40890    1.000
    H3202    H        0.09830    0.99990    0.37420    1.000
    C2753    C        0.07060    0.03640    0.39030    1.000
    H3203    H        0.05400    0.02310    0.39770    1.000
    H3204    H        0.06530    0.04430    0.36980    1.000
    H3205    H        0.07330    0.05370    0.40450    1.000
    N183     N        0.16090    0.11119    0.38112    1.000
    N184     N        0.19531    0.07414    0.39206    1.000
    O365     O        0.31940    0.12671    0.34916    1.000
    O366     O        0.31055    0.10118    0.39259    1.000
    O367     O        0.20515    0.09183    0.55117    1.000
    H3206    H        0.20190    0.09740    0.56960    1.000
    O368     O        0.20711    0.04078    0.56103    1.000
    H3207    H        0.26670    0.13110    0.31670    1.000
    H3208    H        0.23370    0.13430    0.33170    1.000
    C2754    C        0.26050    0.17240    0.33960    1.000
    C2755    C        0.27120    0.19440    0.32010    1.000
    H3209    H        0.27750    0.19050    0.29960    1.000
    C2756    C        0.27170    0.22600    0.33520    1.000
    H3210    H        0.27860    0.24420    0.32520    1.000
    C2757    C        0.26110    0.22540    0.36470    1.000
    H3211    H        0.25950    0.24280    0.37770    1.000
    S184     S        0.25103    0.18822    0.37523    1.000
    H3212    H        0.14740    0.04200    0.41090    1.000
    H3213    H        0.12780    0.07130    0.41990    1.000
    C2758    C        0.11530    0.05140    0.37670    1.000
    H3214    H        0.10840    0.06980    0.36520    1.000
    H3215    H        0.12550    0.03730    0.36210    1.000
    C2759    C        0.08660    0.03480    0.39230    1.000
    H3216    H        0.07660    0.04910    0.40700    1.000
    H3217    H        0.09370    0.01660    0.40400    1.000
    C2760    C        0.06270    0.02450    0.36740    1.000
    H3218    H        0.04520    0.01430    0.37740    1.000
    H3219    H        0.07250    0.01010    0.35300    1.000
    H3220    H        0.05530    0.04260    0.35610    1.000
    C2761    C        0.69991    0.38520    0.36829    1.000
    C2762    C        0.73421    0.38285    0.36206    1.000
    C2763    C        0.74428    0.36230    0.33527    1.000
    H3221    H        0.73030    0.36510    0.31780    1.000
    H3222    H        0.76510    0.36810    0.32880    1.000
    C2764    C        0.74380    0.32828    0.34560    1.000
    C2765    C        0.74930    0.31650    0.37410    1.000
    H3223    H        0.75430    0.32880    0.39150    1.000
    C2766    C        0.74670    0.28170    0.37500    1.000
    H3224    H        0.74980    0.26960    0.39290    1.000
    C2767    C        0.73930    0.26980    0.34720    1.000
    H3225    H        0.73650    0.24850    0.34330    1.000
    S185     S        0.73540    0.29877    0.31945    1.000
    C2768    C        0.75348    0.39993    0.38018    1.000
    H3226    H        0.74380    0.41320    0.39460    1.000
    C2769    C        0.78736    0.40031    0.38016    1.000
    C2770    C        0.80945    0.37788    0.37371    1.000
    H3227    H        0.80510    0.35810    0.36550    1.000
    C2771    C        0.83540    0.41799    0.39246    1.000
    C2772    C        0.79170    0.45376    0.40760    1.000
    C2773    C        0.79071    0.44896    0.44283    1.000
    C2774    C        0.79111    0.41913    0.45626    1.000
    H3228    H        0.79120    0.40150    0.44330    1.000
    C2775    C        0.79139    0.41539    0.48830    1.000
    H3229    H        0.79170    0.39530    0.49690    1.000
    C2776    C        0.79117    0.44128    0.50784    1.000
    C2777    C        0.78988    0.47101    0.49464    1.000
    H3230    H        0.78890    0.48860    0.50760    1.000
    C2778    C        0.79004    0.47471    0.46268    1.000
    H3231    H        0.78970    0.49480    0.45420    1.000
    C2779    C        0.79316    0.43735    0.54225    1.000
    C2780    C        0.86148    0.43888    0.40282    1.000
    H3232    H        0.85480    0.45070    0.42090    1.000
    H3233    H        0.87910    0.42620    0.40890    1.000
    C2781    C        0.87100    0.46200    0.37630    1.000
    H3234    H        0.87730    0.45040    0.35770    1.000
    H3235    H        0.85330    0.47530    0.37080    1.000
    C2782    C        0.89870    0.48240    0.38830    1.000
    H3236    H        0.89360    0.49070    0.40890    1.000
    H3237    H        0.90170    0.50010    0.37420    1.000
    C2783    C        0.92940    0.46360    0.39030    1.000
    H3238    H        0.94600    0.47690    0.39770    1.000
    H3239    H        0.93470    0.45570    0.36980    1.000
    H3240    H        0.92670    0.44630    0.40450    1.000
    N185     N        0.83910    0.38881    0.38112    1.000
    N186     N        0.80469    0.42586    0.39206    1.000
    O369     O        0.68060    0.37329    0.34916    1.000
    O370     O        0.68945    0.39882    0.39259    1.000
    O371     O        0.79485    0.40817    0.55117    1.000
    H3241    H        0.79810    0.40260    0.56960    1.000
    O372     O        0.79289    0.45922    0.56103    1.000
    H3242    H        0.73330    0.36890    0.31670    1.000
    H3243    H        0.76630    0.36570    0.33170    1.000
    C2784    C        0.73950    0.32760    0.33960    1.000
    C2785    C        0.72880    0.30560    0.32010    1.000
    H3244    H        0.72250    0.30950    0.29960    1.000
    C2786    C        0.72830    0.27400    0.33520    1.000
    H3245    H        0.72140    0.25580    0.32520    1.000
    C2787    C        0.73890    0.27460    0.36470    1.000
    H3246    H        0.74050    0.25720    0.37770    1.000
    S186     S        0.74897    0.31178    0.37523    1.000
    H3247    H        0.85260    0.45800    0.41090    1.000
    H3248    H        0.87220    0.42870    0.41990    1.000
    C2788    C        0.88470    0.44860    0.37670    1.000
    H3249    H        0.89160    0.43020    0.36520    1.000
    H3250    H        0.87450    0.46270    0.36210    1.000
    C2789    C        0.91340    0.46520    0.39230    1.000
    H3251    H        0.92340    0.45090    0.40700    1.000
    H3252    H        0.90630    0.48340    0.40400    1.000
    C2790    C        0.93730    0.47550    0.36740    1.000
    H3253    H        0.95480    0.48570    0.37740    1.000
    H3254    H        0.92750    0.48990    0.35300    1.000
    H3255    H        0.94470    0.45740    0.35610    1.000
    C2791    C        0.19991    0.88520    0.86829    1.000
    C2792    C        0.23421    0.88285    0.86206    1.000
    C2793    C        0.24428    0.86230    0.83527    1.000
    H3256    H        0.23030    0.86510    0.81780    1.000
    H3257    H        0.26510    0.86810    0.82880    1.000
    C2794    C        0.24380    0.82828    0.84560    1.000
    C2795    C        0.24930    0.81650    0.87410    1.000
    H3258    H        0.25430    0.82880    0.89150    1.000
    C2796    C        0.24670    0.78170    0.87500    1.000
    H3259    H        0.24980    0.76960    0.89290    1.000
    C2797    C        0.23930    0.76980    0.84720    1.000
    H3260    H        0.23650    0.74850    0.84330    1.000
    S187     S        0.23540    0.79877    0.81945    1.000
    C2798    C        0.25348    0.89993    0.88018    1.000
    H3261    H        0.24380    0.91320    0.89460    1.000
    C2799    C        0.28736    0.90031    0.88016    1.000
    C2800    C        0.30945    0.87788    0.87371    1.000
    H3262    H        0.30510    0.85810    0.86550    1.000
    C2801    C        0.33540    0.91799    0.89246    1.000
    C2802    C        0.29170    0.95376    0.90760    1.000
    C2803    C        0.29071    0.94896    0.94283    1.000
    C2804    C        0.29111    0.91913    0.95626    1.000
    H3263    H        0.29120    0.90150    0.94330    1.000
    C2805    C        0.29139    0.91539    0.98830    1.000
    H3264    H        0.29170    0.89530    0.99690    1.000
    C2806    C        0.29117    0.94128    0.00784    1.000
    C2807    C        0.28988    0.97101    0.99464    1.000
    H3265    H        0.28890    0.98860    0.00760    1.000
    C2808    C        0.29004    0.97471    0.96268    1.000
    H3266    H        0.28970    0.99480    0.95420    1.000
    C2809    C        0.29316    0.93735    0.04225    1.000
    C2810    C        0.36148    0.93888    0.90282    1.000
    H3267    H        0.35480    0.95070    0.92090    1.000
    H3268    H        0.37910    0.92620    0.90890    1.000
    C2811    C        0.37100    0.96200    0.87630    1.000
    H3269    H        0.37730    0.95040    0.85770    1.000
    H3270    H        0.35330    0.97530    0.87080    1.000
    C2812    C        0.39870    0.98240    0.88830    1.000
    H3271    H        0.39360    0.99070    0.90890    1.000
    H3272    H        0.40170    0.00010    0.87420    1.000
    C2813    C        0.42940    0.96360    0.89030    1.000
    H3273    H        0.44600    0.97690    0.89770    1.000
    H3274    H        0.43470    0.95570    0.86980    1.000
    H3275    H        0.42670    0.94630    0.90450    1.000
    N187     N        0.33910    0.88881    0.88112    1.000
    N188     N        0.30469    0.92586    0.89206    1.000
    O373     O        0.18060    0.87329    0.84916    1.000
    O374     O        0.18945    0.89882    0.89259    1.000
    O375     O        0.29485    0.90817    0.05117    1.000
    H3276    H        0.29810    0.90260    0.06960    1.000
    O376     O        0.29289    0.95922    0.06103    1.000
    H3277    H        0.23330    0.86890    0.81670    1.000
    H3278    H        0.26630    0.86570    0.83170    1.000
    C2814    C        0.23950    0.82760    0.83960    1.000
    C2815    C        0.22880    0.80560    0.82010    1.000
    H3279    H        0.22250    0.80950    0.79960    1.000
    C2816    C        0.22830    0.77400    0.83520    1.000
    H3280    H        0.22140    0.75580    0.82520    1.000
    C2817    C        0.23890    0.77460    0.86470    1.000
    H3281    H        0.24050    0.75720    0.87770    1.000
    S188     S        0.24897    0.81178    0.87523    1.000
    H3282    H        0.35260    0.95800    0.91090    1.000
    H3283    H        0.37220    0.92870    0.91990    1.000
    C2818    C        0.38470    0.94860    0.87670    1.000
    H3284    H        0.39160    0.93020    0.86520    1.000
    H3285    H        0.37450    0.96270    0.86210    1.000
    C2819    C        0.41340    0.96520    0.89230    1.000
    H3286    H        0.42340    0.95090    0.90700    1.000
    H3287    H        0.40630    0.98340    0.90400    1.000
    C2820    C        0.43730    0.97550    0.86740    1.000
    H3288    H        0.45480    0.98570    0.87740    1.000
    H3289    H        0.42750    0.98990    0.85300    1.000
    H3290    H        0.44470    0.95740    0.85610    1.000
    C2821    C        0.19991    0.11480    0.63171    1.000
    C2822    C        0.23421    0.11715    0.63794    1.000
    C2823    C        0.24428    0.13770    0.66473    1.000
    H3291    H        0.23030    0.13490    0.68220    1.000
    H3292    H        0.26510    0.13190    0.67120    1.000
    C2824    C        0.24380    0.17172    0.65440    1.000
    C2825    C        0.24930    0.18350    0.62590    1.000
    H3293    H        0.25430    0.17120    0.60850    1.000
    C2826    C        0.24670    0.21830    0.62500    1.000
    H3294    H        0.24980    0.23040    0.60710    1.000
    C2827    C        0.23930    0.23020    0.65280    1.000
    H3295    H        0.23650    0.25150    0.65670    1.000
    S189     S        0.23540    0.20123    0.68055    1.000
    C2828    C        0.25348    0.10007    0.61982    1.000
    H3296    H        0.24380    0.08680    0.60540    1.000
    C2829    C        0.28736    0.09969    0.61984    1.000
    C2830    C        0.30945    0.12212    0.62629    1.000
    H3297    H        0.30510    0.14190    0.63450    1.000
    C2831    C        0.33540    0.08201    0.60754    1.000
    C2832    C        0.29170    0.04624    0.59240    1.000
    C2833    C        0.29071    0.05104    0.55717    1.000
    C2834    C        0.29111    0.08087    0.54374    1.000
    H3298    H        0.29120    0.09850    0.55670    1.000
    C2835    C        0.29139    0.08461    0.51170    1.000
    H3299    H        0.29170    0.10470    0.50310    1.000
    C2836    C        0.29117    0.05872    0.49216    1.000
    C2837    C        0.28988    0.02899    0.50536    1.000
    H3300    H        0.28890    0.01140    0.49240    1.000
    C2838    C        0.29004    0.02529    0.53732    1.000
    H3301    H        0.28970    0.00520    0.54580    1.000
    C2839    C        0.29316    0.06265    0.45775    1.000
    C2840    C        0.36148    0.06112    0.59718    1.000
    H3302    H        0.35480    0.04930    0.57910    1.000
    H3303    H        0.37910    0.07380    0.59110    1.000
    C2841    C        0.37100    0.03800    0.62370    1.000
    H3304    H        0.37730    0.04960    0.64230    1.000
    H3305    H        0.35330    0.02470    0.62920    1.000
    C2842    C        0.39870    0.01760    0.61170    1.000
    H3306    H        0.39360    0.00930    0.59110    1.000
    H3307    H        0.40170    0.99990    0.62580    1.000
    C2843    C        0.42940    0.03640    0.60970    1.000
    H3308    H        0.44600    0.02310    0.60230    1.000
    H3309    H        0.43470    0.04430    0.63020    1.000
    H3310    H        0.42670    0.05370    0.59550    1.000
    N189     N        0.33910    0.11119    0.61888    1.000
    N190     N        0.30469    0.07414    0.60794    1.000
    O377     O        0.18060    0.12671    0.65084    1.000
    O378     O        0.18945    0.10118    0.60741    1.000
    O379     O        0.29485    0.09183    0.44883    1.000
    H3311    H        0.29810    0.09740    0.43040    1.000
    O380     O        0.29289    0.04078    0.43897    1.000
    H3312    H        0.23330    0.13110    0.68330    1.000
    H3313    H        0.26630    0.13430    0.66830    1.000
    C2844    C        0.23950    0.17240    0.66040    1.000
    C2845    C        0.22880    0.19440    0.67990    1.000
    H3314    H        0.22250    0.19050    0.70040    1.000
    C2846    C        0.22830    0.22600    0.66480    1.000
    H3315    H        0.22140    0.24420    0.67480    1.000
    C2847    C        0.23890    0.22540    0.63530    1.000
    H3316    H        0.24050    0.24280    0.62230    1.000
    S190     S        0.24897    0.18822    0.62477    1.000
    H3317    H        0.35260    0.04200    0.58910    1.000
    H3318    H        0.37220    0.07130    0.58010    1.000
    C2848    C        0.38470    0.05140    0.62330    1.000
    H3319    H        0.39160    0.06980    0.63480    1.000
    H3320    H        0.37450    0.03730    0.63790    1.000
    C2849    C        0.41340    0.03480    0.60770    1.000
    H3321    H        0.42340    0.04910    0.59300    1.000
    H3322    H        0.40630    0.01660    0.59600    1.000
    C2850    C        0.43730    0.02450    0.63260    1.000
    H3323    H        0.45480    0.01430    0.62260    1.000
    H3324    H        0.42750    0.01010    0.64700    1.000
    H3325    H        0.44470    0.04260    0.64390    1.000
    C2851    C        0.69991    0.61480    0.13171    1.000
    C2852    C        0.73421    0.61715    0.13794    1.000
    C2853    C        0.74428    0.63770    0.16473    1.000
    H3326    H        0.73030    0.63490    0.18220    1.000
    H3327    H        0.76510    0.63190    0.17120    1.000
    C2854    C        0.74380    0.67172    0.15440    1.000
    C2855    C        0.74930    0.68350    0.12590    1.000
    H3328    H        0.75430    0.67120    0.10850    1.000
    C2856    C        0.74670    0.71830    0.12500    1.000
    H3329    H        0.74980    0.73040    0.10710    1.000
    C2857    C        0.73930    0.73020    0.15280    1.000
    H3330    H        0.73650    0.75150    0.15670    1.000
    S191     S        0.73540    0.70123    0.18055    1.000
    C2858    C        0.75348    0.60007    0.11982    1.000
    H3331    H        0.74380    0.58680    0.10540    1.000
    C2859    C        0.78736    0.59969    0.11984    1.000
    C2860    C        0.80945    0.62212    0.12629    1.000
    H3332    H        0.80510    0.64190    0.13450    1.000
    C2861    C        0.83540    0.58201    0.10754    1.000
    C2862    C        0.79170    0.54624    0.09240    1.000
    C2863    C        0.79071    0.55104    0.05717    1.000
    C2864    C        0.79111    0.58087    0.04374    1.000
    H3333    H        0.79120    0.59850    0.05670    1.000
    C2865    C        0.79139    0.58461    0.01170    1.000
    H3334    H        0.79170    0.60470    0.00310    1.000
    C2866    C        0.79117    0.55872    0.99216    1.000
    C2867    C        0.78988    0.52899    0.00536    1.000
    H3335    H        0.78890    0.51140    0.99240    1.000
    C2868    C        0.79004    0.52529    0.03732    1.000
    H3336    H        0.78970    0.50520    0.04580    1.000
    C2869    C        0.79316    0.56265    0.95775    1.000
    C2870    C        0.86148    0.56112    0.09718    1.000
    H3337    H        0.85480    0.54930    0.07910    1.000
    H3338    H        0.87910    0.57380    0.09110    1.000
    C2871    C        0.87100    0.53800    0.12370    1.000
    H3339    H        0.87730    0.54960    0.14230    1.000
    H3340    H        0.85330    0.52470    0.12920    1.000
    C2872    C        0.89870    0.51760    0.11170    1.000
    H3341    H        0.89360    0.50930    0.09110    1.000
    H3342    H        0.90170    0.49990    0.12580    1.000
    C2873    C        0.92940    0.53640    0.10970    1.000
    H3343    H        0.94600    0.52310    0.10230    1.000
    H3344    H        0.93470    0.54430    0.13020    1.000
    H3345    H        0.92670    0.55370    0.09550    1.000
    N191     N        0.83910    0.61119    0.11888    1.000
    N192     N        0.80469    0.57414    0.10794    1.000
    O381     O        0.68060    0.62671    0.15084    1.000
    O382     O        0.68945    0.60118    0.10741    1.000
    O383     O        0.79485    0.59183    0.94883    1.000
    H3346    H        0.79810    0.59740    0.93040    1.000
    O384     O        0.79289    0.54078    0.93897    1.000
    H3347    H        0.73330    0.63110    0.18330    1.000
    H3348    H        0.76630    0.63430    0.16830    1.000
    C2874    C        0.73950    0.67240    0.16040    1.000
    C2875    C        0.72880    0.69440    0.17990    1.000
    H3349    H        0.72250    0.69050    0.20040    1.000
    C2876    C        0.72830    0.72600    0.16480    1.000
    H3350    H        0.72140    0.74420    0.17480    1.000
    C2877    C        0.73890    0.72540    0.13530    1.000
    H3351    H        0.74050    0.74280    0.12230    1.000
    S192     S        0.74897    0.68822    0.12477    1.000
    H3352    H        0.85260    0.54200    0.08910    1.000
    H3353    H        0.87220    0.57130    0.08010    1.000
    C2878    C        0.88470    0.55140    0.12330    1.000
    H3354    H        0.89160    0.56980    0.13480    1.000
    H3355    H        0.87450    0.53730    0.13790    1.000
    C2879    C        0.91340    0.53480    0.10770    1.000
    H3356    H        0.92340    0.54910    0.09300    1.000
    H3357    H        0.90630    0.51660    0.09600    1.000
    C2880    C        0.93730    0.52450    0.13260    1.000
    H3358    H        0.95480    0.51430    0.12260    1.000
    H3359    H        0.92750    0.51010    0.14700    1.000
    H3360    H        0.94470    0.54260    0.14390    1.000
    Zn1      Zn       0.35920    0.89080    0.12500    1.000
    Zn2      Zn       0.14080    0.10920    0.62500    1.000
    Zn3      Zn       0.64080    0.39080    0.37500    1.000
    Zn4      Zn       0.85920    0.60920    0.87500    1.000
    Zn5      Zn       0.12500    0.35920    0.89080    1.000
    Zn6      Zn       0.62500    0.14080    0.10920    1.000
    Zn7      Zn       0.37500    0.64080    0.39080    1.000
    Zn8      Zn       0.87500    0.85920    0.60920    1.000
    Zn9      Zn       0.89080    0.12500    0.35920    1.000
    Zn10     Zn       0.10920    0.62500    0.14080    1.000
    Zn11     Zn       0.39080    0.37500    0.64080    1.000
    Zn12     Zn       0.60920    0.87500    0.85920    1.000
    Zn13     Zn       0.64080    0.60920    0.12500    1.000
    Zn14     Zn       0.85920    0.39080    0.62500    1.000
    Zn15     Zn       0.14080    0.89080    0.87500    1.000
    Zn16     Zn       0.35920    0.10920    0.37500    1.000
    Zn17     Zn       0.10920    0.37500    0.35920    1.000
    Zn18     Zn       0.89080    0.87500    0.14080    1.000
    Zn19     Zn       0.39080    0.62500    0.85920    1.000
    Zn20     Zn       0.60920    0.12500    0.64080    1.000
    Zn21     Zn       0.87500    0.14080    0.89080    1.000
    Zn22     Zn       0.37500    0.35920    0.10920    1.000
    Zn23     Zn       0.12500    0.64080    0.60920    1.000
    Zn24     Zn       0.62500    0.85920    0.39080    1.000
    Zn25     Zn       0.64080    0.10920    0.87500    1.000
    Zn26     Zn       0.85920    0.89080    0.37500    1.000
    Zn27     Zn       0.35920    0.60920    0.62500    1.000
    Zn28     Zn       0.14080    0.39080    0.12500    1.000
    Zn29     Zn       0.87500    0.64080    0.10920    1.000
    Zn30     Zn       0.37500    0.85920    0.89080    1.000
    Zn31     Zn       0.62500    0.35920    0.60920    1.000
    Zn32     Zn       0.12500    0.14080    0.39080    1.000
    Zn33     Zn       0.10920    0.87500    0.64080    1.000
    Zn34     Zn       0.89080    0.37500    0.85920    1.000
    Zn35     Zn       0.60920    0.62500    0.35920    1.000
    Zn36     Zn       0.39080    0.12500    0.14080    1.000
    Zn37     Zn       0.35920    0.39080    0.87500    1.000
    Zn38     Zn       0.14080    0.60920    0.37500    1.000
    Zn39     Zn       0.85920    0.10920    0.12500    1.000
    Zn40     Zn       0.64080    0.89080    0.62500    1.000
    Zn41     Zn       0.89080    0.62500    0.64080    1.000
    Zn42     Zn       0.10920    0.12500    0.85920    1.000
    Zn43     Zn       0.60920    0.37500    0.14080    1.000
    Zn44     Zn       0.39080    0.87500    0.35920    1.000
    Zn45     Zn       0.12500    0.85920    0.10920    1.000
    Zn46     Zn       0.62500    0.64080    0.89080    1.000
    Zn47     Zn       0.87500    0.35920    0.39080    1.000
    Zn48     Zn       0.37500    0.14080    0.60920    1.000
