# CIF file generated by openbabel 3.1.0, see https://openbabel.org
data_I
_chemical_name_common 'image0'
_cell_length_a 10.5105
_cell_length_b 11.439
_cell_length_c 13.4443
_cell_angle_alpha 68.998
_cell_angle_beta 78.805
_cell_angle_gamma 63.732
_space_group_name_H-M_alt 'P 1'
_space_group_name_Hall 'P 1'
loop_
    _symmetry_equiv_pos_as_xyz
    x,y,z
loop_
    _atom_site_label
    _atom_site_type_symbol
    _atom_site_fract_x
    _atom_site_fract_y
    _atom_site_fract_z
    _atom_site_occupancy
    U1       U        0.62220    0.71335    0.83679    1.000
    Tm1      Tm       0.59821    0.23153    0.75042    1.000
    C1       C        0.99480    0.34350    0.85360    1.000
    C2       C        0.11200    0.31410    0.90800    1.000
    H1       H        0.09860    0.36160    0.95530    1.000
    C3       C        0.24850    0.21610    0.89410    1.000
    C4       C        0.26500    0.14550    0.82310    1.000
    C5       C        0.14620    0.16620    0.77460    1.000
    H2       H        0.15750    0.11140    0.73370    1.000
    C6       C        0.01280    0.26650    0.78620    1.000
    C7       C        0.62560    0.99900    0.45210    1.000
    H3       H        0.71220    0.99870    0.41950    1.000
    C8       C        0.61660    0.87740    0.50450    1.000
    C9       C        0.48990    0.87420    0.55540    1.000
    C10      C        0.86400    0.46260    0.85720    1.000
    C11      C        0.36280    0.19500    0.95550    1.000
    C12      C        0.40700    0.04300    0.79540    1.000
    C13      C        0.89450    0.29180    0.72590    1.000
    C14      C        0.46810    0.74610    0.62010    1.000
    C15      C        0.74530    0.74700    0.50770    1.000
    O1       O        0.85160    0.53610    0.91480    1.000
    O2       O        0.76050    0.49620    0.80120    1.000
    O3       O        0.81200    0.23510    0.77120    1.000
    O4       O        0.88610    0.36240    0.62680    1.000
    O5       O        0.41750    0.92100    0.81850    1.000
    O6       O        0.50300    0.08010    0.75420    1.000
    O7       O        0.48460    0.18000    0.91520    1.000
    O8       O        0.32900    0.19490    0.05170    1.000
    O9       O        0.50180    0.69400    0.71720    1.000
    O10      O        0.41220    0.69940    0.57960    1.000
    O11      O        0.73500    0.63480    0.53490    1.000
    O12      O        0.86570    0.75050    0.47970    1.000
    U2       U        0.37780    0.28665    0.16321    1.000
    Tm2      Tm       0.40179    0.76847    0.24958    1.000
    C16      C        0.00520    0.65650    0.14640    1.000
    C17      C        0.88800    0.68590    0.09200    1.000
    H4       H        0.90140    0.63840    0.04470    1.000
    C18      C        0.75150    0.78390    0.10590    1.000
    C19      C        0.73500    0.85450    0.17690    1.000
    C20      C        0.85380    0.83380    0.22540    1.000
    H5       H        0.84250    0.88860    0.26630    1.000
    C21      C        0.98720    0.73350    0.21380    1.000
    C22      C        0.37440    0.00100    0.54790    1.000
    H6       H        0.28780    0.00130    0.58050    1.000
    C23      C        0.38340    0.12260    0.49550    1.000
    C24      C        0.51010    0.12580    0.44460    1.000
    C25      C        0.13600    0.53740    0.14280    1.000
    C26      C        0.63720    0.80500    0.04450    1.000
    C27      C        0.59300    0.95700    0.20460    1.000
    C28      C        0.10550    0.70820    0.27410    1.000
    C29      C        0.53190    0.25390    0.37990    1.000
    C30      C        0.25470    0.25300    0.49230    1.000
    O13      O        0.14840    0.46390    0.08520    1.000
    O14      O        0.23950    0.50380    0.19880    1.000
    O15      O        0.18800    0.76490    0.22880    1.000
    O16      O        0.11390    0.63760    0.37320    1.000
    O17      O        0.58250    0.07900    0.18150    1.000
    O18      O        0.49700    0.91990    0.24580    1.000
    O19      O        0.51540    0.82000    0.08480    1.000
    O20      O        0.67100    0.80510    0.94830    1.000
    O21      O        0.49820    0.30600    0.28280    1.000
    O22      O        0.58780    0.30060    0.42040    1.000
    O23      O        0.26500    0.36520    0.46510    1.000
    O24      O        0.13430    0.24950    0.52030    1.000
    U3       U        0.00000    0.50000    0.50000    1.000
