data_functionalizedCrystal
_audit_creation_method	'EQeq! by Chris Wilmer'
_symmetry_space_group_name_H-M	'P1'
_symmetry_Int_Tables_number	1
_symmetry_cell_setting	triclinic
loop_
_symmetry_equiv_pos_as_xyz
  x,y,z
_cell_length_a	12.6284
_cell_length_b	14.8265
_cell_length_c	16.1342
_cell_angle_alpha	117.353
_cell_angle_beta	101.841
_cell_angle_gamma	90
loop_
_atom_site_label
_atom_site_type_symbol
_atom_site_fract_x
_atom_site_fract_y
_atom_site_fract_z
_atom_site_charge
Mof_Nd	Nd	0.44282	0.96487	0.3598	2.219
Mof_Nd	Nd	0.05718	0.60506	0.64018	2.216
Mof_Nd	Nd	0.55718	0.03513	0.6402	2.218
Mof_Nd	Nd	0.94282	0.39493	0.35981	2.215
Mof_H 	H 	0.5773	0.8764	0.0624	0.017
Mof_H 	H 	0.6249	0.77	0.9206	0.066
Mof_H 	H 	0.5985	0.5337	0.9754	0.079
Mof_H 	H 	0.5452	0.6408	0.1156	0.028
Mof_H 	H 	0.5751	0.2992	0.6832	0.034
Mof_H 	H 	0.7701	0.5315	0.7142	0.048
Mof_H 	H 	0.6886	0.279	0.4602	0.007
Mof_H 	H 	0.639	0.605	0.802	0.041
Mof_H 	H 	0.9227	0.814	0.9376	0.015
Mof_H 	H 	0.8751	0.8494	0.0794	0.07
Mof_H 	H 	0.9015	0.5583	0.0246	0.082
Mof_H 	H 	0.9548	0.5252	0.8844	0.025
Mof_H 	H 	0.9249	0.616	0.3168	0.034
Mof_H 	H 	0.7299	0.8173	0.2858	0.048
Mof_H 	H 	0.8114	0.8188	0.5398	0.008
Mof_H 	H 	0.861	0.803	0.198	0.042
Mof_H 	H 	0.4227	0.1236	0.9376	0.017
Mof_H 	H 	0.3751	0.23	0.0794	0.066
Mof_H 	H 	0.4015	0.4663	0.0246	0.079
Mof_H 	H 	0.4548	0.3592	0.8844	0.028
Mof_H 	H 	0.4249	0.7008	0.3168	0.034
Mof_H 	H 	0.2299	0.4685	0.2858	0.048
Mof_H 	H 	0.3114	0.721	0.5398	0.007
Mof_H 	H 	0.361	0.395	0.198	0.041
Mof_H 	H 	0.0773	0.186	0.0624	0.015
Mof_H 	H 	0.1249	0.1506	0.9206	0.07
Mof_H 	H 	0.0985	0.4417	0.9754	0.082
Mof_H 	H 	0.0452	0.4748	0.1156	0.025
Mof_H 	H 	0.0751	0.384	0.6832	0.034
Mof_H 	H 	0.2701	0.1827	0.7142	0.048
Mof_H 	H 	0.1886	0.1812	0.4602	0.008
Mof_H 	H 	0.139	0.197	0.802	0.042
Mof_C 	C 	0.5106	0.8349	0.1888	0.325
Mof_C 	C 	0.5525	0.768	0.101	-0.108
Mof_C 	C 	0.5792	0.8071	0.0438	0.036
Mof_C 	C 	0.6089	0.7436	0.9594	-0.135
Mof_C 	C 	0.6148	0.6407	0.9322	0.077
Mof_C 	C 	0.5924	0.6021	0.9918	-0.125
Mof_C 	C 	0.5607	0.6664	0.076	0.037
Mof_C 	C 	0.6411	0.5749	0.8394	-0.03
Mof_C 	C 	0.5644	0.166	0.4984	0.43
Mof_C 	C 	0.6245	0.2721	0.5618	-0.147
Mof_C 	C 	0.616	0.3278	0.6576	-0.024
Mof_C 	C 	0.6694	0.4264	0.7138	0.038
Mof_C 	C 	0.733	0.4665	0.676	-0.013
Mof_C 	C 	0.7426	0.4114	0.5816	-0.156
Mof_C 	C 	0.6856	0.315	0.5244	0.074
Mof_C 	C 	0.8116	0.4557	0.5416	0.476
Mof_C 	C 	0.9894	0.6461	0.8112	0.328
Mof_C 	C 	0.9475	0.667	0.899	-0.114
Mof_C 	C 	0.9208	0.7633	0.9562	0.046
Mof_C 	C 	0.8911	0.7842	0.0406	-0.145
Mof_C 	C 	0.8852	0.7085	0.0678	0.083
Mof_C 	C 	0.9076	0.6103	0.0082	-0.134
Mof_C 	C 	0.9393	0.5904	0.924	0.046
Mof_C 	C 	0.8589	0.7355	0.1606	-0.033
Mof_C 	C 	0.9356	0.6676	0.5016	0.43
Mof_C 	C 	0.8755	0.7103	0.4382	-0.146
Mof_C 	C 	0.884	0.6702	0.3424	-0.024
Mof_C 	C 	0.8306	0.7126	0.2862	0.038
Mof_C 	C 	0.767	0.7905	0.324	-0.013
Mof_C 	C 	0.7574	0.8298	0.4184	-0.155
Mof_C 	C 	0.8144	0.7906	0.4756	0.074
Mof_C 	C 	0.6884	0.9141	0.4584	0.477
Mof_C 	C 	0.4894	0.1651	0.8112	0.325
Mof_C 	C 	0.4475	0.232	0.899	-0.108
Mof_C 	C 	0.4208	0.1929	0.9562	0.036
Mof_C 	C 	0.3911	0.2564	0.0406	-0.135
Mof_C 	C 	0.3852	0.3593	0.0678	0.077
Mof_C 	C 	0.4076	0.3979	0.0082	-0.125
Mof_C 	C 	0.4393	0.3336	0.924	0.037
Mof_C 	C 	0.3589	0.4251	0.1606	-0.03
Mof_C 	C 	0.4356	0.834	0.5016	0.43
Mof_C 	C 	0.3755	0.7279	0.4382	-0.147
Mof_C 	C 	0.384	0.6722	0.3424	-0.024
Mof_C 	C 	0.3306	0.5736	0.2862	0.038
Mof_C 	C 	0.267	0.5335	0.324	-0.013
Mof_C 	C 	0.2574	0.5886	0.4184	-0.156
Mof_C 	C 	0.3144	0.685	0.4756	0.074
Mof_C 	C 	0.1884	0.5443	0.4584	0.476
Mof_C 	C 	0.0106	0.3539	0.1888	0.328
Mof_C 	C 	0.0525	0.333	0.101	-0.114
Mof_C 	C 	0.0792	0.2367	0.0438	0.046
Mof_C 	C 	0.1089	0.2158	0.9594	-0.145
Mof_C 	C 	0.1148	0.2915	0.9322	0.083
Mof_C 	C 	0.0924	0.3897	0.9918	-0.134
Mof_C 	C 	0.0607	0.4096	0.076	0.046
Mof_C 	C 	0.1411	0.2645	0.8394	-0.033
Mof_C 	C 	0.0644	0.3324	0.4984	0.43
Mof_C 	C 	0.1245	0.2897	0.5618	-0.146
Mof_C 	C 	0.116	0.3298	0.6576	-0.024
Mof_C 	C 	0.1694	0.2874	0.7138	0.038
Mof_C 	C 	0.233	0.2095	0.676	-0.013
Mof_C 	C 	0.2426	0.1702	0.5816	-0.155
Mof_C 	C 	0.1856	0.2094	0.5244	0.074
Mof_C 	C 	0.3116	0.0859	0.5416	0.477
Mof_N 	N 	0.6523	0.48066	0.80832	-0.111
Mof_N 	N 	0.8477	0.67234	0.19168	-0.11
Mof_N 	N 	0.3477	0.51934	0.19168	-0.111
Mof_N 	N 	0.1523	0.32766	0.80832	-0.11
Mof_O 	O 	0.4722	0.79512	0.23124	-0.472
Mof_O 	O 	0.515	0.9293	0.2146	-0.465
Mof_O 	O 	0.5414	0.13224	0.40908	-0.506
Mof_O 	O 	0.5387	0.11491	0.53742	-0.646
Mof_O 	O 	0.8125	0.40359	0.45298	-0.576
Mof_O 	O 	0.8661	0.54049	0.59738	-0.521
Mof_O 	O 	0.0278	0.56388	0.76876	-0.474
Mof_O 	O 	0.985	0.7147	0.7854	-0.464
Mof_O 	O 	0.9586	0.72316	0.59092	-0.505
Mof_O 	O 	0.9613	0.57749	0.46258	-0.646
Mof_O 	O 	0.6875	0.95061	0.54702	-0.574
Mof_O 	O 	0.6339	0.94311	0.40262	-0.521
Mof_O 	O 	0.5278	0.20488	0.76876	-0.472
Mof_O 	O 	0.485	0.0707	0.7854	-0.465
Mof_O 	O 	0.4586	0.86776	0.59092	-0.506
Mof_O 	O 	0.4613	0.88509	0.46258	-0.646
Mof_O 	O 	0.1875	0.59641	0.54702	-0.576
Mof_O 	O 	0.1339	0.45951	0.40262	-0.521
Mof_O 	O 	0.9722	0.43612	0.23124	-0.474
Mof_O 	O 	0.015	0.2853	0.2146	-0.464
Mof_O 	O 	0.0414	0.27684	0.40908	-0.505
Mof_O 	O 	0.0387	0.42251	0.53742	-0.646
Mof_O 	O 	0.3125	0.04939	0.45298	-0.574
Mof_O 	O 	0.3661	0.05689	0.59738	-0.521
_end
