# CIF file generated by openbabel 3.1.0, see https://openbabel.org
data_I
_chemical_name_common 'image0'
_cell_length_a 15.456
_cell_length_b 33.898
_cell_length_c 17.976
_cell_angle_alpha 90
_cell_angle_beta 96.038
_cell_angle_gamma 90
_space_group_name_H-M_alt 'P 1'
_space_group_name_Hall 'P 1'
loop_
    _symmetry_equiv_pos_as_xyz
    x,y,z
loop_
    _atom_site_label
    _atom_site_type_symbol
    _atom_site_fract_x
    _atom_site_fract_y
    _atom_site_fract_z
    _atom_site_occupancy
    C1       C        0.69500    0.14510    0.65200    1.000
    C2       C        0.66810    0.10670    0.61700    1.000
    C3       C        0.67720    0.09090    0.54690    1.000
    C4       C        0.65800    0.05140    0.53250    1.000
    H1       H        0.66410    0.04090    0.48550    1.000
    C5       C        0.62980    0.02770    0.58820    1.000
    C6       C        0.62100    0.04340    0.65830    1.000
    H2       H        0.60190    0.02760    0.69560    1.000
    C7       C        0.63990    0.08290    0.67270    1.000
    H3       H        0.63380    0.09350    0.71960    1.000
    C8       C        0.89730    0.24120    0.62940    1.000
    C9       C        0.98450    0.24650    0.60210    1.000
    C10      C        0.04920    0.22290    0.62640    1.000
    H4       H        0.04130    0.20440    0.66330    1.000
    C11      C        0.12960    0.22530    0.59730    1.000
    H5       H        0.17520    0.20910    0.61650    1.000
    C12      C        0.14210    0.25140    0.54020    1.000
    C13      C        0.07440    0.27670    0.51720    1.000
    H6       H        0.08120    0.29550    0.48050    1.000
    C14      C        0.99570    0.27420    0.54880    1.000
    H7       H        0.95060    0.29150    0.53330    1.000
    C15      C        0.22090    0.25530    0.49980    1.000
    C16      C        0.56060    0.27430    0.61510    1.000
    H8       H        0.52990    0.25950    0.64720    1.000
    C17      C        0.66000    0.29220    0.55030    1.000
    H9       H        0.71080    0.29370    0.52700    1.000
    C18      C        0.58510    0.35120    0.49570    1.000
    H10      H        0.53640    0.34740    0.45770    1.000
    H11      H        0.63690    0.35470    0.47030    1.000
    C19      C        0.56990    0.38780    0.53850    1.000
    C20      C        0.63580    0.40420    0.58480    1.000
    C21      C        0.62870    0.43990    0.62400    1.000
    C22      C        0.54630    0.45700    0.61660    1.000
    H12      H        0.53760    0.47970    0.64410    1.000
    C23      C        0.47770    0.44210    0.57090    1.000
    C24      C        0.49140    0.40700    0.53350    1.000
    C25      C        0.38910    0.46050    0.56480    1.000
    H13      H        0.35980    0.45330    0.51570    1.000
    C26      C        0.36420    0.36690    0.52030    1.000
    H14      H        0.39260    0.35590    0.56640    1.000
    H15      H        0.34510    0.34520    0.48740    1.000
    C27      C        0.33700    0.44140    0.62410    1.000
    C28      C        0.33690    0.45740    0.69370    1.000
    H16      H        0.36560    0.48120    0.70460    1.000
    C29      C        0.29500    0.43890    0.74830    1.000
    C30      C        0.25340    0.40370    0.73140    1.000
    C31      C        0.25070    0.38710    0.66180    1.000
    C32      C        0.29410    0.40660    0.60750    1.000
    C33      C        0.70230    0.45690    0.67240    1.000
    H17      H        0.75510    0.44770    0.65210    1.000
    C34      C        0.26190    0.36370    0.84050    1.000
    H18      H        0.31490    0.35510    0.82090    1.000
    H19      H        0.23030    0.34020    0.85270    1.000
    N1       N        0.59520    0.31690    0.54090    1.000
    N2       N        0.52940    0.30620    0.58190    1.000
    N3       N        0.64140    0.26450    0.59890    1.000
    O1       O        0.70100    0.16590    0.71350    1.000
    O2       O        0.71400    0.16640    0.59600    1.000
    O3       O        0.83920    0.26550    0.60890    1.000
    O4       O        0.88340    0.21130    0.66590    1.000
    O5       O        0.71520    0.38510    0.59280    1.000
    O6       O        0.42390    0.39062    0.48590    1.000
    O7       O        0.28930    0.38998    0.53660    1.000
    O8       O        0.21140    0.38440    0.78440    1.000
    Cd1      Cd       0.73753    0.22121    0.66190    1.000
    C35      C        0.19890    0.35040    0.64160    1.000
    H20      H        0.14150    0.35300    0.65850    1.000
    H21      H        0.19160    0.34740    0.58770    1.000
    C36      C        0.33440    0.27200    0.70140    1.000
    H22      H        0.38560    0.25750    0.70280    1.000
    C37      C        0.20920    0.28910    0.72020    1.000
    H23      H        0.15410    0.28980    0.73650    1.000
    N4       N        0.24090    0.31590    0.67500    1.000
    N5       N        0.32120    0.30510    0.66230    1.000
    N6       N        0.26860    0.26170    0.73790    1.000
    C38      C        0.59200    0.98670    0.58300    1.000
    C39      C        0.58400    0.96350    0.52200    1.000
    C40      C        0.52700    0.92730    0.52210    1.000
    C41      C        0.44510    0.91840    0.54270    1.000
    H24      H        0.42350    0.93200    0.58160    1.000
    C42      C        0.42750    0.86850    0.44680    1.000
    C43      C        0.50940    0.87750    0.42630    1.000
    H25      H        0.53100    0.86380    0.38730    1.000
    C44      C        0.55920    0.90680    0.46390    1.000
    H26      H        0.61410    0.91280    0.45010    1.000
    C45      C        0.39530    0.88900    0.50500    1.000
    C46      C        0.70600    0.50160    0.67040    1.000
    H27      H        0.75540    0.51060    0.70280    1.000
    H28      H        0.65380    0.51230    0.68700    1.000
    H29      H        0.71120    0.51020    0.62020    1.000
    C47      C        0.37650    0.83480    0.40950    1.000
    O9       O        0.40110    0.81800    0.35420    1.000
    C48      C        0.39070    0.50590    0.56880    1.000
    H30      H        0.33220    0.51570    0.56520    1.000
    H31      H        0.41960    0.51610    0.52820    1.000
    H32      H        0.42140    0.51400    0.61540    1.000
    O10      O        0.29400    0.82860    0.42930    1.000
    C49      C        0.19500    0.64510    0.65200    1.000
    C50      C        0.16810    0.60670    0.61700    1.000
    C51      C        0.17720    0.59090    0.54690    1.000
    C52      C        0.15800    0.55140    0.53250    1.000
    H33      H        0.16410    0.54090    0.48550    1.000
    C53      C        0.12980    0.52770    0.58820    1.000
    C54      C        0.12100    0.54340    0.65830    1.000
    H34      H        0.10190    0.52760    0.69560    1.000
    C55      C        0.13990    0.58290    0.67270    1.000
    H35      H        0.13380    0.59350    0.71960    1.000
    C56      C        0.39730    0.74120    0.62940    1.000
    C57      C        0.48450    0.74650    0.60210    1.000
    C58      C        0.54920    0.72290    0.62640    1.000
    H36      H        0.54130    0.70440    0.66330    1.000
    C59      C        0.62960    0.72530    0.59730    1.000
    H37      H        0.67520    0.70910    0.61650    1.000
    C60      C        0.64210    0.75140    0.54020    1.000
    C61      C        0.57440    0.77670    0.51720    1.000
    H38      H        0.58120    0.79550    0.48050    1.000
    C62      C        0.49570    0.77420    0.54880    1.000
    H39      H        0.45060    0.79150    0.53330    1.000
    C63      C        0.72090    0.75530    0.49980    1.000
    C64      C        0.06060    0.77430    0.61510    1.000
    H40      H        0.02990    0.75950    0.64720    1.000
    C65      C        0.16000    0.79220    0.55030    1.000
    H41      H        0.21080    0.79370    0.52700    1.000
    C66      C        0.08510    0.85120    0.49570    1.000
    H42      H        0.03640    0.84740    0.45770    1.000
    H43      H        0.13690    0.85470    0.47030    1.000
    C67      C        0.06990    0.88780    0.53850    1.000
    C68      C        0.13580    0.90420    0.58480    1.000
    C69      C        0.12870    0.93990    0.62400    1.000
    C70      C        0.04630    0.95700    0.61660    1.000
    H44      H        0.03760    0.97970    0.64410    1.000
    C71      C        0.97770    0.94210    0.57090    1.000
    C72      C        0.99140    0.90700    0.53350    1.000
    C73      C        0.88910    0.96050    0.56480    1.000
    H45      H        0.85980    0.95330    0.51570    1.000
    C74      C        0.86420    0.86690    0.52030    1.000
    H46      H        0.89260    0.85590    0.56640    1.000
    H47      H        0.84510    0.84520    0.48740    1.000
    C75      C        0.83700    0.94140    0.62410    1.000
    C76      C        0.83690    0.95740    0.69370    1.000
    H48      H        0.86560    0.98120    0.70460    1.000
    C77      C        0.79500    0.93890    0.74830    1.000
    C78      C        0.75340    0.90370    0.73140    1.000
    C79      C        0.75070    0.88710    0.66180    1.000
    C80      C        0.79410    0.90660    0.60750    1.000
    C81      C        0.20230    0.95690    0.67240    1.000
    H49      H        0.25510    0.94770    0.65210    1.000
    C82      C        0.76190    0.86370    0.84050    1.000
    H50      H        0.81490    0.85510    0.82090    1.000
    H51      H        0.73030    0.84020    0.85270    1.000
    N7       N        0.09520    0.81690    0.54090    1.000
    N8       N        0.02940    0.80620    0.58190    1.000
    N9       N        0.14140    0.76450    0.59890    1.000
    O11      O        0.20100    0.66590    0.71350    1.000
    O12      O        0.21400    0.66640    0.59600    1.000
    O13      O        0.33920    0.76550    0.60890    1.000
    O14      O        0.38340    0.71130    0.66590    1.000
    O15      O        0.21520    0.88510    0.59280    1.000
    O16      O        0.92390    0.89062    0.48590    1.000
    O17      O        0.78930    0.88998    0.53660    1.000
    O18      O        0.71140    0.88440    0.78440    1.000
    Cd2      Cd       0.23753    0.72121    0.66190    1.000
    C83      C        0.69890    0.85040    0.64160    1.000
    H52      H        0.64150    0.85300    0.65850    1.000
    H53      H        0.69160    0.84740    0.58770    1.000
    C84      C        0.83440    0.77200    0.70140    1.000
    H54      H        0.88560    0.75750    0.70280    1.000
    C85      C        0.70920    0.78910    0.72020    1.000
    H55      H        0.65410    0.78980    0.73650    1.000
    N10      N        0.74090    0.81590    0.67500    1.000
    N11      N        0.82120    0.80510    0.66230    1.000
    N12      N        0.76860    0.76170    0.73790    1.000
    C86      C        0.09200    0.48670    0.58300    1.000
    C87      C        0.08400    0.46350    0.52200    1.000
    C88      C        0.02700    0.42730    0.52210    1.000
    C89      C        0.94510    0.41840    0.54270    1.000
    H56      H        0.92350    0.43200    0.58160    1.000
    C90      C        0.92750    0.36850    0.44680    1.000
    C91      C        0.00940    0.37750    0.42630    1.000
    H57      H        0.03100    0.36380    0.38730    1.000
    C92      C        0.05920    0.40680    0.46390    1.000
    H58      H        0.11410    0.41280    0.45010    1.000
    C93      C        0.89530    0.38900    0.50500    1.000
    C94      C        0.20600    0.00160    0.67040    1.000
    H59      H        0.25540    0.01060    0.70280    1.000
    H60      H        0.15380    0.01230    0.68700    1.000
    H61      H        0.21120    0.01020    0.62020    1.000
    C95      C        0.87650    0.33480    0.40950    1.000
    O19      O        0.90110    0.31800    0.35420    1.000
    C96      C        0.89070    0.00590    0.56880    1.000
    H62      H        0.83220    0.01570    0.56520    1.000
    H63      H        0.91960    0.01610    0.52820    1.000
    H64      H        0.92140    0.01400    0.61540    1.000
    O20      O        0.79400    0.32860    0.42930    1.000
    C97      C        0.30500    0.14510    0.84800    1.000
    C98      C        0.33190    0.10670    0.88300    1.000
    C99      C        0.32280    0.09090    0.95310    1.000
    C100     C        0.34200    0.05140    0.96750    1.000
    H65      H        0.33590    0.04090    0.01450    1.000
    C101     C        0.37020    0.02770    0.91180    1.000
    C102     C        0.37900    0.04340    0.84170    1.000
    H66      H        0.39810    0.02760    0.80440    1.000
    C103     C        0.36010    0.08290    0.82730    1.000
    H67      H        0.36620    0.09350    0.78040    1.000
    C104     C        0.10270    0.24120    0.87060    1.000
    C105     C        0.01550    0.24650    0.89790    1.000
    C106     C        0.95080    0.22290    0.87360    1.000
    H68      H        0.95870    0.20440    0.83670    1.000
    C107     C        0.87040    0.22530    0.90270    1.000
    H69      H        0.82480    0.20910    0.88350    1.000
    C108     C        0.85790    0.25140    0.95980    1.000
    C109     C        0.92560    0.27670    0.98280    1.000
    H70      H        0.91880    0.29550    0.01950    1.000
    C110     C        0.00430    0.27420    0.95120    1.000
    H71      H        0.04940    0.29150    0.96670    1.000
    C111     C        0.77910    0.25530    0.00020    1.000
    C112     C        0.43940    0.27430    0.88490    1.000
    H72      H        0.47010    0.25950    0.85280    1.000
    C113     C        0.34000    0.29220    0.94970    1.000
    H73      H        0.28920    0.29370    0.97300    1.000
    C114     C        0.41490    0.35120    0.00430    1.000
    H74      H        0.46360    0.34740    0.04230    1.000
    H75      H        0.36310    0.35470    0.02970    1.000
    C115     C        0.43010    0.38780    0.96150    1.000
    C116     C        0.36420    0.40420    0.91520    1.000
    C117     C        0.37130    0.43990    0.87600    1.000
    C118     C        0.45370    0.45700    0.88340    1.000
    H76      H        0.46240    0.47970    0.85590    1.000
    C119     C        0.52230    0.44210    0.92910    1.000
    C120     C        0.50860    0.40700    0.96650    1.000
    C121     C        0.61090    0.46050    0.93520    1.000
    H77      H        0.64020    0.45330    0.98430    1.000
    C122     C        0.63580    0.36690    0.97970    1.000
    H78      H        0.60740    0.35590    0.93360    1.000
    H79      H        0.65490    0.34520    0.01260    1.000
    C123     C        0.66300    0.44140    0.87590    1.000
    C124     C        0.66310    0.45740    0.80630    1.000
    H80      H        0.63440    0.48120    0.79540    1.000
    C125     C        0.70500    0.43890    0.75170    1.000
    C126     C        0.74660    0.40370    0.76860    1.000
    C127     C        0.74930    0.38710    0.83820    1.000
    C128     C        0.70590    0.40660    0.89250    1.000
    C129     C        0.29770    0.45690    0.82760    1.000
    H81      H        0.24490    0.44770    0.84790    1.000
    C130     C        0.73810    0.36370    0.65950    1.000
    H82      H        0.68510    0.35510    0.67910    1.000
    H83      H        0.76970    0.34020    0.64730    1.000
    N13      N        0.40480    0.31690    0.95910    1.000
    N14      N        0.47060    0.30620    0.91810    1.000
    N15      N        0.35860    0.26450    0.90110    1.000
    O21      O        0.29900    0.16590    0.78650    1.000
    O22      O        0.28600    0.16640    0.90400    1.000
    O23      O        0.16080    0.26550    0.89110    1.000
    O24      O        0.11660    0.21130    0.83410    1.000
    O25      O        0.28480    0.38510    0.90720    1.000
    O26      O        0.57610    0.39062    0.01410    1.000
    O27      O        0.71070    0.38998    0.96340    1.000
    O28      O        0.78860    0.38440    0.71560    1.000
    Cd3      Cd       0.26247    0.22121    0.83810    1.000
    C131     C        0.80110    0.35040    0.85840    1.000
    H84      H        0.85850    0.35300    0.84150    1.000
    H85      H        0.80840    0.34740    0.91230    1.000
    C132     C        0.66560    0.27200    0.79860    1.000
    H86      H        0.61440    0.25750    0.79720    1.000
    C133     C        0.79080    0.28910    0.77980    1.000
    H87      H        0.84590    0.28980    0.76350    1.000
    N16      N        0.75910    0.31590    0.82500    1.000
    N17      N        0.67880    0.30510    0.83770    1.000
    N18      N        0.73140    0.26170    0.76210    1.000
    C134     C        0.40800    0.98670    0.91700    1.000
    C135     C        0.41600    0.96350    0.97800    1.000
    C136     C        0.47300    0.92730    0.97790    1.000
    C137     C        0.55490    0.91840    0.95730    1.000
    H88      H        0.57650    0.93200    0.91840    1.000
    C138     C        0.57250    0.86850    0.05320    1.000
    C139     C        0.49060    0.87750    0.07370    1.000
    H89      H        0.46900    0.86380    0.11270    1.000
    C140     C        0.44080    0.90680    0.03610    1.000
    H90      H        0.38590    0.91280    0.04990    1.000
    C141     C        0.60470    0.88900    0.99500    1.000
    C142     C        0.29400    0.50160    0.82960    1.000
    H91      H        0.24460    0.51060    0.79720    1.000
    H92      H        0.34620    0.51230    0.81300    1.000
    H93      H        0.28880    0.51020    0.87980    1.000
    C143     C        0.62350    0.83480    0.09050    1.000
    O29      O        0.59890    0.81800    0.14580    1.000
    C144     C        0.60930    0.50590    0.93120    1.000
    H94      H        0.66780    0.51570    0.93480    1.000
    H95      H        0.58040    0.51610    0.97180    1.000
    H96      H        0.57860    0.51400    0.88460    1.000
    O30      O        0.70600    0.82860    0.07070    1.000
    C145     C        0.80500    0.64510    0.84800    1.000
    C146     C        0.83190    0.60670    0.88300    1.000
    C147     C        0.82280    0.59090    0.95310    1.000
    C148     C        0.84200    0.55140    0.96750    1.000
    H97      H        0.83590    0.54090    0.01450    1.000
    C149     C        0.87020    0.52770    0.91180    1.000
    C150     C        0.87900    0.54340    0.84170    1.000
    H98      H        0.89810    0.52760    0.80440    1.000
    C151     C        0.86010    0.58290    0.82730    1.000
    H99      H        0.86620    0.59350    0.78040    1.000
    C152     C        0.60270    0.74120    0.87060    1.000
    C153     C        0.51550    0.74650    0.89790    1.000
    C154     C        0.45080    0.72290    0.87360    1.000
    H100     H        0.45870    0.70440    0.83670    1.000
    C155     C        0.37040    0.72530    0.90270    1.000
    H101     H        0.32480    0.70910    0.88350    1.000
    C156     C        0.35790    0.75140    0.95980    1.000
    C157     C        0.42560    0.77670    0.98280    1.000
    H102     H        0.41880    0.79550    0.01950    1.000
    C158     C        0.50430    0.77420    0.95120    1.000
    H103     H        0.54940    0.79150    0.96670    1.000
    C159     C        0.27910    0.75530    0.00020    1.000
    C160     C        0.93940    0.77430    0.88490    1.000
    H104     H        0.97010    0.75950    0.85280    1.000
    C161     C        0.84000    0.79220    0.94970    1.000
    H105     H        0.78920    0.79370    0.97300    1.000
    C162     C        0.91490    0.85120    0.00430    1.000
    H106     H        0.96360    0.84740    0.04230    1.000
    H107     H        0.86310    0.85470    0.02970    1.000
    C163     C        0.93010    0.88780    0.96150    1.000
    C164     C        0.86420    0.90420    0.91520    1.000
    C165     C        0.87130    0.93990    0.87600    1.000
    C166     C        0.95370    0.95700    0.88340    1.000
    H108     H        0.96240    0.97970    0.85590    1.000
    C167     C        0.02230    0.94210    0.92910    1.000
    C168     C        0.00860    0.90700    0.96650    1.000
    C169     C        0.11090    0.96050    0.93520    1.000
    H109     H        0.14020    0.95330    0.98430    1.000
    C170     C        0.13580    0.86690    0.97970    1.000
    H110     H        0.10740    0.85590    0.93360    1.000
    H111     H        0.15490    0.84520    0.01260    1.000
    C171     C        0.16300    0.94140    0.87590    1.000
    C172     C        0.16310    0.95740    0.80630    1.000
    H112     H        0.13440    0.98120    0.79540    1.000
    C173     C        0.20500    0.93890    0.75170    1.000
    C174     C        0.24660    0.90370    0.76860    1.000
    C175     C        0.24930    0.88710    0.83820    1.000
    C176     C        0.20590    0.90660    0.89250    1.000
    C177     C        0.79770    0.95690    0.82760    1.000
    H113     H        0.74490    0.94770    0.84790    1.000
    C178     C        0.23810    0.86370    0.65950    1.000
    H114     H        0.18510    0.85510    0.67910    1.000
    H115     H        0.26970    0.84020    0.64730    1.000
    N19      N        0.90480    0.81690    0.95910    1.000
    N20      N        0.97060    0.80620    0.91810    1.000
    N21      N        0.85860    0.76450    0.90110    1.000
    O31      O        0.79900    0.66590    0.78650    1.000
    O32      O        0.78600    0.66640    0.90400    1.000
    O33      O        0.66080    0.76550    0.89110    1.000
    O34      O        0.61660    0.71130    0.83410    1.000
    O35      O        0.78480    0.88510    0.90720    1.000
    O36      O        0.07610    0.89062    0.01410    1.000
    O37      O        0.21070    0.88998    0.96340    1.000
    O38      O        0.28860    0.88440    0.71560    1.000
    Cd4      Cd       0.76247    0.72121    0.83810    1.000
    C179     C        0.30110    0.85040    0.85840    1.000
    H116     H        0.35850    0.85300    0.84150    1.000
    H117     H        0.30840    0.84740    0.91230    1.000
    C180     C        0.16560    0.77200    0.79860    1.000
    H118     H        0.11440    0.75750    0.79720    1.000
    C181     C        0.29080    0.78910    0.77980    1.000
    H119     H        0.34590    0.78980    0.76350    1.000
    N22      N        0.25910    0.81590    0.82500    1.000
    N23      N        0.17880    0.80510    0.83770    1.000
    N24      N        0.23140    0.76170    0.76210    1.000
    C182     C        0.90800    0.48670    0.91700    1.000
    C183     C        0.91600    0.46350    0.97800    1.000
    C184     C        0.97300    0.42730    0.97790    1.000
    C185     C        0.05490    0.41840    0.95730    1.000
    H120     H        0.07650    0.43200    0.91840    1.000
    C186     C        0.07250    0.36850    0.05320    1.000
    C187     C        0.99060    0.37750    0.07370    1.000
    H121     H        0.96900    0.36380    0.11270    1.000
    C188     C        0.94080    0.40680    0.03610    1.000
    H122     H        0.88590    0.41280    0.04990    1.000
    C189     C        0.10470    0.38900    0.99500    1.000
    C190     C        0.79400    0.00160    0.82960    1.000
    H123     H        0.74460    0.01060    0.79720    1.000
    H124     H        0.84620    0.01230    0.81300    1.000
    H125     H        0.78880    0.01020    0.87980    1.000
    C191     C        0.12350    0.33480    0.09050    1.000
    O39      O        0.09890    0.31800    0.14580    1.000
    C192     C        0.10930    0.00590    0.93120    1.000
    H126     H        0.16780    0.01570    0.93480    1.000
    H127     H        0.08040    0.01610    0.97180    1.000
    H128     H        0.07860    0.01400    0.88460    1.000
    O40      O        0.20600    0.32860    0.07070    1.000
    C193     C        0.30500    0.85490    0.34800    1.000
    C194     C        0.33190    0.89330    0.38300    1.000
    C195     C        0.32280    0.90910    0.45310    1.000
    C196     C        0.34200    0.94860    0.46750    1.000
    H129     H        0.33590    0.95910    0.51450    1.000
    C197     C        0.37020    0.97230    0.41180    1.000
    C198     C        0.37900    0.95660    0.34170    1.000
    H130     H        0.39810    0.97240    0.30440    1.000
    C199     C        0.36010    0.91710    0.32730    1.000
    H131     H        0.36620    0.90650    0.28040    1.000
    C200     C        0.10270    0.75880    0.37060    1.000
    C201     C        0.01550    0.75350    0.39790    1.000
    C202     C        0.95080    0.77710    0.37360    1.000
    H132     H        0.95870    0.79560    0.33670    1.000
    C203     C        0.87040    0.77470    0.40270    1.000
    H133     H        0.82480    0.79090    0.38350    1.000
    C204     C        0.85790    0.74860    0.45980    1.000
    C205     C        0.92560    0.72330    0.48280    1.000
    H134     H        0.91880    0.70450    0.51950    1.000
    C206     C        0.00430    0.72580    0.45120    1.000
    H135     H        0.04940    0.70850    0.46670    1.000
    C207     C        0.77910    0.74470    0.50020    1.000
    C208     C        0.43940    0.72570    0.38490    1.000
    H136     H        0.47010    0.74050    0.35280    1.000
    C209     C        0.34000    0.70780    0.44970    1.000
    H137     H        0.28920    0.70630    0.47300    1.000
    C210     C        0.41490    0.64880    0.50430    1.000
    H138     H        0.46360    0.65260    0.54230    1.000
    H139     H        0.36310    0.64530    0.52970    1.000
    C211     C        0.43010    0.61220    0.46150    1.000
    C212     C        0.36420    0.59580    0.41520    1.000
    C213     C        0.37130    0.56010    0.37600    1.000
    C214     C        0.45370    0.54300    0.38340    1.000
    H140     H        0.46240    0.52030    0.35590    1.000
    C215     C        0.52230    0.55790    0.42910    1.000
    C216     C        0.50860    0.59300    0.46650    1.000
    C217     C        0.61090    0.53950    0.43520    1.000
    H141     H        0.64020    0.54670    0.48430    1.000
    C218     C        0.63580    0.63310    0.47970    1.000
    H142     H        0.60740    0.64410    0.43360    1.000
    H143     H        0.65490    0.65480    0.51260    1.000
    C219     C        0.66300    0.55860    0.37590    1.000
    C220     C        0.66310    0.54260    0.30630    1.000
    H144     H        0.63440    0.51880    0.29540    1.000
    C221     C        0.70500    0.56110    0.25170    1.000
    C222     C        0.74660    0.59630    0.26860    1.000
    C223     C        0.74930    0.61290    0.33820    1.000
    C224     C        0.70590    0.59340    0.39250    1.000
    C225     C        0.29770    0.54310    0.32760    1.000
    H145     H        0.24490    0.55230    0.34790    1.000
    C226     C        0.73810    0.63630    0.15950    1.000
    H146     H        0.68510    0.64490    0.17910    1.000
    H147     H        0.76970    0.65980    0.14730    1.000
    N25      N        0.40480    0.68310    0.45910    1.000
    N26      N        0.47060    0.69380    0.41810    1.000
    N27      N        0.35860    0.73550    0.40110    1.000
    O41      O        0.29900    0.83410    0.28650    1.000
    O42      O        0.28600    0.83360    0.40400    1.000
    O43      O        0.16080    0.73450    0.39110    1.000
    O44      O        0.11660    0.78870    0.33410    1.000
    O45      O        0.28480    0.61490    0.40720    1.000
    O46      O        0.57610    0.60938    0.51410    1.000
    O47      O        0.71070    0.61002    0.46340    1.000
    O48      O        0.78860    0.61560    0.21560    1.000
    Cd5      Cd       0.26247    0.77879    0.33810    1.000
    C227     C        0.80110    0.64960    0.35840    1.000
    H148     H        0.85850    0.64700    0.34150    1.000
    H149     H        0.80840    0.65260    0.41230    1.000
    C228     C        0.66560    0.72800    0.29860    1.000
    H150     H        0.61440    0.74250    0.29720    1.000
    C229     C        0.79080    0.71090    0.27980    1.000
    H151     H        0.84590    0.71020    0.26350    1.000
    N28      N        0.75910    0.68410    0.32500    1.000
    N29      N        0.67880    0.69490    0.33770    1.000
    N30      N        0.73140    0.73830    0.26210    1.000
    C230     C        0.40800    0.01330    0.41700    1.000
    C231     C        0.41600    0.03650    0.47800    1.000
    C232     C        0.47300    0.07270    0.47790    1.000
    C233     C        0.55490    0.08160    0.45730    1.000
    H152     H        0.57650    0.06800    0.41840    1.000
    C234     C        0.57250    0.13150    0.55320    1.000
    C235     C        0.49060    0.12250    0.57370    1.000
    H153     H        0.46900    0.13620    0.61270    1.000
    C236     C        0.44080    0.09320    0.53610    1.000
    H154     H        0.38590    0.08720    0.54990    1.000
    C237     C        0.60470    0.11100    0.49500    1.000
    C238     C        0.29400    0.49840    0.32960    1.000
    H155     H        0.24460    0.48940    0.29720    1.000
    H156     H        0.34620    0.48770    0.31300    1.000
    H157     H        0.28880    0.48980    0.37980    1.000
    C239     C        0.62350    0.16520    0.59050    1.000
    O49      O        0.59890    0.18200    0.64580    1.000
    C240     C        0.60930    0.49410    0.43120    1.000
    H158     H        0.66780    0.48430    0.43480    1.000
    H159     H        0.58040    0.48390    0.47180    1.000
    H160     H        0.57860    0.48600    0.38460    1.000
    O50      O        0.70600    0.17140    0.57070    1.000
    C241     C        0.80500    0.35490    0.34800    1.000
    C242     C        0.83190    0.39330    0.38300    1.000
    C243     C        0.82280    0.40910    0.45310    1.000
    C244     C        0.84200    0.44860    0.46750    1.000
    H161     H        0.83590    0.45910    0.51450    1.000
    C245     C        0.87020    0.47230    0.41180    1.000
    C246     C        0.87900    0.45660    0.34170    1.000
    H162     H        0.89810    0.47240    0.30440    1.000
    C247     C        0.86010    0.41710    0.32730    1.000
    H163     H        0.86620    0.40650    0.28040    1.000
    C248     C        0.60270    0.25880    0.37060    1.000
    C249     C        0.51550    0.25350    0.39790    1.000
    C250     C        0.45080    0.27710    0.37360    1.000
    H164     H        0.45870    0.29560    0.33670    1.000
    C251     C        0.37040    0.27470    0.40270    1.000
    H165     H        0.32480    0.29090    0.38350    1.000
    C252     C        0.35790    0.24860    0.45980    1.000
    C253     C        0.42560    0.22330    0.48280    1.000
    H166     H        0.41880    0.20450    0.51950    1.000
    C254     C        0.50430    0.22580    0.45120    1.000
    H167     H        0.54940    0.20850    0.46670    1.000
    C255     C        0.27910    0.24470    0.50020    1.000
    C256     C        0.93940    0.22570    0.38490    1.000
    H168     H        0.97010    0.24050    0.35280    1.000
    C257     C        0.84000    0.20780    0.44970    1.000
    H169     H        0.78920    0.20630    0.47300    1.000
    C258     C        0.91490    0.14880    0.50430    1.000
    H170     H        0.96360    0.15260    0.54230    1.000
    H171     H        0.86310    0.14530    0.52970    1.000
    C259     C        0.93010    0.11220    0.46150    1.000
    C260     C        0.86420    0.09580    0.41520    1.000
    C261     C        0.87130    0.06010    0.37600    1.000
    C262     C        0.95370    0.04300    0.38340    1.000
    H172     H        0.96240    0.02030    0.35590    1.000
    C263     C        0.02230    0.05790    0.42910    1.000
    C264     C        0.00860    0.09300    0.46650    1.000
    C265     C        0.11090    0.03950    0.43520    1.000
    H173     H        0.14020    0.04670    0.48430    1.000
    C266     C        0.13580    0.13310    0.47970    1.000
    H174     H        0.10740    0.14410    0.43360    1.000
    H175     H        0.15490    0.15480    0.51260    1.000
    C267     C        0.16300    0.05860    0.37590    1.000
    C268     C        0.16310    0.04260    0.30630    1.000
    H176     H        0.13440    0.01880    0.29540    1.000
    C269     C        0.20500    0.06110    0.25170    1.000
    C270     C        0.24660    0.09630    0.26860    1.000
    C271     C        0.24930    0.11290    0.33820    1.000
    C272     C        0.20590    0.09340    0.39250    1.000
    C273     C        0.79770    0.04310    0.32760    1.000
    H177     H        0.74490    0.05230    0.34790    1.000
    C274     C        0.23810    0.13630    0.15950    1.000
    H178     H        0.18510    0.14490    0.17910    1.000
    H179     H        0.26970    0.15980    0.14730    1.000
    N31      N        0.90480    0.18310    0.45910    1.000
    N32      N        0.97060    0.19380    0.41810    1.000
    N33      N        0.85860    0.23550    0.40110    1.000
    O51      O        0.79900    0.33410    0.28650    1.000
    O52      O        0.78600    0.33360    0.40400    1.000
    O53      O        0.66080    0.23450    0.39110    1.000
    O54      O        0.61660    0.28870    0.33410    1.000
    O55      O        0.78480    0.11490    0.40720    1.000
    O56      O        0.07610    0.10938    0.51410    1.000
    O57      O        0.21070    0.11002    0.46340    1.000
    O58      O        0.28860    0.11560    0.21560    1.000
    Cd6      Cd       0.76247    0.27879    0.33810    1.000
    C275     C        0.30110    0.14960    0.35840    1.000
    H180     H        0.35850    0.14700    0.34150    1.000
    H181     H        0.30840    0.15260    0.41230    1.000
    C276     C        0.16560    0.22800    0.29860    1.000
    H182     H        0.11440    0.24250    0.29720    1.000
    C277     C        0.29080    0.21090    0.27980    1.000
    H183     H        0.34590    0.21020    0.26350    1.000
    N34      N        0.25910    0.18410    0.32500    1.000
    N35      N        0.17880    0.19490    0.33770    1.000
    N36      N        0.23140    0.23830    0.26210    1.000
    C278     C        0.90800    0.51330    0.41700    1.000
    C279     C        0.91600    0.53650    0.47800    1.000
    C280     C        0.97300    0.57270    0.47790    1.000
    C281     C        0.05490    0.58160    0.45730    1.000
    H184     H        0.07650    0.56800    0.41840    1.000
    C282     C        0.07250    0.63150    0.55320    1.000
    C283     C        0.99060    0.62250    0.57370    1.000
    H185     H        0.96900    0.63620    0.61270    1.000
    C284     C        0.94080    0.59320    0.53610    1.000
    H186     H        0.88590    0.58720    0.54990    1.000
    C285     C        0.10470    0.61100    0.49500    1.000
    C286     C        0.79400    0.99840    0.32960    1.000
    H187     H        0.74460    0.98940    0.29720    1.000
    H188     H        0.84620    0.98770    0.31300    1.000
    H189     H        0.78880    0.98980    0.37980    1.000
    C287     C        0.12350    0.66520    0.59050    1.000
    O59      O        0.09890    0.68200    0.64580    1.000
    C288     C        0.10930    0.99410    0.43120    1.000
    H190     H        0.16780    0.98430    0.43480    1.000
    H191     H        0.08040    0.98390    0.47180    1.000
    H192     H        0.07860    0.98600    0.38460    1.000
    O60      O        0.20600    0.67140    0.57070    1.000
    C289     C        0.69500    0.85490    0.15200    1.000
    C290     C        0.66810    0.89330    0.11700    1.000
    C291     C        0.67720    0.90910    0.04690    1.000
    C292     C        0.65800    0.94860    0.03250    1.000
    H193     H        0.66410    0.95910    0.98550    1.000
    C293     C        0.62980    0.97230    0.08820    1.000
    C294     C        0.62100    0.95660    0.15830    1.000
    H194     H        0.60190    0.97240    0.19560    1.000
    C295     C        0.63990    0.91710    0.17270    1.000
    H195     H        0.63380    0.90650    0.21960    1.000
    C296     C        0.89730    0.75880    0.12940    1.000
    C297     C        0.98450    0.75350    0.10210    1.000
    C298     C        0.04920    0.77710    0.12640    1.000
    H196     H        0.04130    0.79560    0.16330    1.000
    C299     C        0.12960    0.77470    0.09730    1.000
    H197     H        0.17520    0.79090    0.11650    1.000
    C300     C        0.14210    0.74860    0.04020    1.000
    C301     C        0.07440    0.72330    0.01720    1.000
    H198     H        0.08120    0.70450    0.98050    1.000
    C302     C        0.99570    0.72580    0.04880    1.000
    H199     H        0.95060    0.70850    0.03330    1.000
    C303     C        0.22090    0.74470    0.99980    1.000
    C304     C        0.56060    0.72570    0.11510    1.000
    H200     H        0.52990    0.74050    0.14720    1.000
    C305     C        0.66000    0.70780    0.05030    1.000
    H201     H        0.71080    0.70630    0.02700    1.000
    C306     C        0.58510    0.64880    0.99570    1.000
    H202     H        0.53640    0.65260    0.95770    1.000
    H203     H        0.63690    0.64530    0.97030    1.000
    C307     C        0.56990    0.61220    0.03850    1.000
    C308     C        0.63580    0.59580    0.08480    1.000
    C309     C        0.62870    0.56010    0.12400    1.000
    C310     C        0.54630    0.54300    0.11660    1.000
    H204     H        0.53760    0.52030    0.14410    1.000
    C311     C        0.47770    0.55790    0.07090    1.000
    C312     C        0.49140    0.59300    0.03350    1.000
    C313     C        0.38910    0.53950    0.06480    1.000
    H205     H        0.35980    0.54670    0.01570    1.000
    C314     C        0.36420    0.63310    0.02030    1.000
    H206     H        0.39260    0.64410    0.06640    1.000
    H207     H        0.34510    0.65480    0.98740    1.000
    C315     C        0.33700    0.55860    0.12410    1.000
    C316     C        0.33690    0.54260    0.19370    1.000
    H208     H        0.36560    0.51880    0.20460    1.000
    C317     C        0.29500    0.56110    0.24830    1.000
    C318     C        0.25340    0.59630    0.23140    1.000
    C319     C        0.25070    0.61290    0.16180    1.000
    C320     C        0.29410    0.59340    0.10750    1.000
    C321     C        0.70230    0.54310    0.17240    1.000
    H209     H        0.75510    0.55230    0.15210    1.000
    C322     C        0.26190    0.63630    0.34050    1.000
    H210     H        0.31490    0.64490    0.32090    1.000
    H211     H        0.23030    0.65980    0.35270    1.000
    N37      N        0.59520    0.68310    0.04090    1.000
    N38      N        0.52940    0.69380    0.08190    1.000
    N39      N        0.64140    0.73550    0.09890    1.000
    O61      O        0.70100    0.83410    0.21350    1.000
    O62      O        0.71400    0.83360    0.09600    1.000
    O63      O        0.83920    0.73450    0.10890    1.000
    O64      O        0.88340    0.78870    0.16590    1.000
    O65      O        0.71520    0.61490    0.09280    1.000
    O66      O        0.42390    0.60938    0.98590    1.000
    O67      O        0.28930    0.61002    0.03660    1.000
    O68      O        0.21140    0.61560    0.28440    1.000
    Cd7      Cd       0.73753    0.77879    0.16190    1.000
    C323     C        0.19890    0.64960    0.14160    1.000
    H212     H        0.14150    0.64700    0.15850    1.000
    H213     H        0.19160    0.65260    0.08770    1.000
    C324     C        0.33440    0.72800    0.20140    1.000
    H214     H        0.38560    0.74250    0.20280    1.000
    C325     C        0.20920    0.71090    0.22020    1.000
    H215     H        0.15410    0.71020    0.23650    1.000
    N40      N        0.24090    0.68410    0.17500    1.000
    N41      N        0.32120    0.69490    0.16230    1.000
    N42      N        0.26860    0.73830    0.23790    1.000
    C326     C        0.59200    0.01330    0.08300    1.000
    C327     C        0.58400    0.03650    0.02200    1.000
    C328     C        0.52700    0.07270    0.02210    1.000
    C329     C        0.44510    0.08160    0.04270    1.000
    H216     H        0.42350    0.06800    0.08160    1.000
    C330     C        0.42750    0.13150    0.94680    1.000
    C331     C        0.50940    0.12250    0.92630    1.000
    H217     H        0.53100    0.13620    0.88730    1.000
    C332     C        0.55920    0.09320    0.96390    1.000
    H218     H        0.61410    0.08720    0.95010    1.000
    C333     C        0.39530    0.11100    0.00500    1.000
    C334     C        0.70600    0.49840    0.17040    1.000
    H219     H        0.75540    0.48940    0.20280    1.000
    H220     H        0.65380    0.48770    0.18700    1.000
    H221     H        0.71120    0.48980    0.12020    1.000
    C335     C        0.37650    0.16520    0.90950    1.000
    O69      O        0.40110    0.18200    0.85420    1.000
    C336     C        0.39070    0.49410    0.06880    1.000
    H222     H        0.33220    0.48430    0.06520    1.000
    H223     H        0.41960    0.48390    0.02820    1.000
    H224     H        0.42140    0.48600    0.11540    1.000
    O70      O        0.29400    0.17140    0.92930    1.000
    C337     C        0.19500    0.35490    0.15200    1.000
    C338     C        0.16810    0.39330    0.11700    1.000
    C339     C        0.17720    0.40910    0.04690    1.000
    C340     C        0.15800    0.44860    0.03250    1.000
    H225     H        0.16410    0.45910    0.98550    1.000
    C341     C        0.12980    0.47230    0.08820    1.000
    C342     C        0.12100    0.45660    0.15830    1.000
    H226     H        0.10190    0.47240    0.19560    1.000
    C343     C        0.13990    0.41710    0.17270    1.000
    H227     H        0.13380    0.40650    0.21960    1.000
    C344     C        0.39730    0.25880    0.12940    1.000
    C345     C        0.48450    0.25350    0.10210    1.000
    C346     C        0.54920    0.27710    0.12640    1.000
    H228     H        0.54130    0.29560    0.16330    1.000
    C347     C        0.62960    0.27470    0.09730    1.000
    H229     H        0.67520    0.29090    0.11650    1.000
    C348     C        0.64210    0.24860    0.04020    1.000
    C349     C        0.57440    0.22330    0.01720    1.000
    H230     H        0.58120    0.20450    0.98050    1.000
    C350     C        0.49570    0.22580    0.04880    1.000
    H231     H        0.45060    0.20850    0.03330    1.000
    C351     C        0.72090    0.24470    0.99980    1.000
    C352     C        0.06060    0.22570    0.11510    1.000
    H232     H        0.02990    0.24050    0.14720    1.000
    C353     C        0.16000    0.20780    0.05030    1.000
    H233     H        0.21080    0.20630    0.02700    1.000
    C354     C        0.08510    0.14880    0.99570    1.000
    H234     H        0.03640    0.15260    0.95770    1.000
    H235     H        0.13690    0.14530    0.97030    1.000
    C355     C        0.06990    0.11220    0.03850    1.000
    C356     C        0.13580    0.09580    0.08480    1.000
    C357     C        0.12870    0.06010    0.12400    1.000
    C358     C        0.04630    0.04300    0.11660    1.000
    H236     H        0.03760    0.02030    0.14410    1.000
    C359     C        0.97770    0.05790    0.07090    1.000
    C360     C        0.99140    0.09300    0.03350    1.000
    C361     C        0.88910    0.03950    0.06480    1.000
    H237     H        0.85980    0.04670    0.01570    1.000
    C362     C        0.86420    0.13310    0.02030    1.000
    H238     H        0.89260    0.14410    0.06640    1.000
    H239     H        0.84510    0.15480    0.98740    1.000
    C363     C        0.83700    0.05860    0.12410    1.000
    C364     C        0.83690    0.04260    0.19370    1.000
    H240     H        0.86560    0.01880    0.20460    1.000
    C365     C        0.79500    0.06110    0.24830    1.000
    C366     C        0.75340    0.09630    0.23140    1.000
    C367     C        0.75070    0.11290    0.16180    1.000
    C368     C        0.79410    0.09340    0.10750    1.000
    C369     C        0.20230    0.04310    0.17240    1.000
    H241     H        0.25510    0.05230    0.15210    1.000
    C370     C        0.76190    0.13630    0.34050    1.000
    H242     H        0.81490    0.14490    0.32090    1.000
    H243     H        0.73030    0.15980    0.35270    1.000
    N43      N        0.09520    0.18310    0.04090    1.000
    N44      N        0.02940    0.19380    0.08190    1.000
    N45      N        0.14140    0.23550    0.09890    1.000
    O71      O        0.20100    0.33410    0.21350    1.000
    O72      O        0.21400    0.33360    0.09600    1.000
    O73      O        0.33920    0.23450    0.10890    1.000
    O74      O        0.38340    0.28870    0.16590    1.000
    O75      O        0.21520    0.11490    0.09280    1.000
    O76      O        0.92390    0.10938    0.98590    1.000
    O77      O        0.78930    0.11002    0.03660    1.000
    O78      O        0.71140    0.11560    0.28440    1.000
    Cd8      Cd       0.23753    0.27879    0.16190    1.000
    C371     C        0.69890    0.14960    0.14160    1.000
    H244     H        0.64150    0.14700    0.15850    1.000
    H245     H        0.69160    0.15260    0.08770    1.000
    C372     C        0.83440    0.22800    0.20140    1.000
    H246     H        0.88560    0.24250    0.20280    1.000
    C373     C        0.70920    0.21090    0.22020    1.000
    H247     H        0.65410    0.21020    0.23650    1.000
    N46      N        0.74090    0.18410    0.17500    1.000
    N47      N        0.82120    0.19490    0.16230    1.000
    N48      N        0.76860    0.23830    0.23790    1.000
    C374     C        0.09200    0.51330    0.08300    1.000
    C375     C        0.08400    0.53650    0.02200    1.000
    C376     C        0.02700    0.57270    0.02210    1.000
    C377     C        0.94510    0.58160    0.04270    1.000
    H248     H        0.92350    0.56800    0.08160    1.000
    C378     C        0.92750    0.63150    0.94680    1.000
    C379     C        0.00940    0.62250    0.92630    1.000
    H249     H        0.03100    0.63620    0.88730    1.000
    C380     C        0.05920    0.59320    0.96390    1.000
    H250     H        0.11410    0.58720    0.95010    1.000
    C381     C        0.89530    0.61100    0.00500    1.000
    C382     C        0.20600    0.99840    0.17040    1.000
    H251     H        0.25540    0.98940    0.20280    1.000
    H252     H        0.15380    0.98770    0.18700    1.000
    H253     H        0.21120    0.98980    0.12020    1.000
    C383     C        0.87650    0.66520    0.90950    1.000
    O79      O        0.90110    0.68200    0.85420    1.000
    C384     C        0.89070    0.99410    0.06880    1.000
    H254     H        0.83220    0.98430    0.06520    1.000
    H255     H        0.91960    0.98390    0.02820    1.000
    H256     H        0.92140    0.98600    0.11540    1.000
    O80      O        0.79400    0.67140    0.92930    1.000
