# CIF file generated by openbabel 3.1.0, see https://openbabel.org
data_I
_chemical_name_common 'SERJUV_clean'
_cell_length_a 8.5083
_cell_length_b 15.704
_cell_length_c 28.452
_cell_angle_alpha 90
_cell_angle_beta 90
_cell_angle_gamma 90
_space_group_name_H-M_alt 'P 1'
_space_group_name_Hall 'P 1'
loop_
    _symmetry_equiv_pos_as_xyz
    x,y,z
loop_
    _atom_site_label
    _atom_site_type_symbol
    _atom_site_fract_x
    _atom_site_fract_y
    _atom_site_fract_z
    _atom_site_occupancy
    Y1       Y        0.97378    0.80142    0.58486    1.000
    Y2       Y        0.52622    0.30142    0.41514    1.000
    Y3       Y        0.02622    0.19858    0.08486    1.000
    Y4       Y        0.47378    0.69858    0.91514    1.000
    Y5       Y        0.02622    0.19858    0.41514    1.000
    Y6       Y        0.47378    0.69858    0.58486    1.000
    Y7       Y        0.97378    0.80142    0.91514    1.000
    Y8       Y        0.52622    0.30142    0.08486    1.000
    H1       H        0.89870    0.46430    0.39840    1.000
    H2       H        0.27730    0.52640    0.47630    1.000
    H3       H        0.90240    0.68180    0.46470    1.000
    H4       H        0.32630    0.59550    0.68070    1.000
    H5       H        0.60130    0.96430    0.60160    1.000
    H6       H        0.22270    0.02640    0.52370    1.000
    H7       H        0.59760    0.18180    0.53530    1.000
    H8       H        0.17370    0.09550    0.31930    1.000
    H9       H        0.10130    0.53570    0.89840    1.000
    H10      H        0.72270    0.47360    0.97630    1.000
    H11      H        0.09760    0.31820    0.96470    1.000
    H12      H        0.67370    0.40450    0.18070    1.000
    H13      H        0.39870    0.03570    0.10160    1.000
    H14      H        0.77730    0.97360    0.02370    1.000
    H15      H        0.40240    0.81820    0.03530    1.000
    H16      H        0.82630    0.90450    0.81930    1.000
    H17      H        0.10130    0.53570    0.60160    1.000
    H18      H        0.72270    0.47360    0.52370    1.000
    H19      H        0.09760    0.31820    0.53530    1.000
    H20      H        0.67370    0.40450    0.31930    1.000
    H21      H        0.39870    0.03570    0.39840    1.000
    H22      H        0.77730    0.97360    0.47630    1.000
    H23      H        0.40240    0.81820    0.46470    1.000
    H24      H        0.82630    0.90450    0.68070    1.000
    H25      H        0.89870    0.46430    0.10160    1.000
    H26      H        0.27730    0.52640    0.02370    1.000
    H27      H        0.90240    0.68180    0.03530    1.000
    H28      H        0.32630    0.59550    0.81930    1.000
    H29      H        0.60130    0.96430    0.89840    1.000
    H30      H        0.22270    0.02640    0.97630    1.000
    H31      H        0.59760    0.18180    0.96470    1.000
    H32      H        0.17370    0.09550    0.18070    1.000
    H33      H        0.10320    0.78290    0.75000    1.000
    H34      H        0.39680    0.28290    0.25000    1.000
    H35      H        0.89680    0.21710    0.25000    1.000
    H36      H        0.60320    0.71710    0.75000    1.000
    C1       C        0.95140    0.50380    0.41816    1.000
    C2       C        0.09920    0.48220    0.43478    1.000
    C3       C        0.17570    0.53910    0.46433    1.000
    C4       C        0.10210    0.61400    0.47595    1.000
    C5       C        0.95310    0.62980    0.45673    1.000
    C6       C        0.17270    0.67640    0.51058    1.000
    C7       C        0.17080    0.39800    0.42396    1.000
    C8       C        0.29520    0.62050    0.70964    1.000
    C9       C        0.21050    0.69550    0.70796    1.000
    C10      C        0.16650    0.73330    0.66201    1.000
    C11      C        0.54860    0.00380    0.58184    1.000
    C12      C        0.40080    0.98220    0.56522    1.000
    C13      C        0.32430    0.03910    0.53567    1.000
    C14      C        0.39790    0.11400    0.52405    1.000
    C15      C        0.54690    0.12980    0.54327    1.000
    C16      C        0.32730    0.17640    0.48942    1.000
    C17      C        0.32920    0.89800    0.57604    1.000
    C18      C        0.20480    0.12050    0.29036    1.000
    C19      C        0.28950    0.19550    0.29204    1.000
    C20      C        0.33350    0.23330    0.33799    1.000
    C21      C        0.04860    0.49620    0.91816    1.000
    C22      C        0.90080    0.51780    0.93478    1.000
    C23      C        0.82430    0.46090    0.96433    1.000
    C24      C        0.89790    0.38600    0.97595    1.000
    C25      C        0.04690    0.37020    0.95673    1.000
    C26      C        0.82730    0.32360    0.01058    1.000
    C27      C        0.82920    0.60200    0.92396    1.000
    C28      C        0.70480    0.37950    0.20964    1.000
    C29      C        0.78950    0.30450    0.20796    1.000
    C30      C        0.83350    0.26670    0.16201    1.000
    C31      C        0.45140    0.99620    0.08184    1.000
    C32      C        0.59920    0.01780    0.06522    1.000
    C33      C        0.67570    0.96090    0.03567    1.000
    C34      C        0.60210    0.88600    0.02405    1.000
    C35      C        0.45310    0.87020    0.04327    1.000
    C36      C        0.67270    0.82360    0.98942    1.000
    C37      C        0.67080    0.10200    0.07604    1.000
    C38      C        0.79520    0.87950    0.79036    1.000
    C39      C        0.71050    0.80450    0.79204    1.000
    C40      C        0.66650    0.76670    0.83799    1.000
    C41      C        0.04860    0.49620    0.58184    1.000
    C42      C        0.90080    0.51780    0.56522    1.000
    C43      C        0.82430    0.46090    0.53567    1.000
    C44      C        0.89790    0.38600    0.52405    1.000
    C45      C        0.04690    0.37020    0.54327    1.000
    C46      C        0.82730    0.32360    0.48942    1.000
    C47      C        0.82920    0.60200    0.57604    1.000
    C48      C        0.70480    0.37950    0.29036    1.000
    C49      C        0.78950    0.30450    0.29204    1.000
    C50      C        0.83350    0.26670    0.33799    1.000
    C51      C        0.45140    0.99620    0.41816    1.000
    C52      C        0.59920    0.01780    0.43478    1.000
    C53      C        0.67570    0.96090    0.46433    1.000
    C54      C        0.60210    0.88600    0.47595    1.000
    C55      C        0.45310    0.87020    0.45673    1.000
    C56      C        0.67270    0.82360    0.51058    1.000
    C57      C        0.67080    0.10200    0.42396    1.000
    C58      C        0.79520    0.87950    0.70964    1.000
    C59      C        0.71050    0.80450    0.70796    1.000
    C60      C        0.66650    0.76670    0.66201    1.000
    C61      C        0.95140    0.50380    0.08184    1.000
    C62      C        0.09920    0.48220    0.06522    1.000
    C63      C        0.17570    0.53910    0.03567    1.000
    C64      C        0.10210    0.61400    0.02405    1.000
    C65      C        0.95310    0.62980    0.04327    1.000
    C66      C        0.17270    0.67640    0.98942    1.000
    C67      C        0.17080    0.39800    0.07604    1.000
    C68      C        0.29520    0.62050    0.79036    1.000
    C69      C        0.21050    0.69550    0.79204    1.000
    C70      C        0.16650    0.73330    0.83799    1.000
    C71      C        0.54860    0.00380    0.91816    1.000
    C72      C        0.40080    0.98220    0.93478    1.000
    C73      C        0.32430    0.03910    0.96433    1.000
    C74      C        0.39790    0.11400    0.97595    1.000
    C75      C        0.54690    0.12980    0.95673    1.000
    C76      C        0.32730    0.17640    0.01058    1.000
    C77      C        0.32920    0.89800    0.92396    1.000
    C78      C        0.20480    0.12050    0.20964    1.000
    C79      C        0.28950    0.19550    0.20796    1.000
    C80      C        0.33350    0.23330    0.16201    1.000
    C81      C        0.16500    0.73260    0.75000    1.000
    C82      C        0.33500    0.23260    0.25000    1.000
    C83      C        0.83500    0.26740    0.25000    1.000
    C84      C        0.66500    0.76740    0.75000    1.000
    N1       N        0.87890    0.57680    0.42825    1.000
    N2       N        0.62110    0.07680    0.57175    1.000
    N3       N        0.12110    0.42320    0.92825    1.000
    N4       N        0.37890    0.92320    0.07175    1.000
    N5       N        0.12110    0.42320    0.57175    1.000
    N6       N        0.37890    0.92320    0.42825    1.000
    N7       N        0.87890    0.57680    0.07175    1.000
    N8       N        0.62110    0.07680    0.92825    1.000
    N9       N        0.33680    0.58010    0.75000    1.000
    N10      N        0.16320    0.08010    0.25000    1.000
    N11      N        0.66320    0.41990    0.25000    1.000
    N12      N        0.83680    0.91990    0.75000    1.000
    O1       O        0.06090    0.78970    0.66135    1.000
    O2       O        0.22920    0.70770    0.62430    1.000
    O3       O        0.09300    0.74070    0.52072    1.000
    O4       O        0.30860    0.65880    0.52580    1.000
    O5       O        0.08130    0.34080    0.40826    1.000
    O6       O        0.31610    0.38870    0.43153    1.000
    O7       O        0.43910    0.28970    0.33865    1.000
    O8       O        0.27080    0.20770    0.37570    1.000
    O9       O        0.40700    0.24070    0.47928    1.000
    O10      O        0.19140    0.15880    0.47420    1.000
    O11      O        0.41870    0.84080    0.59174    1.000
    O12      O        0.18390    0.88870    0.56847    1.000
    O13      O        0.93910    0.21030    0.16135    1.000
    O14      O        0.77080    0.29230    0.12430    1.000
    O15      O        0.90700    0.25930    0.02072    1.000
    O16      O        0.69140    0.34120    0.02580    1.000
    O17      O        0.91870    0.65920    0.90826    1.000
    O18      O        0.68390    0.61130    0.93153    1.000
    O19      O        0.56090    0.71030    0.83865    1.000
    O20      O        0.72920    0.79230    0.87570    1.000
    O21      O        0.59300    0.75930    0.97928    1.000
    O22      O        0.80860    0.84120    0.97420    1.000
    O23      O        0.58130    0.15920    0.09174    1.000
    O24      O        0.81610    0.11130    0.06847    1.000
    O25      O        0.93910    0.21030    0.33865    1.000
    O26      O        0.77080    0.29230    0.37570    1.000
    O27      O        0.90700    0.25930    0.47928    1.000
    O28      O        0.69140    0.34120    0.47420    1.000
    O29      O        0.91870    0.65920    0.59174    1.000
    O30      O        0.68390    0.61130    0.56847    1.000
    O31      O        0.56090    0.71030    0.66135    1.000
    O32      O        0.72920    0.79230    0.62430    1.000
    O33      O        0.59300    0.75930    0.52072    1.000
    O34      O        0.80860    0.84120    0.52580    1.000
    O35      O        0.58130    0.15920    0.40826    1.000
    O36      O        0.81610    0.11130    0.43153    1.000
    O37      O        0.06090    0.78970    0.83865    1.000
    O38      O        0.22920    0.70770    0.87570    1.000
    O39      O        0.09300    0.74070    0.97928    1.000
    O40      O        0.30860    0.65880    0.97420    1.000
    O41      O        0.08130    0.34080    0.09174    1.000
    O42      O        0.31610    0.38870    0.06847    1.000
    O43      O        0.43910    0.28970    0.16135    1.000
    O44      O        0.27080    0.20770    0.12430    1.000
    O45      O        0.40700    0.24070    0.02072    1.000
    O46      O        0.19140    0.15880    0.02580    1.000
    O47      O        0.41870    0.84080    0.90826    1.000
    O48      O        0.18390    0.88870    0.93153    1.000
