data_functionalizedCrystal
_audit_creation_method	'EQeq! by Chris Wilmer'
_symmetry_space_group_name_H-M	'P1'
_symmetry_Int_Tables_number	1
_symmetry_cell_setting	triclinic
loop_
_symmetry_equiv_pos_as_xyz
  x,y,z
_cell_length_a	30.231
_cell_length_b	9.875
_cell_length_c	14.191
_cell_angle_alpha	90
_cell_angle_beta	97.128
_cell_angle_gamma	90
loop_
_atom_site_label
_atom_site_type_symbol
_atom_site_fract_x
_atom_site_fract_y
_atom_site_fract_z
_atom_site_charge
Mof_O 	O 	0.5817	0.2236	0.8071	-0.61
Mof_O 	O 	0.54963	0.093	0.8947	-0.748
Mof_O 	O 	0.966	0.4837	0.8225	-0.614
Mof_O 	O 	0.969	0.3017	0.9018	-0.452
Mof_O 	O 	0.4742	0.2328	0.9012	-0.698
Mof_O 	O 	0.4327	0.1387	0.9923	-0.55
Mof_C 	C 	0.5826	0.1652	0.8807	0.615
Mof_C 	C 	0.6223	0.1631	0.9571	-0.525
Mof_H 	H 	0.6228	0.0754	0.991	0.184
Mof_H 	H 	0.6186	0.2355	0.0037	0.117
Mof_C 	C 	0.667	0.1825	0.9198	0.449
Mof_C 	C 	0.6813	0.3053	0.9011	-0.382
Mof_H 	H 	0.6626	0.3811	0.9079	0.165
Mof_C 	C 	0.7231	0.3258	0.8717	0.219
Mof_H 	H 	0.7322	0.4153	0.8587	-0.037
Mof_C 	C 	0.7511	0.2211	0.8611	-0.218
Mof_C 	C 	0.7367	0.1003	0.8832	0.303
Mof_H 	H 	0.7554	0.024	0.8783	-0.09
Mof_C 	C 	0.6955	0.0806	0.9132	-0.564
Mof_H 	H 	0.6871	0.9917	0.9296	0.288
Mof_C 	C 	0.7961	0.2407	0.8311	0.072
Mof_C 	C 	0.812	0.3663	0.8099	-0.037
Mof_H 	H 	0.7937	0.4436	0.8146	0.05
Mof_C 	C 	0.8538	0.3834	0.7822	-0.154
Mof_H 	H 	0.8635	0.472	0.7689	0.082
Mof_C 	C 	0.881	0.2774	0.7735	0.187
Mof_C 	C 	0.8666	0.1511	0.7918	-0.155
Mof_H 	H 	0.8851	0.075	0.7849	0.048
Mof_C 	C 	0.8246	0.1331	0.8207	-0.05
Mof_H 	H 	0.8152	0.044	0.8338	0.03
Mof_C 	C 	0.9278	0.2973	0.7458	-0.473
Mof_H 	H 	0.9404	0.2088	0.7305	0.157
Mof_H 	H 	0.9264	0.3558	0.6889	0.171
Mof_C 	C 	0.957	0.3626	0.8277	0.561
Mof_C 	C 	0.4376	0.226	0.9334	0.604
Mof_C 	C 	0.4035	0.3322	0.9056	-0.553
Mof_H 	H 	0.4006	0.3438	0.8358	0.17
Mof_H 	H 	0.4143	0.4191	0.9347	0.183
Mof_C 	C 	0.3578	0.3037	0.9339	0.282
Mof_C 	C 	0.3246	0.2509	0.8718	-0.171
Mof_H 	H 	0.3302	0.2274	0.8094	0.08
Mof_C 	C 	0.2834	0.2313	0.8977	-0.08
Mof_H 	H 	0.2607	0.1955	0.852	0.054
Mof_C 	C 	0.2727	0.2609	0.9872	0.22
Mof_C 	C 	0.3073	0.3115	0.051	-0.148
Mof_H 	H 	0.3019	0.3331	0.1139	0.076
Mof_C 	C 	0.349	0.3307	0.025	-0.214
Mof_H 	H 	0.3722	0.3633	0.0706	0.075
Mof_O 	O 	0.0817	0.7236	0.8071	-0.563
Mof_O 	O 	0.04963	0.593	0.8947	-0.703
Mof_O 	O 	0.466	0.9837	0.8225	-0.66
Mof_O 	O 	0.469	0.8017	0.9018	-0.509
Mof_O 	O 	0.9742	0.7328	0.9012	-0.567
Mof_O 	O 	0.9327	0.6387	0.9923	-0.478
Mof_C 	C 	0.0826	0.6652	0.8807	0.583
Mof_C 	C 	0.1223	0.6631	0.9571	-0.424
Mof_H 	H 	0.1228	0.5754	0.991	0.182
Mof_H 	H 	0.1186	0.7355	0.0037	0.099
Mof_C 	C 	0.167	0.6825	0.9198	0.27
Mof_C 	C 	0.1813	0.8053	0.9011	-0.22
Mof_H 	H 	0.1626	0.8811	0.9079	0.131
Mof_C 	C 	0.2231	0.8258	0.8717	0.07
Mof_H 	H 	0.2322	0.9153	0.8587	0.034
Mof_C 	C 	0.2511	0.7211	0.8611	-0.052
Mof_C 	C 	0.2367	0.6003	0.8832	0.079
Mof_H 	H 	0.2554	0.524	0.8783	0.015
Mof_C 	C 	0.1955	0.5806	0.9132	-0.235
Mof_H 	H 	0.1871	0.4917	0.9296	0.126
Mof_C 	C 	0.2961	0.7407	0.8311	-0.009
Mof_C 	C 	0.312	0.8663	0.8099	0.033
Mof_H 	H 	0.2937	0.9436	0.8146	0.049
Mof_C 	C 	0.3538	0.8834	0.7822	-0.201
Mof_H 	H 	0.3635	0.972	0.7689	0.124
Mof_C 	C 	0.381	0.7774	0.7735	0.232
Mof_C 	C 	0.3666	0.6511	0.7918	-0.199
Mof_H 	H 	0.3851	0.575	0.7849	0.077
Mof_C 	C 	0.3246	0.6331	0.8207	0.017
Mof_H 	H 	0.3152	0.544	0.8338	0.029
Mof_C 	C 	0.4278	0.7973	0.7458	-0.499
Mof_H 	H 	0.4404	0.7088	0.7305	0.147
Mof_H 	H 	0.4264	0.8558	0.6889	0.177
Mof_C 	C 	0.457	0.8626	0.8277	0.574
Mof_C 	C 	0.9376	0.726	0.9334	0.589
Mof_C 	C 	0.9035	0.8322	0.9056	-0.559
Mof_H 	H 	0.9006	0.8438	0.8358	0.198
Mof_H 	H 	0.9143	0.9191	0.9347	0.221
Mof_C 	C 	0.8578	0.8037	0.9339	0.305
Mof_C 	C 	0.8246	0.7509	0.8718	-0.173
Mof_H 	H 	0.8302	0.7274	0.8094	0.097
Mof_C 	C 	0.7834	0.7313	0.8977	-0.054
Mof_H 	H 	0.7607	0.6955	0.852	0.06
Mof_C 	C 	0.7727	0.7609	0.9872	0.212
Mof_C 	C 	0.8073	0.8115	0.051	-0.122
Mof_H 	H 	0.8019	0.8331	0.1139	0.082
Mof_C 	C 	0.849	0.8307	0.025	-0.216
Mof_H 	H 	0.8722	0.8633	0.0706	0.097
Mof_O 	O 	0.4183	0.2236	0.6929	-0.633
Mof_O 	O 	0.45037	0.093	0.6053	-0.814
Mof_O 	O 	0.034	0.4837	0.6775	-0.728
Mof_O 	O 	0.031	0.3017	0.5982	-0.603
Mof_O 	O 	0.5258	0.2328	0.5988	-0.732
Mof_O 	O 	0.5673	0.1387	0.5077	-0.621
Mof_C 	C 	0.4174	0.1652	0.6193	0.674
Mof_C 	C 	0.3777	0.1631	0.5429	-0.707
Mof_H 	H 	0.3772	0.0754	0.509	0.205
Mof_H 	H 	0.3814	0.2355	0.4963	0.216
Mof_C 	C 	0.333	0.1825	0.5802	0.532
Mof_C 	C 	0.3187	0.3053	0.5989	-0.462
Mof_H 	H 	0.3374	0.3811	0.5921	0.18
Mof_C 	C 	0.2769	0.3258	0.6283	0.269
Mof_H 	H 	0.2678	0.4153	0.6413	-0.06
Mof_C 	C 	0.2489	0.2211	0.6389	-0.274
Mof_C 	C 	0.2633	0.1003	0.6168	0.358
Mof_H 	H 	0.2446	0.024	0.6217	-0.116
Mof_C 	C 	0.3045	0.0806	0.5868	-0.649
Mof_H 	H 	0.3129	0.9917	0.5704	0.305
Mof_C 	C 	0.2039	0.2407	0.6689	0.093
Mof_C 	C 	0.188	0.3663	0.6901	-0.06
Mof_H 	H 	0.2063	0.4436	0.6854	0.053
Mof_C 	C 	0.1462	0.3834	0.7178	-0.141
Mof_H 	H 	0.1365	0.472	0.7311	0.075
Mof_C 	C 	0.119	0.2774	0.7265	0.173
Mof_C 	C 	0.1334	0.1511	0.7082	-0.142
Mof_H 	H 	0.1149	0.075	0.7151	0.032
Mof_C 	C 	0.1754	0.1331	0.6793	-0.072
Mof_H 	H 	0.1848	0.044	0.6662	0.033
Mof_C 	C 	0.0722	0.2973	0.7542	-0.476
Mof_H 	H 	0.0596	0.2088	0.7695	0.118
Mof_H 	H 	0.0736	0.3558	0.8111	0.159
Mof_C 	C 	0.043	0.3626	0.6723	0.564
Mof_C 	C 	0.5624	0.226	0.5666	0.614
Mof_C 	C 	0.5965	0.3322	0.5944	-0.565
Mof_H 	H 	0.5994	0.3438	0.6642	0.173
Mof_H 	H 	0.5857	0.4191	0.5653	0.17
Mof_C 	C 	0.6422	0.3037	0.5661	0.274
Mof_C 	C 	0.6754	0.2509	0.6282	-0.256
Mof_H 	H 	0.6698	0.2274	0.6906	0.106
Mof_C 	C 	0.7166	0.2313	0.6023	0.062
Mof_H 	H 	0.7393	0.1955	0.648	-0.001
Mof_C 	C 	0.7273	0.2609	0.5128	-0.056
Mof_C 	C 	0.6927	0.3115	0.449	0.051
Mof_H 	H 	0.6981	0.3331	0.3861	0.013
Mof_C 	C 	0.651	0.3307	0.475	-0.229
Mof_H 	H 	0.6278	0.3633	0.4294	0.097
Mof_O 	O 	0.9183	0.7236	0.6929	-0.541
Mof_O 	O 	0.95037	0.593	0.6053	-0.666
Mof_O 	O 	0.534	0.9837	0.6775	-0.689
Mof_O 	O 	0.531	0.8017	0.5982	-0.561
Mof_O 	O 	0.0258	0.7328	0.5988	-0.723
Mof_O 	O 	0.0673	0.6387	0.5077	-0.59
Mof_C 	C 	0.9174	0.6652	0.6193	0.617
Mof_C 	C 	0.8777	0.6631	0.5429	-0.574
Mof_H 	H 	0.8772	0.5754	0.509	0.196
Mof_H 	H 	0.8814	0.7355	0.4963	0.195
Mof_C 	C 	0.833	0.6825	0.5802	0.331
Mof_C 	C 	0.8187	0.8053	0.5989	-0.283
Mof_H 	H 	0.8374	0.8811	0.5921	0.144
Mof_C 	C 	0.7769	0.8258	0.6283	0.105
Mof_H 	H 	0.7678	0.9153	0.6413	0.017
Mof_C 	C 	0.7489	0.7211	0.6389	-0.092
Mof_C 	C 	0.7633	0.6003	0.6168	0.114
Mof_H 	H 	0.7446	0.524	0.6217	-0.005
Mof_C 	C 	0.8045	0.5806	0.5868	-0.295
Mof_H 	H 	0.8129	0.4917	0.5704	0.132
Mof_C 	C 	0.7039	0.7407	0.6689	-0.002
Mof_C 	C 	0.688	0.8663	0.6901	0.022
Mof_H 	H 	0.7063	0.9436	0.6854	0.048
Mof_C 	C 	0.6462	0.8834	0.7178	-0.202
Mof_H 	H 	0.6365	0.972	0.7311	0.121
Mof_C 	C 	0.619	0.7774	0.7265	0.234
Mof_C 	C 	0.6334	0.6511	0.7082	-0.198
Mof_H 	H 	0.6149	0.575	0.7151	0.077
Mof_C 	C 	0.6754	0.6331	0.6793	0.008
Mof_H 	H 	0.6848	0.544	0.6662	0.028
Mof_C 	C 	0.5722	0.7973	0.7542	-0.515
Mof_H 	H 	0.5596	0.7088	0.7695	0.156
Mof_H 	H 	0.5736	0.8558	0.8111	0.19
Mof_C 	C 	0.543	0.8626	0.6723	0.59
Mof_C 	C 	0.0624	0.726	0.5666	0.616
Mof_C 	C 	0.0965	0.8322	0.5944	-0.579
Mof_H 	H 	0.0994	0.8438	0.6642	0.194
Mof_H 	H 	0.0857	0.9191	0.5653	0.187
Mof_C 	C 	0.1422	0.8037	0.5661	0.298
Mof_C 	C 	0.1754	0.7509	0.6282	-0.252
Mof_H 	H 	0.1698	0.7274	0.6906	0.122
Mof_C 	C 	0.2166	0.7313	0.6023	0.079
Mof_H 	H 	0.2393	0.6955	0.648	0.009
Mof_C 	C 	0.2273	0.7609	0.5128	-0.045
Mof_C 	C 	0.1927	0.8115	0.449	0.064
Mof_H 	H 	0.1981	0.8331	0.3861	0.023
Mof_C 	C 	0.151	0.8307	0.475	-0.228
Mof_H 	H 	0.1278	0.8633	0.4294	0.107
Mof_O 	O 	0.4183	0.7764	0.1929	-0.618
Mof_O 	O 	0.45037	0.907	0.1053	-0.739
Mof_O 	O 	0.034	0.5163	0.1775	-0.709
Mof_O 	O 	0.031	0.6983	0.0982	-0.589
Mof_O 	O 	0.5258	0.7672	0.0988	-0.732
Mof_O 	O 	0.5673	0.8613	0.0077	-0.567
Mof_C 	C 	0.4174	0.8348	0.1193	0.641
Mof_C 	C 	0.3777	0.8369	0.0429	-0.623
Mof_H 	H 	0.3772	0.9246	0.009	0.209
Mof_H 	H 	0.3814	0.7645	0.9963	0.246
Mof_C 	C 	0.333	0.8175	0.0802	0.197
Mof_C 	C 	0.3187	0.6947	0.0989	-0.176
Mof_H 	H 	0.3374	0.6189	0.0921	0.075
Mof_C 	C 	0.2769	0.6742	0.1283	-0.021
Mof_H 	H 	0.2678	0.5847	0.1413	0.031
Mof_C 	C 	0.2489	0.7789	0.1389	0.035
Mof_C 	C 	0.2633	0.8997	0.1168	-0.087
Mof_H 	H 	0.2446	0.976	0.1217	0.085
Mof_C 	C 	0.3045	0.9194	0.0868	-0.006
Mof_H 	H 	0.3129	0.0083	0.0704	-0.036
Mof_C 	C 	0.2039	0.7593	0.1689	-0.076
Mof_C 	C 	0.188	0.6337	0.1901	0.059
Mof_H 	H 	0.2063	0.5564	0.1854	0.004
Mof_C 	C 	0.1462	0.6166	0.2178	-0.239
Mof_H 	H 	0.1365	0.528	0.2311	0.107
Mof_C 	C 	0.119	0.7226	0.2265	0.252
Mof_C 	C 	0.1334	0.8489	0.2082	-0.227
Mof_H 	H 	0.1149	0.925	0.2151	0.104
Mof_C 	C 	0.1754	0.8669	0.1793	0.053
Mof_H 	H 	0.1848	0.956	0.1662	0.03
Mof_C 	C 	0.0722	0.7027	0.2542	-0.517
Mof_H 	H 	0.0596	0.7912	0.2695	0.141
Mof_H 	H 	0.0736	0.6442	0.3111	0.164
Mof_C 	C 	0.043	0.6374	0.1723	0.571
Mof_C 	C 	0.5624	0.774	0.0666	0.613
Mof_C 	C 	0.5965	0.6678	0.0944	-0.555
Mof_H 	H 	0.5994	0.6562	0.1642	0.172
Mof_H 	H 	0.5857	0.5809	0.0653	0.149
Mof_C 	C 	0.6422	0.6963	0.0661	0.26
Mof_C 	C 	0.6754	0.7491	0.1282	-0.315
Mof_H 	H 	0.6698	0.7726	0.1906	0.148
Mof_C 	C 	0.7166	0.7687	0.1023	0.195
Mof_H 	H 	0.7393	0.8045	0.148	-0.029
Mof_C 	C 	0.7273	0.7391	0.0128	-0.296
Mof_C 	C 	0.6927	0.6885	0.949	0.228
Mof_H 	H 	0.6981	0.6669	0.8861	-0.04
Mof_C 	C 	0.651	0.6693	0.975	-0.231
Mof_H 	H 	0.6278	0.6367	0.9294	0.114
Mof_O 	O 	0.9183	0.2764	0.1929	-0.565
Mof_O 	O 	0.95037	0.407	0.1053	-0.663
Mof_O 	O 	0.534	0.0163	0.1775	-0.801
Mof_O 	O 	0.531	0.1983	0.0982	-0.588
Mof_O 	O 	0.0258	0.2672	0.0988	-0.725
Mof_O 	O 	0.0673	0.3613	0.0077	-0.596
Mof_C 	C 	0.9174	0.3348	0.1193	0.639
Mof_C 	C 	0.8777	0.3369	0.0429	-0.726
Mof_H 	H 	0.8772	0.4246	0.009	0.214
Mof_H 	H 	0.8814	0.2645	0.9963	0.273
Mof_C 	C 	0.833	0.3175	0.0802	0.388
Mof_C 	C 	0.8187	0.1947	0.0989	-0.351
Mof_H 	H 	0.8374	0.1189	0.0921	0.114
Mof_C 	C 	0.7769	0.1742	0.1283	0.138
Mof_H 	H 	0.7678	0.0847	0.1413	-0.045
Mof_C 	C 	0.7489	0.2789	0.1389	-0.144
Mof_C 	C 	0.7633	0.3997	0.1168	0.153
Mof_H 	H 	0.7446	0.476	0.1217	-0.027
Mof_C 	C 	0.8045	0.4194	0.0868	-0.358
Mof_H 	H 	0.8129	0.5083	0.0704	0.138
Mof_C 	C 	0.7039	0.2593	0.1689	0.014
Mof_C 	C 	0.688	0.1337	0.1901	-0.018
Mof_H 	H 	0.7063	0.0564	0.1854	0.007
Mof_C 	C 	0.6462	0.1166	0.2178	-0.185
Mof_H 	H 	0.6365	0.028	0.2311	0.057
Mof_C 	C 	0.619	0.2226	0.2265	0.201
Mof_C 	C 	0.6334	0.3489	0.2082	-0.178
Mof_H 	H 	0.6149	0.425	0.2151	0.066
Mof_C 	C 	0.6754	0.3669	0.1793	-0.021
Mof_H 	H 	0.6848	0.456	0.1662	0.032
Mof_C 	C 	0.5722	0.2027	0.2542	-0.506
Mof_H 	H 	0.5596	0.2912	0.2695	0.143
Mof_H 	H 	0.5736	0.1442	0.3111	0.151
Mof_C 	C 	0.543	0.1374	0.1723	0.607
Mof_C 	C 	0.0624	0.274	0.0666	0.585
Mof_C 	C 	0.0965	0.1678	0.0944	-0.53
Mof_H 	H 	0.0994	0.1562	0.1642	0.152
Mof_H 	H 	0.0857	0.0809	0.0653	0.113
Mof_C 	C 	0.1422	0.1963	0.0661	0.23
Mof_C 	C 	0.1754	0.2491	0.1282	-0.318
Mof_H 	H 	0.1698	0.2726	0.1906	0.134
Mof_C 	C 	0.2166	0.2687	0.1023	0.182
Mof_H 	H 	0.2393	0.3045	0.148	-0.04
Mof_C 	C 	0.2273	0.2391	0.0128	-0.319
Mof_C 	C 	0.1927	0.1885	0.949	0.222
Mof_H 	H 	0.1981	0.1669	0.8861	-0.052
Mof_C 	C 	0.151	0.1693	0.975	-0.227
Mof_H 	H 	0.1278	0.1367	0.9294	0.098
Mof_O 	O 	0.5817	0.7764	0.3071	-0.606
Mof_O 	O 	0.54963	0.907	0.3947	-0.739
Mof_O 	O 	0.966	0.5163	0.3225	-0.635
Mof_O 	O 	0.969	0.6983	0.4018	-0.486
Mof_O 	O 	0.4742	0.7672	0.4012	-0.734
Mof_O 	O 	0.4327	0.8613	0.4923	-0.557
Mof_C 	C 	0.5826	0.8348	0.3807	0.61
Mof_C 	C 	0.6223	0.8369	0.4571	-0.466
Mof_H 	H 	0.6228	0.9246	0.491	0.188
Mof_H 	H 	0.6186	0.7645	0.5037	0.152
Mof_C 	C 	0.667	0.8175	0.4198	0.133
Mof_C 	C 	0.6813	0.6947	0.4011	-0.112
Mof_H 	H 	0.6626	0.6189	0.4079	0.065
Mof_C 	C 	0.7231	0.6742	0.3717	-0.059
Mof_H 	H 	0.7322	0.5847	0.3587	0.05
Mof_C 	C 	0.7511	0.7789	0.3611	0.078
Mof_C 	C 	0.7367	0.8997	0.3832	-0.124
Mof_H 	H 	0.7554	0.976	0.3783	0.104
Mof_C 	C 	0.6955	0.9194	0.4132	0.054
Mof_H 	H 	0.6871	0.0083	0.4296	-0.042
Mof_C 	C 	0.7961	0.7593	0.3311	-0.092
Mof_C 	C 	0.812	0.6337	0.3099	0.08
Mof_H 	H 	0.7937	0.5564	0.3146	0.002
Mof_C 	C 	0.8538	0.6166	0.2822	-0.253
Mof_H 	H 	0.8635	0.528	0.2689	0.113
Mof_C 	C 	0.881	0.7226	0.2735	0.267
Mof_C 	C 	0.8666	0.8489	0.2918	-0.242
Mof_H 	H 	0.8851	0.925	0.2849	0.121
Mof_C 	C 	0.8246	0.8669	0.3207	0.073
Mof_H 	H 	0.8152	0.956	0.3338	0.027
Mof_C 	C 	0.9278	0.7027	0.2458	-0.525
Mof_H 	H 	0.9404	0.7912	0.2305	0.187
Mof_H 	H 	0.9264	0.6442	0.1889	0.184
Mof_C 	C 	0.957	0.6374	0.3277	0.583
Mof_C 	C 	0.4376	0.774	0.4334	0.619
Mof_C 	C 	0.4035	0.6678	0.4056	-0.551
Mof_H 	H 	0.4006	0.6562	0.3358	0.17
Mof_H 	H 	0.4143	0.5809	0.4347	0.163
Mof_C 	C 	0.3578	0.6963	0.4339	0.274
Mof_C 	C 	0.3246	0.7491	0.3718	-0.238
Mof_H 	H 	0.3302	0.7726	0.3094	0.124
Mof_C 	C 	0.2834	0.7687	0.3977	0.064
Mof_H 	H 	0.2607	0.8045	0.352	0.022
Mof_C 	C 	0.2727	0.7391	0.4872	-0.038
Mof_C 	C 	0.3073	0.6885	0.551	0.041
Mof_H 	H 	0.3019	0.6669	0.6139	0.019
Mof_C 	C 	0.349	0.6693	0.525	-0.221
Mof_H 	H 	0.3722	0.6367	0.5706	0.094
Mof_O 	O 	0.0817	0.2764	0.3071	-0.594
Mof_O 	O 	0.04963	0.407	0.3947	-0.759
Mof_O 	O 	0.466	0.0163	0.3225	-0.814
Mof_O 	O 	0.469	0.1983	0.4018	-0.587
Mof_O 	O 	0.9742	0.2672	0.4012	-0.6
Mof_O 	O 	0.9327	0.3613	0.4923	-0.534
Mof_C 	C 	0.0826	0.3348	0.3807	0.627
Mof_C 	C 	0.1223	0.3369	0.4571	-0.585
Mof_H 	H 	0.1228	0.4246	0.491	0.197
Mof_H 	H 	0.1186	0.2645	0.5037	0.176
Mof_C 	C 	0.167	0.3175	0.4198	0.329
Mof_C 	C 	0.1813	0.1947	0.4011	-0.29
Mof_H 	H 	0.1626	0.1189	0.4079	0.102
Mof_C 	C 	0.2231	0.1742	0.3717	0.105
Mof_H 	H 	0.2322	0.0847	0.3587	-0.027
Mof_C 	C 	0.2511	0.2789	0.3611	-0.105
Mof_C 	C 	0.2367	0.3997	0.3832	0.12
Mof_H 	H 	0.2554	0.476	0.3783	-0.008
Mof_C 	C 	0.1955	0.4194	0.4132	-0.299
Mof_H 	H 	0.1871	0.5083	0.4296	0.132
Mof_C 	C 	0.2961	0.2593	0.3311	0.005
Mof_C 	C 	0.312	0.1337	0.3099	-0.006
Mof_H 	H 	0.2937	0.0564	0.3146	0.008
Mof_C 	C 	0.3538	0.1166	0.2822	-0.188
Mof_H 	H 	0.3635	0.028	0.2689	0.06
Mof_C 	C 	0.381	0.2226	0.2735	0.202
Mof_C 	C 	0.3666	0.3489	0.2918	-0.182
Mof_H 	H 	0.3851	0.425	0.2849	0.067
Mof_C 	C 	0.3246	0.3669	0.3207	-0.011
Mof_H 	H 	0.3152	0.456	0.3338	0.033
Mof_C 	C 	0.4278	0.2027	0.2458	-0.501
Mof_H 	H 	0.4404	0.2912	0.2305	0.139
Mof_H 	H 	0.4264	0.1442	0.1889	0.144
Mof_C 	C 	0.457	0.1374	0.3277	0.607
Mof_C 	C 	0.9376	0.274	0.4334	0.572
Mof_C 	C 	0.9035	0.1678	0.4056	-0.517
Mof_H 	H 	0.9006	0.1562	0.3358	0.157
Mof_H 	H 	0.9143	0.0809	0.4347	0.15
Mof_C 	C 	0.8578	0.1963	0.4339	0.244
Mof_C 	C 	0.8246	0.2491	0.3718	-0.237
Mof_H 	H 	0.8302	0.2726	0.3094	0.108
Mof_C 	C 	0.7834	0.2687	0.3977	0.043
Mof_H 	H 	0.7607	0.3045	0.352	0.014
Mof_C 	C 	0.7727	0.2391	0.4872	-0.046
Mof_C 	C 	0.8073	0.1885	0.551	0.027
Mof_H 	H 	0.8019	0.1669	0.6139	0.01
Mof_C 	C 	0.849	0.1693	0.525	-0.218
Mof_H 	H 	0.8722	0.1367	0.5706	0.087
Mof_Pr	Pr	0.5	0.17736	0.75	2.443
Mof_Pr	Pr	1.48383e-33	0.67736	0.75	2.179
Mof_Pr	Pr	0.5	0.82264	0.25	2.699
Mof_Pr	Pr	4.94609e-34	0.32264	0.25	2.097
Mof_Pr	Pr	0.5	0	-0	2.252
Mof_Pr	Pr	-0	0.5	-0	2.114
Mof_Pr	Pr	0.5	6.00506e-33	0.5	2.491
Mof_Pr	Pr	9.89218e-34	0.5	0.5	2.333
_end
