data_functionalizedCrystal
_audit_creation_method	'EQeq! by Chris Wilmer'
_symmetry_space_group_name_H-M	'P1'
_symmetry_Int_Tables_number	1
_symmetry_cell_setting	triclinic
loop_
_symmetry_equiv_pos_as_xyz
  x,y,z
_cell_length_a	10.3397
_cell_length_b	14.7632
_cell_length_c	13.7726
_cell_angle_alpha	90
_cell_angle_beta	100.734
_cell_angle_gamma	90
loop_
_atom_site_label
_atom_site_type_symbol
_atom_site_fract_x
_atom_site_fract_y
_atom_site_fract_z
_atom_site_charge
Mof_Zn	Zn	0.05411	0.92103	0.39766	1.21
Mof_P 	P 	0.2108	0.84684	0.2317	0.452
Mof_H 	H 	0.194	0.758	0.261	-0.064
Mof_P 	P 	0.56456	0.62075	0.11604	0.435
Mof_H 	H 	0.66	0.5992	0.2026	-0.025
Mof_O 	O 	0.1881	0.9062	0.3161	-0.467
Mof_O 	O 	0.4554	0.55201	0.1076	-0.468
Mof_O 	O 	0.1089	0.858	0.1393	-0.504
Mof_O 	O 	0.6348	0.6205	0.02884	-0.42
Mof_O 	O 	0.5129	0.71497	0.13271	-0.429
Mof_O 	O 	0.3492	0.86151	0.2123	-0.423
Mof_Zn	Zn	0.55411	0.42103	0.39766	1.231
Mof_P 	P 	0.7108	0.34684	0.2317	0.451
Mof_H 	H 	0.694	0.258	0.261	-0.045
Mof_P 	P 	0.06456	0.12075	0.11604	0.36
Mof_H 	H 	0.16	0.0992	0.2026	-0.037
Mof_O 	O 	0.6881	0.4062	0.3161	-0.44
Mof_O 	O 	0.9554	0.05201	0.1076	-0.38
Mof_O 	O 	0.6089	0.358	0.1393	-0.449
Mof_O 	O 	0.1348	0.1205	0.02884	-0.433
Mof_O 	O 	0.0129	0.21497	0.13271	-0.462
Mof_O 	O 	0.8492	0.36151	0.2123	-0.374
Mof_Zn	Zn	0.94589	0.92103	0.10234	1.251
Mof_P 	P 	0.7892	0.84684	0.2683	0.453
Mof_H 	H 	0.806	0.758	0.239	-0.034
Mof_P 	P 	0.43544	0.62075	0.38396	0.434
Mof_H 	H 	0.34	0.5992	0.2974	-0.041
Mof_O 	O 	0.8119	0.9062	0.1839	-0.435
Mof_O 	O 	0.5446	0.55201	0.3924	-0.46
Mof_O 	O 	0.8911	0.858	0.3607	-0.408
Mof_O 	O 	0.3652	0.6205	0.47116	-0.439
Mof_O 	O 	0.4871	0.71497	0.36729	-0.425
Mof_O 	O 	0.6508	0.86151	0.2877	-0.417
Mof_Zn	Zn	0.44589	0.42103	0.10234	1.231
Mof_P 	P 	0.2892	0.34684	0.2683	0.452
Mof_H 	H 	0.306	0.258	0.239	-0.052
Mof_P 	P 	0.93544	0.12075	0.38396	0.511
Mof_H 	H 	0.84	0.0992	0.2974	-0.027
Mof_O 	O 	0.3119	0.4062	0.1839	-0.459
Mof_O 	O 	0.0446	0.05201	0.3924	-0.547
Mof_O 	O 	0.3911	0.358	0.3607	-0.463
Mof_O 	O 	0.8652	0.1205	0.47116	-0.421
Mof_O 	O 	0.9871	0.21497	0.36729	-0.377
Mof_O 	O 	0.1508	0.36151	0.2877	-0.451
Mof_Zn	Zn	0.94589	0.07897	0.60234	1.252
Mof_P 	P 	0.7892	0.15316	0.7683	0.453
Mof_H 	H 	0.806	0.242	0.739	-0.034
Mof_P 	P 	0.43544	0.37925	0.88396	0.434
Mof_H 	H 	0.34	0.4008	0.7974	-0.042
Mof_O 	O 	0.8119	0.0938	0.6839	-0.435
Mof_O 	O 	0.5446	0.44799	0.8924	-0.462
Mof_O 	O 	0.8911	0.142	0.8607	-0.41
Mof_O 	O 	0.3652	0.3795	0.97116	-0.445
Mof_O 	O 	0.4871	0.28503	0.86729	-0.428
Mof_O 	O 	0.6508	0.13849	0.7877	-0.419
Mof_Zn	Zn	0.44589	0.57897	0.60234	1.23
Mof_P 	P 	0.2892	0.65316	0.7683	0.452
Mof_H 	H 	0.306	0.742	0.739	-0.053
Mof_P 	P 	0.93544	0.87925	0.88396	0.512
Mof_H 	H 	0.84	0.9008	0.7974	-0.027
Mof_O 	O 	0.3119	0.5938	0.6839	-0.461
Mof_O 	O 	0.0446	0.94799	0.8924	-0.55
Mof_O 	O 	0.3911	0.642	0.8607	-0.465
Mof_O 	O 	0.8652	0.8795	0.97116	-0.423
Mof_O 	O 	0.9871	0.78503	0.86729	-0.377
Mof_O 	O 	0.1508	0.63849	0.7877	-0.453
Mof_Zn	Zn	0.05411	0.07897	0.89766	1.205
Mof_P 	P 	0.2108	0.15316	0.7317	0.451
Mof_H 	H 	0.194	0.242	0.761	-0.067
Mof_P 	P 	0.56456	0.37925	0.61604	0.435
Mof_H 	H 	0.66	0.4008	0.7026	-0.026
Mof_O 	O 	0.1881	0.0938	0.8161	-0.471
Mof_O 	O 	0.4554	0.44799	0.6076	-0.47
Mof_O 	O 	0.1089	0.142	0.6393	-0.507
Mof_O 	O 	0.6348	0.3795	0.52884	-0.422
Mof_O 	O 	0.5129	0.28503	0.63271	-0.43
Mof_O 	O 	0.3492	0.13849	0.7123	-0.424
Mof_Zn	Zn	0.55411	0.57897	0.89766	1.23
Mof_P 	P 	0.7108	0.65316	0.7317	0.451
Mof_H 	H 	0.694	0.742	0.761	-0.045
Mof_P 	P 	0.06456	0.87925	0.61604	0.357
Mof_H 	H 	0.16	0.9008	0.7026	-0.038
Mof_O 	O 	0.6881	0.5938	0.8161	-0.441
Mof_O 	O 	0.9554	0.94799	0.6076	-0.379
Mof_O 	O 	0.6089	0.642	0.6393	-0.451
Mof_O 	O 	0.1348	0.8795	0.52884	-0.44
Mof_O 	O 	0.0129	0.78503	0.63271	-0.465
Mof_O 	O 	0.8492	0.63849	0.7123	-0.374
Mof_Zn	Zn	0.5	0.78471	0.25	1.236
Mof_Zn	Zn	1.4811e-33	0.28471	0.25	1.203
Mof_Zn	Zn	0.5	0.21529	0.75	1.236
Mof_Zn	Zn	2.75196e-17	0.71529	0.75	1.202
_end
