# CIF file generated by openbabel 3.1.0, see https://openbabel.org
data_I
_chemical_name_common 'image0'
_cell_length_a 11.583
_cell_length_b 11.74
_cell_length_c 13.638
_cell_angle_alpha 76.28
_cell_angle_beta 75.52
_cell_angle_gamma 65.567
_space_group_name_H-M_alt 'P 1'
_space_group_name_Hall 'P 1'
loop_
    _symmetry_equiv_pos_as_xyz
    x,y,z
loop_
    _atom_site_label
    _atom_site_type_symbol
    _atom_site_fract_x
    _atom_site_fract_y
    _atom_site_fract_z
    _atom_site_occupancy
    O1       O        0.36880    0.40890    0.53740    1.000
    C1       C        0.25120    0.48320    0.53860    1.000
    O2       O        0.92910    0.68190    0.53070    1.000
    C2       C        0.97730    0.75990    0.53020    1.000
    O3       O        0.90580    0.87490    0.53830    1.000
    O4       O        0.16090    0.44520    0.56220    1.000
    N1       N        0.33210    0.65280    0.48680    1.000
    N2       N        0.15470    0.82980    0.48620    1.000
    C3       C        0.22660    0.62100    0.51080    1.000
    C4       C        0.11620    0.73040    0.51060    1.000
    N3       N        0.89920    0.45310    0.64870    1.000
    N4       N        0.53100    0.48640    0.33440    1.000
    N5       N        0.98190    0.01370    0.34330    1.000
    C5       C        0.48910    0.58740    0.26930    1.000
    H1       H        0.43270    0.66130    0.29510    1.000
    C6       C        0.60100    0.48810    0.12500    1.000
    C7       C        0.52150    0.59370    0.16550    1.000
    H2       H        0.48900    0.67010    0.12310    1.000
    C8       C        0.64560    0.49870    0.01340    1.000
    H3       H        0.60610    0.57560    0.97390    1.000
    C9       C        0.28290    0.78150    0.47030    1.000
    C10      C        0.94930    0.35110    0.71340    1.000
    H4       H        0.02550    0.28850    0.68860    1.000
    C11      C        0.89680    0.33000    0.81570    1.000
    H5       H        0.93490    0.25410    0.85690    1.000
    C12      C        0.78860    0.54110    0.68800    1.000
    H6       H        0.75010    0.61410    0.64410    1.000
    C13      C        0.60450    0.38390    0.29410    1.000
    H7       H        0.63160    0.30770    0.33790    1.000
    C14      C        0.72970    0.53030    0.78780    1.000
    H8       H        0.65230    0.59300    0.81060    1.000
    C15      C        0.78840    0.42240    0.85520    1.000
    C16      C        0.73660    0.40840    0.96490    1.000
    H9       H        0.77090    0.32930    0.00340    1.000
    C17      C        0.36560    0.85550    0.43740    1.000
    H10      H        0.42880    0.82540    0.48120    1.000
    H11      H        0.31390    0.94320    0.44150    1.000
    H12      H        0.40810    0.84620    0.36800    1.000
    C18      C        0.64310    0.38270    0.19270    1.000
    H13      H        0.69990    0.30750    0.16890    1.000
    C19      C        0.95380    0.01070    0.03900    1.000
    H14      H        0.87300    0.02550    0.02680    1.000
    C20      C        0.87030    0.02350    0.31610    1.000
    H15      H        0.79860    0.02940    0.36710    1.000
    C21      C        0.86070    0.02490    0.21990    1.000
    H16      H        0.78270    0.03320    0.20620    1.000
    C22      C        0.95990    0.01460    0.14370    1.000
    C23      C        0.08010    0.00390    0.16860    1.000
    H17      H        0.15330    0.99450    0.11860    1.000
    C24      C        0.08170    0.00800    0.26740    1.000
    H18      H        0.15610    0.00680    0.28260    1.000
    O5       O        0.63120    0.59110    0.46260    1.000
    C25      C        0.74880    0.51680    0.46140    1.000
    O6       O        0.07090    0.31810    0.46930    1.000
    C26      C        0.02270    0.24010    0.46980    1.000
    O7       O        0.09420    0.12510    0.46170    1.000
    O8       O        0.83910    0.55480    0.43780    1.000
    N6       N        0.66790    0.34720    0.51320    1.000
    N7       N        0.84530    0.17020    0.51380    1.000
    C27      C        0.77340    0.37900    0.48920    1.000
    C28      C        0.88380    0.26960    0.48940    1.000
    N8       N        0.10080    0.54690    0.35130    1.000
    N9       N        0.46900    0.51360    0.66560    1.000
    N10      N        0.01810    0.98630    0.65670    1.000
    C29      C        0.51090    0.41260    0.73070    1.000
    H19      H        0.56730    0.33870    0.70490    1.000
    C30      C        0.39900    0.51190    0.87500    1.000
    C31      C        0.47850    0.40630    0.83450    1.000
    H20      H        0.51100    0.32990    0.87690    1.000
    C32      C        0.35440    0.50130    0.98660    1.000
    H21      H        0.39390    0.42440    0.02610    1.000
    C33      C        0.71710    0.21850    0.52970    1.000
    C34      C        0.05070    0.64890    0.28660    1.000
    H22      H        0.97450    0.71150    0.31140    1.000
    C35      C        0.10320    0.67000    0.18430    1.000
    H23      H        0.06510    0.74590    0.14310    1.000
    C36      C        0.21140    0.45890    0.31200    1.000
    H24      H        0.24990    0.38590    0.35590    1.000
    C37      C        0.39550    0.61610    0.70590    1.000
    H25      H        0.36840    0.69230    0.66210    1.000
    C38      C        0.27030    0.46970    0.21220    1.000
    H26      H        0.34770    0.40700    0.18940    1.000
    C39      C        0.21160    0.57760    0.14480    1.000
    C40      C        0.26340    0.59160    0.03510    1.000
    H27      H        0.22910    0.67070    0.99660    1.000
    C41      C        0.63440    0.14450    0.56260    1.000
    H28      H        0.57120    0.17460    0.51880    1.000
    H29      H        0.68610    0.05680    0.55850    1.000
    H30      H        0.59190    0.15380    0.63200    1.000
    C42      C        0.35690    0.61730    0.80730    1.000
    H31      H        0.30010    0.69250    0.83110    1.000
    C43      C        0.04620    0.98930    0.96100    1.000
    H32      H        0.12700    0.97450    0.97320    1.000
    C44      C        0.12970    0.97650    0.68390    1.000
    H33      H        0.20140    0.97060    0.63290    1.000
    C45      C        0.13930    0.97510    0.78010    1.000
    H34      H        0.21730    0.96680    0.79380    1.000
    C46      C        0.04010    0.98540    0.85630    1.000
    C47      C        0.91990    0.99610    0.83140    1.000
    H35      H        0.84670    0.00550    0.88140    1.000
    C48      C        0.91830    0.99200    0.73260    1.000
    H36      H        0.84390    0.99320    0.71740    1.000
    Co1      Co       0.00000    0.00000    0.50000    1.000
    Co2      Co       0.00000    0.50000    0.50000    1.000
    Co3      Co       0.50000    0.50000    0.50000    1.000
