# CIF file generated by openbabel 3.1.0, see https://openbabel.org
data_I
_chemical_name_common 'image0'
_cell_length_a 10.8528
_cell_length_b 12.2516
_cell_length_c 16.9031
_cell_angle_alpha 104.462
_cell_angle_beta 93.659
_cell_angle_gamma 101.404
_space_group_name_H-M_alt 'P 1'
_space_group_name_Hall 'P 1'
loop_
    _symmetry_equiv_pos_as_xyz
    x,y,z
loop_
    _atom_site_label
    _atom_site_type_symbol
    _atom_site_fract_x
    _atom_site_fract_y
    _atom_site_fract_z
    _atom_site_occupancy
    Tb1      Tb       0.25423    0.42230    0.22666    1.000
    Tb2      Tb       0.29827    0.09871    0.23771    1.000
    Tb3      Tb       0.36752    0.77940    0.35847    1.000
    O1       O        0.36780    0.26080    0.17037    1.000
    O2       O        0.39090    0.08760    0.11070    1.000
    O3       O        0.65710    0.46160    0.85889    1.000
    O4       O        0.61920    0.28120    0.78092    1.000
    O5       O        0.29020    0.29952    0.32193    1.000
    O6       O        0.45090    0.22370    0.34733    1.000
    O7       O        0.44580    0.99890    0.26339    1.000
    O8       O        0.54220    0.91660    0.34426    1.000
    O9       O        0.05880    0.29950    0.22959    1.000
    O10      O        0.10380    0.12470    0.19600    1.000
    O11      O        0.20130    0.04920    0.34344    1.000
    O12      O        0.28660    0.94110    0.40957    1.000
    O13      O        0.15230    0.71730    0.29759    1.000
    O14      O        0.10680    0.53900    0.21106    1.000
    O15      O        0.51500    0.66810    0.35369    1.000
    O16      O        0.47000    0.48790    0.27347    1.000
    O17      O        0.26560    0.70050    0.45537    1.000
    O18      O        0.23480    0.53960    0.35435    1.000
    C1       C        0.46540    0.23390    0.04530    1.000
    C2       C        0.51090    0.35170    0.05540    1.000
    H1       H        0.50530    0.40480    0.10430    1.000
    C3       C        0.56450    0.38900    0.99200    1.000
    H2       H        0.59730    0.46740    0.99940    1.000
    C4       C        0.57010    0.31160    0.91770    1.000
    C5       C        0.52730    0.19330    0.90880    1.000
    H3       H        0.53220    0.14010    0.85970    1.000
    C6       C        0.47780    0.15570    0.97280    1.000
    H4       H        0.45240    0.07690    0.96740    1.000
    C7       C        0.40570    0.19170    0.11270    1.000
    C8       C        0.61960    0.35450    0.84670    1.000
    C9       C        0.36980    0.45590    0.48770    1.000
    H5       H        0.28300    0.42520    0.47940    1.000
    C10      C        0.44850    0.40430    0.43490    1.000
    C11      C        0.57950    0.44780    0.44800    1.000
    H6       H        0.63200    0.41220    0.41370    1.000
    C12      C        0.39330    0.30490    0.36450    1.000
    C13      C        0.90530    0.13970    0.24190    1.000
    C14      C        0.80450    0.19280    0.23930    1.000
    H7       H        0.81590    0.26310    0.22610    1.000
    C15      C        0.68710    0.14260    0.25600    1.000
    H8       H        0.61890    0.17700    0.25120    1.000
    C16      C        0.67060    0.04030    0.28010    1.000
    C17      C        0.77330    0.99060    0.28630    1.000
    H9       H        0.76450    0.92460    0.30500    1.000
    C18      C        0.88830    0.03750    0.26540    1.000
    H10      H        0.95510    0.00060    0.26690    1.000
    C19      C        0.03200    0.19190    0.22130    1.000
    C20      C        0.54370    0.98280    0.29800    1.000
    C21      C        0.20380    0.99620    0.39830    1.000
    C22      C        0.09950    0.99970    0.45250    1.000
    C23      C        0.02620    0.08030    0.45540    1.000
    H11      H        0.04460    0.13510    0.42600    1.000
    C24      C        0.07480    0.91980    0.49820    1.000
    H12      H        0.12550    0.86670    0.49770    1.000
    C25      C        0.20720    0.59740    0.42130    1.000
    C26      C        0.10020    0.54610    0.46220    1.000
    C27      C        0.07850    0.60590    0.53880    1.000
    H13      H        0.13120    0.67730    0.56510    1.000
    C28      C        0.02070    0.43930    0.42290    1.000
    H14      H        0.03440    0.39850    0.37110    1.000
    C29      C        0.93850    0.61260    0.27250    1.000
    C30      C        0.89720    0.70360    0.32200    1.000
    H15      H        0.95480    0.77290    0.34660    1.000
    C31      C        0.77150    0.69230    0.33510    1.000
    H16      H        0.74550    0.75390    0.36890    1.000
    C32      C        0.68360    0.59010    0.29850    1.000
    C33      C        0.72530    0.49840    0.25000    1.000
    H17      H        0.66800    0.42850    0.22640    1.000
    C34      C        0.85090    0.50940    0.23620    1.000
    H18      H        0.87690    0.44770    0.20250    1.000
    C35      C        0.07610    0.62380    0.25930    1.000
    C36      C        0.54540    0.58140    0.31010    1.000
    Tb4      Tb       0.74577    0.57770    0.77334    1.000
    Tb5      Tb       0.70173    0.90129    0.76229    1.000
    Tb6      Tb       0.63248    0.22060    0.64153    1.000
    O19      O        0.63220    0.73920    0.82963    1.000
    O20      O        0.60910    0.91240    0.88930    1.000
    O21      O        0.34290    0.53840    0.14111    1.000
    O22      O        0.38080    0.71880    0.21908    1.000
    O23      O        0.70980    0.70048    0.67807    1.000
    O24      O        0.54910    0.77630    0.65267    1.000
    O25      O        0.55420    0.00110    0.73661    1.000
    O26      O        0.45780    0.08340    0.65574    1.000
    O27      O        0.94120    0.70050    0.77041    1.000
    O28      O        0.89620    0.87530    0.80400    1.000
    O29      O        0.79870    0.95080    0.65656    1.000
    O30      O        0.71340    0.05890    0.59043    1.000
    O31      O        0.84770    0.28270    0.70241    1.000
    O32      O        0.89320    0.46100    0.78894    1.000
    O33      O        0.48500    0.33190    0.64631    1.000
    O34      O        0.53000    0.51210    0.72653    1.000
    O35      O        0.73440    0.29950    0.54463    1.000
    O36      O        0.76520    0.46040    0.64565    1.000
    C37      C        0.53460    0.76610    0.95470    1.000
    C38      C        0.48910    0.64830    0.94460    1.000
    H19      H        0.49470    0.59520    0.89570    1.000
    C39      C        0.43550    0.61100    0.00800    1.000
    H20      H        0.40270    0.53260    0.00060    1.000
    C40      C        0.42990    0.68840    0.08230    1.000
    C41      C        0.47270    0.80670    0.09120    1.000
    H21      H        0.46780    0.85990    0.14030    1.000
    C42      C        0.52220    0.84430    0.02720    1.000
    H22      H        0.54760    0.92310    0.03260    1.000
    C43      C        0.59430    0.80830    0.88730    1.000
    C44      C        0.38040    0.64550    0.15330    1.000
    C45      C        0.63020    0.54410    0.51230    1.000
    H23      H        0.71700    0.57480    0.52060    1.000
    C46      C        0.55150    0.59570    0.56510    1.000
    C47      C        0.42050    0.55220    0.55200    1.000
    H24      H        0.36800    0.58780    0.58630    1.000
    C48      C        0.60670    0.69510    0.63550    1.000
    C49      C        0.09470    0.86030    0.75810    1.000
    C50      C        0.19550    0.80720    0.76070    1.000
    H25      H        0.18410    0.73690    0.77390    1.000
    C51      C        0.31290    0.85740    0.74400    1.000
    H26      H        0.38110    0.82300    0.74880    1.000
    C52      C        0.32940    0.95970    0.71990    1.000
    C53      C        0.22670    0.00940    0.71370    1.000
    H27      H        0.23550    0.07540    0.69500    1.000
    C54      C        0.11170    0.96250    0.73460    1.000
    H28      H        0.04490    0.99940    0.73310    1.000
    C55      C        0.96800    0.80810    0.77870    1.000
    C56      C        0.45630    0.01720    0.70200    1.000
    C57      C        0.79620    0.00380    0.60170    1.000
    C58      C        0.90050    0.00030    0.54750    1.000
    C59      C        0.97380    0.91970    0.54460    1.000
    H29      H        0.95540    0.86490    0.57400    1.000
    C60      C        0.92520    0.08020    0.50180    1.000
    H30      H        0.87450    0.13330    0.50230    1.000
    C61      C        0.79280    0.40260    0.57870    1.000
    C62      C        0.89980    0.45390    0.53780    1.000
    C63      C        0.92150    0.39410    0.46120    1.000
    H31      H        0.86880    0.32270    0.43490    1.000
    C64      C        0.97930    0.56070    0.57710    1.000
    H32      H        0.96560    0.60150    0.62890    1.000
    C65      C        0.06150    0.38740    0.72750    1.000
    C66      C        0.10280    0.29640    0.67800    1.000
    H33      H        0.04520    0.22710    0.65340    1.000
    C67      C        0.22850    0.30770    0.66490    1.000
    H34      H        0.25450    0.24610    0.63110    1.000
    C68      C        0.31640    0.40990    0.70150    1.000
    C69      C        0.27470    0.50160    0.75000    1.000
    H35      H        0.33200    0.57150    0.77360    1.000
    C70      C        0.14910    0.49060    0.76380    1.000
    H36      H        0.12310    0.55230    0.79750    1.000
    C71      C        0.92390    0.37620    0.74070    1.000
    C72      C        0.45460    0.41860    0.68990    1.000
