# CIF file generated by openbabel 3.1.0, see https://openbabel.org
data_I
_chemical_name_common 'image0'
_cell_length_a 10.7031
_cell_length_b 23.0805
_cell_length_c 7.2343
_cell_angle_alpha 90
_cell_angle_beta 90
_cell_angle_gamma 90
_space_group_name_H-M_alt 'P 1'
_space_group_name_Hall 'P 1'
loop_
    _symmetry_equiv_pos_as_xyz
    x,y,z
loop_
    _atom_site_label
    _atom_site_type_symbol
    _atom_site_fract_x
    _atom_site_fract_y
    _atom_site_fract_z
    _atom_site_occupancy
    Sb1      Sb       0.27440    0.25860    0.79884    1.000
    O1       O        0.33580    0.35930    0.91680    1.000
    O2       O        0.46340    0.43182    0.84360    1.000
    O3       O        0.09170    0.27814    0.70540    1.000
    O4       O        0.96680    0.34121    0.56740    1.000
    O5       O        0.46910    0.23955    0.71750    1.000
    O6       O        0.59500    0.17154    0.60360    1.000
    O7       O        0.18040    0.16422    0.86150    1.000
    O8       O        0.57160    0.40784    0.23750    1.000
    O9       O        0.31020    0.43886    0.20780    1.000
    O10      O        0.31480    0.47030    0.28900    1.000
    N1       N        0.30570    0.32507    0.56310    1.000
    N2       N        0.26550    0.20215    0.53580    1.000
    C1       C        0.40700    0.36664    0.60750    1.000
    H1       H        0.40180    0.39950    0.52420    1.000
    H2       H        0.48720    0.34800    0.58800    1.000
    C2       C        0.39970    0.38810    0.80540    1.000
    C3       C        0.18460    0.35700    0.53870    1.000
    H3       H        0.17380    0.36590    0.40870    1.000
    H4       H        0.18940    0.39340    0.60520    1.000
    C4       C        0.07180    0.32414    0.60520    1.000
    C5       C        0.34120    0.29279    0.39200    1.000
    H5       H        0.42830    0.28140    0.39960    1.000
    H6       H        0.33150    0.31790    0.28550    1.000
    C6       C        0.26100    0.23946    0.36740    1.000
    H7       H        0.17530    0.25100    0.34380    1.000
    H8       H        0.29030    0.21760    0.26150    1.000
    C7       C        0.37890    0.16447    0.53660    1.000
    H9       H        0.39930    0.15380    0.41040    1.000
    H10      H        0.36050    0.12910    0.60390    1.000
    C8       C        0.49100    0.19369    0.62370    1.000
    C9       C        0.15280    0.16439    0.53730    1.000
    H11      H        0.16220    0.13410    0.44540    1.000
    H12      H        0.07980    0.18720    0.50530    1.000
    C10      C        0.63430    0.36271    0.22570    1.000
    Sb2      Sb       0.72560    0.74140    0.79884    1.000
    O11      O        0.66420    0.64070    0.91680    1.000
    O12      O        0.53660    0.56818    0.84360    1.000
    O13      O        0.90830    0.72186    0.70540    1.000
    O14      O        0.03320    0.65879    0.56740    1.000
    O15      O        0.53090    0.76045    0.71750    1.000
    O16      O        0.40500    0.82846    0.60360    1.000
    O17      O        0.81960    0.83578    0.86150    1.000
    O18      O        0.42840    0.59216    0.23750    1.000
    O19      O        0.68980    0.56114    0.20780    1.000
    O20      O        0.68520    0.52970    0.28900    1.000
    N3       N        0.69430    0.67493    0.56310    1.000
    N4       N        0.73450    0.79785    0.53580    1.000
    C11      C        0.59300    0.63336    0.60750    1.000
    H13      H        0.59820    0.60050    0.52420    1.000
    H14      H        0.51280    0.65200    0.58800    1.000
    C12      C        0.60030    0.61190    0.80540    1.000
    C13      C        0.81540    0.64300    0.53870    1.000
    H15      H        0.82620    0.63410    0.40870    1.000
    H16      H        0.81060    0.60660    0.60520    1.000
    C14      C        0.92820    0.67586    0.60520    1.000
    C15      C        0.65880    0.70721    0.39200    1.000
    H17      H        0.57170    0.71860    0.39960    1.000
    H18      H        0.66850    0.68210    0.28550    1.000
    C16      C        0.73900    0.76054    0.36740    1.000
    H19      H        0.82470    0.74900    0.34380    1.000
    H20      H        0.70970    0.78240    0.26150    1.000
    C17      C        0.62110    0.83553    0.53660    1.000
    H21      H        0.60070    0.84620    0.41040    1.000
    H22      H        0.63950    0.87090    0.60390    1.000
    C18      C        0.50900    0.80631    0.62370    1.000
    C19      C        0.84720    0.83561    0.53730    1.000
    H23      H        0.83780    0.86590    0.44540    1.000
    H24      H        0.92020    0.81280    0.50530    1.000
    C20      C        0.36570    0.63729    0.22570    1.000
    Sb3      Sb       0.77440    0.24140    0.29884    1.000
    O21      O        0.83580    0.14070    0.41680    1.000
    O22      O        0.96340    0.06818    0.34360    1.000
    O23      O        0.59170    0.22186    0.20540    1.000
    O24      O        0.46680    0.15879    0.06740    1.000
    O25      O        0.96910    0.26045    0.21750    1.000
    O26      O        0.09500    0.32846    0.10360    1.000
    O27      O        0.68040    0.33578    0.36150    1.000
    O28      O        0.07160    0.09216    0.73750    1.000
    O29      O        0.81020    0.06114    0.70780    1.000
    O30      O        0.81480    0.02970    0.78900    1.000
    N5       N        0.80570    0.17493    0.06310    1.000
    N6       N        0.76550    0.29785    0.03580    1.000
    C21      C        0.90700    0.13336    0.10750    1.000
    H25      H        0.90180    0.10050    0.02420    1.000
    H26      H        0.98720    0.15200    0.08800    1.000
    C22      C        0.89970    0.11190    0.30540    1.000
    C23      C        0.68460    0.14300    0.03870    1.000
    H27      H        0.67380    0.13410    0.90870    1.000
    H28      H        0.68940    0.10660    0.10520    1.000
    C24      C        0.57180    0.17586    0.10520    1.000
    C25      C        0.84120    0.20721    0.89200    1.000
    H29      H        0.92830    0.21860    0.89960    1.000
    H30      H        0.83150    0.18210    0.78550    1.000
    C26      C        0.76100    0.26054    0.86740    1.000
    H31      H        0.67530    0.24900    0.84380    1.000
    H32      H        0.79030    0.28240    0.76150    1.000
    C27      C        0.87890    0.33553    0.03660    1.000
    H33      H        0.89930    0.34620    0.91040    1.000
    H34      H        0.86050    0.37090    0.10390    1.000
    C28      C        0.99100    0.30631    0.12370    1.000
    C29      C        0.65280    0.33561    0.03730    1.000
    H35      H        0.66220    0.36590    0.94540    1.000
    H36      H        0.57980    0.31280    0.00530    1.000
    C30      C        0.13430    0.13729    0.72570    1.000
    Sb4      Sb       0.22560    0.75860    0.29884    1.000
    O31      O        0.16420    0.85930    0.41680    1.000
    O32      O        0.03660    0.93182    0.34360    1.000
    O33      O        0.40830    0.77814    0.20540    1.000
    O34      O        0.53320    0.84121    0.06740    1.000
    O35      O        0.03090    0.73955    0.21750    1.000
    O36      O        0.90500    0.67154    0.10360    1.000
    O37      O        0.31960    0.66422    0.36150    1.000
    O38      O        0.92840    0.90784    0.73750    1.000
    O39      O        0.18980    0.93886    0.70780    1.000
    O40      O        0.18520    0.97030    0.78900    1.000
    N7       N        0.19430    0.82507    0.06310    1.000
    N8       N        0.23450    0.70215    0.03580    1.000
    C31      C        0.09300    0.86664    0.10750    1.000
    H37      H        0.09820    0.89950    0.02420    1.000
    H38      H        0.01280    0.84800    0.08800    1.000
    C32      C        0.10030    0.88810    0.30540    1.000
    C33      C        0.31540    0.85700    0.03870    1.000
    H39      H        0.32620    0.86590    0.90870    1.000
    H40      H        0.31060    0.89340    0.10520    1.000
    C34      C        0.42820    0.82414    0.10520    1.000
    C35      C        0.15880    0.79279    0.89200    1.000
    H41      H        0.07170    0.78140    0.89960    1.000
    H42      H        0.16850    0.81790    0.78550    1.000
    C36      C        0.23900    0.73946    0.86740    1.000
    H43      H        0.32470    0.75100    0.84380    1.000
    H44      H        0.20970    0.71760    0.76150    1.000
    C37      C        0.12110    0.66447    0.03660    1.000
    H45      H        0.10070    0.65380    0.91040    1.000
    H46      H        0.13950    0.62910    0.10390    1.000
    C38      C        0.00900    0.69369    0.12370    1.000
    C39      C        0.34720    0.66439    0.03730    1.000
    H47      H        0.33780    0.63410    0.94540    1.000
    H48      H        0.42020    0.68720    0.00530    1.000
    C40      C        0.86570    0.86271    0.72570    1.000
    Pr1      Pr       0.50000    0.50000    0.10300    1.000
    Pr2      Pr       0.00000    0.00000    0.60300    1.000
