# CIF file generated by openbabel 3.1.0, see https://openbabel.org
data_I
_chemical_name_common 'image0'
_cell_length_a 10.496
_cell_length_b 12.396
_cell_length_c 16.254
_cell_angle_alpha 90
_cell_angle_beta 90
_cell_angle_gamma 90
_space_group_name_H-M_alt 'P 1'
_space_group_name_Hall 'P 1'
loop_
    _symmetry_equiv_pos_as_xyz
    x,y,z
loop_
    _atom_site_label
    _atom_site_type_symbol
    _atom_site_fract_x
    _atom_site_fract_y
    _atom_site_fract_z
    _atom_site_occupancy
    C1       C        0.32890    0.10540    0.98440    1.000
    C2       C        0.35250    0.06290    0.11870    1.000
    C3       C        0.08620    0.83800    0.83420    1.000
    C4       C        0.00420    0.69980    0.75990    1.000
    C5       C        0.44390    0.85810    0.81880    1.000
    C6       C        0.58210    0.71860    0.79400    1.000
    Mn1      Mn       0.22651    0.04889    0.79988    1.000
    N1       N        0.28120    0.10980    0.92240    1.000
    N2       N        0.39090    0.11260    0.05240    1.000
    N3       N        0.32850    0.02290    0.17850    1.000
    N4       N        0.09750    0.92390    0.85710    1.000
    N5       N        0.08650    0.73610    0.81270    1.000
    N6       N        0.93750    0.66010    0.71310    1.000
    N7       N        0.38320    0.92900    0.80870    1.000
    N8       N        0.51650    0.77870    0.84420    1.000
    N9       N        0.64640    0.66530    0.76020    1.000
    C7       C        0.17110    0.89460    0.48440    1.000
    C8       C        0.14750    0.93710    0.61870    1.000
    C9       C        0.41380    0.16200    0.33420    1.000
    C10      C        0.49580    0.30020    0.25990    1.000
    C11      C        0.05610    0.14190    0.31880    1.000
    C12      C        0.91790    0.28140    0.29400    1.000
    Mn2      Mn       0.27349    0.95111    0.29988    1.000
    N10      N        0.21880    0.89020    0.42240    1.000
    N11      N        0.10910    0.88740    0.55240    1.000
    N12      N        0.17150    0.97710    0.67850    1.000
    N13      N        0.40250    0.07610    0.35710    1.000
    N14      N        0.41350    0.26390    0.31270    1.000
    N15      N        0.56250    0.33990    0.21310    1.000
    N16      N        0.11680    0.07100    0.30870    1.000
    N17      N        0.98350    0.22130    0.34420    1.000
    N18      N        0.85360    0.33470    0.26020    1.000
    C13      C        0.67110    0.60540    0.51560    1.000
    C14      C        0.64750    0.56290    0.38130    1.000
    C15      C        0.91380    0.33800    0.66580    1.000
    C16      C        0.99580    0.19980    0.74010    1.000
    C17      C        0.55610    0.35810    0.68120    1.000
    C18      C        0.41790    0.21860    0.70600    1.000
    Mn3      Mn       0.77349    0.54889    0.70012    1.000
    N19      N        0.71880    0.60980    0.57760    1.000
    N20      N        0.60910    0.61260    0.44760    1.000
    N21      N        0.67150    0.52290    0.32150    1.000
    N22      N        0.90250    0.42390    0.64290    1.000
    N23      N        0.91350    0.23610    0.68730    1.000
    N24      N        0.06250    0.16010    0.78690    1.000
    N25      N        0.61680    0.42900    0.69130    1.000
    N26      N        0.48350    0.27870    0.65580    1.000
    N27      N        0.35360    0.16530    0.73980    1.000
    C19      C        0.82890    0.39460    0.01560    1.000
    C20      C        0.85250    0.43710    0.88130    1.000
    C21      C        0.58620    0.66200    0.16580    1.000
    C22      C        0.50420    0.80020    0.24010    1.000
    C23      C        0.94390    0.64190    0.18120    1.000
    C24      C        0.08210    0.78140    0.20600    1.000
    Mn4      Mn       0.72651    0.45111    0.20012    1.000
    N28      N        0.78120    0.39020    0.07760    1.000
    N29      N        0.89090    0.38740    0.94760    1.000
    N30      N        0.82850    0.47710    0.82150    1.000
    N31      N        0.59750    0.57610    0.14290    1.000
    N32      N        0.58650    0.76390    0.18730    1.000
    N33      N        0.43750    0.83990    0.28690    1.000
    N34      N        0.88320    0.57100    0.19130    1.000
    N35      N        0.01650    0.72130    0.15580    1.000
    N36      N        0.14640    0.83470    0.23980    1.000
