data_functionalizedCrystal
_audit_creation_method	'EQeq! by Chris Wilmer'
_symmetry_space_group_name_H-M	'P1'
_symmetry_Int_Tables_number	1
_symmetry_cell_setting	triclinic
loop_
_symmetry_equiv_pos_as_xyz
  x,y,z
_cell_length_a	14.538
_cell_length_b	14.538
_cell_length_c	17.515
_cell_angle_alpha	90
_cell_angle_beta	90
_cell_angle_gamma	120
loop_
_atom_site_label
_atom_site_type_symbol
_atom_site_fract_x
_atom_site_fract_y
_atom_site_fract_z
_atom_site_charge
Mof_C 	C 	0.6028	0.0209	0.0783	-0.859
Mof_H 	H 	0.6221	0.093	0.0673	0.256
Mof_H 	H 	0.6368	0.0186	0.1247	0.271
Mof_H 	H 	0.5272	0.9788	0.0842	0.255
Mof_C 	C 	0.6371	0.9784	0.01515	0.318
Mof_N 	N 	0.624	0.8811	0.01027	-0.292
Mof_N 	N 	0.6633	0.8731	0.9434	-0.079
Mof_N 	N 	0.7007	0.9655	0.907	-0.07
Mof_N 	N 	0.6844	0.0305	0.95132	-0.294
Mof_C 	C 	0.6154	0.159	0.7502	-0.273
Mof_H 	H 	0.5883	0.1461	0.8015	0.058
Mof_H 	H 	0.5708	0.0993	0.7187	0.094
Mof_H 	H 	0.6161	0.2214	0.7306	0.055
Mof_C 	C 	0.7254	0.1767	0.75005	0.218
Mof_N 	N 	0.7866	0.1971	0.81145	-0.272
Mof_N 	N 	0.8852	0.2301	0.78788	-0.083
Mof_N 	N 	0.8851	0.2301	0.71192	-0.082
Mof_N 	N 	0.7863	0.1971	0.68854	-0.276
Mof_C 	C 	0.6027	0.0206	0.4213	-0.884
Mof_H 	H 	0.5712	0.9677	0.3821	0.259
Mof_H 	H 	0.663	0.0828	0.4009	0.27
Mof_H 	H 	0.5515	0.0387	0.4396	0.263
Mof_C 	C 	0.6372	0.9786	0.48475	0.32
Mof_N 	N 	0.6845	0.0307	0.54872	-0.293
Mof_N 	N 	0.7004	0.9654	0.59314	-0.074
Mof_N 	N 	0.663	0.8729	0.5566	-0.085
Mof_N 	N 	0.6239	0.8811	0.48963	-0.293
Mof_Zn	Zn	0.75232	0.18435	0.5768	1.192
Mof_Zn	Zn	0.75236	0.18439	0.92317	1.191
Mof_O 	O 	0.6486	0.226	0.5576	-0.515
Mof_O 	O 	0.6484	0.2261	0.9427	-0.517
Mof_C 	C 	0.6091	0.1106	0.7503	-0.265
Mof_H 	H 	0.5829	0.1079	0.801	0.067
Mof_H 	H 	0.5891	0.04	0.7337	0.054
Mof_H 	H 	0.5794	0.1406	0.7162	0.104
Mof_C 	C 	0.9791	0.5819	0.0783	-0.854
Mof_H 	H 	0.907	0.5291	0.0673	0.253
Mof_H 	H 	0.9814	0.6182	0.1247	0.268
Mof_H 	H 	0.0212	0.5484	0.0842	0.252
Mof_C 	C 	0.0216	0.6587	0.01515	0.312
Mof_N 	N 	0.1189	0.7429	0.01027	-0.295
Mof_N 	N 	0.1269	0.7902	0.9434	-0.077
Mof_N 	N 	0.0345	0.7352	0.907	-0.07
Mof_N 	N 	0.9695	0.6539	0.95132	-0.292
Mof_C 	C 	0.841	0.4564	0.7502	-0.274
Mof_H 	H 	0.8539	0.4422	0.8015	0.058
Mof_H 	H 	0.9007	0.4715	0.7187	0.094
Mof_H 	H 	0.7786	0.3947	0.7306	0.055
Mof_C 	C 	0.8233	0.5487	0.75005	0.218
Mof_N 	N 	0.8029	0.5895	0.81145	-0.272
Mof_N 	N 	0.7699	0.6551	0.78788	-0.082
Mof_N 	N 	0.7699	0.655	0.71192	-0.081
Mof_N 	N 	0.8029	0.5892	0.68854	-0.276
Mof_C 	C 	0.9794	0.5821	0.4213	-0.882
Mof_H 	H 	0.0323	0.6035	0.3821	0.258
Mof_H 	H 	0.9172	0.5802	0.4009	0.27
Mof_H 	H 	0.9613	0.5128	0.4396	0.262
Mof_C 	C 	0.0214	0.6586	0.48475	0.319
Mof_N 	N 	0.9693	0.6538	0.54872	-0.293
Mof_N 	N 	0.0346	0.735	0.59314	-0.074
Mof_N 	N 	0.1271	0.7901	0.5566	-0.084
Mof_N 	N 	0.1189	0.7428	0.48963	-0.293
Mof_Zn	Zn	0.81565	0.56797	0.5768	1.192
Mof_Zn	Zn	0.81561	0.56797	0.92317	1.192
Mof_O 	O 	0.774	0.4226	0.5576	-0.515
Mof_O 	O 	0.7739	0.4223	0.9427	-0.517
Mof_C 	C 	0.8894	0.4985	0.7503	-0.265
Mof_H 	H 	0.8921	0.475	0.801	0.067
Mof_H 	H 	0.96	0.5491	0.7337	0.054
Mof_H 	H 	0.8594	0.4388	0.7162	0.104
Mof_C 	C 	0.4181	0.3972	0.0783	-0.9
Mof_H 	H 	0.4709	0.3779	0.0673	0.264
Mof_H 	H 	0.3818	0.3632	0.1247	0.28
Mof_H 	H 	0.4516	0.4728	0.0842	0.268
Mof_C 	C 	0.3413	0.3629	0.01515	0.33
Mof_N 	N 	0.2571	0.376	0.01027	-0.295
Mof_N 	N 	0.2098	0.3367	0.9434	-0.08
Mof_N 	N 	0.2648	0.2993	0.907	-0.073
Mof_N 	N 	0.3461	0.3156	0.95132	-0.294
Mof_C 	C 	0.5436	0.3846	0.7502	-0.274
Mof_H 	H 	0.5578	0.4117	0.8015	0.058
Mof_H 	H 	0.5285	0.4292	0.7187	0.094
Mof_H 	H 	0.6053	0.3839	0.7306	0.055
Mof_C 	C 	0.4513	0.2746	0.75005	0.219
Mof_N 	N 	0.4105	0.2134	0.81145	-0.272
Mof_N 	N 	0.3449	0.1148	0.78788	-0.082
Mof_N 	N 	0.345	0.1149	0.71192	-0.081
Mof_N 	N 	0.4108	0.2137	0.68854	-0.276
Mof_C 	C 	0.4179	0.3973	0.4213	-0.889
Mof_H 	H 	0.3965	0.4288	0.3821	0.261
Mof_H 	H 	0.4198	0.337	0.4009	0.271
Mof_H 	H 	0.4872	0.4485	0.4396	0.264
Mof_C 	C 	0.3414	0.3628	0.48475	0.322
Mof_N 	N 	0.3462	0.3155	0.54872	-0.293
Mof_N 	N 	0.265	0.2996	0.59314	-0.074
Mof_N 	N 	0.2099	0.337	0.5566	-0.084
Mof_N 	N 	0.2572	0.3761	0.48963	-0.294
Mof_Zn	Zn	0.43203	0.24768	0.5768	1.192
Mof_Zn	Zn	0.43203	0.24764	0.92317	1.192
Mof_O 	O 	0.5774	0.3514	0.5576	-0.515
Mof_O 	O 	0.5777	0.3516	0.9427	-0.517
Mof_C 	C 	0.5015	0.3909	0.7503	-0.265
Mof_H 	H 	0.525	0.4171	0.801	0.067
Mof_H 	H 	0.4509	0.4109	0.7337	0.055
Mof_H 	H 	0.5612	0.4206	0.7162	0.104
Mof_C 	C 	0.3972	0.9791	0.9217	-0.86
Mof_H 	H 	0.3779	0.907	0.9327	0.255
Mof_H 	H 	0.3632	0.9814	0.8753	0.27
Mof_H 	H 	0.4728	0.0212	0.9158	0.254
Mof_C 	C 	0.3629	0.0216	0.98485	0.317
Mof_N 	N 	0.376	0.1189	0.98973	-0.293
Mof_N 	N 	0.3367	0.1269	0.0566	-0.08
Mof_N 	N 	0.2993	0.0345	0.093	-0.071
Mof_N 	N 	0.3156	0.9695	0.04868	-0.295
Mof_C 	C 	0.3846	0.841	0.2498	-0.274
Mof_H 	H 	0.4117	0.8539	0.1985	0.058
Mof_H 	H 	0.4292	0.9007	0.2813	0.094
Mof_H 	H 	0.3839	0.7786	0.2694	0.055
Mof_C 	C 	0.2746	0.8233	0.24995	0.218
Mof_N 	N 	0.2134	0.8029	0.18855	-0.272
Mof_N 	N 	0.1148	0.7699	0.21212	-0.083
Mof_N 	N 	0.1149	0.7699	0.28808	-0.082
Mof_N 	N 	0.2137	0.8029	0.31146	-0.276
Mof_C 	C 	0.3973	0.9794	0.5787	-0.884
Mof_H 	H 	0.4288	0.0323	0.6179	0.259
Mof_H 	H 	0.337	0.9172	0.5991	0.27
Mof_H 	H 	0.4485	0.9613	0.5604	0.263
Mof_C 	C 	0.3628	0.0214	0.51525	0.32
Mof_N 	N 	0.3155	0.9693	0.45128	-0.293
Mof_N 	N 	0.2996	0.0346	0.40686	-0.074
Mof_N 	N 	0.337	0.1271	0.4434	-0.085
Mof_N 	N 	0.3761	0.1189	0.51037	-0.293
Mof_Zn	Zn	0.24768	0.81565	0.4232	1.192
Mof_Zn	Zn	0.24764	0.81561	0.07683	1.191
Mof_O 	O 	0.3514	0.774	0.4424	-0.515
Mof_O 	O 	0.3516	0.7739	0.0573	-0.517
Mof_C 	C 	0.3909	0.8894	0.2497	-0.265
Mof_H 	H 	0.4171	0.8921	0.199	0.067
Mof_H 	H 	0.4109	0.96	0.2663	0.054
Mof_H 	H 	0.4206	0.8594	0.2838	0.104
Mof_C 	C 	0.0209	0.4181	0.9217	-0.854
Mof_H 	H 	0.093	0.4709	0.9327	0.253
Mof_H 	H 	0.0186	0.3818	0.8753	0.268
Mof_H 	H 	0.9788	0.4516	0.9158	0.252
Mof_C 	C 	0.9784	0.3413	0.98485	0.312
Mof_N 	N 	0.8811	0.2571	0.98973	-0.295
Mof_N 	N 	0.8731	0.2098	0.0566	-0.077
Mof_N 	N 	0.9655	0.2648	0.093	-0.07
Mof_N 	N 	0.0305	0.3461	0.04868	-0.292
Mof_C 	C 	0.159	0.5436	0.2498	-0.274
Mof_H 	H 	0.1461	0.5578	0.1985	0.058
Mof_H 	H 	0.0993	0.5285	0.2813	0.094
Mof_H 	H 	0.2214	0.6053	0.2694	0.055
Mof_C 	C 	0.1767	0.4513	0.24995	0.218
Mof_N 	N 	0.1971	0.4105	0.18855	-0.272
Mof_N 	N 	0.2301	0.3449	0.21212	-0.082
Mof_N 	N 	0.2301	0.345	0.28808	-0.081
Mof_N 	N 	0.1971	0.4108	0.31146	-0.276
Mof_C 	C 	0.0206	0.4179	0.5787	-0.882
Mof_H 	H 	0.9677	0.3965	0.6179	0.258
Mof_H 	H 	0.0828	0.4198	0.5991	0.27
Mof_H 	H 	0.0387	0.4872	0.5604	0.262
Mof_C 	C 	0.9786	0.3414	0.51525	0.319
Mof_N 	N 	0.0307	0.3462	0.45128	-0.293
Mof_N 	N 	0.9654	0.265	0.40686	-0.074
Mof_N 	N 	0.8729	0.2099	0.4434	-0.084
Mof_N 	N 	0.8811	0.2572	0.51037	-0.293
Mof_Zn	Zn	0.18435	0.43203	0.4232	1.192
Mof_Zn	Zn	0.18439	0.43203	0.07683	1.192
Mof_O 	O 	0.226	0.5774	0.4424	-0.515
Mof_O 	O 	0.2261	0.5777	0.0573	-0.517
Mof_C 	C 	0.1106	0.5015	0.2497	-0.265
Mof_H 	H 	0.1079	0.525	0.199	0.067
Mof_H 	H 	0.04	0.4509	0.2663	0.054
Mof_H 	H 	0.1406	0.5612	0.2838	0.104
Mof_C 	C 	0.5819	0.6028	0.9217	-0.9
Mof_H 	H 	0.5291	0.6221	0.9327	0.264
Mof_H 	H 	0.6182	0.6368	0.8753	0.28
Mof_H 	H 	0.5484	0.5272	0.9158	0.268
Mof_C 	C 	0.6587	0.6371	0.98485	0.33
Mof_N 	N 	0.7429	0.624	0.98973	-0.295
Mof_N 	N 	0.7902	0.6633	0.0566	-0.08
Mof_N 	N 	0.7352	0.7007	0.093	-0.073
Mof_N 	N 	0.6539	0.6844	0.04868	-0.294
Mof_C 	C 	0.4564	0.6154	0.2498	-0.274
Mof_H 	H 	0.4422	0.5883	0.1985	0.058
Mof_H 	H 	0.4715	0.5708	0.2813	0.094
Mof_H 	H 	0.3947	0.6161	0.2694	0.055
Mof_C 	C 	0.5487	0.7254	0.24995	0.219
Mof_N 	N 	0.5895	0.7866	0.18855	-0.272
Mof_N 	N 	0.6551	0.8852	0.21212	-0.082
Mof_N 	N 	0.655	0.8851	0.28808	-0.081
Mof_N 	N 	0.5892	0.7863	0.31146	-0.276
Mof_C 	C 	0.5821	0.6027	0.5787	-0.889
Mof_H 	H 	0.6035	0.5712	0.6179	0.261
Mof_H 	H 	0.5802	0.663	0.5991	0.271
Mof_H 	H 	0.5128	0.5515	0.5604	0.264
Mof_C 	C 	0.6586	0.6372	0.51525	0.322
Mof_N 	N 	0.6538	0.6845	0.45128	-0.293
Mof_N 	N 	0.735	0.7004	0.40686	-0.074
Mof_N 	N 	0.7901	0.663	0.4434	-0.084
Mof_N 	N 	0.7428	0.6239	0.51037	-0.294
Mof_Zn	Zn	0.56797	0.75232	0.4232	1.192
Mof_Zn	Zn	0.56797	0.75236	0.07683	1.192
Mof_O 	O 	0.4226	0.6486	0.4424	-0.515
Mof_O 	O 	0.4223	0.6484	0.0573	-0.517
Mof_C 	C 	0.4985	0.6091	0.2497	-0.265
Mof_H 	H 	0.475	0.5829	0.199	0.067
Mof_H 	H 	0.5491	0.5891	0.2663	0.055
Mof_H 	H 	0.4388	0.5794	0.2838	0.104
Mof_P 	P 	0.66667	0.33333	0.96772	0.4
Mof_P 	P 	0.66667	0.33333	0.53224	0.396
Mof_P 	P 	0.33333	0.66667	0.03228	0.4
Mof_P 	P 	0.33333	0.66667	0.46776	0.396
_end
