# CIF file generated by openbabel 3.1.0, see https://openbabel.org
data_I
_chemical_name_common 'image0'
_cell_length_a 15.8769
_cell_length_b 23.5103
_cell_length_c 23.1577
_cell_angle_alpha 90
_cell_angle_beta 101.226
_cell_angle_gamma 90
_space_group_name_H-M_alt 'P 1'
_space_group_name_Hall 'P 1'
loop_
    _symmetry_equiv_pos_as_xyz
    x,y,z
loop_
    _atom_site_label
    _atom_site_type_symbol
    _atom_site_fract_x
    _atom_site_fract_y
    _atom_site_fract_z
    _atom_site_occupancy
    C1       C        0.01680    0.41630    0.49530    1.000
    C2       C        0.07450    0.37880    0.53000    1.000
    H1       H        0.12570    0.36830    0.51730    1.000
    C3       C        0.05890    0.35780    0.58050    1.000
    H2       H        0.09840    0.33200    0.60280    1.000
    C4       C        0.98430    0.37360    0.60050    1.000
    C5       C        0.92650    0.41180    0.56740    1.000
    H3       H        0.87630    0.42280    0.58110    1.000
    C6       C        0.94180    0.43340    0.51560    1.000
    H4       H        0.90270    0.45950    0.49340    1.000
    C7       C        0.97290    0.35380    0.65880    1.000
    C8       C        0.17940    0.53180    0.60310    1.000
    C9       C        0.25310    0.50240    0.60590    1.000
    H5       H        0.29340    0.51410    0.58280    1.000
    C10      C        0.26990    0.45620    0.64150    1.000
    H6       H        0.32100    0.43520    0.64150    1.000
    C11      C        0.21500    0.43890    0.67770    1.000
    C12      C        0.13910    0.46840    0.67460    1.000
    H7       H        0.09960    0.45730    0.69850    1.000
    C13      C        0.12060    0.51450    0.63630    1.000
    H8       H        0.06750    0.53410    0.63310    1.000
    C14      C        0.23530    0.38860    0.71610    1.000
    C15      C        0.31210    0.46580    0.44670    1.000
    C16      C        0.39470    0.48060    0.47550    1.000
    H9       H        0.42270    0.51330    0.46420    1.000
    C17      C        0.43470    0.44600    0.52140    1.000
    H10      H        0.49290    0.45330    0.53920    1.000
    C18      C        0.39090    0.40030    0.54250    1.000
    C19      C        0.30920    0.38660    0.51070    1.000
    H11      H        0.28020    0.35450    0.52230    1.000
    C20      C        0.26990    0.41810    0.46370    1.000
    H12      H        0.21450    0.40780    0.44260    1.000
    C21      C        0.42990    0.37030    0.59530    1.000
    C22      C        0.27450    0.61750    0.35480    1.000
    C23      C        0.27200    0.64780    0.30500    1.000
    H13      H        0.22450    0.64370    0.27330    1.000
    C24      C        0.33830    0.68490    0.29970    1.000
    H14      H        0.33680    0.70630    0.26470    1.000
    C25      C        0.40720    0.68990    0.34740    1.000
    C26      C        0.40920    0.65750    0.39640    1.000
    H15      H        0.45790    0.65980    0.42740    1.000
    C27      C        0.34320    0.62140    0.40270    1.000
    H16      H        0.34420    0.60030    0.43780    1.000
    C28      C        0.47970    0.72960    0.34310    1.000
    C29      C        0.14270    0.68460    0.45570    1.000
    C30      C        0.09850    0.69620    0.40120    1.000
    H17      H        0.04340    0.68000    0.38780    1.000
    C31      C        0.13550    0.73300    0.36380    1.000
    H18      H        0.10660    0.74020    0.32460    1.000
    C32      C        0.21170    0.75730    0.38500    1.000
    C33      C        0.25540    0.74720    0.44220    1.000
    H19      H        0.30980    0.76420    0.45630    1.000
    C34      C        0.21790    0.71140    0.47850    1.000
    H20      H        0.24460    0.70600    0.51860    1.000
    C35      C        0.25460    0.79520    0.34630    1.000
    C36      C        0.90900    0.56160    0.37070    1.000
    C37      C        0.93500    0.58700    0.32330    1.000
    H21      H        0.97560    0.56970    0.30360    1.000
    C38      C        0.89800    0.63960    0.30610    1.000
    H22      H        0.91800    0.65980    0.27590    1.000
    C39      C        0.83490    0.66370    0.33010    1.000
    C40      C        0.80800    0.63620    0.37540    1.000
    H23      H        0.76570    0.65280    0.39390    1.000
    C41      C        0.84310    0.58390    0.39370    1.000
    H24      H        0.82110    0.56310    0.42280    1.000
    C42      C        0.79430    0.72030    0.31020    1.000
    C43      C        0.51090    0.57760    0.07760    1.000
    C44      C        0.55980    0.62430    0.06410    1.000
    H25      H        0.57470    0.62680    0.02640    1.000
    C45      C        0.58600    0.66600    0.10520    1.000
    H26      H        0.62010    0.69660    0.09600    1.000
    C46      C        0.56290    0.66380    0.15990    1.000
    C47      C        0.51560    0.61790    0.17310    1.000
    H27      H        0.49980    0.61560    0.21050    1.000
    C48      C        0.49120    0.57550    0.13200    1.000
    H28      H        0.45980    0.54390    0.14210    1.000
    C49      C        0.58340    0.71060    0.20360    1.000
    C50      C        0.19800    0.61360    0.14400    1.000
    C51      C        0.22050    0.66890    0.15430    1.000
    H29      H        0.27510    0.68210    0.14910    1.000
    C52      C        0.16220    0.70670    0.17280    1.000
    H30      H        0.17760    0.74550    0.17970    1.000
    C53      C        0.08300    0.68800    0.18110    1.000
    C54      C        0.06440    0.62960    0.17270    1.000
    H31      H        0.01180    0.61550    0.18070    1.000
    C55      C        0.11890    0.59250    0.15350    1.000
    H32      H        0.10400    0.55360    0.14680    1.000
    C56      C        0.02350    0.72650    0.20100    1.000
    C57      C        0.29880    0.71920    0.01940    1.000
    C58      C        0.37170    0.72530    0.05840    1.000
    H33      H        0.42210    0.70610    0.05280    1.000
    C59      C        0.37390    0.76030    0.10800    1.000
    H34      H        0.42410    0.76300    0.13790    1.000
    C60      C        0.29860    0.79160    0.11200    1.000
    C61      C        0.22650    0.78640    0.06920    1.000
    H35      H        0.17690    0.80810    0.07170    1.000
    C62      C        0.22510    0.74930    0.02190    1.000
    H36      H        0.17490    0.74490    0.99240    1.000
    C63      C        0.29440    0.82340    0.16560    1.000
    C64      C        0.41420    0.46030    0.92340    1.000
    C65      C        0.47560    0.49150    0.90410    1.000
    H37      H        0.49920    0.52450    0.92490    1.000
    C66      C        0.50260    0.47450    0.85460    1.000
    H38      H        0.54580    0.49580    0.84090    1.000
    C67      C        0.46850    0.42700    0.82380    1.000
    C68      C        0.40790    0.39400    0.84560    1.000
    H39      H        0.38710    0.35950    0.82670    1.000
    C69      C        0.37950    0.41200    0.89410    1.000
    H40      H        0.33580    0.39140    0.90790    1.000
    C70      C        0.50380    0.40920    0.77050    1.000
    C71      C        0.16630    0.57580    0.87830    1.000
    C72      C        0.19790    0.52400    0.86680    1.000
    H41      H        0.25790    0.51720    0.87760    1.000
    C73      C        0.14440    0.48070    0.83960    1.000
    H42      H        0.16770    0.44470    0.83290    1.000
    C74      C        0.05840    0.49030    0.82280    1.000
    C75      C        0.02670    0.54380    0.83480    1.000
    H43      H        0.96670    0.55050    0.82370    1.000
    C76      C        0.07830    0.58710    0.86190    1.000
    H44      H        0.05510    0.62310    0.86900    1.000
    C77      C        0.99740    0.44510    0.79670    1.000
    C78      C        0.13530    0.47030    0.02010    1.000
    C79      C        0.18270    0.42590    0.00790    1.000
    H45      H        0.24020    0.42190    0.02850    1.000
    C80      C        0.14900    0.38700    0.96650    1.000
    H46      H        0.18330    0.35720    0.95570    1.000
    C81      C        0.06180    0.39220    0.94020    1.000
    C82      C        0.01450    0.43580    0.95520    1.000
    H47      H        0.95580    0.43860    0.93680    1.000
    C83      C        0.04910    0.47640    0.99680    1.000
    H48      H        0.01560    0.50630    0.00830    1.000
    C84      C        0.02660    0.35240    0.89160    1.000
    C85      C        0.27230    0.95240    0.31390    1.000
    C86      C        0.20860    0.99800    0.32020    1.000
    Ho1      Ho       0.38981    0.86371    0.30106    1.000
    Ho2      Ho       0.87176    0.35940    0.76991    1.000
    Ho3      Ho       0.10629    0.30760    0.78027    1.000
    Ho4      Ho       0.60987    0.78760    0.29972    1.000
    N1       N        0.35800    0.58010    0.96580    1.000
    N2       N        0.33030    0.51810    0.05720    1.000
    N3       N        0.21500    0.60010    0.01110    1.000
    N4       N        0.10550    0.50800    0.38300    1.000
    N5       N        0.20970    0.56750    0.46780    1.000
    N6       N        0.04790    0.54280    0.48140    1.000
    O1       O        0.90600    0.36950    0.67720    1.000
    O2       O        0.03030    0.32170    0.68650    1.000
    O3       O        0.29760    0.35870    0.71080    1.000
    O4       O        0.18850    0.37880    0.75440    1.000
    O5       O        0.38310    0.33420    0.61440    1.000
    O6       O        0.50540    0.38300    0.61860    1.000
    O7       O        0.03720    0.43730    0.44450    1.000
    O8       O        0.16190    0.58160    0.56850    1.000
    O9       O        0.27240    0.49970    0.40050    1.000
    O10      O        0.94410    0.50690    0.39030    1.000
    O11      O        0.10820    0.64760    0.49420    1.000
    O12      O        0.20310    0.58340    0.35510    1.000
    O13      O        0.73010    0.73580    0.33040    1.000
    O14      O        0.82460    0.74750    0.27270    1.000
    O15      O        0.22300    0.79750    0.29130    1.000
    O16      O        0.32230    0.82080    0.37090    1.000
    O17      O        0.46110    0.77570    0.31120    1.000
    O18      O        0.55340    0.72010    0.36610    1.000
    O19      O        0.22240    0.84650    0.17040    1.000
    O20      O        0.35890    0.82560    0.20710    1.000
    O21      O        0.04830    0.77640    0.22050    1.000
    O22      O        0.94550    0.71290    0.19690    1.000
    O23      O        0.56000    0.70360    0.25260    1.000
    O24      O        0.62330    0.75560    0.19770    1.000
    O25      O        0.48280    0.53520    0.03590    1.000
    O26      O        0.29800    0.68330    0.96950    1.000
    O27      O        0.25790    0.57830    0.12510    1.000
    O28      O        0.38490    0.47100    0.97570    1.000
    O29      O        0.21480    0.62080    0.90390    1.000
    O30      O        0.16860    0.51100    0.06480    1.000
    O31      O        0.47740    0.36270    0.74500    1.000
    O32      O        0.56090    0.43730    0.75480    1.000
    O33      O        0.91800    0.45460    0.78790    1.000
    O34      O        0.02660    0.39670    0.78300    1.000
    O35      O        0.94820    0.35430    0.87080    1.000
    O36      O        0.07900    0.32000    0.87250    1.000
    O37      O        0.25030    0.91230    0.27380    1.000
    O38      O        0.34550    0.95000    0.34460    1.000
    P1       P        0.38485    0.53005    0.00882    1.000
    P2       P        0.24604    0.55293    0.06140    1.000
    P3       P        0.27330    0.61780    0.96725    1.000
    P4       P        0.19343    0.53897    0.40562    1.000
    P5       P        0.13180    0.58184    0.49970    1.000
    P6       P        0.03810    0.50268    0.42667    1.000
    C87      C        0.98320    0.91630    0.50470    1.000
    C88      C        0.92550    0.87880    0.47000    1.000
    H49      H        0.87430    0.86830    0.48270    1.000
    C89      C        0.94110    0.85780    0.41950    1.000
    H50      H        0.90160    0.83200    0.39720    1.000
    C90      C        0.01570    0.87360    0.39950    1.000
    C91      C        0.07350    0.91180    0.43260    1.000
    H51      H        0.12370    0.92280    0.41890    1.000
    C92      C        0.05820    0.93340    0.48440    1.000
    H52      H        0.09730    0.95950    0.50660    1.000
    C93      C        0.02710    0.85380    0.34120    1.000
    C94      C        0.82060    0.03180    0.39690    1.000
    C95      C        0.74690    0.00240    0.39410    1.000
    H53      H        0.70660    0.01410    0.41720    1.000
    C96      C        0.73010    0.95620    0.35850    1.000
    H54      H        0.67900    0.93520    0.35850    1.000
    C97      C        0.78500    0.93890    0.32230    1.000
    C98      C        0.86090    0.96840    0.32540    1.000
    H55      H        0.90040    0.95730    0.30150    1.000
    C99      C        0.87940    0.01450    0.36370    1.000
    H56      H        0.93250    0.03410    0.36690    1.000
    C100     C        0.76470    0.88860    0.28390    1.000
    C101     C        0.68790    0.96580    0.55330    1.000
    C102     C        0.60530    0.98060    0.52450    1.000
    H57      H        0.57730    0.01330    0.53580    1.000
    C103     C        0.56530    0.94600    0.47860    1.000
    H58      H        0.50710    0.95330    0.46080    1.000
    C104     C        0.60910    0.90030    0.45750    1.000
    C105     C        0.69080    0.88660    0.48930    1.000
    H59      H        0.71980    0.85450    0.47770    1.000
    C106     C        0.73010    0.91810    0.53630    1.000
    H60      H        0.78550    0.90780    0.55740    1.000
    C107     C        0.57010    0.87030    0.40470    1.000
    C108     C        0.72550    0.11750    0.64520    1.000
    C109     C        0.72800    0.14780    0.69500    1.000
    H61      H        0.77550    0.14370    0.72670    1.000
    C110     C        0.66170    0.18490    0.70030    1.000
    H62      H        0.66320    0.20630    0.73530    1.000
    C111     C        0.59280    0.18990    0.65260    1.000
    C112     C        0.59080    0.15750    0.60360    1.000
    H63      H        0.54210    0.15980    0.57260    1.000
    C113     C        0.65680    0.12140    0.59730    1.000
    H64      H        0.65580    0.10030    0.56220    1.000
    C114     C        0.52030    0.22960    0.65690    1.000
    C115     C        0.85730    0.18460    0.54430    1.000
    C116     C        0.90150    0.19620    0.59880    1.000
    H65      H        0.95660    0.18000    0.61220    1.000
    C117     C        0.86450    0.23300    0.63620    1.000
    H66      H        0.89340    0.24020    0.67540    1.000
    C118     C        0.78830    0.25730    0.61500    1.000
    C119     C        0.74460    0.24720    0.55780    1.000
    H67      H        0.69020    0.26420    0.54370    1.000
    C120     C        0.78210    0.21140    0.52150    1.000
    H68      H        0.75540    0.20600    0.48140    1.000
    C121     C        0.74540    0.29520    0.65370    1.000
    C122     C        0.09100    0.06160    0.62930    1.000
    C123     C        0.06500    0.08700    0.67670    1.000
    H69      H        0.02440    0.06970    0.69640    1.000
    C124     C        0.10200    0.13960    0.69390    1.000
    H70      H        0.08200    0.15980    0.72410    1.000
    C125     C        0.16510    0.16370    0.66990    1.000
    C126     C        0.19200    0.13620    0.62460    1.000
    H71      H        0.23430    0.15280    0.60610    1.000
    C127     C        0.15690    0.08390    0.60630    1.000
    H72      H        0.17890    0.06310    0.57720    1.000
    C128     C        0.20570    0.22030    0.68980    1.000
    C129     C        0.48910    0.07760    0.92240    1.000
    C130     C        0.44020    0.12430    0.93590    1.000
    H73      H        0.42530    0.12680    0.97360    1.000
    C131     C        0.41400    0.16600    0.89480    1.000
    H74      H        0.37990    0.19660    0.90400    1.000
    C132     C        0.43710    0.16380    0.84010    1.000
    C133     C        0.48440    0.11790    0.82690    1.000
    H75      H        0.50020    0.11560    0.78950    1.000
    C134     C        0.50880    0.07550    0.86800    1.000
    H76      H        0.54020    0.04390    0.85790    1.000
    C135     C        0.41660    0.21060    0.79640    1.000
    C136     C        0.80200    0.11360    0.85600    1.000
    C137     C        0.77950    0.16890    0.84570    1.000
    H77      H        0.72490    0.18210    0.85090    1.000
    C138     C        0.83780    0.20670    0.82720    1.000
    H78      H        0.82240    0.24550    0.82030    1.000
    C139     C        0.91700    0.18800    0.81890    1.000
    C140     C        0.93560    0.12960    0.82730    1.000
    H79      H        0.98820    0.11550    0.81930    1.000
    C141     C        0.88110    0.09250    0.84650    1.000
    H80      H        0.89600    0.05360    0.85320    1.000
    C142     C        0.97650    0.22650    0.79900    1.000
    C143     C        0.70120    0.21920    0.98060    1.000
    C144     C        0.62830    0.22530    0.94160    1.000
    H81      H        0.57790    0.20610    0.94720    1.000
    C145     C        0.62610    0.26030    0.89200    1.000
    H82      H        0.57590    0.26300    0.86210    1.000
    C146     C        0.70140    0.29160    0.88800    1.000
    C147     C        0.77350    0.28640    0.93080    1.000
    H83      H        0.82310    0.30810    0.92830    1.000
    C148     C        0.77490    0.24930    0.97810    1.000
    H84      H        0.82510    0.24490    0.00760    1.000
    C149     C        0.70560    0.32340    0.83440    1.000
    C150     C        0.58580    0.96030    0.07660    1.000
    C151     C        0.52440    0.99150    0.09590    1.000
    H85      H        0.50080    0.02450    0.07510    1.000
    C152     C        0.49740    0.97450    0.14540    1.000
    H86      H        0.45420    0.99580    0.15910    1.000
    C153     C        0.53150    0.92700    0.17620    1.000
    C154     C        0.59210    0.89400    0.15440    1.000
    H87      H        0.61290    0.85950    0.17330    1.000
    C155     C        0.62050    0.91200    0.10590    1.000
    H88      H        0.66420    0.89140    0.09210    1.000
    C156     C        0.49620    0.90920    0.22950    1.000
    C157     C        0.83370    0.07580    0.12170    1.000
    C158     C        0.80210    0.02400    0.13320    1.000
    H89      H        0.74210    0.01720    0.12240    1.000
    C159     C        0.85560    0.98070    0.16040    1.000
    H90      H        0.83230    0.94470    0.16710    1.000
    C160     C        0.94160    0.99030    0.17720    1.000
    C161     C        0.97330    0.04380    0.16520    1.000
    H91      H        0.03330    0.05050    0.17630    1.000
    C162     C        0.92170    0.08710    0.13810    1.000
    H92      H        0.94490    0.12310    0.13100    1.000
    C163     C        0.00260    0.94510    0.20330    1.000
    C164     C        0.86470    0.97030    0.97990    1.000
    C165     C        0.81730    0.92590    0.99210    1.000
    H93      H        0.75980    0.92190    0.97150    1.000
    C166     C        0.85100    0.88700    0.03350    1.000
    H94      H        0.81670    0.85720    0.04430    1.000
    C167     C        0.93820    0.89220    0.05980    1.000
    C168     C        0.98550    0.93580    0.04480    1.000
    H95      H        0.04420    0.93860    0.06320    1.000
    C169     C        0.95090    0.97640    0.00320    1.000
    H96      H        0.98440    0.00630    0.99170    1.000
    C170     C        0.97340    0.85240    0.10840    1.000
    C171     C        0.72770    0.45240    0.68610    1.000
    C172     C        0.79140    0.49800    0.67980    1.000
    Ho5      Ho       0.61019    0.36371    0.69894    1.000
    Ho6      Ho       0.12824    0.85940    0.23009    1.000
    Ho7      Ho       0.89371    0.80760    0.21973    1.000
    Ho8      Ho       0.39013    0.28760    0.70028    1.000
    N7       N        0.64200    0.08010    0.03420    1.000
    N8       N        0.66970    0.01810    0.94280    1.000
    N9       N        0.78500    0.10010    0.98890    1.000
    N10      N        0.89450    0.00800    0.61700    1.000
    N11      N        0.79030    0.06750    0.53220    1.000
    N12      N        0.95210    0.04280    0.51860    1.000
    O39      O        0.09400    0.86950    0.32280    1.000
    O40      O        0.96970    0.82170    0.31350    1.000
    O41      O        0.70240    0.85870    0.28920    1.000
    O42      O        0.81150    0.87880    0.24560    1.000
    O43      O        0.61690    0.83420    0.38560    1.000
    O44      O        0.49460    0.88300    0.38140    1.000
    O45      O        0.96280    0.93730    0.55550    1.000
    O46      O        0.83810    0.08160    0.43150    1.000
    O47      O        0.72760    0.99970    0.59950    1.000
    O48      O        0.05590    0.00690    0.60970    1.000
    O49      O        0.89180    0.14760    0.50580    1.000
    O50      O        0.79690    0.08340    0.64490    1.000
    O51      O        0.26990    0.23580    0.66960    1.000
    O52      O        0.17540    0.24750    0.72730    1.000
    O53      O        0.77700    0.29750    0.70870    1.000
    O54      O        0.67770    0.32080    0.62910    1.000
    O55      O        0.53890    0.27570    0.68880    1.000
    O56      O        0.44660    0.22010    0.63390    1.000
    O57      O        0.77760    0.34650    0.82960    1.000
    O58      O        0.64110    0.32560    0.79290    1.000
    O59      O        0.95170    0.27640    0.77950    1.000
    O60      O        0.05450    0.21290    0.80310    1.000
    O61      O        0.44000    0.20360    0.74740    1.000
    O62      O        0.37670    0.25560    0.80230    1.000
    O63      O        0.51720    0.03520    0.96410    1.000
    O64      O        0.70200    0.18330    0.03050    1.000
    O65      O        0.74210    0.07830    0.87490    1.000
    O66      O        0.61510    0.97100    0.02430    1.000
    O67      O        0.78520    0.12080    0.09610    1.000
    O68      O        0.83140    0.01100    0.93520    1.000
    O69      O        0.52260    0.86270    0.25500    1.000
    O70      O        0.43910    0.93730    0.24520    1.000
    O71      O        0.08200    0.95460    0.21210    1.000
    O72      O        0.97340    0.89670    0.21700    1.000
    O73      O        0.05180    0.85430    0.12920    1.000
    O74      O        0.92100    0.82000    0.12750    1.000
    O75      O        0.74970    0.41230    0.72620    1.000
    O76      O        0.65450    0.45000    0.65540    1.000
    P7       P        0.61515    0.03005    0.99118    1.000
    P8       P        0.75396    0.05293    0.93860    1.000
    P9       P        0.72670    0.11780    0.03275    1.000
    P10      P        0.80657    0.03897    0.59438    1.000
    P11      P        0.86820    0.08184    0.50030    1.000
    P12      P        0.96190    0.00268    0.57333    1.000
