data_functionalizedCrystal
_audit_creation_method	'EQeq! by Chris Wilmer'
_symmetry_space_group_name_H-M	'P1'
_symmetry_Int_Tables_number	1
_symmetry_cell_setting	triclinic
loop_
_symmetry_equiv_pos_as_xyz
  x,y,z
_cell_length_a	8.391
_cell_length_b	11.831
_cell_length_c	8.842
_cell_angle_alpha	90
_cell_angle_beta	90
_cell_angle_gamma	90
loop_
_atom_site_label
_atom_site_type_symbol
_atom_site_fract_x
_atom_site_fract_y
_atom_site_fract_z
_atom_site_charge
Mof_C 	C 	0.5181	0.277	0.019	0.587
Mof_H 	H 	0.5808	0.2237	0.0683	-0.15
Mof_O 	O 	0.7516	0.0943	0.8602	-0.442
Mof_O 	O 	0.5608	0.3048	0.8894	-0.458
Mof_O 	O 	0.4024	0.3124	0.0883	-0.486
Mof_C 	C 	0.9819	0.723	0.019	0.559
Mof_H 	H 	0.9192	0.7763	0.0683	-0.13
Mof_O 	O 	0.7484	0.9057	0.8602	-0.385
Mof_O 	O 	0.9392	0.6952	0.8894	-0.441
Mof_O 	O 	0.0976	0.6876	0.0883	-0.469
Mof_C 	C 	0.9819	0.777	0.481	0.578
Mof_H 	H 	0.9192	0.7237	0.4317	-0.139
Mof_O 	O 	0.7484	0.5943	0.6398	-0.462
Mof_O 	O 	0.9392	0.8048	0.6106	-0.439
Mof_O 	O 	0.0976	0.8124	0.4117	-0.464
Mof_C 	C 	0.5181	0.223	0.481	0.588
Mof_H 	H 	0.5808	0.2763	0.4317	-0.145
Mof_O 	O 	0.7516	0.4057	0.6398	-0.462
Mof_O 	O 	0.5608	0.1952	0.6106	-0.464
Mof_O 	O 	0.4024	0.1876	0.4117	-0.493
Mof_C 	C 	0.4819	0.723	0.981	0.586
Mof_H 	H 	0.4192	0.7763	0.9317	-0.137
Mof_O 	O 	0.2484	0.9057	0.1398	-0.381
Mof_O 	O 	0.4392	0.6952	0.1106	-0.452
Mof_O 	O 	0.5976	0.6876	0.9117	-0.482
Mof_C 	C 	0.0181	0.277	0.981	0.564
Mof_H 	H 	0.0808	0.2237	0.9317	-0.144
Mof_O 	O 	0.2516	0.0943	0.1398	-0.441
Mof_O 	O 	0.0608	0.3048	0.1106	-0.447
Mof_O 	O 	0.9024	0.3124	0.9117	-0.475
Mof_C 	C 	0.0181	0.223	0.519	0.583
Mof_H 	H 	0.0808	0.2763	0.5683	-0.144
Mof_O 	O 	0.2516	0.4057	0.3602	-0.462
Mof_O 	O 	0.0608	0.1952	0.3894	-0.462
Mof_O 	O 	0.9024	0.1876	0.5883	-0.49
Mof_C 	C 	0.4819	0.777	0.519	0.586
Mof_H 	H 	0.4192	0.7237	0.5683	-0.14
Mof_O 	O 	0.2484	0.5943	0.3602	-0.462
Mof_O 	O 	0.4392	0.8048	0.3894	-0.44
Mof_O 	O 	0.5976	0.8124	0.5883	-0.468
Mof_C 	C 	0.75	0	0.8	0.437
Mof_H 	H 	0.75	0	0.6948	-0.113
Mof_C 	C 	0.75	0.5	0.7	0.557
Mof_H 	H 	0.75	0.5	0.8052	-0.13
Mof_C 	C 	0.25	0	0.2	0.431
Mof_H 	H 	0.25	0	0.3052	-0.112
Mof_C 	C 	0.25	0.5	0.3	0.557
Mof_H 	H 	0.25	0.5	0.1948	-0.13
Mof_Mg	Mg	0.74743	0.25	0.75	1.482
Mof_Mg	Mg	0.75257	0.75	0.75	1.482
Mof_Mg	Mg	0.25257	0.75	0.25	1.482
Mof_Mg	Mg	0.24743	0.25	0.25	1.482
_end
