data_functionalizedCrystal
_audit_creation_method	'EQeq! by Chris Wilmer'
_symmetry_space_group_name_H-M	'P1'
_symmetry_Int_Tables_number	1
_symmetry_cell_setting	triclinic
loop_
_symmetry_equiv_pos_as_xyz
  x,y,z
_cell_length_a	14.32
_cell_length_b	8.7789
_cell_length_c	27.653
_cell_angle_alpha	90
_cell_angle_beta	90.3054
_cell_angle_gamma	90
loop_
_atom_site_label
_atom_site_type_symbol
_atom_site_fract_x
_atom_site_fract_y
_atom_site_fract_z
_atom_site_charge
Mof_C 	C 	0.46896	0.35448	0.43669	0.044
Mof_C 	C 	0.38633	0.385	0.46145	-0.106
Mof_H 	H 	0.3365	0.434	0.4448	0.066
Mof_C 	C 	0.37501	0.34551	0.50985	0.049
Mof_C 	C 	0.44734	0.26924	0.5337	-0.109
Mof_H 	H 	0.4401	0.2406	0.5666	0.068
Mof_C 	C 	0.53048	0.23445	0.50967	0.047
Mof_C 	C 	0.5407	0.27843	0.46139	-0.109
Mof_H 	H 	0.5973	0.2563	0.4451	0.068
Mof_C 	C 	0.49671	0.5561	0.23706	0.349
Mof_C 	C 	0.49301	0.50706	0.28947	-0.101
Mof_C 	C 	0.43724	0.58516	0.32238	0.024
Mof_H 	H 	0.4033	0.6725	0.3122	0.03
Mof_C 	C 	0.43111	0.53593	0.3699	-0.096
Mof_H 	H 	0.3937	0.5914	0.3921	0.062
Mof_C 	C 	0.479	0.40584	0.38593	0.029
Mof_C 	C 	0.5368	0.33096	0.35295	-0.095
Mof_H 	H 	0.5716	0.2444	0.3631	0.061
Mof_C 	C 	0.5438	0.38189	0.3055	0.022
Mof_H 	H 	0.5839	0.3303	0.2837	0.037
Mof_C 	C 	0.04429	0.60724	0.59725	0.312
Mof_C 	C 	0.13065	0.53707	0.57589	-0.079
Mof_C 	C 	0.12532	0.46806	0.53046	0.016
Mof_H 	H 	0.0675	0.4672	0.5134	0.055
Mof_C 	C 	0.20331	0.40068	0.50987	-0.082
Mof_H 	H 	0.1985	0.3554	0.4788	0.072
Mof_C 	C 	0.28902	0.39879	0.53457	0.027
Mof_C 	C 	0.2933	0.46322	0.58076	-0.086
Mof_H 	H 	0.3501	0.4588	0.5986	0.065
Mof_C 	C 	0.21559	0.53391	0.60101	0.015
Mof_H 	H 	0.2204	0.5801	0.632	0.043
Mof_C 	C 	0.83885	0.92709	0.60603	0.32
Mof_C 	C 	0.75793	0.00492	0.58122	-0.083
Mof_C 	C 	0.66585	0.96536	0.59152	0.013
Mof_H 	H 	0.6533	0.8866	0.6141	0.039
Mof_C 	C 	0.59211	0.04085	0.56877	-0.083
Mof_H 	H 	0.5297	0.0138	0.5764	0.06
Mof_C 	C 	0.60877	0.15576	0.53496	0.024
Mof_C 	C 	0.70173	0.19588	0.52514	-0.086
Mof_H 	H 	0.7145	0.2747	0.5026	0.065
Mof_C 	C 	0.77498	0.12146	0.54811	0.014
Mof_H 	H 	0.8375	0.1502	0.5412	0.048
Mof_O 	O 	0.4477	0.67428	0.22725	-0.467
Mof_O 	O 	0.54327	0.48226	0.20809	-0.279
Mof_O 	O 	0.96847	0.59222	0.57642	-0.318
Mof_O 	O 	0.05439	0.67992	0.63764	-0.435
Mof_O 	O 	0.81924	0.81395	0.63337	-0.455
Mof_O 	O 	0.91883	0.97679	0.59958	-0.291
Mof_Zn	Zn	0.43119	0.77056	0.16406	1.208
Mof_C 	C 	0.96896	0.14552	0.93669	0.043
Mof_C 	C 	0.88633	0.115	0.96145	-0.104
Mof_H 	H 	0.8365	0.066	0.9448	0.067
Mof_C 	C 	0.87501	0.15449	0.00985	0.049
Mof_C 	C 	0.94734	0.23076	0.0337	-0.105
Mof_H 	H 	0.9401	0.2594	0.0666	0.069
Mof_C 	C 	0.03048	0.26555	0.00967	0.045
Mof_C 	C 	0.0407	0.22157	0.96139	-0.105
Mof_H 	H 	0.0973	0.2437	0.9451	0.068
Mof_C 	C 	0.99671	0.9439	0.73706	0.348
Mof_C 	C 	0.99301	0.99294	0.78947	-0.103
Mof_C 	C 	0.93724	0.91484	0.82238	0.025
Mof_H 	H 	0.9033	0.8275	0.8122	0.029
Mof_C 	C 	0.93111	0.96407	0.8699	-0.098
Mof_H 	H 	0.8937	0.9086	0.8921	0.063
Mof_C 	C 	0.979	0.09416	0.88593	0.03
Mof_C 	C 	0.0368	0.16904	0.85295	-0.095
Mof_H 	H 	0.0716	0.2556	0.8631	0.062
Mof_C 	C 	0.0438	0.11811	0.8055	0.025
Mof_H 	H 	0.0839	0.1697	0.7837	0.036
Mof_C 	C 	0.54429	0.89276	0.09725	0.312
Mof_C 	C 	0.63065	0.96293	0.07589	-0.079
Mof_C 	C 	0.62532	0.03194	0.03046	0.015
Mof_H 	H 	0.5675	0.0328	0.0134	0.055
Mof_C 	C 	0.70331	0.09932	0.00987	-0.082
Mof_H 	H 	0.6985	0.1446	0.9788	0.072
Mof_C 	C 	0.78902	0.10121	0.03457	0.028
Mof_C 	C 	0.7933	0.03678	0.08076	-0.087
Mof_H 	H 	0.8501	0.0412	0.0986	0.065
Mof_C 	C 	0.71559	0.96609	0.10101	0.016
Mof_H 	H 	0.7204	0.9199	0.132	0.043
Mof_C 	C 	0.33885	0.57291	0.10603	0.321
Mof_C 	C 	0.25793	0.49508	0.08122	-0.085
Mof_C 	C 	0.16585	0.53464	0.09152	0.015
Mof_H 	H 	0.1533	0.6134	0.1141	0.039
Mof_C 	C 	0.09211	0.45915	0.06877	-0.085
Mof_H 	H 	0.0297	0.4862	0.0764	0.06
Mof_C 	C 	0.10877	0.34424	0.03496	0.026
Mof_C 	C 	0.20173	0.30412	0.02514	-0.087
Mof_H 	H 	0.2145	0.2253	0.0026	0.065
Mof_C 	C 	0.27498	0.37854	0.04811	0.015
Mof_H 	H 	0.3375	0.3498	0.0412	0.048
Mof_O 	O 	0.9477	0.82572	0.72725	-0.467
Mof_O 	O 	0.04327	0.01774	0.70809	-0.278
Mof_O 	O 	0.46847	0.90778	0.07642	-0.317
Mof_O 	O 	0.55439	0.82008	0.13764	-0.435
Mof_O 	O 	0.31924	0.68605	0.13337	-0.455
Mof_O 	O 	0.41883	0.52321	0.09958	-0.291
Mof_Zn	Zn	0.93119	0.72944	0.66406	1.208
Mof_C 	C 	0.03104	0.85448	0.06331	0.043
Mof_C 	C 	0.11367	0.885	0.03855	-0.104
Mof_H 	H 	0.1635	0.934	0.0552	0.067
Mof_C 	C 	0.12499	0.84551	0.99015	0.049
Mof_C 	C 	0.05266	0.76924	0.9663	-0.105
Mof_H 	H 	0.0599	0.7406	0.9334	0.069
Mof_C 	C 	0.96952	0.73445	0.99033	0.045
Mof_C 	C 	0.9593	0.77843	0.03861	-0.105
Mof_H 	H 	0.9027	0.7563	0.0549	0.068
Mof_C 	C 	0.00329	0.0561	0.26294	0.348
Mof_C 	C 	0.00699	0.00706	0.21053	-0.103
Mof_C 	C 	0.06276	0.08516	0.17762	0.025
Mof_H 	H 	0.0967	0.1725	0.1878	0.029
Mof_C 	C 	0.06889	0.03593	0.1301	-0.098
Mof_H 	H 	0.1063	0.0914	0.1079	0.063
Mof_C 	C 	0.021	0.90584	0.11407	0.03
Mof_C 	C 	0.9632	0.83096	0.14705	-0.095
Mof_H 	H 	0.9284	0.7444	0.1369	0.062
Mof_C 	C 	0.9562	0.88189	0.1945	0.025
Mof_H 	H 	0.9161	0.8303	0.2163	0.036
Mof_C 	C 	0.45571	0.10724	0.90275	0.312
Mof_C 	C 	0.36935	0.03707	0.92411	-0.079
Mof_C 	C 	0.37468	0.96806	0.96954	0.015
Mof_H 	H 	0.4325	0.9672	0.9866	0.055
Mof_C 	C 	0.29669	0.90068	0.99013	-0.082
Mof_H 	H 	0.3015	0.8554	0.0212	0.072
Mof_C 	C 	0.21098	0.89879	0.96543	0.028
Mof_C 	C 	0.2067	0.96322	0.91924	-0.087
Mof_H 	H 	0.1499	0.9588	0.9014	0.065
Mof_C 	C 	0.28441	0.03391	0.89899	0.016
Mof_H 	H 	0.2796	0.0801	0.868	0.043
Mof_C 	C 	0.66115	0.42709	0.89397	0.321
Mof_C 	C 	0.74207	0.50492	0.91878	-0.085
Mof_C 	C 	0.83415	0.46536	0.90848	0.015
Mof_H 	H 	0.8467	0.3866	0.8859	0.039
Mof_C 	C 	0.90789	0.54085	0.93123	-0.085
Mof_H 	H 	0.9703	0.5138	0.9236	0.06
Mof_C 	C 	0.89123	0.65576	0.96504	0.026
Mof_C 	C 	0.79827	0.69588	0.97486	-0.087
Mof_H 	H 	0.7855	0.7747	0.9974	0.065
Mof_C 	C 	0.72502	0.62146	0.95189	0.015
Mof_H 	H 	0.6625	0.6502	0.9588	0.048
Mof_O 	O 	0.0523	0.17428	0.27275	-0.467
Mof_O 	O 	0.95673	0.98226	0.29191	-0.278
Mof_O 	O 	0.53153	0.09222	0.92358	-0.317
Mof_O 	O 	0.44561	0.17992	0.86236	-0.435
Mof_O 	O 	0.68076	0.31395	0.86663	-0.455
Mof_O 	O 	0.58117	0.47679	0.90042	-0.291
Mof_Zn	Zn	0.06881	0.27056	0.33594	1.208
Mof_C 	C 	0.53104	0.64552	0.56331	0.045
Mof_C 	C 	0.61367	0.615	0.53855	-0.105
Mof_H 	H 	0.6635	0.566	0.5552	0.067
Mof_C 	C 	0.62499	0.65449	0.49015	0.05
Mof_C 	C 	0.55266	0.73076	0.4663	-0.108
Mof_H 	H 	0.5599	0.7594	0.4334	0.069
Mof_C 	C 	0.46952	0.76555	0.49033	0.048
Mof_C 	C 	0.4593	0.72157	0.53861	-0.108
Mof_H 	H 	0.4027	0.7437	0.5549	0.068
Mof_C 	C 	0.50329	0.4439	0.76294	0.349
Mof_C 	C 	0.50699	0.49294	0.71053	-0.101
Mof_C 	C 	0.56276	0.41484	0.67762	0.024
Mof_H 	H 	0.5967	0.3275	0.6878	0.03
Mof_C 	C 	0.56889	0.46407	0.6301	-0.096
Mof_H 	H 	0.6063	0.4086	0.6079	0.062
Mof_C 	C 	0.521	0.59416	0.61407	0.029
Mof_C 	C 	0.4632	0.66904	0.64705	-0.095
Mof_H 	H 	0.4284	0.7556	0.6369	0.061
Mof_C 	C 	0.4562	0.61811	0.6945	0.022
Mof_H 	H 	0.4161	0.6697	0.7163	0.037
Mof_C 	C 	0.95571	0.39276	0.40275	0.312
Mof_C 	C 	0.86935	0.46293	0.42411	-0.079
Mof_C 	C 	0.87468	0.53194	0.46954	0.016
Mof_H 	H 	0.9325	0.5328	0.4866	0.055
Mof_C 	C 	0.79669	0.59932	0.49013	-0.082
Mof_H 	H 	0.8015	0.6446	0.5212	0.072
Mof_C 	C 	0.71098	0.60121	0.46543	0.027
Mof_C 	C 	0.7067	0.53678	0.41924	-0.086
Mof_H 	H 	0.6499	0.5412	0.4014	0.065
Mof_C 	C 	0.78441	0.46609	0.39899	0.015
Mof_H 	H 	0.7796	0.4199	0.368	0.043
Mof_C 	C 	0.16115	0.07291	0.39397	0.32
Mof_C 	C 	0.24207	0.99508	0.41878	-0.083
Mof_C 	C 	0.33415	0.03464	0.40848	0.013
Mof_H 	H 	0.3467	0.1134	0.3859	0.039
Mof_C 	C 	0.40789	0.95915	0.43123	-0.083
Mof_H 	H 	0.4703	0.9862	0.4236	0.06
Mof_C 	C 	0.39123	0.84424	0.46504	0.024
Mof_C 	C 	0.29827	0.80412	0.47486	-0.086
Mof_H 	H 	0.2855	0.7253	0.4974	0.065
Mof_C 	C 	0.22502	0.87854	0.45189	0.014
Mof_H 	H 	0.1625	0.8498	0.4588	0.048
Mof_O 	O 	0.5523	0.32572	0.77275	-0.467
Mof_O 	O 	0.45673	0.51774	0.79191	-0.279
Mof_O 	O 	0.03153	0.40778	0.42358	-0.318
Mof_O 	O 	0.94561	0.32008	0.36236	-0.435
Mof_O 	O 	0.18076	0.18605	0.36663	-0.455
Mof_O 	O 	0.08117	0.02321	0.40042	-0.291
Mof_Zn	Zn	0.56881	0.22944	0.83594	1.208
_end
