# CIF file generated by openbabel 3.1.0, see https://openbabel.org
data_I
_chemical_name_common 'BALMUW_clean'
_cell_length_a 6.188
_cell_length_b 8.7339
_cell_length_c 9.312
_cell_angle_alpha 64.553
_cell_angle_beta 84.64
_cell_angle_gamma 84.1397
_space_group_name_H-M_alt 'P 1'
_space_group_name_Hall 'P 1'
loop_
    _symmetry_equiv_pos_as_xyz
    x,y,z
loop_
    _atom_site_label
    _atom_site_type_symbol
    _atom_site_fract_x
    _atom_site_fract_y
    _atom_site_fract_z
    _atom_site_occupancy
    Ba1      Ba       0.72173    0.45967    0.70927    1.000
    Ba2      Ba       0.78572    0.86353    0.91879    1.000
    Ba3      Ba       0.27827    0.54033    0.29073    1.000
    Ba4      Ba       0.21428    0.13647    0.08121    1.000
    C1       C        0.17840    0.58180    0.82700    1.000
    C2       C        0.32700    0.68190    0.87090    1.000
    C3       C        0.13380    0.22160    0.68050    1.000
    C4       C        0.38880    0.21620    0.68590    1.000
    C5       C        0.82160    0.41820    0.17300    1.000
    C6       C        0.67300    0.31810    0.12910    1.000
    C7       C        0.86620    0.77840    0.31950    1.000
    C8       C        0.61120    0.78380    0.31410    1.000
    O1       O        0.98030    0.62930    0.81380    1.000
    O2       O        0.26230    0.45360    0.80760    1.000
    O3       O        0.24320    0.75310    0.95850    1.000
    O4       O        0.52340    0.68740    0.82200    1.000
    O5       O        0.02730    0.14450    0.81280    1.000
    O6       O        0.04840    0.31440    0.54950    1.000
    O7       O        0.47650    0.13320    0.81690    1.000
    O8       O        0.48920    0.30610    0.55360    1.000
    O9       O        0.01970    0.37070    0.18620    1.000
    O10      O        0.73770    0.54640    0.19240    1.000
    O11      O        0.75680    0.24690    0.04150    1.000
    O12      O        0.47660    0.31260    0.17800    1.000
    O13      O        0.97270    0.85550    0.18720    1.000
    O14      O        0.95160    0.68560    0.45050    1.000
    O15      O        0.52350    0.86680    0.18310    1.000
    O16      O        0.51080    0.69390    0.44640    1.000
