data_functionalizedCrystal
_audit_creation_method	'EQeq! by Chris Wilmer'
_symmetry_space_group_name_H-M	'P1'
_symmetry_Int_Tables_number	1
_symmetry_cell_setting	triclinic
loop_
_symmetry_equiv_pos_as_xyz
  x,y,z
_cell_length_a	6.0853
_cell_length_b	12.404
_cell_length_c	23.497
_cell_angle_alpha	90
_cell_angle_beta	90
_cell_angle_gamma	94.5152
loop_
_atom_site_label
_atom_site_type_symbol
_atom_site_fract_x
_atom_site_fract_y
_atom_site_fract_z
_atom_site_charge
Mof_Y 	Y 	0.00876	0.60925	0.66879	1.296
Mof_Y 	Y 	0.49124	0.89075	0.16879	1.361
Mof_Y 	Y 	0.99124	0.39075	0.33121	1.362
Mof_Y 	Y 	0.50876	0.10925	0.83121	1.312
Mof_Cu	Cu	0.5	0	0.5	0.909
Mof_Cu	Cu	-0	0.5	-0	0.9
Mof_H 	H 	0.4434	0.6269	0.8291	0.064
Mof_H 	H 	0.5278	0.7764	0.663	0.045
Mof_H 	H 	0.8254	0.3562	0.1034	0.052
Mof_H 	H 	0.4722	0.2236	0.337	0.041
Mof_H 	H 	0.5566	0.3731	0.1709	0.06
Mof_H 	H 	0.9434	0.1269	0.6709	0.073
Mof_H 	H 	0.391	0.9227	0.7065	0.046
Mof_H 	H 	0.891	0.4227	0.7935	0.084
Mof_H 	H 	0.6746	0.1438	0.6034	0.045
Mof_H 	H 	0.609	0.0773	0.2935	0.034
Mof_H 	H 	0.3254	0.8562	0.3966	0.058
Mof_H 	H 	0.0278	0.2764	0.837	0.021
Mof_H 	H 	0.1746	0.6438	0.8966	0.05
Mof_H 	H 	0.9722	0.7236	0.163	0.058
Mof_H 	H 	0.0566	0.8731	0.3291	0.049
Mof_H 	H 	0.109	0.5773	0.2065	0.012
Mof_C 	C 	0.0727	0.9236	0.3584	0.046
Mof_C 	C 	0.0325	0.9248	0.5969	-0.071
Mof_C 	C 	0.3657	0.4342	0.9434	-0.024
Mof_C 	C 	0.2637	0.5864	0.8988	0.033
Mof_C 	C 	0.3071	0.661	0.0944	0.391
Mof_C 	C 	0.1584	0.0726	0.2298	-0.069
Mof_C 	C 	0.5325	0.4248	0.9031	-0.029
Mof_C 	C 	0.6929	0.339	0.9056	0.38
Mof_C 	C 	0.3946	0.1897	0.307	0.018
Mof_C 	C 	0.9055	0.8275	0.7519	0.027
Mof_C 	C 	0.6343	0.5658	0.0566	-0.006
Mof_C 	C 	0.3159	0.3576	0.9924	0.335
Mof_C 	C 	0.9719	0.5983	0.2176	0.074
Mof_C 	C 	0.7637	0.0864	0.6012	0.046
Mof_C 	C 	0.8946	0.6897	0.193	0.002
Mof_C 	C 	0.2363	0.9136	0.3988	0.018
Mof_C 	C 	0.4273	0.5764	0.8584	0.013
Mof_C 	C 	0.1929	0.839	0.5944	0.393
Mof_C 	C 	0.5945	0.6725	0.2519	-0.002
Mof_C 	C 	0.9095	0.2318	0.2213	0.341
Mof_C 	C 	0.1343	0.0658	0.4434	-0.073
Mof_C 	C 	0.4719	0.0983	0.2824	0.023
Mof_C 	C 	0.4095	0.7318	0.2787	0.328
Mof_C 	C 	0.5181	0.4897	0.304	0.388
Mof_C 	C 	0.4819	0.5103	0.696	0.381
Mof_C 	C 	0.8416	0.9274	0.7702	-0.01
Mof_C 	C 	0.1841	0.1424	0.4924	0.305
Mof_C 	C 	0.5905	0.2682	0.7213	0.325
Mof_C 	C 	0.5281	0.9017	0.7176	0.033
Mof_C 	C 	0.4675	0.5752	0.0969	-0.044
Mof_C 	C 	0.0281	0.4017	0.7824	-0.042
Mof_C 	C 	0.6054	0.8103	0.693	0.024
Mof_C 	C 	0.9273	0.0764	0.6416	-0.02
Mof_C 	C 	0.3416	0.4274	0.7298	-0.042
Mof_C 	C 	0.0945	0.1725	0.2481	-0.017
Mof_C 	C 	0.8657	0.9342	0.5566	0.055
Mof_C 	C 	0.0905	0.7682	0.7787	0.299
Mof_C 	C 	0.6584	0.5726	0.2702	-0.039
Mof_C 	C 	0.9819	0.0103	0.804	0.382
Mof_C 	C 	0.8071	0.161	0.4056	0.38
Mof_C 	C 	0.6841	0.6424	0.0076	0.249
Mof_C 	C 	0.7363	0.4136	0.1012	0.032
Mof_C 	C 	0.9675	0.0752	0.4031	-0.012
Mof_C 	C 	0.5727	0.4236	0.1416	0.007
Mof_C 	C 	0.0181	0.9897	0.196	0.395
Mof_C 	C 	0.1054	0.3103	0.807	0.049
Mof_C 	C 	0.4055	0.3275	0.7481	-0.001
Mof_C 	C 	0.8159	0.8576	0.5076	0.278
Mof_N 	N 	0.2103	0.2296	0.2883	-0.155
Mof_N 	N 	0.2897	0.2704	0.7883	-0.158
Mof_N 	N 	0.2665	0.9842	0.4402	-0.149
Mof_N 	N 	0.7103	0.7296	0.2117	-0.146
Mof_N 	N 	0.9372	0.0038	0.3601	-0.109
Mof_N 	N 	0.358	0.0401	0.2441	-0.151
Mof_N 	N 	0.858	0.5401	0.2559	-0.148
Mof_N 	N 	0.2335	0.5158	0.9402	-0.176
Mof_N 	N 	0.7665	0.4842	0.0598	-0.183
Mof_N 	N 	0.642	0.9599	0.7559	-0.13
Mof_N 	N 	0.5628	0.4962	0.8601	-0.085
Mof_N 	N 	0.142	0.4599	0.7441	-0.132
Mof_N 	N 	0.7335	0.0158	0.5598	-0.213
Mof_N 	N 	0.4372	0.5038	0.1399	-0.086
Mof_N 	N 	0.0628	0.9962	0.6399	-0.067
Mof_N 	N 	0.7897	0.7704	0.7117	-0.146
Mof_O 	O 	0.6551	0.1913	0.7504	-0.376
Mof_O 	O 	0.6531	0.2948	0.67307	-0.257
Mof_O 	O 	0.8443	0.2401	0.3725	-0.424
Mof_O 	O 	0.8552	0.3543	0.9372	-0.307
Mof_O 	O 	0.0909	0.2271	0.49516	-0.26
Mof_O 	O 	0.1551	0.6913	0.7496	-0.371
Mof_O 	O 	0.1531	0.7948	0.82693	-0.25
Mof_O 	O 	0.9091	0.7729	0.50484	-0.231
Mof_O 	O 	0.5909	0.7271	0.00484	-0.242
Mof_O 	O 	0.6758	0.8861	0.47186	-0.329
Mof_O 	O 	0.3449	0.8087	0.2496	-0.377
Mof_O 	O 	0.6839	0.5216	0.70588	-0.401
Mof_O 	O 	0.8161	0.9784	0.20588	-0.392
Mof_O 	O 	0.3242	0.1139	0.52814	-0.364
Mof_O 	O 	0.3469	0.7052	0.32693	-0.264
Mof_O 	O 	0.8469	0.2052	0.17307	-0.272
Mof_O 	O 	0.8449	0.3087	0.2504	-0.381
Mof_O 	O 	0.6557	0.2599	0.8725	-0.417
Mof_O 	O 	0.4091	0.2729	0.99516	-0.252
Mof_O 	O 	0.1839	0.0216	0.79412	-0.447
Mof_O 	O 	0.3794	0.5678	0.66249	-0.407
Mof_O 	O 	0.6448	0.1457	0.4372	-0.333
Mof_O 	O 	0.3161	0.4784	0.29412	-0.426
Mof_O 	O 	0.8794	0.0678	0.83751	-0.408
Mof_O 	O 	0.1448	0.6457	0.0628	-0.348
Mof_O 	O 	0.3552	0.8543	0.5628	-0.326
Mof_O 	O 	0.1758	0.3861	0.02814	-0.393
Mof_O 	O 	0.8242	0.6139	0.97186	-0.295
Mof_O 	O 	0.3443	0.7401	0.1275	-0.434
Mof_O 	O 	0.1557	0.7599	0.6275	-0.429
Mof_O 	O 	0.1206	0.9322	0.16249	-0.418
Mof_O 	O 	0.6206	0.4322	0.33751	-0.416
_end
