data_functionalizedCrystal
_audit_creation_method	'EQeq! by Chris Wilmer'
_symmetry_space_group_name_H-M	'P1'
_symmetry_Int_Tables_number	1
_symmetry_cell_setting	triclinic
loop_
_symmetry_equiv_pos_as_xyz
  x,y,z
_cell_length_a	45.611
_cell_length_b	45.611
_cell_length_c	45.611
_cell_angle_alpha	90
_cell_angle_beta	90
_cell_angle_gamma	90
loop_
_atom_site_label
_atom_site_type_symbol
_atom_site_fract_x
_atom_site_fract_y
_atom_site_fract_z
_atom_site_charge
Mof_H 	H 	0.186	0.6264	0.0889	0.024
Mof_H 	H 	0.1896	0.5976	0.0356	0.023
Mof_H 	H 	0.283	0.5295	0.0046	0.023
Mof_H 	H 	0.3294	0.5151	0.04	0.022
Mof_C 	C 	0.3057	0.5817	0.0448	-0.046
Mof_H 	H 	0.3152	0.5889	0.0266	0.025
Mof_H 	H 	0.3068	0.5975	0.0596	0.024
Mof_N 	N 	0.39391	0.52385	0.08458	-0.14
Mof_C 	C 	0.273	0.5742	0.0384	-0.039
Mof_H 	H 	0.2602	0.5861	0.0512	0.022
Mof_H 	H 	0.2683	0.5791	0.0178	0.021
Mof_C 	C 	0.3568	0.5947	0.1314	-0.043
Mof_H 	H 	0.3666	0.5769	0.139	0.024
Mof_H 	H 	0.3363	0.5894	0.1265	0.023
Mof_H 	H 	0.4134	0.5962	0.121	0.024
Mof_C 	C 	0.3772	0.5146	0.1099	-0.043
Mof_H 	H 	0.3565	0.5114	0.1042	0.022
Mof_H 	H 	0.3778	0.5301	0.125	0.022
Mof_C 	C 	0.3938	0.4995	0.0624	-0.051
Mof_H 	H 	0.4051	0.5055	0.0449	0.026
Mof_H 	H 	0.3734	0.4953	0.0562	0.027
Mof_C 	C 	0.4245	0.528	0.0926	-0.034
Mof_H 	H 	0.426	0.5444	0.1068	0.019
Mof_H 	H 	0.4359	0.5334	0.0749	0.021
Mof_H 	H 	0.186	0.1264	0.5889	0.024
Mof_H 	H 	0.1896	0.0976	0.5356	0.023
Mof_H 	H 	0.283	0.0295	0.5046	0.023
Mof_H 	H 	0.3294	0.0151	0.54	0.022
Mof_C 	C 	0.3057	0.0817	0.5448	-0.046
Mof_H 	H 	0.3152	0.0889	0.5266	0.025
Mof_H 	H 	0.3068	0.0975	0.5596	0.024
Mof_N 	N 	0.39391	0.02385	0.58458	-0.14
Mof_C 	C 	0.273	0.0742	0.5384	-0.039
Mof_H 	H 	0.2602	0.0861	0.5512	0.022
Mof_H 	H 	0.2683	0.0791	0.5178	0.021
Mof_C 	C 	0.3568	0.0947	0.6314	-0.043
Mof_H 	H 	0.3666	0.0769	0.639	0.024
Mof_H 	H 	0.3363	0.0894	0.6265	0.023
Mof_H 	H 	0.4134	0.0962	0.621	0.024
Mof_C 	C 	0.3772	0.0146	0.6099	-0.043
Mof_H 	H 	0.3565	0.0114	0.6042	0.022
Mof_H 	H 	0.3778	0.0301	0.625	0.022
Mof_C 	C 	0.3938	0.9995	0.5624	-0.051
Mof_H 	H 	0.4051	0.0055	0.5449	0.026
Mof_H 	H 	0.3734	0.9953	0.5562	0.027
Mof_C 	C 	0.4245	0.028	0.5926	-0.034
Mof_H 	H 	0.426	0.0444	0.6068	0.019
Mof_H 	H 	0.4359	0.0334	0.5749	0.021
Mof_H 	H 	0.686	0.6264	0.5889	0.024
Mof_H 	H 	0.6896	0.5976	0.5356	0.023
Mof_H 	H 	0.783	0.5295	0.5046	0.023
Mof_H 	H 	0.8294	0.5151	0.54	0.022
Mof_C 	C 	0.8057	0.5817	0.5448	-0.046
Mof_H 	H 	0.8152	0.5889	0.5266	0.025
Mof_H 	H 	0.8068	0.5975	0.5596	0.024
Mof_N 	N 	0.89391	0.52385	0.58458	-0.14
Mof_C 	C 	0.773	0.5742	0.5384	-0.039
Mof_H 	H 	0.7602	0.5861	0.5512	0.022
Mof_H 	H 	0.7683	0.5791	0.5178	0.021
Mof_C 	C 	0.8568	0.5947	0.6314	-0.043
Mof_H 	H 	0.8666	0.5769	0.639	0.024
Mof_H 	H 	0.8363	0.5894	0.6265	0.023
Mof_H 	H 	0.9134	0.5962	0.621	0.024
Mof_C 	C 	0.8772	0.5146	0.6099	-0.043
Mof_H 	H 	0.8565	0.5114	0.6042	0.022
Mof_H 	H 	0.8778	0.5301	0.625	0.022
Mof_C 	C 	0.8938	0.4995	0.5624	-0.051
Mof_H 	H 	0.9051	0.5055	0.5449	0.026
Mof_H 	H 	0.8734	0.4953	0.5562	0.027
Mof_C 	C 	0.9245	0.528	0.5926	-0.034
Mof_H 	H 	0.926	0.5444	0.6068	0.019
Mof_H 	H 	0.9359	0.5334	0.5749	0.021
Mof_H 	H 	0.686	0.1264	0.0889	0.024
Mof_H 	H 	0.6896	0.0976	0.0356	0.023
Mof_H 	H 	0.783	0.0295	0.0046	0.023
Mof_H 	H 	0.8294	0.0151	0.04	0.022
Mof_C 	C 	0.8057	0.0817	0.0448	-0.046
Mof_H 	H 	0.8152	0.0889	0.0266	0.025
Mof_H 	H 	0.8068	0.0975	0.0596	0.024
Mof_N 	N 	0.89391	0.02385	0.08458	-0.14
Mof_C 	C 	0.773	0.0742	0.0384	-0.039
Mof_H 	H 	0.7602	0.0861	0.0512	0.022
Mof_H 	H 	0.7683	0.0791	0.0178	0.021
Mof_C 	C 	0.8568	0.0947	0.1314	-0.043
Mof_H 	H 	0.8666	0.0769	0.139	0.024
Mof_H 	H 	0.8363	0.0894	0.1265	0.023
Mof_H 	H 	0.9134	0.0962	0.121	0.024
Mof_C 	C 	0.8772	0.0146	0.1099	-0.043
Mof_H 	H 	0.8565	0.0114	0.1042	0.022
Mof_H 	H 	0.8778	0.0301	0.125	0.022
Mof_C 	C 	0.8938	0.9995	0.0624	-0.051
Mof_H 	H 	0.9051	0.0055	0.0449	0.026
Mof_H 	H 	0.8734	0.9953	0.0562	0.027
Mof_C 	C 	0.9245	0.028	0.0926	-0.034
Mof_H 	H 	0.926	0.0444	0.1068	0.019
Mof_H 	H 	0.9359	0.0334	0.0749	0.021
Mof_H 	H 	0.564	0.6236	0.5889	0.024
Mof_H 	H 	0.5604	0.6524	0.5356	0.023
Mof_H 	H 	0.467	0.7205	0.5046	0.023
Mof_H 	H 	0.4206	0.7349	0.54	0.022
Mof_C 	C 	0.4443	0.6683	0.5448	-0.046
Mof_H 	H 	0.4348	0.6611	0.5266	0.025
Mof_H 	H 	0.4432	0.6525	0.5596	0.024
Mof_N 	N 	0.35609	0.72615	0.58458	-0.14
Mof_C 	C 	0.477	0.6758	0.5384	-0.039
Mof_H 	H 	0.4898	0.6639	0.5512	0.022
Mof_H 	H 	0.4817	0.6709	0.5178	0.021
Mof_C 	C 	0.3932	0.6553	0.6314	-0.043
Mof_H 	H 	0.3834	0.6731	0.639	0.024
Mof_H 	H 	0.4137	0.6606	0.6265	0.023
Mof_H 	H 	0.3366	0.6538	0.621	0.024
Mof_C 	C 	0.3728	0.7354	0.6099	-0.043
Mof_H 	H 	0.3935	0.7386	0.6042	0.022
Mof_H 	H 	0.3722	0.7199	0.625	0.022
Mof_C 	C 	0.3562	0.7505	0.5624	-0.051
Mof_H 	H 	0.3449	0.7445	0.5449	0.026
Mof_H 	H 	0.3766	0.7547	0.5562	0.027
Mof_C 	C 	0.3255	0.722	0.5926	-0.034
Mof_H 	H 	0.324	0.7056	0.6068	0.019
Mof_H 	H 	0.3141	0.7166	0.5749	0.021
Mof_H 	H 	0.564	0.1236	0.0889	0.024
Mof_H 	H 	0.5604	0.1524	0.0356	0.023
Mof_H 	H 	0.467	0.2205	0.0046	0.023
Mof_H 	H 	0.4206	0.2349	0.04	0.022
Mof_C 	C 	0.4443	0.1683	0.0448	-0.046
Mof_H 	H 	0.4348	0.1611	0.0266	0.025
Mof_H 	H 	0.4432	0.1525	0.0596	0.024
Mof_N 	N 	0.35609	0.22615	0.08458	-0.14
Mof_C 	C 	0.477	0.1758	0.0384	-0.039
Mof_H 	H 	0.4898	0.1639	0.0512	0.022
Mof_H 	H 	0.4817	0.1709	0.0178	0.021
Mof_C 	C 	0.3932	0.1553	0.1314	-0.043
Mof_H 	H 	0.3834	0.1731	0.139	0.024
Mof_H 	H 	0.4137	0.1606	0.1265	0.023
Mof_H 	H 	0.3366	0.1538	0.121	0.024
Mof_C 	C 	0.3728	0.2354	0.1099	-0.043
Mof_H 	H 	0.3935	0.2386	0.1042	0.022
Mof_H 	H 	0.3722	0.2199	0.125	0.022
Mof_C 	C 	0.3562	0.2505	0.0624	-0.051
Mof_H 	H 	0.3449	0.2445	0.0449	0.026
Mof_H 	H 	0.3766	0.2547	0.0562	0.027
Mof_C 	C 	0.3255	0.222	0.0926	-0.034
Mof_H 	H 	0.324	0.2056	0.1068	0.019
Mof_H 	H 	0.3141	0.2166	0.0749	0.021
Mof_H 	H 	0.064	0.6236	0.0889	0.024
Mof_H 	H 	0.0604	0.6524	0.0356	0.023
Mof_H 	H 	0.967	0.7205	0.0046	0.023
Mof_H 	H 	0.9206	0.7349	0.04	0.022
Mof_C 	C 	0.9443	0.6683	0.0448	-0.046
Mof_H 	H 	0.9348	0.6611	0.0266	0.025
Mof_H 	H 	0.9432	0.6525	0.0596	0.024
Mof_N 	N 	0.85609	0.72615	0.08458	-0.14
Mof_C 	C 	0.977	0.6758	0.0384	-0.039
Mof_H 	H 	0.9898	0.6639	0.0512	0.022
Mof_H 	H 	0.9817	0.6709	0.0178	0.021
Mof_C 	C 	0.8932	0.6553	0.1314	-0.043
Mof_H 	H 	0.8834	0.6731	0.139	0.024
Mof_H 	H 	0.9137	0.6606	0.1265	0.023
Mof_H 	H 	0.8366	0.6538	0.121	0.024
Mof_C 	C 	0.8728	0.7354	0.1099	-0.043
Mof_H 	H 	0.8935	0.7386	0.1042	0.022
Mof_H 	H 	0.8722	0.7199	0.125	0.022
Mof_C 	C 	0.8562	0.7505	0.0624	-0.051
Mof_H 	H 	0.8449	0.7445	0.0449	0.026
Mof_H 	H 	0.8766	0.7547	0.0562	0.027
Mof_C 	C 	0.8255	0.722	0.0926	-0.034
Mof_H 	H 	0.824	0.7056	0.1068	0.019
Mof_H 	H 	0.8141	0.7166	0.0749	0.021
Mof_H 	H 	0.064	0.1236	0.5889	0.024
Mof_H 	H 	0.0604	0.1524	0.5356	0.023
Mof_H 	H 	0.967	0.2205	0.5046	0.023
Mof_H 	H 	0.9206	0.2349	0.54	0.022
Mof_C 	C 	0.9443	0.1683	0.5448	-0.046
Mof_H 	H 	0.9348	0.1611	0.5266	0.025
Mof_H 	H 	0.9432	0.1525	0.5596	0.024
Mof_N 	N 	0.85609	0.22615	0.58458	-0.14
Mof_C 	C 	0.977	0.1758	0.5384	-0.039
Mof_H 	H 	0.9898	0.1639	0.5512	0.022
Mof_H 	H 	0.9817	0.1709	0.5178	0.021
Mof_C 	C 	0.8932	0.1553	0.6314	-0.043
Mof_H 	H 	0.8834	0.1731	0.639	0.024
Mof_H 	H 	0.9137	0.1606	0.6265	0.023
Mof_H 	H 	0.8366	0.1538	0.621	0.024
Mof_C 	C 	0.8728	0.2354	0.6099	-0.043
Mof_H 	H 	0.8935	0.2386	0.6042	0.022
Mof_H 	H 	0.8722	0.2199	0.625	0.022
Mof_C 	C 	0.8562	0.2505	0.5624	-0.051
Mof_H 	H 	0.8449	0.2445	0.5449	0.026
Mof_H 	H 	0.8766	0.2547	0.5562	0.027
Mof_C 	C 	0.8255	0.222	0.5926	-0.034
Mof_H 	H 	0.824	0.2056	0.6068	0.019
Mof_H 	H 	0.8141	0.2166	0.5749	0.021
Mof_H 	H 	0.064	0.1264	0.6611	0.024
Mof_H 	H 	0.0604	0.0976	0.7144	0.023
Mof_H 	H 	0.967	0.0295	0.7454	0.023
Mof_H 	H 	0.9206	0.0151	0.71	0.022
Mof_C 	C 	0.9443	0.0817	0.7052	-0.046
Mof_H 	H 	0.9348	0.0889	0.7234	0.025
Mof_H 	H 	0.9432	0.0975	0.6904	0.024
Mof_N 	N 	0.85609	0.02385	0.66542	-0.14
Mof_C 	C 	0.977	0.0742	0.7116	-0.039
Mof_H 	H 	0.9898	0.0861	0.6988	0.022
Mof_H 	H 	0.9817	0.0791	0.7322	0.021
Mof_C 	C 	0.8932	0.0947	0.6186	-0.043
Mof_H 	H 	0.8834	0.0769	0.611	0.024
Mof_H 	H 	0.9137	0.0894	0.6235	0.023
Mof_H 	H 	0.8366	0.0962	0.629	0.024
Mof_C 	C 	0.8728	0.0146	0.6401	-0.043
Mof_H 	H 	0.8935	0.0114	0.6458	0.022
Mof_H 	H 	0.8722	0.0301	0.625	0.022
Mof_C 	C 	0.8562	0.9995	0.6876	-0.051
Mof_H 	H 	0.8449	0.0055	0.7051	0.026
Mof_H 	H 	0.8766	0.9953	0.6938	0.027
Mof_C 	C 	0.8255	0.028	0.6574	-0.034
Mof_H 	H 	0.824	0.0444	0.6432	0.019
Mof_H 	H 	0.8141	0.0334	0.6751	0.021
Mof_H 	H 	0.064	0.6264	0.1611	0.024
Mof_H 	H 	0.0604	0.5976	0.2144	0.023
Mof_H 	H 	0.967	0.5295	0.2454	0.023
Mof_H 	H 	0.9206	0.5151	0.21	0.022
Mof_C 	C 	0.9443	0.5817	0.2052	-0.046
Mof_H 	H 	0.9348	0.5889	0.2234	0.025
Mof_H 	H 	0.9432	0.5975	0.1904	0.024
Mof_N 	N 	0.85609	0.52385	0.16542	-0.14
Mof_C 	C 	0.977	0.5742	0.2116	-0.039
Mof_H 	H 	0.9898	0.5861	0.1988	0.022
Mof_H 	H 	0.9817	0.5791	0.2322	0.021
Mof_C 	C 	0.8932	0.5947	0.1186	-0.043
Mof_H 	H 	0.8834	0.5769	0.111	0.024
Mof_H 	H 	0.9137	0.5894	0.1235	0.023
Mof_H 	H 	0.8366	0.5962	0.129	0.024
Mof_C 	C 	0.8728	0.5146	0.1401	-0.043
Mof_H 	H 	0.8935	0.5114	0.1458	0.022
Mof_H 	H 	0.8722	0.5301	0.125	0.022
Mof_C 	C 	0.8562	0.4995	0.1876	-0.051
Mof_H 	H 	0.8449	0.5055	0.2051	0.026
Mof_H 	H 	0.8766	0.4953	0.1938	0.027
Mof_C 	C 	0.8255	0.528	0.1574	-0.034
Mof_H 	H 	0.824	0.5444	0.1432	0.019
Mof_H 	H 	0.8141	0.5334	0.1751	0.021
Mof_H 	H 	0.564	0.1264	0.1611	0.024
Mof_H 	H 	0.5604	0.0976	0.2144	0.023
Mof_H 	H 	0.467	0.0295	0.2454	0.023
Mof_H 	H 	0.4206	0.0151	0.21	0.022
Mof_C 	C 	0.4443	0.0817	0.2052	-0.046
Mof_H 	H 	0.4348	0.0889	0.2234	0.025
Mof_H 	H 	0.4432	0.0975	0.1904	0.024
Mof_N 	N 	0.35609	0.02385	0.16542	-0.14
Mof_C 	C 	0.477	0.0742	0.2116	-0.039
Mof_H 	H 	0.4898	0.0861	0.1988	0.022
Mof_H 	H 	0.4817	0.0791	0.2322	0.021
Mof_C 	C 	0.3932	0.0947	0.1186	-0.043
Mof_H 	H 	0.3834	0.0769	0.111	0.024
Mof_H 	H 	0.4137	0.0894	0.1235	0.023
Mof_H 	H 	0.3366	0.0962	0.129	0.024
Mof_C 	C 	0.3728	0.0146	0.1401	-0.043
Mof_H 	H 	0.3935	0.0114	0.1458	0.022
Mof_H 	H 	0.3722	0.0301	0.125	0.022
Mof_C 	C 	0.3562	0.9995	0.1876	-0.051
Mof_H 	H 	0.3449	0.0055	0.2051	0.026
Mof_H 	H 	0.3766	0.9953	0.1938	0.027
Mof_C 	C 	0.3255	0.028	0.1574	-0.034
Mof_H 	H 	0.324	0.0444	0.1432	0.019
Mof_H 	H 	0.3141	0.0334	0.1751	0.021
Mof_H 	H 	0.564	0.6264	0.6611	0.024
Mof_H 	H 	0.5604	0.5976	0.7144	0.023
Mof_H 	H 	0.467	0.5295	0.7454	0.023
Mof_H 	H 	0.4206	0.5151	0.71	0.022
Mof_C 	C 	0.4443	0.5817	0.7052	-0.046
Mof_H 	H 	0.4348	0.5889	0.7234	0.025
Mof_H 	H 	0.4432	0.5975	0.6904	0.024
Mof_N 	N 	0.35609	0.52385	0.66542	-0.14
Mof_C 	C 	0.477	0.5742	0.7116	-0.039
Mof_H 	H 	0.4898	0.5861	0.6988	0.022
Mof_H 	H 	0.4817	0.5791	0.7322	0.021
Mof_C 	C 	0.3932	0.5947	0.6186	-0.043
Mof_H 	H 	0.3834	0.5769	0.611	0.024
Mof_H 	H 	0.4137	0.5894	0.6235	0.023
Mof_H 	H 	0.3366	0.5962	0.629	0.024
Mof_C 	C 	0.3728	0.5146	0.6401	-0.043
Mof_H 	H 	0.3935	0.5114	0.6458	0.022
Mof_H 	H 	0.3722	0.5301	0.625	0.022
Mof_C 	C 	0.3562	0.4995	0.6876	-0.051
Mof_H 	H 	0.3449	0.5055	0.7051	0.026
Mof_H 	H 	0.3766	0.4953	0.6938	0.027
Mof_C 	C 	0.3255	0.528	0.6574	-0.034
Mof_H 	H 	0.324	0.5444	0.6432	0.019
Mof_H 	H 	0.3141	0.5334	0.6751	0.021
Mof_H 	H 	0.686	0.1236	0.1611	0.024
Mof_H 	H 	0.6896	0.1524	0.2144	0.023
Mof_H 	H 	0.783	0.2205	0.2454	0.023
Mof_H 	H 	0.8294	0.2349	0.21	0.022
Mof_C 	C 	0.8057	0.1683	0.2052	-0.046
Mof_H 	H 	0.8152	0.1611	0.2234	0.025
Mof_H 	H 	0.8068	0.1525	0.1904	0.024
Mof_N 	N 	0.89391	0.22615	0.16542	-0.14
Mof_C 	C 	0.773	0.1758	0.2116	-0.039
Mof_H 	H 	0.7602	0.1639	0.1988	0.022
Mof_H 	H 	0.7683	0.1709	0.2322	0.021
Mof_C 	C 	0.8568	0.1553	0.1186	-0.043
Mof_H 	H 	0.8666	0.1731	0.111	0.024
Mof_H 	H 	0.8363	0.1606	0.1235	0.023
Mof_H 	H 	0.9134	0.1538	0.129	0.024
Mof_C 	C 	0.8772	0.2354	0.1401	-0.043
Mof_H 	H 	0.8565	0.2386	0.1458	0.022
Mof_H 	H 	0.8778	0.2199	0.125	0.022
Mof_C 	C 	0.8938	0.2505	0.1876	-0.051
Mof_H 	H 	0.9051	0.2445	0.2051	0.026
Mof_H 	H 	0.8734	0.2547	0.1938	0.027
Mof_C 	C 	0.9245	0.222	0.1574	-0.034
Mof_H 	H 	0.926	0.2056	0.1432	0.019
Mof_H 	H 	0.9359	0.2166	0.1751	0.021
Mof_H 	H 	0.686	0.6236	0.6611	0.024
Mof_H 	H 	0.6896	0.6524	0.7144	0.023
Mof_H 	H 	0.783	0.7205	0.7454	0.023
Mof_H 	H 	0.8294	0.7349	0.71	0.022
Mof_C 	C 	0.8057	0.6683	0.7052	-0.046
Mof_H 	H 	0.8152	0.6611	0.7234	0.025
Mof_H 	H 	0.8068	0.6525	0.6904	0.024
Mof_N 	N 	0.89391	0.72615	0.66542	-0.14
Mof_C 	C 	0.773	0.6758	0.7116	-0.039
Mof_H 	H 	0.7602	0.6639	0.6988	0.022
Mof_H 	H 	0.7683	0.6709	0.7322	0.021
Mof_C 	C 	0.8568	0.6553	0.6186	-0.043
Mof_H 	H 	0.8666	0.6731	0.611	0.024
Mof_H 	H 	0.8363	0.6606	0.6235	0.023
Mof_H 	H 	0.9134	0.6538	0.629	0.024
Mof_C 	C 	0.8772	0.7354	0.6401	-0.043
Mof_H 	H 	0.8565	0.7386	0.6458	0.022
Mof_H 	H 	0.8778	0.7199	0.625	0.022
Mof_C 	C 	0.8938	0.7505	0.6876	-0.051
Mof_H 	H 	0.9051	0.7445	0.7051	0.026
Mof_H 	H 	0.8734	0.7547	0.6938	0.027
Mof_C 	C 	0.9245	0.722	0.6574	-0.034
Mof_H 	H 	0.926	0.7056	0.6432	0.019
Mof_H 	H 	0.9359	0.7166	0.6751	0.021
Mof_H 	H 	0.186	0.1236	0.6611	0.024
Mof_H 	H 	0.1896	0.1524	0.7144	0.023
Mof_H 	H 	0.283	0.2205	0.7454	0.023
Mof_H 	H 	0.3294	0.2349	0.71	0.022
Mof_C 	C 	0.3057	0.1683	0.7052	-0.046
Mof_H 	H 	0.3152	0.1611	0.7234	0.025
Mof_H 	H 	0.3068	0.1525	0.6904	0.024
Mof_N 	N 	0.39391	0.22615	0.66542	-0.14
Mof_C 	C 	0.273	0.1758	0.7116	-0.039
Mof_H 	H 	0.2602	0.1639	0.6988	0.022
Mof_H 	H 	0.2683	0.1709	0.7322	0.021
Mof_C 	C 	0.3568	0.1553	0.6186	-0.043
Mof_H 	H 	0.3666	0.1731	0.611	0.024
Mof_H 	H 	0.3363	0.1606	0.6235	0.023
Mof_H 	H 	0.4134	0.1538	0.629	0.024
Mof_C 	C 	0.3772	0.2354	0.6401	-0.043
Mof_H 	H 	0.3565	0.2386	0.6458	0.022
Mof_H 	H 	0.3778	0.2199	0.625	0.022
Mof_C 	C 	0.3938	0.2505	0.6876	-0.051
Mof_H 	H 	0.4051	0.2445	0.7051	0.026
Mof_H 	H 	0.3734	0.2547	0.6938	0.027
Mof_C 	C 	0.4245	0.222	0.6574	-0.034
Mof_H 	H 	0.426	0.2056	0.6432	0.019
Mof_H 	H 	0.4359	0.2166	0.6751	0.021
Mof_H 	H 	0.186	0.6236	0.1611	0.024
Mof_H 	H 	0.1896	0.6524	0.2144	0.023
Mof_H 	H 	0.283	0.7205	0.2454	0.023
Mof_H 	H 	0.3294	0.7349	0.21	0.022
Mof_C 	C 	0.3057	0.6683	0.2052	-0.046
Mof_H 	H 	0.3152	0.6611	0.2234	0.025
Mof_H 	H 	0.3068	0.6525	0.1904	0.024
Mof_N 	N 	0.39391	0.72615	0.16542	-0.14
Mof_C 	C 	0.273	0.6758	0.2116	-0.039
Mof_H 	H 	0.2602	0.6639	0.1988	0.022
Mof_H 	H 	0.2683	0.6709	0.2322	0.021
Mof_C 	C 	0.3568	0.6553	0.1186	-0.043
Mof_H 	H 	0.3666	0.6731	0.111	0.024
Mof_H 	H 	0.3363	0.6606	0.1235	0.023
Mof_H 	H 	0.4134	0.6538	0.129	0.024
Mof_C 	C 	0.3772	0.7354	0.1401	-0.043
Mof_H 	H 	0.3565	0.7386	0.1458	0.022
Mof_H 	H 	0.3778	0.7199	0.125	0.022
Mof_C 	C 	0.3938	0.7505	0.1876	-0.051
Mof_H 	H 	0.4051	0.7445	0.2051	0.026
Mof_H 	H 	0.3734	0.7547	0.1938	0.027
Mof_C 	C 	0.4245	0.722	0.1574	-0.034
Mof_H 	H 	0.426	0.7056	0.1432	0.019
Mof_H 	H 	0.4359	0.7166	0.1751	0.021
Mof_H 	H 	0.0889	0.186	0.6264	0.024
Mof_H 	H 	0.0356	0.1896	0.5976	0.023
Mof_H 	H 	0.0046	0.283	0.5295	0.023
Mof_H 	H 	0.04	0.3294	0.5151	0.022
Mof_C 	C 	0.0448	0.3057	0.5817	-0.046
Mof_H 	H 	0.0266	0.3152	0.5889	0.025
Mof_H 	H 	0.0596	0.3068	0.5975	0.024
Mof_N 	N 	0.08458	0.39391	0.52385	-0.14
Mof_C 	C 	0.0384	0.273	0.5742	-0.039
Mof_H 	H 	0.0512	0.2602	0.5861	0.022
Mof_H 	H 	0.0178	0.2683	0.5791	0.021
Mof_C 	C 	0.1314	0.3568	0.5947	-0.043
Mof_H 	H 	0.139	0.3666	0.5769	0.024
Mof_H 	H 	0.1265	0.3363	0.5894	0.023
Mof_H 	H 	0.121	0.4134	0.5962	0.024
Mof_C 	C 	0.1099	0.3772	0.5146	-0.043
Mof_H 	H 	0.1042	0.3565	0.5114	0.022
Mof_H 	H 	0.125	0.3778	0.5301	0.022
Mof_C 	C 	0.0624	0.3938	0.4995	-0.051
Mof_H 	H 	0.0449	0.4051	0.5055	0.026
Mof_H 	H 	0.0562	0.3734	0.4953	0.027
Mof_C 	C 	0.0926	0.4245	0.528	-0.034
Mof_H 	H 	0.1068	0.426	0.5444	0.019
Mof_H 	H 	0.0749	0.4359	0.5334	0.021
Mof_H 	H 	0.0889	0.686	0.1264	0.024
Mof_H 	H 	0.0356	0.6896	0.0976	0.023
Mof_H 	H 	0.0046	0.783	0.0295	0.023
Mof_H 	H 	0.04	0.8294	0.0151	0.022
Mof_C 	C 	0.0448	0.8057	0.0817	-0.046
Mof_H 	H 	0.0266	0.8152	0.0889	0.025
Mof_H 	H 	0.0596	0.8068	0.0975	0.024
Mof_N 	N 	0.08458	0.89391	0.02385	-0.14
Mof_C 	C 	0.0384	0.773	0.0742	-0.039
Mof_H 	H 	0.0512	0.7602	0.0861	0.022
Mof_H 	H 	0.0178	0.7683	0.0791	0.021
Mof_C 	C 	0.1314	0.8568	0.0947	-0.043
Mof_H 	H 	0.139	0.8666	0.0769	0.024
Mof_H 	H 	0.1265	0.8363	0.0894	0.023
Mof_H 	H 	0.121	0.9134	0.0962	0.024
Mof_C 	C 	0.1099	0.8772	0.0146	-0.043
Mof_H 	H 	0.1042	0.8565	0.0114	0.022
Mof_H 	H 	0.125	0.8778	0.0301	0.022
Mof_C 	C 	0.0624	0.8938	0.9995	-0.051
Mof_H 	H 	0.0449	0.9051	0.0055	0.026
Mof_H 	H 	0.0562	0.8734	0.9953	0.027
Mof_C 	C 	0.0926	0.9245	0.028	-0.034
Mof_H 	H 	0.1068	0.926	0.0444	0.019
Mof_H 	H 	0.0749	0.9359	0.0334	0.021
Mof_H 	H 	0.5889	0.186	0.1264	0.024
Mof_H 	H 	0.5356	0.1896	0.0976	0.023
Mof_H 	H 	0.5046	0.283	0.0295	0.023
Mof_H 	H 	0.54	0.3294	0.0151	0.022
Mof_C 	C 	0.5448	0.3057	0.0817	-0.046
Mof_H 	H 	0.5266	0.3152	0.0889	0.025
Mof_H 	H 	0.5596	0.3068	0.0975	0.024
Mof_N 	N 	0.58458	0.39391	0.02385	-0.14
Mof_C 	C 	0.5384	0.273	0.0742	-0.039
Mof_H 	H 	0.5512	0.2602	0.0861	0.022
Mof_H 	H 	0.5178	0.2683	0.0791	0.021
Mof_C 	C 	0.6314	0.3568	0.0947	-0.043
Mof_H 	H 	0.639	0.3666	0.0769	0.024
Mof_H 	H 	0.6265	0.3363	0.0894	0.023
Mof_H 	H 	0.621	0.4134	0.0962	0.024
Mof_C 	C 	0.6099	0.3772	0.0146	-0.043
Mof_H 	H 	0.6042	0.3565	0.0114	0.022
Mof_H 	H 	0.625	0.3778	0.0301	0.022
Mof_C 	C 	0.5624	0.3938	0.9995	-0.051
Mof_H 	H 	0.5449	0.4051	0.0055	0.026
Mof_H 	H 	0.5562	0.3734	0.9953	0.027
Mof_C 	C 	0.5926	0.4245	0.028	-0.034
Mof_H 	H 	0.6068	0.426	0.0444	0.019
Mof_H 	H 	0.5749	0.4359	0.0334	0.021
Mof_H 	H 	0.5889	0.686	0.6264	0.024
Mof_H 	H 	0.5356	0.6896	0.5976	0.023
Mof_H 	H 	0.5046	0.783	0.5295	0.023
Mof_H 	H 	0.54	0.8294	0.5151	0.022
Mof_C 	C 	0.5448	0.8057	0.5817	-0.046
Mof_H 	H 	0.5266	0.8152	0.5889	0.025
Mof_H 	H 	0.5596	0.8068	0.5975	0.024
Mof_N 	N 	0.58458	0.89391	0.52385	-0.14
Mof_C 	C 	0.5384	0.773	0.5742	-0.039
Mof_H 	H 	0.5512	0.7602	0.5861	0.022
Mof_H 	H 	0.5178	0.7683	0.5791	0.021
Mof_C 	C 	0.6314	0.8568	0.5947	-0.043
Mof_H 	H 	0.639	0.8666	0.5769	0.024
Mof_H 	H 	0.6265	0.8363	0.5894	0.023
Mof_H 	H 	0.621	0.9134	0.5962	0.024
Mof_C 	C 	0.6099	0.8772	0.5146	-0.043
Mof_H 	H 	0.6042	0.8565	0.5114	0.022
Mof_H 	H 	0.625	0.8778	0.5301	0.022
Mof_C 	C 	0.5624	0.8938	0.4995	-0.051
Mof_H 	H 	0.5449	0.9051	0.5055	0.026
Mof_H 	H 	0.5562	0.8734	0.4953	0.027
Mof_C 	C 	0.5926	0.9245	0.528	-0.034
Mof_H 	H 	0.6068	0.926	0.5444	0.019
Mof_H 	H 	0.5749	0.9359	0.5334	0.021
Mof_H 	H 	0.5889	0.564	0.6236	0.024
Mof_H 	H 	0.5356	0.5604	0.6524	0.023
Mof_H 	H 	0.5046	0.467	0.7205	0.023
Mof_H 	H 	0.54	0.4206	0.7349	0.022
Mof_C 	C 	0.5448	0.4443	0.6683	-0.046
Mof_H 	H 	0.5266	0.4348	0.6611	0.025
Mof_H 	H 	0.5596	0.4432	0.6525	0.024
Mof_N 	N 	0.58458	0.35609	0.72615	-0.14
Mof_C 	C 	0.5384	0.477	0.6758	-0.039
Mof_H 	H 	0.5512	0.4898	0.6639	0.022
Mof_H 	H 	0.5178	0.4817	0.6709	0.021
Mof_C 	C 	0.6314	0.3932	0.6553	-0.043
Mof_H 	H 	0.639	0.3834	0.6731	0.024
Mof_H 	H 	0.6265	0.4137	0.6606	0.023
Mof_H 	H 	0.621	0.3366	0.6538	0.024
Mof_C 	C 	0.6099	0.3728	0.7354	-0.043
Mof_H 	H 	0.6042	0.3935	0.7386	0.022
Mof_H 	H 	0.625	0.3722	0.7199	0.022
Mof_C 	C 	0.5624	0.3562	0.7505	-0.051
Mof_H 	H 	0.5449	0.3449	0.7445	0.026
Mof_H 	H 	0.5562	0.3766	0.7547	0.027
Mof_C 	C 	0.5926	0.3255	0.722	-0.034
Mof_H 	H 	0.6068	0.324	0.7056	0.019
Mof_H 	H 	0.5749	0.3141	0.7166	0.021
Mof_H 	H 	0.5889	0.064	0.1236	0.024
Mof_H 	H 	0.5356	0.0604	0.1524	0.023
Mof_H 	H 	0.5046	0.967	0.2205	0.023
Mof_H 	H 	0.54	0.9206	0.2349	0.022
Mof_C 	C 	0.5448	0.9443	0.1683	-0.046
Mof_H 	H 	0.5266	0.9348	0.1611	0.025
Mof_H 	H 	0.5596	0.9432	0.1525	0.024
Mof_N 	N 	0.58458	0.85609	0.22615	-0.14
Mof_C 	C 	0.5384	0.977	0.1758	-0.039
Mof_H 	H 	0.5512	0.9898	0.1639	0.022
Mof_H 	H 	0.5178	0.9817	0.1709	0.021
Mof_C 	C 	0.6314	0.8932	0.1553	-0.043
Mof_H 	H 	0.639	0.8834	0.1731	0.024
Mof_H 	H 	0.6265	0.9137	0.1606	0.023
Mof_H 	H 	0.621	0.8366	0.1538	0.024
Mof_C 	C 	0.6099	0.8728	0.2354	-0.043
Mof_H 	H 	0.6042	0.8935	0.2386	0.022
Mof_H 	H 	0.625	0.8722	0.2199	0.022
Mof_C 	C 	0.5624	0.8562	0.2505	-0.051
Mof_H 	H 	0.5449	0.8449	0.2445	0.026
Mof_H 	H 	0.5562	0.8766	0.2547	0.027
Mof_C 	C 	0.5926	0.8255	0.222	-0.034
Mof_H 	H 	0.6068	0.824	0.2056	0.019
Mof_H 	H 	0.5749	0.8141	0.2166	0.021
Mof_H 	H 	0.0889	0.564	0.1236	0.024
Mof_H 	H 	0.0356	0.5604	0.1524	0.023
Mof_H 	H 	0.0046	0.467	0.2205	0.023
Mof_H 	H 	0.04	0.4206	0.2349	0.022
Mof_C 	C 	0.0448	0.4443	0.1683	-0.046
Mof_H 	H 	0.0266	0.4348	0.1611	0.025
Mof_H 	H 	0.0596	0.4432	0.1525	0.024
Mof_N 	N 	0.08458	0.35609	0.22615	-0.14
Mof_C 	C 	0.0384	0.477	0.1758	-0.039
Mof_H 	H 	0.0512	0.4898	0.1639	0.022
Mof_H 	H 	0.0178	0.4817	0.1709	0.021
Mof_C 	C 	0.1314	0.3932	0.1553	-0.043
Mof_H 	H 	0.139	0.3834	0.1731	0.024
Mof_H 	H 	0.1265	0.4137	0.1606	0.023
Mof_H 	H 	0.121	0.3366	0.1538	0.024
Mof_C 	C 	0.1099	0.3728	0.2354	-0.043
Mof_H 	H 	0.1042	0.3935	0.2386	0.022
Mof_H 	H 	0.125	0.3722	0.2199	0.022
Mof_C 	C 	0.0624	0.3562	0.2505	-0.051
Mof_H 	H 	0.0449	0.3449	0.2445	0.026
Mof_H 	H 	0.0562	0.3766	0.2547	0.027
Mof_C 	C 	0.0926	0.3255	0.222	-0.034
Mof_H 	H 	0.1068	0.324	0.2056	0.019
Mof_H 	H 	0.0749	0.3141	0.2166	0.021
Mof_H 	H 	0.0889	0.064	0.6236	0.024
Mof_H 	H 	0.0356	0.0604	0.6524	0.023
Mof_H 	H 	0.0046	0.967	0.7205	0.023
Mof_H 	H 	0.04	0.9206	0.7349	0.022
Mof_C 	C 	0.0448	0.9443	0.6683	-0.046
Mof_H 	H 	0.0266	0.9348	0.6611	0.025
Mof_H 	H 	0.0596	0.9432	0.6525	0.024
Mof_N 	N 	0.08458	0.85609	0.72615	-0.14
Mof_C 	C 	0.0384	0.977	0.6758	-0.039
Mof_H 	H 	0.0512	0.9898	0.6639	0.022
Mof_H 	H 	0.0178	0.9817	0.6709	0.021
Mof_C 	C 	0.1314	0.8932	0.6553	-0.043
Mof_H 	H 	0.139	0.8834	0.6731	0.024
Mof_H 	H 	0.1265	0.9137	0.6606	0.023
Mof_H 	H 	0.121	0.8366	0.6538	0.024
Mof_C 	C 	0.1099	0.8728	0.7354	-0.043
Mof_H 	H 	0.1042	0.8935	0.7386	0.022
Mof_H 	H 	0.125	0.8722	0.7199	0.022
Mof_C 	C 	0.0624	0.8562	0.7505	-0.051
Mof_H 	H 	0.0449	0.8449	0.7445	0.026
Mof_H 	H 	0.0562	0.8766	0.7547	0.027
Mof_C 	C 	0.0926	0.8255	0.722	-0.034
Mof_H 	H 	0.1068	0.824	0.7056	0.019
Mof_H 	H 	0.0749	0.8141	0.7166	0.021
Mof_H 	H 	0.6611	0.064	0.1264	0.024
Mof_H 	H 	0.7144	0.0604	0.0976	0.023
Mof_H 	H 	0.7454	0.967	0.0295	0.023
Mof_H 	H 	0.71	0.9206	0.0151	0.022
Mof_C 	C 	0.7052	0.9443	0.0817	-0.046
Mof_H 	H 	0.7234	0.9348	0.0889	0.025
Mof_H 	H 	0.6904	0.9432	0.0975	0.024
Mof_N 	N 	0.66542	0.85609	0.02385	-0.14
Mof_C 	C 	0.7116	0.977	0.0742	-0.039
Mof_H 	H 	0.6988	0.9898	0.0861	0.022
Mof_H 	H 	0.7322	0.9817	0.0791	0.021
Mof_C 	C 	0.6186	0.8932	0.0947	-0.043
Mof_H 	H 	0.611	0.8834	0.0769	0.024
Mof_H 	H 	0.6235	0.9137	0.0894	0.023
Mof_H 	H 	0.629	0.8366	0.0962	0.024
Mof_C 	C 	0.6401	0.8728	0.0146	-0.043
Mof_H 	H 	0.6458	0.8935	0.0114	0.022
Mof_H 	H 	0.625	0.8722	0.0301	0.022
Mof_C 	C 	0.6876	0.8562	0.9995	-0.051
Mof_H 	H 	0.7051	0.8449	0.0055	0.026
Mof_H 	H 	0.6938	0.8766	0.9953	0.027
Mof_C 	C 	0.6574	0.8255	0.028	-0.034
Mof_H 	H 	0.6432	0.824	0.0444	0.019
Mof_H 	H 	0.6751	0.8141	0.0334	0.021
Mof_H 	H 	0.6611	0.564	0.6264	0.024
Mof_H 	H 	0.7144	0.5604	0.5976	0.023
Mof_H 	H 	0.7454	0.467	0.5295	0.023
Mof_H 	H 	0.71	0.4206	0.5151	0.022
Mof_C 	C 	0.7052	0.4443	0.5817	-0.046
Mof_H 	H 	0.7234	0.4348	0.5889	0.025
Mof_H 	H 	0.6904	0.4432	0.5975	0.024
Mof_N 	N 	0.66542	0.35609	0.52385	-0.14
Mof_C 	C 	0.7116	0.477	0.5742	-0.039
Mof_H 	H 	0.6988	0.4898	0.5861	0.022
Mof_H 	H 	0.7322	0.4817	0.5791	0.021
Mof_C 	C 	0.6186	0.3932	0.5947	-0.043
Mof_H 	H 	0.611	0.3834	0.5769	0.024
Mof_H 	H 	0.6235	0.4137	0.5894	0.023
Mof_H 	H 	0.629	0.3366	0.5962	0.024
Mof_C 	C 	0.6401	0.3728	0.5146	-0.043
Mof_H 	H 	0.6458	0.3935	0.5114	0.022
Mof_H 	H 	0.625	0.3722	0.5301	0.022
Mof_C 	C 	0.6876	0.3562	0.4995	-0.051
Mof_H 	H 	0.7051	0.3449	0.5055	0.026
Mof_H 	H 	0.6938	0.3766	0.4953	0.027
Mof_C 	C 	0.6574	0.3255	0.528	-0.034
Mof_H 	H 	0.6432	0.324	0.5444	0.019
Mof_H 	H 	0.6751	0.3141	0.5334	0.021
Mof_H 	H 	0.1611	0.064	0.6264	0.024
Mof_H 	H 	0.2144	0.0604	0.5976	0.023
Mof_H 	H 	0.2454	0.967	0.5295	0.023
Mof_H 	H 	0.21	0.9206	0.5151	0.022
Mof_C 	C 	0.2052	0.9443	0.5817	-0.046
Mof_H 	H 	0.2234	0.9348	0.5889	0.025
Mof_H 	H 	0.1904	0.9432	0.5975	0.024
Mof_N 	N 	0.16542	0.85609	0.52385	-0.14
Mof_C 	C 	0.2116	0.977	0.5742	-0.039
Mof_H 	H 	0.1988	0.9898	0.5861	0.022
Mof_H 	H 	0.2322	0.9817	0.5791	0.021
Mof_C 	C 	0.1186	0.8932	0.5947	-0.043
Mof_H 	H 	0.111	0.8834	0.5769	0.024
Mof_H 	H 	0.1235	0.9137	0.5894	0.023
Mof_H 	H 	0.129	0.8366	0.5962	0.024
Mof_C 	C 	0.1401	0.8728	0.5146	-0.043
Mof_H 	H 	0.1458	0.8935	0.5114	0.022
Mof_H 	H 	0.125	0.8722	0.5301	0.022
Mof_C 	C 	0.1876	0.8562	0.4995	-0.051
Mof_H 	H 	0.2051	0.8449	0.5055	0.026
Mof_H 	H 	0.1938	0.8766	0.4953	0.027
Mof_C 	C 	0.1574	0.8255	0.528	-0.034
Mof_H 	H 	0.1432	0.824	0.5444	0.019
Mof_H 	H 	0.1751	0.8141	0.5334	0.021
Mof_H 	H 	0.1611	0.564	0.1264	0.024
Mof_H 	H 	0.2144	0.5604	0.0976	0.023
Mof_H 	H 	0.2454	0.467	0.0295	0.023
Mof_H 	H 	0.21	0.4206	0.0151	0.022
Mof_C 	C 	0.2052	0.4443	0.0817	-0.046
Mof_H 	H 	0.2234	0.4348	0.0889	0.025
Mof_H 	H 	0.1904	0.4432	0.0975	0.024
Mof_N 	N 	0.16542	0.35609	0.02385	-0.14
Mof_C 	C 	0.2116	0.477	0.0742	-0.039
Mof_H 	H 	0.1988	0.4898	0.0861	0.022
Mof_H 	H 	0.2322	0.4817	0.0791	0.021
Mof_C 	C 	0.1186	0.3932	0.0947	-0.043
Mof_H 	H 	0.111	0.3834	0.0769	0.024
Mof_H 	H 	0.1235	0.4137	0.0894	0.023
Mof_H 	H 	0.129	0.3366	0.0962	0.024
Mof_C 	C 	0.1401	0.3728	0.0146	-0.043
Mof_H 	H 	0.1458	0.3935	0.0114	0.022
Mof_H 	H 	0.125	0.3722	0.0301	0.022
Mof_C 	C 	0.1876	0.3562	0.9995	-0.051
Mof_H 	H 	0.2051	0.3449	0.0055	0.026
Mof_H 	H 	0.1938	0.3766	0.9953	0.027
Mof_C 	C 	0.1574	0.3255	0.028	-0.034
Mof_H 	H 	0.1432	0.324	0.0444	0.019
Mof_H 	H 	0.1751	0.3141	0.0334	0.021
Mof_H 	H 	0.1611	0.686	0.1236	0.024
Mof_H 	H 	0.2144	0.6896	0.1524	0.023
Mof_H 	H 	0.2454	0.783	0.2205	0.023
Mof_H 	H 	0.21	0.8294	0.2349	0.022
Mof_C 	C 	0.2052	0.8057	0.1683	-0.046
Mof_H 	H 	0.2234	0.8152	0.1611	0.025
Mof_H 	H 	0.1904	0.8068	0.1525	0.024
Mof_N 	N 	0.16542	0.89391	0.22615	-0.14
Mof_C 	C 	0.2116	0.773	0.1758	-0.039
Mof_H 	H 	0.1988	0.7602	0.1639	0.022
Mof_H 	H 	0.2322	0.7683	0.1709	0.021
Mof_C 	C 	0.1186	0.8568	0.1553	-0.043
Mof_H 	H 	0.111	0.8666	0.1731	0.024
Mof_H 	H 	0.1235	0.8363	0.1606	0.023
Mof_H 	H 	0.129	0.9134	0.1538	0.024
Mof_C 	C 	0.1401	0.8772	0.2354	-0.043
Mof_H 	H 	0.1458	0.8565	0.2386	0.022
Mof_H 	H 	0.125	0.8778	0.2199	0.022
Mof_C 	C 	0.1876	0.8938	0.2505	-0.051
Mof_H 	H 	0.2051	0.9051	0.2445	0.026
Mof_H 	H 	0.1938	0.8734	0.2547	0.027
Mof_C 	C 	0.1574	0.9245	0.222	-0.034
Mof_H 	H 	0.1432	0.926	0.2056	0.019
Mof_H 	H 	0.1751	0.9359	0.2166	0.021
Mof_H 	H 	0.1611	0.186	0.6236	0.024
Mof_H 	H 	0.2144	0.1896	0.6524	0.023
Mof_H 	H 	0.2454	0.283	0.7205	0.023
Mof_H 	H 	0.21	0.3294	0.7349	0.022
Mof_C 	C 	0.2052	0.3057	0.6683	-0.046
Mof_H 	H 	0.2234	0.3152	0.6611	0.025
Mof_H 	H 	0.1904	0.3068	0.6525	0.024
Mof_N 	N 	0.16542	0.39391	0.72615	-0.14
Mof_C 	C 	0.2116	0.273	0.6758	-0.039
Mof_H 	H 	0.1988	0.2602	0.6639	0.022
Mof_H 	H 	0.2322	0.2683	0.6709	0.021
Mof_C 	C 	0.1186	0.3568	0.6553	-0.043
Mof_H 	H 	0.111	0.3666	0.6731	0.024
Mof_H 	H 	0.1235	0.3363	0.6606	0.023
Mof_H 	H 	0.129	0.4134	0.6538	0.024
Mof_C 	C 	0.1401	0.3772	0.7354	-0.043
Mof_H 	H 	0.1458	0.3565	0.7386	0.022
Mof_H 	H 	0.125	0.3778	0.7199	0.022
Mof_C 	C 	0.1876	0.3938	0.7505	-0.051
Mof_H 	H 	0.2051	0.4051	0.7445	0.026
Mof_H 	H 	0.1938	0.3734	0.7547	0.027
Mof_C 	C 	0.1574	0.4245	0.722	-0.034
Mof_H 	H 	0.1432	0.426	0.7056	0.019
Mof_H 	H 	0.1751	0.4359	0.7166	0.021
Mof_H 	H 	0.6611	0.686	0.6236	0.024
Mof_H 	H 	0.7144	0.6896	0.6524	0.023
Mof_H 	H 	0.7454	0.783	0.7205	0.023
Mof_H 	H 	0.71	0.8294	0.7349	0.022
Mof_C 	C 	0.7052	0.8057	0.6683	-0.046
Mof_H 	H 	0.7234	0.8152	0.6611	0.025
Mof_H 	H 	0.6904	0.8068	0.6525	0.024
Mof_N 	N 	0.66542	0.89391	0.72615	-0.14
Mof_C 	C 	0.7116	0.773	0.6758	-0.039
Mof_H 	H 	0.6988	0.7602	0.6639	0.022
Mof_H 	H 	0.7322	0.7683	0.6709	0.021
Mof_C 	C 	0.6186	0.8568	0.6553	-0.043
Mof_H 	H 	0.611	0.8666	0.6731	0.024
Mof_H 	H 	0.6235	0.8363	0.6606	0.023
Mof_H 	H 	0.629	0.9134	0.6538	0.024
Mof_C 	C 	0.6401	0.8772	0.7354	-0.043
Mof_H 	H 	0.6458	0.8565	0.7386	0.022
Mof_H 	H 	0.625	0.8778	0.7199	0.022
Mof_C 	C 	0.6876	0.8938	0.7505	-0.051
Mof_H 	H 	0.7051	0.9051	0.7445	0.026
Mof_H 	H 	0.6938	0.8734	0.7547	0.027
Mof_C 	C 	0.6574	0.9245	0.722	-0.034
Mof_H 	H 	0.6432	0.926	0.7056	0.019
Mof_H 	H 	0.6751	0.9359	0.7166	0.021
Mof_H 	H 	0.6611	0.186	0.1236	0.024
Mof_H 	H 	0.7144	0.1896	0.1524	0.023
Mof_H 	H 	0.7454	0.283	0.2205	0.023
Mof_H 	H 	0.71	0.3294	0.2349	0.022
Mof_C 	C 	0.7052	0.3057	0.1683	-0.046
Mof_H 	H 	0.7234	0.3152	0.1611	0.025
Mof_H 	H 	0.6904	0.3068	0.1525	0.024
Mof_N 	N 	0.66542	0.39391	0.22615	-0.14
Mof_C 	C 	0.7116	0.273	0.1758	-0.039
Mof_H 	H 	0.6988	0.2602	0.1639	0.022
Mof_H 	H 	0.7322	0.2683	0.1709	0.021
Mof_C 	C 	0.6186	0.3568	0.1553	-0.043
Mof_H 	H 	0.611	0.3666	0.1731	0.024
Mof_H 	H 	0.6235	0.3363	0.1606	0.023
Mof_H 	H 	0.629	0.4134	0.1538	0.024
Mof_C 	C 	0.6401	0.3772	0.2354	-0.043
Mof_H 	H 	0.6458	0.3565	0.2386	0.022
Mof_H 	H 	0.625	0.3778	0.2199	0.022
Mof_C 	C 	0.6876	0.3938	0.2505	-0.051
Mof_H 	H 	0.7051	0.4051	0.2445	0.026
Mof_H 	H 	0.6938	0.3734	0.2547	0.027
Mof_C 	C 	0.6574	0.4245	0.222	-0.034
Mof_H 	H 	0.6432	0.426	0.2056	0.019
Mof_H 	H 	0.6751	0.4359	0.2166	0.021
Mof_H 	H 	0.6264	0.0889	0.186	0.024
Mof_H 	H 	0.5976	0.0356	0.1896	0.023
Mof_H 	H 	0.5295	0.0046	0.283	0.023
Mof_H 	H 	0.5151	0.04	0.3294	0.022
Mof_C 	C 	0.5817	0.0448	0.3057	-0.046
Mof_H 	H 	0.5889	0.0266	0.3152	0.025
Mof_H 	H 	0.5975	0.0596	0.3068	0.024
Mof_N 	N 	0.52385	0.08458	0.39391	-0.14
Mof_C 	C 	0.5742	0.0384	0.273	-0.039
Mof_H 	H 	0.5861	0.0512	0.2602	0.022
Mof_H 	H 	0.5791	0.0178	0.2683	0.021
Mof_C 	C 	0.5947	0.1314	0.3568	-0.043
Mof_H 	H 	0.5769	0.139	0.3666	0.024
Mof_H 	H 	0.5894	0.1265	0.3363	0.023
Mof_H 	H 	0.5962	0.121	0.4134	0.024
Mof_C 	C 	0.5146	0.1099	0.3772	-0.043
Mof_H 	H 	0.5114	0.1042	0.3565	0.022
Mof_H 	H 	0.5301	0.125	0.3778	0.022
Mof_C 	C 	0.4995	0.0624	0.3938	-0.051
Mof_H 	H 	0.5055	0.0449	0.4051	0.026
Mof_H 	H 	0.4953	0.0562	0.3734	0.027
Mof_C 	C 	0.528	0.0926	0.4245	-0.034
Mof_H 	H 	0.5444	0.1068	0.426	0.019
Mof_H 	H 	0.5334	0.0749	0.4359	0.021
Mof_H 	H 	0.6264	0.5889	0.686	0.024
Mof_H 	H 	0.5976	0.5356	0.6896	0.023
Mof_H 	H 	0.5295	0.5046	0.783	0.023
Mof_H 	H 	0.5151	0.54	0.8294	0.022
Mof_C 	C 	0.5817	0.5448	0.8057	-0.046
Mof_H 	H 	0.5889	0.5266	0.8152	0.025
Mof_H 	H 	0.5975	0.5596	0.8068	0.024
Mof_N 	N 	0.52385	0.58458	0.89391	-0.14
Mof_C 	C 	0.5742	0.5384	0.773	-0.04
Mof_H 	H 	0.5861	0.5512	0.7602	0.021
Mof_H 	H 	0.5791	0.5178	0.7683	0.02
Mof_C 	C 	0.5947	0.6314	0.8568	-0.044
Mof_H 	H 	0.5769	0.639	0.8666	0.023
Mof_H 	H 	0.5894	0.6265	0.8363	0.022
Mof_H 	H 	0.5962	0.621	0.9134	0.023
Mof_C 	C 	0.5146	0.6099	0.8772	-0.044
Mof_H 	H 	0.5114	0.6042	0.8565	0.021
Mof_H 	H 	0.5301	0.625	0.8778	0.021
Mof_C 	C 	0.4995	0.5624	0.8938	-0.052
Mof_H 	H 	0.5055	0.5449	0.9051	0.025
Mof_H 	H 	0.4953	0.5562	0.8734	0.026
Mof_C 	C 	0.528	0.5926	0.9245	-0.035
Mof_H 	H 	0.5444	0.6068	0.926	0.018
Mof_H 	H 	0.5334	0.5749	0.9359	0.02
Mof_H 	H 	0.1264	0.0889	0.686	0.023
Mof_H 	H 	0.0976	0.0356	0.6896	0.022
Mof_H 	H 	0.0295	0.0046	0.783	0.022
Mof_H 	H 	0.0151	0.04	0.8294	0.021
Mof_C 	C 	0.0817	0.0448	0.8057	-0.047
Mof_H 	H 	0.0889	0.0266	0.8152	0.024
Mof_H 	H 	0.0975	0.0596	0.8068	0.023
Mof_N 	N 	0.02385	0.08458	0.89391	-0.141
Mof_C 	C 	0.0742	0.0384	0.773	-0.04
Mof_H 	H 	0.0861	0.0512	0.7602	0.021
Mof_H 	H 	0.0791	0.0178	0.7683	0.02
Mof_C 	C 	0.0947	0.1314	0.8568	-0.044
Mof_H 	H 	0.0769	0.139	0.8666	0.023
Mof_H 	H 	0.0894	0.1265	0.8363	0.022
Mof_H 	H 	0.0962	0.121	0.9134	0.023
Mof_C 	C 	0.0146	0.1099	0.8772	-0.044
Mof_H 	H 	0.0114	0.1042	0.8565	0.021
Mof_H 	H 	0.0301	0.125	0.8778	0.021
Mof_C 	C 	0.9995	0.0624	0.8938	-0.052
Mof_H 	H 	0.0055	0.0449	0.9051	0.025
Mof_H 	H 	0.9953	0.0562	0.8734	0.026
Mof_C 	C 	0.028	0.0926	0.9245	-0.035
Mof_H 	H 	0.0444	0.1068	0.926	0.018
Mof_H 	H 	0.0334	0.0749	0.9359	0.02
Mof_H 	H 	0.1264	0.5889	0.186	0.023
Mof_H 	H 	0.0976	0.5356	0.1896	0.022
Mof_H 	H 	0.0295	0.5046	0.283	0.022
Mof_H 	H 	0.0151	0.54	0.3294	0.021
Mof_C 	C 	0.0817	0.5448	0.3057	-0.047
Mof_H 	H 	0.0889	0.5266	0.3152	0.024
Mof_H 	H 	0.0975	0.5596	0.3068	0.023
Mof_N 	N 	0.02385	0.58458	0.39391	-0.141
Mof_C 	C 	0.0742	0.5384	0.273	-0.04
Mof_H 	H 	0.0861	0.5512	0.2602	0.021
Mof_H 	H 	0.0791	0.5178	0.2683	0.02
Mof_C 	C 	0.0947	0.6314	0.3568	-0.044
Mof_H 	H 	0.0769	0.639	0.3666	0.023
Mof_H 	H 	0.0894	0.6265	0.3363	0.022
Mof_H 	H 	0.0962	0.621	0.4134	0.023
Mof_C 	C 	0.0146	0.6099	0.3772	-0.044
Mof_H 	H 	0.0114	0.6042	0.3565	0.021
Mof_H 	H 	0.0301	0.625	0.3778	0.021
Mof_C 	C 	0.9995	0.5624	0.3938	-0.052
Mof_H 	H 	0.0055	0.5449	0.4051	0.025
Mof_H 	H 	0.9953	0.5562	0.3734	0.026
Mof_C 	C 	0.028	0.5926	0.4245	-0.035
Mof_H 	H 	0.0444	0.6068	0.426	0.018
Mof_H 	H 	0.0334	0.5749	0.4359	0.02
Mof_H 	H 	0.6236	0.5889	0.564	0.023
Mof_H 	H 	0.6524	0.5356	0.5604	0.022
Mof_H 	H 	0.7205	0.5046	0.467	0.022
Mof_H 	H 	0.7349	0.54	0.4206	0.021
Mof_C 	C 	0.6683	0.5448	0.4443	-0.047
Mof_H 	H 	0.6611	0.5266	0.4348	0.024
Mof_H 	H 	0.6525	0.5596	0.4432	0.023
Mof_N 	N 	0.72615	0.58458	0.35609	-0.141
Mof_C 	C 	0.6758	0.5384	0.477	-0.04
Mof_H 	H 	0.6639	0.5512	0.4898	0.021
Mof_H 	H 	0.6709	0.5178	0.4817	0.02
Mof_C 	C 	0.6553	0.6314	0.3932	-0.044
Mof_H 	H 	0.6731	0.639	0.3834	0.023
Mof_H 	H 	0.6606	0.6265	0.4137	0.022
Mof_H 	H 	0.6538	0.621	0.3366	0.023
Mof_C 	C 	0.7354	0.6099	0.3728	-0.044
Mof_H 	H 	0.7386	0.6042	0.3935	0.021
Mof_H 	H 	0.7199	0.625	0.3722	0.021
Mof_C 	C 	0.7505	0.5624	0.3562	-0.052
Mof_H 	H 	0.7445	0.5449	0.3449	0.025
Mof_H 	H 	0.7547	0.5562	0.3766	0.026
Mof_C 	C 	0.722	0.5926	0.3255	-0.035
Mof_H 	H 	0.7056	0.6068	0.324	0.018
Mof_H 	H 	0.7166	0.5749	0.3141	0.02
Mof_H 	H 	0.6236	0.0889	0.064	0.023
Mof_H 	H 	0.6524	0.0356	0.0604	0.022
Mof_H 	H 	0.7205	0.0046	0.967	0.022
Mof_H 	H 	0.7349	0.04	0.9206	0.021
Mof_C 	C 	0.6683	0.0448	0.9443	-0.047
Mof_H 	H 	0.6611	0.0266	0.9348	0.024
Mof_H 	H 	0.6525	0.0596	0.9432	0.023
Mof_N 	N 	0.72615	0.08458	0.85609	-0.141
Mof_C 	C 	0.6758	0.0384	0.977	-0.04
Mof_H 	H 	0.6639	0.0512	0.9898	0.021
Mof_H 	H 	0.6709	0.0178	0.9817	0.02
Mof_C 	C 	0.6553	0.1314	0.8932	-0.044
Mof_H 	H 	0.6731	0.139	0.8834	0.023
Mof_H 	H 	0.6606	0.1265	0.9137	0.022
Mof_H 	H 	0.6538	0.121	0.8366	0.023
Mof_C 	C 	0.7354	0.1099	0.8728	-0.044
Mof_H 	H 	0.7386	0.1042	0.8935	0.021
Mof_H 	H 	0.7199	0.125	0.8722	0.021
Mof_C 	C 	0.7505	0.0624	0.8562	-0.052
Mof_H 	H 	0.7445	0.0449	0.8449	0.025
Mof_H 	H 	0.7547	0.0562	0.8766	0.026
Mof_C 	C 	0.722	0.0926	0.8255	-0.035
Mof_H 	H 	0.7056	0.1068	0.824	0.018
Mof_H 	H 	0.7166	0.0749	0.8141	0.02
Mof_H 	H 	0.1236	0.5889	0.064	0.023
Mof_H 	H 	0.1524	0.5356	0.0604	0.022
Mof_H 	H 	0.2205	0.5046	0.967	0.022
Mof_H 	H 	0.2349	0.54	0.9206	0.021
Mof_C 	C 	0.1683	0.5448	0.9443	-0.047
Mof_H 	H 	0.1611	0.5266	0.9348	0.024
Mof_H 	H 	0.1525	0.5596	0.9432	0.023
Mof_N 	N 	0.22615	0.58458	0.85609	-0.141
Mof_C 	C 	0.1758	0.5384	0.977	-0.04
Mof_H 	H 	0.1639	0.5512	0.9898	0.021
Mof_H 	H 	0.1709	0.5178	0.9817	0.02
Mof_C 	C 	0.1553	0.6314	0.8932	-0.044
Mof_H 	H 	0.1731	0.639	0.8834	0.023
Mof_H 	H 	0.1606	0.6265	0.9137	0.022
Mof_H 	H 	0.1538	0.621	0.8366	0.023
Mof_C 	C 	0.2354	0.6099	0.8728	-0.044
Mof_H 	H 	0.2386	0.6042	0.8935	0.021
Mof_H 	H 	0.2199	0.625	0.8722	0.021
Mof_C 	C 	0.2505	0.5624	0.8562	-0.052
Mof_H 	H 	0.2445	0.5449	0.8449	0.025
Mof_H 	H 	0.2547	0.5562	0.8766	0.026
Mof_C 	C 	0.222	0.5926	0.8255	-0.035
Mof_H 	H 	0.2056	0.6068	0.824	0.018
Mof_H 	H 	0.2166	0.5749	0.8141	0.02
Mof_H 	H 	0.1236	0.0889	0.564	0.023
Mof_H 	H 	0.1524	0.0356	0.5604	0.022
Mof_H 	H 	0.2205	0.0046	0.467	0.022
Mof_H 	H 	0.2349	0.04	0.4206	0.021
Mof_C 	C 	0.1683	0.0448	0.4443	-0.047
Mof_H 	H 	0.1611	0.0266	0.4348	0.024
Mof_H 	H 	0.1525	0.0596	0.4432	0.023
Mof_N 	N 	0.22615	0.08458	0.35609	-0.141
Mof_C 	C 	0.1758	0.0384	0.477	-0.04
Mof_H 	H 	0.1639	0.0512	0.4898	0.021
Mof_H 	H 	0.1709	0.0178	0.4817	0.02
Mof_C 	C 	0.1553	0.1314	0.3932	-0.044
Mof_H 	H 	0.1731	0.139	0.3834	0.023
Mof_H 	H 	0.1606	0.1265	0.4137	0.022
Mof_H 	H 	0.1538	0.121	0.3366	0.023
Mof_C 	C 	0.2354	0.1099	0.3728	-0.044
Mof_H 	H 	0.2386	0.1042	0.3935	0.021
Mof_H 	H 	0.2199	0.125	0.3722	0.021
Mof_C 	C 	0.2505	0.0624	0.3562	-0.052
Mof_H 	H 	0.2445	0.0449	0.3449	0.025
Mof_H 	H 	0.2547	0.0562	0.3766	0.026
Mof_C 	C 	0.222	0.0926	0.3255	-0.035
Mof_H 	H 	0.2056	0.1068	0.324	0.018
Mof_H 	H 	0.2166	0.0749	0.3141	0.02
Mof_H 	H 	0.1264	0.6611	0.064	0.023
Mof_H 	H 	0.0976	0.7144	0.0604	0.022
Mof_H 	H 	0.0295	0.7454	0.967	0.022
Mof_H 	H 	0.0151	0.71	0.9206	0.021
Mof_C 	C 	0.0817	0.7052	0.9443	-0.047
Mof_H 	H 	0.0889	0.7234	0.9348	0.024
Mof_H 	H 	0.0975	0.6904	0.9432	0.023
Mof_N 	N 	0.02385	0.66542	0.85609	-0.141
Mof_C 	C 	0.0742	0.7116	0.977	-0.04
Mof_H 	H 	0.0861	0.6988	0.9898	0.021
Mof_H 	H 	0.0791	0.7322	0.9817	0.02
Mof_C 	C 	0.0947	0.6186	0.8932	-0.044
Mof_H 	H 	0.0769	0.611	0.8834	0.023
Mof_H 	H 	0.0894	0.6235	0.9137	0.022
Mof_H 	H 	0.0962	0.629	0.8366	0.023
Mof_C 	C 	0.0146	0.6401	0.8728	-0.044
Mof_H 	H 	0.0114	0.6458	0.8935	0.021
Mof_H 	H 	0.0301	0.625	0.8722	0.021
Mof_C 	C 	0.9995	0.6876	0.8562	-0.052
Mof_H 	H 	0.0055	0.7051	0.8449	0.025
Mof_H 	H 	0.9953	0.6938	0.8766	0.026
Mof_C 	C 	0.028	0.6574	0.8255	-0.035
Mof_H 	H 	0.0444	0.6432	0.824	0.018
Mof_H 	H 	0.0334	0.6751	0.8141	0.02
Mof_H 	H 	0.1264	0.1611	0.564	0.023
Mof_H 	H 	0.0976	0.2144	0.5604	0.022
Mof_H 	H 	0.0295	0.2454	0.467	0.022
Mof_H 	H 	0.0151	0.21	0.4206	0.021
Mof_C 	C 	0.0817	0.2052	0.4443	-0.047
Mof_H 	H 	0.0889	0.2234	0.4348	0.024
Mof_H 	H 	0.0975	0.1904	0.4432	0.023
Mof_N 	N 	0.02385	0.16542	0.35609	-0.141
Mof_C 	C 	0.0742	0.2116	0.477	-0.04
Mof_H 	H 	0.0861	0.1988	0.4898	0.021
Mof_H 	H 	0.0791	0.2322	0.4817	0.02
Mof_C 	C 	0.0947	0.1186	0.3932	-0.044
Mof_H 	H 	0.0769	0.111	0.3834	0.023
Mof_H 	H 	0.0894	0.1235	0.4137	0.022
Mof_H 	H 	0.0962	0.129	0.3366	0.023
Mof_C 	C 	0.0146	0.1401	0.3728	-0.044
Mof_H 	H 	0.0114	0.1458	0.3935	0.021
Mof_H 	H 	0.0301	0.125	0.3722	0.021
Mof_C 	C 	0.9995	0.1876	0.3562	-0.052
Mof_H 	H 	0.0055	0.2051	0.3449	0.025
Mof_H 	H 	0.9953	0.1938	0.3766	0.026
Mof_C 	C 	0.028	0.1574	0.3255	-0.035
Mof_H 	H 	0.0444	0.1432	0.324	0.018
Mof_H 	H 	0.0334	0.1751	0.3141	0.02
Mof_H 	H 	0.6264	0.6611	0.564	0.023
Mof_H 	H 	0.5976	0.7144	0.5604	0.022
Mof_H 	H 	0.5295	0.7454	0.467	0.022
Mof_H 	H 	0.5151	0.71	0.4206	0.021
Mof_C 	C 	0.5817	0.7052	0.4443	-0.047
Mof_H 	H 	0.5889	0.7234	0.4348	0.024
Mof_H 	H 	0.5975	0.6904	0.4432	0.023
Mof_N 	N 	0.52385	0.66542	0.35609	-0.141
Mof_C 	C 	0.5742	0.7116	0.477	-0.04
Mof_H 	H 	0.5861	0.6988	0.4898	0.021
Mof_H 	H 	0.5791	0.7322	0.4817	0.02
Mof_C 	C 	0.5947	0.6186	0.3932	-0.044
Mof_H 	H 	0.5769	0.611	0.3834	0.023
Mof_H 	H 	0.5894	0.6235	0.4137	0.022
Mof_H 	H 	0.5962	0.629	0.3366	0.023
Mof_C 	C 	0.5146	0.6401	0.3728	-0.044
Mof_H 	H 	0.5114	0.6458	0.3935	0.021
Mof_H 	H 	0.5301	0.625	0.3722	0.021
Mof_C 	C 	0.4995	0.6876	0.3562	-0.052
Mof_H 	H 	0.5055	0.7051	0.3449	0.025
Mof_H 	H 	0.4953	0.6938	0.3766	0.026
Mof_C 	C 	0.528	0.6574	0.3255	-0.035
Mof_H 	H 	0.5444	0.6432	0.324	0.018
Mof_H 	H 	0.5334	0.6751	0.3141	0.02
Mof_H 	H 	0.6264	0.1611	0.064	0.023
Mof_H 	H 	0.5976	0.2144	0.0604	0.022
Mof_H 	H 	0.5295	0.2454	0.967	0.022
Mof_H 	H 	0.5151	0.21	0.9206	0.021
Mof_C 	C 	0.5817	0.2052	0.9443	-0.047
Mof_H 	H 	0.5889	0.2234	0.9348	0.024
Mof_H 	H 	0.5975	0.1904	0.9432	0.023
Mof_N 	N 	0.52385	0.16542	0.85609	-0.141
Mof_C 	C 	0.5742	0.2116	0.977	-0.04
Mof_H 	H 	0.5861	0.1988	0.9898	0.021
Mof_H 	H 	0.5791	0.2322	0.9817	0.02
Mof_C 	C 	0.5947	0.1186	0.8932	-0.044
Mof_H 	H 	0.5769	0.111	0.8834	0.023
Mof_H 	H 	0.5894	0.1235	0.9137	0.022
Mof_H 	H 	0.5962	0.129	0.8366	0.023
Mof_C 	C 	0.5146	0.1401	0.8728	-0.044
Mof_H 	H 	0.5114	0.1458	0.8935	0.021
Mof_H 	H 	0.5301	0.125	0.8722	0.021
Mof_C 	C 	0.4995	0.1876	0.8562	-0.052
Mof_H 	H 	0.5055	0.2051	0.8449	0.025
Mof_H 	H 	0.4953	0.1938	0.8766	0.026
Mof_C 	C 	0.528	0.1574	0.8255	-0.035
Mof_H 	H 	0.5444	0.1432	0.824	0.018
Mof_H 	H 	0.5334	0.1751	0.8141	0.02
Mof_H 	H 	0.1236	0.1611	0.686	0.023
Mof_H 	H 	0.1524	0.2144	0.6896	0.022
Mof_H 	H 	0.2205	0.2454	0.783	0.022
Mof_H 	H 	0.2349	0.21	0.8294	0.021
Mof_C 	C 	0.1683	0.2052	0.8057	-0.047
Mof_H 	H 	0.1611	0.2234	0.8152	0.024
Mof_H 	H 	0.1525	0.1904	0.8068	0.023
Mof_N 	N 	0.22615	0.16542	0.89391	-0.141
Mof_C 	C 	0.1758	0.2116	0.773	-0.04
Mof_H 	H 	0.1639	0.1988	0.7602	0.021
Mof_H 	H 	0.1709	0.2322	0.7683	0.02
Mof_C 	C 	0.1553	0.1186	0.8568	-0.044
Mof_H 	H 	0.1731	0.111	0.8666	0.023
Mof_H 	H 	0.1606	0.1235	0.8363	0.022
Mof_H 	H 	0.1538	0.129	0.9134	0.023
Mof_C 	C 	0.2354	0.1401	0.8772	-0.044
Mof_H 	H 	0.2386	0.1458	0.8565	0.021
Mof_H 	H 	0.2199	0.125	0.8778	0.021
Mof_C 	C 	0.2505	0.1876	0.8938	-0.052
Mof_H 	H 	0.2445	0.2051	0.9051	0.025
Mof_H 	H 	0.2547	0.1938	0.8734	0.026
Mof_C 	C 	0.222	0.1574	0.9245	-0.035
Mof_H 	H 	0.2056	0.1432	0.926	0.018
Mof_H 	H 	0.2166	0.1751	0.9359	0.02
Mof_H 	H 	0.1236	0.6611	0.186	0.023
Mof_H 	H 	0.1524	0.7144	0.1896	0.022
Mof_H 	H 	0.2205	0.7454	0.283	0.022
Mof_H 	H 	0.2349	0.71	0.3294	0.021
Mof_C 	C 	0.1683	0.7052	0.3057	-0.047
Mof_H 	H 	0.1611	0.7234	0.3152	0.024
Mof_H 	H 	0.1525	0.6904	0.3068	0.023
Mof_N 	N 	0.22615	0.66542	0.39391	-0.141
Mof_C 	C 	0.1758	0.7116	0.273	-0.04
Mof_H 	H 	0.1639	0.6988	0.2602	0.021
Mof_H 	H 	0.1709	0.7322	0.2683	0.02
Mof_C 	C 	0.1553	0.6186	0.3568	-0.044
Mof_H 	H 	0.1731	0.611	0.3666	0.023
Mof_H 	H 	0.1606	0.6235	0.3363	0.022
Mof_H 	H 	0.1538	0.629	0.4134	0.023
Mof_C 	C 	0.2354	0.6401	0.3772	-0.044
Mof_H 	H 	0.2386	0.6458	0.3565	0.021
Mof_H 	H 	0.2199	0.625	0.3778	0.021
Mof_C 	C 	0.2505	0.6876	0.3938	-0.052
Mof_H 	H 	0.2445	0.7051	0.4051	0.025
Mof_H 	H 	0.2547	0.6938	0.3734	0.026
Mof_C 	C 	0.222	0.6574	0.4245	-0.035
Mof_H 	H 	0.2056	0.6432	0.426	0.018
Mof_H 	H 	0.2166	0.6751	0.4359	0.02
Mof_H 	H 	0.6236	0.1611	0.186	0.023
Mof_H 	H 	0.6524	0.2144	0.1896	0.022
Mof_H 	H 	0.7205	0.2454	0.283	0.022
Mof_H 	H 	0.7349	0.21	0.3294	0.021
Mof_C 	C 	0.6683	0.2052	0.3057	-0.047
Mof_H 	H 	0.6611	0.2234	0.3152	0.024
Mof_H 	H 	0.6525	0.1904	0.3068	0.023
Mof_N 	N 	0.72615	0.16542	0.39391	-0.141
Mof_C 	C 	0.6758	0.2116	0.273	-0.04
Mof_H 	H 	0.6639	0.1988	0.2602	0.021
Mof_H 	H 	0.6709	0.2322	0.2683	0.02
Mof_C 	C 	0.6553	0.1186	0.3568	-0.044
Mof_H 	H 	0.6731	0.111	0.3666	0.023
Mof_H 	H 	0.6606	0.1235	0.3363	0.022
Mof_H 	H 	0.6538	0.129	0.4134	0.023
Mof_C 	C 	0.7354	0.1401	0.3772	-0.044
Mof_H 	H 	0.7386	0.1458	0.3565	0.021
Mof_H 	H 	0.7199	0.125	0.3778	0.021
Mof_C 	C 	0.7505	0.1876	0.3938	-0.052
Mof_H 	H 	0.7445	0.2051	0.4051	0.025
Mof_H 	H 	0.7547	0.1938	0.3734	0.026
Mof_C 	C 	0.722	0.1574	0.4245	-0.035
Mof_H 	H 	0.7056	0.1432	0.426	0.018
Mof_H 	H 	0.7166	0.1751	0.4359	0.02
Mof_H 	H 	0.6236	0.6611	0.686	0.023
Mof_H 	H 	0.6524	0.7144	0.6896	0.022
Mof_H 	H 	0.7205	0.7454	0.783	0.022
Mof_H 	H 	0.7349	0.71	0.8294	0.021
Mof_C 	C 	0.6683	0.7052	0.8057	-0.047
Mof_H 	H 	0.6611	0.7234	0.8152	0.024
Mof_H 	H 	0.6525	0.6904	0.8068	0.023
Mof_N 	N 	0.72615	0.66542	0.89391	-0.141
Mof_C 	C 	0.6758	0.7116	0.773	-0.04
Mof_H 	H 	0.6639	0.6988	0.7602	0.021
Mof_H 	H 	0.6709	0.7322	0.7683	0.02
Mof_C 	C 	0.6553	0.6186	0.8568	-0.044
Mof_H 	H 	0.6731	0.611	0.8666	0.023
Mof_H 	H 	0.6606	0.6235	0.8363	0.022
Mof_H 	H 	0.6538	0.629	0.9134	0.023
Mof_C 	C 	0.7354	0.6401	0.8772	-0.044
Mof_H 	H 	0.7386	0.6458	0.8565	0.021
Mof_H 	H 	0.7199	0.625	0.8778	0.021
Mof_C 	C 	0.7505	0.6876	0.8938	-0.052
Mof_H 	H 	0.7445	0.7051	0.9051	0.025
Mof_H 	H 	0.7547	0.6938	0.8734	0.026
Mof_C 	C 	0.722	0.6574	0.9245	-0.035
Mof_H 	H 	0.7056	0.6432	0.926	0.018
Mof_H 	H 	0.7166	0.6751	0.9359	0.02
Mof_H 	H 	0.3764	0.436	0.4111	0.023
Mof_H 	H 	0.3476	0.4396	0.4644	0.022
Mof_H 	H 	0.2795	0.533	0.4954	0.022
Mof_H 	H 	0.2651	0.5794	0.46	0.021
Mof_C 	C 	0.3317	0.5557	0.4552	-0.047
Mof_H 	H 	0.3389	0.5652	0.4734	0.024
Mof_H 	H 	0.3475	0.5568	0.4404	0.023
Mof_N 	N 	0.27385	0.64391	0.41542	-0.141
Mof_C 	C 	0.3242	0.523	0.4616	-0.04
Mof_H 	H 	0.3361	0.5102	0.4488	0.021
Mof_H 	H 	0.3291	0.5183	0.4822	0.02
Mof_C 	C 	0.3447	0.6068	0.3686	-0.044
Mof_H 	H 	0.3269	0.6166	0.361	0.023
Mof_H 	H 	0.3394	0.5863	0.3735	0.022
Mof_H 	H 	0.3462	0.6634	0.379	0.023
Mof_C 	C 	0.2646	0.6272	0.3901	-0.044
Mof_H 	H 	0.2614	0.6065	0.3958	0.021
Mof_H 	H 	0.2801	0.6278	0.375	0.021
Mof_C 	C 	0.2495	0.6438	0.4376	-0.052
Mof_H 	H 	0.2555	0.6551	0.4551	0.025
Mof_H 	H 	0.2453	0.6234	0.4438	0.026
Mof_C 	C 	0.278	0.6745	0.4074	-0.035
Mof_H 	H 	0.2944	0.676	0.3932	0.018
Mof_H 	H 	0.2834	0.6859	0.4251	0.02
Mof_H 	H 	0.3764	0.936	0.9111	0.023
Mof_H 	H 	0.3476	0.9396	0.9644	0.022
Mof_H 	H 	0.2795	0.033	0.9954	0.022
Mof_H 	H 	0.2651	0.0794	0.96	0.021
Mof_C 	C 	0.3317	0.0557	0.9552	-0.047
Mof_H 	H 	0.3389	0.0652	0.9734	0.024
Mof_H 	H 	0.3475	0.0568	0.9404	0.023
Mof_N 	N 	0.27385	0.14391	0.91542	-0.141
Mof_C 	C 	0.3242	0.023	0.9616	-0.04
Mof_H 	H 	0.3361	0.0102	0.9488	0.021
Mof_H 	H 	0.3291	0.0183	0.9822	0.02
Mof_C 	C 	0.3447	0.1068	0.8686	-0.044
Mof_H 	H 	0.3269	0.1166	0.861	0.023
Mof_H 	H 	0.3394	0.0863	0.8735	0.022
Mof_H 	H 	0.3462	0.1634	0.879	0.023
Mof_C 	C 	0.2646	0.1272	0.8901	-0.044
Mof_H 	H 	0.2614	0.1065	0.8958	0.021
Mof_H 	H 	0.2801	0.1278	0.875	0.021
Mof_C 	C 	0.2495	0.1438	0.9376	-0.052
Mof_H 	H 	0.2555	0.1551	0.9551	0.025
Mof_H 	H 	0.2453	0.1234	0.9438	0.026
Mof_C 	C 	0.278	0.1745	0.9074	-0.035
Mof_H 	H 	0.2944	0.176	0.8932	0.018
Mof_H 	H 	0.2834	0.1859	0.9251	0.02
Mof_H 	H 	0.8764	0.436	0.9111	0.023
Mof_H 	H 	0.8476	0.4396	0.9644	0.022
Mof_H 	H 	0.7795	0.533	0.9954	0.022
Mof_H 	H 	0.7651	0.5794	0.96	0.021
Mof_C 	C 	0.8317	0.5557	0.9552	-0.047
Mof_H 	H 	0.8389	0.5652	0.9734	0.024
Mof_H 	H 	0.8475	0.5568	0.9404	0.023
Mof_N 	N 	0.77385	0.64391	0.91542	-0.141
Mof_C 	C 	0.8242	0.523	0.9616	-0.04
Mof_H 	H 	0.8361	0.5102	0.9488	0.021
Mof_H 	H 	0.8291	0.5183	0.9822	0.02
Mof_C 	C 	0.8447	0.6068	0.8686	-0.044
Mof_H 	H 	0.8269	0.6166	0.861	0.023
Mof_H 	H 	0.8394	0.5863	0.8735	0.022
Mof_H 	H 	0.8462	0.6634	0.879	0.023
Mof_C 	C 	0.7646	0.6272	0.8901	-0.044
Mof_H 	H 	0.7614	0.6065	0.8958	0.021
Mof_H 	H 	0.7801	0.6278	0.875	0.021
Mof_C 	C 	0.7495	0.6438	0.9376	-0.052
Mof_H 	H 	0.7555	0.6551	0.9551	0.025
Mof_H 	H 	0.7453	0.6234	0.9438	0.026
Mof_C 	C 	0.778	0.6745	0.9074	-0.035
Mof_H 	H 	0.7944	0.676	0.8932	0.018
Mof_H 	H 	0.7834	0.6859	0.9251	0.02
Mof_H 	H 	0.8764	0.936	0.4111	0.023
Mof_H 	H 	0.8476	0.9396	0.4644	0.022
Mof_H 	H 	0.7795	0.033	0.4954	0.022
Mof_H 	H 	0.7651	0.0794	0.46	0.021
Mof_C 	C 	0.8317	0.0557	0.4552	-0.047
Mof_H 	H 	0.8389	0.0652	0.4734	0.024
Mof_H 	H 	0.8475	0.0568	0.4404	0.023
Mof_N 	N 	0.77385	0.14391	0.41542	-0.141
Mof_C 	C 	0.8242	0.023	0.4616	-0.04
Mof_H 	H 	0.8361	0.0102	0.4488	0.021
Mof_H 	H 	0.8291	0.0183	0.4822	0.02
Mof_C 	C 	0.8447	0.1068	0.3686	-0.044
Mof_H 	H 	0.8269	0.1166	0.361	0.023
Mof_H 	H 	0.8394	0.0863	0.3735	0.022
Mof_H 	H 	0.8462	0.1634	0.379	0.023
Mof_C 	C 	0.7646	0.1272	0.3901	-0.044
Mof_H 	H 	0.7614	0.1065	0.3958	0.021
Mof_H 	H 	0.7801	0.1278	0.375	0.021
Mof_C 	C 	0.7495	0.1438	0.4376	-0.052
Mof_H 	H 	0.7555	0.1551	0.4551	0.025
Mof_H 	H 	0.7453	0.1234	0.4438	0.026
Mof_C 	C 	0.778	0.1745	0.4074	-0.035
Mof_H 	H 	0.7944	0.176	0.3932	0.018
Mof_H 	H 	0.7834	0.1859	0.4251	0.02
Mof_H 	H 	0.3736	0.814	0.9111	0.023
Mof_H 	H 	0.4024	0.8104	0.9644	0.022
Mof_H 	H 	0.4705	0.717	0.9954	0.022
Mof_H 	H 	0.4849	0.6706	0.96	0.021
Mof_C 	C 	0.4183	0.6943	0.9552	-0.047
Mof_H 	H 	0.4111	0.6848	0.9734	0.024
Mof_H 	H 	0.4025	0.6932	0.9404	0.023
Mof_N 	N 	0.47615	0.60609	0.91542	-0.141
Mof_C 	C 	0.4258	0.727	0.9616	-0.04
Mof_H 	H 	0.4139	0.7398	0.9488	0.021
Mof_H 	H 	0.4209	0.7317	0.9822	0.02
Mof_C 	C 	0.4053	0.6432	0.8686	-0.044
Mof_H 	H 	0.4231	0.6334	0.861	0.023
Mof_H 	H 	0.4106	0.6637	0.8735	0.022
Mof_H 	H 	0.4038	0.5866	0.879	0.023
Mof_C 	C 	0.4854	0.6228	0.8901	-0.044
Mof_H 	H 	0.4886	0.6435	0.8958	0.021
Mof_H 	H 	0.4699	0.6222	0.875	0.021
Mof_C 	C 	0.5005	0.6062	0.9376	-0.052
Mof_H 	H 	0.4945	0.5949	0.9551	0.025
Mof_H 	H 	0.5047	0.6266	0.9438	0.026
Mof_C 	C 	0.472	0.5755	0.9074	-0.035
Mof_H 	H 	0.4556	0.574	0.8932	0.018
Mof_H 	H 	0.4666	0.5641	0.9251	0.02
Mof_H 	H 	0.3736	0.314	0.4111	0.023
Mof_H 	H 	0.4024	0.3104	0.4644	0.022
Mof_H 	H 	0.4705	0.217	0.4954	0.022
Mof_H 	H 	0.4849	0.1706	0.46	0.021
Mof_C 	C 	0.4183	0.1943	0.4552	-0.047
Mof_H 	H 	0.4111	0.1848	0.4734	0.024
Mof_H 	H 	0.4025	0.1932	0.4404	0.023
Mof_N 	N 	0.47615	0.10609	0.41542	-0.141
Mof_C 	C 	0.4258	0.227	0.4616	-0.04
Mof_H 	H 	0.4139	0.2398	0.4488	0.021
Mof_H 	H 	0.4209	0.2317	0.4822	0.02
Mof_C 	C 	0.4053	0.1432	0.3686	-0.044
Mof_H 	H 	0.4231	0.1334	0.361	0.023
Mof_H 	H 	0.4106	0.1637	0.3735	0.022
Mof_H 	H 	0.4038	0.0866	0.379	0.023
Mof_C 	C 	0.4854	0.1228	0.3901	-0.044
Mof_H 	H 	0.4886	0.1435	0.3958	0.021
Mof_H 	H 	0.4699	0.1222	0.375	0.021
Mof_C 	C 	0.5005	0.1062	0.4376	-0.052
Mof_H 	H 	0.4945	0.0949	0.4551	0.025
Mof_H 	H 	0.5047	0.1266	0.4438	0.026
Mof_C 	C 	0.472	0.0755	0.4074	-0.035
Mof_H 	H 	0.4556	0.074	0.3932	0.018
Mof_H 	H 	0.4666	0.0641	0.4251	0.02
Mof_H 	H 	0.8736	0.814	0.4111	0.023
Mof_H 	H 	0.9024	0.8104	0.4644	0.022
Mof_H 	H 	0.9705	0.717	0.4954	0.022
Mof_H 	H 	0.9849	0.6706	0.46	0.021
Mof_C 	C 	0.9183	0.6943	0.4552	-0.047
Mof_H 	H 	0.9111	0.6848	0.4734	0.024
Mof_H 	H 	0.9025	0.6932	0.4404	0.023
Mof_N 	N 	0.97615	0.60609	0.41542	-0.141
Mof_C 	C 	0.9258	0.727	0.4616	-0.04
Mof_H 	H 	0.9139	0.7398	0.4488	0.021
Mof_H 	H 	0.9209	0.7317	0.4822	0.02
Mof_C 	C 	0.9053	0.6432	0.3686	-0.044
Mof_H 	H 	0.9231	0.6334	0.361	0.023
Mof_H 	H 	0.9106	0.6637	0.3735	0.022
Mof_H 	H 	0.9038	0.5866	0.379	0.023
Mof_C 	C 	0.9854	0.6228	0.3901	-0.044
Mof_H 	H 	0.9886	0.6435	0.3958	0.021
Mof_H 	H 	0.9699	0.6222	0.375	0.021
Mof_C 	C 	0.0005	0.6062	0.4376	-0.052
Mof_H 	H 	0.9945	0.5949	0.4551	0.025
Mof_H 	H 	0.0047	0.6266	0.4438	0.026
Mof_C 	C 	0.972	0.5755	0.4074	-0.035
Mof_H 	H 	0.9556	0.574	0.3932	0.018
Mof_H 	H 	0.9666	0.5641	0.4251	0.02
Mof_H 	H 	0.8736	0.314	0.9111	0.023
Mof_H 	H 	0.9024	0.3104	0.9644	0.022
Mof_H 	H 	0.9705	0.217	0.9954	0.022
Mof_H 	H 	0.9849	0.1706	0.96	0.021
Mof_C 	C 	0.9183	0.1943	0.9552	-0.047
Mof_H 	H 	0.9111	0.1848	0.9734	0.024
Mof_H 	H 	0.9025	0.1932	0.9404	0.023
Mof_N 	N 	0.97615	0.10609	0.91542	-0.141
Mof_C 	C 	0.9258	0.227	0.9616	-0.04
Mof_H 	H 	0.9139	0.2398	0.9488	0.021
Mof_H 	H 	0.9209	0.2317	0.9822	0.02
Mof_C 	C 	0.9053	0.1432	0.8686	-0.044
Mof_H 	H 	0.9231	0.1334	0.861	0.023
Mof_H 	H 	0.9106	0.1637	0.8735	0.022
Mof_H 	H 	0.9038	0.0866	0.879	0.023
Mof_C 	C 	0.9854	0.1228	0.8901	-0.044
Mof_H 	H 	0.9886	0.1435	0.8958	0.021
Mof_H 	H 	0.9699	0.1222	0.875	0.021
Mof_C 	C 	0.0005	0.1062	0.9376	-0.052
Mof_H 	H 	0.9945	0.0949	0.9551	0.025
Mof_H 	H 	0.0047	0.1266	0.9438	0.026
Mof_C 	C 	0.972	0.0755	0.9074	-0.035
Mof_H 	H 	0.9556	0.074	0.8932	0.018
Mof_H 	H 	0.9666	0.0641	0.9251	0.02
Mof_H 	H 	0.8764	0.314	0.8389	0.023
Mof_H 	H 	0.8476	0.3104	0.7856	0.022
Mof_H 	H 	0.7795	0.217	0.7546	0.022
Mof_H 	H 	0.7651	0.1706	0.79	0.021
Mof_C 	C 	0.8317	0.1943	0.7948	-0.047
Mof_H 	H 	0.8389	0.1848	0.7766	0.024
Mof_H 	H 	0.8475	0.1932	0.8096	0.023
Mof_N 	N 	0.77385	0.10609	0.83458	-0.141
Mof_C 	C 	0.8242	0.227	0.7884	-0.04
Mof_H 	H 	0.8361	0.2398	0.8012	0.021
Mof_H 	H 	0.8291	0.2317	0.7678	0.02
Mof_C 	C 	0.8447	0.1432	0.8814	-0.044
Mof_H 	H 	0.8269	0.1334	0.889	0.023
Mof_H 	H 	0.8394	0.1637	0.8765	0.022
Mof_H 	H 	0.8462	0.0866	0.871	0.023
Mof_C 	C 	0.7646	0.1228	0.8599	-0.044
Mof_H 	H 	0.7614	0.1435	0.8542	0.021
Mof_H 	H 	0.7801	0.1222	0.875	0.021
Mof_C 	C 	0.7495	0.1062	0.8124	-0.052
Mof_H 	H 	0.7555	0.0949	0.7949	0.025
Mof_H 	H 	0.7453	0.1266	0.8062	0.026
Mof_C 	C 	0.778	0.0755	0.8426	-0.035
Mof_H 	H 	0.7944	0.074	0.8568	0.018
Mof_H 	H 	0.7834	0.0641	0.8249	0.02
Mof_H 	H 	0.8764	0.814	0.3389	0.023
Mof_H 	H 	0.8476	0.8104	0.2856	0.022
Mof_H 	H 	0.7795	0.717	0.2546	0.022
Mof_H 	H 	0.7651	0.6706	0.29	0.021
Mof_C 	C 	0.8317	0.6943	0.2948	-0.047
Mof_H 	H 	0.8389	0.6848	0.2766	0.024
Mof_H 	H 	0.8475	0.6932	0.3096	0.023
Mof_N 	N 	0.77385	0.60609	0.33458	-0.141
Mof_C 	C 	0.8242	0.727	0.2884	-0.04
Mof_H 	H 	0.8361	0.7398	0.3012	0.021
Mof_H 	H 	0.8291	0.7317	0.2678	0.02
Mof_C 	C 	0.8447	0.6432	0.3814	-0.044
Mof_H 	H 	0.8269	0.6334	0.389	0.023
Mof_H 	H 	0.8394	0.6637	0.3765	0.022
Mof_H 	H 	0.8462	0.5866	0.371	0.023
Mof_C 	C 	0.7646	0.6228	0.3599	-0.044
Mof_H 	H 	0.7614	0.6435	0.3542	0.021
Mof_H 	H 	0.7801	0.6222	0.375	0.021
Mof_C 	C 	0.7495	0.6062	0.3124	-0.052
Mof_H 	H 	0.7555	0.5949	0.2949	0.025
Mof_H 	H 	0.7453	0.6266	0.3062	0.026
Mof_C 	C 	0.778	0.5755	0.3426	-0.035
Mof_H 	H 	0.7944	0.574	0.3568	0.018
Mof_H 	H 	0.7834	0.5641	0.3249	0.02
Mof_H 	H 	0.3764	0.314	0.3389	0.023
Mof_H 	H 	0.3476	0.3104	0.2856	0.022
Mof_H 	H 	0.2795	0.217	0.2546	0.022
Mof_H 	H 	0.2651	0.1706	0.29	0.021
Mof_C 	C 	0.3317	0.1943	0.2948	-0.047
Mof_H 	H 	0.3389	0.1848	0.2766	0.024
Mof_H 	H 	0.3475	0.1932	0.3096	0.023
Mof_N 	N 	0.27385	0.10609	0.33458	-0.141
Mof_C 	C 	0.3242	0.227	0.2884	-0.04
Mof_H 	H 	0.3361	0.2398	0.3012	0.021
Mof_H 	H 	0.3291	0.2317	0.2678	0.02
Mof_C 	C 	0.3447	0.1432	0.3814	-0.044
Mof_H 	H 	0.3269	0.1334	0.389	0.023
Mof_H 	H 	0.3394	0.1637	0.3765	0.022
Mof_H 	H 	0.3462	0.0866	0.371	0.023
Mof_C 	C 	0.2646	0.1228	0.3599	-0.044
Mof_H 	H 	0.2614	0.1435	0.3542	0.021
Mof_H 	H 	0.2801	0.1222	0.375	0.021
Mof_C 	C 	0.2495	0.1062	0.3124	-0.052
Mof_H 	H 	0.2555	0.0949	0.2949	0.025
Mof_H 	H 	0.2453	0.1266	0.3062	0.026
Mof_C 	C 	0.278	0.0755	0.3426	-0.035
Mof_H 	H 	0.2944	0.074	0.3568	0.018
Mof_H 	H 	0.2834	0.0641	0.3249	0.02
Mof_H 	H 	0.3764	0.814	0.8389	0.023
Mof_H 	H 	0.3476	0.8104	0.7856	0.022
Mof_H 	H 	0.2795	0.717	0.7546	0.022
Mof_H 	H 	0.2651	0.6706	0.79	0.021
Mof_C 	C 	0.3317	0.6943	0.7948	-0.047
Mof_H 	H 	0.3389	0.6848	0.7766	0.024
Mof_H 	H 	0.3475	0.6932	0.8096	0.023
Mof_N 	N 	0.27385	0.60609	0.83458	-0.141
Mof_C 	C 	0.3242	0.727	0.7884	-0.04
Mof_H 	H 	0.3361	0.7398	0.8012	0.021
Mof_H 	H 	0.3291	0.7317	0.7678	0.02
Mof_C 	C 	0.3447	0.6432	0.8814	-0.044
Mof_H 	H 	0.3269	0.6334	0.889	0.023
Mof_H 	H 	0.3394	0.6637	0.8765	0.022
Mof_H 	H 	0.3462	0.5866	0.871	0.023
Mof_C 	C 	0.2646	0.6228	0.8599	-0.044
Mof_H 	H 	0.2614	0.6435	0.8542	0.021
Mof_H 	H 	0.2801	0.6222	0.875	0.021
Mof_C 	C 	0.2495	0.6062	0.8124	-0.052
Mof_H 	H 	0.2555	0.5949	0.7949	0.025
Mof_H 	H 	0.2453	0.6266	0.8062	0.026
Mof_C 	C 	0.278	0.5755	0.8426	-0.035
Mof_H 	H 	0.2944	0.574	0.8568	0.018
Mof_H 	H 	0.2834	0.5641	0.8249	0.02
Mof_H 	H 	0.8736	0.936	0.3389	0.023
Mof_H 	H 	0.9024	0.9396	0.2856	0.022
Mof_H 	H 	0.9705	0.033	0.2546	0.022
Mof_H 	H 	0.9849	0.0794	0.29	0.021
Mof_C 	C 	0.9183	0.0557	0.2948	-0.047
Mof_H 	H 	0.9111	0.0652	0.2766	0.024
Mof_H 	H 	0.9025	0.0568	0.3096	0.023
Mof_N 	N 	0.97615	0.14391	0.33458	-0.141
Mof_C 	C 	0.9258	0.023	0.2884	-0.04
Mof_H 	H 	0.9139	0.0102	0.3012	0.021
Mof_H 	H 	0.9209	0.0183	0.2678	0.02
Mof_C 	C 	0.9053	0.1068	0.3814	-0.044
Mof_H 	H 	0.9231	0.1166	0.389	0.023
Mof_H 	H 	0.9106	0.0863	0.3765	0.022
Mof_H 	H 	0.9038	0.1634	0.371	0.023
Mof_C 	C 	0.9854	0.1272	0.3599	-0.044
Mof_H 	H 	0.9886	0.1065	0.3542	0.021
Mof_H 	H 	0.9699	0.1278	0.375	0.021
Mof_C 	C 	0.0005	0.1438	0.3124	-0.052
Mof_H 	H 	0.9945	0.1551	0.2949	0.025
Mof_H 	H 	0.0047	0.1234	0.3062	0.026
Mof_C 	C 	0.972	0.1745	0.3426	-0.035
Mof_H 	H 	0.9556	0.176	0.3568	0.018
Mof_H 	H 	0.9666	0.1859	0.3249	0.02
Mof_H 	H 	0.8736	0.436	0.8389	0.023
Mof_H 	H 	0.9024	0.4396	0.7856	0.022
Mof_H 	H 	0.9705	0.533	0.7546	0.022
Mof_H 	H 	0.9849	0.5794	0.79	0.021
Mof_C 	C 	0.9183	0.5557	0.7948	-0.047
Mof_H 	H 	0.9111	0.5652	0.7766	0.024
Mof_H 	H 	0.9025	0.5568	0.8096	0.023
Mof_N 	N 	0.97615	0.64391	0.83458	-0.141
Mof_C 	C 	0.9258	0.523	0.7884	-0.04
Mof_H 	H 	0.9139	0.5102	0.8012	0.021
Mof_H 	H 	0.9209	0.5183	0.7678	0.02
Mof_C 	C 	0.9053	0.6068	0.8814	-0.044
Mof_H 	H 	0.9231	0.6166	0.889	0.023
Mof_H 	H 	0.9106	0.5863	0.8765	0.022
Mof_H 	H 	0.9038	0.6634	0.871	0.023
Mof_C 	C 	0.9854	0.6272	0.8599	-0.044
Mof_H 	H 	0.9886	0.6065	0.8542	0.021
Mof_H 	H 	0.9699	0.6278	0.875	0.021
Mof_C 	C 	0.0005	0.6438	0.8124	-0.052
Mof_H 	H 	0.9945	0.6551	0.7949	0.025
Mof_H 	H 	0.0047	0.6234	0.8062	0.026
Mof_C 	C 	0.972	0.6745	0.8426	-0.035
Mof_H 	H 	0.9556	0.676	0.8568	0.018
Mof_H 	H 	0.9666	0.6859	0.8249	0.02
Mof_H 	H 	0.3736	0.936	0.8389	0.023
Mof_H 	H 	0.4024	0.9396	0.7856	0.022
Mof_H 	H 	0.4705	0.033	0.7546	0.022
Mof_H 	H 	0.4849	0.0794	0.79	0.021
Mof_C 	C 	0.4183	0.0557	0.7948	-0.047
Mof_H 	H 	0.4111	0.0652	0.7766	0.024
Mof_H 	H 	0.4025	0.0568	0.8096	0.023
Mof_N 	N 	0.47615	0.14391	0.83458	-0.141
Mof_C 	C 	0.4258	0.023	0.7884	-0.04
Mof_H 	H 	0.4139	0.0102	0.8012	0.021
Mof_H 	H 	0.4209	0.0183	0.7678	0.02
Mof_C 	C 	0.4053	0.1068	0.8814	-0.044
Mof_H 	H 	0.4231	0.1166	0.889	0.023
Mof_H 	H 	0.4106	0.0863	0.8765	0.022
Mof_H 	H 	0.4038	0.1634	0.871	0.023
Mof_C 	C 	0.4854	0.1272	0.8599	-0.044
Mof_H 	H 	0.4886	0.1065	0.8542	0.021
Mof_H 	H 	0.4699	0.1278	0.875	0.021
Mof_C 	C 	0.5005	0.1438	0.8124	-0.052
Mof_H 	H 	0.4945	0.1551	0.7949	0.025
Mof_H 	H 	0.5047	0.1234	0.8062	0.026
Mof_C 	C 	0.472	0.1745	0.8426	-0.035
Mof_H 	H 	0.4556	0.176	0.8568	0.018
Mof_H 	H 	0.4666	0.1859	0.8249	0.02
Mof_H 	H 	0.3736	0.436	0.3389	0.023
Mof_H 	H 	0.4024	0.4396	0.2856	0.022
Mof_H 	H 	0.4705	0.533	0.2546	0.022
Mof_H 	H 	0.4849	0.5794	0.29	0.021
Mof_C 	C 	0.4183	0.5557	0.2948	-0.047
Mof_H 	H 	0.4111	0.5652	0.2766	0.024
Mof_H 	H 	0.4025	0.5568	0.3096	0.023
Mof_N 	N 	0.47615	0.64391	0.33458	-0.141
Mof_C 	C 	0.4258	0.523	0.2884	-0.04
Mof_H 	H 	0.4139	0.5102	0.3012	0.021
Mof_H 	H 	0.4209	0.5183	0.2678	0.02
Mof_C 	C 	0.4053	0.6068	0.3814	-0.044
Mof_H 	H 	0.4231	0.6166	0.389	0.023
Mof_H 	H 	0.4106	0.5863	0.3765	0.022
Mof_H 	H 	0.4038	0.6634	0.371	0.023
Mof_C 	C 	0.4854	0.6272	0.3599	-0.044
Mof_H 	H 	0.4886	0.6065	0.3542	0.021
Mof_H 	H 	0.4699	0.6278	0.375	0.021
Mof_C 	C 	0.5005	0.6438	0.3124	-0.052
Mof_H 	H 	0.4945	0.6551	0.2949	0.025
Mof_H 	H 	0.5047	0.6234	0.3062	0.026
Mof_C 	C 	0.472	0.6745	0.3426	-0.035
Mof_H 	H 	0.4556	0.676	0.3568	0.018
Mof_H 	H 	0.4666	0.6859	0.3249	0.02
Mof_H 	H 	0.936	0.3389	0.8736	0.023
Mof_H 	H 	0.9396	0.2856	0.9024	0.022
Mof_H 	H 	0.033	0.2546	0.9705	0.022
Mof_H 	H 	0.0794	0.29	0.9849	0.021
Mof_C 	C 	0.0557	0.2948	0.9183	-0.047
Mof_H 	H 	0.0652	0.2766	0.9111	0.024
Mof_H 	H 	0.0568	0.3096	0.9025	0.023
Mof_N 	N 	0.14391	0.33458	0.97615	-0.141
Mof_C 	C 	0.023	0.2884	0.9258	-0.04
Mof_H 	H 	0.0102	0.3012	0.9139	0.021
Mof_H 	H 	0.0183	0.2678	0.9209	0.02
Mof_C 	C 	0.1068	0.3814	0.9053	-0.044
Mof_H 	H 	0.1166	0.389	0.9231	0.023
Mof_H 	H 	0.0863	0.3765	0.9106	0.022
Mof_H 	H 	0.1634	0.371	0.9038	0.023
Mof_C 	C 	0.1272	0.3599	0.9854	-0.044
Mof_H 	H 	0.1065	0.3542	0.9886	0.021
Mof_H 	H 	0.1278	0.375	0.9699	0.021
Mof_C 	C 	0.1438	0.3124	0.0005	-0.052
Mof_H 	H 	0.1551	0.2949	0.9945	0.025
Mof_H 	H 	0.1234	0.3062	0.0047	0.026
Mof_C 	C 	0.1745	0.3426	0.972	-0.035
Mof_H 	H 	0.176	0.3568	0.9556	0.018
Mof_H 	H 	0.1859	0.3249	0.9666	0.02
Mof_H 	H 	0.936	0.8389	0.3736	0.023
Mof_H 	H 	0.9396	0.7856	0.4024	0.022
Mof_H 	H 	0.033	0.7546	0.4705	0.022
Mof_H 	H 	0.0794	0.79	0.4849	0.021
Mof_C 	C 	0.0557	0.7948	0.4183	-0.047
Mof_H 	H 	0.0652	0.7766	0.4111	0.024
Mof_H 	H 	0.0568	0.8096	0.4025	0.023
Mof_N 	N 	0.14391	0.83458	0.47615	-0.141
Mof_C 	C 	0.023	0.7884	0.4258	-0.04
Mof_H 	H 	0.0102	0.8012	0.4139	0.021
Mof_H 	H 	0.0183	0.7678	0.4209	0.02
Mof_C 	C 	0.1068	0.8814	0.4053	-0.044
Mof_H 	H 	0.1166	0.889	0.4231	0.023
Mof_H 	H 	0.0863	0.8765	0.4106	0.022
Mof_H 	H 	0.1634	0.871	0.4038	0.023
Mof_C 	C 	0.1272	0.8599	0.4854	-0.044
Mof_H 	H 	0.1065	0.8542	0.4886	0.021
Mof_H 	H 	0.1278	0.875	0.4699	0.021
Mof_C 	C 	0.1438	0.8124	0.5005	-0.052
Mof_H 	H 	0.1551	0.7949	0.4945	0.025
Mof_H 	H 	0.1234	0.8062	0.5047	0.026
Mof_C 	C 	0.1745	0.8426	0.472	-0.035
Mof_H 	H 	0.176	0.8568	0.4556	0.018
Mof_H 	H 	0.1859	0.8249	0.4666	0.02
Mof_H 	H 	0.436	0.3389	0.3736	0.023
Mof_H 	H 	0.4396	0.2856	0.4024	0.022
Mof_H 	H 	0.533	0.2546	0.4705	0.022
Mof_H 	H 	0.5794	0.29	0.4849	0.021
Mof_C 	C 	0.5557	0.2948	0.4183	-0.047
Mof_H 	H 	0.5652	0.2766	0.4111	0.024
Mof_H 	H 	0.5568	0.3096	0.4025	0.023
Mof_N 	N 	0.64391	0.33458	0.47615	-0.141
Mof_C 	C 	0.523	0.2884	0.4258	-0.04
Mof_H 	H 	0.5102	0.3012	0.4139	0.021
Mof_H 	H 	0.5183	0.2678	0.4209	0.02
Mof_C 	C 	0.6068	0.3814	0.4053	-0.044
Mof_H 	H 	0.6166	0.389	0.4231	0.023
Mof_H 	H 	0.5863	0.3765	0.4106	0.022
Mof_H 	H 	0.6634	0.371	0.4038	0.023
Mof_C 	C 	0.6272	0.3599	0.4854	-0.044
Mof_H 	H 	0.6065	0.3542	0.4886	0.021
Mof_H 	H 	0.6278	0.375	0.4699	0.021
Mof_C 	C 	0.6438	0.3124	0.5005	-0.052
Mof_H 	H 	0.6551	0.2949	0.4945	0.025
Mof_H 	H 	0.6234	0.3062	0.5047	0.026
Mof_C 	C 	0.6745	0.3426	0.472	-0.035
Mof_H 	H 	0.676	0.3568	0.4556	0.018
Mof_H 	H 	0.6859	0.3249	0.4666	0.02
Mof_H 	H 	0.436	0.8389	0.8736	0.023
Mof_H 	H 	0.4396	0.7856	0.9024	0.022
Mof_H 	H 	0.533	0.7546	0.9705	0.022
Mof_H 	H 	0.5794	0.79	0.9849	0.021
Mof_C 	C 	0.5557	0.7948	0.9183	-0.047
Mof_H 	H 	0.5652	0.7766	0.9111	0.024
Mof_H 	H 	0.5568	0.8096	0.9025	0.023
Mof_N 	N 	0.64391	0.83458	0.97615	-0.141
Mof_C 	C 	0.523	0.7884	0.9258	-0.04
Mof_H 	H 	0.5102	0.8012	0.9139	0.021
Mof_H 	H 	0.5183	0.7678	0.9209	0.02
Mof_C 	C 	0.6068	0.8814	0.9053	-0.044
Mof_H 	H 	0.6166	0.889	0.9231	0.023
Mof_H 	H 	0.5863	0.8765	0.9106	0.022
Mof_H 	H 	0.6634	0.871	0.9038	0.023
Mof_C 	C 	0.6272	0.8599	0.9854	-0.044
Mof_H 	H 	0.6065	0.8542	0.9886	0.021
Mof_H 	H 	0.6278	0.875	0.9699	0.021
Mof_C 	C 	0.6438	0.8124	0.0005	-0.052
Mof_H 	H 	0.6551	0.7949	0.9945	0.025
Mof_H 	H 	0.6234	0.8062	0.0047	0.026
Mof_C 	C 	0.6745	0.8426	0.972	-0.035
Mof_H 	H 	0.676	0.8568	0.9556	0.018
Mof_H 	H 	0.6859	0.8249	0.9666	0.02
Mof_H 	H 	0.314	0.8389	0.8764	0.023
Mof_H 	H 	0.3104	0.7856	0.8476	0.022
Mof_H 	H 	0.217	0.7546	0.7795	0.022
Mof_H 	H 	0.1706	0.79	0.7651	0.021
Mof_C 	C 	0.1943	0.7948	0.8317	-0.047
Mof_H 	H 	0.1848	0.7766	0.8389	0.024
Mof_H 	H 	0.1932	0.8096	0.8475	0.023
Mof_N 	N 	0.10609	0.83458	0.77385	-0.141
Mof_C 	C 	0.227	0.7884	0.8242	-0.04
Mof_H 	H 	0.2398	0.8012	0.8361	0.021
Mof_H 	H 	0.2317	0.7678	0.8291	0.02
Mof_C 	C 	0.1432	0.8814	0.8447	-0.044
Mof_H 	H 	0.1334	0.889	0.8269	0.023
Mof_H 	H 	0.1637	0.8765	0.8394	0.022
Mof_H 	H 	0.0866	0.871	0.8462	0.023
Mof_C 	C 	0.1228	0.8599	0.7646	-0.044
Mof_H 	H 	0.1435	0.8542	0.7614	0.021
Mof_H 	H 	0.1222	0.875	0.7801	0.021
Mof_C 	C 	0.1062	0.8124	0.7495	-0.052
Mof_H 	H 	0.0949	0.7949	0.7555	0.025
Mof_H 	H 	0.1266	0.8062	0.7453	0.026
Mof_C 	C 	0.0755	0.8426	0.778	-0.035
Mof_H 	H 	0.074	0.8568	0.7944	0.018
Mof_H 	H 	0.0641	0.8249	0.7834	0.02
Mof_H 	H 	0.314	0.3389	0.3764	0.023
Mof_H 	H 	0.3104	0.2856	0.3476	0.022
Mof_H 	H 	0.217	0.2546	0.2795	0.022
Mof_H 	H 	0.1706	0.29	0.2651	0.021
Mof_C 	C 	0.1943	0.2948	0.3317	-0.047
Mof_H 	H 	0.1848	0.2766	0.3389	0.024
Mof_H 	H 	0.1932	0.3096	0.3475	0.023
Mof_N 	N 	0.10609	0.33458	0.27385	-0.141
Mof_C 	C 	0.227	0.2884	0.3242	-0.04
Mof_H 	H 	0.2398	0.3012	0.3361	0.021
Mof_H 	H 	0.2317	0.2678	0.3291	0.02
Mof_C 	C 	0.1432	0.3814	0.3447	-0.044
Mof_H 	H 	0.1334	0.389	0.3269	0.023
Mof_H 	H 	0.1637	0.3765	0.3394	0.022
Mof_H 	H 	0.0866	0.371	0.3462	0.023
Mof_C 	C 	0.1228	0.3599	0.2646	-0.044
Mof_H 	H 	0.1435	0.3542	0.2614	0.021
Mof_H 	H 	0.1222	0.375	0.2801	0.021
Mof_C 	C 	0.1062	0.3124	0.2495	-0.052
Mof_H 	H 	0.0949	0.2949	0.2555	0.025
Mof_H 	H 	0.1266	0.3062	0.2453	0.026
Mof_C 	C 	0.0755	0.3426	0.278	-0.035
Mof_H 	H 	0.074	0.3568	0.2944	0.018
Mof_H 	H 	0.0641	0.3249	0.2834	0.02
Mof_H 	H 	0.814	0.8389	0.3764	0.023
Mof_H 	H 	0.8104	0.7856	0.3476	0.022
Mof_H 	H 	0.717	0.7546	0.2795	0.022
Mof_H 	H 	0.6706	0.79	0.2651	0.021
Mof_C 	C 	0.6943	0.7948	0.3317	-0.047
Mof_H 	H 	0.6848	0.7766	0.3389	0.024
Mof_H 	H 	0.6932	0.8096	0.3475	0.023
Mof_N 	N 	0.60609	0.83458	0.27385	-0.141
Mof_C 	C 	0.727	0.7884	0.3242	-0.04
Mof_H 	H 	0.7398	0.8012	0.3361	0.021
Mof_H 	H 	0.7317	0.7678	0.3291	0.02
Mof_C 	C 	0.6432	0.8814	0.3447	-0.044
Mof_H 	H 	0.6334	0.889	0.3269	0.023
Mof_H 	H 	0.6637	0.8765	0.3394	0.022
Mof_H 	H 	0.5866	0.871	0.3462	0.023
Mof_C 	C 	0.6228	0.8599	0.2646	-0.044
Mof_H 	H 	0.6435	0.8542	0.2614	0.021
Mof_H 	H 	0.6222	0.875	0.2801	0.021
Mof_C 	C 	0.6062	0.8124	0.2495	-0.052
Mof_H 	H 	0.5949	0.7949	0.2555	0.025
Mof_H 	H 	0.6266	0.8062	0.2453	0.026
Mof_C 	C 	0.5755	0.8426	0.278	-0.035
Mof_H 	H 	0.574	0.8568	0.2944	0.018
Mof_H 	H 	0.5641	0.8249	0.2834	0.02
Mof_H 	H 	0.814	0.3389	0.8764	0.023
Mof_H 	H 	0.8104	0.2856	0.8476	0.022
Mof_H 	H 	0.717	0.2546	0.7795	0.022
Mof_H 	H 	0.6706	0.29	0.7651	0.021
Mof_C 	C 	0.6943	0.2948	0.8317	-0.047
Mof_H 	H 	0.6848	0.2766	0.8389	0.024
Mof_H 	H 	0.6932	0.3096	0.8475	0.023
Mof_N 	N 	0.60609	0.33458	0.77385	-0.141
Mof_C 	C 	0.727	0.2884	0.8242	-0.04
Mof_H 	H 	0.7398	0.3012	0.8361	0.021
Mof_H 	H 	0.7317	0.2678	0.8291	0.02
Mof_C 	C 	0.6432	0.3814	0.8447	-0.044
Mof_H 	H 	0.6334	0.389	0.8269	0.023
Mof_H 	H 	0.6637	0.3765	0.8394	0.022
Mof_H 	H 	0.5866	0.371	0.8462	0.023
Mof_C 	C 	0.6228	0.3599	0.7646	-0.044
Mof_H 	H 	0.6435	0.3542	0.7614	0.021
Mof_H 	H 	0.6222	0.375	0.7801	0.021
Mof_C 	C 	0.6062	0.3124	0.7495	-0.052
Mof_H 	H 	0.5949	0.2949	0.7555	0.025
Mof_H 	H 	0.6266	0.3062	0.7453	0.026
Mof_C 	C 	0.5755	0.3426	0.778	-0.035
Mof_H 	H 	0.574	0.3568	0.7944	0.018
Mof_H 	H 	0.5641	0.3249	0.7834	0.02
Mof_H 	H 	0.814	0.9111	0.3736	0.023
Mof_H 	H 	0.8104	0.9644	0.4024	0.022
Mof_H 	H 	0.717	0.9954	0.4705	0.022
Mof_H 	H 	0.6706	0.96	0.4849	0.021
Mof_C 	C 	0.6943	0.9552	0.4183	-0.047
Mof_H 	H 	0.6848	0.9734	0.4111	0.024
Mof_H 	H 	0.6932	0.9404	0.4025	0.023
Mof_N 	N 	0.60609	0.91542	0.47615	-0.141
Mof_C 	C 	0.727	0.9616	0.4258	-0.04
Mof_H 	H 	0.7398	0.9488	0.4139	0.021
Mof_H 	H 	0.7317	0.9822	0.4209	0.02
Mof_C 	C 	0.6432	0.8686	0.4053	-0.044
Mof_H 	H 	0.6334	0.861	0.4231	0.023
Mof_H 	H 	0.6637	0.8735	0.4106	0.022
Mof_H 	H 	0.5866	0.879	0.4038	0.023
Mof_C 	C 	0.6228	0.8901	0.4854	-0.044
Mof_H 	H 	0.6435	0.8958	0.4886	0.021
Mof_H 	H 	0.6222	0.875	0.4699	0.021
Mof_C 	C 	0.6062	0.9376	0.5005	-0.052
Mof_H 	H 	0.5949	0.9551	0.4945	0.025
Mof_H 	H 	0.6266	0.9438	0.5047	0.026
Mof_C 	C 	0.5755	0.9074	0.472	-0.035
Mof_H 	H 	0.574	0.8932	0.4556	0.018
Mof_H 	H 	0.5641	0.9251	0.4666	0.02
Mof_H 	H 	0.814	0.4111	0.8736	0.023
Mof_H 	H 	0.8104	0.4644	0.9024	0.022
Mof_H 	H 	0.717	0.4954	0.9705	0.022
Mof_H 	H 	0.6706	0.46	0.9849	0.021
Mof_C 	C 	0.6943	0.4552	0.9183	-0.047
Mof_H 	H 	0.6848	0.4734	0.9111	0.024
Mof_H 	H 	0.6932	0.4404	0.9025	0.023
Mof_N 	N 	0.60609	0.41542	0.97615	-0.141
Mof_C 	C 	0.727	0.4616	0.9258	-0.04
Mof_H 	H 	0.7398	0.4488	0.9139	0.021
Mof_H 	H 	0.7317	0.4822	0.9209	0.02
Mof_C 	C 	0.6432	0.3686	0.9053	-0.044
Mof_H 	H 	0.6334	0.361	0.9231	0.023
Mof_H 	H 	0.6637	0.3735	0.9106	0.022
Mof_H 	H 	0.5866	0.379	0.9038	0.023
Mof_C 	C 	0.6228	0.3901	0.9854	-0.044
Mof_H 	H 	0.6435	0.3958	0.9886	0.021
Mof_H 	H 	0.6222	0.375	0.9699	0.021
Mof_C 	C 	0.6062	0.4376	0.0005	-0.052
Mof_H 	H 	0.5949	0.4551	0.9945	0.025
Mof_H 	H 	0.6266	0.4438	0.0047	0.026
Mof_C 	C 	0.5755	0.4074	0.972	-0.035
Mof_H 	H 	0.574	0.3932	0.9556	0.018
Mof_H 	H 	0.5641	0.4251	0.9666	0.02
Mof_H 	H 	0.314	0.9111	0.8736	0.023
Mof_H 	H 	0.3104	0.9644	0.9024	0.022
Mof_H 	H 	0.217	0.9954	0.9705	0.022
Mof_H 	H 	0.1706	0.96	0.9849	0.021
Mof_C 	C 	0.1943	0.9552	0.9183	-0.047
Mof_H 	H 	0.1848	0.9734	0.9111	0.024
Mof_H 	H 	0.1932	0.9404	0.9025	0.023
Mof_N 	N 	0.10609	0.91542	0.97615	-0.141
Mof_C 	C 	0.227	0.9616	0.9258	-0.04
Mof_H 	H 	0.2398	0.9488	0.9139	0.021
Mof_H 	H 	0.2317	0.9822	0.9209	0.02
Mof_C 	C 	0.1432	0.8686	0.9053	-0.044
Mof_H 	H 	0.1334	0.861	0.9231	0.023
Mof_H 	H 	0.1637	0.8735	0.9106	0.022
Mof_H 	H 	0.0866	0.879	0.9038	0.023
Mof_C 	C 	0.1228	0.8901	0.9854	-0.044
Mof_H 	H 	0.1435	0.8958	0.9886	0.021
Mof_H 	H 	0.1222	0.875	0.9699	0.021
Mof_C 	C 	0.1062	0.9376	0.0005	-0.052
Mof_H 	H 	0.0949	0.9551	0.9945	0.025
Mof_H 	H 	0.1266	0.9438	0.0047	0.026
Mof_C 	C 	0.0755	0.9074	0.972	-0.035
Mof_H 	H 	0.074	0.8932	0.9556	0.018
Mof_H 	H 	0.0641	0.9251	0.9666	0.02
Mof_H 	H 	0.314	0.4111	0.3736	0.023
Mof_H 	H 	0.3104	0.4644	0.4024	0.022
Mof_H 	H 	0.217	0.4954	0.4705	0.022
Mof_H 	H 	0.1706	0.46	0.4849	0.021
Mof_C 	C 	0.1943	0.4552	0.4183	-0.047
Mof_H 	H 	0.1848	0.4734	0.4111	0.024
Mof_H 	H 	0.1932	0.4404	0.4025	0.023
Mof_N 	N 	0.10609	0.41542	0.47615	-0.141
Mof_C 	C 	0.227	0.4616	0.4258	-0.04
Mof_H 	H 	0.2398	0.4488	0.4139	0.021
Mof_H 	H 	0.2317	0.4822	0.4209	0.02
Mof_C 	C 	0.1432	0.3686	0.4053	-0.044
Mof_H 	H 	0.1334	0.361	0.4231	0.023
Mof_H 	H 	0.1637	0.3735	0.4106	0.022
Mof_H 	H 	0.0866	0.379	0.4038	0.023
Mof_C 	C 	0.1228	0.3901	0.4854	-0.044
Mof_H 	H 	0.1435	0.3958	0.4886	0.021
Mof_H 	H 	0.1222	0.375	0.4699	0.021
Mof_C 	C 	0.1062	0.4376	0.5005	-0.052
Mof_H 	H 	0.0949	0.4551	0.4945	0.025
Mof_H 	H 	0.1266	0.4438	0.5047	0.026
Mof_C 	C 	0.0755	0.4074	0.472	-0.035
Mof_H 	H 	0.074	0.3932	0.4556	0.018
Mof_H 	H 	0.0641	0.4251	0.4666	0.02
Mof_H 	H 	0.436	0.4111	0.3764	0.023
Mof_H 	H 	0.4396	0.4644	0.3476	0.022
Mof_H 	H 	0.533	0.4954	0.2795	0.022
Mof_H 	H 	0.5794	0.46	0.2651	0.021
Mof_C 	C 	0.5557	0.4552	0.3317	-0.047
Mof_H 	H 	0.5652	0.4734	0.3389	0.024
Mof_H 	H 	0.5568	0.4404	0.3475	0.023
Mof_N 	N 	0.64391	0.41542	0.27385	-0.141
Mof_C 	C 	0.523	0.4616	0.3242	-0.04
Mof_H 	H 	0.5102	0.4488	0.3361	0.021
Mof_H 	H 	0.5183	0.4822	0.3291	0.02
Mof_C 	C 	0.6068	0.3686	0.3447	-0.044
Mof_H 	H 	0.6166	0.361	0.3269	0.023
Mof_H 	H 	0.5863	0.3735	0.3394	0.022
Mof_H 	H 	0.6634	0.379	0.3462	0.023
Mof_C 	C 	0.6272	0.3901	0.2646	-0.044
Mof_H 	H 	0.6065	0.3958	0.2614	0.021
Mof_H 	H 	0.6278	0.375	0.2801	0.021
Mof_C 	C 	0.6438	0.4376	0.2495	-0.052
Mof_H 	H 	0.6551	0.4551	0.2555	0.025
Mof_H 	H 	0.6234	0.4438	0.2453	0.026
Mof_C 	C 	0.6745	0.4074	0.278	-0.035
Mof_H 	H 	0.676	0.3932	0.2944	0.018
Mof_H 	H 	0.6859	0.4251	0.2834	0.02
Mof_H 	H 	0.436	0.9111	0.8764	0.023
Mof_H 	H 	0.4396	0.9644	0.8476	0.022
Mof_H 	H 	0.533	0.9954	0.7795	0.022
Mof_H 	H 	0.5794	0.96	0.7651	0.021
Mof_C 	C 	0.5557	0.9552	0.8317	-0.047
Mof_H 	H 	0.5652	0.9734	0.8389	0.024
Mof_H 	H 	0.5568	0.9404	0.8475	0.023
Mof_N 	N 	0.64391	0.91542	0.77385	-0.141
Mof_C 	C 	0.523	0.9616	0.8242	-0.04
Mof_H 	H 	0.5102	0.9488	0.8361	0.021
Mof_H 	H 	0.5183	0.9822	0.8291	0.02
Mof_C 	C 	0.6068	0.8686	0.8447	-0.044
Mof_H 	H 	0.6166	0.861	0.8269	0.023
Mof_H 	H 	0.5863	0.8735	0.8394	0.022
Mof_H 	H 	0.6634	0.879	0.8462	0.023
Mof_C 	C 	0.6272	0.8901	0.7646	-0.044
Mof_H 	H 	0.6065	0.8958	0.7614	0.021
Mof_H 	H 	0.6278	0.875	0.7801	0.021
Mof_C 	C 	0.6438	0.9376	0.7495	-0.052
Mof_H 	H 	0.6551	0.9551	0.7555	0.025
Mof_H 	H 	0.6234	0.9438	0.7453	0.026
Mof_C 	C 	0.6745	0.9074	0.778	-0.035
Mof_H 	H 	0.676	0.8932	0.7944	0.018
Mof_H 	H 	0.6859	0.9251	0.7834	0.02
Mof_H 	H 	0.936	0.4111	0.8764	0.023
Mof_H 	H 	0.9396	0.4644	0.8476	0.022
Mof_H 	H 	0.033	0.4954	0.7795	0.022
Mof_H 	H 	0.0794	0.46	0.7651	0.021
Mof_C 	C 	0.0557	0.4552	0.8317	-0.047
Mof_H 	H 	0.0652	0.4734	0.8389	0.024
Mof_H 	H 	0.0568	0.4404	0.8475	0.023
Mof_N 	N 	0.14391	0.41542	0.77385	-0.141
Mof_C 	C 	0.023	0.4616	0.8242	-0.04
Mof_H 	H 	0.0102	0.4488	0.8361	0.021
Mof_H 	H 	0.0183	0.4822	0.8291	0.02
Mof_C 	C 	0.1068	0.3686	0.8447	-0.044
Mof_H 	H 	0.1166	0.361	0.8269	0.023
Mof_H 	H 	0.0863	0.3735	0.8394	0.022
Mof_H 	H 	0.1634	0.379	0.8462	0.023
Mof_C 	C 	0.1272	0.3901	0.7646	-0.044
Mof_H 	H 	0.1065	0.3958	0.7614	0.021
Mof_H 	H 	0.1278	0.375	0.7801	0.021
Mof_C 	C 	0.1438	0.4376	0.7495	-0.052
Mof_H 	H 	0.1551	0.4551	0.7555	0.025
Mof_H 	H 	0.1234	0.4438	0.7453	0.026
Mof_C 	C 	0.1745	0.4074	0.778	-0.035
Mof_H 	H 	0.176	0.3932	0.7944	0.018
Mof_H 	H 	0.1859	0.4251	0.7834	0.02
Mof_H 	H 	0.936	0.9111	0.3764	0.023
Mof_H 	H 	0.9396	0.9644	0.3476	0.022
Mof_H 	H 	0.033	0.9954	0.2795	0.022
Mof_H 	H 	0.0794	0.96	0.2651	0.021
Mof_C 	C 	0.0557	0.9552	0.3317	-0.047
Mof_H 	H 	0.0652	0.9734	0.3389	0.024
Mof_H 	H 	0.0568	0.9404	0.3475	0.023
Mof_N 	N 	0.14391	0.91542	0.27385	-0.141
Mof_C 	C 	0.023	0.9616	0.3242	-0.04
Mof_H 	H 	0.0102	0.9488	0.3361	0.021
Mof_H 	H 	0.0183	0.9822	0.3291	0.02
Mof_C 	C 	0.1068	0.8686	0.3447	-0.044
Mof_H 	H 	0.1166	0.861	0.3269	0.023
Mof_H 	H 	0.0863	0.8735	0.3394	0.022
Mof_H 	H 	0.1634	0.879	0.3462	0.023
Mof_C 	C 	0.1272	0.8901	0.2646	-0.044
Mof_H 	H 	0.1065	0.8958	0.2614	0.021
Mof_H 	H 	0.1278	0.875	0.2801	0.021
Mof_C 	C 	0.1438	0.9376	0.2495	-0.052
Mof_H 	H 	0.1551	0.9551	0.2555	0.025
Mof_H 	H 	0.1234	0.9438	0.2453	0.026
Mof_C 	C 	0.1745	0.9074	0.278	-0.035
Mof_H 	H 	0.176	0.8932	0.2944	0.018
Mof_H 	H 	0.1859	0.9251	0.2834	0.02
Mof_H 	H 	0.8389	0.8764	0.314	0.023
Mof_H 	H 	0.7856	0.8476	0.3104	0.022
Mof_H 	H 	0.7546	0.7795	0.217	0.022
Mof_H 	H 	0.79	0.7651	0.1706	0.021
Mof_C 	C 	0.7948	0.8317	0.1943	-0.047
Mof_H 	H 	0.7766	0.8389	0.1848	0.024
Mof_H 	H 	0.8096	0.8475	0.1932	0.023
Mof_N 	N 	0.83458	0.77385	0.10609	-0.141
Mof_C 	C 	0.7884	0.8242	0.227	-0.04
Mof_H 	H 	0.8012	0.8361	0.2398	0.021
Mof_H 	H 	0.7678	0.8291	0.2317	0.02
Mof_C 	C 	0.8814	0.8447	0.1432	-0.044
Mof_H 	H 	0.889	0.8269	0.1334	0.023
Mof_H 	H 	0.8765	0.8394	0.1637	0.022
Mof_H 	H 	0.871	0.8462	0.0866	0.023
Mof_C 	C 	0.8599	0.7646	0.1228	-0.044
Mof_H 	H 	0.8542	0.7614	0.1435	0.021
Mof_H 	H 	0.875	0.7801	0.1222	0.021
Mof_C 	C 	0.8124	0.7495	0.1062	-0.052
Mof_H 	H 	0.7949	0.7555	0.0949	0.025
Mof_H 	H 	0.8062	0.7453	0.1266	0.026
Mof_C 	C 	0.8426	0.778	0.0755	-0.035
Mof_H 	H 	0.8568	0.7944	0.074	0.018
Mof_H 	H 	0.8249	0.7834	0.0641	0.02
Mof_H 	H 	0.8389	0.3764	0.814	0.023
Mof_H 	H 	0.7856	0.3476	0.8104	0.022
Mof_H 	H 	0.7546	0.2795	0.717	0.022
Mof_H 	H 	0.79	0.2651	0.6706	0.021
Mof_C 	C 	0.7948	0.3317	0.6943	-0.047
Mof_H 	H 	0.7766	0.3389	0.6848	0.024
Mof_H 	H 	0.8096	0.3475	0.6932	0.023
Mof_N 	N 	0.83458	0.27385	0.60609	-0.141
Mof_C 	C 	0.7884	0.3242	0.727	-0.04
Mof_H 	H 	0.8012	0.3361	0.7398	0.021
Mof_H 	H 	0.7678	0.3291	0.7317	0.02
Mof_C 	C 	0.8814	0.3447	0.6432	-0.044
Mof_H 	H 	0.889	0.3269	0.6334	0.023
Mof_H 	H 	0.8765	0.3394	0.6637	0.022
Mof_H 	H 	0.871	0.3462	0.5866	0.023
Mof_C 	C 	0.8599	0.2646	0.6228	-0.044
Mof_H 	H 	0.8542	0.2614	0.6435	0.021
Mof_H 	H 	0.875	0.2801	0.6222	0.021
Mof_C 	C 	0.8124	0.2495	0.6062	-0.052
Mof_H 	H 	0.7949	0.2555	0.5949	0.025
Mof_H 	H 	0.8062	0.2453	0.6266	0.026
Mof_C 	C 	0.8426	0.278	0.5755	-0.035
Mof_H 	H 	0.8568	0.2944	0.574	0.018
Mof_H 	H 	0.8249	0.2834	0.5641	0.02
Mof_H 	H 	0.3389	0.8764	0.814	0.023
Mof_H 	H 	0.2856	0.8476	0.8104	0.022
Mof_H 	H 	0.2546	0.7795	0.717	0.022
Mof_H 	H 	0.29	0.7651	0.6706	0.021
Mof_C 	C 	0.2948	0.8317	0.6943	-0.047
Mof_H 	H 	0.2766	0.8389	0.6848	0.024
Mof_H 	H 	0.3096	0.8475	0.6932	0.023
Mof_N 	N 	0.33458	0.77385	0.60609	-0.141
Mof_C 	C 	0.2884	0.8242	0.727	-0.04
Mof_H 	H 	0.3012	0.8361	0.7398	0.021
Mof_H 	H 	0.2678	0.8291	0.7317	0.02
Mof_C 	C 	0.3814	0.8447	0.6432	-0.044
Mof_H 	H 	0.389	0.8269	0.6334	0.023
Mof_H 	H 	0.3765	0.8394	0.6637	0.022
Mof_H 	H 	0.371	0.8462	0.5866	0.023
Mof_C 	C 	0.3599	0.7646	0.6228	-0.044
Mof_H 	H 	0.3542	0.7614	0.6435	0.021
Mof_H 	H 	0.375	0.7801	0.6222	0.021
Mof_C 	C 	0.3124	0.7495	0.6062	-0.052
Mof_H 	H 	0.2949	0.7555	0.5949	0.025
Mof_H 	H 	0.3062	0.7453	0.6266	0.026
Mof_C 	C 	0.3426	0.778	0.5755	-0.035
Mof_H 	H 	0.3568	0.7944	0.574	0.018
Mof_H 	H 	0.3249	0.7834	0.5641	0.02
Mof_H 	H 	0.3389	0.3764	0.314	0.023
Mof_H 	H 	0.2856	0.3476	0.3104	0.022
Mof_H 	H 	0.2546	0.2795	0.217	0.022
Mof_H 	H 	0.29	0.2651	0.1706	0.021
Mof_C 	C 	0.2948	0.3317	0.1943	-0.047
Mof_H 	H 	0.2766	0.3389	0.1848	0.024
Mof_H 	H 	0.3096	0.3475	0.1932	0.023
Mof_N 	N 	0.33458	0.27385	0.10609	-0.141
Mof_C 	C 	0.2884	0.3242	0.227	-0.04
Mof_H 	H 	0.3012	0.3361	0.2398	0.021
Mof_H 	H 	0.2678	0.3291	0.2317	0.02
Mof_C 	C 	0.3814	0.3447	0.1432	-0.044
Mof_H 	H 	0.389	0.3269	0.1334	0.023
Mof_H 	H 	0.3765	0.3394	0.1637	0.022
Mof_H 	H 	0.371	0.3462	0.0866	0.023
Mof_C 	C 	0.3599	0.2646	0.1228	-0.044
Mof_H 	H 	0.3542	0.2614	0.1435	0.021
Mof_H 	H 	0.375	0.2801	0.1222	0.021
Mof_C 	C 	0.3124	0.2495	0.1062	-0.052
Mof_H 	H 	0.2949	0.2555	0.0949	0.025
Mof_H 	H 	0.3062	0.2453	0.1266	0.026
Mof_C 	C 	0.3426	0.278	0.0755	-0.035
Mof_H 	H 	0.3568	0.2944	0.074	0.018
Mof_H 	H 	0.3249	0.2834	0.0641	0.02
Mof_H 	H 	0.3389	0.8736	0.936	0.023
Mof_H 	H 	0.2856	0.9024	0.9396	0.022
Mof_H 	H 	0.2546	0.9705	0.033	0.022
Mof_H 	H 	0.29	0.9849	0.0794	0.021
Mof_C 	C 	0.2948	0.9183	0.0557	-0.047
Mof_H 	H 	0.2766	0.9111	0.0652	0.024
Mof_H 	H 	0.3096	0.9025	0.0568	0.023
Mof_N 	N 	0.33458	0.97615	0.14391	-0.141
Mof_C 	C 	0.2884	0.9258	0.023	-0.04
Mof_H 	H 	0.3012	0.9139	0.0102	0.021
Mof_H 	H 	0.2678	0.9209	0.0183	0.02
Mof_C 	C 	0.3814	0.9053	0.1068	-0.044
Mof_H 	H 	0.389	0.9231	0.1166	0.023
Mof_H 	H 	0.3765	0.9106	0.0863	0.022
Mof_H 	H 	0.371	0.9038	0.1634	0.023
Mof_C 	C 	0.3599	0.9854	0.1272	-0.044
Mof_H 	H 	0.3542	0.9886	0.1065	0.021
Mof_H 	H 	0.375	0.9699	0.1278	0.021
Mof_C 	C 	0.3124	0.0005	0.1438	-0.052
Mof_H 	H 	0.2949	0.9945	0.1551	0.025
Mof_H 	H 	0.3062	0.0047	0.1234	0.026
Mof_C 	C 	0.3426	0.972	0.1745	-0.035
Mof_H 	H 	0.3568	0.9556	0.176	0.018
Mof_H 	H 	0.3249	0.9666	0.1859	0.02
Mof_H 	H 	0.3389	0.3736	0.436	0.023
Mof_H 	H 	0.2856	0.4024	0.4396	0.022
Mof_H 	H 	0.2546	0.4705	0.533	0.022
Mof_H 	H 	0.29	0.4849	0.5794	0.021
Mof_C 	C 	0.2948	0.4183	0.5557	-0.047
Mof_H 	H 	0.2766	0.4111	0.5652	0.024
Mof_H 	H 	0.3096	0.4025	0.5568	0.023
Mof_N 	N 	0.33458	0.47615	0.64391	-0.141
Mof_C 	C 	0.2884	0.4258	0.523	-0.04
Mof_H 	H 	0.3012	0.4139	0.5102	0.021
Mof_H 	H 	0.2678	0.4209	0.5183	0.02
Mof_C 	C 	0.3814	0.4053	0.6068	-0.044
Mof_H 	H 	0.389	0.4231	0.6166	0.023
Mof_H 	H 	0.3765	0.4106	0.5863	0.022
Mof_H 	H 	0.371	0.4038	0.6634	0.023
Mof_C 	C 	0.3599	0.4854	0.6272	-0.044
Mof_H 	H 	0.3542	0.4886	0.6065	0.021
Mof_H 	H 	0.375	0.4699	0.6278	0.021
Mof_C 	C 	0.3124	0.5005	0.6438	-0.052
Mof_H 	H 	0.2949	0.4945	0.6551	0.025
Mof_H 	H 	0.3062	0.5047	0.6234	0.026
Mof_C 	C 	0.3426	0.472	0.6745	-0.035
Mof_H 	H 	0.3568	0.4556	0.676	0.018
Mof_H 	H 	0.3249	0.4666	0.6859	0.02
Mof_H 	H 	0.8389	0.8736	0.436	0.023
Mof_H 	H 	0.7856	0.9024	0.4396	0.022
Mof_H 	H 	0.7546	0.9705	0.533	0.022
Mof_H 	H 	0.79	0.9849	0.5794	0.021
Mof_C 	C 	0.7948	0.9183	0.5557	-0.047
Mof_H 	H 	0.7766	0.9111	0.5652	0.024
Mof_H 	H 	0.8096	0.9025	0.5568	0.023
Mof_N 	N 	0.83458	0.97615	0.64391	-0.141
Mof_C 	C 	0.7884	0.9258	0.523	-0.04
Mof_H 	H 	0.8012	0.9139	0.5102	0.021
Mof_H 	H 	0.7678	0.9209	0.5183	0.02
Mof_C 	C 	0.8814	0.9053	0.6068	-0.044
Mof_H 	H 	0.889	0.9231	0.6166	0.023
Mof_H 	H 	0.8765	0.9106	0.5863	0.022
Mof_H 	H 	0.871	0.9038	0.6634	0.023
Mof_C 	C 	0.8599	0.9854	0.6272	-0.044
Mof_H 	H 	0.8542	0.9886	0.6065	0.021
Mof_H 	H 	0.875	0.9699	0.6278	0.021
Mof_C 	C 	0.8124	0.0005	0.6438	-0.052
Mof_H 	H 	0.7949	0.9945	0.6551	0.025
Mof_H 	H 	0.8062	0.0047	0.6234	0.026
Mof_C 	C 	0.8426	0.972	0.6745	-0.035
Mof_H 	H 	0.8568	0.9556	0.676	0.018
Mof_H 	H 	0.8249	0.9666	0.6859	0.02
Mof_H 	H 	0.8389	0.3736	0.936	0.023
Mof_H 	H 	0.7856	0.4024	0.9396	0.022
Mof_H 	H 	0.7546	0.4705	0.033	0.022
Mof_H 	H 	0.79	0.4849	0.0794	0.021
Mof_C 	C 	0.7948	0.4183	0.0557	-0.047
Mof_H 	H 	0.7766	0.4111	0.0652	0.024
Mof_H 	H 	0.8096	0.4025	0.0568	0.023
Mof_N 	N 	0.83458	0.47615	0.14391	-0.141
Mof_C 	C 	0.7884	0.4258	0.023	-0.04
Mof_H 	H 	0.8012	0.4139	0.0102	0.021
Mof_H 	H 	0.7678	0.4209	0.0183	0.02
Mof_C 	C 	0.8814	0.4053	0.1068	-0.044
Mof_H 	H 	0.889	0.4231	0.1166	0.023
Mof_H 	H 	0.8765	0.4106	0.0863	0.022
Mof_H 	H 	0.871	0.4038	0.1634	0.023
Mof_C 	C 	0.8599	0.4854	0.1272	-0.044
Mof_H 	H 	0.8542	0.4886	0.1065	0.021
Mof_H 	H 	0.875	0.4699	0.1278	0.021
Mof_C 	C 	0.8124	0.5005	0.1438	-0.052
Mof_H 	H 	0.7949	0.4945	0.1551	0.025
Mof_H 	H 	0.8062	0.5047	0.1234	0.026
Mof_C 	C 	0.8426	0.472	0.1745	-0.035
Mof_H 	H 	0.8568	0.4556	0.176	0.018
Mof_H 	H 	0.8249	0.4666	0.1859	0.02
Mof_H 	H 	0.4111	0.3764	0.436	0.023
Mof_H 	H 	0.4644	0.3476	0.4396	0.022
Mof_H 	H 	0.4954	0.2795	0.533	0.022
Mof_H 	H 	0.46	0.2651	0.5794	0.021
Mof_C 	C 	0.4552	0.3317	0.5557	-0.047
Mof_H 	H 	0.4734	0.3389	0.5652	0.024
Mof_H 	H 	0.4404	0.3475	0.5568	0.023
Mof_N 	N 	0.41542	0.27385	0.64391	-0.141
Mof_C 	C 	0.4616	0.3242	0.523	-0.04
Mof_H 	H 	0.4488	0.3361	0.5102	0.021
Mof_H 	H 	0.4822	0.3291	0.5183	0.02
Mof_C 	C 	0.3686	0.3447	0.6068	-0.044
Mof_H 	H 	0.361	0.3269	0.6166	0.023
Mof_H 	H 	0.3735	0.3394	0.5863	0.022
Mof_H 	H 	0.379	0.3462	0.6634	0.023
Mof_C 	C 	0.3901	0.2646	0.6272	-0.044
Mof_H 	H 	0.3958	0.2614	0.6065	0.021
Mof_H 	H 	0.375	0.2801	0.6278	0.021
Mof_C 	C 	0.4376	0.2495	0.6438	-0.052
Mof_H 	H 	0.4551	0.2555	0.6551	0.025
Mof_H 	H 	0.4438	0.2453	0.6234	0.026
Mof_C 	C 	0.4074	0.278	0.6745	-0.035
Mof_H 	H 	0.3932	0.2944	0.676	0.018
Mof_H 	H 	0.4251	0.2834	0.6859	0.02
Mof_H 	H 	0.4111	0.8764	0.936	0.023
Mof_H 	H 	0.4644	0.8476	0.9396	0.022
Mof_H 	H 	0.4954	0.7795	0.033	0.022
Mof_H 	H 	0.46	0.7651	0.0794	0.021
Mof_C 	C 	0.4552	0.8317	0.0557	-0.047
Mof_H 	H 	0.4734	0.8389	0.0652	0.024
Mof_H 	H 	0.4404	0.8475	0.0568	0.023
Mof_N 	N 	0.41542	0.77385	0.14391	-0.141
Mof_C 	C 	0.4616	0.8242	0.023	-0.04
Mof_H 	H 	0.4488	0.8361	0.0102	0.021
Mof_H 	H 	0.4822	0.8291	0.0183	0.02
Mof_C 	C 	0.3686	0.8447	0.1068	-0.044
Mof_H 	H 	0.361	0.8269	0.1166	0.023
Mof_H 	H 	0.3735	0.8394	0.0863	0.022
Mof_H 	H 	0.379	0.8462	0.1634	0.023
Mof_C 	C 	0.3901	0.7646	0.1272	-0.044
Mof_H 	H 	0.3958	0.7614	0.1065	0.021
Mof_H 	H 	0.375	0.7801	0.1278	0.021
Mof_C 	C 	0.4376	0.7495	0.1438	-0.052
Mof_H 	H 	0.4551	0.7555	0.1551	0.025
Mof_H 	H 	0.4438	0.7453	0.1234	0.026
Mof_C 	C 	0.4074	0.778	0.1745	-0.035
Mof_H 	H 	0.3932	0.7944	0.176	0.018
Mof_H 	H 	0.4251	0.7834	0.1859	0.02
Mof_H 	H 	0.9111	0.3764	0.936	0.023
Mof_H 	H 	0.9644	0.3476	0.9396	0.022
Mof_H 	H 	0.9954	0.2795	0.033	0.022
Mof_H 	H 	0.96	0.2651	0.0794	0.021
Mof_C 	C 	0.9552	0.3317	0.0557	-0.047
Mof_H 	H 	0.9734	0.3389	0.0652	0.024
Mof_H 	H 	0.9404	0.3475	0.0568	0.023
Mof_N 	N 	0.91542	0.27385	0.14391	-0.141
Mof_C 	C 	0.9616	0.3242	0.023	-0.04
Mof_H 	H 	0.9488	0.3361	0.0102	0.021
Mof_H 	H 	0.9822	0.3291	0.0183	0.02
Mof_C 	C 	0.8686	0.3447	0.1068	-0.044
Mof_H 	H 	0.861	0.3269	0.1166	0.023
Mof_H 	H 	0.8735	0.3394	0.0863	0.022
Mof_H 	H 	0.879	0.3462	0.1634	0.023
Mof_C 	C 	0.8901	0.2646	0.1272	-0.044
Mof_H 	H 	0.8958	0.2614	0.1065	0.021
Mof_H 	H 	0.875	0.2801	0.1278	0.021
Mof_C 	C 	0.9376	0.2495	0.1438	-0.052
Mof_H 	H 	0.9551	0.2555	0.1551	0.025
Mof_H 	H 	0.9438	0.2453	0.1234	0.026
Mof_C 	C 	0.9074	0.278	0.1745	-0.035
Mof_H 	H 	0.8932	0.2944	0.176	0.018
Mof_H 	H 	0.9251	0.2834	0.1859	0.02
Mof_H 	H 	0.9111	0.8764	0.436	0.023
Mof_H 	H 	0.9644	0.8476	0.4396	0.022
Mof_H 	H 	0.9954	0.7795	0.533	0.022
Mof_H 	H 	0.96	0.7651	0.5794	0.021
Mof_C 	C 	0.9552	0.8317	0.5557	-0.047
Mof_H 	H 	0.9734	0.8389	0.5652	0.024
Mof_H 	H 	0.9404	0.8475	0.5568	0.023
Mof_N 	N 	0.91542	0.77385	0.64391	-0.141
Mof_C 	C 	0.9616	0.8242	0.523	-0.04
Mof_H 	H 	0.9488	0.8361	0.5102	0.021
Mof_H 	H 	0.9822	0.8291	0.5183	0.02
Mof_C 	C 	0.8686	0.8447	0.6068	-0.044
Mof_H 	H 	0.861	0.8269	0.6166	0.023
Mof_H 	H 	0.8735	0.8394	0.5863	0.022
Mof_H 	H 	0.879	0.8462	0.6634	0.023
Mof_C 	C 	0.8901	0.7646	0.6272	-0.044
Mof_H 	H 	0.8958	0.7614	0.6065	0.021
Mof_H 	H 	0.875	0.7801	0.6278	0.021
Mof_C 	C 	0.9376	0.7495	0.6438	-0.052
Mof_H 	H 	0.9551	0.7555	0.6551	0.025
Mof_H 	H 	0.9438	0.7453	0.6234	0.026
Mof_C 	C 	0.9074	0.778	0.6745	-0.035
Mof_H 	H 	0.8932	0.7944	0.676	0.018
Mof_H 	H 	0.9251	0.7834	0.6859	0.02
Mof_H 	H 	0.9111	0.3736	0.814	0.023
Mof_H 	H 	0.9644	0.4024	0.8104	0.022
Mof_H 	H 	0.9954	0.4705	0.717	0.022
Mof_H 	H 	0.96	0.4849	0.6706	0.021
Mof_C 	C 	0.9552	0.4183	0.6943	-0.047
Mof_H 	H 	0.9734	0.4111	0.6848	0.024
Mof_H 	H 	0.9404	0.4025	0.6932	0.023
Mof_N 	N 	0.91542	0.47615	0.60609	-0.141
Mof_C 	C 	0.9616	0.4258	0.727	-0.04
Mof_H 	H 	0.9488	0.4139	0.7398	0.021
Mof_H 	H 	0.9822	0.4209	0.7317	0.02
Mof_C 	C 	0.8686	0.4053	0.6432	-0.044
Mof_H 	H 	0.861	0.4231	0.6334	0.023
Mof_H 	H 	0.8735	0.4106	0.6637	0.022
Mof_H 	H 	0.879	0.4038	0.5866	0.023
Mof_C 	C 	0.8901	0.4854	0.6228	-0.044
Mof_H 	H 	0.8958	0.4886	0.6435	0.021
Mof_H 	H 	0.875	0.4699	0.6222	0.021
Mof_C 	C 	0.9376	0.5005	0.6062	-0.052
Mof_H 	H 	0.9551	0.4945	0.5949	0.025
Mof_H 	H 	0.9438	0.5047	0.6266	0.026
Mof_C 	C 	0.9074	0.472	0.5755	-0.035
Mof_H 	H 	0.8932	0.4556	0.574	0.018
Mof_H 	H 	0.9251	0.4666	0.5641	0.02
Mof_H 	H 	0.9111	0.8736	0.314	0.023
Mof_H 	H 	0.9644	0.9024	0.3104	0.022
Mof_H 	H 	0.9954	0.9705	0.217	0.022
Mof_H 	H 	0.96	0.9849	0.1706	0.021
Mof_C 	C 	0.9552	0.9183	0.1943	-0.047
Mof_H 	H 	0.9734	0.9111	0.1848	0.024
Mof_H 	H 	0.9404	0.9025	0.1932	0.023
Mof_N 	N 	0.91542	0.97615	0.10609	-0.141
Mof_C 	C 	0.9616	0.9258	0.227	-0.04
Mof_H 	H 	0.9488	0.9139	0.2398	0.021
Mof_H 	H 	0.9822	0.9209	0.2317	0.02
Mof_C 	C 	0.8686	0.9053	0.1432	-0.044
Mof_H 	H 	0.861	0.9231	0.1334	0.023
Mof_H 	H 	0.8735	0.9106	0.1637	0.022
Mof_H 	H 	0.879	0.9038	0.0866	0.023
Mof_C 	C 	0.8901	0.9854	0.1228	-0.044
Mof_H 	H 	0.8958	0.9886	0.1435	0.021
Mof_H 	H 	0.875	0.9699	0.1222	0.021
Mof_C 	C 	0.9376	0.0005	0.1062	-0.052
Mof_H 	H 	0.9551	0.9945	0.0949	0.025
Mof_H 	H 	0.9438	0.0047	0.1266	0.026
Mof_C 	C 	0.9074	0.972	0.0755	-0.035
Mof_H 	H 	0.8932	0.9556	0.074	0.018
Mof_H 	H 	0.9251	0.9666	0.0641	0.02
Mof_H 	H 	0.4111	0.3736	0.314	0.023
Mof_H 	H 	0.4644	0.4024	0.3104	0.022
Mof_H 	H 	0.4954	0.4705	0.217	0.022
Mof_H 	H 	0.46	0.4849	0.1706	0.021
Mof_C 	C 	0.4552	0.4183	0.1943	-0.047
Mof_H 	H 	0.4734	0.4111	0.1848	0.024
Mof_H 	H 	0.4404	0.4025	0.1932	0.023
Mof_N 	N 	0.41542	0.47615	0.10609	-0.141
Mof_C 	C 	0.4616	0.4258	0.227	-0.04
Mof_H 	H 	0.4488	0.4139	0.2398	0.021
Mof_H 	H 	0.4822	0.4209	0.2317	0.02
Mof_C 	C 	0.3686	0.4053	0.1432	-0.044
Mof_H 	H 	0.361	0.4231	0.1334	0.023
Mof_H 	H 	0.3735	0.4106	0.1637	0.022
Mof_H 	H 	0.379	0.4038	0.0866	0.023
Mof_C 	C 	0.3901	0.4854	0.1228	-0.044
Mof_H 	H 	0.3958	0.4886	0.1435	0.021
Mof_H 	H 	0.375	0.4699	0.1222	0.021
Mof_C 	C 	0.4376	0.5005	0.1062	-0.052
Mof_H 	H 	0.4551	0.4945	0.0949	0.025
Mof_H 	H 	0.4438	0.5047	0.1266	0.026
Mof_C 	C 	0.4074	0.472	0.0755	-0.035
Mof_H 	H 	0.3932	0.4556	0.074	0.018
Mof_H 	H 	0.4251	0.4666	0.0641	0.02
Mof_H 	H 	0.4111	0.8736	0.814	0.023
Mof_H 	H 	0.4644	0.9024	0.8104	0.022
Mof_H 	H 	0.4954	0.9705	0.717	0.022
Mof_H 	H 	0.46	0.9849	0.6706	0.021
Mof_C 	C 	0.4552	0.9183	0.6943	-0.047
Mof_H 	H 	0.4734	0.9111	0.6848	0.024
Mof_H 	H 	0.4404	0.9025	0.6932	0.023
Mof_N 	N 	0.41542	0.97615	0.60609	-0.141
Mof_C 	C 	0.4616	0.9258	0.727	-0.04
Mof_H 	H 	0.4488	0.9139	0.7398	0.021
Mof_H 	H 	0.4822	0.9209	0.7317	0.02
Mof_C 	C 	0.3686	0.9053	0.6432	-0.044
Mof_H 	H 	0.361	0.9231	0.6334	0.023
Mof_H 	H 	0.3735	0.9106	0.6637	0.022
Mof_H 	H 	0.379	0.9038	0.5866	0.023
Mof_C 	C 	0.3901	0.9854	0.6228	-0.044
Mof_H 	H 	0.3958	0.9886	0.6435	0.021
Mof_H 	H 	0.375	0.9699	0.6222	0.021
Mof_C 	C 	0.4376	0.0005	0.6062	-0.052
Mof_H 	H 	0.4551	0.9945	0.5949	0.025
Mof_H 	H 	0.4438	0.0047	0.6266	0.026
Mof_C 	C 	0.4074	0.972	0.5755	-0.035
Mof_H 	H 	0.3932	0.9556	0.574	0.018
Mof_H 	H 	0.4251	0.9666	0.5641	0.02
Mof_H 	H 	0.814	0.3736	0.9111	0.023
Mof_H 	H 	0.8104	0.4024	0.9644	0.022
Mof_H 	H 	0.717	0.4705	0.9954	0.022
Mof_H 	H 	0.6706	0.4849	0.96	0.021
Mof_C 	C 	0.6943	0.4183	0.9552	-0.047
Mof_H 	H 	0.6848	0.4111	0.9734	0.024
Mof_H 	H 	0.6932	0.4025	0.9404	0.023
Mof_N 	N 	0.60609	0.47615	0.91542	-0.141
Mof_C 	C 	0.727	0.4258	0.9616	-0.04
Mof_H 	H 	0.7398	0.4139	0.9488	0.021
Mof_H 	H 	0.7317	0.4209	0.9822	0.02
Mof_C 	C 	0.6432	0.4053	0.8686	-0.044
Mof_H 	H 	0.6334	0.4231	0.861	0.023
Mof_H 	H 	0.6637	0.4106	0.8735	0.022
Mof_H 	H 	0.5866	0.4038	0.879	0.023
Mof_C 	C 	0.6228	0.4854	0.8901	-0.044
Mof_H 	H 	0.6435	0.4886	0.8958	0.021
Mof_H 	H 	0.6222	0.4699	0.875	0.021
Mof_C 	C 	0.6062	0.5005	0.9376	-0.052
Mof_H 	H 	0.5949	0.4945	0.9551	0.025
Mof_H 	H 	0.6266	0.5047	0.9438	0.026
Mof_C 	C 	0.5755	0.472	0.9074	-0.035
Mof_H 	H 	0.574	0.4556	0.8932	0.018
Mof_H 	H 	0.5641	0.4666	0.9251	0.02
Mof_H 	H 	0.814	0.8736	0.4111	0.023
Mof_H 	H 	0.8104	0.9024	0.4644	0.022
Mof_H 	H 	0.717	0.9705	0.4954	0.022
Mof_H 	H 	0.6706	0.9849	0.46	0.021
Mof_C 	C 	0.6943	0.9183	0.4552	-0.047
Mof_H 	H 	0.6848	0.9111	0.4734	0.024
Mof_H 	H 	0.6932	0.9025	0.4404	0.023
Mof_N 	N 	0.60609	0.97615	0.41542	-0.141
Mof_C 	C 	0.727	0.9258	0.4616	-0.04
Mof_H 	H 	0.7398	0.9139	0.4488	0.021
Mof_H 	H 	0.7317	0.9209	0.4822	0.02
Mof_C 	C 	0.6432	0.9053	0.3686	-0.044
Mof_H 	H 	0.6334	0.9231	0.361	0.023
Mof_H 	H 	0.6637	0.9106	0.3735	0.022
Mof_H 	H 	0.5866	0.9038	0.379	0.023
Mof_C 	C 	0.6228	0.9854	0.3901	-0.044
Mof_H 	H 	0.6435	0.9886	0.3958	0.021
Mof_H 	H 	0.6222	0.9699	0.375	0.021
Mof_C 	C 	0.6062	0.0005	0.4376	-0.052
Mof_H 	H 	0.5949	0.9945	0.4551	0.025
Mof_H 	H 	0.6266	0.0047	0.4438	0.026
Mof_C 	C 	0.5755	0.972	0.4074	-0.035
Mof_H 	H 	0.574	0.9556	0.3932	0.018
Mof_H 	H 	0.5641	0.9666	0.4251	0.02
Mof_H 	H 	0.314	0.3736	0.4111	0.023
Mof_H 	H 	0.3104	0.4024	0.4644	0.022
Mof_H 	H 	0.217	0.4705	0.4954	0.022
Mof_H 	H 	0.1706	0.4849	0.46	0.021
Mof_C 	C 	0.1943	0.4183	0.4552	-0.047
Mof_H 	H 	0.1848	0.4111	0.4734	0.024
Mof_H 	H 	0.1932	0.4025	0.4404	0.023
Mof_N 	N 	0.10609	0.47615	0.41542	-0.141
Mof_C 	C 	0.227	0.4258	0.4616	-0.04
Mof_H 	H 	0.2398	0.4139	0.4488	0.021
Mof_H 	H 	0.2317	0.4209	0.4822	0.02
Mof_C 	C 	0.1432	0.4053	0.3686	-0.044
Mof_H 	H 	0.1334	0.4231	0.361	0.023
Mof_H 	H 	0.1637	0.4106	0.3735	0.022
Mof_H 	H 	0.0866	0.4038	0.379	0.023
Mof_C 	C 	0.1228	0.4854	0.3901	-0.044
Mof_H 	H 	0.1435	0.4886	0.3958	0.021
Mof_H 	H 	0.1222	0.4699	0.375	0.021
Mof_C 	C 	0.1062	0.5005	0.4376	-0.052
Mof_H 	H 	0.0949	0.4945	0.4551	0.025
Mof_H 	H 	0.1266	0.5047	0.4438	0.026
Mof_C 	C 	0.0755	0.472	0.4074	-0.035
Mof_H 	H 	0.074	0.4556	0.3932	0.018
Mof_H 	H 	0.0641	0.4666	0.4251	0.02
Mof_H 	H 	0.314	0.8736	0.9111	0.023
Mof_H 	H 	0.3104	0.9024	0.9644	0.022
Mof_H 	H 	0.217	0.9705	0.9954	0.022
Mof_H 	H 	0.1706	0.9849	0.96	0.021
Mof_C 	C 	0.1943	0.9183	0.9552	-0.047
Mof_H 	H 	0.1848	0.9111	0.9734	0.024
Mof_H 	H 	0.1932	0.9025	0.9404	0.023
Mof_N 	N 	0.10609	0.97615	0.91542	-0.141
Mof_C 	C 	0.227	0.9258	0.9616	-0.04
Mof_H 	H 	0.2398	0.9139	0.9488	0.021
Mof_H 	H 	0.2317	0.9209	0.9822	0.02
Mof_C 	C 	0.1432	0.9053	0.8686	-0.044
Mof_H 	H 	0.1334	0.9231	0.861	0.023
Mof_H 	H 	0.1637	0.9106	0.8735	0.022
Mof_H 	H 	0.0866	0.9038	0.879	0.023
Mof_C 	C 	0.1228	0.9854	0.8901	-0.044
Mof_H 	H 	0.1435	0.9886	0.8958	0.021
Mof_H 	H 	0.1222	0.9699	0.875	0.021
Mof_C 	C 	0.1062	0.0005	0.9376	-0.052
Mof_H 	H 	0.0949	0.9945	0.9551	0.025
Mof_H 	H 	0.1266	0.0047	0.9438	0.026
Mof_C 	C 	0.0755	0.972	0.9074	-0.035
Mof_H 	H 	0.074	0.9556	0.8932	0.018
Mof_H 	H 	0.0641	0.9666	0.9251	0.02
Mof_H 	H 	0.436	0.3764	0.4111	0.023
Mof_H 	H 	0.4396	0.3476	0.4644	0.022
Mof_H 	H 	0.533	0.2795	0.4954	0.022
Mof_H 	H 	0.5794	0.2651	0.46	0.021
Mof_C 	C 	0.5557	0.3317	0.4552	-0.047
Mof_H 	H 	0.5652	0.3389	0.4734	0.024
Mof_H 	H 	0.5568	0.3475	0.4404	0.023
Mof_N 	N 	0.64391	0.27385	0.41542	-0.141
Mof_C 	C 	0.523	0.3242	0.4616	-0.04
Mof_H 	H 	0.5102	0.3361	0.4488	0.021
Mof_H 	H 	0.5183	0.3291	0.4822	0.02
Mof_C 	C 	0.6068	0.3447	0.3686	-0.044
Mof_H 	H 	0.6166	0.3269	0.361	0.023
Mof_H 	H 	0.5863	0.3394	0.3735	0.022
Mof_H 	H 	0.6634	0.3462	0.379	0.023
Mof_C 	C 	0.6272	0.2646	0.3901	-0.044
Mof_H 	H 	0.6065	0.2614	0.3958	0.021
Mof_H 	H 	0.6278	0.2801	0.375	0.021
Mof_C 	C 	0.6438	0.2495	0.4376	-0.052
Mof_H 	H 	0.6551	0.2555	0.4551	0.025
Mof_H 	H 	0.6234	0.2453	0.4438	0.026
Mof_C 	C 	0.6745	0.278	0.4074	-0.035
Mof_H 	H 	0.676	0.2944	0.3932	0.018
Mof_H 	H 	0.6859	0.2834	0.4251	0.02
Mof_H 	H 	0.436	0.8764	0.9111	0.023
Mof_H 	H 	0.4396	0.8476	0.9644	0.022
Mof_H 	H 	0.533	0.7795	0.9954	0.022
Mof_H 	H 	0.5794	0.7651	0.96	0.021
Mof_C 	C 	0.5557	0.8317	0.9552	-0.047
Mof_H 	H 	0.5652	0.8389	0.9734	0.024
Mof_H 	H 	0.5568	0.8475	0.9404	0.023
Mof_N 	N 	0.64391	0.77385	0.91542	-0.141
Mof_C 	C 	0.523	0.8242	0.9616	-0.04
Mof_H 	H 	0.5102	0.8361	0.9488	0.021
Mof_H 	H 	0.5183	0.8291	0.9822	0.02
Mof_C 	C 	0.6068	0.8447	0.8686	-0.044
Mof_H 	H 	0.6166	0.8269	0.861	0.023
Mof_H 	H 	0.5863	0.8394	0.8735	0.022
Mof_H 	H 	0.6634	0.8462	0.879	0.023
Mof_C 	C 	0.6272	0.7646	0.8901	-0.044
Mof_H 	H 	0.6065	0.7614	0.8958	0.021
Mof_H 	H 	0.6278	0.7801	0.875	0.021
Mof_C 	C 	0.6438	0.7495	0.9376	-0.052
Mof_H 	H 	0.6551	0.7555	0.9551	0.025
Mof_H 	H 	0.6234	0.7453	0.9438	0.026
Mof_C 	C 	0.6745	0.778	0.9074	-0.035
Mof_H 	H 	0.676	0.7944	0.8932	0.018
Mof_H 	H 	0.6859	0.7834	0.9251	0.02
Mof_H 	H 	0.936	0.3764	0.9111	0.023
Mof_H 	H 	0.9396	0.3476	0.9644	0.022
Mof_H 	H 	0.033	0.2795	0.9954	0.022
Mof_H 	H 	0.0794	0.2651	0.96	0.021
Mof_C 	C 	0.0557	0.3317	0.9552	-0.047
Mof_H 	H 	0.0652	0.3389	0.9734	0.024
Mof_H 	H 	0.0568	0.3475	0.9404	0.023
Mof_N 	N 	0.14391	0.27385	0.91542	-0.141
Mof_C 	C 	0.023	0.3242	0.9616	-0.04
Mof_H 	H 	0.0102	0.3361	0.9488	0.021
Mof_H 	H 	0.0183	0.3291	0.9822	0.02
Mof_C 	C 	0.1068	0.3447	0.8686	-0.044
Mof_H 	H 	0.1166	0.3269	0.861	0.023
Mof_H 	H 	0.0863	0.3394	0.8735	0.022
Mof_H 	H 	0.1634	0.3462	0.879	0.023
Mof_C 	C 	0.1272	0.2646	0.8901	-0.044
Mof_H 	H 	0.1065	0.2614	0.8958	0.021
Mof_H 	H 	0.1278	0.2801	0.875	0.021
Mof_C 	C 	0.1438	0.2495	0.9376	-0.052
Mof_H 	H 	0.1551	0.2555	0.9551	0.025
Mof_H 	H 	0.1234	0.2453	0.9438	0.026
Mof_C 	C 	0.1745	0.278	0.9074	-0.035
Mof_H 	H 	0.176	0.2944	0.8932	0.018
Mof_H 	H 	0.1859	0.2834	0.9251	0.02
Mof_H 	H 	0.936	0.8764	0.4111	0.023
Mof_H 	H 	0.9396	0.8476	0.4644	0.022
Mof_H 	H 	0.033	0.7795	0.4954	0.022
Mof_H 	H 	0.0794	0.7651	0.46	0.021
Mof_C 	C 	0.0557	0.8317	0.4552	-0.047
Mof_H 	H 	0.0652	0.8389	0.4734	0.024
Mof_H 	H 	0.0568	0.8475	0.4404	0.023
Mof_N 	N 	0.14391	0.77385	0.41542	-0.141
Mof_C 	C 	0.023	0.8242	0.4616	-0.04
Mof_H 	H 	0.0102	0.8361	0.4488	0.021
Mof_H 	H 	0.0183	0.8291	0.4822	0.02
Mof_C 	C 	0.1068	0.8447	0.3686	-0.044
Mof_H 	H 	0.1166	0.8269	0.361	0.023
Mof_H 	H 	0.0863	0.8394	0.3735	0.022
Mof_H 	H 	0.1634	0.8462	0.379	0.023
Mof_C 	C 	0.1272	0.7646	0.3901	-0.044
Mof_H 	H 	0.1065	0.7614	0.3958	0.021
Mof_H 	H 	0.1278	0.7801	0.375	0.021
Mof_C 	C 	0.1438	0.7495	0.4376	-0.052
Mof_H 	H 	0.1551	0.7555	0.4551	0.025
Mof_H 	H 	0.1234	0.7453	0.4438	0.026
Mof_C 	C 	0.1745	0.778	0.4074	-0.035
Mof_H 	H 	0.176	0.7944	0.3932	0.018
Mof_H 	H 	0.1859	0.7834	0.4251	0.02
Mof_H 	H 	0.936	0.8736	0.3389	0.023
Mof_H 	H 	0.9396	0.9024	0.2856	0.022
Mof_H 	H 	0.033	0.9705	0.2546	0.022
Mof_H 	H 	0.0794	0.9849	0.29	0.021
Mof_C 	C 	0.0557	0.9183	0.2948	-0.047
Mof_H 	H 	0.0652	0.9111	0.2766	0.024
Mof_H 	H 	0.0568	0.9025	0.3096	0.023
Mof_N 	N 	0.14391	0.97615	0.33458	-0.141
Mof_C 	C 	0.023	0.9258	0.2884	-0.04
Mof_H 	H 	0.0102	0.9139	0.3012	0.021
Mof_H 	H 	0.0183	0.9209	0.2678	0.02
Mof_C 	C 	0.1068	0.9053	0.3814	-0.044
Mof_H 	H 	0.1166	0.9231	0.389	0.023
Mof_H 	H 	0.0863	0.9106	0.3765	0.022
Mof_H 	H 	0.1634	0.9038	0.371	0.023
Mof_C 	C 	0.1272	0.9854	0.3599	-0.044
Mof_H 	H 	0.1065	0.9886	0.3542	0.021
Mof_H 	H 	0.1278	0.9699	0.375	0.021
Mof_C 	C 	0.1438	0.0005	0.3124	-0.052
Mof_H 	H 	0.1551	0.9945	0.2949	0.025
Mof_H 	H 	0.1234	0.0047	0.3062	0.026
Mof_C 	C 	0.1745	0.972	0.3426	-0.035
Mof_H 	H 	0.176	0.9556	0.3568	0.018
Mof_H 	H 	0.1859	0.9666	0.3249	0.02
Mof_H 	H 	0.936	0.3736	0.8389	0.023
Mof_H 	H 	0.9396	0.4024	0.7856	0.022
Mof_H 	H 	0.033	0.4705	0.7546	0.022
Mof_H 	H 	0.0794	0.4849	0.79	0.021
Mof_C 	C 	0.0557	0.4183	0.7948	-0.047
Mof_H 	H 	0.0652	0.4111	0.7766	0.024
Mof_H 	H 	0.0568	0.4025	0.8096	0.023
Mof_N 	N 	0.14391	0.47615	0.83458	-0.141
Mof_C 	C 	0.023	0.4258	0.7884	-0.04
Mof_H 	H 	0.0102	0.4139	0.8012	0.021
Mof_H 	H 	0.0183	0.4209	0.7678	0.02
Mof_C 	C 	0.1068	0.4053	0.8814	-0.044
Mof_H 	H 	0.1166	0.4231	0.889	0.023
Mof_H 	H 	0.0863	0.4106	0.8765	0.022
Mof_H 	H 	0.1634	0.4038	0.871	0.023
Mof_C 	C 	0.1272	0.4854	0.8599	-0.044
Mof_H 	H 	0.1065	0.4886	0.8542	0.021
Mof_H 	H 	0.1278	0.4699	0.875	0.021
Mof_C 	C 	0.1438	0.5005	0.8124	-0.052
Mof_H 	H 	0.1551	0.4945	0.7949	0.025
Mof_H 	H 	0.1234	0.5047	0.8062	0.026
Mof_C 	C 	0.1745	0.472	0.8426	-0.035
Mof_H 	H 	0.176	0.4556	0.8568	0.018
Mof_H 	H 	0.1859	0.4666	0.8249	0.02
Mof_H 	H 	0.436	0.8736	0.8389	0.023
Mof_H 	H 	0.4396	0.9024	0.7856	0.022
Mof_H 	H 	0.533	0.9705	0.7546	0.022
Mof_H 	H 	0.5794	0.9849	0.79	0.021
Mof_C 	C 	0.5557	0.9183	0.7948	-0.047
Mof_H 	H 	0.5652	0.9111	0.7766	0.024
Mof_H 	H 	0.5568	0.9025	0.8096	0.023
Mof_N 	N 	0.64391	0.97615	0.83458	-0.141
Mof_C 	C 	0.523	0.9258	0.7884	-0.04
Mof_H 	H 	0.5102	0.9139	0.8012	0.021
Mof_H 	H 	0.5183	0.9209	0.7678	0.02
Mof_C 	C 	0.6068	0.9053	0.8814	-0.044
Mof_H 	H 	0.6166	0.9231	0.889	0.023
Mof_H 	H 	0.5863	0.9106	0.8765	0.022
Mof_H 	H 	0.6634	0.9038	0.871	0.023
Mof_C 	C 	0.6272	0.9854	0.8599	-0.044
Mof_H 	H 	0.6065	0.9886	0.8542	0.021
Mof_H 	H 	0.6278	0.9699	0.875	0.021
Mof_C 	C 	0.6438	0.0005	0.8124	-0.052
Mof_H 	H 	0.6551	0.9945	0.7949	0.025
Mof_H 	H 	0.6234	0.0047	0.8062	0.026
Mof_C 	C 	0.6745	0.972	0.8426	-0.035
Mof_H 	H 	0.676	0.9556	0.8568	0.018
Mof_H 	H 	0.6859	0.9666	0.8249	0.02
Mof_H 	H 	0.436	0.3736	0.3389	0.023
Mof_H 	H 	0.4396	0.4024	0.2856	0.022
Mof_H 	H 	0.533	0.4705	0.2546	0.022
Mof_H 	H 	0.5794	0.4849	0.29	0.021
Mof_C 	C 	0.5557	0.4183	0.2948	-0.047
Mof_H 	H 	0.5652	0.4111	0.2766	0.024
Mof_H 	H 	0.5568	0.4025	0.3096	0.023
Mof_N 	N 	0.64391	0.47615	0.33458	-0.141
Mof_C 	C 	0.523	0.4258	0.2884	-0.04
Mof_H 	H 	0.5102	0.4139	0.3012	0.021
Mof_H 	H 	0.5183	0.4209	0.2678	0.02
Mof_C 	C 	0.6068	0.4053	0.3814	-0.044
Mof_H 	H 	0.6166	0.4231	0.389	0.023
Mof_H 	H 	0.5863	0.4106	0.3765	0.022
Mof_H 	H 	0.6634	0.4038	0.371	0.023
Mof_C 	C 	0.6272	0.4854	0.3599	-0.044
Mof_H 	H 	0.6065	0.4886	0.3542	0.021
Mof_H 	H 	0.6278	0.4699	0.375	0.021
Mof_C 	C 	0.6438	0.5005	0.3124	-0.052
Mof_H 	H 	0.6551	0.4945	0.2949	0.025
Mof_H 	H 	0.6234	0.5047	0.3062	0.026
Mof_C 	C 	0.6745	0.472	0.3426	-0.035
Mof_H 	H 	0.676	0.4556	0.3568	0.018
Mof_H 	H 	0.6859	0.4666	0.3249	0.02
Mof_H 	H 	0.314	0.8764	0.8389	0.023
Mof_H 	H 	0.3104	0.8476	0.7856	0.022
Mof_H 	H 	0.217	0.7795	0.7546	0.022
Mof_H 	H 	0.1706	0.7651	0.79	0.021
Mof_C 	C 	0.1943	0.8317	0.7948	-0.047
Mof_H 	H 	0.1848	0.8389	0.7766	0.024
Mof_H 	H 	0.1932	0.8475	0.8096	0.023
Mof_N 	N 	0.10609	0.77385	0.83458	-0.141
Mof_C 	C 	0.227	0.8242	0.7884	-0.04
Mof_H 	H 	0.2398	0.8361	0.8012	0.021
Mof_H 	H 	0.2317	0.8291	0.7678	0.02
Mof_C 	C 	0.1432	0.8447	0.8814	-0.044
Mof_H 	H 	0.1334	0.8269	0.889	0.023
Mof_H 	H 	0.1637	0.8394	0.8765	0.022
Mof_H 	H 	0.0866	0.8462	0.871	0.023
Mof_C 	C 	0.1228	0.7646	0.8599	-0.044
Mof_H 	H 	0.1435	0.7614	0.8542	0.021
Mof_H 	H 	0.1222	0.7801	0.875	0.021
Mof_C 	C 	0.1062	0.7495	0.8124	-0.052
Mof_H 	H 	0.0949	0.7555	0.7949	0.025
Mof_H 	H 	0.1266	0.7453	0.8062	0.026
Mof_C 	C 	0.0755	0.778	0.8426	-0.035
Mof_H 	H 	0.074	0.7944	0.8568	0.018
Mof_H 	H 	0.0641	0.7834	0.8249	0.02
Mof_H 	H 	0.314	0.3764	0.3389	0.023
Mof_H 	H 	0.3104	0.3476	0.2856	0.022
Mof_H 	H 	0.217	0.2795	0.2546	0.022
Mof_H 	H 	0.1706	0.2651	0.29	0.021
Mof_C 	C 	0.1943	0.3317	0.2948	-0.047
Mof_H 	H 	0.1848	0.3389	0.2766	0.024
Mof_H 	H 	0.1932	0.3475	0.3096	0.023
Mof_N 	N 	0.10609	0.27385	0.33458	-0.141
Mof_C 	C 	0.227	0.3242	0.2884	-0.04
Mof_H 	H 	0.2398	0.3361	0.3012	0.021
Mof_H 	H 	0.2317	0.3291	0.2678	0.02
Mof_C 	C 	0.1432	0.3447	0.3814	-0.044
Mof_H 	H 	0.1334	0.3269	0.389	0.023
Mof_H 	H 	0.1637	0.3394	0.3765	0.022
Mof_H 	H 	0.0866	0.3462	0.371	0.023
Mof_C 	C 	0.1228	0.2646	0.3599	-0.044
Mof_H 	H 	0.1435	0.2614	0.3542	0.021
Mof_H 	H 	0.1222	0.2801	0.375	0.021
Mof_C 	C 	0.1062	0.2495	0.3124	-0.052
Mof_H 	H 	0.0949	0.2555	0.2949	0.025
Mof_H 	H 	0.1266	0.2453	0.3062	0.026
Mof_C 	C 	0.0755	0.278	0.3426	-0.035
Mof_H 	H 	0.074	0.2944	0.3568	0.018
Mof_H 	H 	0.0641	0.2834	0.3249	0.02
Mof_H 	H 	0.814	0.8764	0.3389	0.023
Mof_H 	H 	0.8104	0.8476	0.2856	0.022
Mof_H 	H 	0.717	0.7795	0.2546	0.022
Mof_H 	H 	0.6706	0.7651	0.29	0.021
Mof_C 	C 	0.6943	0.8317	0.2948	-0.047
Mof_H 	H 	0.6848	0.8389	0.2766	0.024
Mof_H 	H 	0.6932	0.8475	0.3096	0.023
Mof_N 	N 	0.60609	0.77385	0.33458	-0.141
Mof_C 	C 	0.727	0.8242	0.2884	-0.04
Mof_H 	H 	0.7398	0.8361	0.3012	0.021
Mof_H 	H 	0.7317	0.8291	0.2678	0.02
Mof_C 	C 	0.6432	0.8447	0.3814	-0.044
Mof_H 	H 	0.6334	0.8269	0.389	0.023
Mof_H 	H 	0.6637	0.8394	0.3765	0.022
Mof_H 	H 	0.5866	0.8462	0.371	0.023
Mof_C 	C 	0.6228	0.7646	0.3599	-0.044
Mof_H 	H 	0.6435	0.7614	0.3542	0.021
Mof_H 	H 	0.6222	0.7801	0.375	0.021
Mof_C 	C 	0.6062	0.7495	0.3124	-0.052
Mof_H 	H 	0.5949	0.7555	0.2949	0.025
Mof_H 	H 	0.6266	0.7453	0.3062	0.026
Mof_C 	C 	0.5755	0.778	0.3426	-0.035
Mof_H 	H 	0.574	0.7944	0.3568	0.018
Mof_H 	H 	0.5641	0.7834	0.3249	0.02
Mof_H 	H 	0.814	0.3764	0.8389	0.023
Mof_H 	H 	0.8104	0.3476	0.7856	0.022
Mof_H 	H 	0.717	0.2795	0.7546	0.022
Mof_H 	H 	0.6706	0.2651	0.79	0.021
Mof_C 	C 	0.6943	0.3317	0.7948	-0.047
Mof_H 	H 	0.6848	0.3389	0.7766	0.024
Mof_H 	H 	0.6932	0.3475	0.8096	0.023
Mof_N 	N 	0.60609	0.27385	0.83458	-0.141
Mof_C 	C 	0.727	0.3242	0.7884	-0.04
Mof_H 	H 	0.7398	0.3361	0.8012	0.021
Mof_H 	H 	0.7317	0.3291	0.7678	0.02
Mof_C 	C 	0.6432	0.3447	0.8814	-0.044
Mof_H 	H 	0.6334	0.3269	0.889	0.023
Mof_H 	H 	0.6637	0.3394	0.8765	0.022
Mof_H 	H 	0.5866	0.3462	0.871	0.023
Mof_C 	C 	0.6228	0.2646	0.8599	-0.044
Mof_H 	H 	0.6435	0.2614	0.8542	0.021
Mof_H 	H 	0.6222	0.2801	0.875	0.021
Mof_C 	C 	0.6062	0.2495	0.8124	-0.052
Mof_H 	H 	0.5949	0.2555	0.7949	0.025
Mof_H 	H 	0.6266	0.2453	0.8062	0.026
Mof_C 	C 	0.5755	0.278	0.8426	-0.035
Mof_H 	H 	0.574	0.2944	0.8568	0.018
Mof_H 	H 	0.5641	0.2834	0.8249	0.02
Mof_H 	H 	0.9111	0.814	0.3736	0.023
Mof_H 	H 	0.9644	0.8104	0.4024	0.022
Mof_H 	H 	0.9954	0.717	0.4705	0.022
Mof_H 	H 	0.96	0.6706	0.4849	0.021
Mof_C 	C 	0.9552	0.6943	0.4183	-0.047
Mof_H 	H 	0.9734	0.6848	0.4111	0.024
Mof_H 	H 	0.9404	0.6932	0.4025	0.023
Mof_N 	N 	0.91542	0.60609	0.47615	-0.141
Mof_C 	C 	0.9616	0.727	0.4258	-0.04
Mof_H 	H 	0.9488	0.7398	0.4139	0.021
Mof_H 	H 	0.9822	0.7317	0.4209	0.02
Mof_C 	C 	0.8686	0.6432	0.4053	-0.044
Mof_H 	H 	0.861	0.6334	0.4231	0.023
Mof_H 	H 	0.8735	0.6637	0.4106	0.022
Mof_H 	H 	0.879	0.5866	0.4038	0.023
Mof_C 	C 	0.8901	0.6228	0.4854	-0.044
Mof_H 	H 	0.8958	0.6435	0.4886	0.021
Mof_H 	H 	0.875	0.6222	0.4699	0.021
Mof_C 	C 	0.9376	0.6062	0.5005	-0.052
Mof_H 	H 	0.9551	0.5949	0.4945	0.025
Mof_H 	H 	0.9438	0.6266	0.5047	0.026
Mof_C 	C 	0.9074	0.5755	0.472	-0.035
Mof_H 	H 	0.8932	0.574	0.4556	0.018
Mof_H 	H 	0.9251	0.5641	0.4666	0.02
Mof_H 	H 	0.9111	0.314	0.8736	0.023
Mof_H 	H 	0.9644	0.3104	0.9024	0.022
Mof_H 	H 	0.9954	0.217	0.9705	0.022
Mof_H 	H 	0.96	0.1706	0.9849	0.021
Mof_C 	C 	0.9552	0.1943	0.9183	-0.047
Mof_H 	H 	0.9734	0.1848	0.9111	0.024
Mof_H 	H 	0.9404	0.1932	0.9025	0.023
Mof_N 	N 	0.91542	0.10609	0.97615	-0.141
Mof_C 	C 	0.9616	0.227	0.9258	-0.04
Mof_H 	H 	0.9488	0.2398	0.9139	0.021
Mof_H 	H 	0.9822	0.2317	0.9209	0.02
Mof_C 	C 	0.8686	0.1432	0.9053	-0.044
Mof_H 	H 	0.861	0.1334	0.9231	0.023
Mof_H 	H 	0.8735	0.1637	0.9106	0.022
Mof_H 	H 	0.879	0.0866	0.9038	0.023
Mof_C 	C 	0.8901	0.1228	0.9854	-0.044
Mof_H 	H 	0.8958	0.1435	0.9886	0.021
Mof_H 	H 	0.875	0.1222	0.9699	0.021
Mof_C 	C 	0.9376	0.1062	0.0005	-0.052
Mof_H 	H 	0.9551	0.0949	0.9945	0.025
Mof_H 	H 	0.9438	0.1266	0.0047	0.026
Mof_C 	C 	0.9074	0.0755	0.972	-0.035
Mof_H 	H 	0.8932	0.074	0.9556	0.018
Mof_H 	H 	0.9251	0.0641	0.9666	0.02
Mof_H 	H 	0.4111	0.814	0.8736	0.023
Mof_H 	H 	0.4644	0.8104	0.9024	0.022
Mof_H 	H 	0.4954	0.717	0.9705	0.022
Mof_H 	H 	0.46	0.6706	0.9849	0.021
Mof_C 	C 	0.4552	0.6943	0.9183	-0.047
Mof_H 	H 	0.4734	0.6848	0.9111	0.024
Mof_H 	H 	0.4404	0.6932	0.9025	0.023
Mof_N 	N 	0.41542	0.60609	0.97615	-0.141
Mof_C 	C 	0.4616	0.727	0.9258	-0.04
Mof_H 	H 	0.4488	0.7398	0.9139	0.021
Mof_H 	H 	0.4822	0.7317	0.9209	0.02
Mof_C 	C 	0.3686	0.6432	0.9053	-0.044
Mof_H 	H 	0.361	0.6334	0.9231	0.023
Mof_H 	H 	0.3735	0.6637	0.9106	0.022
Mof_H 	H 	0.379	0.5866	0.9038	0.023
Mof_C 	C 	0.3901	0.6228	0.9854	-0.044
Mof_H 	H 	0.3958	0.6435	0.9886	0.021
Mof_H 	H 	0.375	0.6222	0.9699	0.021
Mof_C 	C 	0.4376	0.6062	0.0005	-0.052
Mof_H 	H 	0.4551	0.5949	0.9945	0.025
Mof_H 	H 	0.4438	0.6266	0.0047	0.026
Mof_C 	C 	0.4074	0.5755	0.972	-0.035
Mof_H 	H 	0.3932	0.574	0.9556	0.018
Mof_H 	H 	0.4251	0.5641	0.9666	0.02
Mof_H 	H 	0.4111	0.314	0.3736	0.023
Mof_H 	H 	0.4644	0.3104	0.4024	0.022
Mof_H 	H 	0.4954	0.217	0.4705	0.022
Mof_H 	H 	0.46	0.1706	0.4849	0.021
Mof_C 	C 	0.4552	0.1943	0.4183	-0.047
Mof_H 	H 	0.4734	0.1848	0.4111	0.024
Mof_H 	H 	0.4404	0.1932	0.4025	0.023
Mof_N 	N 	0.41542	0.10609	0.47615	-0.141
Mof_C 	C 	0.4616	0.227	0.4258	-0.04
Mof_H 	H 	0.4488	0.2398	0.4139	0.021
Mof_H 	H 	0.4822	0.2317	0.4209	0.02
Mof_C 	C 	0.3686	0.1432	0.4053	-0.044
Mof_H 	H 	0.361	0.1334	0.4231	0.023
Mof_H 	H 	0.3735	0.1637	0.4106	0.022
Mof_H 	H 	0.379	0.0866	0.4038	0.023
Mof_C 	C 	0.3901	0.1228	0.4854	-0.044
Mof_H 	H 	0.3958	0.1435	0.4886	0.021
Mof_H 	H 	0.375	0.1222	0.4699	0.021
Mof_C 	C 	0.4376	0.1062	0.5005	-0.052
Mof_H 	H 	0.4551	0.0949	0.4945	0.025
Mof_H 	H 	0.4438	0.1266	0.5047	0.026
Mof_C 	C 	0.4074	0.0755	0.472	-0.035
Mof_H 	H 	0.3932	0.074	0.4556	0.018
Mof_H 	H 	0.4251	0.0641	0.4666	0.02
Mof_H 	H 	0.4111	0.436	0.3764	0.023
Mof_H 	H 	0.4644	0.4396	0.3476	0.022
Mof_H 	H 	0.4954	0.533	0.2795	0.022
Mof_H 	H 	0.46	0.5794	0.2651	0.021
Mof_C 	C 	0.4552	0.5557	0.3317	-0.047
Mof_H 	H 	0.4734	0.5652	0.3389	0.024
Mof_H 	H 	0.4404	0.5568	0.3475	0.023
Mof_N 	N 	0.41542	0.64391	0.27385	-0.141
Mof_C 	C 	0.4616	0.523	0.3242	-0.04
Mof_H 	H 	0.4488	0.5102	0.3361	0.021
Mof_H 	H 	0.4822	0.5183	0.3291	0.02
Mof_C 	C 	0.3686	0.6068	0.3447	-0.044
Mof_H 	H 	0.361	0.6166	0.3269	0.023
Mof_H 	H 	0.3735	0.5863	0.3394	0.022
Mof_H 	H 	0.379	0.6634	0.3462	0.023
Mof_C 	C 	0.3901	0.6272	0.2646	-0.044
Mof_H 	H 	0.3958	0.6065	0.2614	0.021
Mof_H 	H 	0.375	0.6278	0.2801	0.021
Mof_C 	C 	0.4376	0.6438	0.2495	-0.052
Mof_H 	H 	0.4551	0.6551	0.2555	0.025
Mof_H 	H 	0.4438	0.6234	0.2453	0.026
Mof_C 	C 	0.4074	0.6745	0.278	-0.035
Mof_H 	H 	0.3932	0.676	0.2944	0.018
Mof_H 	H 	0.4251	0.6859	0.2834	0.02
Mof_H 	H 	0.4111	0.936	0.8764	0.023
Mof_H 	H 	0.4644	0.9396	0.8476	0.022
Mof_H 	H 	0.4954	0.033	0.7795	0.022
Mof_H 	H 	0.46	0.0794	0.7651	0.021
Mof_C 	C 	0.4552	0.0557	0.8317	-0.047
Mof_H 	H 	0.4734	0.0652	0.8389	0.024
Mof_H 	H 	0.4404	0.0568	0.8475	0.023
Mof_N 	N 	0.41542	0.14391	0.77385	-0.141
Mof_C 	C 	0.4616	0.023	0.8242	-0.04
Mof_H 	H 	0.4488	0.0102	0.8361	0.021
Mof_H 	H 	0.4822	0.0183	0.8291	0.02
Mof_C 	C 	0.3686	0.1068	0.8447	-0.044
Mof_H 	H 	0.361	0.1166	0.8269	0.023
Mof_H 	H 	0.3735	0.0863	0.8394	0.022
Mof_H 	H 	0.379	0.1634	0.8462	0.023
Mof_C 	C 	0.3901	0.1272	0.7646	-0.044
Mof_H 	H 	0.3958	0.1065	0.7614	0.021
Mof_H 	H 	0.375	0.1278	0.7801	0.021
Mof_C 	C 	0.4376	0.1438	0.7495	-0.052
Mof_H 	H 	0.4551	0.1551	0.7555	0.025
Mof_H 	H 	0.4438	0.1234	0.7453	0.026
Mof_C 	C 	0.4074	0.1745	0.778	-0.035
Mof_H 	H 	0.3932	0.176	0.7944	0.018
Mof_H 	H 	0.4251	0.1859	0.7834	0.02
Mof_H 	H 	0.9111	0.436	0.8764	0.023
Mof_H 	H 	0.9644	0.4396	0.8476	0.022
Mof_H 	H 	0.9954	0.533	0.7795	0.022
Mof_H 	H 	0.96	0.5794	0.7651	0.021
Mof_C 	C 	0.9552	0.5557	0.8317	-0.047
Mof_H 	H 	0.9734	0.5652	0.8389	0.024
Mof_H 	H 	0.9404	0.5568	0.8475	0.023
Mof_N 	N 	0.91542	0.64391	0.77385	-0.141
Mof_C 	C 	0.9616	0.523	0.8242	-0.04
Mof_H 	H 	0.9488	0.5102	0.8361	0.021
Mof_H 	H 	0.9822	0.5183	0.8291	0.02
Mof_C 	C 	0.8686	0.6068	0.8447	-0.044
Mof_H 	H 	0.861	0.6166	0.8269	0.023
Mof_H 	H 	0.8735	0.5863	0.8394	0.022
Mof_H 	H 	0.879	0.6634	0.8462	0.023
Mof_C 	C 	0.8901	0.6272	0.7646	-0.044
Mof_H 	H 	0.8958	0.6065	0.7614	0.021
Mof_H 	H 	0.875	0.6278	0.7801	0.021
Mof_C 	C 	0.9376	0.6438	0.7495	-0.052
Mof_H 	H 	0.9551	0.6551	0.7555	0.025
Mof_H 	H 	0.9438	0.6234	0.7453	0.026
Mof_C 	C 	0.9074	0.6745	0.778	-0.035
Mof_H 	H 	0.8932	0.676	0.7944	0.018
Mof_H 	H 	0.9251	0.6859	0.7834	0.02
Mof_H 	H 	0.9111	0.936	0.3764	0.023
Mof_H 	H 	0.9644	0.9396	0.3476	0.022
Mof_H 	H 	0.9954	0.033	0.2795	0.022
Mof_H 	H 	0.96	0.0794	0.2651	0.021
Mof_C 	C 	0.9552	0.0557	0.3317	-0.047
Mof_H 	H 	0.9734	0.0652	0.3389	0.024
Mof_H 	H 	0.9404	0.0568	0.3475	0.023
Mof_N 	N 	0.91542	0.14391	0.27385	-0.141
Mof_C 	C 	0.9616	0.023	0.3242	-0.04
Mof_H 	H 	0.9488	0.0102	0.3361	0.021
Mof_H 	H 	0.9822	0.0183	0.3291	0.02
Mof_C 	C 	0.8686	0.1068	0.3447	-0.044
Mof_H 	H 	0.861	0.1166	0.3269	0.023
Mof_H 	H 	0.8735	0.0863	0.3394	0.022
Mof_H 	H 	0.879	0.1634	0.3462	0.023
Mof_C 	C 	0.8901	0.1272	0.2646	-0.044
Mof_H 	H 	0.8958	0.1065	0.2614	0.021
Mof_H 	H 	0.875	0.1278	0.2801	0.021
Mof_C 	C 	0.9376	0.1438	0.2495	-0.052
Mof_H 	H 	0.9551	0.1551	0.2555	0.025
Mof_H 	H 	0.9438	0.1234	0.2453	0.026
Mof_C 	C 	0.9074	0.1745	0.278	-0.035
Mof_H 	H 	0.8932	0.176	0.2944	0.018
Mof_H 	H 	0.9251	0.1859	0.2834	0.02
Mof_H 	H 	0.3389	0.936	0.8736	0.023
Mof_H 	H 	0.2856	0.9396	0.9024	0.022
Mof_H 	H 	0.2546	0.033	0.9705	0.022
Mof_H 	H 	0.29	0.0794	0.9849	0.021
Mof_C 	C 	0.2948	0.0557	0.9183	-0.047
Mof_H 	H 	0.2766	0.0652	0.9111	0.024
Mof_H 	H 	0.3096	0.0568	0.9025	0.023
Mof_N 	N 	0.33458	0.14391	0.97615	-0.141
Mof_C 	C 	0.2884	0.023	0.9258	-0.04
Mof_H 	H 	0.3012	0.0102	0.9139	0.021
Mof_H 	H 	0.2678	0.0183	0.9209	0.02
Mof_C 	C 	0.3814	0.1068	0.9053	-0.044
Mof_H 	H 	0.389	0.1166	0.9231	0.023
Mof_H 	H 	0.3765	0.0863	0.9106	0.022
Mof_H 	H 	0.371	0.1634	0.9038	0.023
Mof_C 	C 	0.3599	0.1272	0.9854	-0.044
Mof_H 	H 	0.3542	0.1065	0.9886	0.021
Mof_H 	H 	0.375	0.1278	0.9699	0.021
Mof_C 	C 	0.3124	0.1438	0.0005	-0.052
Mof_H 	H 	0.2949	0.1551	0.9945	0.025
Mof_H 	H 	0.3062	0.1234	0.0047	0.026
Mof_C 	C 	0.3426	0.1745	0.972	-0.035
Mof_H 	H 	0.3568	0.176	0.9556	0.018
Mof_H 	H 	0.3249	0.1859	0.9666	0.02
Mof_H 	H 	0.3389	0.436	0.3736	0.023
Mof_H 	H 	0.2856	0.4396	0.4024	0.022
Mof_H 	H 	0.2546	0.533	0.4705	0.022
Mof_H 	H 	0.29	0.5794	0.4849	0.021
Mof_C 	C 	0.2948	0.5557	0.4183	-0.047
Mof_H 	H 	0.2766	0.5652	0.4111	0.024
Mof_H 	H 	0.3096	0.5568	0.4025	0.023
Mof_N 	N 	0.33458	0.64391	0.47615	-0.141
Mof_C 	C 	0.2884	0.523	0.4258	-0.04
Mof_H 	H 	0.3012	0.5102	0.4139	0.021
Mof_H 	H 	0.2678	0.5183	0.4209	0.02
Mof_C 	C 	0.3814	0.6068	0.4053	-0.044
Mof_H 	H 	0.389	0.6166	0.4231	0.023
Mof_H 	H 	0.3765	0.5863	0.4106	0.022
Mof_H 	H 	0.371	0.6634	0.4038	0.023
Mof_C 	C 	0.3599	0.6272	0.4854	-0.044
Mof_H 	H 	0.3542	0.6065	0.4886	0.021
Mof_H 	H 	0.375	0.6278	0.4699	0.021
Mof_C 	C 	0.3124	0.6438	0.5005	-0.052
Mof_H 	H 	0.2949	0.6551	0.4945	0.025
Mof_H 	H 	0.3062	0.6234	0.5047	0.026
Mof_C 	C 	0.3426	0.6745	0.472	-0.035
Mof_H 	H 	0.3568	0.676	0.4556	0.018
Mof_H 	H 	0.3249	0.6859	0.4666	0.02
Mof_H 	H 	0.8389	0.936	0.3736	0.023
Mof_H 	H 	0.7856	0.9396	0.4024	0.022
Mof_H 	H 	0.7546	0.033	0.4705	0.022
Mof_H 	H 	0.79	0.0794	0.4849	0.021
Mof_C 	C 	0.7948	0.0557	0.4183	-0.047
Mof_H 	H 	0.7766	0.0652	0.4111	0.024
Mof_H 	H 	0.8096	0.0568	0.4025	0.023
Mof_N 	N 	0.83458	0.14391	0.47615	-0.141
Mof_C 	C 	0.7884	0.023	0.4258	-0.04
Mof_H 	H 	0.8012	0.0102	0.4139	0.021
Mof_H 	H 	0.7678	0.0183	0.4209	0.02
Mof_C 	C 	0.8814	0.1068	0.4053	-0.044
Mof_H 	H 	0.889	0.1166	0.4231	0.023
Mof_H 	H 	0.8765	0.0863	0.4106	0.022
Mof_H 	H 	0.871	0.1634	0.4038	0.023
Mof_C 	C 	0.8599	0.1272	0.4854	-0.044
Mof_H 	H 	0.8542	0.1065	0.4886	0.021
Mof_H 	H 	0.875	0.1278	0.4699	0.021
Mof_C 	C 	0.8124	0.1438	0.5005	-0.052
Mof_H 	H 	0.7949	0.1551	0.4945	0.025
Mof_H 	H 	0.8062	0.1234	0.5047	0.026
Mof_C 	C 	0.8426	0.1745	0.472	-0.035
Mof_H 	H 	0.8568	0.176	0.4556	0.018
Mof_H 	H 	0.8249	0.1859	0.4666	0.02
Mof_H 	H 	0.8389	0.436	0.8736	0.023
Mof_H 	H 	0.7856	0.4396	0.9024	0.022
Mof_H 	H 	0.7546	0.533	0.9705	0.022
Mof_H 	H 	0.79	0.5794	0.9849	0.021
Mof_C 	C 	0.7948	0.5557	0.9183	-0.047
Mof_H 	H 	0.7766	0.5652	0.9111	0.024
Mof_H 	H 	0.8096	0.5568	0.9025	0.023
Mof_N 	N 	0.83458	0.64391	0.97615	-0.141
Mof_C 	C 	0.7884	0.523	0.9258	-0.04
Mof_H 	H 	0.8012	0.5102	0.9139	0.021
Mof_H 	H 	0.7678	0.5183	0.9209	0.02
Mof_C 	C 	0.8814	0.6068	0.9053	-0.044
Mof_H 	H 	0.889	0.6166	0.9231	0.023
Mof_H 	H 	0.8765	0.5863	0.9106	0.022
Mof_H 	H 	0.871	0.6634	0.9038	0.023
Mof_C 	C 	0.8599	0.6272	0.9854	-0.044
Mof_H 	H 	0.8542	0.6065	0.9886	0.021
Mof_H 	H 	0.875	0.6278	0.9699	0.021
Mof_C 	C 	0.8124	0.6438	0.0005	-0.052
Mof_H 	H 	0.7949	0.6551	0.9945	0.025
Mof_H 	H 	0.8062	0.6234	0.0047	0.026
Mof_C 	C 	0.8426	0.6745	0.972	-0.035
Mof_H 	H 	0.8568	0.676	0.9556	0.018
Mof_H 	H 	0.8249	0.6859	0.9666	0.02
Mof_H 	H 	0.8389	0.314	0.8764	0.023
Mof_H 	H 	0.7856	0.3104	0.8476	0.022
Mof_H 	H 	0.7546	0.217	0.7795	0.022
Mof_H 	H 	0.79	0.1706	0.7651	0.021
Mof_C 	C 	0.7948	0.1943	0.8317	-0.047
Mof_H 	H 	0.7766	0.1848	0.8389	0.024
Mof_H 	H 	0.8096	0.1932	0.8475	0.023
Mof_N 	N 	0.83458	0.10609	0.77385	-0.141
Mof_C 	C 	0.7884	0.227	0.8242	-0.04
Mof_H 	H 	0.8012	0.2398	0.8361	0.021
Mof_H 	H 	0.7678	0.2317	0.8291	0.02
Mof_C 	C 	0.8814	0.1432	0.8447	-0.044
Mof_H 	H 	0.889	0.1334	0.8269	0.023
Mof_H 	H 	0.8765	0.1637	0.8394	0.022
Mof_H 	H 	0.871	0.0866	0.8462	0.023
Mof_C 	C 	0.8599	0.1228	0.7646	-0.044
Mof_H 	H 	0.8542	0.1435	0.7614	0.021
Mof_H 	H 	0.875	0.1222	0.7801	0.021
Mof_C 	C 	0.8124	0.1062	0.7495	-0.052
Mof_H 	H 	0.7949	0.0949	0.7555	0.025
Mof_H 	H 	0.8062	0.1266	0.7453	0.026
Mof_C 	C 	0.8426	0.0755	0.778	-0.035
Mof_H 	H 	0.8568	0.074	0.7944	0.018
Mof_H 	H 	0.8249	0.0641	0.7834	0.02
Mof_H 	H 	0.8389	0.814	0.3764	0.023
Mof_H 	H 	0.7856	0.8104	0.3476	0.022
Mof_H 	H 	0.7546	0.717	0.2795	0.022
Mof_H 	H 	0.79	0.6706	0.2651	0.021
Mof_C 	C 	0.7948	0.6943	0.3317	-0.047
Mof_H 	H 	0.7766	0.6848	0.3389	0.024
Mof_H 	H 	0.8096	0.6932	0.3475	0.023
Mof_N 	N 	0.83458	0.60609	0.27385	-0.141
Mof_C 	C 	0.7884	0.727	0.3242	-0.04
Mof_H 	H 	0.8012	0.7398	0.3361	0.021
Mof_H 	H 	0.7678	0.7317	0.3291	0.02
Mof_C 	C 	0.8814	0.6432	0.3447	-0.044
Mof_H 	H 	0.889	0.6334	0.3269	0.023
Mof_H 	H 	0.8765	0.6637	0.3394	0.022
Mof_H 	H 	0.871	0.5866	0.3462	0.023
Mof_C 	C 	0.8599	0.6228	0.2646	-0.044
Mof_H 	H 	0.8542	0.6435	0.2614	0.021
Mof_H 	H 	0.875	0.6222	0.2801	0.021
Mof_C 	C 	0.8124	0.6062	0.2495	-0.052
Mof_H 	H 	0.7949	0.5949	0.2555	0.025
Mof_H 	H 	0.8062	0.6266	0.2453	0.026
Mof_C 	C 	0.8426	0.5755	0.278	-0.035
Mof_H 	H 	0.8568	0.574	0.2944	0.018
Mof_H 	H 	0.8249	0.5641	0.2834	0.02
Mof_H 	H 	0.3389	0.314	0.3764	0.023
Mof_H 	H 	0.2856	0.3104	0.3476	0.022
Mof_H 	H 	0.2546	0.217	0.2795	0.022
Mof_H 	H 	0.29	0.1706	0.2651	0.021
Mof_C 	C 	0.2948	0.1943	0.3317	-0.047
Mof_H 	H 	0.2766	0.1848	0.3389	0.024
Mof_H 	H 	0.3096	0.1932	0.3475	0.023
Mof_N 	N 	0.33458	0.10609	0.27385	-0.141
Mof_C 	C 	0.2884	0.227	0.3242	-0.04
Mof_H 	H 	0.3012	0.2398	0.3361	0.021
Mof_H 	H 	0.2678	0.2317	0.3291	0.02
Mof_C 	C 	0.3814	0.1432	0.3447	-0.044
Mof_H 	H 	0.389	0.1334	0.3269	0.023
Mof_H 	H 	0.3765	0.1637	0.3394	0.022
Mof_H 	H 	0.371	0.0866	0.3462	0.023
Mof_C 	C 	0.3599	0.1228	0.2646	-0.044
Mof_H 	H 	0.3542	0.1435	0.2614	0.021
Mof_H 	H 	0.375	0.1222	0.2801	0.021
Mof_C 	C 	0.3124	0.1062	0.2495	-0.052
Mof_H 	H 	0.2949	0.0949	0.2555	0.025
Mof_H 	H 	0.3062	0.1266	0.2453	0.026
Mof_C 	C 	0.3426	0.0755	0.278	-0.035
Mof_H 	H 	0.3568	0.074	0.2944	0.018
Mof_H 	H 	0.3249	0.0641	0.2834	0.02
Mof_H 	H 	0.3389	0.814	0.8764	0.023
Mof_H 	H 	0.2856	0.8104	0.8476	0.022
Mof_H 	H 	0.2546	0.717	0.7795	0.022
Mof_H 	H 	0.29	0.6706	0.7651	0.021
Mof_C 	C 	0.2948	0.6943	0.8317	-0.047
Mof_H 	H 	0.2766	0.6848	0.8389	0.024
Mof_H 	H 	0.3096	0.6932	0.8475	0.023
Mof_N 	N 	0.33458	0.60609	0.77385	-0.141
Mof_C 	C 	0.2884	0.727	0.8242	-0.04
Mof_H 	H 	0.3012	0.7398	0.8361	0.021
Mof_H 	H 	0.2678	0.7317	0.8291	0.02
Mof_C 	C 	0.3814	0.6432	0.8447	-0.044
Mof_H 	H 	0.389	0.6334	0.8269	0.023
Mof_H 	H 	0.3765	0.6637	0.8394	0.022
Mof_H 	H 	0.371	0.5866	0.8462	0.023
Mof_C 	C 	0.3599	0.6228	0.7646	-0.044
Mof_H 	H 	0.3542	0.6435	0.7614	0.021
Mof_H 	H 	0.375	0.6222	0.7801	0.021
Mof_C 	C 	0.3124	0.6062	0.7495	-0.052
Mof_H 	H 	0.2949	0.5949	0.7555	0.025
Mof_H 	H 	0.3062	0.6266	0.7453	0.026
Mof_C 	C 	0.3426	0.5755	0.778	-0.035
Mof_H 	H 	0.3568	0.574	0.7944	0.018
Mof_H 	H 	0.3249	0.5641	0.7834	0.02
Mof_H 	H 	0.3736	0.9111	0.814	0.023
Mof_H 	H 	0.4024	0.9644	0.8104	0.022
Mof_H 	H 	0.4705	0.9954	0.717	0.022
Mof_H 	H 	0.4849	0.96	0.6706	0.021
Mof_C 	C 	0.4183	0.9552	0.6943	-0.047
Mof_H 	H 	0.4111	0.9734	0.6848	0.024
Mof_H 	H 	0.4025	0.9404	0.6932	0.023
Mof_N 	N 	0.47615	0.91542	0.60609	-0.141
Mof_C 	C 	0.4258	0.9616	0.727	-0.04
Mof_H 	H 	0.4139	0.9488	0.7398	0.021
Mof_H 	H 	0.4209	0.9822	0.7317	0.02
Mof_C 	C 	0.4053	0.8686	0.6432	-0.044
Mof_H 	H 	0.4231	0.861	0.6334	0.023
Mof_H 	H 	0.4106	0.8735	0.6637	0.022
Mof_H 	H 	0.4038	0.879	0.5866	0.023
Mof_C 	C 	0.4854	0.8901	0.6228	-0.044
Mof_H 	H 	0.4886	0.8958	0.6435	0.021
Mof_H 	H 	0.4699	0.875	0.6222	0.021
Mof_C 	C 	0.5005	0.9376	0.6062	-0.052
Mof_H 	H 	0.4945	0.9551	0.5949	0.025
Mof_H 	H 	0.5047	0.9438	0.6266	0.026
Mof_C 	C 	0.472	0.9074	0.5755	-0.035
Mof_H 	H 	0.4556	0.8932	0.574	0.018
Mof_H 	H 	0.4666	0.9251	0.5641	0.02
Mof_H 	H 	0.3736	0.4111	0.314	0.023
Mof_H 	H 	0.4024	0.4644	0.3104	0.022
Mof_H 	H 	0.4705	0.4954	0.217	0.022
Mof_H 	H 	0.4849	0.46	0.1706	0.021
Mof_C 	C 	0.4183	0.4552	0.1943	-0.047
Mof_H 	H 	0.4111	0.4734	0.1848	0.024
Mof_H 	H 	0.4025	0.4404	0.1932	0.023
Mof_N 	N 	0.47615	0.41542	0.10609	-0.141
Mof_C 	C 	0.4258	0.4616	0.227	-0.04
Mof_H 	H 	0.4139	0.4488	0.2398	0.021
Mof_H 	H 	0.4209	0.4822	0.2317	0.02
Mof_C 	C 	0.4053	0.3686	0.1432	-0.044
Mof_H 	H 	0.4231	0.361	0.1334	0.023
Mof_H 	H 	0.4106	0.3735	0.1637	0.022
Mof_H 	H 	0.4038	0.379	0.0866	0.023
Mof_C 	C 	0.4854	0.3901	0.1228	-0.044
Mof_H 	H 	0.4886	0.3958	0.1435	0.021
Mof_H 	H 	0.4699	0.375	0.1222	0.021
Mof_C 	C 	0.5005	0.4376	0.1062	-0.052
Mof_H 	H 	0.4945	0.4551	0.0949	0.025
Mof_H 	H 	0.5047	0.4438	0.1266	0.026
Mof_C 	C 	0.472	0.4074	0.0755	-0.035
Mof_H 	H 	0.4556	0.3932	0.074	0.018
Mof_H 	H 	0.4666	0.4251	0.0641	0.02
Mof_H 	H 	0.8736	0.9111	0.314	0.023
Mof_H 	H 	0.9024	0.9644	0.3104	0.022
Mof_H 	H 	0.9705	0.9954	0.217	0.022
Mof_H 	H 	0.9849	0.96	0.1706	0.021
Mof_C 	C 	0.9183	0.9552	0.1943	-0.047
Mof_H 	H 	0.9111	0.9734	0.1848	0.024
Mof_H 	H 	0.9025	0.9404	0.1932	0.023
Mof_N 	N 	0.97615	0.91542	0.10609	-0.141
Mof_C 	C 	0.9258	0.9616	0.227	-0.04
Mof_H 	H 	0.9139	0.9488	0.2398	0.021
Mof_H 	H 	0.9209	0.9822	0.2317	0.02
Mof_C 	C 	0.9053	0.8686	0.1432	-0.044
Mof_H 	H 	0.9231	0.861	0.1334	0.023
Mof_H 	H 	0.9106	0.8735	0.1637	0.022
Mof_H 	H 	0.9038	0.879	0.0866	0.023
Mof_C 	C 	0.9854	0.8901	0.1228	-0.044
Mof_H 	H 	0.9886	0.8958	0.1435	0.021
Mof_H 	H 	0.9699	0.875	0.1222	0.021
Mof_C 	C 	0.0005	0.9376	0.1062	-0.052
Mof_H 	H 	0.9945	0.9551	0.0949	0.025
Mof_H 	H 	0.0047	0.9438	0.1266	0.026
Mof_C 	C 	0.972	0.9074	0.0755	-0.035
Mof_H 	H 	0.9556	0.8932	0.074	0.018
Mof_H 	H 	0.9666	0.9251	0.0641	0.02
Mof_H 	H 	0.8736	0.4111	0.814	0.023
Mof_H 	H 	0.9024	0.4644	0.8104	0.022
Mof_H 	H 	0.9705	0.4954	0.717	0.022
Mof_H 	H 	0.9849	0.46	0.6706	0.021
Mof_C 	C 	0.9183	0.4552	0.6943	-0.047
Mof_H 	H 	0.9111	0.4734	0.6848	0.024
Mof_H 	H 	0.9025	0.4404	0.6932	0.023
Mof_N 	N 	0.97615	0.41542	0.60609	-0.141
Mof_C 	C 	0.9258	0.4616	0.727	-0.04
Mof_H 	H 	0.9139	0.4488	0.7398	0.021
Mof_H 	H 	0.9209	0.4822	0.7317	0.02
Mof_C 	C 	0.9053	0.3686	0.6432	-0.044
Mof_H 	H 	0.9231	0.361	0.6334	0.023
Mof_H 	H 	0.9106	0.3735	0.6637	0.022
Mof_H 	H 	0.9038	0.379	0.5866	0.023
Mof_C 	C 	0.9854	0.3901	0.6228	-0.044
Mof_H 	H 	0.9886	0.3958	0.6435	0.021
Mof_H 	H 	0.9699	0.375	0.6222	0.021
Mof_C 	C 	0.0005	0.4376	0.6062	-0.052
Mof_H 	H 	0.9945	0.4551	0.5949	0.025
Mof_H 	H 	0.0047	0.4438	0.6266	0.026
Mof_C 	C 	0.972	0.4074	0.5755	-0.035
Mof_H 	H 	0.9556	0.3932	0.574	0.018
Mof_H 	H 	0.9666	0.4251	0.5641	0.02
Mof_H 	H 	0.3764	0.4111	0.436	0.023
Mof_H 	H 	0.3476	0.4644	0.4396	0.022
Mof_H 	H 	0.2795	0.4954	0.533	0.022
Mof_H 	H 	0.2651	0.46	0.5794	0.021
Mof_C 	C 	0.3317	0.4552	0.5557	-0.047
Mof_H 	H 	0.3389	0.4734	0.5652	0.024
Mof_H 	H 	0.3475	0.4404	0.5568	0.023
Mof_N 	N 	0.27385	0.41542	0.64391	-0.141
Mof_C 	C 	0.3242	0.4616	0.523	-0.04
Mof_H 	H 	0.3361	0.4488	0.5102	0.021
Mof_H 	H 	0.3291	0.4822	0.5183	0.02
Mof_C 	C 	0.3447	0.3686	0.6068	-0.044
Mof_H 	H 	0.3269	0.361	0.6166	0.023
Mof_H 	H 	0.3394	0.3735	0.5863	0.022
Mof_H 	H 	0.3462	0.379	0.6634	0.023
Mof_C 	C 	0.2646	0.3901	0.6272	-0.044
Mof_H 	H 	0.2614	0.3958	0.6065	0.021
Mof_H 	H 	0.2801	0.375	0.6278	0.021
Mof_C 	C 	0.2495	0.4376	0.6438	-0.052
Mof_H 	H 	0.2555	0.4551	0.6551	0.025
Mof_H 	H 	0.2453	0.4438	0.6234	0.026
Mof_C 	C 	0.278	0.4074	0.6745	-0.035
Mof_H 	H 	0.2944	0.3932	0.676	0.018
Mof_H 	H 	0.2834	0.4251	0.6859	0.02
Mof_H 	H 	0.3764	0.9111	0.936	0.023
Mof_H 	H 	0.3476	0.9644	0.9396	0.022
Mof_H 	H 	0.2795	0.9954	0.033	0.022
Mof_H 	H 	0.2651	0.96	0.0794	0.021
Mof_C 	C 	0.3317	0.9552	0.0557	-0.047
Mof_H 	H 	0.3389	0.9734	0.0652	0.024
Mof_H 	H 	0.3475	0.9404	0.0568	0.023
Mof_N 	N 	0.27385	0.91542	0.14391	-0.141
Mof_C 	C 	0.3242	0.9616	0.023	-0.04
Mof_H 	H 	0.3361	0.9488	0.0102	0.021
Mof_H 	H 	0.3291	0.9822	0.0183	0.02
Mof_C 	C 	0.3447	0.8686	0.1068	-0.044
Mof_H 	H 	0.3269	0.861	0.1166	0.023
Mof_H 	H 	0.3394	0.8735	0.0863	0.022
Mof_H 	H 	0.3462	0.879	0.1634	0.023
Mof_C 	C 	0.2646	0.8901	0.1272	-0.044
Mof_H 	H 	0.2614	0.8958	0.1065	0.021
Mof_H 	H 	0.2801	0.875	0.1278	0.021
Mof_C 	C 	0.2495	0.9376	0.1438	-0.052
Mof_H 	H 	0.2555	0.9551	0.1551	0.025
Mof_H 	H 	0.2453	0.9438	0.1234	0.026
Mof_C 	C 	0.278	0.9074	0.1745	-0.035
Mof_H 	H 	0.2944	0.8932	0.176	0.018
Mof_H 	H 	0.2834	0.9251	0.1859	0.02
Mof_H 	H 	0.8764	0.4111	0.936	0.023
Mof_H 	H 	0.8476	0.4644	0.9396	0.022
Mof_H 	H 	0.7795	0.4954	0.033	0.022
Mof_H 	H 	0.7651	0.46	0.0794	0.021
Mof_C 	C 	0.8317	0.4552	0.0557	-0.047
Mof_H 	H 	0.8389	0.4734	0.0652	0.024
Mof_H 	H 	0.8475	0.4404	0.0568	0.023
Mof_N 	N 	0.77385	0.41542	0.14391	-0.141
Mof_C 	C 	0.8242	0.4616	0.023	-0.04
Mof_H 	H 	0.8361	0.4488	0.0102	0.021
Mof_H 	H 	0.8291	0.4822	0.0183	0.02
Mof_C 	C 	0.8447	0.3686	0.1068	-0.044
Mof_H 	H 	0.8269	0.361	0.1166	0.023
Mof_H 	H 	0.8394	0.3735	0.0863	0.022
Mof_H 	H 	0.8462	0.379	0.1634	0.023
Mof_C 	C 	0.7646	0.3901	0.1272	-0.044
Mof_H 	H 	0.7614	0.3958	0.1065	0.021
Mof_H 	H 	0.7801	0.375	0.1278	0.021
Mof_C 	C 	0.7495	0.4376	0.1438	-0.052
Mof_H 	H 	0.7555	0.4551	0.1551	0.025
Mof_H 	H 	0.7453	0.4438	0.1234	0.026
Mof_C 	C 	0.778	0.4074	0.1745	-0.035
Mof_H 	H 	0.7944	0.3932	0.176	0.018
Mof_H 	H 	0.7834	0.4251	0.1859	0.02
Mof_H 	H 	0.8764	0.9111	0.436	0.023
Mof_H 	H 	0.8476	0.9644	0.4396	0.022
Mof_H 	H 	0.7795	0.9954	0.533	0.022
Mof_H 	H 	0.7651	0.96	0.5794	0.021
Mof_C 	C 	0.8317	0.9552	0.5557	-0.047
Mof_H 	H 	0.8389	0.9734	0.5652	0.024
Mof_H 	H 	0.8475	0.9404	0.5568	0.023
Mof_N 	N 	0.77385	0.91542	0.64391	-0.141
Mof_C 	C 	0.8242	0.9616	0.523	-0.04
Mof_H 	H 	0.8361	0.9488	0.5102	0.021
Mof_H 	H 	0.8291	0.9822	0.5183	0.02
Mof_C 	C 	0.8447	0.8686	0.6068	-0.044
Mof_H 	H 	0.8269	0.861	0.6166	0.023
Mof_H 	H 	0.8394	0.8735	0.5863	0.022
Mof_H 	H 	0.8462	0.879	0.6634	0.023
Mof_C 	C 	0.7646	0.8901	0.6272	-0.044
Mof_H 	H 	0.7614	0.8958	0.6065	0.021
Mof_H 	H 	0.7801	0.875	0.6278	0.021
Mof_C 	C 	0.7495	0.9376	0.6438	-0.052
Mof_H 	H 	0.7555	0.9551	0.6551	0.025
Mof_H 	H 	0.7453	0.9438	0.6234	0.026
Mof_C 	C 	0.778	0.9074	0.6745	-0.035
Mof_H 	H 	0.7944	0.8932	0.676	0.018
Mof_H 	H 	0.7834	0.9251	0.6859	0.02
Mof_H 	H 	0.8736	0.3389	0.936	0.023
Mof_H 	H 	0.9024	0.2856	0.9396	0.022
Mof_H 	H 	0.9705	0.2546	0.033	0.022
Mof_H 	H 	0.9849	0.29	0.0794	0.021
Mof_C 	C 	0.9183	0.2948	0.0557	-0.047
Mof_H 	H 	0.9111	0.2766	0.0652	0.024
Mof_H 	H 	0.9025	0.3096	0.0568	0.023
Mof_N 	N 	0.97615	0.33458	0.14391	-0.141
Mof_C 	C 	0.9258	0.2884	0.023	-0.04
Mof_H 	H 	0.9139	0.3012	0.0102	0.021
Mof_H 	H 	0.9209	0.2678	0.0183	0.02
Mof_C 	C 	0.9053	0.3814	0.1068	-0.044
Mof_H 	H 	0.9231	0.389	0.1166	0.023
Mof_H 	H 	0.9106	0.3765	0.0863	0.022
Mof_H 	H 	0.9038	0.371	0.1634	0.023
Mof_C 	C 	0.9854	0.3599	0.1272	-0.044
Mof_H 	H 	0.9886	0.3542	0.1065	0.021
Mof_H 	H 	0.9699	0.375	0.1278	0.021
Mof_C 	C 	0.0005	0.3124	0.1438	-0.052
Mof_H 	H 	0.9945	0.2949	0.1551	0.025
Mof_H 	H 	0.0047	0.3062	0.1234	0.026
Mof_C 	C 	0.972	0.3426	0.1745	-0.035
Mof_H 	H 	0.9556	0.3568	0.176	0.018
Mof_H 	H 	0.9666	0.3249	0.1859	0.02
Mof_H 	H 	0.8736	0.8389	0.436	0.023
Mof_H 	H 	0.9024	0.7856	0.4396	0.022
Mof_H 	H 	0.9705	0.7546	0.533	0.022
Mof_H 	H 	0.9849	0.79	0.5794	0.021
Mof_C 	C 	0.9183	0.7948	0.5557	-0.047
Mof_H 	H 	0.9111	0.7766	0.5652	0.024
Mof_H 	H 	0.9025	0.8096	0.5568	0.023
Mof_N 	N 	0.97615	0.83458	0.64391	-0.141
Mof_C 	C 	0.9258	0.7884	0.523	-0.04
Mof_H 	H 	0.9139	0.8012	0.5102	0.021
Mof_H 	H 	0.9209	0.7678	0.5183	0.02
Mof_C 	C 	0.9053	0.8814	0.6068	-0.044
Mof_H 	H 	0.9231	0.889	0.6166	0.023
Mof_H 	H 	0.9106	0.8765	0.5863	0.022
Mof_H 	H 	0.9038	0.871	0.6634	0.023
Mof_C 	C 	0.9854	0.8599	0.6272	-0.044
Mof_H 	H 	0.9886	0.8542	0.6065	0.021
Mof_H 	H 	0.9699	0.875	0.6278	0.021
Mof_C 	C 	0.0005	0.8124	0.6438	-0.052
Mof_H 	H 	0.9945	0.7949	0.6551	0.025
Mof_H 	H 	0.0047	0.8062	0.6234	0.026
Mof_C 	C 	0.972	0.8426	0.6745	-0.035
Mof_H 	H 	0.9556	0.8568	0.676	0.018
Mof_H 	H 	0.9666	0.8249	0.6859	0.02
Mof_H 	H 	0.3736	0.3389	0.436	0.023
Mof_H 	H 	0.4024	0.2856	0.4396	0.022
Mof_H 	H 	0.4705	0.2546	0.533	0.022
Mof_H 	H 	0.4849	0.29	0.5794	0.021
Mof_C 	C 	0.4183	0.2948	0.5557	-0.047
Mof_H 	H 	0.4111	0.2766	0.5652	0.024
Mof_H 	H 	0.4025	0.3096	0.5568	0.023
Mof_N 	N 	0.47615	0.33458	0.64391	-0.141
Mof_C 	C 	0.4258	0.2884	0.523	-0.04
Mof_H 	H 	0.4139	0.3012	0.5102	0.021
Mof_H 	H 	0.4209	0.2678	0.5183	0.02
Mof_C 	C 	0.4053	0.3814	0.6068	-0.044
Mof_H 	H 	0.4231	0.389	0.6166	0.023
Mof_H 	H 	0.4106	0.3765	0.5863	0.022
Mof_H 	H 	0.4038	0.371	0.6634	0.023
Mof_C 	C 	0.4854	0.3599	0.6272	-0.044
Mof_H 	H 	0.4886	0.3542	0.6065	0.021
Mof_H 	H 	0.4699	0.375	0.6278	0.021
Mof_C 	C 	0.5005	0.3124	0.6438	-0.052
Mof_H 	H 	0.4945	0.2949	0.6551	0.025
Mof_H 	H 	0.5047	0.3062	0.6234	0.026
Mof_C 	C 	0.472	0.3426	0.6745	-0.035
Mof_H 	H 	0.4556	0.3568	0.676	0.018
Mof_H 	H 	0.4666	0.3249	0.6859	0.02
Mof_H 	H 	0.3736	0.8389	0.936	0.023
Mof_H 	H 	0.4024	0.7856	0.9396	0.022
Mof_H 	H 	0.4705	0.7546	0.033	0.022
Mof_H 	H 	0.4849	0.79	0.0794	0.021
Mof_C 	C 	0.4183	0.7948	0.0557	-0.047
Mof_H 	H 	0.4111	0.7766	0.0652	0.024
Mof_H 	H 	0.4025	0.8096	0.0568	0.023
Mof_N 	N 	0.47615	0.83458	0.14391	-0.141
Mof_C 	C 	0.4258	0.7884	0.023	-0.04
Mof_H 	H 	0.4139	0.8012	0.0102	0.021
Mof_H 	H 	0.4209	0.7678	0.0183	0.02
Mof_C 	C 	0.4053	0.8814	0.1068	-0.044
Mof_H 	H 	0.4231	0.889	0.1166	0.023
Mof_H 	H 	0.4106	0.8765	0.0863	0.022
Mof_H 	H 	0.4038	0.871	0.1634	0.023
Mof_C 	C 	0.4854	0.8599	0.1272	-0.044
Mof_H 	H 	0.4886	0.8542	0.1065	0.021
Mof_H 	H 	0.4699	0.875	0.1278	0.021
Mof_C 	C 	0.5005	0.8124	0.1438	-0.052
Mof_H 	H 	0.4945	0.7949	0.1551	0.025
Mof_H 	H 	0.5047	0.8062	0.1234	0.026
Mof_C 	C 	0.472	0.8426	0.1745	-0.035
Mof_H 	H 	0.4556	0.8568	0.176	0.018
Mof_H 	H 	0.4666	0.8249	0.1859	0.02
Mof_H 	H 	0.8764	0.8389	0.314	0.023
Mof_H 	H 	0.8476	0.7856	0.3104	0.022
Mof_H 	H 	0.7795	0.7546	0.217	0.022
Mof_H 	H 	0.7651	0.79	0.1706	0.021
Mof_C 	C 	0.8317	0.7948	0.1943	-0.047
Mof_H 	H 	0.8389	0.7766	0.1848	0.024
Mof_H 	H 	0.8475	0.8096	0.1932	0.023
Mof_N 	N 	0.77385	0.83458	0.10609	-0.141
Mof_C 	C 	0.8242	0.7884	0.227	-0.04
Mof_H 	H 	0.8361	0.8012	0.2398	0.021
Mof_H 	H 	0.8291	0.7678	0.2317	0.02
Mof_C 	C 	0.8447	0.8814	0.1432	-0.044
Mof_H 	H 	0.8269	0.889	0.1334	0.023
Mof_H 	H 	0.8394	0.8765	0.1637	0.022
Mof_H 	H 	0.8462	0.871	0.0866	0.023
Mof_C 	C 	0.7646	0.8599	0.1228	-0.044
Mof_H 	H 	0.7614	0.8542	0.1435	0.021
Mof_H 	H 	0.7801	0.875	0.1222	0.021
Mof_C 	C 	0.7495	0.8124	0.1062	-0.052
Mof_H 	H 	0.7555	0.7949	0.0949	0.025
Mof_H 	H 	0.7453	0.8062	0.1266	0.026
Mof_C 	C 	0.778	0.8426	0.0755	-0.035
Mof_H 	H 	0.7944	0.8568	0.074	0.018
Mof_H 	H 	0.7834	0.8249	0.0641	0.02
Mof_H 	H 	0.8764	0.3389	0.814	0.023
Mof_H 	H 	0.8476	0.2856	0.8104	0.022
Mof_H 	H 	0.7795	0.2546	0.717	0.022
Mof_H 	H 	0.7651	0.29	0.6706	0.021
Mof_C 	C 	0.8317	0.2948	0.6943	-0.047
Mof_H 	H 	0.8389	0.2766	0.6848	0.024
Mof_H 	H 	0.8475	0.3096	0.6932	0.023
Mof_N 	N 	0.77385	0.33458	0.60609	-0.141
Mof_C 	C 	0.8242	0.2884	0.727	-0.04
Mof_H 	H 	0.8361	0.3012	0.7398	0.021
Mof_H 	H 	0.8291	0.2678	0.7317	0.02
Mof_C 	C 	0.8447	0.3814	0.6432	-0.044
Mof_H 	H 	0.8269	0.389	0.6334	0.023
Mof_H 	H 	0.8394	0.3765	0.6637	0.022
Mof_H 	H 	0.8462	0.371	0.5866	0.023
Mof_C 	C 	0.7646	0.3599	0.6228	-0.044
Mof_H 	H 	0.7614	0.3542	0.6435	0.021
Mof_H 	H 	0.7801	0.375	0.6222	0.021
Mof_C 	C 	0.7495	0.3124	0.6062	-0.052
Mof_H 	H 	0.7555	0.2949	0.5949	0.025
Mof_H 	H 	0.7453	0.3062	0.6266	0.026
Mof_C 	C 	0.778	0.3426	0.5755	-0.035
Mof_H 	H 	0.7944	0.3568	0.574	0.018
Mof_H 	H 	0.7834	0.3249	0.5641	0.02
Mof_H 	H 	0.3764	0.8389	0.814	0.023
Mof_H 	H 	0.3476	0.7856	0.8104	0.022
Mof_H 	H 	0.2795	0.7546	0.717	0.022
Mof_H 	H 	0.2651	0.79	0.6706	0.021
Mof_C 	C 	0.3317	0.7948	0.6943	-0.047
Mof_H 	H 	0.3389	0.7766	0.6848	0.024
Mof_H 	H 	0.3475	0.8096	0.6932	0.023
Mof_N 	N 	0.27385	0.83458	0.60609	-0.141
Mof_C 	C 	0.3242	0.7884	0.727	-0.04
Mof_H 	H 	0.3361	0.8012	0.7398	0.021
Mof_H 	H 	0.3291	0.7678	0.7317	0.02
Mof_C 	C 	0.3447	0.8814	0.6432	-0.044
Mof_H 	H 	0.3269	0.889	0.6334	0.023
Mof_H 	H 	0.3394	0.8765	0.6637	0.022
Mof_H 	H 	0.3462	0.871	0.5866	0.023
Mof_C 	C 	0.2646	0.8599	0.6228	-0.044
Mof_H 	H 	0.2614	0.8542	0.6435	0.021
Mof_H 	H 	0.2801	0.875	0.6222	0.021
Mof_C 	C 	0.2495	0.8124	0.6062	-0.052
Mof_H 	H 	0.2555	0.7949	0.5949	0.025
Mof_H 	H 	0.2453	0.8062	0.6266	0.026
Mof_C 	C 	0.278	0.8426	0.5755	-0.035
Mof_H 	H 	0.2944	0.8568	0.574	0.018
Mof_H 	H 	0.2834	0.8249	0.5641	0.02
Mof_H 	H 	0.3764	0.3389	0.314	0.023
Mof_H 	H 	0.3476	0.2856	0.3104	0.022
Mof_H 	H 	0.2795	0.2546	0.217	0.022
Mof_H 	H 	0.2651	0.29	0.1706	0.021
Mof_C 	C 	0.3317	0.2948	0.1943	-0.047
Mof_H 	H 	0.3389	0.2766	0.1848	0.024
Mof_H 	H 	0.3475	0.3096	0.1932	0.023
Mof_N 	N 	0.27385	0.33458	0.10609	-0.141
Mof_C 	C 	0.3242	0.2884	0.227	-0.04
Mof_H 	H 	0.3361	0.3012	0.2398	0.021
Mof_H 	H 	0.3291	0.2678	0.2317	0.02
Mof_C 	C 	0.3447	0.3814	0.1432	-0.044
Mof_H 	H 	0.3269	0.389	0.1334	0.023
Mof_H 	H 	0.3394	0.3765	0.1637	0.022
Mof_H 	H 	0.3462	0.371	0.0866	0.023
Mof_C 	C 	0.2646	0.3599	0.1228	-0.044
Mof_H 	H 	0.2614	0.3542	0.1435	0.021
Mof_H 	H 	0.2801	0.375	0.1222	0.021
Mof_C 	C 	0.2495	0.3124	0.1062	-0.052
Mof_H 	H 	0.2555	0.2949	0.0949	0.025
Mof_H 	H 	0.2453	0.3062	0.1266	0.026
Mof_C 	C 	0.278	0.3426	0.0755	-0.035
Mof_H 	H 	0.2944	0.3568	0.074	0.018
Mof_H 	H 	0.2834	0.3249	0.0641	0.02
Mof_H 	H 	0.6236	0.564	0.5889	0.023
Mof_H 	H 	0.6524	0.5604	0.5356	0.022
Mof_H 	H 	0.7205	0.467	0.5046	0.022
Mof_H 	H 	0.7349	0.4206	0.54	0.021
Mof_C 	C 	0.6683	0.4443	0.5448	-0.047
Mof_H 	H 	0.6611	0.4348	0.5266	0.024
Mof_H 	H 	0.6525	0.4432	0.5596	0.023
Mof_N 	N 	0.72615	0.35609	0.58458	-0.141
Mof_C 	C 	0.6758	0.477	0.5384	-0.04
Mof_H 	H 	0.6639	0.4898	0.5512	0.021
Mof_H 	H 	0.6709	0.4817	0.5178	0.02
Mof_C 	C 	0.6553	0.3932	0.6314	-0.044
Mof_H 	H 	0.6731	0.3834	0.639	0.023
Mof_H 	H 	0.6606	0.4137	0.6265	0.022
Mof_H 	H 	0.6538	0.3366	0.621	0.023
Mof_C 	C 	0.7354	0.3728	0.6099	-0.044
Mof_H 	H 	0.7386	0.3935	0.6042	0.021
Mof_H 	H 	0.7199	0.3722	0.625	0.021
Mof_C 	C 	0.7505	0.3562	0.5624	-0.052
Mof_H 	H 	0.7445	0.3449	0.5449	0.025
Mof_H 	H 	0.7547	0.3766	0.5562	0.026
Mof_C 	C 	0.722	0.3255	0.5926	-0.035
Mof_H 	H 	0.7056	0.324	0.6068	0.018
Mof_H 	H 	0.7166	0.3141	0.5749	0.02
Mof_H 	H 	0.6236	0.064	0.0889	0.023
Mof_H 	H 	0.6524	0.0604	0.0356	0.022
Mof_H 	H 	0.7205	0.967	0.0046	0.022
Mof_H 	H 	0.7349	0.9206	0.04	0.021
Mof_C 	C 	0.6683	0.9443	0.0448	-0.047
Mof_H 	H 	0.6611	0.9348	0.0266	0.024
Mof_H 	H 	0.6525	0.9432	0.0596	0.023
Mof_N 	N 	0.72615	0.85609	0.08458	-0.141
Mof_C 	C 	0.6758	0.977	0.0384	-0.04
Mof_H 	H 	0.6639	0.9898	0.0512	0.021
Mof_H 	H 	0.6709	0.9817	0.0178	0.02
Mof_C 	C 	0.6553	0.8932	0.1314	-0.044
Mof_H 	H 	0.6731	0.8834	0.139	0.023
Mof_H 	H 	0.6606	0.9137	0.1265	0.022
Mof_H 	H 	0.6538	0.8366	0.121	0.023
Mof_C 	C 	0.7354	0.8728	0.1099	-0.044
Mof_H 	H 	0.7386	0.8935	0.1042	0.021
Mof_H 	H 	0.7199	0.8722	0.125	0.021
Mof_C 	C 	0.7505	0.8562	0.0624	-0.052
Mof_H 	H 	0.7445	0.8449	0.0449	0.025
Mof_H 	H 	0.7547	0.8766	0.0562	0.026
Mof_C 	C 	0.722	0.8255	0.0926	-0.035
Mof_H 	H 	0.7056	0.824	0.1068	0.018
Mof_H 	H 	0.7166	0.8141	0.0749	0.02
Mof_H 	H 	0.1236	0.564	0.0889	0.023
Mof_H 	H 	0.1524	0.5604	0.0356	0.022
Mof_H 	H 	0.2205	0.467	0.0046	0.022
Mof_H 	H 	0.2349	0.4206	0.04	0.021
Mof_C 	C 	0.1683	0.4443	0.0448	-0.047
Mof_H 	H 	0.1611	0.4348	0.0266	0.024
Mof_H 	H 	0.1525	0.4432	0.0596	0.023
Mof_N 	N 	0.22615	0.35609	0.08458	-0.141
Mof_C 	C 	0.1758	0.477	0.0384	-0.04
Mof_H 	H 	0.1639	0.4898	0.0512	0.021
Mof_H 	H 	0.1709	0.4817	0.0178	0.02
Mof_C 	C 	0.1553	0.3932	0.1314	-0.044
Mof_H 	H 	0.1731	0.3834	0.139	0.023
Mof_H 	H 	0.1606	0.4137	0.1265	0.022
Mof_H 	H 	0.1538	0.3366	0.121	0.023
Mof_C 	C 	0.2354	0.3728	0.1099	-0.044
Mof_H 	H 	0.2386	0.3935	0.1042	0.021
Mof_H 	H 	0.2199	0.3722	0.125	0.021
Mof_C 	C 	0.2505	0.3562	0.0624	-0.052
Mof_H 	H 	0.2445	0.3449	0.0449	0.025
Mof_H 	H 	0.2547	0.3766	0.0562	0.026
Mof_C 	C 	0.222	0.3255	0.0926	-0.035
Mof_H 	H 	0.2056	0.324	0.1068	0.018
Mof_H 	H 	0.2166	0.3141	0.0749	0.02
Mof_H 	H 	0.1236	0.064	0.5889	0.023
Mof_H 	H 	0.1524	0.0604	0.5356	0.022
Mof_H 	H 	0.2205	0.967	0.5046	0.022
Mof_H 	H 	0.2349	0.9206	0.54	0.021
Mof_C 	C 	0.1683	0.9443	0.5448	-0.047
Mof_H 	H 	0.1611	0.9348	0.5266	0.024
Mof_H 	H 	0.1525	0.9432	0.5596	0.023
Mof_N 	N 	0.22615	0.85609	0.58458	-0.141
Mof_C 	C 	0.1758	0.977	0.5384	-0.04
Mof_H 	H 	0.1639	0.9898	0.5512	0.021
Mof_H 	H 	0.1709	0.9817	0.5178	0.02
Mof_C 	C 	0.1553	0.8932	0.6314	-0.044
Mof_H 	H 	0.1731	0.8834	0.639	0.023
Mof_H 	H 	0.1606	0.9137	0.6265	0.022
Mof_H 	H 	0.1538	0.8366	0.621	0.023
Mof_C 	C 	0.2354	0.8728	0.6099	-0.044
Mof_H 	H 	0.2386	0.8935	0.6042	0.021
Mof_H 	H 	0.2199	0.8722	0.625	0.021
Mof_C 	C 	0.2505	0.8562	0.5624	-0.052
Mof_H 	H 	0.2445	0.8449	0.5449	0.025
Mof_H 	H 	0.2547	0.8766	0.5562	0.026
Mof_C 	C 	0.222	0.8255	0.5926	-0.035
Mof_H 	H 	0.2056	0.824	0.6068	0.018
Mof_H 	H 	0.2166	0.8141	0.5749	0.02
Mof_H 	H 	0.6264	0.186	0.0889	0.023
Mof_H 	H 	0.5976	0.1896	0.0356	0.022
Mof_H 	H 	0.5295	0.283	0.0046	0.022
Mof_H 	H 	0.5151	0.3294	0.04	0.021
Mof_C 	C 	0.5817	0.3057	0.0448	-0.047
Mof_H 	H 	0.5889	0.3152	0.0266	0.024
Mof_H 	H 	0.5975	0.3068	0.0596	0.023
Mof_N 	N 	0.52385	0.39391	0.08458	-0.141
Mof_C 	C 	0.5742	0.273	0.0384	-0.04
Mof_H 	H 	0.5861	0.2602	0.0512	0.021
Mof_H 	H 	0.5791	0.2683	0.0178	0.02
Mof_C 	C 	0.5947	0.3568	0.1314	-0.044
Mof_H 	H 	0.5769	0.3666	0.139	0.023
Mof_H 	H 	0.5894	0.3363	0.1265	0.022
Mof_H 	H 	0.5962	0.4134	0.121	0.023
Mof_C 	C 	0.5146	0.3772	0.1099	-0.044
Mof_H 	H 	0.5114	0.3565	0.1042	0.021
Mof_H 	H 	0.5301	0.3778	0.125	0.021
Mof_C 	C 	0.4995	0.3938	0.0624	-0.052
Mof_H 	H 	0.5055	0.4051	0.0449	0.025
Mof_H 	H 	0.4953	0.3734	0.0562	0.026
Mof_C 	C 	0.528	0.4245	0.0926	-0.035
Mof_H 	H 	0.5444	0.426	0.1068	0.018
Mof_H 	H 	0.5334	0.4359	0.0749	0.02
Mof_H 	H 	0.6264	0.686	0.5889	0.023
Mof_H 	H 	0.5976	0.6896	0.5356	0.022
Mof_H 	H 	0.5295	0.783	0.5046	0.022
Mof_H 	H 	0.5151	0.8294	0.54	0.021
Mof_C 	C 	0.5817	0.8057	0.5448	-0.047
Mof_H 	H 	0.5889	0.8152	0.5266	0.024
Mof_H 	H 	0.5975	0.8068	0.5596	0.023
Mof_N 	N 	0.52385	0.89391	0.58458	-0.141
Mof_C 	C 	0.5742	0.773	0.5384	-0.04
Mof_H 	H 	0.5861	0.7602	0.5512	0.021
Mof_H 	H 	0.5791	0.7683	0.5178	0.02
Mof_C 	C 	0.5947	0.8568	0.6314	-0.044
Mof_H 	H 	0.5769	0.8666	0.639	0.023
Mof_H 	H 	0.5894	0.8363	0.6265	0.022
Mof_H 	H 	0.5962	0.9134	0.621	0.023
Mof_C 	C 	0.5146	0.8772	0.6099	-0.044
Mof_H 	H 	0.5114	0.8565	0.6042	0.021
Mof_H 	H 	0.5301	0.8778	0.625	0.021
Mof_C 	C 	0.4995	0.8938	0.5624	-0.052
Mof_H 	H 	0.5055	0.9051	0.5449	0.025
Mof_H 	H 	0.4953	0.8734	0.5562	0.026
Mof_C 	C 	0.528	0.9245	0.5926	-0.035
Mof_H 	H 	0.5444	0.926	0.6068	0.018
Mof_H 	H 	0.5334	0.9359	0.5749	0.02
Mof_H 	H 	0.1264	0.186	0.5889	0.023
Mof_H 	H 	0.0976	0.1896	0.5356	0.022
Mof_H 	H 	0.0295	0.283	0.5046	0.022
Mof_H 	H 	0.0151	0.3294	0.54	0.021
Mof_C 	C 	0.0817	0.3057	0.5448	-0.047
Mof_H 	H 	0.0889	0.3152	0.5266	0.024
Mof_H 	H 	0.0975	0.3068	0.5596	0.023
Mof_N 	N 	0.02385	0.39391	0.58458	-0.141
Mof_C 	C 	0.0742	0.273	0.5384	-0.04
Mof_H 	H 	0.0861	0.2602	0.5512	0.021
Mof_H 	H 	0.0791	0.2683	0.5178	0.02
Mof_C 	C 	0.0947	0.3568	0.6314	-0.044
Mof_H 	H 	0.0769	0.3666	0.639	0.023
Mof_H 	H 	0.0894	0.3363	0.6265	0.022
Mof_H 	H 	0.0962	0.4134	0.621	0.023
Mof_C 	C 	0.0146	0.3772	0.6099	-0.044
Mof_H 	H 	0.0114	0.3565	0.6042	0.021
Mof_H 	H 	0.0301	0.3778	0.625	0.021
Mof_C 	C 	0.9995	0.3938	0.5624	-0.052
Mof_H 	H 	0.0055	0.4051	0.5449	0.025
Mof_H 	H 	0.9953	0.3734	0.5562	0.026
Mof_C 	C 	0.028	0.4245	0.5926	-0.035
Mof_H 	H 	0.0444	0.426	0.6068	0.018
Mof_H 	H 	0.0334	0.4359	0.5749	0.02
Mof_H 	H 	0.1264	0.686	0.0889	0.023
Mof_H 	H 	0.0976	0.6896	0.0356	0.022
Mof_H 	H 	0.0295	0.783	0.0046	0.022
Mof_H 	H 	0.0151	0.8294	0.04	0.021
Mof_C 	C 	0.0817	0.8057	0.0448	-0.047
Mof_H 	H 	0.0889	0.8152	0.0266	0.024
Mof_H 	H 	0.0975	0.8068	0.0596	0.023
Mof_N 	N 	0.02385	0.89391	0.08458	-0.141
Mof_C 	C 	0.0742	0.773	0.0384	-0.04
Mof_H 	H 	0.0861	0.7602	0.0512	0.021
Mof_H 	H 	0.0791	0.7683	0.0178	0.02
Mof_C 	C 	0.0947	0.8568	0.1314	-0.044
Mof_H 	H 	0.0769	0.8666	0.139	0.023
Mof_H 	H 	0.0894	0.8363	0.1265	0.022
Mof_H 	H 	0.0962	0.9134	0.121	0.023
Mof_C 	C 	0.0146	0.8772	0.1099	-0.044
Mof_H 	H 	0.0114	0.8565	0.1042	0.021
Mof_H 	H 	0.0301	0.8778	0.125	0.021
Mof_C 	C 	0.9995	0.8938	0.0624	-0.052
Mof_H 	H 	0.0055	0.9051	0.0449	0.025
Mof_H 	H 	0.9953	0.8734	0.0562	0.026
Mof_C 	C 	0.028	0.9245	0.0926	-0.035
Mof_H 	H 	0.0444	0.926	0.1068	0.018
Mof_H 	H 	0.0334	0.9359	0.0749	0.02
Mof_H 	H 	0.1236	0.686	0.1611	0.023
Mof_H 	H 	0.1524	0.6896	0.2144	0.022
Mof_H 	H 	0.2205	0.783	0.2454	0.022
Mof_H 	H 	0.2349	0.8294	0.21	0.021
Mof_C 	C 	0.1683	0.8057	0.2052	-0.047
Mof_H 	H 	0.1611	0.8152	0.2234	0.024
Mof_H 	H 	0.1525	0.8068	0.1904	0.023
Mof_N 	N 	0.22615	0.89391	0.16542	-0.141
Mof_C 	C 	0.1758	0.773	0.2116	-0.04
Mof_H 	H 	0.1639	0.7602	0.1988	0.021
Mof_H 	H 	0.1709	0.7683	0.2322	0.02
Mof_C 	C 	0.1553	0.8568	0.1186	-0.044
Mof_H 	H 	0.1731	0.8666	0.111	0.023
Mof_H 	H 	0.1606	0.8363	0.1235	0.022
Mof_H 	H 	0.1538	0.9134	0.129	0.023
Mof_C 	C 	0.2354	0.8772	0.1401	-0.044
Mof_H 	H 	0.2386	0.8565	0.1458	0.021
Mof_H 	H 	0.2199	0.8778	0.125	0.021
Mof_C 	C 	0.2505	0.8938	0.1876	-0.052
Mof_H 	H 	0.2445	0.9051	0.2051	0.025
Mof_H 	H 	0.2547	0.8734	0.1938	0.026
Mof_C 	C 	0.222	0.9245	0.1574	-0.035
Mof_H 	H 	0.2056	0.926	0.1432	0.018
Mof_H 	H 	0.2166	0.9359	0.1751	0.02
Mof_H 	H 	0.1236	0.186	0.6611	0.023
Mof_H 	H 	0.1524	0.1896	0.7144	0.022
Mof_H 	H 	0.2205	0.283	0.7454	0.022
Mof_H 	H 	0.2349	0.3294	0.71	0.021
Mof_C 	C 	0.1683	0.3057	0.7052	-0.047
Mof_H 	H 	0.1611	0.3152	0.7234	0.024
Mof_H 	H 	0.1525	0.3068	0.6904	0.023
Mof_N 	N 	0.22615	0.39391	0.66542	-0.141
Mof_C 	C 	0.1758	0.273	0.7116	-0.04
Mof_H 	H 	0.1639	0.2602	0.6988	0.021
Mof_H 	H 	0.1709	0.2683	0.7322	0.02
Mof_C 	C 	0.1553	0.3568	0.6186	-0.044
Mof_H 	H 	0.1731	0.3666	0.611	0.023
Mof_H 	H 	0.1606	0.3363	0.6235	0.022
Mof_H 	H 	0.1538	0.4134	0.629	0.023
Mof_C 	C 	0.2354	0.3772	0.6401	-0.044
Mof_H 	H 	0.2386	0.3565	0.6458	0.021
Mof_H 	H 	0.2199	0.3778	0.625	0.021
Mof_C 	C 	0.2505	0.3938	0.6876	-0.052
Mof_H 	H 	0.2445	0.4051	0.7051	0.025
Mof_H 	H 	0.2547	0.3734	0.6938	0.026
Mof_C 	C 	0.222	0.4245	0.6574	-0.035
Mof_H 	H 	0.2056	0.426	0.6432	0.018
Mof_H 	H 	0.2166	0.4359	0.6751	0.02
Mof_H 	H 	0.6236	0.686	0.6611	0.023
Mof_H 	H 	0.6524	0.6896	0.7144	0.022
Mof_H 	H 	0.7205	0.783	0.7454	0.022
Mof_H 	H 	0.7349	0.8294	0.71	0.021
Mof_C 	C 	0.6683	0.8057	0.7052	-0.047
Mof_H 	H 	0.6611	0.8152	0.7234	0.024
Mof_H 	H 	0.6525	0.8068	0.6904	0.023
Mof_N 	N 	0.72615	0.89391	0.66542	-0.141
Mof_C 	C 	0.6758	0.773	0.7116	-0.04
Mof_H 	H 	0.6639	0.7602	0.6988	0.021
Mof_H 	H 	0.6709	0.7683	0.7322	0.02
Mof_C 	C 	0.6553	0.8568	0.6186	-0.044
Mof_H 	H 	0.6731	0.8666	0.611	0.023
Mof_H 	H 	0.6606	0.8363	0.6235	0.022
Mof_H 	H 	0.6538	0.9134	0.629	0.023
Mof_C 	C 	0.7354	0.8772	0.6401	-0.044
Mof_H 	H 	0.7386	0.8565	0.6458	0.021
Mof_H 	H 	0.7199	0.8778	0.625	0.021
Mof_C 	C 	0.7505	0.8938	0.6876	-0.052
Mof_H 	H 	0.7445	0.9051	0.7051	0.025
Mof_H 	H 	0.7547	0.8734	0.6938	0.026
Mof_C 	C 	0.722	0.9245	0.6574	-0.035
Mof_H 	H 	0.7056	0.926	0.6432	0.018
Mof_H 	H 	0.7166	0.9359	0.6751	0.02
Mof_H 	H 	0.6236	0.186	0.1611	0.023
Mof_H 	H 	0.6524	0.1896	0.2144	0.022
Mof_H 	H 	0.7205	0.283	0.2454	0.022
Mof_H 	H 	0.7349	0.3294	0.21	0.021
Mof_C 	C 	0.6683	0.3057	0.2052	-0.047
Mof_H 	H 	0.6611	0.3152	0.2234	0.024
Mof_H 	H 	0.6525	0.3068	0.1904	0.023
Mof_N 	N 	0.72615	0.39391	0.16542	-0.141
Mof_C 	C 	0.6758	0.273	0.2116	-0.04
Mof_H 	H 	0.6639	0.2602	0.1988	0.021
Mof_H 	H 	0.6709	0.2683	0.2322	0.02
Mof_C 	C 	0.6553	0.3568	0.1186	-0.044
Mof_H 	H 	0.6731	0.3666	0.111	0.023
Mof_H 	H 	0.6606	0.3363	0.1235	0.022
Mof_H 	H 	0.6538	0.4134	0.129	0.023
Mof_C 	C 	0.7354	0.3772	0.1401	-0.044
Mof_H 	H 	0.7386	0.3565	0.1458	0.021
Mof_H 	H 	0.7199	0.3778	0.125	0.021
Mof_C 	C 	0.7505	0.3938	0.1876	-0.052
Mof_H 	H 	0.7445	0.4051	0.2051	0.025
Mof_H 	H 	0.7547	0.3734	0.1938	0.026
Mof_C 	C 	0.722	0.4245	0.1574	-0.035
Mof_H 	H 	0.7056	0.426	0.1432	0.018
Mof_H 	H 	0.7166	0.4359	0.1751	0.02
Mof_H 	H 	0.1264	0.064	0.6611	0.023
Mof_H 	H 	0.0976	0.0604	0.7144	0.022
Mof_H 	H 	0.0295	0.967	0.7454	0.022
Mof_H 	H 	0.0151	0.9206	0.71	0.021
Mof_C 	C 	0.0817	0.9443	0.7052	-0.047
Mof_H 	H 	0.0889	0.9348	0.7234	0.024
Mof_H 	H 	0.0975	0.9432	0.6904	0.023
Mof_N 	N 	0.02385	0.85609	0.66542	-0.141
Mof_C 	C 	0.0742	0.977	0.7116	-0.04
Mof_H 	H 	0.0861	0.9898	0.6988	0.021
Mof_H 	H 	0.0791	0.9817	0.7322	0.02
Mof_C 	C 	0.0947	0.8932	0.6186	-0.044
Mof_H 	H 	0.0769	0.8834	0.611	0.023
Mof_H 	H 	0.0894	0.9137	0.6235	0.022
Mof_H 	H 	0.0962	0.8366	0.629	0.023
Mof_C 	C 	0.0146	0.8728	0.6401	-0.044
Mof_H 	H 	0.0114	0.8935	0.6458	0.021
Mof_H 	H 	0.0301	0.8722	0.625	0.021
Mof_C 	C 	0.9995	0.8562	0.6876	-0.052
Mof_H 	H 	0.0055	0.8449	0.7051	0.025
Mof_H 	H 	0.9953	0.8766	0.6938	0.026
Mof_C 	C 	0.028	0.8255	0.6574	-0.035
Mof_H 	H 	0.0444	0.824	0.6432	0.018
Mof_H 	H 	0.0334	0.8141	0.6751	0.02
Mof_H 	H 	0.1264	0.564	0.1611	0.023
Mof_H 	H 	0.0976	0.5604	0.2144	0.022
Mof_H 	H 	0.0295	0.467	0.2454	0.022
Mof_H 	H 	0.0151	0.4206	0.21	0.021
Mof_C 	C 	0.0817	0.4443	0.2052	-0.047
Mof_H 	H 	0.0889	0.4348	0.2234	0.024
Mof_H 	H 	0.0975	0.4432	0.1904	0.023
Mof_N 	N 	0.02385	0.35609	0.16542	-0.141
Mof_C 	C 	0.0742	0.477	0.2116	-0.04
Mof_H 	H 	0.0861	0.4898	0.1988	0.021
Mof_H 	H 	0.0791	0.4817	0.2322	0.02
Mof_C 	C 	0.0947	0.3932	0.1186	-0.044
Mof_H 	H 	0.0769	0.3834	0.111	0.023
Mof_H 	H 	0.0894	0.4137	0.1235	0.022
Mof_H 	H 	0.0962	0.3366	0.129	0.023
Mof_C 	C 	0.0146	0.3728	0.1401	-0.044
Mof_H 	H 	0.0114	0.3935	0.1458	0.021
Mof_H 	H 	0.0301	0.3722	0.125	0.021
Mof_C 	C 	0.9995	0.3562	0.1876	-0.052
Mof_H 	H 	0.0055	0.3449	0.2051	0.025
Mof_H 	H 	0.9953	0.3766	0.1938	0.026
Mof_C 	C 	0.028	0.3255	0.1574	-0.035
Mof_H 	H 	0.0444	0.324	0.1432	0.018
Mof_H 	H 	0.0334	0.3141	0.1751	0.02
Mof_H 	H 	0.6264	0.064	0.1611	0.023
Mof_H 	H 	0.5976	0.0604	0.2144	0.022
Mof_H 	H 	0.5295	0.967	0.2454	0.022
Mof_H 	H 	0.5151	0.9206	0.21	0.021
Mof_C 	C 	0.5817	0.9443	0.2052	-0.047
Mof_H 	H 	0.5889	0.9348	0.2234	0.024
Mof_H 	H 	0.5975	0.9432	0.1904	0.023
Mof_N 	N 	0.52385	0.85609	0.16542	-0.141
Mof_C 	C 	0.5742	0.977	0.2116	-0.04
Mof_H 	H 	0.5861	0.9898	0.1988	0.021
Mof_H 	H 	0.5791	0.9817	0.2322	0.02
Mof_C 	C 	0.5947	0.8932	0.1186	-0.044
Mof_H 	H 	0.5769	0.8834	0.111	0.023
Mof_H 	H 	0.5894	0.9137	0.1235	0.022
Mof_H 	H 	0.5962	0.8366	0.129	0.023
Mof_C 	C 	0.5146	0.8728	0.1401	-0.044
Mof_H 	H 	0.5114	0.8935	0.1458	0.021
Mof_H 	H 	0.5301	0.8722	0.125	0.021
Mof_C 	C 	0.4995	0.8562	0.1876	-0.052
Mof_H 	H 	0.5055	0.8449	0.2051	0.025
Mof_H 	H 	0.4953	0.8766	0.1938	0.026
Mof_C 	C 	0.528	0.8255	0.1574	-0.035
Mof_H 	H 	0.5444	0.824	0.1432	0.018
Mof_H 	H 	0.5334	0.8141	0.1751	0.02
Mof_H 	H 	0.6264	0.564	0.6611	0.023
Mof_H 	H 	0.5976	0.5604	0.7144	0.022
Mof_H 	H 	0.5295	0.467	0.7454	0.022
Mof_H 	H 	0.5151	0.4206	0.71	0.021
Mof_C 	C 	0.5817	0.4443	0.7052	-0.047
Mof_H 	H 	0.5889	0.4348	0.7234	0.024
Mof_H 	H 	0.5975	0.4432	0.6904	0.023
Mof_N 	N 	0.52385	0.35609	0.66542	-0.141
Mof_C 	C 	0.5742	0.477	0.7116	-0.04
Mof_H 	H 	0.5861	0.4898	0.6988	0.021
Mof_H 	H 	0.5791	0.4817	0.7322	0.02
Mof_C 	C 	0.5947	0.3932	0.6186	-0.044
Mof_H 	H 	0.5769	0.3834	0.611	0.023
Mof_H 	H 	0.5894	0.4137	0.6235	0.022
Mof_H 	H 	0.5962	0.3366	0.629	0.023
Mof_C 	C 	0.5146	0.3728	0.6401	-0.044
Mof_H 	H 	0.5114	0.3935	0.6458	0.021
Mof_H 	H 	0.5301	0.3722	0.625	0.021
Mof_C 	C 	0.4995	0.3562	0.6876	-0.052
Mof_H 	H 	0.5055	0.3449	0.7051	0.025
Mof_H 	H 	0.4953	0.3766	0.6938	0.026
Mof_C 	C 	0.528	0.3255	0.6574	-0.035
Mof_H 	H 	0.5444	0.324	0.6432	0.018
Mof_H 	H 	0.5334	0.3141	0.6751	0.02
Mof_H 	H 	0.064	0.6611	0.1264	0.023
Mof_H 	H 	0.0604	0.7144	0.0976	0.022
Mof_H 	H 	0.967	0.7454	0.0295	0.022
Mof_H 	H 	0.9206	0.71	0.0151	0.021
Mof_C 	C 	0.9443	0.7052	0.0817	-0.047
Mof_H 	H 	0.9348	0.7234	0.0889	0.024
Mof_H 	H 	0.9432	0.6904	0.0975	0.023
Mof_N 	N 	0.85609	0.66542	0.02385	-0.141
Mof_C 	C 	0.977	0.7116	0.0742	-0.04
Mof_H 	H 	0.9898	0.6988	0.0861	0.021
Mof_H 	H 	0.9817	0.7322	0.0791	0.02
Mof_C 	C 	0.8932	0.6186	0.0947	-0.044
Mof_H 	H 	0.8834	0.611	0.0769	0.023
Mof_H 	H 	0.9137	0.6235	0.0894	0.022
Mof_H 	H 	0.8366	0.629	0.0962	0.023
Mof_C 	C 	0.8728	0.6401	0.0146	-0.044
Mof_H 	H 	0.8935	0.6458	0.0114	0.021
Mof_H 	H 	0.8722	0.625	0.0301	0.021
Mof_C 	C 	0.8562	0.6876	0.9995	-0.052
Mof_H 	H 	0.8449	0.7051	0.0055	0.025
Mof_H 	H 	0.8766	0.6938	0.9953	0.026
Mof_C 	C 	0.8255	0.6574	0.028	-0.035
Mof_H 	H 	0.824	0.6432	0.0444	0.018
Mof_H 	H 	0.8141	0.6751	0.0334	0.02
Mof_H 	H 	0.064	0.1611	0.6264	0.023
Mof_H 	H 	0.0604	0.2144	0.5976	0.022
Mof_H 	H 	0.967	0.2454	0.5295	0.022
Mof_H 	H 	0.9206	0.21	0.5151	0.021
Mof_C 	C 	0.9443	0.2052	0.5817	-0.047
Mof_H 	H 	0.9348	0.2234	0.5889	0.024
Mof_H 	H 	0.9432	0.1904	0.5975	0.023
Mof_N 	N 	0.85609	0.16542	0.52385	-0.141
Mof_C 	C 	0.977	0.2116	0.5742	-0.04
Mof_H 	H 	0.9898	0.1988	0.5861	0.021
Mof_H 	H 	0.9817	0.2322	0.5791	0.02
Mof_C 	C 	0.8932	0.1186	0.5947	-0.044
Mof_H 	H 	0.8834	0.111	0.5769	0.023
Mof_H 	H 	0.9137	0.1235	0.5894	0.022
Mof_H 	H 	0.8366	0.129	0.5962	0.023
Mof_C 	C 	0.8728	0.1401	0.5146	-0.044
Mof_H 	H 	0.8935	0.1458	0.5114	0.021
Mof_H 	H 	0.8722	0.125	0.5301	0.021
Mof_C 	C 	0.8562	0.1876	0.4995	-0.052
Mof_H 	H 	0.8449	0.2051	0.5055	0.025
Mof_H 	H 	0.8766	0.1938	0.4953	0.026
Mof_C 	C 	0.8255	0.1574	0.528	-0.035
Mof_H 	H 	0.824	0.1432	0.5444	0.018
Mof_H 	H 	0.8141	0.1751	0.5334	0.02
Mof_H 	H 	0.564	0.6611	0.6264	0.023
Mof_H 	H 	0.5604	0.7144	0.5976	0.022
Mof_H 	H 	0.467	0.7454	0.5295	0.022
Mof_H 	H 	0.4206	0.71	0.5151	0.021
Mof_C 	C 	0.4443	0.7052	0.5817	-0.047
Mof_H 	H 	0.4348	0.7234	0.5889	0.024
Mof_H 	H 	0.4432	0.6904	0.5975	0.023
Mof_N 	N 	0.35609	0.66542	0.52385	-0.141
Mof_C 	C 	0.477	0.7116	0.5742	-0.04
Mof_H 	H 	0.4898	0.6988	0.5861	0.021
Mof_H 	H 	0.4817	0.7322	0.5791	0.02
Mof_C 	C 	0.3932	0.6186	0.5947	-0.044
Mof_H 	H 	0.3834	0.611	0.5769	0.023
Mof_H 	H 	0.4137	0.6235	0.5894	0.022
Mof_H 	H 	0.3366	0.629	0.5962	0.023
Mof_C 	C 	0.3728	0.6401	0.5146	-0.044
Mof_H 	H 	0.3935	0.6458	0.5114	0.021
Mof_H 	H 	0.3722	0.625	0.5301	0.021
Mof_C 	C 	0.3562	0.6876	0.4995	-0.052
Mof_H 	H 	0.3449	0.7051	0.5055	0.025
Mof_H 	H 	0.3766	0.6938	0.4953	0.026
Mof_C 	C 	0.3255	0.6574	0.528	-0.035
Mof_H 	H 	0.324	0.6432	0.5444	0.018
Mof_H 	H 	0.3141	0.6751	0.5334	0.02
Mof_H 	H 	0.564	0.1611	0.1264	0.023
Mof_H 	H 	0.5604	0.2144	0.0976	0.022
Mof_H 	H 	0.467	0.2454	0.0295	0.022
Mof_H 	H 	0.4206	0.21	0.0151	0.021
Mof_C 	C 	0.4443	0.2052	0.0817	-0.047
Mof_H 	H 	0.4348	0.2234	0.0889	0.024
Mof_H 	H 	0.4432	0.1904	0.0975	0.023
Mof_N 	N 	0.35609	0.16542	0.02385	-0.141
Mof_C 	C 	0.477	0.2116	0.0742	-0.04
Mof_H 	H 	0.4898	0.1988	0.0861	0.021
Mof_H 	H 	0.4817	0.2322	0.0791	0.02
Mof_C 	C 	0.3932	0.1186	0.0947	-0.044
Mof_H 	H 	0.3834	0.111	0.0769	0.023
Mof_H 	H 	0.4137	0.1235	0.0894	0.022
Mof_H 	H 	0.3366	0.129	0.0962	0.023
Mof_C 	C 	0.3728	0.1401	0.0146	-0.044
Mof_H 	H 	0.3935	0.1458	0.0114	0.021
Mof_H 	H 	0.3722	0.125	0.0301	0.021
Mof_C 	C 	0.3562	0.1876	0.9995	-0.052
Mof_H 	H 	0.3449	0.2051	0.0055	0.025
Mof_H 	H 	0.3766	0.1938	0.9953	0.026
Mof_C 	C 	0.3255	0.1574	0.028	-0.035
Mof_H 	H 	0.324	0.1432	0.0444	0.018
Mof_H 	H 	0.3141	0.1751	0.0334	0.02
Mof_H 	H 	0.686	0.1611	0.1236	0.023
Mof_H 	H 	0.6896	0.2144	0.1524	0.022
Mof_H 	H 	0.783	0.2454	0.2205	0.022
Mof_H 	H 	0.8294	0.21	0.2349	0.021
Mof_C 	C 	0.8057	0.2052	0.1683	-0.047
Mof_H 	H 	0.8152	0.2234	0.1611	0.024
Mof_H 	H 	0.8068	0.1904	0.1525	0.023
Mof_N 	N 	0.89391	0.16542	0.22615	-0.141
Mof_C 	C 	0.773	0.2116	0.1758	-0.04
Mof_H 	H 	0.7602	0.1988	0.1639	0.021
Mof_H 	H 	0.7683	0.2322	0.1709	0.02
Mof_C 	C 	0.8568	0.1186	0.1553	-0.044
Mof_H 	H 	0.8666	0.111	0.1731	0.023
Mof_H 	H 	0.8363	0.1235	0.1606	0.022
Mof_H 	H 	0.9134	0.129	0.1538	0.023
Mof_C 	C 	0.8772	0.1401	0.2354	-0.044
Mof_H 	H 	0.8565	0.1458	0.2386	0.021
Mof_H 	H 	0.8778	0.125	0.2199	0.021
Mof_C 	C 	0.8938	0.1876	0.2505	-0.052
Mof_H 	H 	0.9051	0.2051	0.2445	0.025
Mof_H 	H 	0.8734	0.1938	0.2547	0.026
Mof_C 	C 	0.9245	0.1574	0.222	-0.035
Mof_H 	H 	0.926	0.1432	0.2056	0.018
Mof_H 	H 	0.9359	0.1751	0.2166	0.02
Mof_H 	H 	0.686	0.6611	0.6236	0.023
Mof_H 	H 	0.6896	0.7144	0.6524	0.022
Mof_H 	H 	0.783	0.7454	0.7205	0.022
Mof_H 	H 	0.8294	0.71	0.7349	0.021
Mof_C 	C 	0.8057	0.7052	0.6683	-0.047
Mof_H 	H 	0.8152	0.7234	0.6611	0.024
Mof_H 	H 	0.8068	0.6904	0.6525	0.023
Mof_N 	N 	0.89391	0.66542	0.72615	-0.141
Mof_C 	C 	0.773	0.7116	0.6758	-0.04
Mof_H 	H 	0.7602	0.6988	0.6639	0.021
Mof_H 	H 	0.7683	0.7322	0.6709	0.02
Mof_C 	C 	0.8568	0.6186	0.6553	-0.044
Mof_H 	H 	0.8666	0.611	0.6731	0.023
Mof_H 	H 	0.8363	0.6235	0.6606	0.022
Mof_H 	H 	0.9134	0.629	0.6538	0.023
Mof_C 	C 	0.8772	0.6401	0.7354	-0.044
Mof_H 	H 	0.8565	0.6458	0.7386	0.021
Mof_H 	H 	0.8778	0.625	0.7199	0.021
Mof_C 	C 	0.8938	0.6876	0.7505	-0.052
Mof_H 	H 	0.9051	0.7051	0.7445	0.025
Mof_H 	H 	0.8734	0.6938	0.7547	0.026
Mof_C 	C 	0.9245	0.6574	0.722	-0.035
Mof_H 	H 	0.926	0.6432	0.7056	0.018
Mof_H 	H 	0.9359	0.6751	0.7166	0.02
Mof_H 	H 	0.186	0.1611	0.6236	0.023
Mof_H 	H 	0.1896	0.2144	0.6524	0.022
Mof_H 	H 	0.283	0.2454	0.7205	0.022
Mof_H 	H 	0.3294	0.21	0.7349	0.021
Mof_C 	C 	0.3057	0.2052	0.6683	-0.047
Mof_H 	H 	0.3152	0.2234	0.6611	0.024
Mof_H 	H 	0.3068	0.1904	0.6525	0.023
Mof_N 	N 	0.39391	0.16542	0.72615	-0.141
Mof_C 	C 	0.273	0.2116	0.6758	-0.04
Mof_H 	H 	0.2602	0.1988	0.6639	0.021
Mof_H 	H 	0.2683	0.2322	0.6709	0.02
Mof_C 	C 	0.3568	0.1186	0.6553	-0.044
Mof_H 	H 	0.3666	0.111	0.6731	0.023
Mof_H 	H 	0.3363	0.1235	0.6606	0.022
Mof_H 	H 	0.4134	0.129	0.6538	0.023
Mof_C 	C 	0.3772	0.1401	0.7354	-0.044
Mof_H 	H 	0.3565	0.1458	0.7386	0.021
Mof_H 	H 	0.3778	0.125	0.7199	0.021
Mof_C 	C 	0.3938	0.1876	0.7505	-0.052
Mof_H 	H 	0.4051	0.2051	0.7445	0.025
Mof_H 	H 	0.3734	0.1938	0.7547	0.026
Mof_C 	C 	0.4245	0.1574	0.722	-0.035
Mof_H 	H 	0.426	0.1432	0.7056	0.018
Mof_H 	H 	0.4359	0.1751	0.7166	0.02
Mof_H 	H 	0.186	0.6611	0.1236	0.023
Mof_H 	H 	0.1896	0.7144	0.1524	0.022
Mof_H 	H 	0.283	0.7454	0.2205	0.022
Mof_H 	H 	0.3294	0.71	0.2349	0.021
Mof_C 	C 	0.3057	0.7052	0.1683	-0.047
Mof_H 	H 	0.3152	0.7234	0.1611	0.024
Mof_H 	H 	0.3068	0.6904	0.1525	0.023
Mof_N 	N 	0.39391	0.66542	0.22615	-0.141
Mof_C 	C 	0.273	0.7116	0.1758	-0.04
Mof_H 	H 	0.2602	0.6988	0.1639	0.021
Mof_H 	H 	0.2683	0.7322	0.1709	0.02
Mof_C 	C 	0.3568	0.6186	0.1553	-0.044
Mof_H 	H 	0.3666	0.611	0.1731	0.023
Mof_H 	H 	0.3363	0.6235	0.1606	0.022
Mof_H 	H 	0.4134	0.629	0.1538	0.023
Mof_C 	C 	0.3772	0.6401	0.2354	-0.044
Mof_H 	H 	0.3565	0.6458	0.2386	0.021
Mof_H 	H 	0.3778	0.625	0.2199	0.021
Mof_C 	C 	0.3938	0.6876	0.2505	-0.052
Mof_H 	H 	0.4051	0.7051	0.2445	0.025
Mof_H 	H 	0.3734	0.6938	0.2547	0.026
Mof_C 	C 	0.4245	0.6574	0.222	-0.035
Mof_H 	H 	0.426	0.6432	0.2056	0.018
Mof_H 	H 	0.4359	0.6751	0.2166	0.02
Mof_H 	H 	0.186	0.0889	0.6264	0.023
Mof_H 	H 	0.1896	0.0356	0.5976	0.022
Mof_H 	H 	0.283	0.0046	0.5295	0.022
Mof_H 	H 	0.3294	0.04	0.5151	0.021
Mof_C 	C 	0.3057	0.0448	0.5817	-0.047
Mof_H 	H 	0.3152	0.0266	0.5889	0.024
Mof_H 	H 	0.3068	0.0596	0.5975	0.023
Mof_N 	N 	0.39391	0.08458	0.52385	-0.141
Mof_C 	C 	0.273	0.0384	0.5742	-0.04
Mof_H 	H 	0.2602	0.0512	0.5861	0.021
Mof_H 	H 	0.2683	0.0178	0.5791	0.02
Mof_C 	C 	0.3568	0.1314	0.5947	-0.044
Mof_H 	H 	0.3666	0.139	0.5769	0.023
Mof_H 	H 	0.3363	0.1265	0.5894	0.022
Mof_H 	H 	0.4134	0.121	0.5962	0.023
Mof_C 	C 	0.3772	0.1099	0.5146	-0.044
Mof_H 	H 	0.3565	0.1042	0.5114	0.021
Mof_H 	H 	0.3778	0.125	0.5301	0.021
Mof_C 	C 	0.3938	0.0624	0.4995	-0.052
Mof_H 	H 	0.4051	0.0449	0.5055	0.025
Mof_H 	H 	0.3734	0.0562	0.4953	0.026
Mof_C 	C 	0.4245	0.0926	0.528	-0.035
Mof_H 	H 	0.426	0.1068	0.5444	0.018
Mof_H 	H 	0.4359	0.0749	0.5334	0.02
Mof_H 	H 	0.186	0.5889	0.1264	0.023
Mof_H 	H 	0.1896	0.5356	0.0976	0.022
Mof_H 	H 	0.283	0.5046	0.0295	0.022
Mof_H 	H 	0.3294	0.54	0.0151	0.021
Mof_C 	C 	0.3057	0.5448	0.0817	-0.047
Mof_H 	H 	0.3152	0.5266	0.0889	0.024
Mof_H 	H 	0.3068	0.5596	0.0975	0.023
Mof_N 	N 	0.39391	0.58458	0.02385	-0.141
Mof_C 	C 	0.273	0.5384	0.0742	-0.04
Mof_H 	H 	0.2602	0.5512	0.0861	0.021
Mof_H 	H 	0.2683	0.5178	0.0791	0.02
Mof_C 	C 	0.3568	0.6314	0.0947	-0.044
Mof_H 	H 	0.3666	0.639	0.0769	0.023
Mof_H 	H 	0.3363	0.6265	0.0894	0.022
Mof_H 	H 	0.4134	0.621	0.0962	0.023
Mof_C 	C 	0.3772	0.6099	0.0146	-0.044
Mof_H 	H 	0.3565	0.6042	0.0114	0.021
Mof_H 	H 	0.3778	0.625	0.0301	0.021
Mof_C 	C 	0.3938	0.5624	0.9995	-0.052
Mof_H 	H 	0.4051	0.5449	0.0055	0.025
Mof_H 	H 	0.3734	0.5562	0.9953	0.026
Mof_C 	C 	0.4245	0.5926	0.028	-0.035
Mof_H 	H 	0.426	0.6068	0.0444	0.018
Mof_H 	H 	0.4359	0.5749	0.0334	0.02
Mof_H 	H 	0.686	0.0889	0.1264	0.023
Mof_H 	H 	0.6896	0.0356	0.0976	0.022
Mof_H 	H 	0.783	0.0046	0.0295	0.022
Mof_H 	H 	0.8294	0.04	0.0151	0.021
Mof_C 	C 	0.8057	0.0448	0.0817	-0.047
Mof_H 	H 	0.8152	0.0266	0.0889	0.024
Mof_H 	H 	0.8068	0.0596	0.0975	0.023
Mof_N 	N 	0.89391	0.08458	0.02385	-0.141
Mof_C 	C 	0.773	0.0384	0.0742	-0.04
Mof_H 	H 	0.7602	0.0512	0.0861	0.021
Mof_H 	H 	0.7683	0.0178	0.0791	0.02
Mof_C 	C 	0.8568	0.1314	0.0947	-0.044
Mof_H 	H 	0.8666	0.139	0.0769	0.023
Mof_H 	H 	0.8363	0.1265	0.0894	0.022
Mof_H 	H 	0.9134	0.121	0.0962	0.023
Mof_C 	C 	0.8772	0.1099	0.0146	-0.044
Mof_H 	H 	0.8565	0.1042	0.0114	0.021
Mof_H 	H 	0.8778	0.125	0.0301	0.021
Mof_C 	C 	0.8938	0.0624	0.9995	-0.052
Mof_H 	H 	0.9051	0.0449	0.0055	0.025
Mof_H 	H 	0.8734	0.0562	0.9953	0.026
Mof_C 	C 	0.9245	0.0926	0.028	-0.035
Mof_H 	H 	0.926	0.1068	0.0444	0.018
Mof_H 	H 	0.9359	0.0749	0.0334	0.02
Mof_H 	H 	0.686	0.5889	0.6264	0.023
Mof_H 	H 	0.6896	0.5356	0.5976	0.022
Mof_H 	H 	0.783	0.5046	0.5295	0.022
Mof_H 	H 	0.8294	0.54	0.5151	0.021
Mof_C 	C 	0.8057	0.5448	0.5817	-0.047
Mof_H 	H 	0.8152	0.5266	0.5889	0.024
Mof_H 	H 	0.8068	0.5596	0.5975	0.023
Mof_N 	N 	0.89391	0.58458	0.52385	-0.141
Mof_C 	C 	0.773	0.5384	0.5742	-0.04
Mof_H 	H 	0.7602	0.5512	0.5861	0.021
Mof_H 	H 	0.7683	0.5178	0.5791	0.02
Mof_C 	C 	0.8568	0.6314	0.5947	-0.044
Mof_H 	H 	0.8666	0.639	0.5769	0.023
Mof_H 	H 	0.8363	0.6265	0.5894	0.022
Mof_H 	H 	0.9134	0.621	0.5962	0.023
Mof_C 	C 	0.8772	0.6099	0.5146	-0.044
Mof_H 	H 	0.8565	0.6042	0.5114	0.021
Mof_H 	H 	0.8778	0.625	0.5301	0.021
Mof_C 	C 	0.8938	0.5624	0.4995	-0.052
Mof_H 	H 	0.9051	0.5449	0.5055	0.025
Mof_H 	H 	0.8734	0.5562	0.4953	0.026
Mof_C 	C 	0.9245	0.5926	0.528	-0.035
Mof_H 	H 	0.926	0.6068	0.5444	0.018
Mof_H 	H 	0.9359	0.5749	0.5334	0.02
Mof_H 	H 	0.564	0.5889	0.6236	0.023
Mof_H 	H 	0.5604	0.5356	0.6524	0.022
Mof_H 	H 	0.467	0.5046	0.7205	0.022
Mof_H 	H 	0.4206	0.54	0.7349	0.021
Mof_C 	C 	0.4443	0.5448	0.6683	-0.047
Mof_H 	H 	0.4348	0.5266	0.6611	0.024
Mof_H 	H 	0.4432	0.5596	0.6525	0.023
Mof_N 	N 	0.35609	0.58458	0.72615	-0.141
Mof_C 	C 	0.477	0.5384	0.6758	-0.04
Mof_H 	H 	0.4898	0.5512	0.6639	0.021
Mof_H 	H 	0.4817	0.5178	0.6709	0.02
Mof_C 	C 	0.3932	0.6314	0.6553	-0.044
Mof_H 	H 	0.3834	0.639	0.6731	0.023
Mof_H 	H 	0.4137	0.6265	0.6606	0.022
Mof_H 	H 	0.3366	0.621	0.6538	0.023
Mof_C 	C 	0.3728	0.6099	0.7354	-0.044
Mof_H 	H 	0.3935	0.6042	0.7386	0.021
Mof_H 	H 	0.3722	0.625	0.7199	0.021
Mof_C 	C 	0.3562	0.5624	0.7505	-0.052
Mof_H 	H 	0.3449	0.5449	0.7445	0.025
Mof_H 	H 	0.3766	0.5562	0.7547	0.026
Mof_C 	C 	0.3255	0.5926	0.722	-0.035
Mof_H 	H 	0.324	0.6068	0.7056	0.018
Mof_H 	H 	0.3141	0.5749	0.7166	0.02
Mof_H 	H 	0.564	0.0889	0.1236	0.023
Mof_H 	H 	0.5604	0.0356	0.1524	0.022
Mof_H 	H 	0.467	0.0046	0.2205	0.022
Mof_H 	H 	0.4206	0.04	0.2349	0.021
Mof_C 	C 	0.4443	0.0448	0.1683	-0.047
Mof_H 	H 	0.4348	0.0266	0.1611	0.024
Mof_H 	H 	0.4432	0.0596	0.1525	0.023
Mof_N 	N 	0.35609	0.08458	0.22615	-0.141
Mof_C 	C 	0.477	0.0384	0.1758	-0.04
Mof_H 	H 	0.4898	0.0512	0.1639	0.021
Mof_H 	H 	0.4817	0.0178	0.1709	0.02
Mof_C 	C 	0.3932	0.1314	0.1553	-0.044
Mof_H 	H 	0.3834	0.139	0.1731	0.023
Mof_H 	H 	0.4137	0.1265	0.1606	0.022
Mof_H 	H 	0.3366	0.121	0.1538	0.023
Mof_C 	C 	0.3728	0.1099	0.2354	-0.044
Mof_H 	H 	0.3935	0.1042	0.2386	0.021
Mof_H 	H 	0.3722	0.125	0.2199	0.021
Mof_C 	C 	0.3562	0.0624	0.2505	-0.052
Mof_H 	H 	0.3449	0.0449	0.2445	0.025
Mof_H 	H 	0.3766	0.0562	0.2547	0.026
Mof_C 	C 	0.3255	0.0926	0.222	-0.035
Mof_H 	H 	0.324	0.1068	0.2056	0.018
Mof_H 	H 	0.3141	0.0749	0.2166	0.02
Mof_H 	H 	0.064	0.5889	0.1236	0.023
Mof_H 	H 	0.0604	0.5356	0.1524	0.022
Mof_H 	H 	0.967	0.5046	0.2205	0.022
Mof_H 	H 	0.9206	0.54	0.2349	0.021
Mof_C 	C 	0.9443	0.5448	0.1683	-0.047
Mof_H 	H 	0.9348	0.5266	0.1611	0.024
Mof_H 	H 	0.9432	0.5596	0.1525	0.023
Mof_N 	N 	0.85609	0.58458	0.22615	-0.141
Mof_C 	C 	0.977	0.5384	0.1758	-0.04
Mof_H 	H 	0.9898	0.5512	0.1639	0.021
Mof_H 	H 	0.9817	0.5178	0.1709	0.02
Mof_C 	C 	0.8932	0.6314	0.1553	-0.044
Mof_H 	H 	0.8834	0.639	0.1731	0.023
Mof_H 	H 	0.9137	0.6265	0.1606	0.022
Mof_H 	H 	0.8366	0.621	0.1538	0.023
Mof_C 	C 	0.8728	0.6099	0.2354	-0.044
Mof_H 	H 	0.8935	0.6042	0.2386	0.021
Mof_H 	H 	0.8722	0.625	0.2199	0.021
Mof_C 	C 	0.8562	0.5624	0.2505	-0.052
Mof_H 	H 	0.8449	0.5449	0.2445	0.025
Mof_H 	H 	0.8766	0.5562	0.2547	0.026
Mof_C 	C 	0.8255	0.5926	0.222	-0.035
Mof_H 	H 	0.824	0.6068	0.2056	0.018
Mof_H 	H 	0.8141	0.5749	0.2166	0.02
Mof_H 	H 	0.064	0.0889	0.6236	0.023
Mof_H 	H 	0.0604	0.0356	0.6524	0.022
Mof_H 	H 	0.967	0.0046	0.7205	0.022
Mof_H 	H 	0.9206	0.04	0.7349	0.021
Mof_C 	C 	0.9443	0.0448	0.6683	-0.047
Mof_H 	H 	0.9348	0.0266	0.6611	0.024
Mof_H 	H 	0.9432	0.0596	0.6525	0.023
Mof_N 	N 	0.85609	0.08458	0.72615	-0.141
Mof_C 	C 	0.977	0.0384	0.6758	-0.04
Mof_H 	H 	0.9898	0.0512	0.6639	0.021
Mof_H 	H 	0.9817	0.0178	0.6709	0.02
Mof_C 	C 	0.8932	0.1314	0.6553	-0.044
Mof_H 	H 	0.8834	0.139	0.6731	0.023
Mof_H 	H 	0.9137	0.1265	0.6606	0.022
Mof_H 	H 	0.8366	0.121	0.6538	0.023
Mof_C 	C 	0.8728	0.1099	0.7354	-0.044
Mof_H 	H 	0.8935	0.1042	0.7386	0.021
Mof_H 	H 	0.8722	0.125	0.7199	0.021
Mof_C 	C 	0.8562	0.0624	0.7505	-0.052
Mof_H 	H 	0.8449	0.0449	0.7445	0.025
Mof_H 	H 	0.8766	0.0562	0.7547	0.026
Mof_C 	C 	0.8255	0.0926	0.722	-0.035
Mof_H 	H 	0.824	0.1068	0.7056	0.018
Mof_H 	H 	0.8141	0.0749	0.7166	0.02
Mof_H 	H 	0.1611	0.1236	0.686	0.023
Mof_H 	H 	0.2144	0.1524	0.6896	0.022
Mof_H 	H 	0.2454	0.2205	0.783	0.022
Mof_H 	H 	0.21	0.2349	0.8294	0.021
Mof_C 	C 	0.2052	0.1683	0.8057	-0.047
Mof_H 	H 	0.2234	0.1611	0.8152	0.024
Mof_H 	H 	0.1904	0.1525	0.8068	0.023
Mof_N 	N 	0.16542	0.22615	0.89391	-0.141
Mof_C 	C 	0.2116	0.1758	0.773	-0.04
Mof_H 	H 	0.1988	0.1639	0.7602	0.021
Mof_H 	H 	0.2322	0.1709	0.7683	0.02
Mof_C 	C 	0.1186	0.1553	0.8568	-0.044
Mof_H 	H 	0.111	0.1731	0.8666	0.023
Mof_H 	H 	0.1235	0.1606	0.8363	0.022
Mof_H 	H 	0.129	0.1538	0.9134	0.023
Mof_C 	C 	0.1401	0.2354	0.8772	-0.044
Mof_H 	H 	0.1458	0.2386	0.8565	0.021
Mof_H 	H 	0.125	0.2199	0.8778	0.021
Mof_C 	C 	0.1876	0.2505	0.8938	-0.052
Mof_H 	H 	0.2051	0.2445	0.9051	0.025
Mof_H 	H 	0.1938	0.2547	0.8734	0.026
Mof_C 	C 	0.1574	0.222	0.9245	-0.035
Mof_H 	H 	0.1432	0.2056	0.926	0.018
Mof_H 	H 	0.1751	0.2166	0.9359	0.02
Mof_H 	H 	0.1611	0.6236	0.186	0.023
Mof_H 	H 	0.2144	0.6524	0.1896	0.022
Mof_H 	H 	0.2454	0.7205	0.283	0.022
Mof_H 	H 	0.21	0.7349	0.3294	0.021
Mof_C 	C 	0.2052	0.6683	0.3057	-0.047
Mof_H 	H 	0.2234	0.6611	0.3152	0.024
Mof_H 	H 	0.1904	0.6525	0.3068	0.023
Mof_N 	N 	0.16542	0.72615	0.39391	-0.141
Mof_C 	C 	0.2116	0.6758	0.273	-0.04
Mof_H 	H 	0.1988	0.6639	0.2602	0.021
Mof_H 	H 	0.2322	0.6709	0.2683	0.02
Mof_C 	C 	0.1186	0.6553	0.3568	-0.044
Mof_H 	H 	0.111	0.6731	0.3666	0.023
Mof_H 	H 	0.1235	0.6606	0.3363	0.022
Mof_H 	H 	0.129	0.6538	0.4134	0.023
Mof_C 	C 	0.1401	0.7354	0.3772	-0.044
Mof_H 	H 	0.1458	0.7386	0.3565	0.021
Mof_H 	H 	0.125	0.7199	0.3778	0.021
Mof_C 	C 	0.1876	0.7505	0.3938	-0.052
Mof_H 	H 	0.2051	0.7445	0.4051	0.025
Mof_H 	H 	0.1938	0.7547	0.3734	0.026
Mof_C 	C 	0.1574	0.722	0.4245	-0.035
Mof_H 	H 	0.1432	0.7056	0.426	0.018
Mof_H 	H 	0.1751	0.7166	0.4359	0.02
Mof_H 	H 	0.6611	0.1236	0.186	0.023
Mof_H 	H 	0.7144	0.1524	0.1896	0.022
Mof_H 	H 	0.7454	0.2205	0.283	0.022
Mof_H 	H 	0.71	0.2349	0.3294	0.021
Mof_C 	C 	0.7052	0.1683	0.3057	-0.047
Mof_H 	H 	0.7234	0.1611	0.3152	0.024
Mof_H 	H 	0.6904	0.1525	0.3068	0.023
Mof_N 	N 	0.66542	0.22615	0.39391	-0.141
Mof_C 	C 	0.7116	0.1758	0.273	-0.04
Mof_H 	H 	0.6988	0.1639	0.2602	0.021
Mof_H 	H 	0.7322	0.1709	0.2683	0.02
Mof_C 	C 	0.6186	0.1553	0.3568	-0.044
Mof_H 	H 	0.611	0.1731	0.3666	0.023
Mof_H 	H 	0.6235	0.1606	0.3363	0.022
Mof_H 	H 	0.629	0.1538	0.4134	0.023
Mof_C 	C 	0.6401	0.2354	0.3772	-0.044
Mof_H 	H 	0.6458	0.2386	0.3565	0.021
Mof_H 	H 	0.625	0.2199	0.3778	0.021
Mof_C 	C 	0.6876	0.2505	0.3938	-0.052
Mof_H 	H 	0.7051	0.2445	0.4051	0.025
Mof_H 	H 	0.6938	0.2547	0.3734	0.026
Mof_C 	C 	0.6574	0.222	0.4245	-0.035
Mof_H 	H 	0.6432	0.2056	0.426	0.018
Mof_H 	H 	0.6751	0.2166	0.4359	0.02
Mof_H 	H 	0.6611	0.6236	0.686	0.023
Mof_H 	H 	0.7144	0.6524	0.6896	0.022
Mof_H 	H 	0.7454	0.7205	0.783	0.022
Mof_H 	H 	0.71	0.7349	0.8294	0.021
Mof_C 	C 	0.7052	0.6683	0.8057	-0.047
Mof_H 	H 	0.7234	0.6611	0.8152	0.024
Mof_H 	H 	0.6904	0.6525	0.8068	0.023
Mof_N 	N 	0.66542	0.72615	0.89391	-0.141
Mof_C 	C 	0.7116	0.6758	0.773	-0.04
Mof_H 	H 	0.6988	0.6639	0.7602	0.021
Mof_H 	H 	0.7322	0.6709	0.7683	0.02
Mof_C 	C 	0.6186	0.6553	0.8568	-0.044
Mof_H 	H 	0.611	0.6731	0.8666	0.023
Mof_H 	H 	0.6235	0.6606	0.8363	0.022
Mof_H 	H 	0.629	0.6538	0.9134	0.023
Mof_C 	C 	0.6401	0.7354	0.8772	-0.044
Mof_H 	H 	0.6458	0.7386	0.8565	0.021
Mof_H 	H 	0.625	0.7199	0.8778	0.021
Mof_C 	C 	0.6876	0.7505	0.8938	-0.052
Mof_H 	H 	0.7051	0.7445	0.9051	0.025
Mof_H 	H 	0.6938	0.7547	0.8734	0.026
Mof_C 	C 	0.6574	0.722	0.9245	-0.035
Mof_H 	H 	0.6432	0.7056	0.926	0.018
Mof_H 	H 	0.6751	0.7166	0.9359	0.02
Mof_H 	H 	0.6611	0.1264	0.064	0.023
Mof_H 	H 	0.7144	0.0976	0.0604	0.022
Mof_H 	H 	0.7454	0.0295	0.967	0.022
Mof_H 	H 	0.71	0.0151	0.9206	0.021
Mof_C 	C 	0.7052	0.0817	0.9443	-0.047
Mof_H 	H 	0.7234	0.0889	0.9348	0.024
Mof_H 	H 	0.6904	0.0975	0.9432	0.023
Mof_N 	N 	0.66542	0.02385	0.85609	-0.141
Mof_C 	C 	0.7116	0.0742	0.977	-0.04
Mof_H 	H 	0.6988	0.0861	0.9898	0.021
Mof_H 	H 	0.7322	0.0791	0.9817	0.02
Mof_C 	C 	0.6186	0.0947	0.8932	-0.044
Mof_H 	H 	0.611	0.0769	0.8834	0.023
Mof_H 	H 	0.6235	0.0894	0.9137	0.022
Mof_H 	H 	0.629	0.0962	0.8366	0.023
Mof_C 	C 	0.6401	0.0146	0.8728	-0.044
Mof_H 	H 	0.6458	0.0114	0.8935	0.021
Mof_H 	H 	0.625	0.0301	0.8722	0.021
Mof_C 	C 	0.6876	0.9995	0.8562	-0.052
Mof_H 	H 	0.7051	0.0055	0.8449	0.025
Mof_H 	H 	0.6938	0.9953	0.8766	0.026
Mof_C 	C 	0.6574	0.028	0.8255	-0.035
Mof_H 	H 	0.6432	0.0444	0.824	0.018
Mof_H 	H 	0.6751	0.0334	0.8141	0.02
Mof_H 	H 	0.6611	0.6264	0.564	0.023
Mof_H 	H 	0.7144	0.5976	0.5604	0.022
Mof_H 	H 	0.7454	0.5295	0.467	0.022
Mof_H 	H 	0.71	0.5151	0.4206	0.021
Mof_C 	C 	0.7052	0.5817	0.4443	-0.047
Mof_H 	H 	0.7234	0.5889	0.4348	0.024
Mof_H 	H 	0.6904	0.5975	0.4432	0.023
Mof_N 	N 	0.66542	0.52385	0.35609	-0.141
Mof_C 	C 	0.7116	0.5742	0.477	-0.04
Mof_H 	H 	0.6988	0.5861	0.4898	0.021
Mof_H 	H 	0.7322	0.5791	0.4817	0.02
Mof_C 	C 	0.6186	0.5947	0.3932	-0.044
Mof_H 	H 	0.611	0.5769	0.3834	0.023
Mof_H 	H 	0.6235	0.5894	0.4137	0.022
Mof_H 	H 	0.629	0.5962	0.3366	0.023
Mof_C 	C 	0.6401	0.5146	0.3728	-0.044
Mof_H 	H 	0.6458	0.5114	0.3935	0.021
Mof_H 	H 	0.625	0.5301	0.3722	0.021
Mof_C 	C 	0.6876	0.4995	0.3562	-0.052
Mof_H 	H 	0.7051	0.5055	0.3449	0.025
Mof_H 	H 	0.6938	0.4953	0.3766	0.026
Mof_C 	C 	0.6574	0.528	0.3255	-0.035
Mof_H 	H 	0.6432	0.5444	0.324	0.018
Mof_H 	H 	0.6751	0.5334	0.3141	0.02
Mof_H 	H 	0.1611	0.1264	0.564	0.023
Mof_H 	H 	0.2144	0.0976	0.5604	0.022
Mof_H 	H 	0.2454	0.0295	0.467	0.022
Mof_H 	H 	0.21	0.0151	0.4206	0.021
Mof_C 	C 	0.2052	0.0817	0.4443	-0.047
Mof_H 	H 	0.2234	0.0889	0.4348	0.024
Mof_H 	H 	0.1904	0.0975	0.4432	0.023
Mof_N 	N 	0.16542	0.02385	0.35609	-0.141
Mof_C 	C 	0.2116	0.0742	0.477	-0.04
Mof_H 	H 	0.1988	0.0861	0.4898	0.021
Mof_H 	H 	0.2322	0.0791	0.4817	0.02
Mof_C 	C 	0.1186	0.0947	0.3932	-0.044
Mof_H 	H 	0.111	0.0769	0.3834	0.023
Mof_H 	H 	0.1235	0.0894	0.4137	0.022
Mof_H 	H 	0.129	0.0962	0.3366	0.023
Mof_C 	C 	0.1401	0.0146	0.3728	-0.044
Mof_H 	H 	0.1458	0.0114	0.3935	0.021
Mof_H 	H 	0.125	0.0301	0.3722	0.021
Mof_C 	C 	0.1876	0.9995	0.3562	-0.052
Mof_H 	H 	0.2051	0.0055	0.3449	0.025
Mof_H 	H 	0.1938	0.9953	0.3766	0.026
Mof_C 	C 	0.1574	0.028	0.3255	-0.035
Mof_H 	H 	0.1432	0.0444	0.324	0.018
Mof_H 	H 	0.1751	0.0334	0.3141	0.02
Mof_H 	H 	0.1611	0.6264	0.064	0.023
Mof_H 	H 	0.2144	0.5976	0.0604	0.022
Mof_H 	H 	0.2454	0.5295	0.967	0.022
Mof_H 	H 	0.21	0.5151	0.9206	0.021
Mof_C 	C 	0.2052	0.5817	0.9443	-0.047
Mof_H 	H 	0.2234	0.5889	0.9348	0.024
Mof_H 	H 	0.1904	0.5975	0.9432	0.023
Mof_N 	N 	0.16542	0.52385	0.85609	-0.141
Mof_C 	C 	0.2116	0.5742	0.977	-0.04
Mof_H 	H 	0.1988	0.5861	0.9898	0.021
Mof_H 	H 	0.2322	0.5791	0.9817	0.02
Mof_C 	C 	0.1186	0.5947	0.8932	-0.044
Mof_H 	H 	0.111	0.5769	0.8834	0.023
Mof_H 	H 	0.1235	0.5894	0.9137	0.022
Mof_H 	H 	0.129	0.5962	0.8366	0.023
Mof_C 	C 	0.1401	0.5146	0.8728	-0.044
Mof_H 	H 	0.1458	0.5114	0.8935	0.021
Mof_H 	H 	0.125	0.5301	0.8722	0.021
Mof_C 	C 	0.1876	0.4995	0.8562	-0.052
Mof_H 	H 	0.2051	0.5055	0.8449	0.025
Mof_H 	H 	0.1938	0.4953	0.8766	0.026
Mof_C 	C 	0.1574	0.528	0.8255	-0.035
Mof_H 	H 	0.1432	0.5444	0.824	0.018
Mof_H 	H 	0.1751	0.5334	0.8141	0.02
Mof_H 	H 	0.5889	0.6236	0.564	0.023
Mof_H 	H 	0.5356	0.6524	0.5604	0.022
Mof_H 	H 	0.5046	0.7205	0.467	0.022
Mof_H 	H 	0.54	0.7349	0.4206	0.021
Mof_C 	C 	0.5448	0.6683	0.4443	-0.047
Mof_H 	H 	0.5266	0.6611	0.4348	0.024
Mof_H 	H 	0.5596	0.6525	0.4432	0.023
Mof_N 	N 	0.58458	0.72615	0.35609	-0.141
Mof_C 	C 	0.5384	0.6758	0.477	-0.04
Mof_H 	H 	0.5512	0.6639	0.4898	0.021
Mof_H 	H 	0.5178	0.6709	0.4817	0.02
Mof_C 	C 	0.6314	0.6553	0.3932	-0.044
Mof_H 	H 	0.639	0.6731	0.3834	0.023
Mof_H 	H 	0.6265	0.6606	0.4137	0.022
Mof_H 	H 	0.621	0.6538	0.3366	0.023
Mof_C 	C 	0.6099	0.7354	0.3728	-0.044
Mof_H 	H 	0.6042	0.7386	0.3935	0.021
Mof_H 	H 	0.625	0.7199	0.3722	0.021
Mof_C 	C 	0.5624	0.7505	0.3562	-0.052
Mof_H 	H 	0.5449	0.7445	0.3449	0.025
Mof_H 	H 	0.5562	0.7547	0.3766	0.026
Mof_C 	C 	0.5926	0.722	0.3255	-0.035
Mof_H 	H 	0.6068	0.7056	0.324	0.018
Mof_H 	H 	0.5749	0.7166	0.3141	0.02
Mof_H 	H 	0.5889	0.1236	0.064	0.023
Mof_H 	H 	0.5356	0.1524	0.0604	0.022
Mof_H 	H 	0.5046	0.2205	0.967	0.022
Mof_H 	H 	0.54	0.2349	0.9206	0.021
Mof_C 	C 	0.5448	0.1683	0.9443	-0.047
Mof_H 	H 	0.5266	0.1611	0.9348	0.024
Mof_H 	H 	0.5596	0.1525	0.9432	0.023
Mof_N 	N 	0.58458	0.22615	0.85609	-0.141
Mof_C 	C 	0.5384	0.1758	0.977	-0.04
Mof_H 	H 	0.5512	0.1639	0.9898	0.021
Mof_H 	H 	0.5178	0.1709	0.9817	0.02
Mof_C 	C 	0.6314	0.1553	0.8932	-0.044
Mof_H 	H 	0.639	0.1731	0.8834	0.023
Mof_H 	H 	0.6265	0.1606	0.9137	0.022
Mof_H 	H 	0.621	0.1538	0.8366	0.023
Mof_C 	C 	0.6099	0.2354	0.8728	-0.044
Mof_H 	H 	0.6042	0.2386	0.8935	0.021
Mof_H 	H 	0.625	0.2199	0.8722	0.021
Mof_C 	C 	0.5624	0.2505	0.8562	-0.052
Mof_H 	H 	0.5449	0.2445	0.8449	0.025
Mof_H 	H 	0.5562	0.2547	0.8766	0.026
Mof_C 	C 	0.5926	0.222	0.8255	-0.035
Mof_H 	H 	0.6068	0.2056	0.824	0.018
Mof_H 	H 	0.5749	0.2166	0.8141	0.02
Mof_H 	H 	0.0889	0.6236	0.064	0.023
Mof_H 	H 	0.0356	0.6524	0.0604	0.022
Mof_H 	H 	0.0046	0.7205	0.967	0.022
Mof_H 	H 	0.04	0.7349	0.9206	0.021
Mof_C 	C 	0.0448	0.6683	0.9443	-0.047
Mof_H 	H 	0.0266	0.6611	0.9348	0.024
Mof_H 	H 	0.0596	0.6525	0.9432	0.023
Mof_N 	N 	0.08458	0.72615	0.85609	-0.141
Mof_C 	C 	0.0384	0.6758	0.977	-0.04
Mof_H 	H 	0.0512	0.6639	0.9898	0.021
Mof_H 	H 	0.0178	0.6709	0.9817	0.02
Mof_C 	C 	0.1314	0.6553	0.8932	-0.044
Mof_H 	H 	0.139	0.6731	0.8834	0.023
Mof_H 	H 	0.1265	0.6606	0.9137	0.022
Mof_H 	H 	0.121	0.6538	0.8366	0.023
Mof_C 	C 	0.1099	0.7354	0.8728	-0.044
Mof_H 	H 	0.1042	0.7386	0.8935	0.021
Mof_H 	H 	0.125	0.7199	0.8722	0.021
Mof_C 	C 	0.0624	0.7505	0.8562	-0.052
Mof_H 	H 	0.0449	0.7445	0.8449	0.025
Mof_H 	H 	0.0562	0.7547	0.8766	0.026
Mof_C 	C 	0.0926	0.722	0.8255	-0.035
Mof_H 	H 	0.1068	0.7056	0.824	0.018
Mof_H 	H 	0.0749	0.7166	0.8141	0.02
Mof_H 	H 	0.0889	0.1236	0.564	0.023
Mof_H 	H 	0.0356	0.1524	0.5604	0.022
Mof_H 	H 	0.0046	0.2205	0.467	0.022
Mof_H 	H 	0.04	0.2349	0.4206	0.021
Mof_C 	C 	0.0448	0.1683	0.4443	-0.047
Mof_H 	H 	0.0266	0.1611	0.4348	0.024
Mof_H 	H 	0.0596	0.1525	0.4432	0.023
Mof_N 	N 	0.08458	0.22615	0.35609	-0.141
Mof_C 	C 	0.0384	0.1758	0.477	-0.04
Mof_H 	H 	0.0512	0.1639	0.4898	0.021
Mof_H 	H 	0.0178	0.1709	0.4817	0.02
Mof_C 	C 	0.1314	0.1553	0.3932	-0.044
Mof_H 	H 	0.139	0.1731	0.3834	0.023
Mof_H 	H 	0.1265	0.1606	0.4137	0.022
Mof_H 	H 	0.121	0.1538	0.3366	0.023
Mof_C 	C 	0.1099	0.2354	0.3728	-0.044
Mof_H 	H 	0.1042	0.2386	0.3935	0.021
Mof_H 	H 	0.125	0.2199	0.3722	0.021
Mof_C 	C 	0.0624	0.2505	0.3562	-0.052
Mof_H 	H 	0.0449	0.2445	0.3449	0.025
Mof_H 	H 	0.0562	0.2547	0.3766	0.026
Mof_C 	C 	0.0926	0.222	0.3255	-0.035
Mof_H 	H 	0.1068	0.2056	0.324	0.018
Mof_H 	H 	0.0749	0.2166	0.3141	0.02
Mof_H 	H 	0.0889	0.6264	0.186	0.023
Mof_H 	H 	0.0356	0.5976	0.1896	0.022
Mof_H 	H 	0.0046	0.5295	0.283	0.022
Mof_H 	H 	0.04	0.5151	0.3294	0.021
Mof_C 	C 	0.0448	0.5817	0.3057	-0.047
Mof_H 	H 	0.0266	0.5889	0.3152	0.024
Mof_H 	H 	0.0596	0.5975	0.3068	0.023
Mof_N 	N 	0.08458	0.52385	0.39391	-0.141
Mof_C 	C 	0.0384	0.5742	0.273	-0.04
Mof_H 	H 	0.0512	0.5861	0.2602	0.021
Mof_H 	H 	0.0178	0.5791	0.2683	0.02
Mof_C 	C 	0.1314	0.5947	0.3568	-0.044
Mof_H 	H 	0.139	0.5769	0.3666	0.023
Mof_H 	H 	0.1265	0.5894	0.3363	0.022
Mof_H 	H 	0.121	0.5962	0.4134	0.023
Mof_C 	C 	0.1099	0.5146	0.3772	-0.044
Mof_H 	H 	0.1042	0.5114	0.3565	0.021
Mof_H 	H 	0.125	0.5301	0.3778	0.021
Mof_C 	C 	0.0624	0.4995	0.3938	-0.052
Mof_H 	H 	0.0449	0.5055	0.4051	0.025
Mof_H 	H 	0.0562	0.4953	0.3734	0.026
Mof_C 	C 	0.0926	0.528	0.4245	-0.035
Mof_H 	H 	0.1068	0.5444	0.426	0.018
Mof_H 	H 	0.0749	0.5334	0.4359	0.02
Mof_H 	H 	0.0889	0.1264	0.686	0.023
Mof_H 	H 	0.0356	0.0976	0.6896	0.022
Mof_H 	H 	0.0046	0.0295	0.783	0.022
Mof_H 	H 	0.04	0.0151	0.8294	0.021
Mof_C 	C 	0.0448	0.0817	0.8057	-0.047
Mof_H 	H 	0.0266	0.0889	0.8152	0.024
Mof_H 	H 	0.0596	0.0975	0.8068	0.023
Mof_N 	N 	0.08458	0.02385	0.89391	-0.141
Mof_C 	C 	0.0384	0.0742	0.773	-0.04
Mof_H 	H 	0.0512	0.0861	0.7602	0.021
Mof_H 	H 	0.0178	0.0791	0.7683	0.02
Mof_C 	C 	0.1314	0.0947	0.8568	-0.044
Mof_H 	H 	0.139	0.0769	0.8666	0.023
Mof_H 	H 	0.1265	0.0894	0.8363	0.022
Mof_H 	H 	0.121	0.0962	0.9134	0.023
Mof_C 	C 	0.1099	0.0146	0.8772	-0.044
Mof_H 	H 	0.1042	0.0114	0.8565	0.021
Mof_H 	H 	0.125	0.0301	0.8778	0.021
Mof_C 	C 	0.0624	0.9995	0.8938	-0.052
Mof_H 	H 	0.0449	0.0055	0.9051	0.025
Mof_H 	H 	0.0562	0.9953	0.8734	0.026
Mof_C 	C 	0.0926	0.028	0.9245	-0.035
Mof_H 	H 	0.1068	0.0444	0.926	0.018
Mof_H 	H 	0.0749	0.0334	0.9359	0.02
Mof_H 	H 	0.5889	0.6264	0.686	0.023
Mof_H 	H 	0.5356	0.5976	0.6896	0.022
Mof_H 	H 	0.5046	0.5295	0.783	0.022
Mof_H 	H 	0.54	0.5151	0.8294	0.021
Mof_C 	C 	0.5448	0.5817	0.8057	-0.047
Mof_H 	H 	0.5266	0.5889	0.8152	0.024
Mof_H 	H 	0.5596	0.5975	0.8068	0.023
Mof_N 	N 	0.58458	0.52385	0.89391	-0.141
Mof_C 	C 	0.5384	0.5742	0.773	-0.04
Mof_H 	H 	0.5512	0.5861	0.7602	0.021
Mof_H 	H 	0.5178	0.5791	0.7683	0.02
Mof_C 	C 	0.6314	0.5947	0.8568	-0.044
Mof_H 	H 	0.639	0.5769	0.8666	0.023
Mof_H 	H 	0.6265	0.5894	0.8363	0.022
Mof_H 	H 	0.621	0.5962	0.9134	0.023
Mof_C 	C 	0.6099	0.5146	0.8772	-0.044
Mof_H 	H 	0.6042	0.5114	0.8565	0.021
Mof_H 	H 	0.625	0.5301	0.8778	0.021
Mof_C 	C 	0.5624	0.4995	0.8938	-0.052
Mof_H 	H 	0.5449	0.5055	0.9051	0.025
Mof_H 	H 	0.5562	0.4953	0.8734	0.026
Mof_C 	C 	0.5926	0.528	0.9245	-0.035
Mof_H 	H 	0.6068	0.5444	0.926	0.018
Mof_H 	H 	0.5749	0.5334	0.9359	0.02
Mof_H 	H 	0.5889	0.1264	0.186	0.023
Mof_H 	H 	0.5356	0.0976	0.1896	0.022
Mof_H 	H 	0.5046	0.0295	0.283	0.022
Mof_H 	H 	0.54	0.0151	0.3294	0.021
Mof_C 	C 	0.5448	0.0817	0.3057	-0.047
Mof_H 	H 	0.5266	0.0889	0.3152	0.024
Mof_H 	H 	0.5596	0.0975	0.3068	0.023
Mof_N 	N 	0.58458	0.02385	0.39391	-0.141
Mof_C 	C 	0.5384	0.0742	0.273	-0.04
Mof_H 	H 	0.5512	0.0861	0.2602	0.021
Mof_H 	H 	0.5178	0.0791	0.2683	0.02
Mof_C 	C 	0.6314	0.0947	0.3568	-0.044
Mof_H 	H 	0.639	0.0769	0.3666	0.023
Mof_H 	H 	0.6265	0.0894	0.3363	0.022
Mof_H 	H 	0.621	0.0962	0.4134	0.023
Mof_C 	C 	0.6099	0.0146	0.3772	-0.044
Mof_H 	H 	0.6042	0.0114	0.3565	0.021
Mof_H 	H 	0.625	0.0301	0.3778	0.021
Mof_C 	C 	0.5624	0.9995	0.3938	-0.052
Mof_H 	H 	0.5449	0.0055	0.4051	0.025
Mof_H 	H 	0.5562	0.9953	0.3734	0.026
Mof_C 	C 	0.5926	0.028	0.4245	-0.035
Mof_H 	H 	0.6068	0.0444	0.426	0.018
Mof_H 	H 	0.5749	0.0334	0.4359	0.02
Mof_Ag	Ag	0.125	0.625	0.125	0.564
Mof_Ag	Ag	0.125	0.125	0.625	0.564
Mof_Ag	Ag	0.625	0.625	0.625	0.564
Mof_Ag	Ag	0.625	0.125	0.125	0.564
Mof_Ag	Ag	0.375	0.375	0.375	0.564
Mof_Ag	Ag	0.375	0.875	0.875	0.564
Mof_Ag	Ag	0.875	0.375	0.875	0.564
Mof_Ag	Ag	0.875	0.875	0.375	0.564
Mof_N 	N 	0.1548	0.5952	0.0952	-0.141
Mof_Ag	Ag	0.2176	0.5324	0.0324	0.556
Mof_N 	N 	0.1875	0.5625	0.0625	-0.14
Mof_N 	N 	0.5952	0.6548	0.5952	-0.141
Mof_Ag	Ag	0.5324	0.7176	0.5324	0.556
Mof_N 	N 	0.5625	0.6875	0.5625	-0.14
Mof_N 	N 	0.0952	0.0952	0.6548	-0.141
Mof_Ag	Ag	0.0324	0.0324	0.7176	0.556
Mof_N 	N 	0.0625	0.0625	0.6875	-0.14
Mof_N 	N 	0.6548	0.1548	0.1548	-0.141
Mof_Ag	Ag	0.7176	0.2176	0.2176	0.556
Mof_N 	N 	0.6875	0.1875	0.1875	-0.14
Mof_N 	N 	0.6548	0.6548	0.6548	-0.141
Mof_Ag	Ag	0.7176	0.7176	0.7176	0.556
Mof_N 	N 	0.6875	0.6875	0.6875	-0.14
Mof_N 	N 	0.0952	0.1548	0.5952	-0.141
Mof_Ag	Ag	0.0324	0.2176	0.5324	0.556
Mof_N 	N 	0.0625	0.1875	0.5625	-0.14
Mof_N 	N 	0.5952	0.5952	0.6548	-0.141
Mof_Ag	Ag	0.5324	0.5324	0.7176	0.556
Mof_N 	N 	0.5625	0.5625	0.6875	-0.14
Mof_N 	N 	0.6548	0.0952	0.0952	-0.141
Mof_Ag	Ag	0.7176	0.0324	0.0324	0.556
Mof_N 	N 	0.6875	0.0625	0.0625	-0.14
Mof_N 	N 	0.1548	0.6548	0.1548	-0.141
Mof_Ag	Ag	0.2176	0.7176	0.2176	0.556
Mof_N 	N 	0.1875	0.6875	0.1875	-0.14
Mof_N 	N 	0.5952	0.0952	0.1548	-0.141
Mof_Ag	Ag	0.5324	0.0324	0.2176	0.556
Mof_N 	N 	0.5625	0.0625	0.1875	-0.14
Mof_N 	N 	0.6548	0.5952	0.5952	-0.141
Mof_Ag	Ag	0.7176	0.5324	0.5324	0.556
Mof_N 	N 	0.6875	0.5625	0.5625	-0.14
Mof_N 	N 	0.0952	0.6548	0.0952	-0.141
Mof_Ag	Ag	0.0324	0.7176	0.0324	0.556
Mof_N 	N 	0.0625	0.6875	0.0625	-0.14
Mof_N 	N 	0.1548	0.1548	0.6548	-0.141
Mof_Ag	Ag	0.2176	0.2176	0.7176	0.556
Mof_N 	N 	0.1875	0.1875	0.6875	-0.14
Mof_N 	N 	0.3452	0.4048	0.4048	-0.141
Mof_Ag	Ag	0.2824	0.4676	0.4676	0.556
Mof_N 	N 	0.3125	0.4375	0.4375	-0.14
Mof_N 	N 	0.4048	0.8452	0.9048	-0.141
Mof_Ag	Ag	0.4676	0.7824	0.9676	0.556
Mof_N 	N 	0.4375	0.8125	0.9375	-0.14
Mof_N 	N 	0.8452	0.3452	0.8452	-0.141
Mof_Ag	Ag	0.7824	0.2824	0.7824	0.556
Mof_N 	N 	0.8125	0.3125	0.8125	-0.14
Mof_N 	N 	0.9048	0.9048	0.3452	-0.141
Mof_Ag	Ag	0.9676	0.9676	0.2824	0.556
Mof_N 	N 	0.9375	0.9375	0.3125	-0.14
Mof_N 	N 	0.9048	0.3452	0.9048	-0.141
Mof_Ag	Ag	0.9676	0.2824	0.9676	0.556
Mof_N 	N 	0.9375	0.3125	0.9375	-0.14
Mof_N 	N 	0.3452	0.8452	0.8452	-0.141
Mof_Ag	Ag	0.2824	0.7824	0.7824	0.556
Mof_N 	N 	0.3125	0.8125	0.8125	-0.14
Mof_N 	N 	0.3452	0.3452	0.3452	-0.141
Mof_Ag	Ag	0.2824	0.2824	0.2824	0.556
Mof_N 	N 	0.3125	0.3125	0.3125	-0.14
Mof_N 	N 	0.8452	0.9048	0.4048	-0.141
Mof_Ag	Ag	0.7824	0.9676	0.4676	0.556
Mof_N 	N 	0.8125	0.9375	0.4375	-0.14
Mof_N 	N 	0.4048	0.4048	0.3452	-0.141
Mof_Ag	Ag	0.4676	0.4676	0.2824	0.556
Mof_N 	N 	0.4375	0.4375	0.3125	-0.14
Mof_N 	N 	0.8452	0.8452	0.3452	-0.141
Mof_Ag	Ag	0.7824	0.7824	0.2824	0.556
Mof_N 	N 	0.8125	0.8125	0.3125	-0.14
Mof_N 	N 	0.3452	0.9048	0.9048	-0.141
Mof_Ag	Ag	0.2824	0.9676	0.9676	0.556
Mof_N 	N 	0.3125	0.9375	0.9375	-0.14
Mof_N 	N 	0.4048	0.3452	0.4048	-0.141
Mof_Ag	Ag	0.4676	0.2824	0.4676	0.556
Mof_N 	N 	0.4375	0.3125	0.4375	-0.14
Mof_N 	N 	0.9048	0.4048	0.8452	-0.141
Mof_Ag	Ag	0.9676	0.4676	0.7824	0.556
Mof_N 	N 	0.9375	0.4375	0.8125	-0.14
Mof_N 	N 	0.8452	0.4048	0.9048	-0.141
Mof_Ag	Ag	0.7824	0.4676	0.9676	0.556
Mof_N 	N 	0.8125	0.4375	0.9375	-0.14
Mof_N 	N 	0.9048	0.8452	0.4048	-0.141
Mof_Ag	Ag	0.9676	0.7824	0.4676	0.556
Mof_N 	N 	0.9375	0.8125	0.4375	-0.14
Mof_N 	N 	0.4048	0.9048	0.8452	-0.141
Mof_Ag	Ag	0.4676	0.9676	0.7824	0.556
Mof_N 	N 	0.4375	0.9375	0.8125	-0.14
Mof_N 	N 	0.5952	0.1548	0.0952	-0.141
Mof_Ag	Ag	0.5324	0.2176	0.0324	0.556
Mof_N 	N 	0.5625	0.1875	0.0625	-0.14
Mof_N 	N 	0.1548	0.0952	0.5952	-0.141
Mof_Ag	Ag	0.2176	0.0324	0.5324	0.556
Mof_N 	N 	0.1875	0.0625	0.5625	-0.14
Mof_N 	N 	0.0952	0.5952	0.1548	-0.141
Mof_Ag	Ag	0.0324	0.5324	0.2176	0.556
Mof_N 	N 	0.0625	0.5625	0.1875	-0.14
Mof_C 	C 	0.1735	0.6137	0.0765	-0.047
Mof_C 	C 	0.1935	0.5934	0.0565	-0.043
Mof_C 	C 	0.1735	0.1137	0.5765	-0.047
Mof_C 	C 	0.1935	0.0934	0.5565	-0.043
Mof_C 	C 	0.6735	0.1137	0.0765	-0.047
Mof_C 	C 	0.6935	0.0934	0.0565	-0.043
Mof_C 	C 	0.5765	0.6363	0.5765	-0.047
Mof_C 	C 	0.5565	0.6566	0.5565	-0.043
Mof_C 	C 	0.5765	0.1363	0.0765	-0.047
Mof_C 	C 	0.5565	0.1566	0.0565	-0.043
Mof_C 	C 	0.0765	0.6363	0.0765	-0.047
Mof_C 	C 	0.0565	0.6566	0.0565	-0.043
Mof_C 	C 	0.0765	0.1363	0.5765	-0.047
Mof_C 	C 	0.0565	0.1566	0.5565	-0.043
Mof_C 	C 	0.0765	0.1137	0.6735	-0.047
Mof_C 	C 	0.0565	0.0934	0.6935	-0.043
Mof_C 	C 	0.5765	0.1137	0.1735	-0.047
Mof_C 	C 	0.5565	0.0934	0.1935	-0.043
Mof_C 	C 	0.6735	0.1363	0.1735	-0.047
Mof_C 	C 	0.6935	0.1566	0.1935	-0.043
Mof_C 	C 	0.6735	0.6363	0.6735	-0.047
Mof_C 	C 	0.6935	0.6566	0.6935	-0.043
Mof_C 	C 	0.0765	0.1735	0.6137	-0.047
Mof_C 	C 	0.0565	0.1935	0.5934	-0.043
Mof_C 	C 	0.0765	0.6735	0.1137	-0.047
Mof_C 	C 	0.0565	0.6935	0.0934	-0.043
Mof_C 	C 	0.5765	0.1735	0.1137	-0.047
Mof_C 	C 	0.5565	0.1935	0.0934	-0.043
Mof_C 	C 	0.5765	0.5765	0.6363	-0.047
Mof_C 	C 	0.5565	0.5565	0.6566	-0.043
Mof_C 	C 	0.5765	0.0765	0.1363	-0.047
Mof_C 	C 	0.5565	0.0565	0.1566	-0.043
Mof_C 	C 	0.0765	0.5765	0.1363	-0.047
Mof_C 	C 	0.0565	0.5565	0.1566	-0.043
Mof_C 	C 	0.0765	0.0765	0.6363	-0.047
Mof_C 	C 	0.0565	0.0565	0.6566	-0.043
Mof_C 	C 	0.6735	0.0765	0.1137	-0.047
Mof_C 	C 	0.6935	0.0565	0.0934	-0.043
Mof_C 	C 	0.6735	0.5765	0.6137	-0.047
Mof_C 	C 	0.6935	0.5565	0.5934	-0.043
Mof_C 	C 	0.1735	0.6735	0.1363	-0.047
Mof_C 	C 	0.1935	0.6935	0.1566	-0.043
Mof_C 	C 	0.1735	0.1735	0.6363	-0.047
Mof_C 	C 	0.1935	0.1935	0.6566	-0.043
Mof_C 	C 	0.6735	0.6735	0.6363	-0.047
Mof_C 	C 	0.6935	0.6935	0.6566	-0.043
Mof_C 	C 	0.6137	0.0765	0.1735	-0.047
Mof_C 	C 	0.5934	0.0565	0.1935	-0.043
Mof_C 	C 	0.6137	0.5765	0.6735	-0.047
Mof_C 	C 	0.5934	0.5565	0.6935	-0.043
Mof_C 	C 	0.1137	0.0765	0.6735	-0.047
Mof_C 	C 	0.0934	0.0565	0.6935	-0.043
Mof_C 	C 	0.6363	0.5765	0.5765	-0.047
Mof_C 	C 	0.6566	0.5565	0.5565	-0.043
Mof_C 	C 	0.6363	0.0765	0.0765	-0.047
Mof_C 	C 	0.6566	0.0565	0.0565	-0.043
Mof_C 	C 	0.1363	0.5765	0.0765	-0.047
Mof_C 	C 	0.1566	0.5565	0.0565	-0.043
Mof_C 	C 	0.1363	0.0765	0.5765	-0.047
Mof_C 	C 	0.1566	0.0565	0.5565	-0.043
Mof_C 	C 	0.1137	0.6735	0.0765	-0.047
Mof_C 	C 	0.0934	0.6935	0.0565	-0.043
Mof_C 	C 	0.1137	0.1735	0.5765	-0.047
Mof_C 	C 	0.0934	0.1935	0.5565	-0.043
Mof_C 	C 	0.1363	0.1735	0.6735	-0.047
Mof_C 	C 	0.1566	0.1935	0.6935	-0.043
Mof_C 	C 	0.6363	0.1735	0.1735	-0.047
Mof_C 	C 	0.6566	0.1935	0.1935	-0.043
Mof_C 	C 	0.6363	0.6735	0.6735	-0.047
Mof_C 	C 	0.6566	0.6935	0.6935	-0.043
Mof_C 	C 	0.3637	0.4235	0.4235	-0.047
Mof_C 	C 	0.3434	0.4435	0.4435	-0.043
Mof_C 	C 	0.3637	0.9235	0.9235	-0.047
Mof_C 	C 	0.3434	0.9435	0.9435	-0.043
Mof_C 	C 	0.8637	0.4235	0.9235	-0.047
Mof_C 	C 	0.8434	0.4435	0.9435	-0.043
Mof_C 	C 	0.8637	0.9235	0.4235	-0.047
Mof_C 	C 	0.8434	0.9435	0.4435	-0.043
Mof_C 	C 	0.3863	0.8265	0.9235	-0.047
Mof_C 	C 	0.4066	0.8065	0.9435	-0.043
Mof_C 	C 	0.3863	0.3265	0.4235	-0.047
Mof_C 	C 	0.4066	0.3065	0.4435	-0.043
Mof_C 	C 	0.8637	0.3265	0.8265	-0.047
Mof_C 	C 	0.8434	0.3065	0.8065	-0.043
Mof_C 	C 	0.3637	0.3265	0.3265	-0.047
Mof_C 	C 	0.3434	0.3065	0.3065	-0.043
Mof_C 	C 	0.3637	0.8265	0.8265	-0.047
Mof_C 	C 	0.3434	0.8065	0.8065	-0.043
Mof_C 	C 	0.8863	0.9235	0.3265	-0.047
Mof_C 	C 	0.9066	0.9435	0.3065	-0.043
Mof_C 	C 	0.8863	0.4235	0.8265	-0.047
Mof_C 	C 	0.9066	0.4435	0.8065	-0.043
Mof_C 	C 	0.9235	0.3265	0.8863	-0.047
Mof_C 	C 	0.9435	0.3065	0.9066	-0.043
Mof_C 	C 	0.4235	0.3265	0.3863	-0.047
Mof_C 	C 	0.4435	0.3065	0.4066	-0.043
Mof_C 	C 	0.3265	0.8265	0.8637	-0.047
Mof_C 	C 	0.3065	0.8065	0.8434	-0.043
Mof_C 	C 	0.3265	0.3265	0.3637	-0.047
Mof_C 	C 	0.3065	0.3065	0.3434	-0.043
Mof_C 	C 	0.8265	0.8265	0.3637	-0.047
Mof_C 	C 	0.8065	0.8065	0.3434	-0.043
Mof_C 	C 	0.8265	0.9235	0.3863	-0.047
Mof_C 	C 	0.8065	0.9435	0.4066	-0.043
Mof_C 	C 	0.8265	0.4235	0.8863	-0.047
Mof_C 	C 	0.8065	0.4435	0.9066	-0.043
Mof_C 	C 	0.4235	0.4235	0.3637	-0.047
Mof_C 	C 	0.4435	0.4435	0.3434	-0.043
Mof_C 	C 	0.4235	0.9235	0.8637	-0.047
Mof_C 	C 	0.4435	0.9435	0.8434	-0.043
Mof_C 	C 	0.9235	0.4235	0.8637	-0.047
Mof_C 	C 	0.9435	0.4435	0.8434	-0.043
Mof_C 	C 	0.9235	0.9235	0.3637	-0.047
Mof_C 	C 	0.9435	0.9435	0.3434	-0.043
Mof_C 	C 	0.8265	0.8637	0.3265	-0.047
Mof_C 	C 	0.8065	0.8434	0.3065	-0.043
Mof_C 	C 	0.8265	0.3637	0.8265	-0.047
Mof_C 	C 	0.8065	0.3434	0.8065	-0.043
Mof_C 	C 	0.3265	0.8863	0.9235	-0.047
Mof_C 	C 	0.3065	0.9066	0.9435	-0.043
Mof_C 	C 	0.3265	0.3863	0.4235	-0.047
Mof_C 	C 	0.3065	0.4066	0.4435	-0.043
Mof_C 	C 	0.4235	0.3637	0.4235	-0.047
Mof_C 	C 	0.4435	0.3434	0.4435	-0.043
Mof_C 	C 	0.4235	0.8637	0.9235	-0.047
Mof_C 	C 	0.4435	0.8434	0.9435	-0.043
Mof_C 	C 	0.9235	0.3637	0.9235	-0.047
Mof_C 	C 	0.9435	0.3434	0.9435	-0.043
Mof_C 	C 	0.9235	0.8637	0.4235	-0.047
Mof_C 	C 	0.9435	0.8434	0.4435	-0.043
Mof_C 	C 	0.9235	0.3863	0.8265	-0.047
Mof_C 	C 	0.9435	0.4066	0.8065	-0.043
Mof_C 	C 	0.4235	0.3863	0.3265	-0.047
Mof_C 	C 	0.4435	0.4066	0.3065	-0.043
Mof_C 	C 	0.8265	0.3863	0.9235	-0.047
Mof_C 	C 	0.8065	0.4066	0.9435	-0.043
Mof_C 	C 	0.8265	0.8863	0.4235	-0.047
Mof_C 	C 	0.8065	0.9066	0.4435	-0.043
Mof_C 	C 	0.9235	0.8863	0.3265	-0.047
Mof_C 	C 	0.9435	0.9066	0.3065	-0.043
Mof_C 	C 	0.4235	0.8863	0.8265	-0.047
Mof_C 	C 	0.4435	0.9066	0.8065	-0.043
Mof_C 	C 	0.3265	0.8637	0.8265	-0.047
Mof_C 	C 	0.3065	0.8434	0.8065	-0.043
Mof_C 	C 	0.3265	0.3637	0.3265	-0.047
Mof_C 	C 	0.3065	0.3434	0.3065	-0.043
Mof_C 	C 	0.9235	0.8265	0.3863	-0.047
Mof_C 	C 	0.9435	0.8065	0.4066	-0.043
Mof_C 	C 	0.4235	0.8265	0.8863	-0.047
Mof_C 	C 	0.4435	0.8065	0.9066	-0.043
Mof_C 	C 	0.3265	0.9235	0.8863	-0.047
Mof_C 	C 	0.3065	0.9435	0.9066	-0.043
Mof_C 	C 	0.3265	0.4235	0.3863	-0.047
Mof_C 	C 	0.3065	0.4435	0.4066	-0.043
Mof_C 	C 	0.8265	0.3265	0.8637	-0.047
Mof_C 	C 	0.8065	0.3065	0.8434	-0.043
Mof_C 	C 	0.3863	0.9235	0.8265	-0.047
Mof_C 	C 	0.4066	0.9435	0.8065	-0.043
Mof_C 	C 	0.3863	0.4235	0.3265	-0.047
Mof_C 	C 	0.4066	0.4435	0.3065	-0.043
Mof_C 	C 	0.8863	0.3265	0.9235	-0.047
Mof_C 	C 	0.9066	0.3065	0.9435	-0.043
Mof_C 	C 	0.8863	0.8265	0.4235	-0.047
Mof_C 	C 	0.9066	0.8065	0.4435	-0.043
Mof_C 	C 	0.8637	0.8265	0.3265	-0.047
Mof_C 	C 	0.8434	0.8065	0.3065	-0.043
Mof_C 	C 	0.6137	0.1735	0.0765	-0.047
Mof_C 	C 	0.5934	0.1935	0.0565	-0.043
Mof_C 	C 	0.6137	0.6735	0.5765	-0.047
Mof_C 	C 	0.5934	0.6935	0.5565	-0.043
Mof_C 	C 	0.1363	0.6735	0.1735	-0.047
Mof_C 	C 	0.1566	0.6935	0.1935	-0.043
Mof_C 	C 	0.1137	0.5765	0.1735	-0.047
Mof_C 	C 	0.0934	0.5565	0.1935	-0.043
Mof_C 	C 	0.5765	0.6735	0.6137	-0.047
Mof_C 	C 	0.5565	0.6935	0.5934	-0.043
Mof_C 	C 	0.6735	0.1735	0.1363	-0.047
Mof_C 	C 	0.6935	0.1935	0.1566	-0.043
Mof_C 	C 	0.1735	0.0765	0.6137	-0.047
Mof_C 	C 	0.1935	0.0565	0.5934	-0.043
Mof_C 	C 	0.1735	0.5765	0.1137	-0.047
Mof_C 	C 	0.1935	0.5565	0.0934	-0.043
Mof_C 	C 	0.1735	0.1363	0.6735	-0.047
Mof_C 	C 	0.1935	0.1566	0.6935	-0.043
Mof_C 	C 	0.1735	0.6363	0.1735	-0.047
Mof_C 	C 	0.1935	0.6566	0.1935	-0.043
Mof_C 	C 	0.6735	0.6137	0.5765	-0.047
Mof_C 	C 	0.6935	0.5934	0.5565	-0.043
Mof_C 	C 	0.0765	0.6137	0.1735	-0.047
Mof_C 	C 	0.0565	0.5934	0.1935	-0.043
Mof_C 	C 	0.5765	0.6137	0.6735	-0.047
Mof_C 	C 	0.5565	0.5934	0.6935	-0.043
Mof_Ag	Ag	0.37134	0.5676	0.0676	0.551
Mof_N 	N 	0.2672	0.54341	0.04341	-0.142
Mof_C 	C 	0.2868	0.5256	0.0256	-0.046
Mof_N 	N 	0.3214	0.55554	0.05554	-0.139
Mof_C 	C 	0.3193	0.5331	0.0331	-0.039
Mof_N 	N 	0.3721	0.60474	0.10474	-0.141
Mof_C 	C 	0.4027	0.6136	0.1136	-0.045
Mof_Ag	Ag	0.87134	0.5676	0.5676	0.551
Mof_N 	N 	0.7672	0.54341	0.54341	-0.142
Mof_C 	C 	0.7868	0.5256	0.5256	-0.046
Mof_N 	N 	0.8214	0.55554	0.55554	-0.139
Mof_C 	C 	0.8193	0.5331	0.5331	-0.039
Mof_N 	N 	0.8721	0.60474	0.60474	-0.141
Mof_C 	C 	0.9027	0.6136	0.6136	-0.045
Mof_Ag	Ag	0.37866	0.6824	0.5676	0.551
Mof_N 	N 	0.4828	0.70659	0.54341	-0.142
Mof_C 	C 	0.4632	0.7244	0.5256	-0.046
Mof_N 	N 	0.4286	0.69446	0.55554	-0.139
Mof_C 	C 	0.4307	0.7169	0.5331	-0.039
Mof_N 	N 	0.3779	0.64526	0.60474	-0.141
Mof_C 	C 	0.3473	0.6364	0.6136	-0.045
Mof_Ag	Ag	0.37866	0.1824	0.0676	0.551
Mof_N 	N 	0.4828	0.20659	0.04341	-0.142
Mof_C 	C 	0.4632	0.2244	0.0256	-0.046
Mof_N 	N 	0.4286	0.19446	0.05554	-0.139
Mof_C 	C 	0.4307	0.2169	0.0331	-0.039
Mof_N 	N 	0.3779	0.14526	0.10474	-0.141
Mof_C 	C 	0.3473	0.1364	0.1136	-0.045
Mof_Ag	Ag	0.87866	0.0676	0.6824	0.551
Mof_N 	N 	0.9828	0.04341	0.70659	-0.142
Mof_C 	C 	0.9632	0.0256	0.7244	-0.046
Mof_N 	N 	0.9286	0.05554	0.69446	-0.139
Mof_C 	C 	0.9307	0.0331	0.7169	-0.039
Mof_N 	N 	0.8779	0.10474	0.64526	-0.141
Mof_C 	C 	0.8473	0.1136	0.6364	-0.045
Mof_Ag	Ag	0.87866	0.5676	0.1824	0.551
Mof_N 	N 	0.9828	0.54341	0.20659	-0.142
Mof_C 	C 	0.9632	0.5256	0.2244	-0.046
Mof_N 	N 	0.9286	0.55554	0.19446	-0.139
Mof_C 	C 	0.9307	0.5331	0.2169	-0.039
Mof_N 	N 	0.8779	0.60474	0.14526	-0.141
Mof_C 	C 	0.8473	0.6136	0.1364	-0.045
Mof_Ag	Ag	0.87134	0.1824	0.1824	0.551
Mof_N 	N 	0.7672	0.20659	0.20659	-0.142
Mof_C 	C 	0.7868	0.2244	0.2244	-0.046
Mof_N 	N 	0.8214	0.19446	0.19446	-0.139
Mof_C 	C 	0.8193	0.2169	0.2169	-0.039
Mof_N 	N 	0.8721	0.14526	0.14526	-0.141
Mof_C 	C 	0.9027	0.1364	0.1364	-0.045
Mof_Ag	Ag	0.87134	0.6824	0.6824	0.551
Mof_N 	N 	0.7672	0.70659	0.70659	-0.142
Mof_C 	C 	0.7868	0.7244	0.7244	-0.046
Mof_N 	N 	0.8214	0.69446	0.69446	-0.139
Mof_C 	C 	0.8193	0.7169	0.7169	-0.039
Mof_N 	N 	0.8721	0.64526	0.64526	-0.141
Mof_C 	C 	0.9027	0.6364	0.6364	-0.045
Mof_Ag	Ag	0.37134	0.1824	0.6824	0.551
Mof_N 	N 	0.2672	0.20659	0.70659	-0.142
Mof_C 	C 	0.2868	0.2244	0.7244	-0.046
Mof_N 	N 	0.3214	0.19446	0.69446	-0.139
Mof_C 	C 	0.3193	0.2169	0.7169	-0.039
Mof_N 	N 	0.3721	0.14526	0.64526	-0.141
Mof_C 	C 	0.4027	0.1364	0.6364	-0.045
Mof_Ag	Ag	0.37134	0.6824	0.1824	0.551
Mof_N 	N 	0.2672	0.70659	0.20659	-0.142
Mof_C 	C 	0.2868	0.7244	0.2244	-0.046
Mof_N 	N 	0.3214	0.69446	0.19446	-0.139
Mof_C 	C 	0.3193	0.7169	0.2169	-0.039
Mof_N 	N 	0.3721	0.64526	0.14526	-0.141
Mof_C 	C 	0.4027	0.6364	0.1364	-0.045
Mof_Ag	Ag	0.0676	0.37134	0.5676	0.551
Mof_N 	N 	0.04341	0.2672	0.54341	-0.142
Mof_C 	C 	0.0256	0.2868	0.5256	-0.046
Mof_N 	N 	0.05554	0.3214	0.55554	-0.139
Mof_C 	C 	0.0331	0.3193	0.5331	-0.039
Mof_N 	N 	0.10474	0.3721	0.60474	-0.141
Mof_C 	C 	0.1136	0.4027	0.6136	-0.045
Mof_Ag	Ag	0.0676	0.87134	0.0676	0.551
Mof_N 	N 	0.04341	0.7672	0.04341	-0.142
Mof_C 	C 	0.0256	0.7868	0.0256	-0.046
Mof_N 	N 	0.05554	0.8214	0.05554	-0.139
Mof_C 	C 	0.0331	0.8193	0.0331	-0.039
Mof_N 	N 	0.10474	0.8721	0.10474	-0.141
Mof_C 	C 	0.1136	0.9027	0.1136	-0.045
Mof_Ag	Ag	0.5676	0.87134	0.5676	0.551
Mof_N 	N 	0.54341	0.7672	0.54341	-0.142
Mof_C 	C 	0.5256	0.7868	0.5256	-0.046
Mof_N 	N 	0.55554	0.8214	0.55554	-0.139
Mof_C 	C 	0.5331	0.8193	0.5331	-0.039
Mof_N 	N 	0.60474	0.8721	0.60474	-0.141
Mof_C 	C 	0.6136	0.9027	0.6136	-0.045
Mof_Ag	Ag	0.5676	0.37866	0.6824	0.551
Mof_N 	N 	0.54341	0.4828	0.70659	-0.142
Mof_C 	C 	0.5256	0.4632	0.7244	-0.046
Mof_N 	N 	0.55554	0.4286	0.69446	-0.139
Mof_C 	C 	0.5331	0.4307	0.7169	-0.039
Mof_N 	N 	0.60474	0.3779	0.64526	-0.141
Mof_C 	C 	0.6136	0.3473	0.6364	-0.045
Mof_Ag	Ag	0.5676	0.87866	0.1824	0.551
Mof_N 	N 	0.54341	0.9828	0.20659	-0.142
Mof_C 	C 	0.5256	0.9632	0.2244	-0.046
Mof_N 	N 	0.55554	0.9286	0.19446	-0.139
Mof_C 	C 	0.5331	0.9307	0.2169	-0.039
Mof_N 	N 	0.60474	0.8779	0.14526	-0.141
Mof_C 	C 	0.6136	0.8473	0.1364	-0.045
Mof_Ag	Ag	0.6824	0.87866	0.0676	0.551
Mof_N 	N 	0.70659	0.9828	0.04341	-0.142
Mof_C 	C 	0.7244	0.9632	0.0256	-0.046
Mof_N 	N 	0.69446	0.9286	0.05554	-0.139
Mof_C 	C 	0.7169	0.9307	0.0331	-0.039
Mof_N 	N 	0.64526	0.8779	0.10474	-0.141
Mof_C 	C 	0.6364	0.8473	0.1136	-0.045
Mof_Ag	Ag	0.1824	0.87866	0.5676	0.551
Mof_N 	N 	0.20659	0.9828	0.54341	-0.142
Mof_C 	C 	0.2244	0.9632	0.5256	-0.046
Mof_N 	N 	0.19446	0.9286	0.55554	-0.139
Mof_C 	C 	0.2169	0.9307	0.5331	-0.039
Mof_N 	N 	0.14526	0.8779	0.60474	-0.141
Mof_C 	C 	0.1364	0.8473	0.6136	-0.045
Mof_Ag	Ag	0.1824	0.87134	0.1824	0.551
Mof_N 	N 	0.20659	0.7672	0.20659	-0.142
Mof_C 	C 	0.2244	0.7868	0.2244	-0.046
Mof_N 	N 	0.19446	0.8214	0.19446	-0.139
Mof_C 	C 	0.2169	0.8193	0.2169	-0.039
Mof_N 	N 	0.14526	0.8721	0.14526	-0.141
Mof_C 	C 	0.1364	0.9027	0.1364	-0.045
Mof_Ag	Ag	0.1824	0.37134	0.6824	0.551
Mof_N 	N 	0.20659	0.2672	0.70659	-0.142
Mof_C 	C 	0.2244	0.2868	0.7244	-0.046
Mof_N 	N 	0.19446	0.3214	0.69446	-0.139
Mof_C 	C 	0.2169	0.3193	0.7169	-0.039
Mof_N 	N 	0.14526	0.3721	0.64526	-0.141
Mof_C 	C 	0.1364	0.4027	0.6364	-0.045
Mof_Ag	Ag	0.6824	0.87134	0.6824	0.551
Mof_N 	N 	0.70659	0.7672	0.70659	-0.142
Mof_C 	C 	0.7244	0.7868	0.7244	-0.046
Mof_N 	N 	0.69446	0.8214	0.69446	-0.139
Mof_C 	C 	0.7169	0.8193	0.7169	-0.039
Mof_N 	N 	0.64526	0.8721	0.64526	-0.141
Mof_C 	C 	0.6364	0.9027	0.6364	-0.045
Mof_Ag	Ag	0.6824	0.37134	0.1824	0.551
Mof_N 	N 	0.70659	0.2672	0.20659	-0.142
Mof_C 	C 	0.7244	0.2868	0.2244	-0.046
Mof_N 	N 	0.69446	0.3214	0.19446	-0.139
Mof_C 	C 	0.7169	0.3193	0.2169	-0.039
Mof_N 	N 	0.64526	0.3721	0.14526	-0.141
Mof_C 	C 	0.6364	0.4027	0.1364	-0.045
Mof_Ag	Ag	0.5676	0.0676	0.37134	0.551
Mof_N 	N 	0.54341	0.04341	0.2672	-0.142
Mof_C 	C 	0.5256	0.0256	0.2868	-0.046
Mof_N 	N 	0.55554	0.05554	0.3214	-0.139
Mof_C 	C 	0.5331	0.0331	0.3193	-0.039
Mof_N 	N 	0.60474	0.10474	0.3721	-0.141
Mof_C 	C 	0.6136	0.1136	0.4027	-0.045
Mof_Ag	Ag	0.5676	0.5676	0.87134	0.551
Mof_N 	N 	0.54341	0.54341	0.7672	-0.142
Mof_C 	C 	0.5256	0.5256	0.7868	-0.046
Mof_N 	N 	0.55554	0.55554	0.8214	-0.139
Mof_C 	C 	0.5331	0.5331	0.8193	-0.039
Mof_N 	N 	0.60474	0.60474	0.8721	-0.141
Mof_C 	C 	0.6136	0.6136	0.9027	-0.045
Mof_Ag	Ag	0.6824	0.5676	0.37866	0.551
Mof_N 	N 	0.70659	0.54341	0.4828	-0.142
Mof_C 	C 	0.7244	0.5256	0.4632	-0.046
Mof_N 	N 	0.69446	0.55554	0.4286	-0.139
Mof_C 	C 	0.7169	0.5331	0.4307	-0.039
Mof_N 	N 	0.64526	0.60474	0.3779	-0.141
Mof_C 	C 	0.6364	0.6136	0.3473	-0.045
Mof_Ag	Ag	0.1824	0.5676	0.87866	0.551
Mof_N 	N 	0.20659	0.54341	0.9828	-0.142
Mof_C 	C 	0.2244	0.5256	0.9632	-0.046
Mof_N 	N 	0.19446	0.55554	0.9286	-0.139
Mof_C 	C 	0.2169	0.5331	0.9307	-0.039
Mof_N 	N 	0.14526	0.60474	0.8779	-0.141
Mof_C 	C 	0.1364	0.6136	0.8473	-0.045
Mof_Ag	Ag	0.0676	0.6824	0.87866	0.551
Mof_N 	N 	0.04341	0.70659	0.9828	-0.142
Mof_C 	C 	0.0256	0.7244	0.9632	-0.046
Mof_N 	N 	0.05554	0.69446	0.9286	-0.139
Mof_C 	C 	0.0331	0.7169	0.9307	-0.039
Mof_N 	N 	0.10474	0.64526	0.8779	-0.141
Mof_C 	C 	0.1136	0.6364	0.8473	-0.045
Mof_Ag	Ag	0.0676	0.1824	0.37866	0.551
Mof_N 	N 	0.04341	0.20659	0.4828	-0.142
Mof_C 	C 	0.0256	0.2244	0.4632	-0.046
Mof_N 	N 	0.05554	0.19446	0.4286	-0.139
Mof_C 	C 	0.0331	0.2169	0.4307	-0.039
Mof_N 	N 	0.10474	0.14526	0.3779	-0.141
Mof_C 	C 	0.1136	0.1364	0.3473	-0.045
Mof_Ag	Ag	0.1824	0.1824	0.87134	0.551
Mof_N 	N 	0.20659	0.20659	0.7672	-0.142
Mof_C 	C 	0.2244	0.2244	0.7868	-0.046
Mof_N 	N 	0.19446	0.19446	0.8214	-0.139
Mof_C 	C 	0.2169	0.2169	0.8193	-0.039
Mof_N 	N 	0.14526	0.14526	0.8721	-0.141
Mof_C 	C 	0.1364	0.1364	0.9027	-0.045
Mof_Ag	Ag	0.1824	0.6824	0.37134	0.551
Mof_N 	N 	0.20659	0.70659	0.2672	-0.142
Mof_C 	C 	0.2244	0.7244	0.2868	-0.046
Mof_N 	N 	0.19446	0.69446	0.3214	-0.139
Mof_C 	C 	0.2169	0.7169	0.3193	-0.039
Mof_N 	N 	0.14526	0.64526	0.3721	-0.141
Mof_C 	C 	0.1364	0.6364	0.4027	-0.045
Mof_Ag	Ag	0.6824	0.1824	0.37134	0.551
Mof_N 	N 	0.70659	0.20659	0.2672	-0.142
Mof_C 	C 	0.7244	0.2244	0.2868	-0.046
Mof_N 	N 	0.69446	0.19446	0.3214	-0.139
Mof_C 	C 	0.7169	0.2169	0.3193	-0.039
Mof_N 	N 	0.64526	0.14526	0.3721	-0.141
Mof_C 	C 	0.6364	0.1364	0.4027	-0.045
Mof_Ag	Ag	0.6824	0.6824	0.87134	0.551
Mof_N 	N 	0.70659	0.70659	0.7672	-0.142
Mof_C 	C 	0.7244	0.7244	0.7868	-0.046
Mof_N 	N 	0.69446	0.69446	0.8214	-0.139
Mof_C 	C 	0.7169	0.7169	0.8193	-0.039
Mof_N 	N 	0.64526	0.64526	0.8721	-0.141
Mof_C 	C 	0.6364	0.6364	0.9027	-0.045
Mof_Ag	Ag	0.3176	0.62134	0.4324	0.551
Mof_N 	N 	0.29341	0.5172	0.45659	-0.142
Mof_C 	C 	0.2756	0.5368	0.4744	-0.046
Mof_N 	N 	0.30554	0.5714	0.44446	-0.139
Mof_C 	C 	0.2831	0.5693	0.4669	-0.039
Mof_N 	N 	0.35474	0.6221	0.39526	-0.141
Mof_C 	C 	0.3636	0.6527	0.3864	-0.045
Mof_Ag	Ag	0.8176	0.62134	0.9324	0.551
Mof_N 	N 	0.79341	0.5172	0.95659	-0.142
Mof_C 	C 	0.7756	0.5368	0.9744	-0.046
Mof_N 	N 	0.80554	0.5714	0.94446	-0.139
Mof_C 	C 	0.7831	0.5693	0.9669	-0.039
Mof_N 	N 	0.85474	0.6221	0.89526	-0.141
Mof_C 	C 	0.8636	0.6527	0.8864	-0.045
Mof_Ag	Ag	0.4324	0.62866	0.9324	0.551
Mof_N 	N 	0.45659	0.7328	0.95659	-0.142
Mof_C 	C 	0.4744	0.7132	0.9744	-0.046
Mof_N 	N 	0.44446	0.6786	0.94446	-0.139
Mof_C 	C 	0.4669	0.6807	0.9669	-0.039
Mof_N 	N 	0.39526	0.6279	0.89526	-0.141
Mof_C 	C 	0.3864	0.5973	0.8864	-0.045
Mof_Ag	Ag	0.4324	0.12866	0.4324	0.551
Mof_N 	N 	0.45659	0.2328	0.45659	-0.142
Mof_C 	C 	0.4744	0.2132	0.4744	-0.046
Mof_N 	N 	0.44446	0.1786	0.44446	-0.139
Mof_C 	C 	0.4669	0.1807	0.4669	-0.039
Mof_N 	N 	0.39526	0.1279	0.39526	-0.141
Mof_C 	C 	0.3864	0.0973	0.3864	-0.045
Mof_Ag	Ag	0.9324	0.12866	0.9324	0.551
Mof_N 	N 	0.95659	0.2328	0.95659	-0.142
Mof_C 	C 	0.9744	0.2132	0.9744	-0.046
Mof_N 	N 	0.94446	0.1786	0.94446	-0.139
Mof_C 	C 	0.9669	0.1807	0.9669	-0.039
Mof_N 	N 	0.89526	0.1279	0.89526	-0.141
Mof_C 	C 	0.8864	0.0973	0.8864	-0.045
Mof_Ag	Ag	0.8176	0.12866	0.8176	0.551
Mof_N 	N 	0.79341	0.2328	0.79341	-0.142
Mof_C 	C 	0.7756	0.2132	0.7756	-0.046
Mof_N 	N 	0.80554	0.1786	0.80554	-0.139
Mof_C 	C 	0.7831	0.1807	0.7831	-0.039
Mof_N 	N 	0.85474	0.1279	0.85474	-0.141
Mof_C 	C 	0.8636	0.0973	0.8636	-0.045
Mof_Ag	Ag	0.8176	0.62866	0.3176	0.551
Mof_N 	N 	0.79341	0.7328	0.29341	-0.142
Mof_C 	C 	0.7756	0.7132	0.2756	-0.046
Mof_N 	N 	0.80554	0.6786	0.30554	-0.139
Mof_C 	C 	0.7831	0.6807	0.2831	-0.039
Mof_N 	N 	0.85474	0.6279	0.35474	-0.141
Mof_C 	C 	0.8636	0.5973	0.3636	-0.045
Mof_Ag	Ag	0.3176	0.12866	0.3176	0.551
Mof_N 	N 	0.29341	0.2328	0.29341	-0.142
Mof_C 	C 	0.2756	0.2132	0.2756	-0.046
Mof_N 	N 	0.30554	0.1786	0.30554	-0.139
Mof_C 	C 	0.2831	0.1807	0.2831	-0.039
Mof_N 	N 	0.35474	0.1279	0.35474	-0.141
Mof_C 	C 	0.3636	0.0973	0.3636	-0.045
Mof_Ag	Ag	0.3176	0.62866	0.8176	0.551
Mof_N 	N 	0.29341	0.7328	0.79341	-0.142
Mof_C 	C 	0.2756	0.7132	0.7756	-0.046
Mof_N 	N 	0.30554	0.6786	0.80554	-0.139
Mof_C 	C 	0.2831	0.6807	0.7831	-0.039
Mof_N 	N 	0.35474	0.6279	0.85474	-0.141
Mof_C 	C 	0.3636	0.5973	0.8636	-0.045
Mof_Ag	Ag	0.9324	0.12134	0.3176	0.551
Mof_N 	N 	0.95659	0.0172	0.29341	-0.142
Mof_C 	C 	0.9744	0.0368	0.2756	-0.046
Mof_N 	N 	0.94446	0.0714	0.30554	-0.139
Mof_C 	C 	0.9669	0.0693	0.2831	-0.039
Mof_N 	N 	0.89526	0.1221	0.35474	-0.141
Mof_C 	C 	0.8864	0.1527	0.3636	-0.045
Mof_Ag	Ag	0.9324	0.62134	0.8176	0.551
Mof_N 	N 	0.95659	0.5172	0.79341	-0.142
Mof_C 	C 	0.9744	0.5368	0.7756	-0.046
Mof_N 	N 	0.94446	0.5714	0.80554	-0.139
Mof_C 	C 	0.9669	0.5693	0.7831	-0.039
Mof_N 	N 	0.89526	0.6221	0.85474	-0.141
Mof_C 	C 	0.8864	0.6527	0.8636	-0.045
Mof_Ag	Ag	0.12134	0.3176	0.9324	0.551
Mof_N 	N 	0.0172	0.29341	0.95659	-0.142
Mof_C 	C 	0.0368	0.2756	0.9744	-0.046
Mof_N 	N 	0.0714	0.30554	0.94446	-0.139
Mof_C 	C 	0.0693	0.2831	0.9669	-0.039
Mof_N 	N 	0.1221	0.35474	0.89526	-0.141
Mof_C 	C 	0.1527	0.3636	0.8864	-0.045
Mof_Ag	Ag	0.12134	0.8176	0.4324	0.551
Mof_N 	N 	0.0172	0.79341	0.45659	-0.142
Mof_C 	C 	0.0368	0.7756	0.4744	-0.046
Mof_N 	N 	0.0714	0.80554	0.44446	-0.139
Mof_C 	C 	0.0693	0.7831	0.4669	-0.039
Mof_N 	N 	0.1221	0.85474	0.39526	-0.141
Mof_C 	C 	0.1527	0.8636	0.3864	-0.045
Mof_Ag	Ag	0.12866	0.8176	0.8176	0.551
Mof_N 	N 	0.2328	0.79341	0.79341	-0.142
Mof_C 	C 	0.2132	0.7756	0.7756	-0.046
Mof_N 	N 	0.1786	0.80554	0.80554	-0.139
Mof_C 	C 	0.1807	0.7831	0.7831	-0.039
Mof_N 	N 	0.1279	0.85474	0.85474	-0.141
Mof_C 	C 	0.0973	0.8636	0.8636	-0.045
Mof_Ag	Ag	0.12866	0.3176	0.3176	0.551
Mof_N 	N 	0.2328	0.29341	0.29341	-0.142
Mof_C 	C 	0.2132	0.2756	0.2756	-0.046
Mof_N 	N 	0.1786	0.30554	0.30554	-0.139
Mof_C 	C 	0.1807	0.2831	0.2831	-0.039
Mof_N 	N 	0.1279	0.35474	0.35474	-0.141
Mof_C 	C 	0.0973	0.3636	0.3636	-0.045
Mof_Ag	Ag	0.62866	0.8176	0.3176	0.551
Mof_N 	N 	0.7328	0.79341	0.29341	-0.142
Mof_C 	C 	0.7132	0.7756	0.2756	-0.046
Mof_N 	N 	0.6786	0.80554	0.30554	-0.139
Mof_C 	C 	0.6807	0.7831	0.2831	-0.039
Mof_N 	N 	0.6279	0.85474	0.35474	-0.141
Mof_C 	C 	0.5973	0.8636	0.3636	-0.045
Mof_Ag	Ag	0.62866	0.3176	0.8176	0.551
Mof_N 	N 	0.7328	0.29341	0.79341	-0.142
Mof_C 	C 	0.7132	0.2756	0.7756	-0.046
Mof_N 	N 	0.6786	0.30554	0.80554	-0.139
Mof_C 	C 	0.6807	0.2831	0.7831	-0.039
Mof_N 	N 	0.6279	0.35474	0.85474	-0.141
Mof_C 	C 	0.5973	0.3636	0.8636	-0.045
Mof_Ag	Ag	0.62866	0.9324	0.4324	0.551
Mof_N 	N 	0.7328	0.95659	0.45659	-0.142
Mof_C 	C 	0.7132	0.9744	0.4744	-0.046
Mof_N 	N 	0.6786	0.94446	0.44446	-0.139
Mof_C 	C 	0.6807	0.9669	0.4669	-0.039
Mof_N 	N 	0.6279	0.89526	0.39526	-0.141
Mof_C 	C 	0.5973	0.8864	0.3864	-0.045
Mof_Ag	Ag	0.12866	0.9324	0.9324	0.551
Mof_N 	N 	0.2328	0.95659	0.95659	-0.142
Mof_C 	C 	0.2132	0.9744	0.9744	-0.046
Mof_N 	N 	0.1786	0.94446	0.94446	-0.139
Mof_C 	C 	0.1807	0.9669	0.9669	-0.039
Mof_N 	N 	0.1279	0.89526	0.89526	-0.141
Mof_C 	C 	0.0973	0.8864	0.8864	-0.045
Mof_Ag	Ag	0.62134	0.4324	0.3176	0.551
Mof_N 	N 	0.5172	0.45659	0.29341	-0.142
Mof_C 	C 	0.5368	0.4744	0.2756	-0.046
Mof_N 	N 	0.5714	0.44446	0.30554	-0.139
Mof_C 	C 	0.5693	0.4669	0.2831	-0.039
Mof_N 	N 	0.6221	0.39526	0.35474	-0.141
Mof_C 	C 	0.6527	0.3864	0.3636	-0.045
Mof_Ag	Ag	0.62134	0.9324	0.8176	0.551
Mof_N 	N 	0.5172	0.95659	0.79341	-0.142
Mof_C 	C 	0.5368	0.9744	0.7756	-0.046
Mof_N 	N 	0.5714	0.94446	0.80554	-0.139
Mof_C 	C 	0.5693	0.9669	0.7831	-0.039
Mof_N 	N 	0.6221	0.89526	0.85474	-0.141
Mof_C 	C 	0.6527	0.8864	0.8636	-0.045
Mof_Ag	Ag	0.8176	0.8176	0.12866	0.551
Mof_N 	N 	0.79341	0.79341	0.2328	-0.142
Mof_C 	C 	0.7756	0.7756	0.2132	-0.046
Mof_N 	N 	0.80554	0.80554	0.1786	-0.139
Mof_C 	C 	0.7831	0.7831	0.1807	-0.039
Mof_N 	N 	0.85474	0.85474	0.1279	-0.141
Mof_C 	C 	0.8636	0.8636	0.0973	-0.045
Mof_Ag	Ag	0.8176	0.3176	0.62866	0.551
Mof_N 	N 	0.79341	0.29341	0.7328	-0.142
Mof_C 	C 	0.7756	0.2756	0.7132	-0.046
Mof_N 	N 	0.80554	0.30554	0.6786	-0.139
Mof_C 	C 	0.7831	0.2831	0.6807	-0.039
Mof_N 	N 	0.85474	0.35474	0.6279	-0.141
Mof_C 	C 	0.8636	0.3636	0.5973	-0.045
Mof_Ag	Ag	0.3176	0.8176	0.62866	0.551
Mof_N 	N 	0.29341	0.79341	0.7328	-0.142
Mof_C 	C 	0.2756	0.7756	0.7132	-0.046
Mof_N 	N 	0.30554	0.80554	0.6786	-0.139
Mof_C 	C 	0.2831	0.7831	0.6807	-0.039
Mof_N 	N 	0.35474	0.85474	0.6279	-0.141
Mof_C 	C 	0.3636	0.8636	0.5973	-0.045
Mof_Ag	Ag	0.3176	0.3176	0.12866	0.551
Mof_N 	N 	0.29341	0.29341	0.2328	-0.142
Mof_C 	C 	0.2756	0.2756	0.2132	-0.046
Mof_N 	N 	0.30554	0.30554	0.1786	-0.139
Mof_C 	C 	0.2831	0.2831	0.1807	-0.039
Mof_N 	N 	0.35474	0.35474	0.1279	-0.141
Mof_C 	C 	0.3636	0.3636	0.0973	-0.045
Mof_Ag	Ag	0.3176	0.9324	0.12134	0.551
Mof_N 	N 	0.29341	0.95659	0.0172	-0.142
Mof_C 	C 	0.2756	0.9744	0.0368	-0.046
Mof_N 	N 	0.30554	0.94446	0.0714	-0.139
Mof_C 	C 	0.2831	0.9669	0.0693	-0.039
Mof_N 	N 	0.35474	0.89526	0.1221	-0.141
Mof_C 	C 	0.3636	0.8864	0.1527	-0.045
Mof_Ag	Ag	0.8176	0.9324	0.62134	0.551
Mof_N 	N 	0.79341	0.95659	0.5172	-0.142
Mof_C 	C 	0.7756	0.9744	0.5368	-0.046
Mof_N 	N 	0.80554	0.94446	0.5714	-0.139
Mof_C 	C 	0.7831	0.9669	0.5693	-0.039
Mof_N 	N 	0.85474	0.89526	0.6221	-0.141
Mof_C 	C 	0.8636	0.8864	0.6527	-0.045
Mof_Ag	Ag	0.4324	0.3176	0.62134	0.551
Mof_N 	N 	0.45659	0.29341	0.5172	-0.142
Mof_C 	C 	0.4744	0.2756	0.5368	-0.046
Mof_N 	N 	0.44446	0.30554	0.5714	-0.139
Mof_C 	C 	0.4669	0.2831	0.5693	-0.039
Mof_N 	N 	0.39526	0.35474	0.6221	-0.141
Mof_C 	C 	0.3864	0.3636	0.6527	-0.045
Mof_Ag	Ag	0.4324	0.8176	0.12134	0.551
Mof_N 	N 	0.45659	0.79341	0.0172	-0.142
Mof_C 	C 	0.4744	0.7756	0.0368	-0.046
Mof_N 	N 	0.44446	0.80554	0.0714	-0.139
Mof_C 	C 	0.4669	0.7831	0.0693	-0.039
Mof_N 	N 	0.39526	0.85474	0.1221	-0.141
Mof_C 	C 	0.3864	0.8636	0.1527	-0.045
Mof_Ag	Ag	0.9324	0.4324	0.62866	0.551
Mof_N 	N 	0.95659	0.45659	0.7328	-0.142
Mof_C 	C 	0.9744	0.4744	0.7132	-0.046
Mof_N 	N 	0.94446	0.44446	0.6786	-0.139
Mof_C 	C 	0.9669	0.4669	0.6807	-0.039
Mof_N 	N 	0.89526	0.39526	0.6279	-0.141
Mof_C 	C 	0.8864	0.3864	0.5973	-0.045
Mof_Ag	Ag	0.9324	0.9324	0.12866	0.551
Mof_N 	N 	0.95659	0.95659	0.2328	-0.142
Mof_C 	C 	0.9744	0.9744	0.2132	-0.046
Mof_N 	N 	0.94446	0.94446	0.1786	-0.139
Mof_C 	C 	0.9669	0.9669	0.1807	-0.039
Mof_N 	N 	0.89526	0.89526	0.1279	-0.141
Mof_C 	C 	0.8864	0.8864	0.0973	-0.045
Mof_Ag	Ag	0.62866	0.4324	0.9324	0.551
Mof_N 	N 	0.7328	0.45659	0.95659	-0.142
Mof_C 	C 	0.7132	0.4744	0.9744	-0.046
Mof_N 	N 	0.6786	0.44446	0.94446	-0.139
Mof_C 	C 	0.6807	0.4669	0.9669	-0.039
Mof_N 	N 	0.6279	0.39526	0.89526	-0.141
Mof_C 	C 	0.5973	0.3864	0.8864	-0.045
Mof_Ag	Ag	0.12866	0.4324	0.4324	0.551
Mof_N 	N 	0.2328	0.45659	0.45659	-0.142
Mof_C 	C 	0.2132	0.4744	0.4744	-0.046
Mof_N 	N 	0.1786	0.44446	0.44446	-0.139
Mof_C 	C 	0.1807	0.4669	0.4669	-0.039
Mof_N 	N 	0.1279	0.39526	0.39526	-0.141
Mof_C 	C 	0.0973	0.3864	0.3864	-0.045
Mof_Ag	Ag	0.62134	0.3176	0.4324	0.551
Mof_N 	N 	0.5172	0.29341	0.45659	-0.142
Mof_C 	C 	0.5368	0.2756	0.4744	-0.046
Mof_N 	N 	0.5714	0.30554	0.44446	-0.139
Mof_C 	C 	0.5693	0.2831	0.4669	-0.039
Mof_N 	N 	0.6221	0.35474	0.39526	-0.141
Mof_C 	C 	0.6527	0.3636	0.3864	-0.045
Mof_Ag	Ag	0.62134	0.8176	0.9324	0.551
Mof_N 	N 	0.5172	0.79341	0.95659	-0.142
Mof_C 	C 	0.5368	0.7756	0.9744	-0.046
Mof_N 	N 	0.5714	0.80554	0.94446	-0.139
Mof_C 	C 	0.5693	0.7831	0.9669	-0.039
Mof_N 	N 	0.6221	0.85474	0.89526	-0.141
Mof_C 	C 	0.6527	0.8636	0.8864	-0.045
Mof_Ag	Ag	0.12134	0.9324	0.3176	0.551
Mof_N 	N 	0.0172	0.95659	0.29341	-0.142
Mof_C 	C 	0.0368	0.9744	0.2756	-0.046
Mof_N 	N 	0.0714	0.94446	0.30554	-0.139
Mof_C 	C 	0.0693	0.9669	0.2831	-0.039
Mof_N 	N 	0.1221	0.89526	0.35474	-0.141
Mof_C 	C 	0.1527	0.8864	0.3636	-0.045
Mof_Ag	Ag	0.12134	0.4324	0.8176	0.551
Mof_N 	N 	0.0172	0.45659	0.79341	-0.142
Mof_C 	C 	0.0368	0.4744	0.7756	-0.046
Mof_N 	N 	0.0714	0.44446	0.80554	-0.139
Mof_C 	C 	0.0693	0.4669	0.7831	-0.039
Mof_N 	N 	0.1221	0.39526	0.85474	-0.141
Mof_C 	C 	0.1527	0.3864	0.8636	-0.045
Mof_Ag	Ag	0.9324	0.62866	0.4324	0.551
Mof_N 	N 	0.95659	0.7328	0.45659	-0.142
Mof_C 	C 	0.9744	0.7132	0.4744	-0.046
Mof_N 	N 	0.94446	0.6786	0.44446	-0.139
Mof_C 	C 	0.9669	0.6807	0.4669	-0.039
Mof_N 	N 	0.89526	0.6279	0.39526	-0.141
Mof_C 	C 	0.8864	0.5973	0.3864	-0.045
Mof_Ag	Ag	0.4324	0.62134	0.3176	0.551
Mof_N 	N 	0.45659	0.5172	0.29341	-0.142
Mof_C 	C 	0.4744	0.5368	0.2756	-0.046
Mof_N 	N 	0.44446	0.5714	0.30554	-0.139
Mof_C 	C 	0.4669	0.5693	0.2831	-0.039
Mof_N 	N 	0.39526	0.6221	0.35474	-0.141
Mof_C 	C 	0.3864	0.6527	0.3636	-0.045
Mof_Ag	Ag	0.4324	0.12134	0.8176	0.551
Mof_N 	N 	0.45659	0.0172	0.79341	-0.142
Mof_C 	C 	0.4744	0.0368	0.7756	-0.046
Mof_N 	N 	0.44446	0.0714	0.80554	-0.139
Mof_C 	C 	0.4669	0.0693	0.7831	-0.039
Mof_N 	N 	0.39526	0.1221	0.85474	-0.141
Mof_C 	C 	0.3864	0.1527	0.8636	-0.045
Mof_Ag	Ag	0.3176	0.12134	0.9324	0.551
Mof_N 	N 	0.29341	0.0172	0.95659	-0.142
Mof_C 	C 	0.2756	0.0368	0.9744	-0.046
Mof_N 	N 	0.30554	0.0714	0.94446	-0.139
Mof_C 	C 	0.2831	0.0693	0.9669	-0.039
Mof_N 	N 	0.35474	0.1221	0.89526	-0.141
Mof_C 	C 	0.3636	0.1527	0.8864	-0.045
Mof_Ag	Ag	0.8176	0.12134	0.4324	0.551
Mof_N 	N 	0.79341	0.0172	0.45659	-0.142
Mof_C 	C 	0.7756	0.0368	0.4744	-0.046
Mof_N 	N 	0.80554	0.0714	0.44446	-0.139
Mof_C 	C 	0.7831	0.0693	0.4669	-0.039
Mof_N 	N 	0.85474	0.1221	0.39526	-0.141
Mof_C 	C 	0.8636	0.1527	0.3864	-0.045
Mof_Ag	Ag	0.4324	0.9324	0.62866	0.551
Mof_N 	N 	0.45659	0.95659	0.7328	-0.142
Mof_C 	C 	0.4744	0.9744	0.7132	-0.046
Mof_N 	N 	0.44446	0.94446	0.6786	-0.139
Mof_C 	C 	0.4669	0.9669	0.6807	-0.039
Mof_N 	N 	0.39526	0.89526	0.6279	-0.141
Mof_C 	C 	0.3864	0.8864	0.5973	-0.045
Mof_Ag	Ag	0.4324	0.4324	0.12866	0.551
Mof_N 	N 	0.45659	0.45659	0.2328	-0.142
Mof_C 	C 	0.4744	0.4744	0.2132	-0.046
Mof_N 	N 	0.44446	0.44446	0.1786	-0.139
Mof_C 	C 	0.4669	0.4669	0.1807	-0.039
Mof_N 	N 	0.39526	0.39526	0.1279	-0.141
Mof_C 	C 	0.3864	0.3864	0.0973	-0.045
Mof_Ag	Ag	0.3176	0.4324	0.62134	0.551
Mof_N 	N 	0.29341	0.45659	0.5172	-0.142
Mof_C 	C 	0.2756	0.4744	0.5368	-0.046
Mof_N 	N 	0.30554	0.44446	0.5714	-0.139
Mof_C 	C 	0.2831	0.4669	0.5693	-0.039
Mof_N 	N 	0.35474	0.39526	0.6221	-0.141
Mof_C 	C 	0.3636	0.3864	0.6527	-0.045
Mof_Ag	Ag	0.8176	0.4324	0.12134	0.551
Mof_N 	N 	0.79341	0.45659	0.0172	-0.142
Mof_C 	C 	0.7756	0.4744	0.0368	-0.046
Mof_N 	N 	0.80554	0.44446	0.0714	-0.139
Mof_C 	C 	0.7831	0.4669	0.0693	-0.039
Mof_N 	N 	0.85474	0.39526	0.1221	-0.141
Mof_C 	C 	0.8636	0.3864	0.1527	-0.045
Mof_Ag	Ag	0.9324	0.3176	0.12134	0.551
Mof_N 	N 	0.95659	0.29341	0.0172	-0.142
Mof_C 	C 	0.9744	0.2756	0.0368	-0.046
Mof_N 	N 	0.94446	0.30554	0.0714	-0.139
Mof_C 	C 	0.9669	0.2831	0.0693	-0.039
Mof_N 	N 	0.89526	0.35474	0.1221	-0.141
Mof_C 	C 	0.8864	0.3636	0.1527	-0.045
Mof_Ag	Ag	0.9324	0.8176	0.62134	0.551
Mof_N 	N 	0.95659	0.79341	0.5172	-0.142
Mof_C 	C 	0.9744	0.7756	0.5368	-0.046
Mof_N 	N 	0.94446	0.80554	0.5714	-0.139
Mof_C 	C 	0.9669	0.7831	0.5693	-0.039
Mof_N 	N 	0.89526	0.85474	0.6221	-0.141
Mof_C 	C 	0.8864	0.8636	0.6527	-0.045
Mof_Ag	Ag	0.6824	0.37866	0.5676	0.551
Mof_N 	N 	0.70659	0.4828	0.54341	-0.142
Mof_C 	C 	0.7244	0.4632	0.5256	-0.046
Mof_N 	N 	0.69446	0.4286	0.55554	-0.139
Mof_C 	C 	0.7169	0.4307	0.5331	-0.039
Mof_N 	N 	0.64526	0.3779	0.60474	-0.141
Mof_C 	C 	0.6364	0.3473	0.6136	-0.045
Mof_Ag	Ag	0.1824	0.37866	0.0676	0.551
Mof_N 	N 	0.20659	0.4828	0.04341	-0.142
Mof_C 	C 	0.2244	0.4632	0.0256	-0.046
Mof_N 	N 	0.19446	0.4286	0.05554	-0.139
Mof_C 	C 	0.2169	0.4307	0.0331	-0.039
Mof_N 	N 	0.14526	0.3779	0.10474	-0.141
Mof_C 	C 	0.1364	0.3473	0.1136	-0.045
Mof_Ag	Ag	0.5676	0.37134	0.0676	0.551
Mof_N 	N 	0.54341	0.2672	0.04341	-0.142
Mof_C 	C 	0.5256	0.2868	0.0256	-0.046
Mof_N 	N 	0.55554	0.3214	0.05554	-0.139
Mof_C 	C 	0.5331	0.3193	0.0331	-0.039
Mof_N 	N 	0.60474	0.3721	0.10474	-0.141
Mof_C 	C 	0.6136	0.4027	0.1136	-0.045
Mof_Ag	Ag	0.0676	0.87866	0.6824	0.551
Mof_N 	N 	0.04341	0.9828	0.70659	-0.142
Mof_C 	C 	0.0256	0.9632	0.7244	-0.046
Mof_N 	N 	0.05554	0.9286	0.69446	-0.139
Mof_C 	C 	0.0331	0.9307	0.7169	-0.039
Mof_N 	N 	0.10474	0.8779	0.64526	-0.141
Mof_C 	C 	0.1136	0.8473	0.6364	-0.045
Mof_Ag	Ag	0.0676	0.37866	0.1824	0.551
Mof_N 	N 	0.04341	0.4828	0.20659	-0.142
Mof_C 	C 	0.0256	0.4632	0.2244	-0.046
Mof_N 	N 	0.05554	0.4286	0.19446	-0.139
Mof_C 	C 	0.0331	0.4307	0.2169	-0.039
Mof_N 	N 	0.10474	0.3779	0.14526	-0.141
Mof_C 	C 	0.1136	0.3473	0.1364	-0.045
Mof_Ag	Ag	0.87866	0.6824	0.0676	0.551
Mof_N 	N 	0.9828	0.70659	0.04341	-0.142
Mof_C 	C 	0.9632	0.7244	0.0256	-0.046
Mof_N 	N 	0.9286	0.69446	0.05554	-0.139
Mof_C 	C 	0.9307	0.7169	0.0331	-0.039
Mof_N 	N 	0.8779	0.64526	0.10474	-0.141
Mof_C 	C 	0.8473	0.6364	0.1136	-0.045
Mof_Ag	Ag	0.87866	0.1824	0.5676	0.551
Mof_N 	N 	0.9828	0.20659	0.54341	-0.142
Mof_C 	C 	0.9632	0.2244	0.5256	-0.046
Mof_N 	N 	0.9286	0.19446	0.55554	-0.139
Mof_C 	C 	0.9307	0.2169	0.5331	-0.039
Mof_N 	N 	0.8779	0.14526	0.60474	-0.141
Mof_C 	C 	0.8473	0.1364	0.6136	-0.045
Mof_Ag	Ag	0.37134	0.0676	0.5676	0.551
Mof_N 	N 	0.2672	0.04341	0.54341	-0.142
Mof_C 	C 	0.2868	0.0256	0.5256	-0.046
Mof_N 	N 	0.3214	0.05554	0.55554	-0.139
Mof_C 	C 	0.3193	0.0331	0.5331	-0.039
Mof_N 	N 	0.3721	0.10474	0.60474	-0.141
Mof_C 	C 	0.4027	0.1136	0.6136	-0.045
Mof_Ag	Ag	0.87134	0.0676	0.0676	0.551
Mof_N 	N 	0.7672	0.04341	0.04341	-0.142
Mof_C 	C 	0.7868	0.0256	0.0256	-0.046
Mof_N 	N 	0.8214	0.05554	0.05554	-0.139
Mof_C 	C 	0.8193	0.0331	0.0331	-0.039
Mof_N 	N 	0.8721	0.10474	0.10474	-0.141
Mof_C 	C 	0.9027	0.1136	0.1136	-0.045
Mof_Ag	Ag	0.37866	0.5676	0.6824	0.551
Mof_N 	N 	0.4828	0.54341	0.70659	-0.142
Mof_C 	C 	0.4632	0.5256	0.7244	-0.046
Mof_N 	N 	0.4286	0.55554	0.69446	-0.139
Mof_C 	C 	0.4307	0.5331	0.7169	-0.039
Mof_N 	N 	0.3779	0.60474	0.64526	-0.141
Mof_C 	C 	0.3473	0.6136	0.6364	-0.045
Mof_Ag	Ag	0.37866	0.0676	0.1824	0.551
Mof_N 	N 	0.4828	0.04341	0.20659	-0.142
Mof_C 	C 	0.4632	0.0256	0.2244	-0.046
Mof_N 	N 	0.4286	0.05554	0.19446	-0.139
Mof_C 	C 	0.4307	0.0331	0.2169	-0.039
Mof_N 	N 	0.3779	0.10474	0.14526	-0.141
Mof_C 	C 	0.3473	0.1136	0.1364	-0.045
Mof_Ag	Ag	0.6824	0.0676	0.87866	0.551
Mof_N 	N 	0.70659	0.04341	0.9828	-0.142
Mof_C 	C 	0.7244	0.0256	0.9632	-0.046
Mof_N 	N 	0.69446	0.05554	0.9286	-0.139
Mof_C 	C 	0.7169	0.0331	0.9307	-0.039
Mof_N 	N 	0.64526	0.10474	0.8779	-0.141
Mof_C 	C 	0.6364	0.1136	0.8473	-0.045
Mof_Ag	Ag	0.1824	0.0676	0.37866	0.551
Mof_N 	N 	0.20659	0.04341	0.4828	-0.142
Mof_C 	C 	0.2244	0.0256	0.4632	-0.046
Mof_N 	N 	0.19446	0.05554	0.4286	-0.139
Mof_C 	C 	0.2169	0.0331	0.4307	-0.039
Mof_N 	N 	0.14526	0.10474	0.3779	-0.141
Mof_C 	C 	0.1364	0.1136	0.3473	-0.045
Mof_Ag	Ag	0.5676	0.6824	0.37866	0.551
Mof_N 	N 	0.54341	0.70659	0.4828	-0.142
Mof_C 	C 	0.5256	0.7244	0.4632	-0.046
Mof_N 	N 	0.55554	0.69446	0.4286	-0.139
Mof_C 	C 	0.5331	0.7169	0.4307	-0.039
Mof_N 	N 	0.60474	0.64526	0.3779	-0.141
Mof_C 	C 	0.6136	0.6364	0.3473	-0.045
Mof_Ag	Ag	0.5676	0.1824	0.87866	0.551
Mof_N 	N 	0.54341	0.20659	0.9828	-0.142
Mof_C 	C 	0.5256	0.2244	0.9632	-0.046
Mof_N 	N 	0.55554	0.19446	0.9286	-0.139
Mof_C 	C 	0.5331	0.2169	0.9307	-0.039
Mof_N 	N 	0.60474	0.14526	0.8779	-0.141
Mof_C 	C 	0.6136	0.1364	0.8473	-0.045
Mof_Ag	Ag	0.0676	0.5676	0.37134	0.551
Mof_N 	N 	0.04341	0.54341	0.2672	-0.142
Mof_C 	C 	0.0256	0.5256	0.2868	-0.046
Mof_N 	N 	0.05554	0.55554	0.3214	-0.139
Mof_C 	C 	0.0331	0.5331	0.3193	-0.039
Mof_N 	N 	0.10474	0.60474	0.3721	-0.141
Mof_C 	C 	0.1136	0.6136	0.4027	-0.045
Mof_Ag	Ag	0.0676	0.0676	0.87134	0.551
Mof_N 	N 	0.04341	0.04341	0.7672	-0.142
Mof_C 	C 	0.0256	0.0256	0.7868	-0.046
Mof_N 	N 	0.05554	0.05554	0.8214	-0.139
Mof_C 	C 	0.0331	0.0331	0.8193	-0.039
Mof_N 	N 	0.10474	0.10474	0.8721	-0.141
Mof_C 	C 	0.1136	0.1136	0.9027	-0.045
_end
