data_functionalizedCrystal
_audit_creation_method	'EQeq! by Chris Wilmer'
_symmetry_space_group_name_H-M	'P1'
_symmetry_Int_Tables_number	1
_symmetry_cell_setting	triclinic
loop_
_symmetry_equiv_pos_as_xyz
  x,y,z
_cell_length_a	20.0164
_cell_length_b	7.3972
_cell_length_c	25.712
_cell_angle_alpha	90
_cell_angle_beta	105.093
_cell_angle_gamma	90
loop_
_atom_site_label
_atom_site_type_symbol
_atom_site_fract_x
_atom_site_fract_y
_atom_site_fract_z
_atom_site_charge
Mof_C 	C 	0.07403	0.97604	0.09608	0.092
Mof_H 	H 	0.0565	0.8597	0.0889	0.015
Mof_C 	C 	0.20945	0.95983	0.47847	-0.006
Mof_C 	C 	0.14977	0.18815	0.15679	0.342
Mof_C 	C 	0.14117	0.85632	0.18221	0.5
Mof_C 	C 	0.12149	0.01063	0.14491	-0.318
Mof_C 	C 	0.22269	0.9974	0.42914	0.085
Mof_H 	H 	0.2457	0.9128	0.4134	0.008
Mof_C 	C 	0.20175	0.16103	0.40315	-0.299
Mof_C 	C 	0.05209	0.10931	0.05786	-0.029
Mof_C 	C 	0.12489	0.3214	0.11765	-0.29
Mof_H 	H 	0.141	0.4392	0.1244	0.1
Mof_C 	C 	0.07774	0.28415	0.0699	0.075
Mof_H 	H 	0.0626	0.3765	0.0451	0.012
Mof_C 	C 	0.15246	0.24621	0.4764	-0.249
Mof_H 	H 	0.1281	0.3278	0.492	0.137
Mof_C 	C 	0.21631	0.20075	0.35033	0.541
Mof_C 	C 	0.16724	0.28742	0.42801	0.328
Mof_C 	C 	0.17404	0.08417	0.50123	0.062
Mof_H 	H 	0.1646	0.0577	0.534	0.023
Mof_Ce	Ce	0.20261	0.53716	0.24894	2.411
Mof_H 	H 	0.1604	0.4661	0.377	0.226
Mof_N 	N 	0.23072	0.79919	0.50886	-0.071
Mof_N 	N 	0.00692	0.081	0.00571	-0.073
Mof_O 	O 	0.197	0.23033	0.20192	-0.688
Mof_O 	O 	0.1911	0.86942	0.22445	-0.76
Mof_O 	O 	0.10987	0.70813	0.17297	-0.535
Mof_O 	O 	0.20535	0.3601	0.33246	-0.625
Mof_O 	O 	0.23798	0.07631	0.32581	-0.576
Mof_O 	O 	0.14794	0.45176	0.406	-0.436
Mof_C 	C 	0.57403	0.47604	0.09608	0.061
Mof_H 	H 	0.5565	0.3597	0.0889	0.025
Mof_C 	C 	0.70945	0.45983	0.47847	-0
Mof_C 	C 	0.64977	0.68815	0.15679	0.333
Mof_C 	C 	0.64117	0.35632	0.18221	0.486
Mof_C 	C 	0.62149	0.51063	0.14491	-0.291
Mof_C 	C 	0.72269	0.4974	0.42914	0.075
Mof_H 	H 	0.7457	0.4128	0.4134	0.01
Mof_C 	C 	0.70175	0.66103	0.40315	-0.29
Mof_C 	C 	0.55209	0.60931	0.05786	-0.011
Mof_C 	C 	0.62489	0.8214	0.11765	-0.277
Mof_H 	H 	0.641	0.9392	0.1244	0.1
Mof_C 	C 	0.57774	0.78415	0.0699	0.062
Mof_H 	H 	0.5626	0.8765	0.0451	0.017
Mof_C 	C 	0.65246	0.74621	0.4764	-0.244
Mof_H 	H 	0.6281	0.8278	0.492	0.135
Mof_C 	C 	0.71631	0.70075	0.35033	0.537
Mof_C 	C 	0.66724	0.78742	0.42801	0.325
Mof_C 	C 	0.67404	0.58417	0.50123	0.058
Mof_H 	H 	0.6646	0.5577	0.534	0.023
Mof_Ce	Ce	0.70261	0.03716	0.24894	2.378
Mof_H 	H 	0.6604	0.9661	0.377	0.227
Mof_N 	N 	0.73072	0.29919	0.50886	-0.071
Mof_N 	N 	0.50692	0.581	0.00571	-0.076
Mof_O 	O 	0.697	0.73033	0.20192	-0.681
Mof_O 	O 	0.6911	0.36942	0.22445	-0.762
Mof_O 	O 	0.60987	0.20813	0.17297	-0.532
Mof_O 	O 	0.70535	0.8601	0.33246	-0.617
Mof_O 	O 	0.73798	0.57631	0.32581	-0.573
Mof_O 	O 	0.64794	0.95176	0.406	-0.433
Mof_C 	C 	0.92597	0.97604	0.40392	0.091
Mof_H 	H 	0.9435	0.8597	0.4111	0.017
Mof_C 	C 	0.79055	0.95983	0.02153	-0.006
Mof_C 	C 	0.85023	0.18815	0.34321	0.342
Mof_C 	C 	0.85883	0.85632	0.31779	0.499
Mof_C 	C 	0.87851	0.01063	0.35509	-0.316
Mof_C 	C 	0.77731	0.9974	0.07086	0.088
Mof_H 	H 	0.7543	0.9128	0.0866	0.007
Mof_C 	C 	0.79825	0.16103	0.09685	-0.301
Mof_C 	C 	0.94791	0.10931	0.44214	-0.028
Mof_C 	C 	0.87511	0.3214	0.38235	-0.289
Mof_H 	H 	0.859	0.4392	0.3756	0.1
Mof_C 	C 	0.92226	0.28415	0.4301	0.074
Mof_H 	H 	0.9374	0.3765	0.4549	0.013
Mof_C 	C 	0.84754	0.24621	0.0236	-0.252
Mof_H 	H 	0.8719	0.3278	0.008	0.137
Mof_C 	C 	0.78369	0.20075	0.14967	0.541
Mof_C 	C 	0.83276	0.28742	0.07199	0.33
Mof_C 	C 	0.82596	0.08417	0.99877	0.064
Mof_H 	H 	0.8354	0.0577	0.966	0.022
Mof_Ce	Ce	0.79739	0.53716	0.25106	2.411
Mof_H 	H 	0.8396	0.4661	0.123	0.226
Mof_N 	N 	0.76928	0.79919	0.99114	-0.071
Mof_N 	N 	0.99308	0.081	0.49429	-0.073
Mof_O 	O 	0.803	0.23033	0.29808	-0.688
Mof_O 	O 	0.8089	0.86942	0.27555	-0.76
Mof_O 	O 	0.89013	0.70813	0.32703	-0.534
Mof_O 	O 	0.79465	0.3601	0.16754	-0.625
Mof_O 	O 	0.76202	0.07631	0.17419	-0.576
Mof_O 	O 	0.85206	0.45176	0.094	-0.436
Mof_C 	C 	0.42597	0.47604	0.40392	0.061
Mof_H 	H 	0.4435	0.3597	0.4111	0.025
Mof_C 	C 	0.29055	0.45983	0.02153	0
Mof_C 	C 	0.35023	0.68815	0.34321	0.333
Mof_C 	C 	0.35883	0.35632	0.31779	0.486
Mof_C 	C 	0.37851	0.51063	0.35509	-0.291
Mof_C 	C 	0.27731	0.4974	0.07086	0.074
Mof_H 	H 	0.2543	0.4128	0.0866	0.01
Mof_C 	C 	0.29825	0.66103	0.09685	-0.289
Mof_C 	C 	0.44791	0.60931	0.44214	-0.01
Mof_C 	C 	0.37511	0.8214	0.38235	-0.277
Mof_H 	H 	0.359	0.9392	0.3756	0.1
Mof_C 	C 	0.42226	0.78415	0.4301	0.062
Mof_H 	H 	0.4374	0.8765	0.4549	0.017
Mof_C 	C 	0.34754	0.74621	0.0236	-0.243
Mof_H 	H 	0.3719	0.8278	0.008	0.134
Mof_C 	C 	0.28369	0.70075	0.14967	0.537
Mof_C 	C 	0.33276	0.78742	0.07199	0.324
Mof_C 	C 	0.32596	0.58417	0.99877	0.056
Mof_H 	H 	0.3354	0.5577	0.966	0.024
Mof_Ce	Ce	0.29739	0.03716	0.25106	2.379
Mof_H 	H 	0.3396	0.9661	0.123	0.227
Mof_N 	N 	0.26928	0.29919	0.99114	-0.071
Mof_N 	N 	0.49308	0.581	0.49429	-0.076
Mof_O 	O 	0.303	0.73033	0.29808	-0.681
Mof_O 	O 	0.3089	0.36942	0.27555	-0.762
Mof_O 	O 	0.39013	0.20813	0.32703	-0.532
Mof_O 	O 	0.29465	0.8601	0.16754	-0.617
Mof_O 	O 	0.26202	0.57631	0.17419	-0.573
Mof_O 	O 	0.35206	0.95176	0.094	-0.432
Mof_C 	C 	0.92597	0.02396	0.90392	0.093
Mof_H 	H 	0.9435	0.1403	0.9111	0.016
Mof_C 	C 	0.79055	0.04017	0.52153	-0.005
Mof_C 	C 	0.85023	0.81185	0.84321	0.343
Mof_C 	C 	0.85883	0.14368	0.81779	0.5
Mof_C 	C 	0.87851	0.98937	0.85509	-0.318
Mof_C 	C 	0.77731	0.0026	0.57086	0.085
Mof_H 	H 	0.7543	0.0872	0.5866	0.008
Mof_C 	C 	0.79825	0.83897	0.59685	-0.299
Mof_C 	C 	0.94791	0.89069	0.94214	-0.029
Mof_C 	C 	0.87511	0.6786	0.88235	-0.29
Mof_H 	H 	0.859	0.5608	0.8756	0.1
Mof_C 	C 	0.92226	0.71585	0.9301	0.075
Mof_H 	H 	0.9374	0.6235	0.9549	0.012
Mof_C 	C 	0.84754	0.75379	0.5236	-0.249
Mof_H 	H 	0.8719	0.6722	0.508	0.137
Mof_C 	C 	0.78369	0.79925	0.64967	0.541
Mof_C 	C 	0.83276	0.71258	0.57199	0.328
Mof_C 	C 	0.82596	0.91583	0.49877	0.062
Mof_H 	H 	0.8354	0.9423	0.466	0.023
Mof_Ce	Ce	0.79739	0.46284	0.75106	2.411
Mof_H 	H 	0.8396	0.5339	0.623	0.226
Mof_N 	N 	0.76928	0.20081	0.49114	-0.071
Mof_N 	N 	0.99308	0.919	0.99429	-0.073
Mof_O 	O 	0.803	0.76967	0.79808	-0.688
Mof_O 	O 	0.8089	0.13058	0.77555	-0.76
Mof_O 	O 	0.89013	0.29187	0.82703	-0.535
Mof_O 	O 	0.79465	0.6399	0.66754	-0.625
Mof_O 	O 	0.76202	0.92369	0.67419	-0.576
Mof_O 	O 	0.85206	0.54824	0.594	-0.436
Mof_C 	C 	0.42597	0.52396	0.90392	0.061
Mof_H 	H 	0.4435	0.6403	0.9111	0.025
Mof_C 	C 	0.29055	0.54017	0.52153	-0
Mof_C 	C 	0.35023	0.31185	0.84321	0.333
Mof_C 	C 	0.35883	0.64368	0.81779	0.486
Mof_C 	C 	0.37851	0.48937	0.85509	-0.291
Mof_C 	C 	0.27731	0.5026	0.57086	0.075
Mof_H 	H 	0.2543	0.5872	0.5866	0.01
Mof_C 	C 	0.29825	0.33897	0.59685	-0.29
Mof_C 	C 	0.44791	0.39069	0.94214	-0.011
Mof_C 	C 	0.37511	0.1786	0.88235	-0.277
Mof_H 	H 	0.359	0.0608	0.8756	0.1
Mof_C 	C 	0.42226	0.21585	0.9301	0.062
Mof_H 	H 	0.4374	0.1235	0.9549	0.017
Mof_C 	C 	0.34754	0.25379	0.5236	-0.244
Mof_H 	H 	0.3719	0.1722	0.508	0.135
Mof_C 	C 	0.28369	0.29925	0.64967	0.537
Mof_C 	C 	0.33276	0.21258	0.57199	0.325
Mof_C 	C 	0.32596	0.41583	0.49877	0.058
Mof_H 	H 	0.3354	0.4423	0.466	0.023
Mof_Ce	Ce	0.29739	0.96284	0.75106	2.378
Mof_H 	H 	0.3396	0.0339	0.623	0.227
Mof_N 	N 	0.26928	0.70081	0.49114	-0.071
Mof_N 	N 	0.49308	0.419	0.99429	-0.076
Mof_O 	O 	0.303	0.26967	0.79808	-0.681
Mof_O 	O 	0.3089	0.63058	0.77555	-0.762
Mof_O 	O 	0.39013	0.79187	0.82703	-0.532
Mof_O 	O 	0.29465	0.1399	0.66754	-0.617
Mof_O 	O 	0.26202	0.42369	0.67419	-0.573
Mof_O 	O 	0.35206	0.04824	0.594	-0.433
Mof_C 	C 	0.07403	0.02396	0.59608	0.091
Mof_H 	H 	0.0565	0.1403	0.5889	0.017
Mof_C 	C 	0.20945	0.04017	0.97847	-0.006
Mof_C 	C 	0.14977	0.81185	0.65679	0.342
Mof_C 	C 	0.14117	0.14368	0.68221	0.499
Mof_C 	C 	0.12149	0.98937	0.64491	-0.316
Mof_C 	C 	0.22269	0.0026	0.92914	0.088
Mof_H 	H 	0.2457	0.0872	0.9134	0.007
Mof_C 	C 	0.20175	0.83897	0.90315	-0.301
Mof_C 	C 	0.05209	0.89069	0.55786	-0.028
Mof_C 	C 	0.12489	0.6786	0.61765	-0.289
Mof_H 	H 	0.141	0.5608	0.6244	0.1
Mof_C 	C 	0.07774	0.71585	0.5699	0.074
Mof_H 	H 	0.0626	0.6235	0.5451	0.013
Mof_C 	C 	0.15246	0.75379	0.9764	-0.252
Mof_H 	H 	0.1281	0.6722	0.992	0.137
Mof_C 	C 	0.21631	0.79925	0.85033	0.541
Mof_C 	C 	0.16724	0.71258	0.92801	0.33
Mof_C 	C 	0.17404	0.91583	0.00123	0.064
Mof_H 	H 	0.1646	0.9423	0.034	0.022
Mof_Ce	Ce	0.20261	0.46284	0.74894	2.411
Mof_H 	H 	0.1604	0.5339	0.877	0.226
Mof_N 	N 	0.23072	0.20081	0.00886	-0.071
Mof_N 	N 	0.00692	0.919	0.50571	-0.073
Mof_O 	O 	0.197	0.76967	0.70192	-0.688
Mof_O 	O 	0.1911	0.13058	0.72445	-0.76
Mof_O 	O 	0.10987	0.29187	0.67297	-0.534
Mof_O 	O 	0.20535	0.6399	0.83246	-0.625
Mof_O 	O 	0.23798	0.92369	0.82581	-0.576
Mof_O 	O 	0.14794	0.54824	0.906	-0.436
Mof_C 	C 	0.57403	0.52396	0.59608	0.061
Mof_H 	H 	0.5565	0.6403	0.5889	0.025
Mof_C 	C 	0.70945	0.54017	0.97847	0
Mof_C 	C 	0.64977	0.31185	0.65679	0.333
Mof_C 	C 	0.64117	0.64368	0.68221	0.486
Mof_C 	C 	0.62149	0.48937	0.64491	-0.291
Mof_C 	C 	0.72269	0.5026	0.92914	0.074
Mof_H 	H 	0.7457	0.5872	0.9134	0.01
Mof_C 	C 	0.70175	0.33897	0.90315	-0.289
Mof_C 	C 	0.55209	0.39069	0.55786	-0.01
Mof_C 	C 	0.62489	0.1786	0.61765	-0.277
Mof_H 	H 	0.641	0.0608	0.6244	0.1
Mof_C 	C 	0.57774	0.21585	0.5699	0.062
Mof_H 	H 	0.5626	0.1235	0.5451	0.017
Mof_C 	C 	0.65246	0.25379	0.9764	-0.243
Mof_H 	H 	0.6281	0.1722	0.992	0.134
Mof_C 	C 	0.71631	0.29925	0.85033	0.537
Mof_C 	C 	0.66724	0.21258	0.92801	0.324
Mof_C 	C 	0.67404	0.41583	0.00123	0.056
Mof_H 	H 	0.6646	0.4423	0.034	0.024
Mof_Ce	Ce	0.70261	0.96284	0.74894	2.379
Mof_H 	H 	0.6604	0.0339	0.877	0.227
Mof_N 	N 	0.73072	0.70081	0.00886	-0.071
Mof_N 	N 	0.50692	0.419	0.50571	-0.076
Mof_O 	O 	0.697	0.26967	0.70192	-0.681
Mof_O 	O 	0.6911	0.63058	0.72445	-0.762
Mof_O 	O 	0.60987	0.79187	0.67297	-0.532
Mof_O 	O 	0.70535	0.1399	0.83246	-0.617
Mof_O 	O 	0.73798	0.42369	0.82581	-0.573
Mof_O 	O 	0.64794	0.04824	0.906	-0.432
_end
