# CIF file generated by openbabel 3.1.0, see https://openbabel.org
data_I
_chemical_name_common 'DUQCAU_clean'
_cell_length_a 8.2811
_cell_length_b 9.8834
_cell_length_c 10.1818
_cell_angle_alpha 99.053
_cell_angle_beta 90
_cell_angle_gamma 90
_space_group_name_H-M_alt 'P 1'
_space_group_name_Hall 'P 1'
loop_
    _symmetry_equiv_pos_as_xyz
    x,y,z
loop_
    _atom_site_label
    _atom_site_type_symbol
    _atom_site_fract_x
    _atom_site_fract_y
    _atom_site_fract_z
    _atom_site_occupancy
    Pr1      Pr       0.90161    0.81500    0.56293    1.000
    Pr2      Pr       0.40161    0.18500    0.93707    1.000
    Pr3      Pr       0.09839    0.18500    0.43707    1.000
    Pr4      Pr       0.59839    0.81500    0.06293    1.000
    C1       C        0.59500    0.02220    0.67090    1.000
    C2       C        0.60320    0.91710    0.76810    1.000
    C3       C        0.98350    0.49460    0.57390    1.000
    C4       C        0.09500    0.97780    0.82910    1.000
    C5       C        0.10320    0.08290    0.73190    1.000
    C6       C        0.48350    0.50540    0.92610    1.000
    C7       C        0.40500    0.97780    0.32910    1.000
    C8       C        0.39680    0.08290    0.23190    1.000
    C9       C        0.01650    0.50540    0.42610    1.000
    C10      C        0.90500    0.02220    0.17090    1.000
    C11      C        0.89680    0.91710    0.26810    1.000
    C12      C        0.51650    0.49460    0.07390    1.000
    O1       O        0.68330    0.99580    0.56980    1.000
    O2       O        0.50550    0.12290    0.70090    1.000
    O3       O        0.69080    0.81620    0.73900    1.000
    O4       O        0.51980    0.94360    0.87386    1.000
    O5       O        0.93350    0.59890    0.64710    1.000
    O6       O        0.00900    0.38010    0.60760    1.000
    O7       O        0.18330    0.00420    0.93020    1.000
    O8       O        0.00550    0.87710    0.79910    1.000
    O9       O        0.19080    0.18380    0.76100    1.000
    O10      O        0.01980    0.05640    0.62614    1.000
    O11      O        0.43350    0.40110    0.85290    1.000
    O12      O        0.50900    0.61990    0.89240    1.000
    O13      O        0.31670    0.00420    0.43020    1.000
    O14      O        0.49450    0.87710    0.29910    1.000
    O15      O        0.30920    0.18380    0.26100    1.000
    O16      O        0.48020    0.05640    0.12614    1.000
    O17      O        0.06650    0.40110    0.35290    1.000
    O18      O        0.99100    0.61990    0.39240    1.000
    O19      O        0.81670    0.99580    0.06980    1.000
    O20      O        0.99450    0.12290    0.20090    1.000
    O21      O        0.80920    0.81620    0.23900    1.000
    O22      O        0.98020    0.94360    0.37386    1.000
    O23      O        0.56650    0.59890    0.14710    1.000
    O24      O        0.49100    0.38010    0.10760    1.000
