data_functionalizedCrystal
_audit_creation_method	'EQeq! by Chris Wilmer'
_symmetry_space_group_name_H-M	'P1'
_symmetry_Int_Tables_number	1
_symmetry_cell_setting	triclinic
loop_
_symmetry_equiv_pos_as_xyz
  x,y,z
_cell_length_a	30.7561
_cell_length_b	30.7561
_cell_length_c	30.7561
_cell_angle_alpha	90
_cell_angle_beta	90
_cell_angle_gamma	90
loop_
_atom_site_label
_atom_site_type_symbol
_atom_site_fract_x
_atom_site_fract_y
_atom_site_fract_z
_atom_site_charge
Mof_N 	N 	0.2279	0.1588	0.0822	-0.311
Mof_C 	C 	0.2308	0.1984	0.0636	0.097
Mof_H 	H 	0.2068	0.2091	0.0473	-0.056
Mof_C 	C 	0.2669	0.2232	0.0676	-0.215
Mof_H 	H 	0.268	0.2509	0.054	0.067
Mof_C 	C 	0.3022	0.2084	0.0915	0.14
Mof_H 	H 	0.3275	0.2259	0.0943	-0.068
Mof_C 	C 	0.3006	0.1678	0.1112	-0.331
Mof_C 	C 	0.2619	0.1446	0.1051	0.141
Mof_H 	H 	0.2597	0.1168	0.1182	-0.08
Mof_C 	C 	0.3246	0.1079	0.1857	-0.853
Mof_H 	H 	0.3086	0.0841	0.1719	0.226
Mof_H 	H 	0.3485	0.0959	0.2031	0.215
Mof_H 	H 	0.305	0.1244	0.2045	0.238
Mof_C 	C 	0.3778	0.1897	0.1687	-0.845
Mof_H 	H 	0.3895	0.2087	0.146	0.217
Mof_H 	H 	0.3582	0.2064	0.1875	0.233
Mof_H 	H 	0.4017	0.1779	0.1861	0.22
Mof_Si	Si	0.34709	0.14424	0.14314	0.673
Mof_N 	N 	0.7279	0.6588	0.5822	-0.311
Mof_C 	C 	0.7308	0.6984	0.5636	0.097
Mof_H 	H 	0.7068	0.7091	0.5473	-0.056
Mof_C 	C 	0.7669	0.7232	0.5676	-0.215
Mof_H 	H 	0.768	0.7509	0.554	0.067
Mof_C 	C 	0.8022	0.7084	0.5915	0.14
Mof_H 	H 	0.8275	0.7259	0.5943	-0.068
Mof_C 	C 	0.8006	0.6678	0.6112	-0.331
Mof_C 	C 	0.7619	0.6446	0.6051	0.141
Mof_H 	H 	0.7597	0.6168	0.6182	-0.08
Mof_C 	C 	0.8246	0.6079	0.6857	-0.853
Mof_H 	H 	0.8086	0.5841	0.6719	0.226
Mof_H 	H 	0.8485	0.5959	0.7031	0.215
Mof_H 	H 	0.805	0.6244	0.7045	0.238
Mof_C 	C 	0.8778	0.6897	0.6687	-0.845
Mof_H 	H 	0.8895	0.7087	0.646	0.217
Mof_H 	H 	0.8582	0.7064	0.6875	0.233
Mof_H 	H 	0.9017	0.6779	0.6861	0.22
Mof_Si	Si	0.84709	0.64424	0.64314	0.673
Mof_N 	N 	0.2721	0.8412	0.5822	-0.311
Mof_C 	C 	0.2692	0.8016	0.5636	0.097
Mof_H 	H 	0.2932	0.7909	0.5473	-0.056
Mof_C 	C 	0.2331	0.7768	0.5676	-0.215
Mof_H 	H 	0.232	0.7491	0.554	0.067
Mof_C 	C 	0.1978	0.7916	0.5915	0.14
Mof_H 	H 	0.1725	0.7741	0.5943	-0.068
Mof_C 	C 	0.1994	0.8322	0.6112	-0.331
Mof_C 	C 	0.2381	0.8554	0.6051	0.141
Mof_H 	H 	0.2403	0.8832	0.6182	-0.08
Mof_C 	C 	0.1754	0.8921	0.6857	-0.853
Mof_H 	H 	0.1914	0.9159	0.6719	0.226
Mof_H 	H 	0.1515	0.9041	0.7031	0.215
Mof_H 	H 	0.195	0.8756	0.7045	0.238
Mof_C 	C 	0.1222	0.8103	0.6687	-0.845
Mof_H 	H 	0.1105	0.7913	0.646	0.217
Mof_H 	H 	0.1418	0.7936	0.6875	0.233
Mof_H 	H 	0.0983	0.8221	0.6861	0.22
Mof_Si	Si	0.15291	0.85576	0.64314	0.673
Mof_N 	N 	0.7721	0.3412	0.0822	-0.311
Mof_C 	C 	0.7692	0.3016	0.0636	0.097
Mof_H 	H 	0.7932	0.2909	0.0473	-0.056
Mof_C 	C 	0.7331	0.2768	0.0676	-0.215
Mof_H 	H 	0.732	0.2491	0.054	0.067
Mof_C 	C 	0.6978	0.2916	0.0915	0.14
Mof_H 	H 	0.6725	0.2741	0.0943	-0.068
Mof_C 	C 	0.6994	0.3322	0.1112	-0.331
Mof_C 	C 	0.7381	0.3554	0.1051	0.141
Mof_H 	H 	0.7403	0.3832	0.1182	-0.08
Mof_C 	C 	0.6754	0.3921	0.1857	-0.853
Mof_H 	H 	0.6914	0.4159	0.1719	0.226
Mof_H 	H 	0.6515	0.4041	0.2031	0.215
Mof_H 	H 	0.695	0.3756	0.2045	0.238
Mof_C 	C 	0.6222	0.3103	0.1687	-0.845
Mof_H 	H 	0.6105	0.2913	0.146	0.217
Mof_H 	H 	0.6418	0.2936	0.1875	0.233
Mof_H 	H 	0.5983	0.3221	0.1861	0.22
Mof_Si	Si	0.65291	0.35576	0.14314	0.673
Mof_N 	N 	0.7721	0.6588	0.4178	-0.311
Mof_C 	C 	0.7692	0.6984	0.4364	0.097
Mof_H 	H 	0.7932	0.7091	0.4527	-0.056
Mof_C 	C 	0.7331	0.7232	0.4324	-0.215
Mof_H 	H 	0.732	0.7509	0.446	0.067
Mof_C 	C 	0.6978	0.7084	0.4085	0.14
Mof_H 	H 	0.6725	0.7259	0.4057	-0.068
Mof_C 	C 	0.6994	0.6678	0.3888	-0.331
Mof_C 	C 	0.7381	0.6446	0.3949	0.141
Mof_H 	H 	0.7403	0.6168	0.3818	-0.08
Mof_C 	C 	0.6754	0.6079	0.3143	-0.853
Mof_H 	H 	0.6914	0.5841	0.3281	0.226
Mof_H 	H 	0.6515	0.5959	0.2969	0.215
Mof_H 	H 	0.695	0.6244	0.2955	0.238
Mof_C 	C 	0.6222	0.6897	0.3313	-0.845
Mof_H 	H 	0.6105	0.7087	0.354	0.217
Mof_H 	H 	0.6418	0.7064	0.3125	0.233
Mof_H 	H 	0.5983	0.6779	0.3139	0.22
Mof_Si	Si	0.65291	0.64424	0.35686	0.673
Mof_N 	N 	0.2721	0.1588	0.9178	-0.311
Mof_C 	C 	0.2692	0.1984	0.9364	0.097
Mof_H 	H 	0.2932	0.2091	0.9527	-0.056
Mof_C 	C 	0.2331	0.2232	0.9324	-0.215
Mof_H 	H 	0.232	0.2509	0.946	0.067
Mof_C 	C 	0.1978	0.2084	0.9085	0.14
Mof_H 	H 	0.1725	0.2259	0.9057	-0.068
Mof_C 	C 	0.1994	0.1678	0.8888	-0.331
Mof_C 	C 	0.2381	0.1446	0.8949	0.141
Mof_H 	H 	0.2403	0.1168	0.8818	-0.08
Mof_C 	C 	0.1754	0.1079	0.8143	-0.853
Mof_H 	H 	0.1914	0.0841	0.8281	0.226
Mof_H 	H 	0.1515	0.0959	0.7969	0.215
Mof_H 	H 	0.195	0.1244	0.7955	0.237
Mof_C 	C 	0.1222	0.1897	0.8313	-0.846
Mof_H 	H 	0.1105	0.2087	0.854	0.216
Mof_H 	H 	0.1418	0.2064	0.8125	0.232
Mof_H 	H 	0.0983	0.1779	0.8139	0.219
Mof_Si	Si	0.15291	0.14424	0.85686	0.672
Mof_N 	N 	0.7279	0.3412	0.9178	-0.312
Mof_C 	C 	0.7308	0.3016	0.9364	0.096
Mof_H 	H 	0.7068	0.2909	0.9527	-0.057
Mof_C 	C 	0.7669	0.2768	0.9324	-0.216
Mof_H 	H 	0.768	0.2491	0.946	0.066
Mof_C 	C 	0.8022	0.2916	0.9085	0.139
Mof_H 	H 	0.8275	0.2741	0.9057	-0.069
Mof_C 	C 	0.8006	0.3322	0.8888	-0.332
Mof_C 	C 	0.7619	0.3554	0.8949	0.14
Mof_H 	H 	0.7597	0.3832	0.8818	-0.081
Mof_C 	C 	0.8246	0.3921	0.8143	-0.854
Mof_H 	H 	0.8086	0.4159	0.8281	0.225
Mof_H 	H 	0.8485	0.4041	0.7969	0.214
Mof_H 	H 	0.805	0.3756	0.7955	0.237
Mof_C 	C 	0.8778	0.3103	0.8313	-0.846
Mof_H 	H 	0.8895	0.2913	0.854	0.216
Mof_H 	H 	0.8582	0.2936	0.8125	0.232
Mof_H 	H 	0.9017	0.3221	0.8139	0.219
Mof_Si	Si	0.84709	0.35576	0.85686	0.672
Mof_N 	N 	0.2279	0.8412	0.4178	-0.312
Mof_C 	C 	0.2308	0.8016	0.4364	0.096
Mof_H 	H 	0.2068	0.7909	0.4527	-0.057
Mof_C 	C 	0.2669	0.7768	0.4324	-0.216
Mof_H 	H 	0.268	0.7491	0.446	0.066
Mof_C 	C 	0.3022	0.7916	0.4085	0.139
Mof_H 	H 	0.3275	0.7741	0.4057	-0.069
Mof_C 	C 	0.3006	0.8322	0.3888	-0.332
Mof_C 	C 	0.2619	0.8554	0.3949	0.14
Mof_H 	H 	0.2597	0.8832	0.3818	-0.081
Mof_C 	C 	0.3246	0.8921	0.3143	-0.854
Mof_H 	H 	0.3086	0.9159	0.3281	0.225
Mof_H 	H 	0.3485	0.9041	0.2969	0.214
Mof_H 	H 	0.305	0.8756	0.2955	0.237
Mof_C 	C 	0.3778	0.8103	0.3313	-0.846
Mof_H 	H 	0.3895	0.7913	0.354	0.216
Mof_H 	H 	0.3582	0.7936	0.3125	0.232
Mof_H 	H 	0.4017	0.8221	0.3139	0.219
Mof_Si	Si	0.34709	0.85576	0.35686	0.672
Mof_N 	N 	0.0822	0.2279	0.1588	-0.312
Mof_C 	C 	0.0636	0.2308	0.1984	0.096
Mof_H 	H 	0.0473	0.2068	0.2091	-0.057
Mof_C 	C 	0.0676	0.2669	0.2232	-0.216
Mof_H 	H 	0.054	0.268	0.2509	0.066
Mof_C 	C 	0.0915	0.3022	0.2084	0.139
Mof_H 	H 	0.0943	0.3275	0.2259	-0.069
Mof_C 	C 	0.1112	0.3006	0.1678	-0.332
Mof_C 	C 	0.1051	0.2619	0.1446	0.14
Mof_H 	H 	0.1182	0.2597	0.1168	-0.081
Mof_C 	C 	0.1857	0.3246	0.1079	-0.854
Mof_H 	H 	0.1719	0.3086	0.0841	0.225
Mof_H 	H 	0.2031	0.3485	0.0959	0.214
Mof_H 	H 	0.2045	0.305	0.1244	0.237
Mof_C 	C 	0.1687	0.3778	0.1897	-0.846
Mof_H 	H 	0.146	0.3895	0.2087	0.216
Mof_H 	H 	0.1875	0.3582	0.2064	0.232
Mof_H 	H 	0.1861	0.4017	0.1779	0.219
Mof_Si	Si	0.14314	0.34709	0.14424	0.672
Mof_N 	N 	0.5822	0.7279	0.6588	-0.312
Mof_C 	C 	0.5636	0.7308	0.6984	0.096
Mof_H 	H 	0.5473	0.7068	0.7091	-0.057
Mof_C 	C 	0.5676	0.7669	0.7232	-0.216
Mof_H 	H 	0.554	0.768	0.7509	0.066
Mof_C 	C 	0.5915	0.8022	0.7084	0.139
Mof_H 	H 	0.5943	0.8275	0.7259	-0.069
Mof_C 	C 	0.6112	0.8006	0.6678	-0.332
Mof_C 	C 	0.6051	0.7619	0.6446	0.14
Mof_H 	H 	0.6182	0.7597	0.6168	-0.081
Mof_C 	C 	0.6857	0.8246	0.6079	-0.854
Mof_H 	H 	0.6719	0.8086	0.5841	0.225
Mof_H 	H 	0.7031	0.8485	0.5959	0.214
Mof_H 	H 	0.7045	0.805	0.6244	0.237
Mof_C 	C 	0.6687	0.8778	0.6897	-0.846
Mof_H 	H 	0.646	0.8895	0.7087	0.216
Mof_H 	H 	0.6875	0.8582	0.7064	0.232
Mof_H 	H 	0.6861	0.9017	0.6779	0.219
Mof_Si	Si	0.64314	0.84709	0.64424	0.672
Mof_N 	N 	0.5822	0.2721	0.8412	-0.312
Mof_C 	C 	0.5636	0.2692	0.8016	0.096
Mof_H 	H 	0.5473	0.2932	0.7909	-0.057
Mof_C 	C 	0.5676	0.2331	0.7768	-0.216
Mof_H 	H 	0.554	0.232	0.7491	0.066
Mof_C 	C 	0.5915	0.1978	0.7916	0.139
Mof_H 	H 	0.5943	0.1725	0.7741	-0.069
Mof_C 	C 	0.6112	0.1994	0.8322	-0.332
Mof_C 	C 	0.6051	0.2381	0.8554	0.14
Mof_H 	H 	0.6182	0.2403	0.8832	-0.081
Mof_C 	C 	0.6857	0.1754	0.8921	-0.854
Mof_H 	H 	0.6719	0.1914	0.9159	0.225
Mof_H 	H 	0.7031	0.1515	0.9041	0.214
Mof_H 	H 	0.7045	0.195	0.8756	0.237
Mof_C 	C 	0.6687	0.1222	0.8103	-0.846
Mof_H 	H 	0.646	0.1105	0.7913	0.216
Mof_H 	H 	0.6875	0.1418	0.7936	0.232
Mof_H 	H 	0.6861	0.0983	0.8221	0.219
Mof_Si	Si	0.64314	0.15291	0.85576	0.672
Mof_N 	N 	0.0822	0.7721	0.3412	-0.312
Mof_C 	C 	0.0636	0.7692	0.3016	0.096
Mof_H 	H 	0.0473	0.7932	0.2909	-0.057
Mof_C 	C 	0.0676	0.7331	0.2768	-0.216
Mof_H 	H 	0.054	0.732	0.2491	0.066
Mof_C 	C 	0.0915	0.6978	0.2916	0.139
Mof_H 	H 	0.0943	0.6725	0.2741	-0.069
Mof_C 	C 	0.1112	0.6994	0.3322	-0.332
Mof_C 	C 	0.1051	0.7381	0.3554	0.14
Mof_H 	H 	0.1182	0.7403	0.3832	-0.081
Mof_C 	C 	0.1857	0.6754	0.3921	-0.854
Mof_H 	H 	0.1719	0.6914	0.4159	0.225
Mof_H 	H 	0.2031	0.6515	0.4041	0.214
Mof_H 	H 	0.2045	0.695	0.3756	0.237
Mof_C 	C 	0.1687	0.6222	0.3103	-0.846
Mof_H 	H 	0.146	0.6105	0.2913	0.216
Mof_H 	H 	0.1875	0.6418	0.2936	0.232
Mof_H 	H 	0.1861	0.5983	0.3221	0.219
Mof_Si	Si	0.14314	0.65291	0.35576	0.672
Mof_N 	N 	0.4178	0.7721	0.6588	-0.312
Mof_C 	C 	0.4364	0.7692	0.6984	0.096
Mof_H 	H 	0.4527	0.7932	0.7091	-0.057
Mof_C 	C 	0.4324	0.7331	0.7232	-0.216
Mof_H 	H 	0.446	0.732	0.7509	0.066
Mof_C 	C 	0.4085	0.6978	0.7084	0.139
Mof_H 	H 	0.4057	0.6725	0.7259	-0.069
Mof_C 	C 	0.3888	0.6994	0.6678	-0.332
Mof_C 	C 	0.3949	0.7381	0.6446	0.14
Mof_H 	H 	0.3818	0.7403	0.6168	-0.081
Mof_C 	C 	0.3143	0.6754	0.6079	-0.854
Mof_H 	H 	0.3281	0.6914	0.5841	0.225
Mof_H 	H 	0.2969	0.6515	0.5959	0.214
Mof_H 	H 	0.2955	0.695	0.6244	0.237
Mof_C 	C 	0.3313	0.6222	0.6897	-0.846
Mof_H 	H 	0.354	0.6105	0.7087	0.216
Mof_H 	H 	0.3125	0.6418	0.7064	0.232
Mof_H 	H 	0.3139	0.5983	0.6779	0.219
Mof_Si	Si	0.35686	0.65291	0.64424	0.672
Mof_N 	N 	0.9178	0.2721	0.1588	-0.312
Mof_C 	C 	0.9364	0.2692	0.1984	0.096
Mof_H 	H 	0.9527	0.2932	0.2091	-0.057
Mof_C 	C 	0.9324	0.2331	0.2232	-0.216
Mof_H 	H 	0.946	0.232	0.2509	0.066
Mof_C 	C 	0.9085	0.1978	0.2084	0.139
Mof_H 	H 	0.9057	0.1725	0.2259	-0.069
Mof_C 	C 	0.8888	0.1994	0.1678	-0.332
Mof_C 	C 	0.8949	0.2381	0.1446	0.14
Mof_H 	H 	0.8818	0.2403	0.1168	-0.081
Mof_C 	C 	0.8143	0.1754	0.1079	-0.854
Mof_H 	H 	0.8281	0.1914	0.0841	0.225
Mof_H 	H 	0.7969	0.1515	0.0959	0.214
Mof_H 	H 	0.7955	0.195	0.1244	0.237
Mof_C 	C 	0.8313	0.1222	0.1897	-0.846
Mof_H 	H 	0.854	0.1105	0.2087	0.216
Mof_H 	H 	0.8125	0.1418	0.2064	0.232
Mof_H 	H 	0.8139	0.0983	0.1779	0.219
Mof_Si	Si	0.85686	0.15291	0.14424	0.672
Mof_N 	N 	0.9178	0.7279	0.3412	-0.312
Mof_C 	C 	0.9364	0.7308	0.3016	0.096
Mof_H 	H 	0.9527	0.7068	0.2909	-0.057
Mof_C 	C 	0.9324	0.7669	0.2768	-0.216
Mof_H 	H 	0.946	0.768	0.2491	0.066
Mof_C 	C 	0.9085	0.8022	0.2916	0.139
Mof_H 	H 	0.9057	0.8275	0.2741	-0.069
Mof_C 	C 	0.8888	0.8006	0.3322	-0.332
Mof_C 	C 	0.8949	0.7619	0.3554	0.14
Mof_H 	H 	0.8818	0.7597	0.3832	-0.081
Mof_C 	C 	0.8143	0.8246	0.3921	-0.854
Mof_H 	H 	0.8281	0.8086	0.4159	0.225
Mof_H 	H 	0.7969	0.8485	0.4041	0.214
Mof_H 	H 	0.7955	0.805	0.3756	0.237
Mof_C 	C 	0.8313	0.8778	0.3103	-0.846
Mof_H 	H 	0.854	0.8895	0.2913	0.216
Mof_H 	H 	0.8125	0.8582	0.2936	0.232
Mof_H 	H 	0.8139	0.9017	0.3221	0.219
Mof_Si	Si	0.85686	0.84709	0.35576	0.672
Mof_N 	N 	0.4178	0.2279	0.8412	-0.312
Mof_C 	C 	0.4364	0.2308	0.8016	0.096
Mof_H 	H 	0.4527	0.2068	0.7909	-0.057
Mof_C 	C 	0.4324	0.2669	0.7768	-0.216
Mof_H 	H 	0.446	0.268	0.7491	0.066
Mof_C 	C 	0.4085	0.3022	0.7916	0.139
Mof_H 	H 	0.4057	0.3275	0.7741	-0.069
Mof_C 	C 	0.3888	0.3006	0.8322	-0.332
Mof_C 	C 	0.3949	0.2619	0.8554	0.14
Mof_H 	H 	0.3818	0.2597	0.8832	-0.081
Mof_C 	C 	0.3143	0.3246	0.8921	-0.854
Mof_H 	H 	0.3281	0.3086	0.9159	0.225
Mof_H 	H 	0.2969	0.3485	0.9041	0.214
Mof_H 	H 	0.2955	0.305	0.8756	0.237
Mof_C 	C 	0.3313	0.3778	0.8103	-0.846
Mof_H 	H 	0.354	0.3895	0.7913	0.216
Mof_H 	H 	0.3125	0.3582	0.7936	0.232
Mof_H 	H 	0.3139	0.4017	0.8221	0.219
Mof_Si	Si	0.35686	0.34709	0.85576	0.672
Mof_N 	N 	0.1588	0.0822	0.2279	-0.312
Mof_C 	C 	0.1984	0.0636	0.2308	0.096
Mof_H 	H 	0.2091	0.0473	0.2068	-0.057
Mof_C 	C 	0.2232	0.0676	0.2669	-0.216
Mof_H 	H 	0.2509	0.054	0.268	0.066
Mof_C 	C 	0.2084	0.0915	0.3022	0.139
Mof_H 	H 	0.2259	0.0943	0.3275	-0.069
Mof_C 	C 	0.1678	0.1112	0.3006	-0.332
Mof_C 	C 	0.1446	0.1051	0.2619	0.14
Mof_H 	H 	0.1168	0.1182	0.2597	-0.081
Mof_C 	C 	0.1079	0.1857	0.3246	-0.854
Mof_H 	H 	0.0841	0.1719	0.3086	0.225
Mof_H 	H 	0.0959	0.2031	0.3485	0.214
Mof_H 	H 	0.1244	0.2045	0.305	0.237
Mof_C 	C 	0.1897	0.1687	0.3778	-0.846
Mof_H 	H 	0.2087	0.146	0.3895	0.216
Mof_H 	H 	0.2064	0.1875	0.3582	0.232
Mof_H 	H 	0.1779	0.1861	0.4017	0.219
Mof_Si	Si	0.14424	0.14314	0.34709	0.672
Mof_N 	N 	0.6588	0.5822	0.7279	-0.312
Mof_C 	C 	0.6984	0.5636	0.7308	0.096
Mof_H 	H 	0.7091	0.5473	0.7068	-0.057
Mof_C 	C 	0.7232	0.5676	0.7669	-0.216
Mof_H 	H 	0.7509	0.554	0.768	0.066
Mof_C 	C 	0.7084	0.5915	0.8022	0.139
Mof_H 	H 	0.7259	0.5943	0.8275	-0.069
Mof_C 	C 	0.6678	0.6112	0.8006	-0.332
Mof_C 	C 	0.6446	0.6051	0.7619	0.14
Mof_H 	H 	0.6168	0.6182	0.7597	-0.081
Mof_C 	C 	0.6079	0.6857	0.8246	-0.854
Mof_H 	H 	0.5841	0.6719	0.8086	0.225
Mof_H 	H 	0.5959	0.7031	0.8485	0.214
Mof_H 	H 	0.6244	0.7045	0.805	0.237
Mof_C 	C 	0.6897	0.6687	0.8778	-0.846
Mof_H 	H 	0.7087	0.646	0.8895	0.216
Mof_H 	H 	0.7064	0.6875	0.8582	0.232
Mof_H 	H 	0.6779	0.6861	0.9017	0.219
Mof_Si	Si	0.64424	0.64314	0.84709	0.672
Mof_N 	N 	0.8412	0.5822	0.2721	-0.312
Mof_C 	C 	0.8016	0.5636	0.2692	0.096
Mof_H 	H 	0.7909	0.5473	0.2932	-0.057
Mof_C 	C 	0.7768	0.5676	0.2331	-0.216
Mof_H 	H 	0.7491	0.554	0.232	0.066
Mof_C 	C 	0.7916	0.5915	0.1978	0.139
Mof_H 	H 	0.7741	0.5943	0.1725	-0.069
Mof_C 	C 	0.8322	0.6112	0.1994	-0.332
Mof_C 	C 	0.8554	0.6051	0.2381	0.14
Mof_H 	H 	0.8832	0.6182	0.2403	-0.081
Mof_C 	C 	0.8921	0.6857	0.1754	-0.854
Mof_H 	H 	0.9159	0.6719	0.1914	0.225
Mof_H 	H 	0.9041	0.7031	0.1515	0.214
Mof_H 	H 	0.8756	0.7045	0.195	0.237
Mof_C 	C 	0.8103	0.6687	0.1222	-0.846
Mof_H 	H 	0.7913	0.646	0.1105	0.216
Mof_H 	H 	0.7936	0.6875	0.1418	0.232
Mof_H 	H 	0.8221	0.6861	0.0983	0.219
Mof_Si	Si	0.85576	0.64314	0.15291	0.672
Mof_N 	N 	0.3412	0.0822	0.7721	-0.312
Mof_C 	C 	0.3016	0.0636	0.7692	0.096
Mof_H 	H 	0.2909	0.0473	0.7932	-0.057
Mof_C 	C 	0.2768	0.0676	0.7331	-0.216
Mof_H 	H 	0.2491	0.054	0.732	0.066
Mof_C 	C 	0.2916	0.0915	0.6978	0.139
Mof_H 	H 	0.2741	0.0943	0.6725	-0.069
Mof_C 	C 	0.3322	0.1112	0.6994	-0.332
Mof_C 	C 	0.3554	0.1051	0.7381	0.14
Mof_H 	H 	0.3832	0.1182	0.7403	-0.081
Mof_C 	C 	0.3921	0.1857	0.6754	-0.854
Mof_H 	H 	0.4159	0.1719	0.6914	0.225
Mof_H 	H 	0.4041	0.2031	0.6515	0.214
Mof_H 	H 	0.3756	0.2045	0.695	0.237
Mof_C 	C 	0.3103	0.1687	0.6222	-0.846
Mof_H 	H 	0.2913	0.146	0.6105	0.216
Mof_H 	H 	0.2936	0.1875	0.6418	0.232
Mof_H 	H 	0.3221	0.1861	0.5983	0.219
Mof_Si	Si	0.35576	0.14314	0.65291	0.672
Mof_N 	N 	0.6588	0.4178	0.7721	-0.312
Mof_C 	C 	0.6984	0.4364	0.7692	0.096
Mof_H 	H 	0.7091	0.4527	0.7932	-0.057
Mof_C 	C 	0.7232	0.4324	0.7331	-0.216
Mof_H 	H 	0.7509	0.446	0.732	0.066
Mof_C 	C 	0.7084	0.4085	0.6978	0.139
Mof_H 	H 	0.7259	0.4057	0.6725	-0.069
Mof_C 	C 	0.6678	0.3888	0.6994	-0.332
Mof_C 	C 	0.6446	0.3949	0.7381	0.14
Mof_H 	H 	0.6168	0.3818	0.7403	-0.081
Mof_C 	C 	0.6079	0.3143	0.6754	-0.854
Mof_H 	H 	0.5841	0.3281	0.6914	0.225
Mof_H 	H 	0.5959	0.2969	0.6515	0.214
Mof_H 	H 	0.6244	0.2955	0.695	0.237
Mof_C 	C 	0.6897	0.3313	0.6222	-0.846
Mof_H 	H 	0.7087	0.354	0.6105	0.216
Mof_H 	H 	0.7064	0.3125	0.6418	0.232
Mof_H 	H 	0.6779	0.3139	0.5983	0.219
Mof_Si	Si	0.64424	0.35686	0.65291	0.672
Mof_N 	N 	0.1588	0.9178	0.2721	-0.312
Mof_C 	C 	0.1984	0.9364	0.2692	0.096
Mof_H 	H 	0.2091	0.9527	0.2932	-0.057
Mof_C 	C 	0.2232	0.9324	0.2331	-0.216
Mof_H 	H 	0.2509	0.946	0.232	0.066
Mof_C 	C 	0.2084	0.9085	0.1978	0.139
Mof_H 	H 	0.2259	0.9057	0.1725	-0.069
Mof_C 	C 	0.1678	0.8888	0.1994	-0.332
Mof_C 	C 	0.1446	0.8949	0.2381	0.14
Mof_H 	H 	0.1168	0.8818	0.2403	-0.081
Mof_C 	C 	0.1079	0.8143	0.1754	-0.854
Mof_H 	H 	0.0841	0.8281	0.1914	0.225
Mof_H 	H 	0.0959	0.7969	0.1515	0.214
Mof_H 	H 	0.1244	0.7955	0.195	0.237
Mof_C 	C 	0.1897	0.8313	0.1222	-0.846
Mof_H 	H 	0.2087	0.854	0.1105	0.216
Mof_H 	H 	0.2064	0.8125	0.1418	0.232
Mof_H 	H 	0.1779	0.8139	0.0983	0.219
Mof_Si	Si	0.14424	0.85686	0.15291	0.672
Mof_N 	N 	0.3412	0.9178	0.7279	-0.312
Mof_C 	C 	0.3016	0.9364	0.7308	0.096
Mof_H 	H 	0.2909	0.9527	0.7068	-0.057
Mof_C 	C 	0.2768	0.9324	0.7669	-0.216
Mof_H 	H 	0.2491	0.946	0.768	0.066
Mof_C 	C 	0.2916	0.9085	0.8022	0.139
Mof_H 	H 	0.2741	0.9057	0.8275	-0.069
Mof_C 	C 	0.3322	0.8888	0.8006	-0.332
Mof_C 	C 	0.3554	0.8949	0.7619	0.14
Mof_H 	H 	0.3832	0.8818	0.7597	-0.081
Mof_C 	C 	0.3921	0.8143	0.8246	-0.854
Mof_H 	H 	0.4159	0.8281	0.8086	0.225
Mof_H 	H 	0.4041	0.7969	0.8485	0.214
Mof_H 	H 	0.3756	0.7955	0.805	0.237
Mof_C 	C 	0.3103	0.8313	0.8778	-0.846
Mof_H 	H 	0.2913	0.854	0.8895	0.216
Mof_H 	H 	0.2936	0.8125	0.8582	0.232
Mof_H 	H 	0.3221	0.8139	0.9017	0.219
Mof_Si	Si	0.35576	0.85686	0.84709	0.672
Mof_N 	N 	0.8412	0.4178	0.2279	-0.312
Mof_C 	C 	0.8016	0.4364	0.2308	0.096
Mof_H 	H 	0.7909	0.4527	0.2068	-0.057
Mof_C 	C 	0.7768	0.4324	0.2669	-0.216
Mof_H 	H 	0.7491	0.446	0.268	0.066
Mof_C 	C 	0.7916	0.4085	0.3022	0.139
Mof_H 	H 	0.7741	0.4057	0.3275	-0.069
Mof_C 	C 	0.8322	0.3888	0.3006	-0.332
Mof_C 	C 	0.8554	0.3949	0.2619	0.14
Mof_H 	H 	0.8832	0.3818	0.2597	-0.081
Mof_C 	C 	0.8921	0.3143	0.3246	-0.854
Mof_H 	H 	0.9159	0.3281	0.3086	0.225
Mof_H 	H 	0.9041	0.2969	0.3485	0.214
Mof_H 	H 	0.8756	0.2955	0.305	0.237
Mof_C 	C 	0.8103	0.3313	0.3778	-0.846
Mof_H 	H 	0.7913	0.354	0.3895	0.216
Mof_H 	H 	0.7936	0.3125	0.3582	0.232
Mof_H 	H 	0.8221	0.3139	0.4017	0.219
Mof_Si	Si	0.85576	0.35686	0.34709	0.672
Mof_N 	N 	0.9088	0.4779	0.1678	-0.312
Mof_C 	C 	0.9484	0.4808	0.1864	0.096
Mof_H 	H 	0.9591	0.4568	0.2027	-0.057
Mof_C 	C 	0.9732	0.5169	0.1824	-0.216
Mof_H 	H 	0.0009	0.518	0.196	0.066
Mof_C 	C 	0.9584	0.5522	0.1585	0.139
Mof_H 	H 	0.9759	0.5775	0.1557	-0.069
Mof_C 	C 	0.9178	0.5506	0.1388	-0.332
Mof_C 	C 	0.8946	0.5119	0.1449	0.14
Mof_H 	H 	0.8668	0.5097	0.1318	-0.081
Mof_C 	C 	0.8579	0.5746	0.0643	-0.854
Mof_H 	H 	0.8341	0.5586	0.0781	0.225
Mof_H 	H 	0.8459	0.5985	0.0469	0.214
Mof_H 	H 	0.8744	0.555	0.0455	0.237
Mof_C 	C 	0.9397	0.6278	0.0813	-0.846
Mof_H 	H 	0.9587	0.6395	0.104	0.216
Mof_H 	H 	0.9564	0.6082	0.0625	0.231
Mof_H 	H 	0.9279	0.6517	0.0639	0.219
Mof_Si	Si	0.89424	0.59709	0.10686	0.672
Mof_N 	N 	0.4088	0.9779	0.6678	-0.312
Mof_C 	C 	0.4484	0.9808	0.6864	0.096
Mof_H 	H 	0.4591	0.9568	0.7027	-0.057
Mof_C 	C 	0.4732	0.0169	0.6824	-0.216
Mof_H 	H 	0.5009	0.018	0.696	0.066
Mof_C 	C 	0.4584	0.0522	0.6585	0.139
Mof_H 	H 	0.4759	0.0775	0.6557	-0.069
Mof_C 	C 	0.4178	0.0506	0.6388	-0.332
Mof_C 	C 	0.3946	0.0119	0.6449	0.14
Mof_H 	H 	0.3668	0.0097	0.6318	-0.081
Mof_C 	C 	0.3579	0.0746	0.5643	-0.854
Mof_H 	H 	0.3341	0.0586	0.5781	0.225
Mof_H 	H 	0.3459	0.0985	0.5469	0.214
Mof_H 	H 	0.3744	0.055	0.5455	0.237
Mof_C 	C 	0.4397	0.1278	0.5813	-0.846
Mof_H 	H 	0.4587	0.1395	0.604	0.216
Mof_H 	H 	0.4564	0.1082	0.5625	0.232
Mof_H 	H 	0.4279	0.1517	0.5639	0.219
Mof_Si	Si	0.39424	0.09709	0.60686	0.672
Mof_N 	N 	0.5912	0.5221	0.6678	-0.312
Mof_C 	C 	0.5516	0.5192	0.6864	0.096
Mof_H 	H 	0.5409	0.5432	0.7027	-0.057
Mof_C 	C 	0.5268	0.4831	0.6824	-0.216
Mof_H 	H 	0.4991	0.482	0.696	0.066
Mof_C 	C 	0.5416	0.4478	0.6585	0.139
Mof_H 	H 	0.5241	0.4225	0.6557	-0.069
Mof_C 	C 	0.5822	0.4494	0.6388	-0.332
Mof_C 	C 	0.6054	0.4881	0.6449	0.14
Mof_H 	H 	0.6332	0.4903	0.6318	-0.081
Mof_C 	C 	0.6421	0.4254	0.5643	-0.854
Mof_H 	H 	0.6659	0.4414	0.5781	0.225
Mof_H 	H 	0.6541	0.4015	0.5469	0.214
Mof_H 	H 	0.6256	0.445	0.5455	0.237
Mof_C 	C 	0.5603	0.3722	0.5813	-0.846
Mof_H 	H 	0.5413	0.3605	0.604	0.216
Mof_H 	H 	0.5436	0.3918	0.5625	0.232
Mof_H 	H 	0.5721	0.3483	0.5639	0.219
Mof_Si	Si	0.60576	0.40291	0.60686	0.672
Mof_N 	N 	0.0912	0.0221	0.1678	-0.312
Mof_C 	C 	0.0516	0.0192	0.1864	0.096
Mof_H 	H 	0.0409	0.0432	0.2027	-0.057
Mof_C 	C 	0.0268	0.9831	0.1824	-0.216
Mof_H 	H 	0.9991	0.982	0.196	0.066
Mof_C 	C 	0.0416	0.9478	0.1585	0.139
Mof_H 	H 	0.0241	0.9225	0.1557	-0.069
Mof_C 	C 	0.0822	0.9494	0.1388	-0.332
Mof_C 	C 	0.1054	0.9881	0.1449	0.14
Mof_H 	H 	0.1332	0.9903	0.1318	-0.081
Mof_C 	C 	0.1421	0.9254	0.0643	-0.854
Mof_H 	H 	0.1659	0.9414	0.0781	0.225
Mof_H 	H 	0.1541	0.9015	0.0469	0.214
Mof_H 	H 	0.1256	0.945	0.0455	0.237
Mof_C 	C 	0.0603	0.8722	0.0813	-0.846
Mof_H 	H 	0.0413	0.8605	0.104	0.216
Mof_H 	H 	0.0436	0.8918	0.0625	0.231
Mof_H 	H 	0.0721	0.8483	0.0639	0.219
Mof_Si	Si	0.10576	0.90291	0.10686	0.672
Mof_N 	N 	0.4088	0.0221	0.8322	-0.312
Mof_C 	C 	0.4484	0.0192	0.8136	0.096
Mof_H 	H 	0.4591	0.0432	0.7973	-0.057
Mof_C 	C 	0.4732	0.9831	0.8176	-0.216
Mof_H 	H 	0.5009	0.982	0.804	0.066
Mof_C 	C 	0.4584	0.9478	0.8415	0.139
Mof_H 	H 	0.4759	0.9225	0.8443	-0.069
Mof_C 	C 	0.4178	0.9494	0.8612	-0.332
Mof_C 	C 	0.3946	0.9881	0.8551	0.14
Mof_H 	H 	0.3668	0.9903	0.8682	-0.081
Mof_C 	C 	0.3579	0.9254	0.9357	-0.854
Mof_H 	H 	0.3341	0.9414	0.9219	0.225
Mof_H 	H 	0.3459	0.9015	0.9531	0.214
Mof_H 	H 	0.3744	0.945	0.9545	0.237
Mof_C 	C 	0.4397	0.8722	0.9187	-0.846
Mof_H 	H 	0.4587	0.8605	0.896	0.216
Mof_H 	H 	0.4564	0.8918	0.9375	0.232
Mof_H 	H 	0.4279	0.8483	0.9361	0.219
Mof_Si	Si	0.39424	0.90291	0.89314	0.672
Mof_N 	N 	0.9088	0.5221	0.3322	-0.312
Mof_C 	C 	0.9484	0.5192	0.3136	0.096
Mof_H 	H 	0.9591	0.5432	0.2973	-0.057
Mof_C 	C 	0.9732	0.4831	0.3176	-0.216
Mof_H 	H 	0.0009	0.482	0.304	0.066
Mof_C 	C 	0.9584	0.4478	0.3415	0.139
Mof_H 	H 	0.9759	0.4225	0.3443	-0.069
Mof_C 	C 	0.9178	0.4494	0.3612	-0.332
Mof_C 	C 	0.8946	0.4881	0.3551	0.14
Mof_H 	H 	0.8668	0.4903	0.3682	-0.081
Mof_C 	C 	0.8579	0.4254	0.4357	-0.854
Mof_H 	H 	0.8341	0.4414	0.4219	0.225
Mof_H 	H 	0.8459	0.4015	0.4531	0.214
Mof_H 	H 	0.8744	0.445	0.4545	0.237
Mof_C 	C 	0.9397	0.3722	0.4187	-0.846
Mof_H 	H 	0.9587	0.3605	0.396	0.216
Mof_H 	H 	0.9564	0.3918	0.4375	0.232
Mof_H 	H 	0.9279	0.3483	0.4361	0.219
Mof_Si	Si	0.89424	0.40291	0.39314	0.672
Mof_N 	N 	0.0912	0.9779	0.3322	-0.312
Mof_C 	C 	0.0516	0.9808	0.3136	0.096
Mof_H 	H 	0.0409	0.9568	0.2973	-0.057
Mof_C 	C 	0.0268	0.0169	0.3176	-0.216
Mof_H 	H 	0.9991	0.018	0.304	0.066
Mof_C 	C 	0.0416	0.0522	0.3415	0.139
Mof_H 	H 	0.0241	0.0775	0.3443	-0.069
Mof_C 	C 	0.0822	0.0506	0.3612	-0.332
Mof_C 	C 	0.1054	0.0119	0.3551	0.14
Mof_H 	H 	0.1332	0.0097	0.3682	-0.081
Mof_C 	C 	0.1421	0.0746	0.4357	-0.854
Mof_H 	H 	0.1659	0.0586	0.4219	0.225
Mof_H 	H 	0.1541	0.0985	0.4531	0.214
Mof_H 	H 	0.1256	0.055	0.4545	0.237
Mof_C 	C 	0.0603	0.1278	0.4187	-0.846
Mof_H 	H 	0.0413	0.1395	0.396	0.216
Mof_H 	H 	0.0436	0.1082	0.4375	0.232
Mof_H 	H 	0.0721	0.1517	0.4361	0.219
Mof_Si	Si	0.10576	0.09709	0.39314	0.672
Mof_N 	N 	0.5912	0.4779	0.8322	-0.312
Mof_C 	C 	0.5516	0.4808	0.8136	0.096
Mof_H 	H 	0.5409	0.4568	0.7973	-0.057
Mof_C 	C 	0.5268	0.5169	0.8176	-0.216
Mof_H 	H 	0.4991	0.518	0.804	0.066
Mof_C 	C 	0.5416	0.5522	0.8415	0.139
Mof_H 	H 	0.5241	0.5775	0.8443	-0.069
Mof_C 	C 	0.5822	0.5506	0.8612	-0.332
Mof_C 	C 	0.6054	0.5119	0.8551	0.14
Mof_H 	H 	0.6332	0.5097	0.8682	-0.081
Mof_C 	C 	0.6421	0.5746	0.9357	-0.854
Mof_H 	H 	0.6659	0.5586	0.9219	0.225
Mof_H 	H 	0.6541	0.5985	0.9531	0.214
Mof_H 	H 	0.6256	0.555	0.9545	0.237
Mof_C 	C 	0.5603	0.6278	0.9187	-0.846
Mof_H 	H 	0.5413	0.6395	0.896	0.216
Mof_H 	H 	0.5436	0.6082	0.9375	0.232
Mof_H 	H 	0.5721	0.6517	0.9361	0.219
Mof_Si	Si	0.60576	0.59709	0.89314	0.672
Mof_N 	N 	0.9779	0.3322	0.0912	-0.312
Mof_C 	C 	0.9808	0.3136	0.0516	0.096
Mof_H 	H 	0.9568	0.2973	0.0409	-0.057
Mof_C 	C 	0.0169	0.3176	0.0268	-0.216
Mof_H 	H 	0.018	0.304	0.9991	0.066
Mof_C 	C 	0.0522	0.3415	0.0416	0.139
Mof_H 	H 	0.0775	0.3443	0.0241	-0.069
Mof_C 	C 	0.0506	0.3612	0.0822	-0.332
Mof_C 	C 	0.0119	0.3551	0.1054	0.14
Mof_H 	H 	0.0097	0.3682	0.1332	-0.081
Mof_C 	C 	0.0746	0.4357	0.1421	-0.854
Mof_H 	H 	0.0586	0.4219	0.1659	0.225
Mof_H 	H 	0.0985	0.4531	0.1541	0.214
Mof_H 	H 	0.055	0.4545	0.1256	0.237
Mof_C 	C 	0.1278	0.4187	0.0603	-0.846
Mof_H 	H 	0.1395	0.396	0.0413	0.216
Mof_H 	H 	0.1082	0.4375	0.0436	0.232
Mof_H 	H 	0.1517	0.4361	0.0721	0.219
Mof_Si	Si	0.09709	0.39314	0.10576	0.672
Mof_N 	N 	0.4779	0.8322	0.5912	-0.312
Mof_C 	C 	0.4808	0.8136	0.5516	0.096
Mof_H 	H 	0.4568	0.7973	0.5409	-0.057
Mof_C 	C 	0.5169	0.8176	0.5268	-0.216
Mof_H 	H 	0.518	0.804	0.4991	0.066
Mof_C 	C 	0.5522	0.8415	0.5416	0.139
Mof_H 	H 	0.5775	0.8443	0.5241	-0.069
Mof_C 	C 	0.5506	0.8612	0.5822	-0.332
Mof_C 	C 	0.5119	0.8551	0.6054	0.14
Mof_H 	H 	0.5097	0.8682	0.6332	-0.081
Mof_C 	C 	0.5746	0.9357	0.6421	-0.854
Mof_H 	H 	0.5586	0.9219	0.6659	0.225
Mof_H 	H 	0.5985	0.9531	0.6541	0.214
Mof_H 	H 	0.555	0.9545	0.6256	0.237
Mof_C 	C 	0.6278	0.9187	0.5603	-0.846
Mof_H 	H 	0.6395	0.896	0.5413	0.216
Mof_H 	H 	0.6082	0.9375	0.5436	0.232
Mof_H 	H 	0.6517	0.9361	0.5721	0.219
Mof_Si	Si	0.59709	0.89314	0.60576	0.672
Mof_N 	N 	0.0221	0.8322	0.4088	-0.312
Mof_C 	C 	0.0192	0.8136	0.4484	0.096
Mof_H 	H 	0.0432	0.7973	0.4591	-0.057
Mof_C 	C 	0.9831	0.8176	0.4732	-0.216
Mof_H 	H 	0.982	0.804	0.5009	0.066
Mof_C 	C 	0.9478	0.8415	0.4584	0.139
Mof_H 	H 	0.9225	0.8443	0.4759	-0.069
Mof_C 	C 	0.9494	0.8612	0.4178	-0.332
Mof_C 	C 	0.9881	0.8551	0.3946	0.14
Mof_H 	H 	0.9903	0.8682	0.3668	-0.081
Mof_C 	C 	0.9254	0.9357	0.3579	-0.854
Mof_H 	H 	0.9414	0.9219	0.3341	0.225
Mof_H 	H 	0.9015	0.9531	0.3459	0.214
Mof_H 	H 	0.945	0.9545	0.3744	0.237
Mof_C 	C 	0.8722	0.9187	0.4397	-0.846
Mof_H 	H 	0.8605	0.896	0.4587	0.216
Mof_H 	H 	0.8918	0.9375	0.4564	0.232
Mof_H 	H 	0.8483	0.9361	0.4279	0.219
Mof_Si	Si	0.90291	0.89314	0.39424	0.672
Mof_N 	N 	0.5221	0.3322	0.9088	-0.312
Mof_C 	C 	0.5192	0.3136	0.9484	0.096
Mof_H 	H 	0.5432	0.2973	0.9591	-0.057
Mof_C 	C 	0.4831	0.3176	0.9732	-0.216
Mof_H 	H 	0.482	0.304	0.0009	0.066
Mof_C 	C 	0.4478	0.3415	0.9584	0.139
Mof_H 	H 	0.4225	0.3443	0.9759	-0.069
Mof_C 	C 	0.4494	0.3612	0.9178	-0.332
Mof_C 	C 	0.4881	0.3551	0.8946	0.14
Mof_H 	H 	0.4903	0.3682	0.8668	-0.081
Mof_C 	C 	0.4254	0.4357	0.8579	-0.854
Mof_H 	H 	0.4414	0.4219	0.8341	0.225
Mof_H 	H 	0.4015	0.4531	0.8459	0.214
Mof_H 	H 	0.445	0.4545	0.8744	0.237
Mof_C 	C 	0.3722	0.4187	0.9397	-0.846
Mof_H 	H 	0.3605	0.396	0.9587	0.216
Mof_H 	H 	0.3918	0.4375	0.9564	0.232
Mof_H 	H 	0.3483	0.4361	0.9279	0.219
Mof_Si	Si	0.40291	0.39314	0.89424	0.672
Mof_N 	N 	0.5221	0.6678	0.5912	-0.312
Mof_C 	C 	0.5192	0.6864	0.5516	0.096
Mof_H 	H 	0.5432	0.7027	0.5409	-0.057
Mof_C 	C 	0.4831	0.6824	0.5268	-0.216
Mof_H 	H 	0.482	0.696	0.4991	0.066
Mof_C 	C 	0.4478	0.6585	0.5416	0.139
Mof_H 	H 	0.4225	0.6557	0.5241	-0.069
Mof_C 	C 	0.4494	0.6388	0.5822	-0.332
Mof_C 	C 	0.4881	0.6449	0.6054	0.14
Mof_H 	H 	0.4903	0.6318	0.6332	-0.081
Mof_C 	C 	0.4254	0.5643	0.6421	-0.854
Mof_H 	H 	0.4414	0.5781	0.6659	0.225
Mof_H 	H 	0.4015	0.5469	0.6541	0.214
Mof_H 	H 	0.445	0.5455	0.6256	0.237
Mof_C 	C 	0.3722	0.5813	0.5603	-0.846
Mof_H 	H 	0.3605	0.604	0.5413	0.216
Mof_H 	H 	0.3918	0.5625	0.5436	0.232
Mof_H 	H 	0.3483	0.5639	0.5721	0.219
Mof_Si	Si	0.40291	0.60686	0.60576	0.672
Mof_N 	N 	0.0221	0.1678	0.0912	-0.312
Mof_C 	C 	0.0192	0.1864	0.0516	0.096
Mof_H 	H 	0.0432	0.2027	0.0409	-0.057
Mof_C 	C 	0.9831	0.1824	0.0268	-0.216
Mof_H 	H 	0.982	0.196	0.9991	0.066
Mof_C 	C 	0.9478	0.1585	0.0416	0.139
Mof_H 	H 	0.9225	0.1557	0.0241	-0.069
Mof_C 	C 	0.9494	0.1388	0.0822	-0.332
Mof_C 	C 	0.9881	0.1449	0.1054	0.14
Mof_H 	H 	0.9903	0.1318	0.1332	-0.081
Mof_C 	C 	0.9254	0.0643	0.1421	-0.854
Mof_H 	H 	0.9414	0.0781	0.1659	0.225
Mof_H 	H 	0.9015	0.0469	0.1541	0.214
Mof_H 	H 	0.945	0.0455	0.1256	0.237
Mof_C 	C 	0.8722	0.0813	0.0603	-0.846
Mof_H 	H 	0.8605	0.104	0.0413	0.216
Mof_H 	H 	0.8918	0.0625	0.0436	0.231
Mof_H 	H 	0.8483	0.0639	0.0721	0.219
Mof_Si	Si	0.90291	0.10686	0.10576	0.672
Mof_N 	N 	0.4779	0.1678	0.9088	-0.312
Mof_C 	C 	0.4808	0.1864	0.9484	0.096
Mof_H 	H 	0.4568	0.2027	0.9591	-0.057
Mof_C 	C 	0.5169	0.1824	0.9732	-0.216
Mof_H 	H 	0.518	0.196	0.0009	0.066
Mof_C 	C 	0.5522	0.1585	0.9584	0.139
Mof_H 	H 	0.5775	0.1557	0.9759	-0.069
Mof_C 	C 	0.5506	0.1388	0.9178	-0.332
Mof_C 	C 	0.5119	0.1449	0.8946	0.14
Mof_H 	H 	0.5097	0.1318	0.8668	-0.081
Mof_C 	C 	0.5746	0.0643	0.8579	-0.854
Mof_H 	H 	0.5586	0.0781	0.8341	0.225
Mof_H 	H 	0.5985	0.0469	0.8459	0.214
Mof_H 	H 	0.555	0.0455	0.8744	0.237
Mof_C 	C 	0.6278	0.0813	0.9397	-0.846
Mof_H 	H 	0.6395	0.104	0.9587	0.216
Mof_H 	H 	0.6082	0.0625	0.9564	0.231
Mof_H 	H 	0.6517	0.0639	0.9279	0.219
Mof_Si	Si	0.59709	0.10686	0.89424	0.672
Mof_N 	N 	0.9779	0.6678	0.4088	-0.312
Mof_C 	C 	0.9808	0.6864	0.4484	0.096
Mof_H 	H 	0.9568	0.7027	0.4591	-0.057
Mof_C 	C 	0.0169	0.6824	0.4732	-0.216
Mof_H 	H 	0.018	0.696	0.5009	0.066
Mof_C 	C 	0.0522	0.6585	0.4584	0.139
Mof_H 	H 	0.0775	0.6557	0.4759	-0.069
Mof_C 	C 	0.0506	0.6388	0.4178	-0.332
Mof_C 	C 	0.0119	0.6449	0.3946	0.14
Mof_H 	H 	0.0097	0.6318	0.3668	-0.081
Mof_C 	C 	0.0746	0.5643	0.3579	-0.854
Mof_H 	H 	0.0586	0.5781	0.3341	0.225
Mof_H 	H 	0.0985	0.5469	0.3459	0.214
Mof_H 	H 	0.055	0.5455	0.3744	0.237
Mof_C 	C 	0.1278	0.5813	0.4397	-0.846
Mof_H 	H 	0.1395	0.604	0.4587	0.216
Mof_H 	H 	0.1082	0.5625	0.4564	0.232
Mof_H 	H 	0.1517	0.5639	0.4279	0.219
Mof_Si	Si	0.09709	0.60686	0.39424	0.672
Mof_N 	N 	0.8322	0.4088	0.0221	-0.312
Mof_C 	C 	0.8136	0.4484	0.0192	0.096
Mof_H 	H 	0.7973	0.4591	0.0432	-0.057
Mof_C 	C 	0.8176	0.4732	0.9831	-0.216
Mof_H 	H 	0.804	0.5009	0.982	0.066
Mof_C 	C 	0.8415	0.4584	0.9478	0.139
Mof_H 	H 	0.8443	0.4759	0.9225	-0.069
Mof_C 	C 	0.8612	0.4178	0.9494	-0.332
Mof_C 	C 	0.8551	0.3946	0.9881	0.14
Mof_H 	H 	0.8682	0.3668	0.9903	-0.081
Mof_C 	C 	0.9357	0.3579	0.9254	-0.854
Mof_H 	H 	0.9219	0.3341	0.9414	0.225
Mof_H 	H 	0.9531	0.3459	0.9015	0.214
Mof_H 	H 	0.9545	0.3744	0.945	0.237
Mof_C 	C 	0.9187	0.4397	0.8722	-0.846
Mof_H 	H 	0.896	0.4587	0.8605	0.216
Mof_H 	H 	0.9375	0.4564	0.8918	0.232
Mof_H 	H 	0.9361	0.4279	0.8483	0.219
Mof_Si	Si	0.89314	0.39424	0.90291	0.672
Mof_N 	N 	0.3322	0.9088	0.5221	-0.312
Mof_C 	C 	0.3136	0.9484	0.5192	0.096
Mof_H 	H 	0.2973	0.9591	0.5432	-0.057
Mof_C 	C 	0.3176	0.9732	0.4831	-0.216
Mof_H 	H 	0.304	0.0009	0.482	0.066
Mof_C 	C 	0.3415	0.9584	0.4478	0.139
Mof_H 	H 	0.3443	0.9759	0.4225	-0.069
Mof_C 	C 	0.3612	0.9178	0.4494	-0.332
Mof_C 	C 	0.3551	0.8946	0.4881	0.14
Mof_H 	H 	0.3682	0.8668	0.4903	-0.081
Mof_C 	C 	0.4357	0.8579	0.4254	-0.854
Mof_H 	H 	0.4219	0.8341	0.4414	0.225
Mof_H 	H 	0.4531	0.8459	0.4015	0.214
Mof_H 	H 	0.4545	0.8744	0.445	0.237
Mof_C 	C 	0.4187	0.9397	0.3722	-0.846
Mof_H 	H 	0.396	0.9587	0.3605	0.216
Mof_H 	H 	0.4375	0.9564	0.3918	0.232
Mof_H 	H 	0.4361	0.9279	0.3483	0.219
Mof_Si	Si	0.39314	0.89424	0.40291	0.672
Mof_N 	N 	0.3322	0.0912	0.9779	-0.312
Mof_C 	C 	0.3136	0.0516	0.9808	0.096
Mof_H 	H 	0.2973	0.0409	0.9568	-0.057
Mof_C 	C 	0.3176	0.0268	0.0169	-0.216
Mof_H 	H 	0.304	0.9991	0.018	0.066
Mof_C 	C 	0.3415	0.0416	0.0522	0.139
Mof_H 	H 	0.3443	0.0241	0.0775	-0.069
Mof_C 	C 	0.3612	0.0822	0.0506	-0.332
Mof_C 	C 	0.3551	0.1054	0.0119	0.14
Mof_H 	H 	0.3682	0.1332	0.0097	-0.081
Mof_C 	C 	0.4357	0.1421	0.0746	-0.854
Mof_H 	H 	0.4219	0.1659	0.0586	0.225
Mof_H 	H 	0.4531	0.1541	0.0985	0.214
Mof_H 	H 	0.4545	0.1256	0.055	0.237
Mof_C 	C 	0.4187	0.0603	0.1278	-0.846
Mof_H 	H 	0.396	0.0413	0.1395	0.216
Mof_H 	H 	0.4375	0.0436	0.1082	0.232
Mof_H 	H 	0.4361	0.0721	0.1517	0.219
Mof_Si	Si	0.39314	0.10576	0.09709	0.672
Mof_N 	N 	0.8322	0.5912	0.4779	-0.312
Mof_C 	C 	0.8136	0.5516	0.4808	0.096
Mof_H 	H 	0.7973	0.5409	0.4568	-0.057
Mof_C 	C 	0.8176	0.5268	0.5169	-0.216
Mof_H 	H 	0.804	0.4991	0.518	0.066
Mof_C 	C 	0.8415	0.5416	0.5522	0.139
Mof_H 	H 	0.8443	0.5241	0.5775	-0.069
Mof_C 	C 	0.8612	0.5822	0.5506	-0.332
Mof_C 	C 	0.8551	0.6054	0.5119	0.14
Mof_H 	H 	0.8682	0.6332	0.5097	-0.081
Mof_C 	C 	0.9357	0.6421	0.5746	-0.854
Mof_H 	H 	0.9219	0.6659	0.5586	0.225
Mof_H 	H 	0.9531	0.6541	0.5985	0.214
Mof_H 	H 	0.9545	0.6256	0.555	0.237
Mof_C 	C 	0.9187	0.5603	0.6278	-0.846
Mof_H 	H 	0.896	0.5413	0.6395	0.216
Mof_H 	H 	0.9375	0.5436	0.6082	0.232
Mof_H 	H 	0.9361	0.5721	0.6517	0.219
Mof_Si	Si	0.89314	0.60576	0.59709	0.672
Mof_N 	N 	0.1678	0.9088	0.4779	-0.312
Mof_C 	C 	0.1864	0.9484	0.4808	0.096
Mof_H 	H 	0.2027	0.9591	0.4568	-0.057
Mof_C 	C 	0.1824	0.9732	0.5169	-0.216
Mof_H 	H 	0.196	0.0009	0.518	0.066
Mof_C 	C 	0.1585	0.9584	0.5522	0.139
Mof_H 	H 	0.1557	0.9759	0.5775	-0.069
Mof_C 	C 	0.1388	0.9178	0.5506	-0.332
Mof_C 	C 	0.1449	0.8946	0.5119	0.14
Mof_H 	H 	0.1318	0.8668	0.5097	-0.081
Mof_C 	C 	0.0643	0.8579	0.5746	-0.854
Mof_H 	H 	0.0781	0.8341	0.5586	0.225
Mof_H 	H 	0.0469	0.8459	0.5985	0.214
Mof_H 	H 	0.0455	0.8744	0.555	0.237
Mof_C 	C 	0.0813	0.9397	0.6278	-0.846
Mof_H 	H 	0.104	0.9587	0.6395	0.216
Mof_H 	H 	0.0625	0.9564	0.6082	0.231
Mof_H 	H 	0.0639	0.9279	0.6517	0.219
Mof_Si	Si	0.10686	0.89424	0.59709	0.672
Mof_N 	N 	0.6678	0.4088	0.9779	-0.312
Mof_C 	C 	0.6864	0.4484	0.9808	0.096
Mof_H 	H 	0.7027	0.4591	0.9568	-0.057
Mof_C 	C 	0.6824	0.4732	0.0169	-0.216
Mof_H 	H 	0.696	0.5009	0.018	0.066
Mof_C 	C 	0.6585	0.4584	0.0522	0.139
Mof_H 	H 	0.6557	0.4759	0.0775	-0.069
Mof_C 	C 	0.6388	0.4178	0.0506	-0.332
Mof_C 	C 	0.6449	0.3946	0.0119	0.14
Mof_H 	H 	0.6318	0.3668	0.0097	-0.081
Mof_C 	C 	0.5643	0.3579	0.0746	-0.854
Mof_H 	H 	0.5781	0.3341	0.0586	0.225
Mof_H 	H 	0.5469	0.3459	0.0985	0.214
Mof_H 	H 	0.5455	0.3744	0.055	0.237
Mof_C 	C 	0.5813	0.4397	0.1278	-0.846
Mof_H 	H 	0.604	0.4587	0.1395	0.216
Mof_H 	H 	0.5625	0.4564	0.1082	0.232
Mof_H 	H 	0.5639	0.4279	0.1517	0.219
Mof_Si	Si	0.60686	0.39424	0.09709	0.672
Mof_N 	N 	0.6678	0.5912	0.5221	-0.312
Mof_C 	C 	0.6864	0.5516	0.5192	0.096
Mof_H 	H 	0.7027	0.5409	0.5432	-0.057
Mof_C 	C 	0.6824	0.5268	0.4831	-0.216
Mof_H 	H 	0.696	0.4991	0.482	0.066
Mof_C 	C 	0.6585	0.5416	0.4478	0.139
Mof_H 	H 	0.6557	0.5241	0.4225	-0.069
Mof_C 	C 	0.6388	0.5822	0.4494	-0.332
Mof_C 	C 	0.6449	0.6054	0.4881	0.14
Mof_H 	H 	0.6318	0.6332	0.4903	-0.081
Mof_C 	C 	0.5643	0.6421	0.4254	-0.854
Mof_H 	H 	0.5781	0.6659	0.4414	0.225
Mof_H 	H 	0.5469	0.6541	0.4015	0.214
Mof_H 	H 	0.5455	0.6256	0.445	0.237
Mof_C 	C 	0.5813	0.5603	0.3722	-0.846
Mof_H 	H 	0.604	0.5413	0.3605	0.216
Mof_H 	H 	0.5625	0.5436	0.3918	0.232
Mof_H 	H 	0.5639	0.5721	0.3483	0.219
Mof_Si	Si	0.60686	0.60576	0.40291	0.672
Mof_N 	N 	0.1678	0.0912	0.0221	-0.312
Mof_C 	C 	0.1864	0.0516	0.0192	0.096
Mof_H 	H 	0.2027	0.0409	0.0432	-0.057
Mof_C 	C 	0.1824	0.0268	0.9831	-0.216
Mof_H 	H 	0.196	0.9991	0.982	0.066
Mof_C 	C 	0.1585	0.0416	0.9478	0.139
Mof_H 	H 	0.1557	0.0241	0.9225	-0.069
Mof_C 	C 	0.1388	0.0822	0.9494	-0.332
Mof_C 	C 	0.1449	0.1054	0.9881	0.14
Mof_H 	H 	0.1318	0.1332	0.9903	-0.081
Mof_C 	C 	0.0643	0.1421	0.9254	-0.854
Mof_H 	H 	0.0781	0.1659	0.9414	0.225
Mof_H 	H 	0.0469	0.1541	0.9015	0.214
Mof_H 	H 	0.0455	0.1256	0.945	0.237
Mof_C 	C 	0.0813	0.0603	0.8722	-0.846
Mof_H 	H 	0.104	0.0413	0.8605	0.216
Mof_H 	H 	0.0625	0.0436	0.8918	0.231
Mof_H 	H 	0.0639	0.0721	0.8483	0.219
Mof_Si	Si	0.10686	0.10576	0.90291	0.672
Mof_Zn	Zn	0.17146	0.125	0.07854	1.194
Mof_Zn	Zn	0.67146	0.625	0.57854	1.194
Mof_Zn	Zn	0.32854	0.875	0.57854	1.194
Mof_Zn	Zn	0.82854	0.625	0.42146	1.194
Mof_Zn	Zn	0.67146	0.375	0.92146	1.194
Mof_Zn	Zn	0.07854	0.17146	0.125	1.194
Mof_Zn	Zn	0.57854	0.67146	0.625	1.194
Mof_Zn	Zn	0.57854	0.32854	0.875	1.194
Mof_Zn	Zn	0.42146	0.82854	0.625	1.194
Mof_Zn	Zn	0.92146	0.67146	0.375	1.194
Mof_Zn	Zn	0.125	0.07854	0.17146	1.194
Mof_Zn	Zn	0.625	0.57854	0.67146	1.194
Mof_Zn	Zn	0.875	0.57854	0.32854	1.194
Mof_Zn	Zn	0.625	0.42146	0.82854	1.194
Mof_Zn	Zn	0.375	0.92146	0.67146	1.194
Mof_Zn	Zn	0.875	0.42146	0.17146	1.194
Mof_Zn	Zn	0.375	0.07854	0.82854	1.194
Mof_Zn	Zn	0.125	0.92146	0.32854	1.194
Mof_Zn	Zn	0.92146	0.32854	0.125	1.194
Mof_Zn	Zn	0.07854	0.82854	0.375	1.194
Mof_Zn	Zn	0.42146	0.17146	0.875	1.194
Mof_Zn	Zn	0.82854	0.375	0.07854	1.194
Mof_Zn	Zn	0.32854	0.125	0.92146	1.194
Mof_Zn	Zn	0.17146	0.875	0.42146	1.194
Mof_O 	O 	0.16664	0.08336	0.125	-0.75
Mof_H 	H 	0.1885	0.0615	0.125	0.176
Mof_O 	O 	0.66664	0.58336	0.625	-0.75
Mof_H 	H 	0.6885	0.5615	0.625	0.176
Mof_O 	O 	0.33336	0.91664	0.625	-0.75
Mof_H 	H 	0.3115	0.9385	0.625	0.176
Mof_O 	O 	0.83336	0.58336	0.375	-0.75
Mof_H 	H 	0.8115	0.5615	0.375	0.176
Mof_O 	O 	0.66664	0.41664	0.875	-0.75
Mof_H 	H 	0.6885	0.4385	0.875	0.176
Mof_O 	O 	0.125	0.16664	0.08336	-0.75
Mof_H 	H 	0.125	0.1885	0.0615	0.176
Mof_O 	O 	0.625	0.66664	0.58336	-0.75
Mof_H 	H 	0.625	0.6885	0.5615	0.176
Mof_O 	O 	0.625	0.33336	0.91664	-0.75
Mof_H 	H 	0.625	0.3115	0.9385	0.176
Mof_O 	O 	0.375	0.83336	0.58336	-0.75
Mof_H 	H 	0.375	0.8115	0.5615	0.176
Mof_O 	O 	0.875	0.66664	0.41664	-0.75
Mof_H 	H 	0.875	0.6885	0.4385	0.176
Mof_O 	O 	0.08336	0.125	0.16664	-0.75
Mof_H 	H 	0.0615	0.125	0.1885	0.176
Mof_O 	O 	0.58336	0.625	0.66664	-0.75
Mof_H 	H 	0.5615	0.625	0.6885	0.176
Mof_O 	O 	0.91664	0.625	0.33336	-0.75
Mof_H 	H 	0.9385	0.625	0.3115	0.176
Mof_O 	O 	0.58336	0.375	0.83336	-0.75
Mof_H 	H 	0.5615	0.375	0.8115	0.176
Mof_O 	O 	0.41664	0.875	0.66664	-0.75
Mof_H 	H 	0.4385	0.875	0.6885	0.176
Mof_O 	O 	0.83336	0.41664	0.125	-0.75
Mof_H 	H 	0.8115	0.4385	0.125	0.176
Mof_O 	O 	0.33336	0.08336	0.875	-0.75
Mof_H 	H 	0.3115	0.0615	0.875	0.176
Mof_O 	O 	0.16664	0.91664	0.375	-0.75
Mof_H 	H 	0.1885	0.9385	0.375	0.176
Mof_O 	O 	0.91664	0.375	0.16664	-0.75
Mof_H 	H 	0.9385	0.375	0.1885	0.176
Mof_O 	O 	0.08336	0.875	0.33336	-0.75
Mof_H 	H 	0.0615	0.875	0.3115	0.176
Mof_O 	O 	0.41664	0.125	0.83336	-0.75
Mof_H 	H 	0.4385	0.125	0.8115	0.176
Mof_O 	O 	0.875	0.33336	0.08336	-0.75
Mof_H 	H 	0.875	0.3115	0.0615	0.176
Mof_O 	O 	0.375	0.16664	0.91664	-0.75
Mof_H 	H 	0.375	0.1885	0.9385	0.176
Mof_O 	O 	0.125	0.83336	0.41664	-0.75
Mof_H 	H 	0.125	0.8115	0.4385	0.176
Mof_N 	N 	0.7721	0.8412	0.9178	-0.312
Mof_C 	C 	0.7692	0.8016	0.9364	0.096
Mof_H 	H 	0.7932	0.7909	0.9527	-0.057
Mof_C 	C 	0.7331	0.7768	0.9324	-0.216
Mof_H 	H 	0.732	0.7491	0.946	0.066
Mof_C 	C 	0.6978	0.7916	0.9085	0.139
Mof_H 	H 	0.6725	0.7741	0.9057	-0.069
Mof_C 	C 	0.6994	0.8322	0.8888	-0.332
Mof_C 	C 	0.7381	0.8554	0.8949	0.14
Mof_H 	H 	0.7403	0.8832	0.8818	-0.081
Mof_C 	C 	0.6754	0.8921	0.8143	-0.854
Mof_H 	H 	0.6914	0.9159	0.8281	0.225
Mof_H 	H 	0.6515	0.9041	0.7969	0.214
Mof_H 	H 	0.695	0.8756	0.7955	0.237
Mof_C 	C 	0.6222	0.8103	0.8313	-0.846
Mof_H 	H 	0.6105	0.7913	0.854	0.216
Mof_H 	H 	0.6418	0.7936	0.8125	0.232
Mof_H 	H 	0.5983	0.8221	0.8139	0.219
Mof_Si	Si	0.65291	0.85576	0.85686	0.672
Mof_N 	N 	0.2721	0.3412	0.4178	-0.312
Mof_C 	C 	0.2692	0.3016	0.4364	0.096
Mof_H 	H 	0.2932	0.2909	0.4527	-0.057
Mof_C 	C 	0.2331	0.2768	0.4324	-0.216
Mof_H 	H 	0.232	0.2491	0.446	0.066
Mof_C 	C 	0.1978	0.2916	0.4085	0.139
Mof_H 	H 	0.1725	0.2741	0.4057	-0.069
Mof_C 	C 	0.1994	0.3322	0.3888	-0.332
Mof_C 	C 	0.2381	0.3554	0.3949	0.14
Mof_H 	H 	0.2403	0.3832	0.3818	-0.081
Mof_C 	C 	0.1754	0.3921	0.3143	-0.854
Mof_H 	H 	0.1914	0.4159	0.3281	0.225
Mof_H 	H 	0.1515	0.4041	0.2969	0.214
Mof_H 	H 	0.195	0.3756	0.2955	0.237
Mof_C 	C 	0.1222	0.3103	0.3313	-0.846
Mof_H 	H 	0.1105	0.2913	0.354	0.216
Mof_H 	H 	0.1418	0.2936	0.3125	0.232
Mof_H 	H 	0.0983	0.3221	0.3139	0.219
Mof_Si	Si	0.15291	0.35576	0.35686	0.672
Mof_N 	N 	0.7279	0.1588	0.4178	-0.312
Mof_C 	C 	0.7308	0.1984	0.4364	0.096
Mof_H 	H 	0.7068	0.2091	0.4527	-0.057
Mof_C 	C 	0.7669	0.2232	0.4324	-0.216
Mof_H 	H 	0.768	0.2509	0.446	0.066
Mof_C 	C 	0.8022	0.2084	0.4085	0.139
Mof_H 	H 	0.8275	0.2259	0.4057	-0.069
Mof_C 	C 	0.8006	0.1678	0.3888	-0.332
Mof_C 	C 	0.7619	0.1446	0.3949	0.14
Mof_H 	H 	0.7597	0.1168	0.3818	-0.081
Mof_C 	C 	0.8246	0.1079	0.3143	-0.854
Mof_H 	H 	0.8086	0.0841	0.3281	0.225
Mof_H 	H 	0.8485	0.0959	0.2969	0.214
Mof_H 	H 	0.805	0.1244	0.2955	0.237
Mof_C 	C 	0.8778	0.1897	0.3313	-0.846
Mof_H 	H 	0.8895	0.2087	0.354	0.216
Mof_H 	H 	0.8582	0.2064	0.3125	0.232
Mof_H 	H 	0.9017	0.1779	0.3139	0.219
Mof_Si	Si	0.84709	0.14424	0.35686	0.672
Mof_N 	N 	0.2279	0.6588	0.9178	-0.312
Mof_C 	C 	0.2308	0.6984	0.9364	0.096
Mof_H 	H 	0.2068	0.7091	0.9527	-0.057
Mof_C 	C 	0.2669	0.7232	0.9324	-0.216
Mof_H 	H 	0.268	0.7509	0.946	0.066
Mof_C 	C 	0.3022	0.7084	0.9085	0.139
Mof_H 	H 	0.3275	0.7259	0.9057	-0.069
Mof_C 	C 	0.3006	0.6678	0.8888	-0.332
Mof_C 	C 	0.2619	0.6446	0.8949	0.14
Mof_H 	H 	0.2597	0.6168	0.8818	-0.081
Mof_C 	C 	0.3246	0.6079	0.8143	-0.854
Mof_H 	H 	0.3086	0.5841	0.8281	0.225
Mof_H 	H 	0.3485	0.5959	0.7969	0.214
Mof_H 	H 	0.305	0.6244	0.7955	0.237
Mof_C 	C 	0.3778	0.6897	0.8313	-0.846
Mof_H 	H 	0.3895	0.7087	0.854	0.216
Mof_H 	H 	0.3582	0.7064	0.8125	0.232
Mof_H 	H 	0.4017	0.6779	0.8139	0.219
Mof_Si	Si	0.34709	0.64424	0.85686	0.672
Mof_N 	N 	0.2279	0.3412	0.5822	-0.312
Mof_C 	C 	0.2308	0.3016	0.5636	0.096
Mof_H 	H 	0.2068	0.2909	0.5473	-0.057
Mof_C 	C 	0.2669	0.2768	0.5676	-0.216
Mof_H 	H 	0.268	0.2491	0.554	0.066
Mof_C 	C 	0.3022	0.2916	0.5915	0.139
Mof_H 	H 	0.3275	0.2741	0.5943	-0.069
Mof_C 	C 	0.3006	0.3322	0.6112	-0.332
Mof_C 	C 	0.2619	0.3554	0.6051	0.14
Mof_H 	H 	0.2597	0.3832	0.6182	-0.081
Mof_C 	C 	0.3246	0.3921	0.6857	-0.854
Mof_H 	H 	0.3086	0.4159	0.6719	0.225
Mof_H 	H 	0.3485	0.4041	0.7031	0.214
Mof_H 	H 	0.305	0.3756	0.7045	0.237
Mof_C 	C 	0.3778	0.3103	0.6687	-0.846
Mof_H 	H 	0.3895	0.2913	0.646	0.216
Mof_H 	H 	0.3582	0.2936	0.6875	0.232
Mof_H 	H 	0.4017	0.3221	0.6861	0.219
Mof_Si	Si	0.34709	0.35576	0.64314	0.672
Mof_N 	N 	0.7279	0.8412	0.0822	-0.312
Mof_C 	C 	0.7308	0.8016	0.0636	0.096
Mof_H 	H 	0.7068	0.7909	0.0473	-0.057
Mof_C 	C 	0.7669	0.7768	0.0676	-0.216
Mof_H 	H 	0.768	0.7491	0.054	0.066
Mof_C 	C 	0.8022	0.7916	0.0915	0.139
Mof_H 	H 	0.8275	0.7741	0.0943	-0.069
Mof_C 	C 	0.8006	0.8322	0.1112	-0.332
Mof_C 	C 	0.7619	0.8554	0.1051	0.14
Mof_H 	H 	0.7597	0.8832	0.1182	-0.081
Mof_C 	C 	0.8246	0.8921	0.1857	-0.854
Mof_H 	H 	0.8086	0.9159	0.1719	0.225
Mof_H 	H 	0.8485	0.9041	0.2031	0.214
Mof_H 	H 	0.805	0.8756	0.2045	0.237
Mof_C 	C 	0.8778	0.8103	0.1687	-0.846
Mof_H 	H 	0.8895	0.7913	0.146	0.216
Mof_H 	H 	0.8582	0.7936	0.1875	0.232
Mof_H 	H 	0.9017	0.8221	0.1861	0.219
Mof_Si	Si	0.84709	0.85576	0.14314	0.672
Mof_N 	N 	0.2721	0.6588	0.0822	-0.312
Mof_C 	C 	0.2692	0.6984	0.0636	0.096
Mof_H 	H 	0.2932	0.7091	0.0473	-0.057
Mof_C 	C 	0.2331	0.7232	0.0676	-0.216
Mof_H 	H 	0.232	0.7509	0.054	0.066
Mof_C 	C 	0.1978	0.7084	0.0915	0.139
Mof_H 	H 	0.1725	0.7259	0.0943	-0.069
Mof_C 	C 	0.1994	0.6678	0.1112	-0.332
Mof_C 	C 	0.2381	0.6446	0.1051	0.14
Mof_H 	H 	0.2403	0.6168	0.1182	-0.081
Mof_C 	C 	0.1754	0.6079	0.1857	-0.854
Mof_H 	H 	0.1914	0.5841	0.1719	0.225
Mof_H 	H 	0.1515	0.5959	0.2031	0.214
Mof_H 	H 	0.195	0.6244	0.2045	0.237
Mof_C 	C 	0.1222	0.6897	0.1687	-0.846
Mof_H 	H 	0.1105	0.7087	0.146	0.216
Mof_H 	H 	0.1418	0.7064	0.1875	0.232
Mof_H 	H 	0.0983	0.6779	0.1861	0.219
Mof_Si	Si	0.15291	0.64424	0.14314	0.672
Mof_N 	N 	0.7721	0.1588	0.5822	-0.312
Mof_C 	C 	0.7692	0.1984	0.5636	0.096
Mof_H 	H 	0.7932	0.2091	0.5473	-0.057
Mof_C 	C 	0.7331	0.2232	0.5676	-0.216
Mof_H 	H 	0.732	0.2509	0.554	0.066
Mof_C 	C 	0.6978	0.2084	0.5915	0.139
Mof_H 	H 	0.6725	0.2259	0.5943	-0.069
Mof_C 	C 	0.6994	0.1678	0.6112	-0.332
Mof_C 	C 	0.7381	0.1446	0.6051	0.14
Mof_H 	H 	0.7403	0.1168	0.6182	-0.081
Mof_C 	C 	0.6754	0.1079	0.6857	-0.854
Mof_H 	H 	0.6914	0.0841	0.6719	0.225
Mof_H 	H 	0.6515	0.0959	0.7031	0.214
Mof_H 	H 	0.695	0.1244	0.7045	0.237
Mof_C 	C 	0.6222	0.1897	0.6687	-0.846
Mof_H 	H 	0.6105	0.2087	0.646	0.216
Mof_H 	H 	0.6418	0.2064	0.6875	0.232
Mof_H 	H 	0.5983	0.1779	0.6861	0.219
Mof_Si	Si	0.65291	0.14424	0.64314	0.672
Mof_N 	N 	0.9178	0.7721	0.8412	-0.312
Mof_C 	C 	0.9364	0.7692	0.8016	0.096
Mof_H 	H 	0.9527	0.7932	0.7909	-0.057
Mof_C 	C 	0.9324	0.7331	0.7768	-0.216
Mof_H 	H 	0.946	0.732	0.7491	0.066
Mof_C 	C 	0.9085	0.6978	0.7916	0.139
Mof_H 	H 	0.9057	0.6725	0.7741	-0.069
Mof_C 	C 	0.8888	0.6994	0.8322	-0.332
Mof_C 	C 	0.8949	0.7381	0.8554	0.14
Mof_H 	H 	0.8818	0.7403	0.8832	-0.081
Mof_C 	C 	0.8143	0.6754	0.8921	-0.854
Mof_H 	H 	0.8281	0.6914	0.9159	0.225
Mof_H 	H 	0.7969	0.6515	0.9041	0.214
Mof_H 	H 	0.7955	0.695	0.8756	0.237
Mof_C 	C 	0.8313	0.6222	0.8103	-0.846
Mof_H 	H 	0.854	0.6105	0.7913	0.216
Mof_H 	H 	0.8125	0.6418	0.7936	0.232
Mof_H 	H 	0.8139	0.5983	0.8221	0.219
Mof_Si	Si	0.85686	0.65291	0.85576	0.672
Mof_N 	N 	0.4178	0.2721	0.3412	-0.312
Mof_C 	C 	0.4364	0.2692	0.3016	0.096
Mof_H 	H 	0.4527	0.2932	0.2909	-0.057
Mof_C 	C 	0.4324	0.2331	0.2768	-0.216
Mof_H 	H 	0.446	0.232	0.2491	0.066
Mof_C 	C 	0.4085	0.1978	0.2916	0.139
Mof_H 	H 	0.4057	0.1725	0.2741	-0.069
Mof_C 	C 	0.3888	0.1994	0.3322	-0.332
Mof_C 	C 	0.3949	0.2381	0.3554	0.14
Mof_H 	H 	0.3818	0.2403	0.3832	-0.081
Mof_C 	C 	0.3143	0.1754	0.3921	-0.854
Mof_H 	H 	0.3281	0.1914	0.4159	0.225
Mof_H 	H 	0.2969	0.1515	0.4041	0.214
Mof_H 	H 	0.2955	0.195	0.3756	0.237
Mof_C 	C 	0.3313	0.1222	0.3103	-0.846
Mof_H 	H 	0.354	0.1105	0.2913	0.216
Mof_H 	H 	0.3125	0.1418	0.2936	0.232
Mof_H 	H 	0.3139	0.0983	0.3221	0.219
Mof_Si	Si	0.35686	0.15291	0.35576	0.672
Mof_N 	N 	0.4178	0.7279	0.1588	-0.312
Mof_C 	C 	0.4364	0.7308	0.1984	0.096
Mof_H 	H 	0.4527	0.7068	0.2091	-0.057
Mof_C 	C 	0.4324	0.7669	0.2232	-0.216
Mof_H 	H 	0.446	0.768	0.2509	0.066
Mof_C 	C 	0.4085	0.8022	0.2084	0.139
Mof_H 	H 	0.4057	0.8275	0.2259	-0.069
Mof_C 	C 	0.3888	0.8006	0.1678	-0.332
Mof_C 	C 	0.3949	0.7619	0.1446	0.14
Mof_H 	H 	0.3818	0.7597	0.1168	-0.081
Mof_C 	C 	0.3143	0.8246	0.1079	-0.854
Mof_H 	H 	0.3281	0.8086	0.0841	0.225
Mof_H 	H 	0.2969	0.8485	0.0959	0.214
Mof_H 	H 	0.2955	0.805	0.1244	0.237
Mof_C 	C 	0.3313	0.8778	0.1897	-0.846
Mof_H 	H 	0.354	0.8895	0.2087	0.216
Mof_H 	H 	0.3125	0.8582	0.2064	0.232
Mof_H 	H 	0.3139	0.9017	0.1779	0.219
Mof_Si	Si	0.35686	0.84709	0.14424	0.672
Mof_N 	N 	0.9178	0.2279	0.6588	-0.312
Mof_C 	C 	0.9364	0.2308	0.6984	0.096
Mof_H 	H 	0.9527	0.2068	0.7091	-0.057
Mof_C 	C 	0.9324	0.2669	0.7232	-0.216
Mof_H 	H 	0.946	0.268	0.7509	0.066
Mof_C 	C 	0.9085	0.3022	0.7084	0.139
Mof_H 	H 	0.9057	0.3275	0.7259	-0.069
Mof_C 	C 	0.8888	0.3006	0.6678	-0.332
Mof_C 	C 	0.8949	0.2619	0.6446	0.14
Mof_H 	H 	0.8818	0.2597	0.6168	-0.081
Mof_C 	C 	0.8143	0.3246	0.6079	-0.854
Mof_H 	H 	0.8281	0.3086	0.5841	0.225
Mof_H 	H 	0.7969	0.3485	0.5959	0.214
Mof_H 	H 	0.7955	0.305	0.6244	0.237
Mof_C 	C 	0.8313	0.3778	0.6897	-0.846
Mof_H 	H 	0.854	0.3895	0.7087	0.216
Mof_H 	H 	0.8125	0.3582	0.7064	0.232
Mof_H 	H 	0.8139	0.4017	0.6779	0.219
Mof_Si	Si	0.85686	0.34709	0.64424	0.672
Mof_N 	N 	0.5822	0.2279	0.3412	-0.312
Mof_C 	C 	0.5636	0.2308	0.3016	0.096
Mof_H 	H 	0.5473	0.2068	0.2909	-0.057
Mof_C 	C 	0.5676	0.2669	0.2768	-0.216
Mof_H 	H 	0.554	0.268	0.2491	0.066
Mof_C 	C 	0.5915	0.3022	0.2916	0.139
Mof_H 	H 	0.5943	0.3275	0.2741	-0.069
Mof_C 	C 	0.6112	0.3006	0.3322	-0.332
Mof_C 	C 	0.6051	0.2619	0.3554	0.14
Mof_H 	H 	0.6182	0.2597	0.3832	-0.081
Mof_C 	C 	0.6857	0.3246	0.3921	-0.854
Mof_H 	H 	0.6719	0.3086	0.4159	0.225
Mof_H 	H 	0.7031	0.3485	0.4041	0.214
Mof_H 	H 	0.7045	0.305	0.3756	0.237
Mof_C 	C 	0.6687	0.3778	0.3103	-0.846
Mof_H 	H 	0.646	0.3895	0.2913	0.216
Mof_H 	H 	0.6875	0.3582	0.2936	0.232
Mof_H 	H 	0.6861	0.4017	0.3221	0.219
Mof_Si	Si	0.64314	0.34709	0.35576	0.672
Mof_N 	N 	0.0822	0.7279	0.8412	-0.312
Mof_C 	C 	0.0636	0.7308	0.8016	0.096
Mof_H 	H 	0.0473	0.7068	0.7909	-0.057
Mof_C 	C 	0.0676	0.7669	0.7768	-0.216
Mof_H 	H 	0.054	0.768	0.7491	0.066
Mof_C 	C 	0.0915	0.8022	0.7916	0.139
Mof_H 	H 	0.0943	0.8275	0.7741	-0.069
Mof_C 	C 	0.1112	0.8006	0.8322	-0.332
Mof_C 	C 	0.1051	0.7619	0.8554	0.14
Mof_H 	H 	0.1182	0.7597	0.8832	-0.081
Mof_C 	C 	0.1857	0.8246	0.8921	-0.854
Mof_H 	H 	0.1719	0.8086	0.9159	0.225
Mof_H 	H 	0.2031	0.8485	0.9041	0.214
Mof_H 	H 	0.2045	0.805	0.8756	0.237
Mof_C 	C 	0.1687	0.8778	0.8103	-0.846
Mof_H 	H 	0.146	0.8895	0.7913	0.216
Mof_H 	H 	0.1875	0.8582	0.7936	0.232
Mof_H 	H 	0.1861	0.9017	0.8221	0.219
Mof_Si	Si	0.14314	0.84709	0.85576	0.672
Mof_N 	N 	0.0822	0.2721	0.6588	-0.312
Mof_C 	C 	0.0636	0.2692	0.6984	0.096
Mof_H 	H 	0.0473	0.2932	0.7091	-0.057
Mof_C 	C 	0.0676	0.2331	0.7232	-0.216
Mof_H 	H 	0.054	0.232	0.7509	0.066
Mof_C 	C 	0.0915	0.1978	0.7084	0.139
Mof_H 	H 	0.0943	0.1725	0.7259	-0.069
Mof_C 	C 	0.1112	0.1994	0.6678	-0.332
Mof_C 	C 	0.1051	0.2381	0.6446	0.14
Mof_H 	H 	0.1182	0.2403	0.6168	-0.081
Mof_C 	C 	0.1857	0.1754	0.6079	-0.854
Mof_H 	H 	0.1719	0.1914	0.5841	0.225
Mof_H 	H 	0.2031	0.1515	0.5959	0.214
Mof_H 	H 	0.2045	0.195	0.6244	0.237
Mof_C 	C 	0.1687	0.1222	0.6897	-0.846
Mof_H 	H 	0.146	0.1105	0.7087	0.216
Mof_H 	H 	0.1875	0.1418	0.7064	0.232
Mof_H 	H 	0.1861	0.0983	0.6779	0.219
Mof_Si	Si	0.14314	0.15291	0.64424	0.672
Mof_N 	N 	0.5822	0.7721	0.1588	-0.312
Mof_C 	C 	0.5636	0.7692	0.1984	0.096
Mof_H 	H 	0.5473	0.7932	0.2091	-0.057
Mof_C 	C 	0.5676	0.7331	0.2232	-0.216
Mof_H 	H 	0.554	0.732	0.2509	0.066
Mof_C 	C 	0.5915	0.6978	0.2084	0.139
Mof_H 	H 	0.5943	0.6725	0.2259	-0.069
Mof_C 	C 	0.6112	0.6994	0.1678	-0.332
Mof_C 	C 	0.6051	0.7381	0.1446	0.14
Mof_H 	H 	0.6182	0.7403	0.1168	-0.081
Mof_C 	C 	0.6857	0.6754	0.1079	-0.854
Mof_H 	H 	0.6719	0.6914	0.0841	0.225
Mof_H 	H 	0.7031	0.6515	0.0959	0.214
Mof_H 	H 	0.7045	0.695	0.1244	0.237
Mof_C 	C 	0.6687	0.6222	0.1897	-0.846
Mof_H 	H 	0.646	0.6105	0.2087	0.216
Mof_H 	H 	0.6875	0.6418	0.2064	0.232
Mof_H 	H 	0.6861	0.5983	0.1779	0.219
Mof_Si	Si	0.64314	0.65291	0.14424	0.672
Mof_N 	N 	0.8412	0.9178	0.7721	-0.312
Mof_C 	C 	0.8016	0.9364	0.7692	0.096
Mof_H 	H 	0.7909	0.9527	0.7932	-0.057
Mof_C 	C 	0.7768	0.9324	0.7331	-0.216
Mof_H 	H 	0.7491	0.946	0.732	0.066
Mof_C 	C 	0.7916	0.9085	0.6978	0.139
Mof_H 	H 	0.7741	0.9057	0.6725	-0.069
Mof_C 	C 	0.8322	0.8888	0.6994	-0.332
Mof_C 	C 	0.8554	0.8949	0.7381	0.14
Mof_H 	H 	0.8832	0.8818	0.7403	-0.081
Mof_C 	C 	0.8921	0.8143	0.6754	-0.854
Mof_H 	H 	0.9159	0.8281	0.6914	0.225
Mof_H 	H 	0.9041	0.7969	0.6515	0.214
Mof_H 	H 	0.8756	0.7955	0.695	0.237
Mof_C 	C 	0.8103	0.8313	0.6222	-0.846
Mof_H 	H 	0.7913	0.854	0.6105	0.216
Mof_H 	H 	0.7936	0.8125	0.6418	0.232
Mof_H 	H 	0.8221	0.8139	0.5983	0.219
Mof_Si	Si	0.85576	0.85686	0.65291	0.672
Mof_N 	N 	0.3412	0.4178	0.2721	-0.312
Mof_C 	C 	0.3016	0.4364	0.2692	0.096
Mof_H 	H 	0.2909	0.4527	0.2932	-0.057
Mof_C 	C 	0.2768	0.4324	0.2331	-0.216
Mof_H 	H 	0.2491	0.446	0.232	0.066
Mof_C 	C 	0.2916	0.4085	0.1978	0.139
Mof_H 	H 	0.2741	0.4057	0.1725	-0.069
Mof_C 	C 	0.3322	0.3888	0.1994	-0.332
Mof_C 	C 	0.3554	0.3949	0.2381	0.14
Mof_H 	H 	0.3832	0.3818	0.2403	-0.081
Mof_C 	C 	0.3921	0.3143	0.1754	-0.854
Mof_H 	H 	0.4159	0.3281	0.1914	0.225
Mof_H 	H 	0.4041	0.2969	0.1515	0.214
Mof_H 	H 	0.3756	0.2955	0.195	0.237
Mof_C 	C 	0.3103	0.3313	0.1222	-0.846
Mof_H 	H 	0.2913	0.354	0.1105	0.216
Mof_H 	H 	0.2936	0.3125	0.1418	0.232
Mof_H 	H 	0.3221	0.3139	0.0983	0.219
Mof_Si	Si	0.35576	0.35686	0.15291	0.672
Mof_N 	N 	0.1588	0.4178	0.7279	-0.312
Mof_C 	C 	0.1984	0.4364	0.7308	0.096
Mof_H 	H 	0.2091	0.4527	0.7068	-0.057
Mof_C 	C 	0.2232	0.4324	0.7669	-0.216
Mof_H 	H 	0.2509	0.446	0.768	0.066
Mof_C 	C 	0.2084	0.4085	0.8022	0.139
Mof_H 	H 	0.2259	0.4057	0.8275	-0.069
Mof_C 	C 	0.1678	0.3888	0.8006	-0.332
Mof_C 	C 	0.1446	0.3949	0.7619	0.14
Mof_H 	H 	0.1168	0.3818	0.7597	-0.081
Mof_C 	C 	0.1079	0.3143	0.8246	-0.854
Mof_H 	H 	0.0841	0.3281	0.8086	0.225
Mof_H 	H 	0.0959	0.2969	0.8485	0.214
Mof_H 	H 	0.1244	0.2955	0.805	0.237
Mof_C 	C 	0.1897	0.3313	0.8778	-0.846
Mof_H 	H 	0.2087	0.354	0.8895	0.216
Mof_H 	H 	0.2064	0.3125	0.8582	0.232
Mof_H 	H 	0.1779	0.3139	0.9017	0.219
Mof_Si	Si	0.14424	0.35686	0.84709	0.672
Mof_N 	N 	0.6588	0.9178	0.2279	-0.312
Mof_C 	C 	0.6984	0.9364	0.2308	0.096
Mof_H 	H 	0.7091	0.9527	0.2068	-0.057
Mof_C 	C 	0.7232	0.9324	0.2669	-0.216
Mof_H 	H 	0.7509	0.946	0.268	0.066
Mof_C 	C 	0.7084	0.9085	0.3022	0.139
Mof_H 	H 	0.7259	0.9057	0.3275	-0.069
Mof_C 	C 	0.6678	0.8888	0.3006	-0.332
Mof_C 	C 	0.6446	0.8949	0.2619	0.14
Mof_H 	H 	0.6168	0.8818	0.2597	-0.081
Mof_C 	C 	0.6079	0.8143	0.3246	-0.854
Mof_H 	H 	0.5841	0.8281	0.3086	0.225
Mof_H 	H 	0.5959	0.7969	0.3485	0.214
Mof_H 	H 	0.6244	0.7955	0.305	0.237
Mof_C 	C 	0.6897	0.8313	0.3778	-0.846
Mof_H 	H 	0.7087	0.854	0.3895	0.216
Mof_H 	H 	0.7064	0.8125	0.3582	0.232
Mof_H 	H 	0.6779	0.8139	0.4017	0.219
Mof_Si	Si	0.64424	0.85686	0.34709	0.672
Mof_N 	N 	0.3412	0.5822	0.2279	-0.312
Mof_C 	C 	0.3016	0.5636	0.2308	0.096
Mof_H 	H 	0.2909	0.5473	0.2068	-0.057
Mof_C 	C 	0.2768	0.5676	0.2669	-0.216
Mof_H 	H 	0.2491	0.554	0.268	0.066
Mof_C 	C 	0.2916	0.5915	0.3022	0.139
Mof_H 	H 	0.2741	0.5943	0.3275	-0.069
Mof_C 	C 	0.3322	0.6112	0.3006	-0.332
Mof_C 	C 	0.3554	0.6051	0.2619	0.14
Mof_H 	H 	0.3832	0.6182	0.2597	-0.081
Mof_C 	C 	0.3921	0.6857	0.3246	-0.854
Mof_H 	H 	0.4159	0.6719	0.3086	0.225
Mof_H 	H 	0.4041	0.7031	0.3485	0.214
Mof_H 	H 	0.3756	0.7045	0.305	0.237
Mof_C 	C 	0.3103	0.6687	0.3778	-0.846
Mof_H 	H 	0.2913	0.646	0.3895	0.216
Mof_H 	H 	0.2936	0.6875	0.3582	0.232
Mof_H 	H 	0.3221	0.6861	0.4017	0.219
Mof_Si	Si	0.35576	0.64314	0.34709	0.672
Mof_N 	N 	0.8412	0.0822	0.7279	-0.312
Mof_C 	C 	0.8016	0.0636	0.7308	0.096
Mof_H 	H 	0.7909	0.0473	0.7068	-0.057
Mof_C 	C 	0.7768	0.0676	0.7669	-0.216
Mof_H 	H 	0.7491	0.054	0.768	0.066
Mof_C 	C 	0.7916	0.0915	0.8022	0.139
Mof_H 	H 	0.7741	0.0943	0.8275	-0.069
Mof_C 	C 	0.8322	0.1112	0.8006	-0.332
Mof_C 	C 	0.8554	0.1051	0.7619	0.14
Mof_H 	H 	0.8832	0.1182	0.7597	-0.081
Mof_C 	C 	0.8921	0.1857	0.8246	-0.854
Mof_H 	H 	0.9159	0.1719	0.8086	0.225
Mof_H 	H 	0.9041	0.2031	0.8485	0.214
Mof_H 	H 	0.8756	0.2045	0.805	0.237
Mof_C 	C 	0.8103	0.1687	0.8778	-0.846
Mof_H 	H 	0.7913	0.146	0.8895	0.216
Mof_H 	H 	0.7936	0.1875	0.8582	0.232
Mof_H 	H 	0.8221	0.1861	0.9017	0.219
Mof_Si	Si	0.85576	0.14314	0.84709	0.672
Mof_N 	N 	0.6588	0.0822	0.2721	-0.312
Mof_C 	C 	0.6984	0.0636	0.2692	0.096
Mof_H 	H 	0.7091	0.0473	0.2932	-0.057
Mof_C 	C 	0.7232	0.0676	0.2331	-0.216
Mof_H 	H 	0.7509	0.054	0.232	0.066
Mof_C 	C 	0.7084	0.0915	0.1978	0.139
Mof_H 	H 	0.7259	0.0943	0.1725	-0.069
Mof_C 	C 	0.6678	0.1112	0.1994	-0.332
Mof_C 	C 	0.6446	0.1051	0.2381	0.14
Mof_H 	H 	0.6168	0.1182	0.2403	-0.081
Mof_C 	C 	0.6079	0.1857	0.1754	-0.854
Mof_H 	H 	0.5841	0.1719	0.1914	0.225
Mof_H 	H 	0.5959	0.2031	0.1515	0.214
Mof_H 	H 	0.6244	0.2045	0.195	0.237
Mof_C 	C 	0.6897	0.1687	0.1222	-0.846
Mof_H 	H 	0.7087	0.146	0.1105	0.216
Mof_H 	H 	0.7064	0.1875	0.1418	0.232
Mof_H 	H 	0.6779	0.1861	0.0983	0.219
Mof_Si	Si	0.64424	0.14314	0.15291	0.672
Mof_N 	N 	0.1588	0.5822	0.7721	-0.312
Mof_C 	C 	0.1984	0.5636	0.7692	0.096
Mof_H 	H 	0.2091	0.5473	0.7932	-0.057
Mof_C 	C 	0.2232	0.5676	0.7331	-0.216
Mof_H 	H 	0.2509	0.554	0.732	0.066
Mof_C 	C 	0.2084	0.5915	0.6978	0.139
Mof_H 	H 	0.2259	0.5943	0.6725	-0.069
Mof_C 	C 	0.1678	0.6112	0.6994	-0.332
Mof_C 	C 	0.1446	0.6051	0.7381	0.14
Mof_H 	H 	0.1168	0.6182	0.7403	-0.081
Mof_C 	C 	0.1079	0.6857	0.6754	-0.854
Mof_H 	H 	0.0841	0.6719	0.6914	0.225
Mof_H 	H 	0.0959	0.7031	0.6515	0.214
Mof_H 	H 	0.1244	0.7045	0.695	0.237
Mof_C 	C 	0.1897	0.6687	0.6222	-0.846
Mof_H 	H 	0.2087	0.646	0.6105	0.216
Mof_H 	H 	0.2064	0.6875	0.6418	0.232
Mof_H 	H 	0.1779	0.6861	0.5983	0.219
Mof_Si	Si	0.14424	0.64314	0.65291	0.672
Mof_N 	N 	0.0912	0.5221	0.8322	-0.312
Mof_C 	C 	0.0516	0.5192	0.8136	0.096
Mof_H 	H 	0.0409	0.5432	0.7973	-0.057
Mof_C 	C 	0.0268	0.4831	0.8176	-0.216
Mof_H 	H 	0.9991	0.482	0.804	0.066
Mof_C 	C 	0.0416	0.4478	0.8415	0.139
Mof_H 	H 	0.0241	0.4225	0.8443	-0.069
Mof_C 	C 	0.0822	0.4494	0.8612	-0.332
Mof_C 	C 	0.1054	0.4881	0.8551	0.14
Mof_H 	H 	0.1332	0.4903	0.8682	-0.081
Mof_C 	C 	0.1421	0.4254	0.9357	-0.854
Mof_H 	H 	0.1659	0.4414	0.9219	0.225
Mof_H 	H 	0.1541	0.4015	0.9531	0.214
Mof_H 	H 	0.1256	0.445	0.9545	0.237
Mof_C 	C 	0.0603	0.3722	0.9187	-0.846
Mof_H 	H 	0.0413	0.3605	0.896	0.216
Mof_H 	H 	0.0436	0.3918	0.9375	0.231
Mof_H 	H 	0.0721	0.3483	0.9361	0.219
Mof_Si	Si	0.10576	0.40291	0.89314	0.672
Mof_N 	N 	0.5912	0.0221	0.3322	-0.312
Mof_C 	C 	0.5516	0.0192	0.3136	0.096
Mof_H 	H 	0.5409	0.0432	0.2973	-0.057
Mof_C 	C 	0.5268	0.9831	0.3176	-0.216
Mof_H 	H 	0.4991	0.982	0.304	0.066
Mof_C 	C 	0.5416	0.9478	0.3415	0.139
Mof_H 	H 	0.5241	0.9225	0.3443	-0.069
Mof_C 	C 	0.5822	0.9494	0.3612	-0.332
Mof_C 	C 	0.6054	0.9881	0.3551	0.14
Mof_H 	H 	0.6332	0.9903	0.3682	-0.081
Mof_C 	C 	0.6421	0.9254	0.4357	-0.854
Mof_H 	H 	0.6659	0.9414	0.4219	0.225
Mof_H 	H 	0.6541	0.9015	0.4531	0.214
Mof_H 	H 	0.6256	0.945	0.4545	0.237
Mof_C 	C 	0.5603	0.8722	0.4187	-0.846
Mof_H 	H 	0.5413	0.8605	0.396	0.216
Mof_H 	H 	0.5436	0.8918	0.4375	0.232
Mof_H 	H 	0.5721	0.8483	0.4361	0.219
Mof_Si	Si	0.60576	0.90291	0.39314	0.672
Mof_N 	N 	0.4088	0.4779	0.3322	-0.312
Mof_C 	C 	0.4484	0.4808	0.3136	0.096
Mof_H 	H 	0.4591	0.4568	0.2973	-0.057
Mof_C 	C 	0.4732	0.5169	0.3176	-0.216
Mof_H 	H 	0.5009	0.518	0.304	0.066
Mof_C 	C 	0.4584	0.5522	0.3415	0.139
Mof_H 	H 	0.4759	0.5775	0.3443	-0.069
Mof_C 	C 	0.4178	0.5506	0.3612	-0.332
Mof_C 	C 	0.3946	0.5119	0.3551	0.14
Mof_H 	H 	0.3668	0.5097	0.3682	-0.081
Mof_C 	C 	0.3579	0.5746	0.4357	-0.854
Mof_H 	H 	0.3341	0.5586	0.4219	0.225
Mof_H 	H 	0.3459	0.5985	0.4531	0.214
Mof_H 	H 	0.3744	0.555	0.4545	0.237
Mof_C 	C 	0.4397	0.6278	0.4187	-0.846
Mof_H 	H 	0.4587	0.6395	0.396	0.216
Mof_H 	H 	0.4564	0.6082	0.4375	0.232
Mof_H 	H 	0.4279	0.6517	0.4361	0.219
Mof_Si	Si	0.39424	0.59709	0.39314	0.672
Mof_N 	N 	0.9088	0.9779	0.8322	-0.312
Mof_C 	C 	0.9484	0.9808	0.8136	0.096
Mof_H 	H 	0.9591	0.9568	0.7973	-0.057
Mof_C 	C 	0.9732	0.0169	0.8176	-0.216
Mof_H 	H 	0.0009	0.018	0.804	0.066
Mof_C 	C 	0.9584	0.0522	0.8415	0.139
Mof_H 	H 	0.9759	0.0775	0.8443	-0.069
Mof_C 	C 	0.9178	0.0506	0.8612	-0.332
Mof_C 	C 	0.8946	0.0119	0.8551	0.14
Mof_H 	H 	0.8668	0.0097	0.8682	-0.081
Mof_C 	C 	0.8579	0.0746	0.9357	-0.854
Mof_H 	H 	0.8341	0.0586	0.9219	0.225
Mof_H 	H 	0.8459	0.0985	0.9531	0.214
Mof_H 	H 	0.8744	0.055	0.9545	0.237
Mof_C 	C 	0.9397	0.1278	0.9187	-0.846
Mof_H 	H 	0.9587	0.1395	0.896	0.216
Mof_H 	H 	0.9564	0.1082	0.9375	0.231
Mof_H 	H 	0.9279	0.1517	0.9361	0.219
Mof_Si	Si	0.89424	0.09709	0.89314	0.672
Mof_N 	N 	0.5912	0.9779	0.1678	-0.312
Mof_C 	C 	0.5516	0.9808	0.1864	0.096
Mof_H 	H 	0.5409	0.9568	0.2027	-0.057
Mof_C 	C 	0.5268	0.0169	0.1824	-0.216
Mof_H 	H 	0.4991	0.018	0.196	0.066
Mof_C 	C 	0.5416	0.0522	0.1585	0.139
Mof_H 	H 	0.5241	0.0775	0.1557	-0.069
Mof_C 	C 	0.5822	0.0506	0.1388	-0.332
Mof_C 	C 	0.6054	0.0119	0.1449	0.14
Mof_H 	H 	0.6332	0.0097	0.1318	-0.081
Mof_C 	C 	0.6421	0.0746	0.0643	-0.854
Mof_H 	H 	0.6659	0.0586	0.0781	0.225
Mof_H 	H 	0.6541	0.0985	0.0469	0.214
Mof_H 	H 	0.6256	0.055	0.0455	0.237
Mof_C 	C 	0.5603	0.1278	0.0813	-0.846
Mof_H 	H 	0.5413	0.1395	0.104	0.216
Mof_H 	H 	0.5436	0.1082	0.0625	0.232
Mof_H 	H 	0.5721	0.1517	0.0639	0.219
Mof_Si	Si	0.60576	0.09709	0.10686	0.672
Mof_N 	N 	0.0912	0.4779	0.6678	-0.312
Mof_C 	C 	0.0516	0.4808	0.6864	0.096
Mof_H 	H 	0.0409	0.4568	0.7027	-0.057
Mof_C 	C 	0.0268	0.5169	0.6824	-0.216
Mof_H 	H 	0.9991	0.518	0.696	0.066
Mof_C 	C 	0.0416	0.5522	0.6585	0.139
Mof_H 	H 	0.0241	0.5775	0.6557	-0.069
Mof_C 	C 	0.0822	0.5506	0.6388	-0.332
Mof_C 	C 	0.1054	0.5119	0.6449	0.14
Mof_H 	H 	0.1332	0.5097	0.6318	-0.081
Mof_C 	C 	0.1421	0.5746	0.5643	-0.854
Mof_H 	H 	0.1659	0.5586	0.5781	0.225
Mof_H 	H 	0.1541	0.5985	0.5469	0.214
Mof_H 	H 	0.1256	0.555	0.5455	0.237
Mof_C 	C 	0.0603	0.6278	0.5813	-0.846
Mof_H 	H 	0.0413	0.6395	0.604	0.216
Mof_H 	H 	0.0436	0.6082	0.5625	0.232
Mof_H 	H 	0.0721	0.6517	0.5639	0.219
Mof_Si	Si	0.10576	0.59709	0.60686	0.672
Mof_N 	N 	0.9088	0.0221	0.6678	-0.312
Mof_C 	C 	0.9484	0.0192	0.6864	0.096
Mof_H 	H 	0.9591	0.0432	0.7027	-0.057
Mof_C 	C 	0.9732	0.9831	0.6824	-0.216
Mof_H 	H 	0.0009	0.982	0.696	0.066
Mof_C 	C 	0.9584	0.9478	0.6585	0.139
Mof_H 	H 	0.9759	0.9225	0.6557	-0.069
Mof_C 	C 	0.9178	0.9494	0.6388	-0.332
Mof_C 	C 	0.8946	0.9881	0.6449	0.14
Mof_H 	H 	0.8668	0.9903	0.6318	-0.081
Mof_C 	C 	0.8579	0.9254	0.5643	-0.854
Mof_H 	H 	0.8341	0.9414	0.5781	0.225
Mof_H 	H 	0.8459	0.9015	0.5469	0.214
Mof_H 	H 	0.8744	0.945	0.5455	0.237
Mof_C 	C 	0.9397	0.8722	0.5813	-0.846
Mof_H 	H 	0.9587	0.8605	0.604	0.216
Mof_H 	H 	0.9564	0.8918	0.5625	0.232
Mof_H 	H 	0.9279	0.8483	0.5639	0.219
Mof_Si	Si	0.89424	0.90291	0.60686	0.672
Mof_N 	N 	0.4088	0.5221	0.1678	-0.312
Mof_C 	C 	0.4484	0.5192	0.1864	0.096
Mof_H 	H 	0.4591	0.5432	0.2027	-0.057
Mof_C 	C 	0.4732	0.4831	0.1824	-0.216
Mof_H 	H 	0.5009	0.482	0.196	0.066
Mof_C 	C 	0.4584	0.4478	0.1585	0.139
Mof_H 	H 	0.4759	0.4225	0.1557	-0.069
Mof_C 	C 	0.4178	0.4494	0.1388	-0.332
Mof_C 	C 	0.3946	0.4881	0.1449	0.14
Mof_H 	H 	0.3668	0.4903	0.1318	-0.081
Mof_C 	C 	0.3579	0.4254	0.0643	-0.854
Mof_H 	H 	0.3341	0.4414	0.0781	0.225
Mof_H 	H 	0.3459	0.4015	0.0469	0.214
Mof_H 	H 	0.3744	0.445	0.0455	0.237
Mof_C 	C 	0.4397	0.3722	0.0813	-0.846
Mof_H 	H 	0.4587	0.3605	0.104	0.216
Mof_H 	H 	0.4564	0.3918	0.0625	0.232
Mof_H 	H 	0.4279	0.3483	0.0639	0.219
Mof_Si	Si	0.39424	0.40291	0.10686	0.672
Mof_N 	N 	0.0221	0.6678	0.9088	-0.312
Mof_C 	C 	0.0192	0.6864	0.9484	0.096
Mof_H 	H 	0.0432	0.7027	0.9591	-0.057
Mof_C 	C 	0.9831	0.6824	0.9732	-0.216
Mof_H 	H 	0.982	0.696	0.0009	0.066
Mof_C 	C 	0.9478	0.6585	0.9584	0.139
Mof_H 	H 	0.9225	0.6557	0.9759	-0.069
Mof_C 	C 	0.9494	0.6388	0.9178	-0.332
Mof_C 	C 	0.9881	0.6449	0.8946	0.14
Mof_H 	H 	0.9903	0.6318	0.8668	-0.081
Mof_C 	C 	0.9254	0.5643	0.8579	-0.854
Mof_H 	H 	0.9414	0.5781	0.8341	0.225
Mof_H 	H 	0.9015	0.5469	0.8459	0.214
Mof_H 	H 	0.945	0.5455	0.8744	0.237
Mof_C 	C 	0.8722	0.5813	0.9397	-0.846
Mof_H 	H 	0.8605	0.604	0.9587	0.216
Mof_H 	H 	0.8918	0.5625	0.9564	0.232
Mof_H 	H 	0.8483	0.5639	0.9279	0.219
Mof_Si	Si	0.90291	0.60686	0.89424	0.672
Mof_N 	N 	0.5221	0.1678	0.4088	-0.312
Mof_C 	C 	0.5192	0.1864	0.4484	0.096
Mof_H 	H 	0.5432	0.2027	0.4591	-0.057
Mof_C 	C 	0.4831	0.1824	0.4732	-0.216
Mof_H 	H 	0.482	0.196	0.5009	0.066
Mof_C 	C 	0.4478	0.1585	0.4584	0.139
Mof_H 	H 	0.4225	0.1557	0.4759	-0.069
Mof_C 	C 	0.4494	0.1388	0.4178	-0.332
Mof_C 	C 	0.4881	0.1449	0.3946	0.14
Mof_H 	H 	0.4903	0.1318	0.3668	-0.081
Mof_C 	C 	0.4254	0.0643	0.3579	-0.854
Mof_H 	H 	0.4414	0.0781	0.3341	0.225
Mof_H 	H 	0.4015	0.0469	0.3459	0.214
Mof_H 	H 	0.445	0.0455	0.3744	0.237
Mof_C 	C 	0.3722	0.0813	0.4397	-0.846
Mof_H 	H 	0.3605	0.104	0.4587	0.216
Mof_H 	H 	0.3918	0.0625	0.4564	0.232
Mof_H 	H 	0.3483	0.0639	0.4279	0.219
Mof_Si	Si	0.40291	0.10686	0.39424	0.672
Mof_N 	N 	0.9779	0.1678	0.5912	-0.312
Mof_C 	C 	0.9808	0.1864	0.5516	0.096
Mof_H 	H 	0.9568	0.2027	0.5409	-0.057
Mof_C 	C 	0.0169	0.1824	0.5268	-0.216
Mof_H 	H 	0.018	0.196	0.4991	0.066
Mof_C 	C 	0.0522	0.1585	0.5416	0.139
Mof_H 	H 	0.0775	0.1557	0.5241	-0.069
Mof_C 	C 	0.0506	0.1388	0.5822	-0.332
Mof_C 	C 	0.0119	0.1449	0.6054	0.14
Mof_H 	H 	0.0097	0.1318	0.6332	-0.081
Mof_C 	C 	0.0746	0.0643	0.6421	-0.854
Mof_H 	H 	0.0586	0.0781	0.6659	0.225
Mof_H 	H 	0.0985	0.0469	0.6541	0.214
Mof_H 	H 	0.055	0.0455	0.6256	0.237
Mof_C 	C 	0.1278	0.0813	0.5603	-0.846
Mof_H 	H 	0.1395	0.104	0.5413	0.216
Mof_H 	H 	0.1082	0.0625	0.5436	0.232
Mof_H 	H 	0.1517	0.0639	0.5721	0.219
Mof_Si	Si	0.09709	0.10686	0.60576	0.672
Mof_N 	N 	0.4779	0.6678	0.0912	-0.312
Mof_C 	C 	0.4808	0.6864	0.0516	0.096
Mof_H 	H 	0.4568	0.7027	0.0409	-0.057
Mof_C 	C 	0.5169	0.6824	0.0268	-0.216
Mof_H 	H 	0.518	0.696	0.9991	0.066
Mof_C 	C 	0.5522	0.6585	0.0416	0.139
Mof_H 	H 	0.5775	0.6557	0.0241	-0.069
Mof_C 	C 	0.5506	0.6388	0.0822	-0.332
Mof_C 	C 	0.5119	0.6449	0.1054	0.14
Mof_H 	H 	0.5097	0.6318	0.1332	-0.081
Mof_C 	C 	0.5746	0.5643	0.1421	-0.854
Mof_H 	H 	0.5586	0.5781	0.1659	0.225
Mof_H 	H 	0.5985	0.5469	0.1541	0.214
Mof_H 	H 	0.555	0.5455	0.1256	0.237
Mof_C 	C 	0.6278	0.5813	0.0603	-0.846
Mof_H 	H 	0.6395	0.604	0.0413	0.216
Mof_H 	H 	0.6082	0.5625	0.0436	0.232
Mof_H 	H 	0.6517	0.5639	0.0721	0.219
Mof_Si	Si	0.59709	0.60686	0.10576	0.672
Mof_N 	N 	0.4779	0.3322	0.4088	-0.312
Mof_C 	C 	0.4808	0.3136	0.4484	0.096
Mof_H 	H 	0.4568	0.2973	0.4591	-0.057
Mof_C 	C 	0.5169	0.3176	0.4732	-0.216
Mof_H 	H 	0.518	0.304	0.5009	0.066
Mof_C 	C 	0.5522	0.3415	0.4584	0.139
Mof_H 	H 	0.5775	0.3443	0.4759	-0.069
Mof_C 	C 	0.5506	0.3612	0.4178	-0.332
Mof_C 	C 	0.5119	0.3551	0.3946	0.14
Mof_H 	H 	0.5097	0.3682	0.3668	-0.081
Mof_C 	C 	0.5746	0.4357	0.3579	-0.854
Mof_H 	H 	0.5586	0.4219	0.3341	0.225
Mof_H 	H 	0.5985	0.4531	0.3459	0.214
Mof_H 	H 	0.555	0.4545	0.3744	0.237
Mof_C 	C 	0.6278	0.4187	0.4397	-0.846
Mof_H 	H 	0.6395	0.396	0.4587	0.216
Mof_H 	H 	0.6082	0.4375	0.4564	0.232
Mof_H 	H 	0.6517	0.4361	0.4279	0.219
Mof_Si	Si	0.59709	0.39314	0.39424	0.672
Mof_N 	N 	0.9779	0.8322	0.9088	-0.312
Mof_C 	C 	0.9808	0.8136	0.9484	0.096
Mof_H 	H 	0.9568	0.7973	0.9591	-0.057
Mof_C 	C 	0.0169	0.8176	0.9732	-0.216
Mof_H 	H 	0.018	0.804	0.0009	0.066
Mof_C 	C 	0.0522	0.8415	0.9584	0.139
Mof_H 	H 	0.0775	0.8443	0.9759	-0.069
Mof_C 	C 	0.0506	0.8612	0.9178	-0.332
Mof_C 	C 	0.0119	0.8551	0.8946	0.14
Mof_H 	H 	0.0097	0.8682	0.8668	-0.081
Mof_C 	C 	0.0746	0.9357	0.8579	-0.854
Mof_H 	H 	0.0586	0.9219	0.8341	0.225
Mof_H 	H 	0.0985	0.9531	0.8459	0.214
Mof_H 	H 	0.055	0.9545	0.8744	0.237
Mof_C 	C 	0.1278	0.9187	0.9397	-0.846
Mof_H 	H 	0.1395	0.896	0.9587	0.216
Mof_H 	H 	0.1082	0.9375	0.9564	0.231
Mof_H 	H 	0.1517	0.9361	0.9279	0.219
Mof_Si	Si	0.09709	0.89314	0.89424	0.672
Mof_N 	N 	0.5221	0.8322	0.0912	-0.312
Mof_C 	C 	0.5192	0.8136	0.0516	0.096
Mof_H 	H 	0.5432	0.7973	0.0409	-0.057
Mof_C 	C 	0.4831	0.8176	0.0268	-0.216
Mof_H 	H 	0.482	0.804	0.9991	0.066
Mof_C 	C 	0.4478	0.8415	0.0416	0.139
Mof_H 	H 	0.4225	0.8443	0.0241	-0.069
Mof_C 	C 	0.4494	0.8612	0.0822	-0.332
Mof_C 	C 	0.4881	0.8551	0.1054	0.14
Mof_H 	H 	0.4903	0.8682	0.1332	-0.081
Mof_C 	C 	0.4254	0.9357	0.1421	-0.854
Mof_H 	H 	0.4414	0.9219	0.1659	0.225
Mof_H 	H 	0.4015	0.9531	0.1541	0.214
Mof_H 	H 	0.445	0.9545	0.1256	0.237
Mof_C 	C 	0.3722	0.9187	0.0603	-0.846
Mof_H 	H 	0.3605	0.896	0.0413	0.216
Mof_H 	H 	0.3918	0.9375	0.0436	0.231
Mof_H 	H 	0.3483	0.9361	0.0721	0.219
Mof_Si	Si	0.40291	0.89314	0.10576	0.672
Mof_N 	N 	0.0221	0.3322	0.5912	-0.312
Mof_C 	C 	0.0192	0.3136	0.5516	0.096
Mof_H 	H 	0.0432	0.2973	0.5409	-0.057
Mof_C 	C 	0.9831	0.3176	0.5268	-0.216
Mof_H 	H 	0.982	0.304	0.4991	0.066
Mof_C 	C 	0.9478	0.3415	0.5416	0.139
Mof_H 	H 	0.9225	0.3443	0.5241	-0.069
Mof_C 	C 	0.9494	0.3612	0.5822	-0.332
Mof_C 	C 	0.9881	0.3551	0.6054	0.14
Mof_H 	H 	0.9903	0.3682	0.6332	-0.081
Mof_C 	C 	0.9254	0.4357	0.6421	-0.854
Mof_H 	H 	0.9414	0.4219	0.6659	0.225
Mof_H 	H 	0.9015	0.4531	0.6541	0.214
Mof_H 	H 	0.945	0.4545	0.6256	0.237
Mof_C 	C 	0.8722	0.4187	0.5603	-0.846
Mof_H 	H 	0.8605	0.396	0.5413	0.216
Mof_H 	H 	0.8918	0.4375	0.5436	0.232
Mof_H 	H 	0.8483	0.4361	0.5721	0.219
Mof_Si	Si	0.90291	0.39314	0.60576	0.672
Mof_N 	N 	0.1678	0.5912	0.9779	-0.312
Mof_C 	C 	0.1864	0.5516	0.9808	0.096
Mof_H 	H 	0.2027	0.5409	0.9568	-0.057
Mof_C 	C 	0.1824	0.5268	0.0169	-0.216
Mof_H 	H 	0.196	0.4991	0.018	0.066
Mof_C 	C 	0.1585	0.5416	0.0522	0.139
Mof_H 	H 	0.1557	0.5241	0.0775	-0.069
Mof_C 	C 	0.1388	0.5822	0.0506	-0.332
Mof_C 	C 	0.1449	0.6054	0.0119	0.14
Mof_H 	H 	0.1318	0.6332	0.0097	-0.081
Mof_C 	C 	0.0643	0.6421	0.0746	-0.854
Mof_H 	H 	0.0781	0.6659	0.0586	0.225
Mof_H 	H 	0.0469	0.6541	0.0985	0.214
Mof_H 	H 	0.0455	0.6256	0.055	0.237
Mof_C 	C 	0.0813	0.5603	0.1278	-0.846
Mof_H 	H 	0.104	0.5413	0.1395	0.216
Mof_H 	H 	0.0625	0.5436	0.1082	0.232
Mof_H 	H 	0.0639	0.5721	0.1517	0.219
Mof_Si	Si	0.10686	0.60576	0.09709	0.672
Mof_N 	N 	0.6678	0.0912	0.4779	-0.312
Mof_C 	C 	0.6864	0.0516	0.4808	0.096
Mof_H 	H 	0.7027	0.0409	0.4568	-0.057
Mof_C 	C 	0.6824	0.0268	0.5169	-0.216
Mof_H 	H 	0.696	0.9991	0.518	0.066
Mof_C 	C 	0.6585	0.0416	0.5522	0.139
Mof_H 	H 	0.6557	0.0241	0.5775	-0.069
Mof_C 	C 	0.6388	0.0822	0.5506	-0.332
Mof_C 	C 	0.6449	0.1054	0.5119	0.14
Mof_H 	H 	0.6318	0.1332	0.5097	-0.081
Mof_C 	C 	0.5643	0.1421	0.5746	-0.854
Mof_H 	H 	0.5781	0.1659	0.5586	0.225
Mof_H 	H 	0.5469	0.1541	0.5985	0.214
Mof_H 	H 	0.5455	0.1256	0.555	0.237
Mof_C 	C 	0.5813	0.0603	0.6278	-0.846
Mof_H 	H 	0.604	0.0413	0.6395	0.216
Mof_H 	H 	0.5625	0.0436	0.6082	0.232
Mof_H 	H 	0.5639	0.0721	0.6517	0.219
Mof_Si	Si	0.60686	0.10576	0.59709	0.672
Mof_N 	N 	0.6678	0.9088	0.0221	-0.312
Mof_C 	C 	0.6864	0.9484	0.0192	0.096
Mof_H 	H 	0.7027	0.9591	0.0432	-0.057
Mof_C 	C 	0.6824	0.9732	0.9831	-0.216
Mof_H 	H 	0.696	0.0009	0.982	0.066
Mof_C 	C 	0.6585	0.9584	0.9478	0.139
Mof_H 	H 	0.6557	0.9759	0.9225	-0.069
Mof_C 	C 	0.6388	0.9178	0.9494	-0.332
Mof_C 	C 	0.6449	0.8946	0.9881	0.14
Mof_H 	H 	0.6318	0.8668	0.9903	-0.081
Mof_C 	C 	0.5643	0.8579	0.9254	-0.854
Mof_H 	H 	0.5781	0.8341	0.9414	0.225
Mof_H 	H 	0.5469	0.8459	0.9015	0.214
Mof_H 	H 	0.5455	0.8744	0.945	0.237
Mof_C 	C 	0.5813	0.9397	0.8722	-0.846
Mof_H 	H 	0.604	0.9587	0.8605	0.216
Mof_H 	H 	0.5625	0.9564	0.8918	0.232
Mof_H 	H 	0.5639	0.9279	0.8483	0.219
Mof_Si	Si	0.60686	0.89424	0.90291	0.672
Mof_N 	N 	0.1678	0.4088	0.5221	-0.312
Mof_C 	C 	0.1864	0.4484	0.5192	0.096
Mof_H 	H 	0.2027	0.4591	0.5432	-0.057
Mof_C 	C 	0.1824	0.4732	0.4831	-0.216
Mof_H 	H 	0.196	0.5009	0.482	0.066
Mof_C 	C 	0.1585	0.4584	0.4478	0.139
Mof_H 	H 	0.1557	0.4759	0.4225	-0.069
Mof_C 	C 	0.1388	0.4178	0.4494	-0.332
Mof_C 	C 	0.1449	0.3946	0.4881	0.14
Mof_H 	H 	0.1318	0.3668	0.4903	-0.081
Mof_C 	C 	0.0643	0.3579	0.4254	-0.854
Mof_H 	H 	0.0781	0.3341	0.4414	0.225
Mof_H 	H 	0.0469	0.3459	0.4015	0.214
Mof_H 	H 	0.0455	0.3744	0.445	0.237
Mof_C 	C 	0.0813	0.4397	0.3722	-0.846
Mof_H 	H 	0.104	0.4587	0.3605	0.216
Mof_H 	H 	0.0625	0.4564	0.3918	0.232
Mof_H 	H 	0.0639	0.4279	0.3483	0.219
Mof_Si	Si	0.10686	0.39424	0.40291	0.672
Mof_N 	N 	0.8322	0.0912	0.5221	-0.312
Mof_C 	C 	0.8136	0.0516	0.5192	0.096
Mof_H 	H 	0.7973	0.0409	0.5432	-0.057
Mof_C 	C 	0.8176	0.0268	0.4831	-0.216
Mof_H 	H 	0.804	0.9991	0.482	0.066
Mof_C 	C 	0.8415	0.0416	0.4478	0.139
Mof_H 	H 	0.8443	0.0241	0.4225	-0.069
Mof_C 	C 	0.8612	0.0822	0.4494	-0.332
Mof_C 	C 	0.8551	0.1054	0.4881	0.14
Mof_H 	H 	0.8682	0.1332	0.4903	-0.081
Mof_C 	C 	0.9357	0.1421	0.4254	-0.854
Mof_H 	H 	0.9219	0.1659	0.4414	0.225
Mof_H 	H 	0.9531	0.1541	0.4015	0.214
Mof_H 	H 	0.9545	0.1256	0.445	0.237
Mof_C 	C 	0.9187	0.0603	0.3722	-0.846
Mof_H 	H 	0.896	0.0413	0.3605	0.216
Mof_H 	H 	0.9375	0.0436	0.3918	0.231
Mof_H 	H 	0.9361	0.0721	0.3483	0.219
Mof_Si	Si	0.89314	0.10576	0.40291	0.672
Mof_N 	N 	0.3322	0.5912	0.0221	-0.312
Mof_C 	C 	0.3136	0.5516	0.0192	0.096
Mof_H 	H 	0.2973	0.5409	0.0432	-0.057
Mof_C 	C 	0.3176	0.5268	0.9831	-0.216
Mof_H 	H 	0.304	0.4991	0.982	0.066
Mof_C 	C 	0.3415	0.5416	0.9478	0.139
Mof_H 	H 	0.3443	0.5241	0.9225	-0.069
Mof_C 	C 	0.3612	0.5822	0.9494	-0.332
Mof_C 	C 	0.3551	0.6054	0.9881	0.14
Mof_H 	H 	0.3682	0.6332	0.9903	-0.081
Mof_C 	C 	0.4357	0.6421	0.9254	-0.854
Mof_H 	H 	0.4219	0.6659	0.9414	0.225
Mof_H 	H 	0.4531	0.6541	0.9015	0.214
Mof_H 	H 	0.4545	0.6256	0.945	0.237
Mof_C 	C 	0.4187	0.5603	0.8722	-0.846
Mof_H 	H 	0.396	0.5413	0.8605	0.216
Mof_H 	H 	0.4375	0.5436	0.8918	0.232
Mof_H 	H 	0.4361	0.5721	0.8483	0.219
Mof_Si	Si	0.39314	0.60576	0.90291	0.672
Mof_N 	N 	0.3322	0.4088	0.4779	-0.312
Mof_C 	C 	0.3136	0.4484	0.4808	0.096
Mof_H 	H 	0.2973	0.4591	0.4568	-0.057
Mof_C 	C 	0.3176	0.4732	0.5169	-0.216
Mof_H 	H 	0.304	0.5009	0.518	0.066
Mof_C 	C 	0.3415	0.4584	0.5522	0.139
Mof_H 	H 	0.3443	0.4759	0.5775	-0.069
Mof_C 	C 	0.3612	0.4178	0.5506	-0.332
Mof_C 	C 	0.3551	0.3946	0.5119	0.14
Mof_H 	H 	0.3682	0.3668	0.5097	-0.081
Mof_C 	C 	0.4357	0.3579	0.5746	-0.854
Mof_H 	H 	0.4219	0.3341	0.5586	0.225
Mof_H 	H 	0.4531	0.3459	0.5985	0.214
Mof_H 	H 	0.4545	0.3744	0.555	0.237
Mof_C 	C 	0.4187	0.4397	0.6278	-0.846
Mof_H 	H 	0.396	0.4587	0.6395	0.216
Mof_H 	H 	0.4375	0.4564	0.6082	0.232
Mof_H 	H 	0.4361	0.4279	0.6517	0.219
Mof_Si	Si	0.39314	0.39424	0.59709	0.672
Mof_N 	N 	0.8322	0.9088	0.9779	-0.312
Mof_C 	C 	0.8136	0.9484	0.9808	0.096
Mof_H 	H 	0.7973	0.9591	0.9568	-0.057
Mof_C 	C 	0.8176	0.9732	0.0169	-0.216
Mof_H 	H 	0.804	0.0009	0.018	0.066
Mof_C 	C 	0.8415	0.9584	0.0522	0.139
Mof_H 	H 	0.8443	0.9759	0.0775	-0.069
Mof_C 	C 	0.8612	0.9178	0.0506	-0.332
Mof_C 	C 	0.8551	0.8946	0.0119	0.14
Mof_H 	H 	0.8682	0.8668	0.0097	-0.081
Mof_C 	C 	0.9357	0.8579	0.0746	-0.854
Mof_H 	H 	0.9219	0.8341	0.0586	0.225
Mof_H 	H 	0.9531	0.8459	0.0985	0.214
Mof_H 	H 	0.9545	0.8744	0.055	0.237
Mof_C 	C 	0.9187	0.9397	0.1278	-0.846
Mof_H 	H 	0.896	0.9587	0.1395	0.216
Mof_H 	H 	0.9375	0.9564	0.1082	0.231
Mof_H 	H 	0.9361	0.9279	0.1517	0.219
Mof_Si	Si	0.89314	0.89424	0.09709	0.672
Mof_Zn	Zn	0.82854	0.875	0.92146	1.194
Mof_Zn	Zn	0.32854	0.375	0.42146	1.194
Mof_Zn	Zn	0.67146	0.125	0.42146	1.194
Mof_Zn	Zn	0.17146	0.375	0.57854	1.194
Mof_Zn	Zn	0.32854	0.625	0.07854	1.194
Mof_Zn	Zn	0.92146	0.82854	0.875	1.194
Mof_Zn	Zn	0.42146	0.32854	0.375	1.194
Mof_Zn	Zn	0.42146	0.67146	0.125	1.194
Mof_Zn	Zn	0.57854	0.17146	0.375	1.194
Mof_Zn	Zn	0.07854	0.32854	0.625	1.194
Mof_Zn	Zn	0.875	0.92146	0.82854	1.194
Mof_Zn	Zn	0.375	0.42146	0.32854	1.194
Mof_Zn	Zn	0.125	0.42146	0.67146	1.194
Mof_Zn	Zn	0.375	0.57854	0.17146	1.194
Mof_Zn	Zn	0.625	0.07854	0.32854	1.194
Mof_Zn	Zn	0.125	0.57854	0.82854	1.194
Mof_Zn	Zn	0.625	0.92146	0.17146	1.194
Mof_Zn	Zn	0.875	0.07854	0.67146	1.194
Mof_Zn	Zn	0.07854	0.67146	0.875	1.194
Mof_Zn	Zn	0.92146	0.17146	0.625	1.194
Mof_Zn	Zn	0.57854	0.82854	0.125	1.194
Mof_Zn	Zn	0.17146	0.625	0.92146	1.194
Mof_Zn	Zn	0.67146	0.875	0.07854	1.194
Mof_Zn	Zn	0.82854	0.125	0.57854	1.194
Mof_O 	O 	0.83336	0.91664	0.875	-0.75
Mof_H 	H 	0.8115	0.9385	0.875	0.176
Mof_O 	O 	0.33336	0.41664	0.375	-0.75
Mof_H 	H 	0.3115	0.4385	0.375	0.176
Mof_O 	O 	0.66664	0.08336	0.375	-0.75
Mof_H 	H 	0.6885	0.0615	0.375	0.176
Mof_O 	O 	0.16664	0.41664	0.625	-0.75
Mof_H 	H 	0.1885	0.4385	0.625	0.176
Mof_O 	O 	0.33336	0.58336	0.125	-0.75
Mof_H 	H 	0.3115	0.5615	0.125	0.176
Mof_O 	O 	0.875	0.83336	0.91664	-0.75
Mof_H 	H 	0.875	0.8115	0.9385	0.176
Mof_O 	O 	0.375	0.33336	0.41664	-0.75
Mof_H 	H 	0.375	0.3115	0.4385	0.176
Mof_O 	O 	0.375	0.66664	0.08336	-0.75
Mof_H 	H 	0.375	0.6885	0.0615	0.176
Mof_O 	O 	0.625	0.16664	0.41664	-0.75
Mof_H 	H 	0.625	0.1885	0.4385	0.176
Mof_O 	O 	0.125	0.33336	0.58336	-0.75
Mof_H 	H 	0.125	0.3115	0.5615	0.176
Mof_O 	O 	0.91664	0.875	0.83336	-0.75
Mof_H 	H 	0.9385	0.875	0.8115	0.176
Mof_O 	O 	0.41664	0.375	0.33336	-0.75
Mof_H 	H 	0.4385	0.375	0.3115	0.176
Mof_O 	O 	0.08336	0.375	0.66664	-0.75
Mof_H 	H 	0.0615	0.375	0.6885	0.176
Mof_O 	O 	0.41664	0.625	0.16664	-0.75
Mof_H 	H 	0.4385	0.625	0.1885	0.176
Mof_O 	O 	0.58336	0.125	0.33336	-0.75
Mof_H 	H 	0.5615	0.125	0.3115	0.176
Mof_O 	O 	0.16664	0.58336	0.875	-0.75
Mof_H 	H 	0.1885	0.5615	0.875	0.176
Mof_O 	O 	0.66664	0.91664	0.125	-0.75
Mof_H 	H 	0.6885	0.9385	0.125	0.176
Mof_O 	O 	0.83336	0.08336	0.625	-0.75
Mof_H 	H 	0.8115	0.0615	0.625	0.176
Mof_O 	O 	0.08336	0.625	0.83336	-0.75
Mof_H 	H 	0.0615	0.625	0.8115	0.176
Mof_O 	O 	0.91664	0.125	0.66664	-0.75
Mof_H 	H 	0.9385	0.125	0.6885	0.176
Mof_O 	O 	0.58336	0.875	0.16664	-0.75
Mof_H 	H 	0.5615	0.875	0.1885	0.176
Mof_O 	O 	0.125	0.66664	0.91664	-0.75
Mof_H 	H 	0.125	0.6885	0.9385	0.176
Mof_O 	O 	0.625	0.83336	0.08336	-0.75
Mof_H 	H 	0.625	0.8115	0.0615	0.176
Mof_O 	O 	0.875	0.16664	0.58336	-0.75
Mof_H 	H 	0.875	0.1885	0.5615	0.176
_end
