# CIF file generated by openbabel 3.1.0, see https://openbabel.org
data_I
_chemical_name_common 'image0'
_cell_length_a 11.797
_cell_length_b 12.889
_cell_length_c 14.037
_cell_angle_alpha 66.065
_cell_angle_beta 78.731
_cell_angle_gamma 69.924
_space_group_name_H-M_alt 'P 1'
_space_group_name_Hall 'P 1'
loop_
    _symmetry_equiv_pos_as_xyz
    x,y,z
loop_
    _atom_site_label
    _atom_site_type_symbol
    _atom_site_fract_x
    _atom_site_fract_y
    _atom_site_fract_z
    _atom_site_occupancy
    Th1      Th       0.53975    0.55039    0.60113    1.000
    P1       P        0.72340    0.65570    0.72150    1.000
    O1       O        0.53080    0.39080    0.56620    1.000
    O2       O        0.66580    0.59810    0.67860    1.000
    C1       C        0.66710    0.81410    0.66410    1.000
    C2       C        0.88300    0.61070    0.69270    1.000
    C3       C        0.54660    0.87040    0.68770    1.000
    H1       H        0.49840    0.82610    0.73580    1.000
    C4       C        0.68140    0.49830    0.91470    1.000
    H2       H        0.69920    0.44570    0.88040    1.000
    C5       C        0.68970    0.61320    0.85920    1.000
    C6       C        0.73780    0.87930    0.58970    1.000
    H3       H        0.81740    0.84160    0.57320    1.000
    C7       C        0.66420    0.69210    0.90990    1.000
    H4       H        0.67150    0.76820    0.87350    1.000
    C8       C        0.96200    0.64620    0.72490    1.000
    H5       H        0.93330    0.69180    0.76640    1.000
    C9       C        0.92800    0.53790    0.63750    1.000
    H6       H        0.87690    0.50700    0.62130    1.000
    O3       O        0.41670    0.24500    0.53170    1.000
    O4       O        0.59200    0.24180    0.44250    1.000
    C10      C        0.52170    0.18770    0.51030    1.000
    C11      C        0.50000    0.99080    0.63960    1.000
    H7       H        0.42090    0.02900    0.65690    1.000
    C12      C        0.57120    0.05580    0.56500    1.000
    C13      C        0.68950    0.00070    0.53980    1.000
    H8       H        0.73640    0.04480    0.48950    1.000
    C14      C        0.05080    0.50930    0.60490    1.000
    H9       H        0.08030    0.46120    0.56570    1.000
    C15      C        0.08400    0.61350    0.69500    1.000
    H10      H        0.13740    0.63430    0.71970    1.000
    C16      C        0.12750    0.55130    0.63010    1.000
    C17      C        0.25690    0.52690    0.58800    1.000
    O5       O        0.32630    0.55690    0.62210    1.000
    O6       O        0.28250    0.48700    0.51740    1.000
    O7       O        0.57050    0.40230    0.23420    1.000
    O8       O        0.51530    0.58880    0.21870    1.000
    C18      C        0.61600    0.54250    0.06990    1.000
    C19      C        0.56690    0.50700    0.18230    1.000
    C20      C        0.64730    0.46200    0.01960    1.000
    H11      H        0.64510    0.38430    0.05680    1.000
    C21      C        0.62720    0.65610    0.01630    1.000
    H12      H        0.61020    0.70820    0.05110    1.000
    Th2      Th       0.46025    0.44961    0.39887    1.000
    P2       P        0.27660    0.34430    0.27850    1.000
    O9       O        0.46920    0.60920    0.43380    1.000
    O10      O        0.33420    0.40190    0.32140    1.000
    C22      C        0.33290    0.18590    0.33590    1.000
    C23      C        0.11700    0.38930    0.30730    1.000
    C24      C        0.45340    0.12960    0.31230    1.000
    H13      H        0.50160    0.17390    0.26420    1.000
    C25      C        0.31860    0.50170    0.08530    1.000
    H14      H        0.30080    0.55430    0.11960    1.000
    C26      C        0.31030    0.38680    0.14080    1.000
    C27      C        0.26220    0.12070    0.41030    1.000
    H15      H        0.18260    0.15840    0.42680    1.000
    C28      C        0.33580    0.30790    0.09010    1.000
    H16      H        0.32850    0.23180    0.12650    1.000
    C29      C        0.03800    0.35380    0.27510    1.000
    H17      H        0.06670    0.30820    0.23360    1.000
    C30      C        0.07200    0.46210    0.36250    1.000
    H18      H        0.12310    0.49300    0.37870    1.000
    O11      O        0.58330    0.75500    0.46830    1.000
    O12      O        0.40800    0.75820    0.55750    1.000
    C31      C        0.47830    0.81230    0.48970    1.000
    C32      C        0.50000    0.00920    0.36040    1.000
    H19      H        0.57910    0.97100    0.34310    1.000
    C33      C        0.42880    0.94420    0.43500    1.000
    C34      C        0.31050    0.99930    0.46020    1.000
    H20      H        0.26360    0.95520    0.51050    1.000
    C35      C        0.94920    0.49070    0.39510    1.000
    H21      H        0.91970    0.53880    0.43430    1.000
    C36      C        0.91600    0.38650    0.30500    1.000
    H22      H        0.86260    0.36570    0.28030    1.000
    C37      C        0.87250    0.44870    0.36990    1.000
    C38      C        0.74310    0.47310    0.41200    1.000
    O13      O        0.67370    0.44310    0.37790    1.000
    O14      O        0.71750    0.51300    0.48260    1.000
    O15      O        0.42950    0.59770    0.76580    1.000
    O16      O        0.48470    0.41120    0.78130    1.000
    C39      C        0.38400    0.45750    0.93010    1.000
    C40      C        0.43310    0.49300    0.81770    1.000
    C41      C        0.35270    0.53800    0.98040    1.000
    H23      H        0.35490    0.61570    0.94320    1.000
    C42      C        0.37280    0.34390    0.98370    1.000
    H24      H        0.38980    0.29180    0.94890    1.000
