data_functionalizedCrystal
_audit_creation_method	'EQeq! by Chris Wilmer'
_symmetry_space_group_name_H-M	'P1'
_symmetry_Int_Tables_number	1
_symmetry_cell_setting	triclinic
loop_
_symmetry_equiv_pos_as_xyz
  x,y,z
_cell_length_a	11.54
_cell_length_b	11.54
_cell_length_c	14.943
_cell_angle_alpha	90
_cell_angle_beta	90
_cell_angle_gamma	90
loop_
_atom_site_label
_atom_site_type_symbol
_atom_site_fract_x
_atom_site_fract_y
_atom_site_fract_z
_atom_site_charge
Mof_N 	N 	0.9272	0.6896	0.9262	-0.176
Mof_C 	C 	0.8763	0.7174	0.0047	0.069
Mof_H 	H 	0.8653	0.6585	0.0484	-0.005
Mof_C 	C 	0.8397	0.8291	0.0236	-0.113
Mof_H 	H 	0.8057	0.8458	0.0801	0.06
Mof_C 	C 	0.8522	0.9155	0.9617	0.038
Mof_C 	C 	0.8982	0.8861	0.8781	-0.119
Mof_H 	H 	0.9044	0.9423	0.8319	0.08
Mof_C 	C 	0.9347	0.7726	0.8642	0.062
Mof_H 	H 	0.9667	0.7531	0.8076	0.003
Mof_C 	C 	0.8168	0.0377	0.9852	0.1
Mof_C 	C 	0.7529	0.1066	0.9163	-0.468
Mof_H 	H 	0.6736	0.121	0.9369	0.144
Mof_H 	H 	0.7508	0.0633	0.8599	0.138
Mof_H 	H 	0.7925	0.1808	0.9069	0.166
Mof_N 	N 	0.8446	0.0707	0.0634	-0.167
Mof_C 	C 	0.8126	0.1856	0.0967	-0.061
Mof_H 	H 	0.734	0.2056	0.0751	0.038
Mof_H 	H 	0.8674	0.2439	0.0728	0.051
Mof_C 	C 	0.8144	0.1895	0.1978	-0.035
Mof_H 	H 	0.7959	0.2688	0.2187	0.029
Mof_H 	H 	0.7552	0.1359	0.2221	0.022
Mof_N 	N 	0.9295	0.1556	0.23	-0.19
Mof_C 	C 	0.9624	0.1824	0.3085	0.23
Mof_C 	C 	0.8941	0.2481	0.3768	-0.587
Mof_H 	H 	0.8903	0.3299	0.3597	0.193
Mof_H 	H 	0.9316	0.241	0.4354	0.196
Mof_H 	H 	0.8154	0.2163	0.3801	0.193
Mof_C 	C 	0.0844	0.1482	0.3328	-0.101
Mof_C 	C 	0.1714	0.1611	0.27	-0.065
Mof_H 	H 	0.155	0.1962	0.2138	0.02
Mof_C 	C 	0.2824	0.1229	0.289	0.013
Mof_H 	H 	0.341	0.1325	0.245	-0.005
Mof_N 	N 	0.3104	0.0727	0.3672	-0.175
Mof_C 	C 	0.2278	0.0644	0.4289	0.015
Mof_H 	H 	0.2471	0.0317	0.4853	-0.013
Mof_C 	C 	0.1136	0.1017	0.4147	-0.064
Mof_H 	H 	0.0572	0.0949	0.4607	0.007
Mof_N 	N 	0.0728	0.3104	0.9262	-0.179
Mof_C 	C 	0.1237	0.2826	0.0047	0.019
Mof_H 	H 	0.1347	0.3415	0.0484	-0.004
Mof_C 	C 	0.1603	0.1709	0.0236	-0.052
Mof_H 	H 	0.1943	0.1542	0.0801	0.017
Mof_C 	C 	0.1478	0.0845	0.9617	-0.108
Mof_C 	C 	0.1018	0.1139	0.8781	-0.065
Mof_H 	H 	0.0956	0.0577	0.8319	0.008
Mof_C 	C 	0.0653	0.2274	0.8642	0.013
Mof_H 	H 	0.0333	0.2469	0.8076	-0.012
Mof_C 	C 	0.1832	0.9623	0.9852	0.215
Mof_C 	C 	0.2471	0.8934	0.9163	-0.574
Mof_H 	H 	0.3264	0.879	0.9369	0.186
Mof_H 	H 	0.2492	0.9367	0.8599	0.193
Mof_H 	H 	0.2075	0.8192	0.9069	0.187
Mof_N 	N 	0.1554	0.9293	0.0634	-0.18
Mof_C 	C 	0.1874	0.8144	0.0967	-0.039
Mof_H 	H 	0.266	0.7944	0.0751	0.034
Mof_H 	H 	0.1326	0.7561	0.0728	0.027
Mof_C 	C 	0.1856	0.8105	0.1978	-0.057
Mof_H 	H 	0.2041	0.7312	0.2187	0.034
Mof_H 	H 	0.2448	0.8641	0.2221	0.048
Mof_N 	N 	0.0705	0.8444	0.23	-0.171
Mof_C 	C 	0.0376	0.8176	0.3085	0.106
Mof_C 	C 	0.1059	0.7519	0.3768	-0.472
Mof_H 	H 	0.1097	0.6701	0.3597	0.145
Mof_H 	H 	0.0684	0.759	0.4354	0.141
Mof_H 	H 	0.1846	0.7837	0.3801	0.169
Mof_C 	C 	0.9156	0.8518	0.3328	0.056
Mof_C 	C 	0.8286	0.8389	0.27	-0.131
Mof_H 	H 	0.845	0.8038	0.2138	0.064
Mof_C 	C 	0.7176	0.8771	0.289	0.065
Mof_H 	H 	0.659	0.8675	0.245	-0.006
Mof_N 	N 	0.6896	0.9273	0.3672	-0.173
Mof_C 	C 	0.7722	0.9356	0.4289	0.069
Mof_H 	H 	0.7529	0.9683	0.4853	0.002
Mof_C 	C 	0.8864	0.8983	0.4147	-0.127
Mof_H 	H 	0.9428	0.9051	0.4607	0.082
Mof_N 	N 	0.4272	0.8104	0.4262	-0.165
Mof_C 	C 	0.3763	0.7826	0.5047	0.036
Mof_H 	H 	0.3653	0.8415	0.5484	0.003
Mof_C 	C 	0.3397	0.6709	0.5236	-0.097
Mof_H 	H 	0.3057	0.6542	0.5801	0.034
Mof_C 	C 	0.3522	0.5845	0.4617	-0.029
Mof_C 	C 	0.3982	0.6139	0.3781	-0.094
Mof_H 	H 	0.4044	0.5577	0.3319	0.045
Mof_C 	C 	0.4347	0.7274	0.3642	0.039
Mof_H 	H 	0.4667	0.7469	0.3076	-0.001
Mof_C 	C 	0.3168	0.4623	0.4852	0.162
Mof_C 	C 	0.2529	0.3934	0.4163	-0.518
Mof_H 	H 	0.1736	0.379	0.4369	0.159
Mof_H 	H 	0.2508	0.4367	0.3599	0.162
Mof_H 	H 	0.2925	0.3192	0.4069	0.176
Mof_N 	N 	0.3446	0.4293	0.5634	-0.196
Mof_C 	C 	0.3126	0.3144	0.5967	-0.049
Mof_H 	H 	0.234	0.2944	0.5751	0.025
Mof_H 	H 	0.3674	0.2561	0.5728	0.029
Mof_C 	C 	0.3144	0.3105	0.6978	-0.05
Mof_H 	H 	0.2959	0.2312	0.7187	0.025
Mof_H 	H 	0.2552	0.3641	0.7221	0.029
Mof_N 	N 	0.4295	0.3444	0.73	-0.195
Mof_C 	C 	0.4624	0.3176	0.8085	0.16
Mof_C 	C 	0.3941	0.2519	0.8768	-0.512
Mof_H 	H 	0.3903	0.1701	0.8597	0.155
Mof_H 	H 	0.4316	0.259	0.9354	0.158
Mof_H 	H 	0.3154	0.2837	0.8801	0.173
Mof_C 	C 	0.5844	0.3518	0.8328	-0.027
Mof_C 	C 	0.6714	0.3389	0.77	-0.1
Mof_H 	H 	0.655	0.3038	0.7138	0.035
Mof_C 	C 	0.7824	0.3771	0.789	0.039
Mof_H 	H 	0.841	0.3675	0.745	0.001
Mof_N 	N 	0.8104	0.4273	0.8672	-0.167
Mof_C 	C 	0.7278	0.4356	0.9289	0.04
Mof_H 	H 	0.7471	0.4683	0.9853	-0.005
Mof_C 	C 	0.6136	0.3983	0.9147	-0.094
Mof_H 	H 	0.5572	0.4051	0.9607	0.042
Mof_N 	N 	0.5728	0.1896	0.4262	-0.18
Mof_C 	C 	0.6237	0.2174	0.5047	0.034
Mof_H 	H 	0.6347	0.1585	0.5484	-0.014
Mof_C 	C 	0.6603	0.3291	0.5236	-0.098
Mof_H 	H 	0.6943	0.3458	0.5801	0.037
Mof_C 	C 	0.6478	0.4155	0.4617	-0.03
Mof_C 	C 	0.6018	0.3861	0.3781	-0.094
Mof_H 	H 	0.5956	0.4423	0.3319	0.045
Mof_C 	C 	0.5653	0.2726	0.3642	0.039
Mof_H 	H 	0.5333	0.2531	0.3076	-0.007
Mof_C 	C 	0.6832	0.5377	0.4852	0.173
Mof_C 	C 	0.7471	0.6066	0.4163	-0.544
Mof_H 	H 	0.8264	0.621	0.4369	0.181
Mof_H 	H 	0.7492	0.5633	0.3599	0.175
Mof_H 	H 	0.7075	0.6808	0.4069	0.185
Mof_N 	N 	0.6554	0.5707	0.5634	-0.197
Mof_C 	C 	0.6874	0.6856	0.5967	-0.05
Mof_H 	H 	0.766	0.7056	0.5751	0.038
Mof_H 	H 	0.6326	0.7439	0.5728	0.036
Mof_C 	C 	0.6856	0.6895	0.6978	-0.051
Mof_H 	H 	0.7041	0.7688	0.7187	0.038
Mof_H 	H 	0.7448	0.6359	0.7221	0.036
Mof_N 	N 	0.5705	0.6556	0.73	-0.195
Mof_C 	C 	0.5376	0.6824	0.8085	0.171
Mof_C 	C 	0.6059	0.7481	0.8768	-0.538
Mof_H 	H 	0.6097	0.8299	0.8597	0.178
Mof_H 	H 	0.5684	0.741	0.9354	0.171
Mof_H 	H 	0.6846	0.7163	0.8801	0.182
Mof_C 	C 	0.4156	0.6482	0.8328	-0.028
Mof_C 	C 	0.3286	0.6611	0.77	-0.101
Mof_H 	H 	0.345	0.6962	0.7138	0.038
Mof_C 	C 	0.2176	0.6229	0.789	0.037
Mof_H 	H 	0.159	0.6325	0.745	-0.015
Mof_N 	N 	0.1896	0.5727	0.8672	-0.181
Mof_C 	C 	0.2722	0.5644	0.9289	0.04
Mof_H 	H 	0.2529	0.5317	0.9853	-0.011
Mof_C 	C 	0.3864	0.6017	0.9147	-0.095
Mof_H 	H 	0.4428	0.5949	0.9607	0.042
Mof_Ag	Ag	2.2945e-33	1.58566e-33	0.146	0.48
Mof_Ag	Ag	0.5	0.5	0.646	0.628
Mof_Ag	Ag	4.35012e-33	0.5	0.896	0.48
Mof_Ag	Ag	0.5	6.34265e-33	0.396	0.484
_end
