# CIF file generated by openbabel 3.1.0, see https://openbabel.org
data_I
_chemical_name_common 'image0'
_cell_length_a 10.772
_cell_length_b 21.7524
_cell_length_c 9.8578
_cell_angle_alpha 90
_cell_angle_beta 111.728
_cell_angle_gamma 90
_space_group_name_H-M_alt 'P 1'
_space_group_name_Hall 'P 1'
loop_
    _symmetry_equiv_pos_as_xyz
    x,y,z
loop_
    _atom_site_label
    _atom_site_type_symbol
    _atom_site_fract_x
    _atom_site_fract_y
    _atom_site_fract_z
    _atom_site_occupancy
    Cu1      Cu       0.96344    0.11005    0.56382    1.000
    Cu2      Cu       0.50815    0.86588    0.00403    1.000
    O1       O        0.78966    0.08348    0.55450    1.000
    O2       O        0.66691    0.16845    0.47920    1.000
    O3       O        0.15527    0.10078    0.62115    1.000
    O4       O        0.19420    0.15644    0.45080    1.000
    O5       O        0.47750    0.93373    0.86820    1.000
    O6       O        0.68310    0.93968    0.86250    1.000
    O7       O        0.79962    0.16548    0.86510    1.000
    N1       N        0.92050    0.08320    0.35630    1.000
    N2       N        0.67850    0.13408    0.00390    1.000
    N3       N        0.47390    0.19894    0.84630    1.000
    N4       N        0.48510    0.28784    0.65240    1.000
    C1       C        0.81780    0.11053    0.25210    1.000
    H1       H        0.76560    0.13790    0.28030    1.000
    C2       C        0.78550    0.10015    0.10430    1.000
    C3       C        0.96360    0.02704    0.17240    1.000
    H2       H        0.01380    0.99750    0.14750    1.000
    C4       C        0.99250    0.04189    0.31580    1.000
    H3       H        0.06430    0.02270    0.38740    1.000
    C5       C        0.85870    0.05643    0.06420    1.000
    H4       H        0.83810    0.04690    0.96630    1.000
    C6       C        0.37100    0.23664    0.78410    1.000
    H5       H        0.29400    0.23260    0.80500    1.000
    C7       C        0.37850    0.28164    0.68870    1.000
    H6       H        0.30690    0.30840    0.64860    1.000
    C8       C        0.58650    0.24901    0.71350    1.000
    H7       H        0.66150    0.25160    0.68840    1.000
    C9       C        0.58260    0.20486    0.81370    1.000
    C10      C        0.69890    0.16427    0.89710    1.000
    C11      C        0.68520    0.11602    0.53080    1.000
    C12      C        0.58040    0.08639    0.57660    1.000
    C13      C        0.61310    0.03508    0.66730    1.000
    H8       H        0.69710    0.01720    0.69220    1.000
    C14      C        0.45430    0.11195    0.53720    1.000
    H9       H        0.43150    0.14580    0.47540    1.000
    C15      C        0.22700    0.11780    0.54780    1.000
    C16      C        0.36080    0.08726    0.58960    1.000
    C17      C        0.39540    0.03640    0.68230    1.000
    H10      H        0.33380    0.02000    0.71810    1.000
    C18      C        0.52140    0.01021    0.72130    1.000
    C19      C        0.56520    0.95686    0.82480    1.000
    Cu3      Cu       0.03656    0.61005    0.93618    1.000
    Cu4      Cu       0.49185    0.36588    0.49597    1.000
    O8       O        0.21034    0.58348    0.94550    1.000
    O9       O        0.33309    0.66845    0.02080    1.000
    O10      O        0.84473    0.60078    0.87885    1.000
    O11      O        0.80580    0.65644    0.04920    1.000
    O12      O        0.52250    0.43373    0.63180    1.000
    O13      O        0.31690    0.43968    0.63750    1.000
    O14      O        0.20038    0.66548    0.63490    1.000
    N5       N        0.07950    0.58320    0.14370    1.000
    N6       N        0.32150    0.63408    0.49610    1.000
    N7       N        0.52610    0.69894    0.65370    1.000
    N8       N        0.51490    0.78784    0.84760    1.000
    C20      C        0.18220    0.61053    0.24790    1.000
    H11      H        0.23440    0.63790    0.21970    1.000
    C21      C        0.21450    0.60015    0.39570    1.000
    C22      C        0.03640    0.52704    0.32760    1.000
    H12      H        0.98620    0.49750    0.35250    1.000
    C23      C        0.00750    0.54189    0.18420    1.000
    H13      H        0.93570    0.52270    0.11260    1.000
    C24      C        0.14130    0.55643    0.43580    1.000
    H14      H        0.16190    0.54690    0.53370    1.000
    C25      C        0.62900    0.73664    0.71590    1.000
    H15      H        0.70600    0.73260    0.69500    1.000
    C26      C        0.62150    0.78164    0.81130    1.000
    H16      H        0.69310    0.80840    0.85140    1.000
    C27      C        0.41350    0.74901    0.78650    1.000
    H17      H        0.33850    0.75160    0.81160    1.000
    C28      C        0.41740    0.70486    0.68630    1.000
    C29      C        0.30110    0.66427    0.60290    1.000
    C30      C        0.31480    0.61602    0.96920    1.000
    C31      C        0.41960    0.58639    0.92340    1.000
    C32      C        0.38690    0.53508    0.83270    1.000
    H18      H        0.30290    0.51720    0.80780    1.000
    C33      C        0.54570    0.61195    0.96280    1.000
    H19      H        0.56850    0.64580    0.02460    1.000
    C34      C        0.77300    0.61780    0.95220    1.000
    C35      C        0.63920    0.58726    0.91040    1.000
    C36      C        0.60460    0.53640    0.81770    1.000
    H20      H        0.66620    0.52000    0.78190    1.000
    C37      C        0.47860    0.51021    0.77870    1.000
    C38      C        0.43480    0.45686    0.67520    1.000
    Cu5      Cu       0.03656    0.88995    0.43618    1.000
    Cu6      Cu       0.49185    0.13412    0.99597    1.000
    O15      O        0.21034    0.91652    0.44550    1.000
    O16      O        0.33309    0.83155    0.52080    1.000
    O17      O        0.84473    0.89922    0.37885    1.000
    O18      O        0.80580    0.84356    0.54920    1.000
    O19      O        0.52250    0.06627    0.13180    1.000
    O20      O        0.31690    0.06032    0.13750    1.000
    O21      O        0.20038    0.83452    0.13490    1.000
    N9       N        0.07950    0.91680    0.64370    1.000
    N10      N        0.32150    0.86592    0.99610    1.000
    N11      N        0.52610    0.80106    0.15370    1.000
    N12      N        0.51490    0.71216    0.34760    1.000
    C39      C        0.18220    0.88947    0.74790    1.000
    H21      H        0.23440    0.86210    0.71970    1.000
    C40      C        0.21450    0.89985    0.89570    1.000
    C41      C        0.03640    0.97296    0.82760    1.000
    H22      H        0.98620    0.00250    0.85250    1.000
    C42      C        0.00750    0.95811    0.68420    1.000
    H23      H        0.93570    0.97730    0.61260    1.000
    C43      C        0.14130    0.94357    0.93580    1.000
    H24      H        0.16190    0.95310    0.03370    1.000
    C44      C        0.62900    0.76336    0.21590    1.000
    H25      H        0.70600    0.76740    0.19500    1.000
    C45      C        0.62150    0.71836    0.31130    1.000
    H26      H        0.69310    0.69160    0.35140    1.000
    C46      C        0.41350    0.75099    0.28650    1.000
    H27      H        0.33850    0.74840    0.31160    1.000
    C47      C        0.41740    0.79514    0.18630    1.000
    C48      C        0.30110    0.83573    0.10290    1.000
    C49      C        0.31480    0.88398    0.46920    1.000
    C50      C        0.41960    0.91361    0.42340    1.000
    C51      C        0.38690    0.96492    0.33270    1.000
    H28      H        0.30290    0.98280    0.30780    1.000
    C52      C        0.54570    0.88805    0.46280    1.000
    H29      H        0.56850    0.85420    0.52460    1.000
    C53      C        0.77300    0.88220    0.45220    1.000
    C54      C        0.63920    0.91274    0.41040    1.000
    C55      C        0.60460    0.96360    0.31770    1.000
    H30      H        0.66620    0.98000    0.28190    1.000
    C56      C        0.47860    0.98979    0.27870    1.000
    C57      C        0.43480    0.04314    0.17520    1.000
    Cu7      Cu       0.96344    0.38995    0.06382    1.000
    Cu8      Cu       0.50815    0.63412    0.50403    1.000
    O22      O        0.78966    0.41652    0.05450    1.000
    O23      O        0.66691    0.33155    0.97920    1.000
    O24      O        0.15527    0.39922    0.12115    1.000
    O25      O        0.19420    0.34356    0.95080    1.000
    O26      O        0.47750    0.56627    0.36820    1.000
    O27      O        0.68310    0.56032    0.36250    1.000
    O28      O        0.79962    0.33452    0.36510    1.000
    N13      N        0.92050    0.41680    0.85630    1.000
    N14      N        0.67850    0.36592    0.50390    1.000
    N15      N        0.47390    0.30106    0.34630    1.000
    N16      N        0.48510    0.21216    0.15240    1.000
    C58      C        0.81780    0.38947    0.75210    1.000
    H31      H        0.76560    0.36210    0.78030    1.000
    C59      C        0.78550    0.39985    0.60430    1.000
    C60      C        0.96360    0.47296    0.67240    1.000
    H32      H        0.01380    0.50250    0.64750    1.000
    C61      C        0.99250    0.45811    0.81580    1.000
    H33      H        0.06430    0.47730    0.88740    1.000
    C62      C        0.85870    0.44357    0.56420    1.000
    H34      H        0.83810    0.45310    0.46630    1.000
    C63      C        0.37100    0.26336    0.28410    1.000
    H35      H        0.29400    0.26740    0.30500    1.000
    C64      C        0.37850    0.21836    0.18870    1.000
    H36      H        0.30690    0.19160    0.14860    1.000
    C65      C        0.58650    0.25099    0.21350    1.000
    H37      H        0.66150    0.24840    0.18840    1.000
    C66      C        0.58260    0.29514    0.31370    1.000
    C67      C        0.69890    0.33573    0.39710    1.000
    C68      C        0.68520    0.38398    0.03080    1.000
    C69      C        0.58040    0.41361    0.07660    1.000
    C70      C        0.61310    0.46492    0.16730    1.000
    H38      H        0.69710    0.48280    0.19220    1.000
    C71      C        0.45430    0.38805    0.03720    1.000
    H39      H        0.43150    0.35420    0.97540    1.000
    C72      C        0.22700    0.38220    0.04780    1.000
    C73      C        0.36080    0.41274    0.08960    1.000
    C74      C        0.39540    0.46360    0.18230    1.000
    H40      H        0.33380    0.48000    0.21810    1.000
    C75      C        0.52140    0.48979    0.22130    1.000
    C76      C        0.56520    0.54314    0.32480    1.000
