data_functionalizedCrystal
_audit_creation_method	'EQeq! by Chris Wilmer'
_symmetry_space_group_name_H-M	'P1'
_symmetry_Int_Tables_number	1
_symmetry_cell_setting	triclinic
loop_
_symmetry_equiv_pos_as_xyz
  x,y,z
_cell_length_a	18.4284
_cell_length_b	18.4284
_cell_length_c	40.081
_cell_angle_alpha	90
_cell_angle_beta	90
_cell_angle_gamma	120
loop_
_atom_site_label
_atom_site_type_symbol
_atom_site_fract_x
_atom_site_fract_y
_atom_site_fract_z
_atom_site_charge
Mof_O 	O 	0.9724	0.5612	0.04305	-0.408
Mof_O 	O 	0.8915	0.52	0.99807	-0.413
Mof_C 	C 	0.8746	0.6196	0.07318	-0.016
Mof_H 	H 	0.9245	0.632	0.0837	0.056
Mof_C 	C 	0.855	0.5786	0.04223	-0.093
Mof_C 	C 	0.9097	0.5504	0.02686	0.373
Mof_O 	O 	0.63907	0.89453	0.37638	-0.408
Mof_O 	O 	0.55817	0.85333	0.3314	-0.413
Mof_C 	C 	0.54127	0.95293	0.40651	-0.016
Mof_H 	H 	0.59117	0.96533	0.41703	0.056
Mof_C 	C 	0.52167	0.91193	0.37556	-0.093
Mof_C 	C 	0.57637	0.88373	0.36019	0.373
Mof_O 	O 	0.30573	0.22787	0.70972	-0.408
Mof_O 	O 	0.22483	0.18667	0.66474	-0.413
Mof_C 	C 	0.20793	0.28627	0.73985	-0.017
Mof_H 	H 	0.25783	0.29867	0.75037	0.055
Mof_C 	C 	0.18833	0.24527	0.7089	-0.094
Mof_C 	C 	0.24303	0.21707	0.69353	0.372
Mof_O 	O 	0.4388	0.4112	0.04305	-0.409
Mof_O 	O 	0.48	0.3715	0.99807	-0.414
Mof_C 	C 	0.3804	0.255	0.07318	-0.017
Mof_H 	H 	0.368	0.2925	0.0837	0.055
Mof_C 	C 	0.4214	0.2764	0.04223	-0.094
Mof_C 	C 	0.4496	0.3593	0.02686	0.372
Mof_O 	O 	0.10547	0.74453	0.37638	-0.409
Mof_O 	O 	0.14667	0.70483	0.3314	-0.414
Mof_C 	C 	0.04707	0.58833	0.40651	-0.017
Mof_H 	H 	0.03467	0.62583	0.41703	0.055
Mof_C 	C 	0.08807	0.60973	0.37556	-0.094
Mof_C 	C 	0.11627	0.69263	0.36019	0.372
Mof_O 	O 	0.77213	0.07787	0.70972	-0.409
Mof_O 	O 	0.81333	0.03817	0.66474	-0.414
Mof_C 	C 	0.71373	0.92167	0.73985	-0.017
Mof_H 	H 	0.70133	0.95917	0.75037	0.055
Mof_C 	C 	0.75473	0.94307	0.7089	-0.094
Mof_C 	C 	0.78293	0.02597	0.69353	0.371
Mof_O 	O 	0.5888	0.0276	0.04305	-0.409
Mof_O 	O 	0.6285	0.1085	0.99807	-0.414
Mof_C 	C 	0.745	0.1254	0.07318	-0.017
Mof_H 	H 	0.7075	0.0755	0.0837	0.055
Mof_C 	C 	0.7236	0.145	0.04223	-0.094
Mof_C 	C 	0.6407	0.0903	0.02686	0.372
Mof_O 	O 	0.25547	0.36093	0.37638	-0.409
Mof_O 	O 	0.29517	0.44183	0.3314	-0.414
Mof_C 	C 	0.41167	0.45873	0.40651	-0.017
Mof_H 	H 	0.37417	0.40883	0.41703	0.055
Mof_C 	C 	0.39027	0.47833	0.37556	-0.094
Mof_C 	C 	0.30737	0.42363	0.36019	0.372
Mof_O 	O 	0.92213	0.69427	0.70972	-0.409
Mof_O 	O 	0.96183	0.77517	0.66474	-0.414
Mof_C 	C 	0.07833	0.79207	0.73985	-0.017
Mof_H 	H 	0.04083	0.74217	0.75037	0.055
Mof_C 	C 	0.05693	0.81167	0.7089	-0.094
Mof_C 	C 	0.97403	0.75697	0.69353	0.371
Mof_O 	O 	0.5612	0.9724	0.95695	-0.409
Mof_O 	O 	0.52	0.8915	0.00193	-0.414
Mof_C 	C 	0.6196	0.8746	0.92682	-0.017
Mof_H 	H 	0.632	0.9245	0.9163	0.055
Mof_C 	C 	0.5786	0.855	0.95777	-0.094
Mof_C 	C 	0.5504	0.9097	0.97314	0.372
Mof_O 	O 	0.22787	0.30573	0.29028	-0.409
Mof_O 	O 	0.18667	0.22483	0.33526	-0.414
Mof_C 	C 	0.28627	0.20793	0.26015	-0.017
Mof_H 	H 	0.29867	0.25783	0.24963	0.055
Mof_C 	C 	0.24527	0.18833	0.2911	-0.094
Mof_C 	C 	0.21707	0.24303	0.30647	0.372
Mof_O 	O 	0.89453	0.63907	0.62362	-0.409
Mof_O 	O 	0.85333	0.55817	0.6686	-0.414
Mof_C 	C 	0.95293	0.54127	0.59349	-0.017
Mof_H 	H 	0.96533	0.59117	0.58297	0.055
Mof_C 	C 	0.91193	0.52167	0.62444	-0.094
Mof_C 	C 	0.88373	0.57637	0.63981	0.372
Mof_O 	O 	0.4112	0.4388	0.95695	-0.409
Mof_O 	O 	0.3715	0.48	0.00193	-0.414
Mof_C 	C 	0.255	0.3804	0.92682	-0.017
Mof_H 	H 	0.2925	0.368	0.9163	0.055
Mof_C 	C 	0.2764	0.4214	0.95777	-0.094
Mof_C 	C 	0.3593	0.4496	0.97314	0.372
Mof_O 	O 	0.07787	0.77213	0.29028	-0.409
Mof_O 	O 	0.03817	0.81333	0.33526	-0.414
Mof_C 	C 	0.92167	0.71373	0.26015	-0.017
Mof_H 	H 	0.95917	0.70133	0.24963	0.055
Mof_C 	C 	0.94307	0.75473	0.2911	-0.094
Mof_C 	C 	0.02597	0.78293	0.30647	0.371
Mof_O 	O 	0.74453	0.10547	0.62362	-0.409
Mof_O 	O 	0.70483	0.14667	0.6686	-0.414
Mof_C 	C 	0.58833	0.04707	0.59349	-0.017
Mof_H 	H 	0.62583	0.03467	0.58297	0.055
Mof_C 	C 	0.60973	0.08807	0.62444	-0.094
Mof_C 	C 	0.69263	0.11627	0.63981	0.372
Mof_O 	O 	0.0276	0.5888	0.95695	-0.409
Mof_O 	O 	0.1085	0.6285	0.00193	-0.414
Mof_C 	C 	0.1254	0.745	0.92682	-0.017
Mof_H 	H 	0.0755	0.7075	0.9163	0.055
Mof_C 	C 	0.145	0.7236	0.95777	-0.094
Mof_C 	C 	0.0903	0.6407	0.97314	0.372
Mof_O 	O 	0.69427	0.92213	0.29028	-0.409
Mof_O 	O 	0.77517	0.96183	0.33526	-0.414
Mof_C 	C 	0.79207	0.07833	0.26015	-0.017
Mof_H 	H 	0.74217	0.04083	0.24963	0.055
Mof_C 	C 	0.81167	0.05693	0.2911	-0.094
Mof_C 	C 	0.75697	0.97403	0.30647	0.371
Mof_O 	O 	0.36093	0.25547	0.62362	-0.409
Mof_O 	O 	0.44183	0.29517	0.6686	-0.414
Mof_C 	C 	0.45873	0.41167	0.59349	-0.017
Mof_H 	H 	0.40883	0.37417	0.58297	0.055
Mof_C 	C 	0.47833	0.39027	0.62444	-0.094
Mof_C 	C 	0.42363	0.30737	0.63981	0.372
Mof_O 	O 	0.0276	0.4388	0.95695	-0.409
Mof_O 	O 	0.1085	0.48	0.00193	-0.414
Mof_C 	C 	0.1254	0.3804	0.92682	-0.017
Mof_H 	H 	0.0755	0.368	0.9163	0.055
Mof_C 	C 	0.145	0.4214	0.95777	-0.094
Mof_C 	C 	0.0903	0.4496	0.97314	0.372
Mof_O 	O 	0.69427	0.77213	0.29028	-0.409
Mof_O 	O 	0.77517	0.81333	0.33526	-0.414
Mof_C 	C 	0.79207	0.71373	0.26015	-0.017
Mof_H 	H 	0.74217	0.70133	0.24963	0.055
Mof_C 	C 	0.81167	0.75473	0.2911	-0.094
Mof_C 	C 	0.75697	0.78293	0.30647	0.372
Mof_O 	O 	0.36093	0.10547	0.62362	-0.409
Mof_O 	O 	0.44183	0.14667	0.6686	-0.414
Mof_C 	C 	0.45873	0.04707	0.59349	-0.017
Mof_H 	H 	0.40883	0.03467	0.58297	0.055
Mof_C 	C 	0.47833	0.08807	0.62444	-0.094
Mof_C 	C 	0.42363	0.11627	0.63981	0.372
Mof_O 	O 	0.5612	0.5888	0.95695	-0.409
Mof_O 	O 	0.52	0.6285	0.00193	-0.414
Mof_C 	C 	0.6196	0.745	0.92682	-0.017
Mof_H 	H 	0.632	0.7075	0.9163	0.055
Mof_C 	C 	0.5786	0.7236	0.95777	-0.094
Mof_C 	C 	0.5504	0.6407	0.97314	0.372
Mof_O 	O 	0.22787	0.92213	0.29028	-0.409
Mof_O 	O 	0.18667	0.96183	0.33526	-0.414
Mof_C 	C 	0.28627	0.07833	0.26015	-0.017
Mof_H 	H 	0.29867	0.04083	0.24963	0.055
Mof_C 	C 	0.24527	0.05693	0.2911	-0.094
Mof_C 	C 	0.21707	0.97403	0.30647	0.371
Mof_O 	O 	0.89453	0.25547	0.62362	-0.409
Mof_O 	O 	0.85333	0.29517	0.6686	-0.414
Mof_C 	C 	0.95293	0.41167	0.59349	-0.017
Mof_H 	H 	0.96533	0.37417	0.58297	0.055
Mof_C 	C 	0.91193	0.39027	0.62444	-0.094
Mof_C 	C 	0.88373	0.30737	0.63981	0.372
Mof_O 	O 	0.4112	0.9724	0.95695	-0.409
Mof_O 	O 	0.3715	0.8915	0.00193	-0.414
Mof_C 	C 	0.255	0.8746	0.92682	-0.017
Mof_H 	H 	0.2925	0.9245	0.9163	0.055
Mof_C 	C 	0.2764	0.855	0.95777	-0.094
Mof_C 	C 	0.3593	0.9097	0.97314	0.372
Mof_O 	O 	0.07787	0.30573	0.29028	-0.409
Mof_O 	O 	0.03817	0.22483	0.33526	-0.414
Mof_C 	C 	0.92167	0.20793	0.26015	-0.017
Mof_H 	H 	0.95917	0.25783	0.24963	0.055
Mof_C 	C 	0.94307	0.18833	0.2911	-0.094
Mof_C 	C 	0.02597	0.24303	0.30647	0.371
Mof_O 	O 	0.74453	0.63907	0.62362	-0.409
Mof_O 	O 	0.70483	0.55817	0.6686	-0.414
Mof_C 	C 	0.58833	0.54127	0.59349	-0.017
Mof_H 	H 	0.62583	0.59117	0.58297	0.055
Mof_C 	C 	0.60973	0.52167	0.62444	-0.094
Mof_C 	C 	0.69263	0.57637	0.63981	0.372
Mof_O 	O 	0.4388	0.0276	0.04305	-0.409
Mof_O 	O 	0.48	0.1085	0.99807	-0.414
Mof_C 	C 	0.3804	0.1254	0.07318	-0.017
Mof_H 	H 	0.368	0.0755	0.0837	0.055
Mof_C 	C 	0.4214	0.145	0.04223	-0.094
Mof_C 	C 	0.4496	0.0903	0.02686	0.372
Mof_O 	O 	0.10547	0.36093	0.37638	-0.409
Mof_O 	O 	0.14667	0.44183	0.3314	-0.414
Mof_C 	C 	0.04707	0.45873	0.40651	-0.017
Mof_H 	H 	0.03467	0.40883	0.41703	0.055
Mof_C 	C 	0.08807	0.47833	0.37556	-0.094
Mof_C 	C 	0.11627	0.42363	0.36019	0.372
Mof_O 	O 	0.77213	0.69427	0.70972	-0.409
Mof_O 	O 	0.81333	0.77517	0.66474	-0.414
Mof_C 	C 	0.71373	0.79207	0.73985	-0.017
Mof_H 	H 	0.70133	0.74217	0.75037	0.055
Mof_C 	C 	0.75473	0.81167	0.7089	-0.094
Mof_C 	C 	0.78293	0.75697	0.69353	0.372
Mof_O 	O 	0.5888	0.5612	0.04305	-0.409
Mof_O 	O 	0.6285	0.52	0.99807	-0.414
Mof_C 	C 	0.745	0.6196	0.07318	-0.017
Mof_H 	H 	0.7075	0.632	0.0837	0.055
Mof_C 	C 	0.7236	0.5786	0.04223	-0.094
Mof_C 	C 	0.6407	0.5504	0.02686	0.372
Mof_O 	O 	0.25547	0.89453	0.37638	-0.409
Mof_O 	O 	0.29517	0.85333	0.3314	-0.414
Mof_C 	C 	0.41167	0.95293	0.40651	-0.017
Mof_H 	H 	0.37417	0.96533	0.41703	0.055
Mof_C 	C 	0.39027	0.91193	0.37556	-0.094
Mof_C 	C 	0.30737	0.88373	0.36019	0.372
Mof_O 	O 	0.92213	0.22787	0.70972	-0.409
Mof_O 	O 	0.96183	0.18667	0.66474	-0.414
Mof_C 	C 	0.07833	0.28627	0.73985	-0.017
Mof_H 	H 	0.04083	0.29867	0.75037	0.055
Mof_C 	C 	0.05693	0.24527	0.7089	-0.094
Mof_C 	C 	0.97403	0.21707	0.69353	0.371
Mof_O 	O 	0.9724	0.4112	0.04305	-0.409
Mof_O 	O 	0.8915	0.3715	0.99807	-0.414
Mof_C 	C 	0.8746	0.255	0.07318	-0.017
Mof_H 	H 	0.9245	0.2925	0.0837	0.055
Mof_C 	C 	0.855	0.2764	0.04223	-0.094
Mof_C 	C 	0.9097	0.3593	0.02686	0.372
Mof_O 	O 	0.63907	0.74453	0.37638	-0.409
Mof_O 	O 	0.55817	0.70483	0.3314	-0.414
Mof_C 	C 	0.54127	0.58833	0.40651	-0.017
Mof_H 	H 	0.59117	0.62583	0.41703	0.055
Mof_C 	C 	0.52167	0.60973	0.37556	-0.094
Mof_C 	C 	0.57637	0.69263	0.36019	0.372
Mof_O 	O 	0.30573	0.07787	0.70972	-0.409
Mof_O 	O 	0.22483	0.03817	0.66474	-0.414
Mof_C 	C 	0.20793	0.92167	0.73985	-0.017
Mof_H 	H 	0.25783	0.95917	0.75037	0.055
Mof_C 	C 	0.18833	0.94307	0.7089	-0.094
Mof_C 	C 	0.24303	0.02597	0.69353	0.371
Mof_Cu	Cu	0.04881	0.52441	0.02667	0.909
Mof_Cu	Cu	0.71548	0.85774	0.36	0.909
Mof_Cu	Cu	0.38214	0.19107	0.69334	0.909
Mof_Cu	Cu	0.47559	0.52441	0.02667	0.909
Mof_Cu	Cu	0.14226	0.85774	0.36	0.909
Mof_Cu	Cu	0.80893	0.19107	0.69334	0.909
Mof_Cu	Cu	0.47559	0.95119	0.02667	0.909
Mof_Cu	Cu	0.14226	0.28452	0.36	0.909
Mof_Cu	Cu	0.80893	0.61786	0.69334	0.909
Mof_Cu	Cu	0.52441	0.04881	0.97333	0.909
Mof_Cu	Cu	0.19107	0.38214	0.30666	0.909
Mof_Cu	Cu	0.85774	0.71548	0.64	0.909
Mof_Cu	Cu	0.52441	0.47559	0.97333	0.909
Mof_Cu	Cu	0.19107	0.80893	0.30666	0.909
Mof_Cu	Cu	0.85774	0.14226	0.64	0.909
Mof_Cu	Cu	0.95119	0.4756	0.97333	0.909
Mof_Cu	Cu	0.61786	0.80893	0.30666	0.909
Mof_Cu	Cu	0.28452	0.14226	0.64	0.909
Mof_C 	C 	0.82285	0.6457	0.1514	0.015
Mof_C 	C 	0.84325	0.6865	0.1216	0.011
Mof_C 	C 	0.88575	0.7715	0.1208	-0.082
Mof_H 	H 	0.9002	0.8004	0.1007	0.065
Mof_C 	C 	0.90775	0.8155	0.1521	0.004
Mof_H 	H 	0.9369	0.8738	0.1522	0.029
Mof_C 	C 	0.77955	0.5591	0.02741	0.035
Mof_H 	H 	0.766	0.532	0.0069	0.049
Mof_C 	C 	0.77965	0.5593	0.1521	-0.085
Mof_H 	H 	0.76475	0.5295	0.1322	0.067
Mof_C 	C 	0.8209	0.6418	0.0882	-0.003
Mof_C 	C 	0.48952	0.97903	0.48473	0.015
Mof_C 	C 	0.50992	0.01983	0.45493	0.011
Mof_C 	C 	0.55242	0.10483	0.45413	-0.082
Mof_H 	H 	0.56687	0.13373	0.43403	0.065
Mof_C 	C 	0.57442	0.14883	0.48543	0.004
Mof_H 	H 	0.60357	0.20713	0.48553	0.029
Mof_C 	C 	0.44622	0.89243	0.36074	0.035
Mof_H 	H 	0.43267	0.86533	0.34023	0.049
Mof_C 	C 	0.44632	0.89263	0.48543	-0.085
Mof_H 	H 	0.43142	0.86283	0.46553	0.067
Mof_C 	C 	0.48757	0.97513	0.42153	-0.003
Mof_C 	C 	0.15618	0.31237	0.81807	0.015
Mof_C 	C 	0.17658	0.35317	0.78827	0.011
Mof_C 	C 	0.21908	0.43817	0.78747	-0.082
Mof_H 	H 	0.23353	0.46707	0.76737	0.065
Mof_C 	C 	0.24108	0.48217	0.81877	0.004
Mof_H 	H 	0.27023	0.54047	0.81887	0.029
Mof_C 	C 	0.11288	0.22577	0.69408	0.034
Mof_H 	H 	0.09933	0.19867	0.67357	0.049
Mof_C 	C 	0.11298	0.22597	0.81877	-0.085
Mof_H 	H 	0.09808	0.19617	0.79887	0.067
Mof_C 	C 	0.15423	0.30847	0.75487	-0.003
Mof_C 	C 	0.3543	0.17715	0.1514	0.015
Mof_C 	C 	0.3135	0.15675	0.1216	0.011
Mof_C 	C 	0.2285	0.11425	0.1208	-0.082
Mof_H 	H 	0.1996	0.0998	0.1007	0.065
Mof_C 	C 	0.1845	0.09225	0.1521	0.004
Mof_H 	H 	0.1262	0.0631	0.1522	0.029
Mof_C 	C 	0.4409	0.22045	0.02741	0.035
Mof_H 	H 	0.468	0.234	0.0069	0.049
Mof_C 	C 	0.4407	0.22035	0.1521	-0.085
Mof_H 	H 	0.4705	0.23525	0.1322	0.067
Mof_C 	C 	0.3582	0.1791	0.0882	-0.003
Mof_C 	C 	0.02097	0.51048	0.48473	0.015
Mof_C 	C 	0.98017	0.49008	0.45493	0.011
Mof_C 	C 	0.89517	0.44758	0.45413	-0.082
Mof_H 	H 	0.86627	0.43313	0.43403	0.065
Mof_C 	C 	0.85117	0.42558	0.48543	0.004
Mof_H 	H 	0.79287	0.39643	0.48553	0.029
Mof_C 	C 	0.10757	0.55378	0.36074	0.035
Mof_H 	H 	0.13467	0.56733	0.34023	0.049
Mof_C 	C 	0.10737	0.55368	0.48543	-0.085
Mof_H 	H 	0.13717	0.56858	0.46553	0.067
Mof_C 	C 	0.02487	0.51243	0.42153	-0.003
Mof_C 	C 	0.68763	0.84382	0.81807	0.015
Mof_C 	C 	0.64683	0.82342	0.78827	0.011
Mof_C 	C 	0.56183	0.78092	0.78747	-0.082
Mof_H 	H 	0.53293	0.76647	0.76737	0.065
Mof_C 	C 	0.51783	0.75892	0.81877	0.004
Mof_H 	H 	0.45953	0.72977	0.81887	0.029
Mof_C 	C 	0.77423	0.88712	0.69408	0.034
Mof_H 	H 	0.80133	0.90067	0.67357	0.049
Mof_C 	C 	0.77403	0.88702	0.81877	-0.085
Mof_H 	H 	0.80383	0.90192	0.79887	0.067
Mof_C 	C 	0.69153	0.84577	0.75487	-0.003
Mof_C 	C 	0.82285	0.17715	0.1514	0.015
Mof_C 	C 	0.84325	0.15675	0.1216	0.011
Mof_C 	C 	0.88575	0.11425	0.1208	-0.082
Mof_H 	H 	0.9002	0.0998	0.1007	0.065
Mof_C 	C 	0.90775	0.09225	0.1521	0.004
Mof_H 	H 	0.9369	0.0631	0.1522	0.029
Mof_C 	C 	0.77955	0.22045	0.02741	0.035
Mof_H 	H 	0.766	0.234	0.0069	0.049
Mof_C 	C 	0.77965	0.22035	0.1521	-0.085
Mof_H 	H 	0.76475	0.23525	0.1322	0.067
Mof_C 	C 	0.8209	0.1791	0.0882	-0.003
Mof_C 	C 	0.48952	0.51048	0.48473	0.015
Mof_C 	C 	0.50992	0.49008	0.45493	0.011
Mof_C 	C 	0.55242	0.44758	0.45413	-0.082
Mof_H 	H 	0.56687	0.43313	0.43403	0.065
Mof_C 	C 	0.57442	0.42558	0.48543	0.004
Mof_H 	H 	0.60357	0.39643	0.48553	0.029
Mof_C 	C 	0.44622	0.55378	0.36074	0.035
Mof_H 	H 	0.43267	0.56733	0.34023	0.049
Mof_C 	C 	0.44632	0.55368	0.48543	-0.085
Mof_H 	H 	0.43142	0.56858	0.46553	0.067
Mof_C 	C 	0.48757	0.51243	0.42153	-0.003
Mof_C 	C 	0.15618	0.84382	0.81807	0.015
Mof_C 	C 	0.17658	0.82342	0.78827	0.011
Mof_C 	C 	0.21908	0.78092	0.78747	-0.082
Mof_H 	H 	0.23353	0.76647	0.76737	0.065
Mof_C 	C 	0.24108	0.75892	0.81877	0.004
Mof_H 	H 	0.27023	0.72977	0.81887	0.029
Mof_C 	C 	0.11288	0.88712	0.69408	0.034
Mof_H 	H 	0.09933	0.90067	0.67357	0.049
Mof_C 	C 	0.11298	0.88702	0.81877	-0.085
Mof_H 	H 	0.09808	0.90192	0.79887	0.067
Mof_C 	C 	0.15423	0.84577	0.75487	-0.003
Mof_C 	C 	0.6457	0.82285	0.8486	0.015
Mof_C 	C 	0.6865	0.84325	0.8784	0.011
Mof_C 	C 	0.7715	0.88575	0.8792	-0.082
Mof_H 	H 	0.8004	0.9002	0.8993	0.065
Mof_C 	C 	0.8155	0.90775	0.8479	0.004
Mof_H 	H 	0.8738	0.9369	0.8478	0.029
Mof_C 	C 	0.5591	0.77955	0.97259	0.035
Mof_H 	H 	0.532	0.766	0.9931	0.049
Mof_C 	C 	0.5593	0.77965	0.8479	-0.085
Mof_H 	H 	0.5295	0.76475	0.8678	0.067
Mof_C 	C 	0.6418	0.8209	0.9118	-0.003
Mof_C 	C 	0.31237	0.15618	0.18193	0.015
Mof_C 	C 	0.35317	0.17658	0.21173	0.011
Mof_C 	C 	0.43817	0.21908	0.21253	-0.082
Mof_H 	H 	0.46707	0.23353	0.23263	0.065
Mof_C 	C 	0.48217	0.24108	0.18123	0.004
Mof_H 	H 	0.54047	0.27023	0.18113	0.029
Mof_C 	C 	0.22577	0.11288	0.30592	0.034
Mof_H 	H 	0.19867	0.09933	0.32643	0.049
Mof_C 	C 	0.22597	0.11298	0.18123	-0.085
Mof_H 	H 	0.19617	0.09808	0.20113	0.067
Mof_C 	C 	0.30847	0.15423	0.24513	-0.003
Mof_C 	C 	0.97903	0.48952	0.51527	0.015
Mof_C 	C 	0.01983	0.50992	0.54507	0.011
Mof_C 	C 	0.10483	0.55242	0.54587	-0.082
Mof_H 	H 	0.13373	0.56687	0.56597	0.065
Mof_C 	C 	0.14883	0.57442	0.51457	0.004
Mof_H 	H 	0.20713	0.60357	0.51447	0.029
Mof_C 	C 	0.89243	0.44622	0.63926	0.035
Mof_H 	H 	0.86533	0.43267	0.65977	0.049
Mof_C 	C 	0.89263	0.44632	0.51457	-0.085
Mof_H 	H 	0.86283	0.43142	0.53447	0.067
Mof_C 	C 	0.97513	0.48757	0.57847	-0.003
Mof_C 	C 	0.17715	0.3543	0.8486	0.015
Mof_C 	C 	0.15675	0.3135	0.8784	0.011
Mof_C 	C 	0.11425	0.2285	0.8792	-0.082
Mof_H 	H 	0.0998	0.1996	0.8993	0.065
Mof_C 	C 	0.09225	0.1845	0.8479	0.004
Mof_H 	H 	0.0631	0.1262	0.8478	0.029
Mof_C 	C 	0.22045	0.4409	0.97259	0.035
Mof_H 	H 	0.234	0.468	0.9931	0.049
Mof_C 	C 	0.22035	0.4407	0.8479	-0.085
Mof_H 	H 	0.23525	0.4705	0.8678	0.067
Mof_C 	C 	0.1791	0.3582	0.9118	-0.003
Mof_C 	C 	0.84382	0.68763	0.18193	0.015
Mof_C 	C 	0.82342	0.64683	0.21173	0.011
Mof_C 	C 	0.78092	0.56183	0.21253	-0.082
Mof_H 	H 	0.76647	0.53293	0.23263	0.065
Mof_C 	C 	0.75892	0.51783	0.18123	0.004
Mof_H 	H 	0.72977	0.45953	0.18113	0.029
Mof_C 	C 	0.88712	0.77423	0.30592	0.034
Mof_H 	H 	0.90067	0.80133	0.32643	0.049
Mof_C 	C 	0.88702	0.77403	0.18123	-0.085
Mof_H 	H 	0.90192	0.80383	0.20113	0.067
Mof_C 	C 	0.84577	0.69153	0.24513	-0.003
Mof_C 	C 	0.51048	0.02097	0.51527	0.015
Mof_C 	C 	0.49008	0.98017	0.54507	0.011
Mof_C 	C 	0.44758	0.89517	0.54587	-0.082
Mof_H 	H 	0.43313	0.86627	0.56597	0.065
Mof_C 	C 	0.42558	0.85117	0.51457	0.004
Mof_H 	H 	0.39643	0.79287	0.51447	0.029
Mof_C 	C 	0.55378	0.10757	0.63926	0.035
Mof_H 	H 	0.56733	0.13467	0.65977	0.049
Mof_C 	C 	0.55368	0.10737	0.51457	-0.085
Mof_H 	H 	0.56858	0.13717	0.53447	0.067
Mof_C 	C 	0.51243	0.02487	0.57847	-0.003
Mof_C 	C 	0.17715	0.82285	0.8486	0.015
Mof_C 	C 	0.15675	0.84325	0.8784	0.011
Mof_C 	C 	0.11425	0.88575	0.8792	-0.082
Mof_H 	H 	0.0998	0.9002	0.8993	0.065
Mof_C 	C 	0.09225	0.90775	0.8479	0.004
Mof_H 	H 	0.0631	0.9369	0.8478	0.029
Mof_C 	C 	0.22045	0.77955	0.97259	0.035
Mof_H 	H 	0.234	0.766	0.9931	0.049
Mof_C 	C 	0.22035	0.77965	0.8479	-0.085
Mof_H 	H 	0.23525	0.76475	0.8678	0.067
Mof_C 	C 	0.1791	0.8209	0.9118	-0.003
Mof_C 	C 	0.84382	0.15618	0.18193	0.015
Mof_C 	C 	0.82342	0.17658	0.21173	0.011
Mof_C 	C 	0.78092	0.21908	0.21253	-0.082
Mof_H 	H 	0.76647	0.23353	0.23263	0.065
Mof_C 	C 	0.75892	0.24108	0.18123	0.004
Mof_H 	H 	0.72977	0.27023	0.18113	0.029
Mof_C 	C 	0.88712	0.11288	0.30592	0.034
Mof_H 	H 	0.90067	0.09933	0.32643	0.049
Mof_C 	C 	0.88702	0.11298	0.18123	-0.085
Mof_H 	H 	0.90192	0.09808	0.20113	0.067
Mof_C 	C 	0.84577	0.15423	0.24513	-0.003
Mof_C 	C 	0.51048	0.48952	0.51527	0.015
Mof_C 	C 	0.49008	0.50992	0.54507	0.011
Mof_C 	C 	0.44758	0.55242	0.54587	-0.082
Mof_H 	H 	0.43313	0.56687	0.56597	0.065
Mof_C 	C 	0.42558	0.57442	0.51457	0.004
Mof_H 	H 	0.39643	0.60357	0.51447	0.029
Mof_C 	C 	0.55378	0.44622	0.63926	0.035
Mof_H 	H 	0.56733	0.43267	0.65977	0.049
Mof_C 	C 	0.55368	0.44632	0.51457	-0.085
Mof_H 	H 	0.56858	0.43142	0.53447	0.067
Mof_C 	C 	0.51243	0.48757	0.57847	-0.003
_end
