# CIF file generated by openbabel 3.1.0, see https://openbabel.org
data_I
_chemical_name_common 'ANONAT_clean'
_cell_length_a 10.922
_cell_length_b 14.981
_cell_length_c 20.4118
_cell_angle_alpha 111.529
_cell_angle_beta 105.518
_cell_angle_gamma 90
_space_group_name_H-M_alt 'P 1'
_space_group_name_Hall 'P 1'
loop_
    _symmetry_equiv_pos_as_xyz
    x,y,z
loop_
    _atom_site_label
    _atom_site_type_symbol
    _atom_site_fract_x
    _atom_site_fract_y
    _atom_site_fract_z
    _atom_site_occupancy
    Cu1      Cu       0.55963    0.47373    0.94746    1.000
    Cu2      Cu       0.11217    0.02627    0.05254    1.000
    Cu3      Cu       0.88783    0.97373    0.94746    1.000
    Cu4      Cu       0.44037    0.52627    0.05254    1.000
    H1       H        0.73770    0.46060    0.21660    1.000
    H2       H        0.76650    0.31200    0.43540    1.000
    H11      H        0.02110    0.03940    0.78340    1.000
    H12      H        0.83110    0.18800    0.56460    1.000
    H21      H        0.97890    0.25600    0.21660    1.000
    H22      H        0.16890    0.62340    0.43540    1.000
    H31      H        0.26230    0.24400    0.78340    1.000
    H32      H        0.23350    0.87660    0.56460    1.000
    H41      H        0.26230    0.53940    0.78340    1.000
    H42      H        0.23350    0.68800    0.56460    1.000
    H51      H        0.97890    0.96060    0.21660    1.000
    H52      H        0.16890    0.81200    0.43540    1.000
    H61      H        0.02110    0.74400    0.78340    1.000
    H62      H        0.83110    0.37660    0.56460    1.000
    H71      H        0.73770    0.75600    0.21660    1.000
    H72      H        0.76650    0.12340    0.43540    1.000
    H85      H        0.76170    0.26170    0.02340    1.000
    H86      H        0.23830    0.23830    0.97660    1.000
    H87      H        0.23830    0.73830    0.97660    1.000
    H88      H        0.76170    0.76170    0.02340    1.000
    C1       C        0.64710    0.41814    0.07260    1.000
    C2       C        0.73813    0.36951    0.11346    1.000
    C3       C        0.77426    0.40644    0.19012    1.000
    C4       C        0.84672    0.35882    0.34144    1.000
    C5       C        0.88754    0.40114    0.42348    1.000
    C6       C        0.83216    0.36436    0.46132    1.000
    C13      C        0.07450    0.08186    0.92740    1.000
    C14      C        0.12467    0.13049    0.88654    1.000
    C15      C        0.08414    0.09356    0.80988    1.000
    C16      C        0.00528    0.14118    0.65856    1.000
    C17      C        0.96406    0.09886    0.57652    1.000
    C18      C        0.87084    0.13564    0.53868    1.000
    C25      C        0.92550    0.15446    0.07260    1.000
    C26      C        0.87533    0.24395    0.11346    1.000
    C27      C        0.91586    0.28368    0.19012    1.000
    C28      C        0.99472    0.48262    0.34144    1.000
    C29      C        0.03594    0.52234    0.42348    1.000
    C30      C        0.12916    0.59696    0.46132    1.000
    C37      C        0.35290    0.34554    0.92740    1.000
    C38      C        0.26187    0.25605    0.88654    1.000
    C39      C        0.22574    0.21632    0.80988    1.000
    C40      C        0.15328    0.01738    0.65856    1.000
    C41      C        0.11246    0.97766    0.57652    1.000
    C42      C        0.16784    0.90304    0.53868    1.000
    C49      C        0.35290    0.58186    0.92740    1.000
    C50      C        0.26187    0.63049    0.88654    1.000
    C51      C        0.22574    0.59356    0.80988    1.000
    C52      C        0.15328    0.64118    0.65856    1.000
    C53      C        0.11246    0.59886    0.57652    1.000
    C54      C        0.16784    0.63564    0.53868    1.000
    C61      C        0.92550    0.91814    0.07260    1.000
    C62      C        0.87533    0.86951    0.11346    1.000
    C63      C        0.91586    0.90644    0.19012    1.000
    C64      C        0.99472    0.85882    0.34144    1.000
    C65      C        0.03594    0.90114    0.42348    1.000
    C66      C        0.12916    0.86436    0.46132    1.000
    C73      C        0.07450    0.84554    0.92740    1.000
    C74      C        0.12467    0.75605    0.88654    1.000
    C75      C        0.08414    0.71632    0.80988    1.000
    C76      C        0.00528    0.51738    0.65856    1.000
    C77      C        0.96406    0.47766    0.57652    1.000
    C78      C        0.87084    0.40304    0.53868    1.000
    C85      C        0.64710    0.65446    0.07260    1.000
    C86      C        0.73813    0.74395    0.11346    1.000
    C87      C        0.77426    0.78368    0.19012    1.000
    C88      C        0.84672    0.98262    0.34144    1.000
    C89      C        0.88754    0.02234    0.42348    1.000
    C90      C        0.83216    0.09696    0.46132    1.000
    C101     C        0.86357    0.36357    0.22714    1.000
    C102     C        0.78786    0.28786    0.07572    1.000
    C103     C        0.98043    0.48043    0.46086    1.000
    C104     C        0.13643    0.13643    0.77286    1.000
    C105     C        0.21214    0.21214    0.92428    1.000
    C106     C        0.01957    0.01957    0.53914    1.000
    C107     C        0.13643    0.63643    0.77286    1.000
    C108     C        0.21214    0.71214    0.92428    1.000
    C109     C        0.01957    0.51957    0.53914    1.000
    C110     C        0.86357    0.86357    0.22714    1.000
    C111     C        0.78786    0.78786    0.07572    1.000
    C112     C        0.98043    0.98043    0.46086    1.000
    N5       N        0.90350    0.40350    0.30700    1.000
    N6       N        0.09650    0.09650    0.69300    1.000
    N7       N        0.09650    0.59650    0.69300    1.000
    N8       N        0.90350    0.90350    0.30700    1.000
    O1       O        0.66007    0.41212    0.01196    1.000
    O2       O        0.56560    0.46134    0.10226    1.000
    O3       O        0.76936    0.28946    0.30652    1.000
    O4       O        0.14811    0.08788    0.98804    1.000
    O5       O        0.96334    0.03866    0.89774    1.000
    O6       O        0.96284    0.21054    0.69348    1.000
    O7       O        0.85189    0.09984    0.01196    1.000
    O8       O        0.03666    0.14092    0.10226    1.000
    O9       O        0.03716    0.51706    0.30652    1.000
    O10      O        0.33993    0.40016    0.98804    1.000
    O11      O        0.43440    0.35908    0.89774    1.000
    O12      O        0.23064    0.98294    0.69348    1.000
    O13      O        0.33993    0.58788    0.98804    1.000
    O14      O        0.43440    0.53866    0.89774    1.000
    O15      O        0.23064    0.71054    0.69348    1.000
    O16      O        0.85189    0.91212    0.01196    1.000
    O17      O        0.03666    0.96134    0.10226    1.000
    O18      O        0.03716    0.78946    0.30652    1.000
    O19      O        0.14811    0.90016    0.98804    1.000
    O20      O        0.96334    0.85908    0.89774    1.000
    O21      O        0.96284    0.48294    0.69348    1.000
    O22      O        0.66007    0.59984    0.01196    1.000
    O23      O        0.56560    0.64092    0.10226    1.000
    O24      O        0.76936    0.01706    0.30652    1.000
