data_functionalizedCrystal
_audit_creation_method	'EQeq! by Chris Wilmer'
_symmetry_space_group_name_H-M	'P1'
_symmetry_Int_Tables_number	1
_symmetry_cell_setting	triclinic
loop_
_symmetry_equiv_pos_as_xyz
  x,y,z
_cell_length_a	7.979
_cell_length_b	12.095
_cell_length_c	12.297
_cell_angle_alpha	111.681
_cell_angle_beta	89.932
_cell_angle_gamma	100.158
loop_
_atom_site_label
_atom_site_type_symbol
_atom_site_fract_x
_atom_site_fract_y
_atom_site_fract_z
_atom_site_charge
Mof_C 	C 	0.6461	0.4243	0.1435	0.466
Mof_C 	C 	0.7181	0.311	0.0855	-0.258
Mof_H 	H 	0.739	0.2776	0.1437	0.104
Mof_H 	H 	0.6344	0.2514	0.0262	0.101
Mof_C 	C 	0.8857	0.3337	0.0277	-0.26
Mof_H 	H 	0.9625	0.4025	0.0839	0.091
Mof_H 	H 	0.9394	0.2636	0.0093	0.096
Mof_C 	C 	0.8631	0.3581	0.9172	0.491
Mof_C 	C 	0.1436	0.4235	0.3019	0.42
Mof_C 	C 	0.216	0.3079	0.2755	-0.091
Mof_C 	C 	0.3841	0.3303	0.3488	-0.103
Mof_C 	C 	0.3652	0.3606	0.4781	0.424
Mof_C 	C 	0.3259	0.8653	0.3208	0.45
Mof_C 	C 	0.2449	0.9741	0.3641	-0.286
Mof_H 	H 	0.2861	0.0271	0.3229	0.113
Mof_H 	H 	0.1222	0.9492	0.3474	0.106
Mof_C 	C 	0.2836	0.0422	0.4935	-0.198
Mof_H 	H 	0.4041	0.0784	0.508	0.062
Mof_H 	H 	0.2618	0.9852	0.5327	0.084
Mof_C 	C 	0.1809	0.141	0.5471	0.413
Mof_La	La	0.99062	0.64541	0.35392	2.162
Mof_La	La	0.49033	0.64508	0.25104	2.145
Mof_O 	O 	0.7365	0.5157	0.2174	-0.633
Mof_O 	O 	0.4924	0.4246	0.1191	-0.491
Mof_O 	O 	0.2334	0.5154	0.2938	-0.614
Mof_O 	O 	0.9919	0.426	0.3272	-0.482
Mof_O 	O 	0.2722	0.7796	0.3567	-0.646
Mof_O 	O 	0.4458	0.8578	0.2569	-0.48
Mof_O 	O 	0.7318	0.3935	0.9032	-0.556
Mof_O 	O 	0.9852	0.3457	0.85	-0.519
Mof_O 	O 	0.2307	0.2196	0.6499	-0.636
Mof_O 	O 	0.0536	0.1465	0.4938	-0.47
Mof_O 	O 	0.487	0.3491	0.5377	-0.484
Mof_O 	O 	0.2317	0.3972	0.5202	-0.521
Mof_C 	C 	0.3539	0.5757	0.8565	0.466
Mof_C 	C 	0.2819	0.689	0.9145	-0.258
Mof_H 	H 	0.261	0.7224	0.8563	0.104
Mof_H 	H 	0.3656	0.7486	0.9738	0.101
Mof_C 	C 	0.1143	0.6663	0.9723	-0.26
Mof_H 	H 	0.0375	0.5975	0.9161	0.091
Mof_H 	H 	0.0606	0.7364	0.9907	0.096
Mof_C 	C 	0.1369	0.6419	0.0828	0.491
Mof_C 	C 	0.8564	0.5765	0.6981	0.42
Mof_C 	C 	0.784	0.6921	0.7245	-0.091
Mof_C 	C 	0.6159	0.6697	0.6512	-0.103
Mof_C 	C 	0.6348	0.6394	0.5219	0.424
Mof_C 	C 	0.6741	0.1347	0.6792	0.45
Mof_C 	C 	0.7551	0.0259	0.6359	-0.286
Mof_H 	H 	0.7139	0.9729	0.6771	0.113
Mof_H 	H 	0.8778	0.0508	0.6526	0.106
Mof_C 	C 	0.7164	0.9578	0.5065	-0.198
Mof_H 	H 	0.5959	0.9216	0.492	0.062
Mof_H 	H 	0.7382	0.0148	0.4673	0.084
Mof_C 	C 	0.8191	0.859	0.4529	0.413
Mof_La	La	0.00938	0.35459	0.64608	2.162
Mof_La	La	0.50967	0.35492	0.74896	2.145
Mof_O 	O 	0.2635	0.4843	0.7826	-0.633
Mof_O 	O 	0.5076	0.5754	0.8809	-0.491
Mof_O 	O 	0.7666	0.4846	0.7062	-0.614
Mof_O 	O 	0.0081	0.574	0.6728	-0.482
Mof_O 	O 	0.7278	0.2204	0.6433	-0.646
Mof_O 	O 	0.5542	0.1422	0.7431	-0.48
Mof_O 	O 	0.2682	0.6065	0.0968	-0.556
Mof_O 	O 	0.0148	0.6543	0.15	-0.519
Mof_O 	O 	0.7693	0.7804	0.3501	-0.636
Mof_O 	O 	0.9464	0.8535	0.5062	-0.47
Mof_O 	O 	0.513	0.6509	0.4623	-0.484
Mof_O 	O 	0.7683	0.6028	0.4798	-0.521
_end
