# CIF file generated by openbabel 3.1.0, see https://openbabel.org
data_I
_chemical_name_common 'image0'
_cell_length_a 14.802
_cell_length_b 14.78
_cell_length_c 20.801
_cell_angle_alpha 90
_cell_angle_beta 90.36
_cell_angle_gamma 90
_space_group_name_H-M_alt 'P 1'
_space_group_name_Hall 'P 1'
loop_
    _symmetry_equiv_pos_as_xyz
    x,y,z
loop_
    _atom_site_label
    _atom_site_type_symbol
    _atom_site_fract_x
    _atom_site_fract_y
    _atom_site_fract_z
    _atom_site_occupancy
    As1      As       0.54589    0.02503    0.37157    1.000
    As2      As       0.38037    0.77363    0.12329    1.000
    As3      As       0.33590    0.23164    0.12136    1.000
    As4      As       0.09077    0.97933    0.32931    1.000
    Mn1      Mn       0.47288    0.88906    0.24993    1.000
    Mn2      Mn       0.44835    0.13526    0.24599    1.000
    Mn3      Mn       0.31677    0.00072    0.36021    1.000
    Mn4      Mn       0.22698    0.86539    0.22448    1.000
    Mn5      Mn       0.35999    0.00260    0.11497    1.000
    Mn6      Mn       0.20532    0.11259    0.22583    1.000
    S1       S        0.33850    0.00040    0.23712    1.000
    S2       S        0.58380    0.02580    0.26670    1.000
    S3       S        0.46150    0.89890    0.37383    1.000
    S4       S        0.36200    0.75360    0.22943    1.000
    S5       S        0.48840    0.88130    0.12509    1.000
    S6       S        0.43660    0.12980    0.37156    1.000
    S7       S        0.46180    0.14740    0.12129    1.000
    S8       S        0.31630    0.24920    0.22787    1.000
    S9       S        0.23300    0.12340    0.10169    1.000
    S10      S        0.19660    0.87270    0.34842    1.000
    S11      S        0.25680    0.85640    0.10105    1.000
    S12      S        0.09150    0.97880    0.22129    1.000
    S13      S        0.17170    0.10450    0.34981    1.000
    N1       N        0.58780    0.78800    0.25950    1.000
    H1       H        0.63980    0.81850    0.25390    1.000
    H2       H        0.58800    0.76770    0.30030    1.000
    N2       N        0.59020    0.71170    0.21880    1.000
    H3       H        0.58830    0.73210    0.17810    1.000
    H4       H        0.53880    0.68050    0.22520    1.000
    N3       N        0.54650    0.25120    0.25230    1.000
    H5       H        0.51680    0.30200    0.24110    1.000
    H6       H        0.56300    0.25740    0.29380    1.000
    N4       N        0.62660    0.24660    0.21500    1.000
    H7       H        0.61030    0.24190    0.17340    1.000
    H8       H        0.65600    0.19540    0.22570    1.000
    N5       N        0.29750    0.00240    0.46910    1.000
    H9       H        0.26680    0.05280    0.47950    1.000
    H10      H        0.26290    0.95470    0.47990    1.000
    N6       N        0.37740    0.99950    0.50730    1.000
    H11      H        0.41130    0.04790    0.49720    1.000
    H12      H        0.40880    0.94990    0.49600    1.000
    As5      As       0.04589    0.52503    0.37157    1.000
    As6      As       0.88037    0.27363    0.12329    1.000
    As7      As       0.83590    0.73164    0.12136    1.000
    As8      As       0.59077    0.47933    0.32931    1.000
    Mn7      Mn       0.97288    0.38906    0.24993    1.000
    Mn8      Mn       0.94835    0.63526    0.24599    1.000
    Mn9      Mn       0.81677    0.50072    0.36021    1.000
    Mn10     Mn       0.72698    0.36539    0.22448    1.000
    Mn11     Mn       0.85999    0.50260    0.11497    1.000
    Mn12     Mn       0.70532    0.61259    0.22583    1.000
    S14      S        0.83850    0.50040    0.23712    1.000
    S15      S        0.08380    0.52580    0.26670    1.000
    S16      S        0.96150    0.39890    0.37383    1.000
    S17      S        0.86200    0.25360    0.22943    1.000
    S18      S        0.98840    0.38130    0.12509    1.000
    S19      S        0.93660    0.62980    0.37156    1.000
    S20      S        0.96180    0.64740    0.12129    1.000
    S21      S        0.81630    0.74920    0.22787    1.000
    S22      S        0.73300    0.62340    0.10169    1.000
    S23      S        0.69660    0.37270    0.34842    1.000
    S24      S        0.75680    0.35640    0.10105    1.000
    S25      S        0.59150    0.47880    0.22129    1.000
    S26      S        0.67170    0.60450    0.34981    1.000
    N7       N        0.08780    0.28800    0.25950    1.000
    H13      H        0.13980    0.31850    0.25390    1.000
    H14      H        0.08800    0.26770    0.30030    1.000
    N8       N        0.09020    0.21170    0.21880    1.000
    H15      H        0.08830    0.23210    0.17810    1.000
    H16      H        0.03880    0.18050    0.22520    1.000
    N9       N        0.04650    0.75120    0.25230    1.000
    H17      H        0.01680    0.80200    0.24110    1.000
    H18      H        0.06300    0.75740    0.29380    1.000
    N10      N        0.12660    0.74660    0.21500    1.000
    H19      H        0.11030    0.74190    0.17340    1.000
    H20      H        0.15600    0.69540    0.22570    1.000
    N11      N        0.79750    0.50240    0.46910    1.000
    H21      H        0.76680    0.55280    0.47950    1.000
    H22      H        0.76290    0.45470    0.47990    1.000
    N12      N        0.87740    0.49950    0.50730    1.000
    H23      H        0.91130    0.54790    0.49720    1.000
    H24      H        0.90880    0.44990    0.49600    1.000
    As9      As       0.54589    0.97497    0.87157    1.000
    As10     As       0.38037    0.22637    0.62329    1.000
    As11     As       0.33590    0.76836    0.62136    1.000
    As12     As       0.09077    0.02067    0.82931    1.000
    Mn13     Mn       0.47288    0.11094    0.74993    1.000
    Mn14     Mn       0.44835    0.86474    0.74599    1.000
    Mn15     Mn       0.31677    0.99928    0.86021    1.000
    Mn16     Mn       0.22698    0.13461    0.72448    1.000
    Mn17     Mn       0.35999    0.99740    0.61497    1.000
    Mn18     Mn       0.20532    0.88741    0.72583    1.000
    S27      S        0.33850    0.99960    0.73712    1.000
    S28      S        0.58380    0.97420    0.76670    1.000
    S29      S        0.46150    0.10110    0.87383    1.000
    S30      S        0.36200    0.24640    0.72943    1.000
    S31      S        0.48840    0.11870    0.62509    1.000
    S32      S        0.43660    0.87020    0.87156    1.000
    S33      S        0.46180    0.85260    0.62129    1.000
    S34      S        0.31630    0.75080    0.72787    1.000
    S35      S        0.23300    0.87660    0.60169    1.000
    S36      S        0.19660    0.12730    0.84842    1.000
    S37      S        0.25680    0.14360    0.60105    1.000
    S38      S        0.09150    0.02120    0.72129    1.000
    S39      S        0.17170    0.89550    0.84981    1.000
    N13      N        0.58780    0.21200    0.75950    1.000
    H25      H        0.63980    0.18150    0.75390    1.000
    H26      H        0.58800    0.23230    0.80030    1.000
    N14      N        0.59020    0.28830    0.71880    1.000
    H27      H        0.58830    0.26790    0.67810    1.000
    H28      H        0.53880    0.31950    0.72520    1.000
    N15      N        0.54650    0.74880    0.75230    1.000
    H29      H        0.51680    0.69800    0.74110    1.000
    H30      H        0.56300    0.74260    0.79380    1.000
    N16      N        0.62660    0.75340    0.71500    1.000
    H31      H        0.61030    0.75810    0.67340    1.000
    H32      H        0.65600    0.80460    0.72570    1.000
    N17      N        0.29750    0.99760    0.96910    1.000
    H33      H        0.26680    0.94720    0.97950    1.000
    H34      H        0.26290    0.04530    0.97990    1.000
    N18      N        0.37740    0.00050    0.00730    1.000
    H35      H        0.41130    0.95210    0.99720    1.000
    H36      H        0.40880    0.05010    0.99600    1.000
    As13     As       0.04589    0.47497    0.87157    1.000
    As14     As       0.88037    0.72637    0.62329    1.000
    As15     As       0.83590    0.26836    0.62136    1.000
    As16     As       0.59077    0.52067    0.82931    1.000
    Mn19     Mn       0.97288    0.61094    0.74993    1.000
    Mn20     Mn       0.94835    0.36474    0.74599    1.000
    Mn21     Mn       0.81677    0.49928    0.86021    1.000
    Mn22     Mn       0.72698    0.63461    0.72448    1.000
    Mn23     Mn       0.85999    0.49740    0.61497    1.000
    Mn24     Mn       0.70532    0.38741    0.72583    1.000
    S40      S        0.83850    0.49960    0.73712    1.000
    S41      S        0.08380    0.47420    0.76670    1.000
    S42      S        0.96150    0.60110    0.87383    1.000
    S43      S        0.86200    0.74640    0.72943    1.000
    S44      S        0.98840    0.61870    0.62509    1.000
    S45      S        0.93660    0.37020    0.87156    1.000
    S46      S        0.96180    0.35260    0.62129    1.000
    S47      S        0.81630    0.25080    0.72787    1.000
    S48      S        0.73300    0.37660    0.60169    1.000
    S49      S        0.69660    0.62730    0.84842    1.000
    S50      S        0.75680    0.64360    0.60105    1.000
    S51      S        0.59150    0.52120    0.72129    1.000
    S52      S        0.67170    0.39550    0.84981    1.000
    N19      N        0.08780    0.71200    0.75950    1.000
    H37      H        0.13980    0.68150    0.75390    1.000
    H38      H        0.08800    0.73230    0.80030    1.000
    N20      N        0.09020    0.78830    0.71880    1.000
    H39      H        0.08830    0.76790    0.67810    1.000
    H40      H        0.03880    0.81950    0.72520    1.000
    N21      N        0.04650    0.24880    0.75230    1.000
    H41      H        0.01680    0.19800    0.74110    1.000
    H42      H        0.06300    0.24260    0.79380    1.000
    N22      N        0.12660    0.25340    0.71500    1.000
    H43      H        0.11030    0.25810    0.67340    1.000
    H44      H        0.15600    0.30460    0.72570    1.000
    N23      N        0.79750    0.49760    0.96910    1.000
    H45      H        0.76680    0.44720    0.97950    1.000
    H46      H        0.76290    0.54530    0.97990    1.000
    N24      N        0.87740    0.50050    0.00730    1.000
    H47      H        0.91130    0.45210    0.99720    1.000
    H48      H        0.90880    0.55010    0.99600    1.000
