data_functionalizedCrystal
_audit_creation_method	'EQeq! by Chris Wilmer'
_symmetry_space_group_name_H-M	'P1'
_symmetry_Int_Tables_number	1
_symmetry_cell_setting	triclinic
loop_
_symmetry_equiv_pos_as_xyz
  x,y,z
_cell_length_a	6.442
_cell_length_b	8.91
_cell_length_c	24.416
_cell_angle_alpha	90
_cell_angle_beta	97.291
_cell_angle_gamma	90
loop_
_atom_site_label
_atom_site_type_symbol
_atom_site_fract_x
_atom_site_fract_y
_atom_site_fract_z
_atom_site_charge
Mof_Ag	Ag	0.22426	0.50257	0.69422	0.639
Mof_Ag	Ag	0.77574	0.00257	0.80578	0.634
Mof_Ag	Ag	0.77574	0.49743	0.30578	0.639
Mof_Ag	Ag	0.22426	0.99743	0.19422	0.634
Mof_H 	H 	0.577	0.7013	0.7635	0.018
Mof_H 	H 	0.4293	0.8102	0.7262	0.01
Mof_H 	H 	0.7455	0.4936	0.722	0.017
Mof_H 	H 	0.7056	0.4688	0.6579	0.03
Mof_H 	H 	0.538	0.1939	0.4944	0.053
Mof_H 	H 	0.3689	0.7741	0.6278	0.03
Mof_H 	H 	0.4775	0.6414	0.6002	0.028
Mof_H 	H 	0.6371	0.0169	0.4357	0.078
Mof_H 	H 	0.8478	0.6482	0.596	0.032
Mof_H 	H 	0.9805	0.7852	0.621	0.035
Mof_H 	H 	0.9531	0.7072	0.7591	0.025
Mof_H 	H 	0.0427	0.8204	0.7189	0.016
Mof_H 	H 	0.7603	0.2642	0.5737	0.053
Mof_H 	H 	0.8186	0.9854	0.6625	0.049
Mof_H 	H 	0.5764	0.9854	0.6648	0.048
Mof_H 	H 	0.423	0.2013	0.7365	0.017
Mof_H 	H 	0.5707	0.3102	0.7738	0.009
Mof_H 	H 	0.2545	0.9936	0.778	0.018
Mof_H 	H 	0.2944	0.9688	0.8421	0.031
Mof_H 	H 	0.462	0.6939	0.0056	0.052
Mof_H 	H 	0.6311	0.2741	0.8722	0.029
Mof_H 	H 	0.5225	0.1414	0.8998	0.028
Mof_H 	H 	0.3629	0.5169	0.0643	0.077
Mof_H 	H 	0.1522	0.1482	0.904	0.032
Mof_H 	H 	0.0195	0.2852	0.879	0.035
Mof_H 	H 	0.0469	0.2072	0.7409	0.025
Mof_H 	H 	0.9573	0.3204	0.7811	0.017
Mof_H 	H 	0.2397	0.7642	0.9263	0.054
Mof_H 	H 	0.1814	0.4854	0.8375	0.047
Mof_H 	H 	0.4236	0.4854	0.8352	0.047
Mof_H 	H 	0.423	0.2987	0.2365	0.017
Mof_H 	H 	0.5707	0.1898	0.2738	0.009
Mof_H 	H 	0.2545	0.5064	0.278	0.016
Mof_H 	H 	0.2944	0.5312	0.3421	0.029
Mof_H 	H 	0.462	0.8061	0.5056	0.052
Mof_H 	H 	0.6311	0.2259	0.3722	0.029
Mof_H 	H 	0.5225	0.3586	0.3998	0.028
Mof_H 	H 	0.3629	0.9831	0.5643	0.078
Mof_H 	H 	0.1522	0.3518	0.404	0.032
Mof_H 	H 	0.0195	0.2148	0.379	0.035
Mof_H 	H 	0.0469	0.2928	0.2409	0.025
Mof_H 	H 	0.9573	0.1796	0.2811	0.016
Mof_H 	H 	0.2397	0.7358	0.4263	0.053
Mof_H 	H 	0.1814	0.0146	0.3375	0.049
Mof_H 	H 	0.4236	0.0146	0.3352	0.048
Mof_H 	H 	0.577	0.7987	0.2635	0.017
Mof_H 	H 	0.4293	0.6898	0.2262	0.009
Mof_H 	H 	0.7455	0.0064	0.222	0.018
Mof_H 	H 	0.7056	0.0312	0.1579	0.031
Mof_H 	H 	0.538	0.3061	0.9944	0.052
Mof_H 	H 	0.3689	0.7259	0.1278	0.029
Mof_H 	H 	0.4775	0.8586	0.1002	0.028
Mof_H 	H 	0.6371	0.4831	0.9357	0.077
Mof_H 	H 	0.8478	0.8518	0.096	0.032
Mof_H 	H 	0.9805	0.7148	0.121	0.035
Mof_H 	H 	0.9531	0.7928	0.2591	0.025
Mof_H 	H 	0.0427	0.6796	0.2189	0.017
Mof_H 	H 	0.7603	0.2358	0.0737	0.054
Mof_H 	H 	0.8186	0.5146	0.1625	0.047
Mof_H 	H 	0.5764	0.5146	0.1648	0.047
Mof_C 	C 	0.5556	0.7502	0.7278	0.008
Mof_C 	C 	0.9959	0.1316	0.5601	-0.096
Mof_C 	C 	0.7214	0.5446	0.6866	0.008
Mof_C 	C 	0.6695	0.1499	0.5017	-0.031
Mof_C 	C 	0.4956	0.7144	0.6299	-0.002
Mof_C 	C 	0.7294	0.045	0.4664	-0.082
Mof_C 	C 	0.8624	0.721	0.6258	-0
Mof_C 	C 	0.9305	0.9777	0.4756	0.045
Mof_C 	C 	0.9247	0.7559	0.7234	0.002
Mof_C 	C 	0.8042	0.1934	0.5496	-0.008
Mof_C 	C 	0.6996	0.922	0.667	-0.013
Mof_C 	C 	0.4444	0.2502	0.7722	0.008
Mof_C 	C 	0.0041	0.6316	0.9399	-0.092
Mof_C 	C 	0.2786	0.0446	0.8134	0.006
Mof_C 	C 	0.3305	0.6499	0.9983	-0.031
Mof_C 	C 	0.5044	0.2144	0.8701	-0.002
Mof_C 	C 	0.2706	0.545	0.0336	-0.079
Mof_C 	C 	0.1376	0.221	0.8742	-0.001
Mof_C 	C 	0.0695	0.4777	0.0244	0.042
Mof_C 	C 	0.0753	0.2559	0.7766	0.001
Mof_C 	C 	0.1958	0.6934	0.9504	-0.009
Mof_C 	C 	0.3004	0.422	0.833	-0.012
Mof_C 	C 	0.4444	0.2498	0.2722	0.008
Mof_C 	C 	0.0041	0.8684	0.4399	-0.096
Mof_C 	C 	0.2786	0.4554	0.3134	0.008
Mof_C 	C 	0.3305	0.8501	0.4983	-0.031
Mof_C 	C 	0.5044	0.2856	0.3701	-0.002
Mof_C 	C 	0.2706	0.955	0.5336	-0.082
Mof_C 	C 	0.1376	0.279	0.3742	-0
Mof_C 	C 	0.0695	0.0223	0.5244	0.045
Mof_C 	C 	0.0753	0.2441	0.2766	0.002
Mof_C 	C 	0.1958	0.8066	0.4504	-0.008
Mof_C 	C 	0.3004	0.078	0.333	-0.013
Mof_C 	C 	0.5556	0.7498	0.2278	0.008
Mof_C 	C 	0.9959	0.3684	0.0601	-0.092
Mof_C 	C 	0.7214	0.9554	0.1866	0.006
Mof_C 	C 	0.6695	0.3501	0.0017	-0.031
Mof_C 	C 	0.4956	0.7856	0.1299	-0.002
Mof_C 	C 	0.7294	0.455	0.9664	-0.079
Mof_C 	C 	0.8624	0.779	0.1258	-0.001
Mof_C 	C 	0.9305	0.5223	0.9756	0.042
Mof_C 	C 	0.9247	0.7441	0.2234	0.001
Mof_C 	C 	0.8042	0.3066	0.0496	-0.009
Mof_C 	C 	0.6996	0.578	0.167	-0.012
Mof_S 	S 	0.1581	0.1875	0.62145	0.491
Mof_S 	S 	0.8419	0.6875	0.87855	0.489
Mof_S 	S 	0.8419	0.8125	0.37855	0.491
Mof_S 	S 	0.1581	0.3125	0.12145	0.489
Mof_N 	N 	0.5266	0.6341	0.6839	-0.162
Mof_N 	N 	0.7337	0.849	0.7224	-0.147
Mof_N 	N 	0.9045	0.6408	0.6797	-0.152
Mof_N 	N 	0.6721	0.8122	0.6226	-0.1
Mof_N 	N 	0.4734	0.1341	0.8161	-0.161
Mof_N 	N 	0.2663	0.349	0.7776	-0.148
Mof_N 	N 	0.0955	0.1408	0.8203	-0.151
Mof_N 	N 	0.3279	0.3122	0.8774	-0.1
Mof_N 	N 	0.4734	0.3659	0.3161	-0.162
Mof_N 	N 	0.2663	0.151	0.2776	-0.147
Mof_N 	N 	0.0955	0.3592	0.3203	-0.152
Mof_N 	N 	0.3279	0.1878	0.3774	-0.1
Mof_N 	N 	0.5266	0.8659	0.1839	-0.161
Mof_N 	N 	0.7337	0.651	0.2224	-0.148
Mof_N 	N 	0.9045	0.8592	0.1797	-0.151
Mof_N 	N 	0.6721	0.6878	0.1226	-0.1
Mof_O 	O 	0.0343	0.2985	0.6468	-0.34
Mof_O 	O 	0.1985	0.055	0.6556	-0.287
Mof_O 	O 	0.3477	0.2518	0.6051	-0.291
Mof_O 	O 	0.9657	0.7985	0.8532	-0.338
Mof_O 	O 	0.8015	0.555	0.8444	-0.286
Mof_O 	O 	0.6523	0.7518	0.8949	-0.289
Mof_O 	O 	0.9657	0.7015	0.3532	-0.34
Mof_O 	O 	0.8015	0.945	0.3444	-0.287
Mof_O 	O 	0.6523	0.7482	0.3949	-0.291
Mof_O 	O 	0.0343	0.2015	0.1468	-0.338
Mof_O 	O 	0.1985	0.445	0.1556	-0.286
Mof_O 	O 	0.3477	0.2482	0.1051	-0.289
_end
