data_functionalizedCrystal
_audit_creation_method	'EQeq! by Chris Wilmer'
_symmetry_space_group_name_H-M	'P1'
_symmetry_Int_Tables_number	1
_symmetry_cell_setting	triclinic
loop_
_symmetry_equiv_pos_as_xyz
  x,y,z
_cell_length_a	7.9418
_cell_length_b	12.087
_cell_length_c	13.358
_cell_angle_alpha	112.101
_cell_angle_beta	105.051
_cell_angle_gamma	91.197
loop_
_atom_site_label
_atom_site_type_symbol
_atom_site_fract_x
_atom_site_fract_y
_atom_site_fract_z
_atom_site_charge
Mof_Tb	Tb	0.24936	0.98099	0.0107	2.089
Mof_C 	C 	0.8382	0.3975	0.5557	0.289
Mof_C 	C 	0.8635	0.1991	0.5656	0.285
Mof_C 	C 	0.0322	0.3824	0.7226	0.293
Mof_C 	C 	0.0017	0.5786	0.7138	0.224
Mof_H 	H 	0.0054	0.6103	0.6575	-0.014
Mof_H 	H 	0.1167	0.6003	0.7689	-0.018
Mof_C 	C 	0.866	0.6329	0.7711	-0.557
Mof_H 	H 	0.8524	0.592	0.8192	0.203
Mof_H 	H 	0.7543	0.6172	0.7138	0.216
Mof_C 	C 	0.9048	0.7662	0.8415	0.582
Mof_C 	C 	0.645	0.2151	0.4072	0.188
Mof_H 	H 	0.5685	0.2745	0.3988	-0.004
Mof_H 	H 	0.5763	0.1521	0.4138	0.009
Mof_C 	C 	0.7032	0.1612	0.303	-0.51
Mof_H 	H 	0.7569	0.225	0.2894	0.197
Mof_H 	H 	0.7911	0.1091	0.3141	0.201
Mof_C 	C 	0.5522	0.0904	0.2029	0.532
Mof_C 	C 	0.0728	0.1843	0.7297	0.167
Mof_H 	H 	0.1895	0.2241	0.7775	0.005
Mof_H 	H 	0.0852	0.1068	0.6756	0.005
Mof_C 	C 	0.9634	0.1651	0.8021	-0.502
Mof_H 	H 	0.9445	0.2427	0.8528	0.174
Mof_H 	H 	0.8493	0.1207	0.7537	0.189
Mof_C 	C 	0.0529	0.0972	0.8698	0.554
Mof_N 	N 	0.9594	0.447	0.6595	-0.223
Mof_N 	N 	0.9889	0.2581	0.669	-0.211
Mof_N 	N 	0.7896	0.2729	0.5125	-0.212
Mof_O 	O 	0.7736	0.4568	0.5037	-0.248
Mof_O 	O 	0.1304	0.4295	0.8153	-0.265
Mof_O 	O 	0.8222	0.0917	0.5246	-0.243
Mof_O 	O 	0.7854	0.8163	0.8794	-0.526
Mof_O 	O 	0.0585	0.8153	0.8598	-0.545
Mof_O 	O 	0.9648	0.0526	0.9145	-0.687
Mof_O 	O 	0.2132	0.0849	0.8809	-0.511
Mof_O 	O 	0.5553	0.086	0.1057	-0.655
Mof_O 	O 	0.4241	0.0412	0.214	-0.471
Mof_Tb	Tb	0.75064	0.01901	0.9893	2.089
Mof_C 	C 	0.1618	0.6025	0.4443	0.289
Mof_C 	C 	0.1365	0.8009	0.4344	0.285
Mof_C 	C 	0.9678	0.6176	0.2774	0.293
Mof_C 	C 	0.9983	0.4214	0.2862	0.224
Mof_H 	H 	0.9946	0.3897	0.3425	-0.014
Mof_H 	H 	0.8833	0.3997	0.2311	-0.018
Mof_C 	C 	0.134	0.3671	0.2289	-0.557
Mof_H 	H 	0.1476	0.408	0.1808	0.203
Mof_H 	H 	0.2457	0.3828	0.2862	0.216
Mof_C 	C 	0.0952	0.2338	0.1585	0.582
Mof_C 	C 	0.355	0.7849	0.5928	0.188
Mof_H 	H 	0.4315	0.7255	0.6012	-0.004
Mof_H 	H 	0.4237	0.8479	0.5862	0.009
Mof_C 	C 	0.2968	0.8388	0.697	-0.51
Mof_H 	H 	0.2431	0.775	0.7106	0.197
Mof_H 	H 	0.2089	0.8909	0.6859	0.201
Mof_C 	C 	0.4478	0.9096	0.7971	0.532
Mof_C 	C 	0.9272	0.8157	0.2703	0.167
Mof_H 	H 	0.8105	0.7759	0.2225	0.005
Mof_H 	H 	0.9148	0.8932	0.3244	0.005
Mof_C 	C 	0.0366	0.8349	0.1979	-0.502
Mof_H 	H 	0.0555	0.7573	0.1472	0.174
Mof_H 	H 	0.1507	0.8793	0.2463	0.189
Mof_C 	C 	0.9471	0.9028	0.1302	0.554
Mof_N 	N 	0.0406	0.553	0.3405	-0.223
Mof_N 	N 	0.0111	0.7419	0.331	-0.211
Mof_N 	N 	0.2104	0.7271	0.4875	-0.212
Mof_O 	O 	0.2264	0.5432	0.4963	-0.248
Mof_O 	O 	0.8696	0.5705	0.1847	-0.265
Mof_O 	O 	0.1778	0.9083	0.4754	-0.243
Mof_O 	O 	0.2146	0.1837	0.1206	-0.526
Mof_O 	O 	0.9415	0.1847	0.1402	-0.545
Mof_O 	O 	0.0352	0.9474	0.0855	-0.687
Mof_O 	O 	0.7868	0.9151	0.1191	-0.511
Mof_O 	O 	0.4447	0.914	0.8943	-0.655
Mof_O 	O 	0.5759	0.9588	0.786	-0.471
_end
