data_functionalizedCrystal
_audit_creation_method	'EQeq! by Chris Wilmer'
_symmetry_space_group_name_H-M	'P1'
_symmetry_Int_Tables_number	1
_symmetry_cell_setting	triclinic
loop_
_symmetry_equiv_pos_as_xyz
  x,y,z
_cell_length_a	13.016
_cell_length_b	11.291
_cell_length_c	15.7543
_cell_angle_alpha	90
_cell_angle_beta	105.039
_cell_angle_gamma	90
loop_
_atom_site_label
_atom_site_type_symbol
_atom_site_fract_x
_atom_site_fract_y
_atom_site_fract_z
_atom_site_charge
Mof_Cd	Cd	0.6979	0.17712	0.67436	0.355
Mof_O 	O 	0.6372	0.1511	0.7996	-0.348
Mof_O 	O 	0.6408	0.3756	0.6706	-0.365
Mof_O 	O 	0.8367	0.4734	0.8539	-0.367
Mof_O 	O 	0.6329	0.1885	0.5164	-0.69
Mof_O 	O 	0.8358	0.235	0.6047	-0.47
Mof_O 	O 	0.8199	0.2989	0.7859	-0.421
Mof_O 	O 	0.6545	0.5484	0.7416	-0.697
Mof_O 	O 	0.4985	0.1497	0.6384	-0.616
Mof_C 	C 	0.5398	0.1514	0.7967	0.195
Mof_C 	C 	0.6856	0.4463	0.7297	0.346
Mof_C 	C 	0.7909	0.4021	0.7956	0.26
Mof_C 	C 	0.6913	0.2366	0.4742	0.395
Mof_Cd	Cd	0.1979	0.67712	0.67436	0.299
Mof_O 	O 	0.1372	0.6511	0.7996	-0.27
Mof_O 	O 	0.1408	0.8756	0.6706	-0.43
Mof_O 	O 	0.3367	0.9734	0.8539	-0.461
Mof_O 	O 	0.1329	0.6885	0.5164	-0.626
Mof_O 	O 	0.3358	0.735	0.6047	-0.778
Mof_O 	O 	0.3199	0.7989	0.7859	-0.697
Mof_O 	O 	0.1545	0.0484	0.7416	-0.756
Mof_O 	O 	0.9985	0.6497	0.6384	-0.313
Mof_C 	C 	0.0398	0.6514	0.7967	-0.104
Mof_C 	C 	0.1856	0.9463	0.7297	0.491
Mof_C 	C 	0.2909	0.9021	0.7956	0.292
Mof_C 	C 	0.1913	0.7366	0.4742	0.301
Mof_Cd	Cd	0.3021	0.17712	0.82564	0.348
Mof_O 	O 	0.3628	0.1511	0.7004	-0.405
Mof_O 	O 	0.3592	0.3756	0.8294	-0.337
Mof_O 	O 	0.1633	0.4734	0.6461	-0.636
Mof_O 	O 	0.3671	0.1885	0.9836	-0.457
Mof_O 	O 	0.1642	0.235	0.8953	-0.679
Mof_O 	O 	0.1801	0.2989	0.7141	-0.597
Mof_O 	O 	0.3455	0.5484	0.7584	-0.682
Mof_O 	O 	0.5015	0.1497	0.8616	-0.518
Mof_C 	C 	0.4602	0.1514	0.7033	0.228
Mof_C 	C 	0.3144	0.4463	0.7703	0.307
Mof_C 	C 	0.2091	0.4021	0.7044	0.3
Mof_C 	C 	0.3087	0.2366	0.0258	0.052
Mof_Cd	Cd	0.8021	0.67712	0.82564	0.501
Mof_O 	O 	0.8628	0.6511	0.7004	-0.338
Mof_O 	O 	0.8592	0.8756	0.8294	-0.204
Mof_O 	O 	0.6633	0.9734	0.6461	-0.535
Mof_O 	O 	0.8671	0.6885	0.9836	-0.196
Mof_O 	O 	0.6642	0.735	0.8953	-0.826
Mof_O 	O 	0.6801	0.7989	0.7141	-0.725
Mof_O 	O 	0.8455	0.0484	0.7584	-0.567
Mof_O 	O 	0.0015	0.6497	0.8616	-0.533
Mof_C 	C 	0.9602	0.6514	0.7033	0.587
Mof_C 	C 	0.8144	0.9463	0.7703	0.464
Mof_C 	C 	0.7091	0.9021	0.7044	0.353
Mof_C 	C 	0.8087	0.7366	0.0258	-0.008
Mof_Cd	Cd	0.3021	0.82288	0.32564	0.447
Mof_O 	O 	0.3628	0.8489	0.2004	-0.315
Mof_O 	O 	0.3592	0.6244	0.3294	-0.362
Mof_O 	O 	0.1633	0.5266	0.1461	-0.585
Mof_O 	O 	0.3671	0.8115	0.4836	-0.625
Mof_O 	O 	0.1642	0.765	0.3953	-0.614
Mof_O 	O 	0.1801	0.7011	0.2141	-0.589
Mof_O 	O 	0.3455	0.4516	0.2584	-0.654
Mof_O 	O 	0.5015	0.8503	0.3616	-0.515
Mof_C 	C 	0.4602	0.8486	0.2033	0.238
Mof_C 	C 	0.3144	0.5537	0.2703	0.296
Mof_C 	C 	0.2091	0.5979	0.2044	0.282
Mof_C 	C 	0.3087	0.7634	0.5258	0.382
Mof_Cd	Cd	0.8021	0.32288	0.32564	0.476
Mof_O 	O 	0.8628	0.3489	0.2004	-0.344
Mof_O 	O 	0.8592	0.1244	0.3294	-0.182
Mof_O 	O 	0.6633	0.0266	0.1461	-0.736
Mof_O 	O 	0.8671	0.3115	0.4836	-0.415
Mof_O 	O 	0.6642	0.265	0.3953	-0.768
Mof_O 	O 	0.6801	0.2011	0.2141	-0.739
Mof_O 	O 	0.8455	0.9516	0.2584	-0.179
Mof_O 	O 	0.0015	0.3503	0.3616	-0.633
Mof_C 	C 	0.9602	0.3486	0.2033	0.559
Mof_C 	C 	0.8144	0.0537	0.2703	-0.043
Mof_C 	C 	0.7091	0.0979	0.2044	0.425
Mof_C 	C 	0.8087	0.2634	0.5258	0.248
Mof_Cd	Cd	0.6979	0.82288	0.17436	0.477
Mof_O 	O 	0.6372	0.8489	0.2996	-0.298
Mof_O 	O 	0.6408	0.6244	0.1706	-0.373
Mof_O 	O 	0.8367	0.5266	0.3539	-0.438
Mof_O 	O 	0.6329	0.8115	0.0164	-0.709
Mof_O 	O 	0.8358	0.765	0.1047	-0.379
Mof_O 	O 	0.8199	0.7011	0.2859	-0.445
Mof_O 	O 	0.6545	0.4516	0.2416	-0.66
Mof_O 	O 	0.4985	0.8503	0.1384	-0.481
Mof_C 	C 	0.5398	0.8486	0.2967	0.253
Mof_C 	C 	0.6856	0.5537	0.2297	0.322
Mof_C 	C 	0.7909	0.5979	0.2956	0.281
Mof_C 	C 	0.6913	0.7634	0.9742	0.676
Mof_Cd	Cd	0.1979	0.32288	0.17436	0.29
Mof_O 	O 	0.1372	0.3489	0.2996	-0.313
Mof_O 	O 	0.1408	0.1244	0.1706	-0.397
Mof_O 	O 	0.3367	0.0266	0.3539	-0.791
Mof_O 	O 	0.1329	0.3115	0.0164	-0.742
Mof_O 	O 	0.3358	0.265	0.1047	-0.682
Mof_O 	O 	0.3199	0.2011	0.2859	-0.745
Mof_O 	O 	0.1545	0.9516	0.2416	-0.363
Mof_O 	O 	0.9985	0.3503	0.1384	-0.293
Mof_C 	C 	0.0398	0.3486	0.2967	-0.095
Mof_C 	C 	0.1856	0.0537	0.2297	-0.027
Mof_C 	C 	0.2909	0.0979	0.2956	0.406
Mof_C 	C 	0.1913	0.2634	0.9742	0.574
Mof_K 	K 	0.5	1.12896e-32	0.5	2.675
Mof_K 	K 	2.85788e-33	0.5	0.5	2.075
Mof_K 	K 	0.5	0	-0	2.14
Mof_K 	K 	-0	0.5	-0	1.591
Mof_K 	K 	4.28681e-33	0.21197	0.75	2.186
Mof_K 	K 	0.5	0.71197	0.75	4.021
Mof_K 	K 	-1.27109e-17	0.78803	0.25	2.199
Mof_K 	K 	0.5	0.28803	0.25	3.588
_end
