# CIF file generated by openbabel 3.1.0, see https://openbabel.org
data_I
_chemical_name_common 'image0'
_cell_length_a 13.1603
_cell_length_b 33.4072
_cell_length_c 42.253
_cell_angle_alpha 90
_cell_angle_beta 98.111
_cell_angle_gamma 90
_space_group_name_H-M_alt 'P 1'
_space_group_name_Hall 'P 1'
loop_
    _symmetry_equiv_pos_as_xyz
    x,y,z
loop_
    _atom_site_label
    _atom_site_type_symbol
    _atom_site_fract_x
    _atom_site_fract_y
    _atom_site_fract_z
    _atom_site_occupancy
    Er1      Er       0.60319    0.68083    0.11831    1.000
    Er2      Er       0.76954    0.56346    0.13381    1.000
    Er3      Er       0.84722    0.43120    0.10492    1.000
    Er4      Er       0.97964    0.30415    0.13397    1.000
    O1       O        0.71100    0.59455    0.17828    1.000
    O2       O        0.70990    0.65666    0.15914    1.000
    O3       O        0.50700    0.69526    0.34791    1.000
    O4       O        0.54190    0.75628    0.33072    1.000
    O5       O        0.77780    0.61107    0.09709    1.000
    O6       O        0.70080    0.66726    0.08073    1.000
    O7       O        0.05280    0.60818    0.92202    1.000
    O8       O        0.97130    0.66355    0.90708    1.000
    O9       O        0.91820    0.54131    0.11830    1.000
    O10      O        0.95400    0.48200    0.10079    1.000
    O11      O        0.59250    0.55933    0.12524    1.000
    O12      O        0.53610    0.62104    0.11265    1.000
    O13      O        0.78260    0.51369    0.16922    1.000
    O14      O        0.79590    0.45261    0.15095    1.000
    O15      O        0.01840    0.41671    0.35535    1.000
    O16      O        0.99030    0.35590    0.33464    1.000
    O17      O        0.71500    0.52510    0.08930    1.000
    O18      O        0.69140    0.45940    0.08908    1.000
    O19      O        0.43700    0.75873    0.09644    1.000
    O20      O        0.49100    0.70377    0.07659    1.000
    O21      O        0.75210    0.37784    0.11388    1.000
    O22      O        0.81550    0.31893    0.13065    1.000
    O23      O        0.14930    0.29607    0.14530    1.000
    O24      O        0.19100    0.23713    0.12708    1.000
    S1       S        0.65650    0.61046    0.24060    1.000
    S2       S        0.58670    0.64723    0.30205    1.000
    S3       S        0.87840    0.59321    0.04296    1.000
    S4       S        0.97340    0.59172    0.97924    1.000
    S5       S        0.09916    0.58215    0.11019    1.000
    S6       S        0.32579    0.61043    0.11186    1.000
    S7       S        0.85030    0.49940    0.23583    1.000
    S8       S        0.92870    0.46500    0.30351    1.000
    S9       S        0.54800    0.45130    0.03410    1.000
    S10      S        0.36310    0.70190    0.01620    1.000
    S11      S        0.63183    0.27670    0.13305    1.000
    S12      S        0.40838    0.24656    0.13604    1.000
    C1       C        0.70580    0.63160    0.18170    1.000
    C2       C        0.54440    0.71880    0.32925    1.000
    C3       C        0.68840    0.64740    0.21322    1.000
    C4       C        0.69010    0.68720    0.22340    1.000
    C5       C        0.65430    0.68650    0.25542    1.000
    C6       C        0.63460    0.64890    0.26610    1.000
    C7       C        0.59060    0.69970    0.30278    1.000
    C8       C        0.62820    0.71980    0.27720    1.000
    C9       C        0.71510    0.71660    0.21011    1.000
    H1       H        0.73450    0.73930    0.19980    1.000
    C10      C        0.63560    0.75470    0.27300    1.000
    H2       H        0.64140    0.78210    0.26960    1.000
    C11      C        0.75700    0.63820    0.07686    1.000
    C12      C        0.98990    0.63410    0.92560    1.000
    C13      C        0.79990    0.63440    0.04658    1.000
    C14      C        0.78890    0.65900    0.02020    1.000
    C15      C        0.84760    0.64400    0.99610    1.000
    C16      C        0.89920    0.60920    0.00592    1.000
    C17      C        0.93780    0.63250    0.95406    1.000
    C18      C        0.87000    0.65720    0.96560    1.000
    C19      C        0.71860    0.69430    0.01570    1.000
    H3       H        0.65300    0.68710    0.02140    1.000
    H4       H        0.71040    0.70260    0.99370    1.000
    H5       H        0.74730    0.71590    0.02900    1.000
    C20      C        0.82870    0.69480    0.94920    1.000
    H6       H        0.84470    0.69510    0.92770    1.000
    H7       H        0.85930    0.71770    0.96060    1.000
    H8       H        0.75560    0.69580    0.94870    1.000
    C21      C        0.97670    0.51650    0.10904    1.000
    C22      C        0.52180    0.58400    0.11723    1.000
    C23      C        0.08340    0.53070    0.10810    1.000
    C24      C        0.17420    0.50990    0.10850    1.000
    C25      C        0.25980    0.53690    0.11037    1.000
    C26      C        0.22800    0.57640    0.11020    1.000
    C27      C        0.41470    0.57100    0.11380    1.000
    C28      C        0.36940    0.53380    0.11208    1.000
    C29      C        0.18290    0.46510    0.10830    1.000
    H9       H        0.11650    0.45350    0.10880    1.000
    H10      H        0.22890    0.45660    0.12680    1.000
    H11      H        0.20900    0.45670    0.08930    1.000
    C30      C        0.42740    0.49490    0.11230    1.000
    H12      H        0.40270    0.47990    0.09340    1.000
    H13      H        0.41710    0.47960    0.13090    1.000
    H14      H        0.49920    0.50030    0.11280    1.000
    C31      C        0.79470    0.47670    0.17284    1.000
    C32      C        0.98190    0.39330    0.33350    1.000
    C33      C        0.81290    0.46120    0.20654    1.000
    C34      C        0.80970    0.42380    0.21860    1.000
    C35      C        0.85580    0.41620    0.24920    1.000
    C36      C        0.87210    0.45650    0.26200    1.000
    C37      C        0.92750    0.41090    0.30300    1.000
    C38      C        0.87350    0.39320    0.27660    1.000
    C39      C        0.78500    0.38880    0.19970    1.000
    C40      C        0.87100    0.35010    0.27160    1.000
    C41      C        0.67270    0.49390    0.07880    1.000
    C42      C        0.60140    0.49590    0.04770    1.000
    C43      C        0.57200    0.52940    0.02890    1.000
    C44      C        0.49020    0.47820    0.00120    1.000
    C45      C        0.59700    0.57310    0.03230    1.000
    C46      C        0.43380    0.73420    0.07470    1.000
    C47      C        0.36290    0.73900    0.04470    1.000
    C48      C        0.29400    0.77060    0.03680    1.000
    C49      C        0.26930    0.73120    0.99390    1.000
    C50      C        0.26600    0.80840    0.05400    1.000
    C51      C        0.74310    0.34290    0.12470    1.000
    C52      C        0.21230    0.27250    0.13630    1.000
    C53      C        0.64010    0.32890    0.12930    1.000
    C54      C        0.55000    0.34790    0.13060    1.000
    C55      C        0.47010    0.32000    0.13370    1.000
    C56      C        0.50400    0.28090    0.13500    1.000
    C57      C        0.31880    0.28430    0.13680    1.000
    C58      C        0.36090    0.32290    0.13590    1.000
    C59      C        0.53680    0.39260    0.12950    1.000
    H15      H        0.60160    0.40520    0.13650    1.000
    H16      H        0.48840    0.40030    0.14340    1.000
    H17      H        0.51190    0.40070    0.10800    1.000
    C60      C        0.30010    0.36070    0.13590    1.000
    H18      H        0.22830    0.35470    0.13080    1.000
    H19      H        0.32000    0.37870    0.12020    1.000
    H20      H        0.31300    0.37290    0.15660    1.000
    S13      S        0.29180    0.78600    0.04680    1.000
    C61      C        0.34400    0.71650    0.01740    1.000
    C62      C        0.39300    0.67810    0.01070    1.000
    S14      S        0.59090    0.54570    0.03260    1.000
    C63      C        0.54600    0.46650    0.03000    1.000
    C64      C        0.54600    0.42250    0.03760    1.000
    S15      S        0.81530    0.40710    0.20621    1.000
    S16      S        0.89560    0.37240    0.27319    1.000
    C65      C        0.83200    0.47890    0.23560    1.000
    C66      C        0.90700    0.44920    0.29350    1.000
    C67      C        0.85000    0.52090    0.23900    1.000
    C68      C        0.93100    0.48550    0.31150    1.000
    Er5      Er       0.10319    0.18083    0.11831    1.000
    Er6      Er       0.26954    0.06346    0.13381    1.000
    Er7      Er       0.34722    0.93120    0.10492    1.000
    Er8      Er       0.47964    0.80415    0.13397    1.000
    O25      O        0.21100    0.09455    0.17828    1.000
    O26      O        0.20990    0.15666    0.15914    1.000
    O27      O        0.00700    0.19526    0.34791    1.000
    O28      O        0.04190    0.25628    0.33072    1.000
    O29      O        0.27780    0.11107    0.09709    1.000
    O30      O        0.20080    0.16726    0.08073    1.000
    O31      O        0.55280    0.10818    0.92202    1.000
    O32      O        0.47130    0.16355    0.90708    1.000
    O33      O        0.41820    0.04131    0.11830    1.000
    O34      O        0.45400    0.98200    0.10079    1.000
    O35      O        0.09250    0.05933    0.12524    1.000
    O36      O        0.03610    0.12104    0.11265    1.000
    O37      O        0.28260    0.01369    0.16922    1.000
    O38      O        0.29590    0.95261    0.15095    1.000
    O39      O        0.51840    0.91671    0.35535    1.000
    O40      O        0.49030    0.85590    0.33464    1.000
    O41      O        0.21500    0.02510    0.08930    1.000
    O42      O        0.19140    0.95940    0.08908    1.000
    O43      O        0.93700    0.25873    0.09644    1.000
    O44      O        0.99100    0.20377    0.07659    1.000
    O45      O        0.25210    0.87784    0.11388    1.000
    O46      O        0.31550    0.81893    0.13065    1.000
    O47      O        0.64930    0.79607    0.14530    1.000
    O48      O        0.69100    0.73713    0.12708    1.000
    S17      S        0.15650    0.11046    0.24060    1.000
    S18      S        0.08670    0.14723    0.30205    1.000
    S19      S        0.37840    0.09321    0.04296    1.000
    S20      S        0.47340    0.09172    0.97924    1.000
    S21      S        0.59916    0.08215    0.11019    1.000
    S22      S        0.82579    0.11043    0.11186    1.000
    S23      S        0.35030    0.99940    0.23583    1.000
    S24      S        0.42870    0.96500    0.30351    1.000
    S25      S        0.04800    0.95130    0.03410    1.000
    S26      S        0.86310    0.20190    0.01620    1.000
    S27      S        0.13183    0.77670    0.13305    1.000
    S28      S        0.90838    0.74656    0.13604    1.000
    C69      C        0.20580    0.13160    0.18170    1.000
    C70      C        0.04440    0.21880    0.32925    1.000
    C71      C        0.18840    0.14740    0.21322    1.000
    C72      C        0.19010    0.18720    0.22340    1.000
    C73      C        0.15430    0.18650    0.25542    1.000
    C74      C        0.13460    0.14890    0.26610    1.000
    C75      C        0.09060    0.19970    0.30278    1.000
    C76      C        0.12820    0.21980    0.27720    1.000
    C77      C        0.21510    0.21660    0.21011    1.000
    H21      H        0.23450    0.23930    0.19980    1.000
    C78      C        0.13560    0.25470    0.27300    1.000
    H22      H        0.14140    0.28210    0.26960    1.000
    C79      C        0.25700    0.13820    0.07686    1.000
    C80      C        0.48990    0.13410    0.92560    1.000
    C81      C        0.29990    0.13440    0.04658    1.000
    C82      C        0.28890    0.15900    0.02020    1.000
    C83      C        0.34760    0.14400    0.99610    1.000
    C84      C        0.39920    0.10920    0.00592    1.000
    C85      C        0.43780    0.13250    0.95406    1.000
    C86      C        0.37000    0.15720    0.96560    1.000
    C87      C        0.21860    0.19430    0.01570    1.000
    H23      H        0.15300    0.18710    0.02140    1.000
    H24      H        0.21040    0.20260    0.99370    1.000
    H25      H        0.24730    0.21590    0.02900    1.000
    C88      C        0.32870    0.19480    0.94920    1.000
    H26      H        0.34470    0.19510    0.92770    1.000
    H27      H        0.35930    0.21770    0.96060    1.000
    H28      H        0.25560    0.19580    0.94870    1.000
    C89      C        0.47670    0.01650    0.10904    1.000
    C90      C        0.02180    0.08400    0.11723    1.000
    C91      C        0.58340    0.03070    0.10810    1.000
    C92      C        0.67420    0.00990    0.10850    1.000
    C93      C        0.75980    0.03690    0.11037    1.000
    C94      C        0.72800    0.07640    0.11020    1.000
    C95      C        0.91470    0.07100    0.11380    1.000
    C96      C        0.86940    0.03380    0.11208    1.000
    C97      C        0.68290    0.96510    0.10830    1.000
    H29      H        0.61650    0.95350    0.10880    1.000
    H30      H        0.72890    0.95660    0.12680    1.000
    H31      H        0.70900    0.95670    0.08930    1.000
    C98      C        0.92740    0.99490    0.11230    1.000
    H32      H        0.90270    0.97990    0.09340    1.000
    H33      H        0.91710    0.97960    0.13090    1.000
    H34      H        0.99920    0.00030    0.11280    1.000
    C99      C        0.29470    0.97670    0.17284    1.000
    C100     C        0.48190    0.89330    0.33350    1.000
    C101     C        0.31290    0.96120    0.20654    1.000
    C102     C        0.30970    0.92380    0.21860    1.000
    C103     C        0.35580    0.91620    0.24920    1.000
    C104     C        0.37210    0.95650    0.26200    1.000
    C105     C        0.42750    0.91090    0.30300    1.000
    C106     C        0.37350    0.89320    0.27660    1.000
    C107     C        0.28500    0.88880    0.19970    1.000
    C108     C        0.37100    0.85010    0.27160    1.000
    C109     C        0.17270    0.99390    0.07880    1.000
    C110     C        0.10140    0.99590    0.04770    1.000
    C111     C        0.07200    0.02940    0.02890    1.000
    C112     C        0.99020    0.97820    0.00120    1.000
    C113     C        0.09700    0.07310    0.03230    1.000
    C114     C        0.93380    0.23420    0.07470    1.000
    C115     C        0.86290    0.23900    0.04470    1.000
    C116     C        0.79400    0.27060    0.03680    1.000
    C117     C        0.76930    0.23120    0.99390    1.000
    C118     C        0.76600    0.30840    0.05400    1.000
    C119     C        0.24310    0.84290    0.12470    1.000
    C120     C        0.71230    0.77250    0.13630    1.000
    C121     C        0.14010    0.82890    0.12930    1.000
    C122     C        0.05000    0.84790    0.13060    1.000
    C123     C        0.97010    0.82000    0.13370    1.000
    C124     C        0.00400    0.78090    0.13500    1.000
    C125     C        0.81880    0.78430    0.13680    1.000
    C126     C        0.86090    0.82290    0.13590    1.000
    C127     C        0.03680    0.89260    0.12950    1.000
    H35      H        0.10160    0.90520    0.13650    1.000
    H36      H        0.98840    0.90030    0.14340    1.000
    H37      H        0.01190    0.90070    0.10800    1.000
    C128     C        0.80010    0.86070    0.13590    1.000
    H38      H        0.72830    0.85470    0.13080    1.000
    H39      H        0.82000    0.87870    0.12020    1.000
    H40      H        0.81300    0.87290    0.15660    1.000
    S29      S        0.79180    0.28600    0.04680    1.000
    C129     C        0.84400    0.21650    0.01740    1.000
    C130     C        0.89300    0.17810    0.01070    1.000
    S30      S        0.09090    0.04570    0.03260    1.000
    C131     C        0.04600    0.96650    0.03000    1.000
    C132     C        0.04600    0.92250    0.03760    1.000
    S31      S        0.31530    0.90710    0.20621    1.000
    S32      S        0.39560    0.87240    0.27319    1.000
    C133     C        0.33200    0.97890    0.23560    1.000
    C134     C        0.40700    0.94920    0.29350    1.000
    C135     C        0.35000    0.02090    0.23900    1.000
    C136     C        0.43100    0.98550    0.31150    1.000
    Er9      Er       0.39681    0.68083    0.38169    1.000
    Er10     Er       0.23046    0.56346    0.36619    1.000
    Er11     Er       0.15278    0.43120    0.39508    1.000
    Er12     Er       0.02036    0.30415    0.36603    1.000
    O49      O        0.28900    0.59455    0.32172    1.000
    O50      O        0.29010    0.65666    0.34086    1.000
    O51      O        0.49300    0.69526    0.15209    1.000
    O52      O        0.45810    0.75628    0.16928    1.000
    O53      O        0.22220    0.61107    0.40291    1.000
    O54      O        0.29920    0.66726    0.41927    1.000
    O55      O        0.94720    0.60818    0.57798    1.000
    O56      O        0.02870    0.66355    0.59292    1.000
    O57      O        0.08180    0.54131    0.38170    1.000
    O58      O        0.04600    0.48200    0.39921    1.000
    O59      O        0.40750    0.55933    0.37476    1.000
    O60      O        0.46390    0.62104    0.38735    1.000
    O61      O        0.21740    0.51369    0.33078    1.000
    O62      O        0.20410    0.45261    0.34905    1.000
    O63      O        0.98160    0.41671    0.14465    1.000
    O64      O        0.00970    0.35590    0.16536    1.000
    O65      O        0.28500    0.52510    0.41070    1.000
    O66      O        0.30860    0.45940    0.41092    1.000
    O67      O        0.56300    0.75873    0.40356    1.000
    O68      O        0.50900    0.70377    0.42341    1.000
    O69      O        0.24790    0.37784    0.38612    1.000
    O70      O        0.18450    0.31893    0.36935    1.000
    O71      O        0.85070    0.29607    0.35470    1.000
    O72      O        0.80900    0.23713    0.37292    1.000
    S33      S        0.34350    0.61046    0.25940    1.000
    S34      S        0.41330    0.64723    0.19795    1.000
    S35      S        0.12160    0.59321    0.45704    1.000
    S36      S        0.02660    0.59172    0.52076    1.000
    S37      S        0.90084    0.58215    0.38981    1.000
    S38      S        0.67421    0.61043    0.38814    1.000
    S39      S        0.14970    0.49940    0.26417    1.000
    S40      S        0.07130    0.46500    0.19649    1.000
    S41      S        0.45200    0.45130    0.46590    1.000
    S42      S        0.63690    0.70190    0.48380    1.000
    S43      S        0.36817    0.27670    0.36695    1.000
    S44      S        0.59162    0.24656    0.36396    1.000
    C137     C        0.29420    0.63160    0.31830    1.000
    C138     C        0.45560    0.71880    0.17075    1.000
    C139     C        0.31160    0.64740    0.28678    1.000
    C140     C        0.30990    0.68720    0.27660    1.000
    C141     C        0.34570    0.68650    0.24458    1.000
    C142     C        0.36540    0.64890    0.23390    1.000
    C143     C        0.40940    0.69970    0.19722    1.000
    C144     C        0.37180    0.71980    0.22280    1.000
    C145     C        0.28490    0.71660    0.28989    1.000
    H41      H        0.26550    0.73930    0.30020    1.000
    C146     C        0.36440    0.75470    0.22700    1.000
    H42      H        0.35860    0.78210    0.23040    1.000
    C147     C        0.24300    0.63820    0.42314    1.000
    C148     C        0.01010    0.63410    0.57440    1.000
    C149     C        0.20010    0.63440    0.45342    1.000
    C150     C        0.21110    0.65900    0.47980    1.000
    C151     C        0.15240    0.64400    0.50390    1.000
    C152     C        0.10080    0.60920    0.49408    1.000
    C153     C        0.06220    0.63250    0.54594    1.000
    C154     C        0.13000    0.65720    0.53440    1.000
    C155     C        0.28140    0.69430    0.48430    1.000
    H43      H        0.34700    0.68710    0.47860    1.000
    H44      H        0.28960    0.70260    0.50630    1.000
    H45      H        0.25270    0.71590    0.47100    1.000
    C156     C        0.17130    0.69480    0.55080    1.000
    H46      H        0.15530    0.69510    0.57230    1.000
    H47      H        0.14070    0.71770    0.53940    1.000
    H48      H        0.24440    0.69580    0.55130    1.000
    C157     C        0.02330    0.51650    0.39096    1.000
    C158     C        0.47820    0.58400    0.38277    1.000
    C159     C        0.91660    0.53070    0.39190    1.000
    C160     C        0.82580    0.50990    0.39150    1.000
    C161     C        0.74020    0.53690    0.38963    1.000
    C162     C        0.77200    0.57640    0.38980    1.000
    C163     C        0.58530    0.57100    0.38620    1.000
    C164     C        0.63060    0.53380    0.38792    1.000
    C165     C        0.81710    0.46510    0.39170    1.000
    H49      H        0.88350    0.45350    0.39120    1.000
    H50      H        0.77110    0.45660    0.37320    1.000
    H51      H        0.79100    0.45670    0.41070    1.000
    C166     C        0.57260    0.49490    0.38770    1.000
    H52      H        0.59730    0.47990    0.40660    1.000
    H53      H        0.58290    0.47960    0.36910    1.000
    H54      H        0.50080    0.50030    0.38720    1.000
    C167     C        0.20530    0.47670    0.32716    1.000
    C168     C        0.01810    0.39330    0.16650    1.000
    C169     C        0.18710    0.46120    0.29346    1.000
    C170     C        0.19030    0.42380    0.28140    1.000
    C171     C        0.14420    0.41620    0.25080    1.000
    C172     C        0.12790    0.45650    0.23800    1.000
    C173     C        0.07250    0.41090    0.19700    1.000
    C174     C        0.12650    0.39320    0.22340    1.000
    C175     C        0.21500    0.38880    0.30030    1.000
    C176     C        0.12900    0.35010    0.22840    1.000
    C177     C        0.32730    0.49390    0.42120    1.000
    C178     C        0.39860    0.49590    0.45230    1.000
    C179     C        0.42800    0.52940    0.47110    1.000
    C180     C        0.50980    0.47820    0.49880    1.000
    C181     C        0.40300    0.57310    0.46770    1.000
    C182     C        0.56620    0.73420    0.42530    1.000
    C183     C        0.63710    0.73900    0.45530    1.000
    C184     C        0.70600    0.77060    0.46320    1.000
    C185     C        0.73070    0.73120    0.50610    1.000
    C186     C        0.73400    0.80840    0.44600    1.000
    C187     C        0.25690    0.34290    0.37530    1.000
    C188     C        0.78770    0.27250    0.36370    1.000
    C189     C        0.35990    0.32890    0.37070    1.000
    C190     C        0.45000    0.34790    0.36940    1.000
    C191     C        0.52990    0.32000    0.36630    1.000
    C192     C        0.49600    0.28090    0.36500    1.000
    C193     C        0.68120    0.28430    0.36320    1.000
    C194     C        0.63910    0.32290    0.36410    1.000
    C195     C        0.46320    0.39260    0.37050    1.000
    H55      H        0.39840    0.40520    0.36350    1.000
    H56      H        0.51160    0.40030    0.35660    1.000
    H57      H        0.48810    0.40070    0.39200    1.000
    C196     C        0.69990    0.36070    0.36410    1.000
    H58      H        0.77170    0.35470    0.36920    1.000
    H59      H        0.68000    0.37870    0.37980    1.000
    H60      H        0.68700    0.37290    0.34340    1.000
    S45      S        0.70820    0.78600    0.45320    1.000
    C197     C        0.65600    0.71650    0.48260    1.000
    C198     C        0.60700    0.67810    0.48930    1.000
    S46      S        0.40910    0.54570    0.46740    1.000
    C199     C        0.45400    0.46650    0.47000    1.000
    C200     C        0.45400    0.42250    0.46240    1.000
    S47      S        0.18470    0.40710    0.29379    1.000
    S48      S        0.10440    0.37240    0.22681    1.000
    C201     C        0.16800    0.47890    0.26440    1.000
    C202     C        0.09300    0.44920    0.20650    1.000
    C203     C        0.15000    0.52090    0.26100    1.000
    C204     C        0.06900    0.48550    0.18850    1.000
    Er13     Er       0.89681    0.18083    0.38169    1.000
    Er14     Er       0.73046    0.06346    0.36619    1.000
    Er15     Er       0.65278    0.93120    0.39508    1.000
    Er16     Er       0.52036    0.80415    0.36603    1.000
    O73      O        0.78900    0.09455    0.32172    1.000
    O74      O        0.79010    0.15666    0.34086    1.000
    O75      O        0.99300    0.19526    0.15209    1.000
    O76      O        0.95810    0.25628    0.16928    1.000
    O77      O        0.72220    0.11107    0.40291    1.000
    O78      O        0.79920    0.16726    0.41927    1.000
    O79      O        0.44720    0.10818    0.57798    1.000
    O80      O        0.52870    0.16355    0.59292    1.000
    O81      O        0.58180    0.04131    0.38170    1.000
    O82      O        0.54600    0.98200    0.39921    1.000
    O83      O        0.90750    0.05933    0.37476    1.000
    O84      O        0.96390    0.12104    0.38735    1.000
    O85      O        0.71740    0.01369    0.33078    1.000
    O86      O        0.70410    0.95261    0.34905    1.000
    O87      O        0.48160    0.91671    0.14465    1.000
    O88      O        0.50970    0.85590    0.16536    1.000
    O89      O        0.78500    0.02510    0.41070    1.000
    O90      O        0.80860    0.95940    0.41092    1.000
    O91      O        0.06300    0.25873    0.40356    1.000
    O92      O        0.00900    0.20377    0.42341    1.000
    O93      O        0.74790    0.87784    0.38612    1.000
    O94      O        0.68450    0.81893    0.36935    1.000
    O95      O        0.35070    0.79607    0.35470    1.000
    O96      O        0.30900    0.73713    0.37292    1.000
    S49      S        0.84350    0.11046    0.25940    1.000
    S50      S        0.91330    0.14723    0.19795    1.000
    S51      S        0.62160    0.09321    0.45704    1.000
    S52      S        0.52660    0.09172    0.52076    1.000
    S53      S        0.40084    0.08215    0.38981    1.000
    S54      S        0.17421    0.11043    0.38814    1.000
    S55      S        0.64970    0.99940    0.26417    1.000
    S56      S        0.57130    0.96500    0.19649    1.000
    S57      S        0.95200    0.95130    0.46590    1.000
    S58      S        0.13690    0.20190    0.48380    1.000
    S59      S        0.86817    0.77670    0.36695    1.000
    S60      S        0.09162    0.74656    0.36396    1.000
    C205     C        0.79420    0.13160    0.31830    1.000
    C206     C        0.95560    0.21880    0.17075    1.000
    C207     C        0.81160    0.14740    0.28678    1.000
    C208     C        0.80990    0.18720    0.27660    1.000
    C209     C        0.84570    0.18650    0.24458    1.000
    C210     C        0.86540    0.14890    0.23390    1.000
    C211     C        0.90940    0.19970    0.19722    1.000
    C212     C        0.87180    0.21980    0.22280    1.000
    C213     C        0.78490    0.21660    0.28989    1.000
    H61      H        0.76550    0.23930    0.30020    1.000
    C214     C        0.86440    0.25470    0.22700    1.000
    H62      H        0.85860    0.28210    0.23040    1.000
    C215     C        0.74300    0.13820    0.42314    1.000
    C216     C        0.51010    0.13410    0.57440    1.000
    C217     C        0.70010    0.13440    0.45342    1.000
    C218     C        0.71110    0.15900    0.47980    1.000
    C219     C        0.65240    0.14400    0.50390    1.000
    C220     C        0.60080    0.10920    0.49408    1.000
    C221     C        0.56220    0.13250    0.54594    1.000
    C222     C        0.63000    0.15720    0.53440    1.000
    C223     C        0.78140    0.19430    0.48430    1.000
    H63      H        0.84700    0.18710    0.47860    1.000
    H64      H        0.78960    0.20260    0.50630    1.000
    H65      H        0.75270    0.21590    0.47100    1.000
    C224     C        0.67130    0.19480    0.55080    1.000
    H66      H        0.65530    0.19510    0.57230    1.000
    H67      H        0.64070    0.21770    0.53940    1.000
    H68      H        0.74440    0.19580    0.55130    1.000
    C225     C        0.52330    0.01650    0.39096    1.000
    C226     C        0.97820    0.08400    0.38277    1.000
    C227     C        0.41660    0.03070    0.39190    1.000
    C228     C        0.32580    0.00990    0.39150    1.000
    C229     C        0.24020    0.03690    0.38963    1.000
    C230     C        0.27200    0.07640    0.38980    1.000
    C231     C        0.08530    0.07100    0.38620    1.000
    C232     C        0.13060    0.03380    0.38792    1.000
    C233     C        0.31710    0.96510    0.39170    1.000
    H69      H        0.38350    0.95350    0.39120    1.000
    H70      H        0.27110    0.95660    0.37320    1.000
    H71      H        0.29100    0.95670    0.41070    1.000
    C234     C        0.07260    0.99490    0.38770    1.000
    H72      H        0.09730    0.97990    0.40660    1.000
    H73      H        0.08290    0.97960    0.36910    1.000
    H74      H        0.00080    0.00030    0.38720    1.000
    C235     C        0.70530    0.97670    0.32716    1.000
    C236     C        0.51810    0.89330    0.16650    1.000
    C237     C        0.68710    0.96120    0.29346    1.000
    C238     C        0.69030    0.92380    0.28140    1.000
    C239     C        0.64420    0.91620    0.25080    1.000
    C240     C        0.62790    0.95650    0.23800    1.000
    C241     C        0.57250    0.91090    0.19700    1.000
    C242     C        0.62650    0.89320    0.22340    1.000
    C243     C        0.71500    0.88880    0.30030    1.000
    C244     C        0.62900    0.85010    0.22840    1.000
    C245     C        0.82730    0.99390    0.42120    1.000
    C246     C        0.89860    0.99590    0.45230    1.000
    C247     C        0.92800    0.02940    0.47110    1.000
    C248     C        0.00980    0.97820    0.49880    1.000
    C249     C        0.90300    0.07310    0.46770    1.000
    C250     C        0.06620    0.23420    0.42530    1.000
    C251     C        0.13710    0.23900    0.45530    1.000
    C252     C        0.20600    0.27060    0.46320    1.000
    C253     C        0.23070    0.23120    0.50610    1.000
    C254     C        0.23400    0.30840    0.44600    1.000
    C255     C        0.75690    0.84290    0.37530    1.000
    C256     C        0.28770    0.77250    0.36370    1.000
    C257     C        0.85990    0.82890    0.37070    1.000
    C258     C        0.95000    0.84790    0.36940    1.000
    C259     C        0.02990    0.82000    0.36630    1.000
    C260     C        0.99600    0.78090    0.36500    1.000
    C261     C        0.18120    0.78430    0.36320    1.000
    C262     C        0.13910    0.82290    0.36410    1.000
    C263     C        0.96320    0.89260    0.37050    1.000
    H75      H        0.89840    0.90520    0.36350    1.000
    H76      H        0.01160    0.90030    0.35660    1.000
    H77      H        0.98810    0.90070    0.39200    1.000
    C264     C        0.19990    0.86070    0.36410    1.000
    H78      H        0.27170    0.85470    0.36920    1.000
    H79      H        0.18000    0.87870    0.37980    1.000
    H80      H        0.18700    0.87290    0.34340    1.000
    S61      S        0.20820    0.28600    0.45320    1.000
    C265     C        0.15600    0.21650    0.48260    1.000
    C266     C        0.10700    0.17810    0.48930    1.000
    S62      S        0.90910    0.04570    0.46740    1.000
    C267     C        0.95400    0.96650    0.47000    1.000
    C268     C        0.95400    0.92250    0.46240    1.000
    S63      S        0.68470    0.90710    0.29379    1.000
    S64      S        0.60440    0.87240    0.22681    1.000
    C269     C        0.66800    0.97890    0.26440    1.000
    C270     C        0.59300    0.94920    0.20650    1.000
    C271     C        0.65000    0.02090    0.26100    1.000
    C272     C        0.56900    0.98550    0.18850    1.000
    Er17     Er       0.39681    0.31917    0.88169    1.000
    Er18     Er       0.23046    0.43654    0.86619    1.000
    Er19     Er       0.15278    0.56880    0.89508    1.000
    Er20     Er       0.02036    0.69585    0.86603    1.000
    O97      O        0.28900    0.40545    0.82172    1.000
    O98      O        0.29010    0.34334    0.84086    1.000
    O99      O        0.49300    0.30474    0.65209    1.000
    O100     O        0.45810    0.24372    0.66928    1.000
    O101     O        0.22220    0.38893    0.90291    1.000
    O102     O        0.29920    0.33274    0.91927    1.000
    O103     O        0.94720    0.39182    0.07798    1.000
    O104     O        0.02870    0.33645    0.09292    1.000
    O105     O        0.08180    0.45869    0.88170    1.000
    O106     O        0.04600    0.51800    0.89921    1.000
    O107     O        0.40750    0.44067    0.87476    1.000
    O108     O        0.46390    0.37896    0.88735    1.000
    O109     O        0.21740    0.48631    0.83078    1.000
    O110     O        0.20410    0.54739    0.84905    1.000
    O111     O        0.98160    0.58329    0.64465    1.000
    O112     O        0.00970    0.64410    0.66536    1.000
    O113     O        0.28500    0.47490    0.91070    1.000
    O114     O        0.30860    0.54060    0.91092    1.000
    O115     O        0.56300    0.24127    0.90356    1.000
    O116     O        0.50900    0.29623    0.92341    1.000
    O117     O        0.24790    0.62216    0.88612    1.000
    O118     O        0.18450    0.68107    0.86935    1.000
    O119     O        0.85070    0.70393    0.85470    1.000
    O120     O        0.80900    0.76287    0.87292    1.000
    S65      S        0.34350    0.38954    0.75940    1.000
    S66      S        0.41330    0.35277    0.69795    1.000
    S67      S        0.12160    0.40679    0.95704    1.000
    S68      S        0.02660    0.40828    0.02076    1.000
    S69      S        0.90084    0.41785    0.88981    1.000
    S70      S        0.67421    0.38957    0.88814    1.000
    S71      S        0.14970    0.50060    0.76417    1.000
    S72      S        0.07130    0.53500    0.69649    1.000
    S73      S        0.45200    0.54870    0.96590    1.000
    S74      S        0.63690    0.29810    0.98380    1.000
    S75      S        0.36817    0.72330    0.86695    1.000
    S76      S        0.59162    0.75344    0.86396    1.000
    C273     C        0.29420    0.36840    0.81830    1.000
    C274     C        0.45560    0.28120    0.67075    1.000
    C275     C        0.31160    0.35260    0.78678    1.000
    C276     C        0.30990    0.31280    0.77660    1.000
    C277     C        0.34570    0.31350    0.74458    1.000
    C278     C        0.36540    0.35110    0.73390    1.000
    C279     C        0.40940    0.30030    0.69722    1.000
    C280     C        0.37180    0.28020    0.72280    1.000
    C281     C        0.28490    0.28340    0.78989    1.000
    H81      H        0.26550    0.26070    0.80020    1.000
    C282     C        0.36440    0.24530    0.72700    1.000
    H82      H        0.35860    0.21790    0.73040    1.000
    C283     C        0.24300    0.36180    0.92314    1.000
    C284     C        0.01010    0.36590    0.07440    1.000
    C285     C        0.20010    0.36560    0.95342    1.000
    C286     C        0.21110    0.34100    0.97980    1.000
    C287     C        0.15240    0.35600    0.00390    1.000
    C288     C        0.10080    0.39080    0.99408    1.000
    C289     C        0.06220    0.36750    0.04594    1.000
    C290     C        0.13000    0.34280    0.03440    1.000
    C291     C        0.28140    0.30570    0.98430    1.000
    H83      H        0.34700    0.31290    0.97860    1.000
    H84      H        0.28960    0.29740    0.00630    1.000
    H85      H        0.25270    0.28410    0.97100    1.000
    C292     C        0.17130    0.30520    0.05080    1.000
    H86      H        0.15530    0.30490    0.07230    1.000
    H87      H        0.14070    0.28230    0.03940    1.000
    H88      H        0.24440    0.30420    0.05130    1.000
    C293     C        0.02330    0.48350    0.89096    1.000
    C294     C        0.47820    0.41600    0.88277    1.000
    C295     C        0.91660    0.46930    0.89190    1.000
    C296     C        0.82580    0.49010    0.89150    1.000
    C297     C        0.74020    0.46310    0.88963    1.000
    C298     C        0.77200    0.42360    0.88980    1.000
    C299     C        0.58530    0.42900    0.88620    1.000
    C300     C        0.63060    0.46620    0.88792    1.000
    C301     C        0.81710    0.53490    0.89170    1.000
    H89      H        0.88350    0.54650    0.89120    1.000
    H90      H        0.77110    0.54340    0.87320    1.000
    H91      H        0.79100    0.54330    0.91070    1.000
    C302     C        0.57260    0.50510    0.88770    1.000
    H92      H        0.59730    0.52010    0.90660    1.000
    H93      H        0.58290    0.52040    0.86910    1.000
    H94      H        0.50080    0.49970    0.88720    1.000
    C303     C        0.20530    0.52330    0.82716    1.000
    C304     C        0.01810    0.60670    0.66650    1.000
    C305     C        0.18710    0.53880    0.79346    1.000
    C306     C        0.19030    0.57620    0.78140    1.000
    C307     C        0.14420    0.58380    0.75080    1.000
    C308     C        0.12790    0.54350    0.73800    1.000
    C309     C        0.07250    0.58910    0.69700    1.000
    C310     C        0.12650    0.60680    0.72340    1.000
    C311     C        0.21500    0.61120    0.80030    1.000
    C312     C        0.12900    0.64990    0.72840    1.000
    C313     C        0.32730    0.50610    0.92120    1.000
    C314     C        0.39860    0.50410    0.95230    1.000
    C315     C        0.42800    0.47060    0.97110    1.000
    C316     C        0.50980    0.52180    0.99880    1.000
    C317     C        0.40300    0.42690    0.96770    1.000
    C318     C        0.56620    0.26580    0.92530    1.000
    C319     C        0.63710    0.26100    0.95530    1.000
    C320     C        0.70600    0.22940    0.96320    1.000
    C321     C        0.73070    0.26880    0.00610    1.000
    C322     C        0.73400    0.19160    0.94600    1.000
    C323     C        0.25690    0.65710    0.87530    1.000
    C324     C        0.78770    0.72750    0.86370    1.000
    C325     C        0.35990    0.67110    0.87070    1.000
    C326     C        0.45000    0.65210    0.86940    1.000
    C327     C        0.52990    0.68000    0.86630    1.000
    C328     C        0.49600    0.71910    0.86500    1.000
    C329     C        0.68120    0.71570    0.86320    1.000
    C330     C        0.63910    0.67710    0.86410    1.000
    C331     C        0.46320    0.60740    0.87050    1.000
    H95      H        0.39840    0.59480    0.86350    1.000
    H96      H        0.51160    0.59970    0.85660    1.000
    H97      H        0.48810    0.59930    0.89200    1.000
    C332     C        0.69990    0.63930    0.86410    1.000
    H98      H        0.77170    0.64530    0.86920    1.000
    H99      H        0.68000    0.62130    0.87980    1.000
    H100     H        0.68700    0.62710    0.84340    1.000
    S77      S        0.70820    0.21400    0.95320    1.000
    C333     C        0.65600    0.28350    0.98260    1.000
    C334     C        0.60700    0.32190    0.98930    1.000
    S78      S        0.40910    0.45430    0.96740    1.000
    C335     C        0.45400    0.53350    0.97000    1.000
    C336     C        0.45400    0.57750    0.96240    1.000
    S79      S        0.18470    0.59290    0.79379    1.000
    S80      S        0.10440    0.62760    0.72681    1.000
    C337     C        0.16800    0.52110    0.76440    1.000
    C338     C        0.09300    0.55080    0.70650    1.000
    C339     C        0.15000    0.47910    0.76100    1.000
    C340     C        0.06900    0.51450    0.68850    1.000
    Er21     Er       0.89681    0.81917    0.88169    1.000
    Er22     Er       0.73046    0.93654    0.86619    1.000
    Er23     Er       0.65278    0.06880    0.89508    1.000
    Er24     Er       0.52036    0.19585    0.86603    1.000
    O121     O        0.78900    0.90545    0.82172    1.000
    O122     O        0.79010    0.84334    0.84086    1.000
    O123     O        0.99300    0.80474    0.65209    1.000
    O124     O        0.95810    0.74372    0.66928    1.000
    O125     O        0.72220    0.88893    0.90291    1.000
    O126     O        0.79920    0.83274    0.91927    1.000
    O127     O        0.44720    0.89182    0.07798    1.000
    O128     O        0.52870    0.83645    0.09292    1.000
    O129     O        0.58180    0.95869    0.88170    1.000
    O130     O        0.54600    0.01800    0.89921    1.000
    O131     O        0.90750    0.94067    0.87476    1.000
    O132     O        0.96390    0.87896    0.88735    1.000
    O133     O        0.71740    0.98631    0.83078    1.000
    O134     O        0.70410    0.04739    0.84905    1.000
    O135     O        0.48160    0.08329    0.64465    1.000
    O136     O        0.50970    0.14410    0.66536    1.000
    O137     O        0.78500    0.97490    0.91070    1.000
    O138     O        0.80860    0.04060    0.91092    1.000
    O139     O        0.06300    0.74127    0.90356    1.000
    O140     O        0.00900    0.79623    0.92341    1.000
    O141     O        0.74790    0.12216    0.88612    1.000
    O142     O        0.68450    0.18107    0.86935    1.000
    O143     O        0.35070    0.20393    0.85470    1.000
    O144     O        0.30900    0.26287    0.87292    1.000
    S81      S        0.84350    0.88954    0.75940    1.000
    S82      S        0.91330    0.85277    0.69795    1.000
    S83      S        0.62160    0.90679    0.95704    1.000
    S84      S        0.52660    0.90828    0.02076    1.000
    S85      S        0.40084    0.91785    0.88981    1.000
    S86      S        0.17421    0.88957    0.88814    1.000
    S87      S        0.64970    0.00060    0.76417    1.000
    S88      S        0.57130    0.03500    0.69649    1.000
    S89      S        0.95200    0.04870    0.96590    1.000
    S90      S        0.13690    0.79810    0.98380    1.000
    S91      S        0.86817    0.22330    0.86695    1.000
    S92      S        0.09162    0.25344    0.86396    1.000
    C341     C        0.79420    0.86840    0.81830    1.000
    C342     C        0.95560    0.78120    0.67075    1.000
    C343     C        0.81160    0.85260    0.78678    1.000
    C344     C        0.80990    0.81280    0.77660    1.000
    C345     C        0.84570    0.81350    0.74458    1.000
    C346     C        0.86540    0.85110    0.73390    1.000
    C347     C        0.90940    0.80030    0.69722    1.000
    C348     C        0.87180    0.78020    0.72280    1.000
    C349     C        0.78490    0.78340    0.78989    1.000
    H101     H        0.76550    0.76070    0.80020    1.000
    C350     C        0.86440    0.74530    0.72700    1.000
    H102     H        0.85860    0.71790    0.73040    1.000
    C351     C        0.74300    0.86180    0.92314    1.000
    C352     C        0.51010    0.86590    0.07440    1.000
    C353     C        0.70010    0.86560    0.95342    1.000
    C354     C        0.71110    0.84100    0.97980    1.000
    C355     C        0.65240    0.85600    0.00390    1.000
    C356     C        0.60080    0.89080    0.99408    1.000
    C357     C        0.56220    0.86750    0.04594    1.000
    C358     C        0.63000    0.84280    0.03440    1.000
    C359     C        0.78140    0.80570    0.98430    1.000
    H103     H        0.84700    0.81290    0.97860    1.000
    H104     H        0.78960    0.79740    0.00630    1.000
    H105     H        0.75270    0.78410    0.97100    1.000
    C360     C        0.67130    0.80520    0.05080    1.000
    H106     H        0.65530    0.80490    0.07230    1.000
    H107     H        0.64070    0.78230    0.03940    1.000
    H108     H        0.74440    0.80420    0.05130    1.000
    C361     C        0.52330    0.98350    0.89096    1.000
    C362     C        0.97820    0.91600    0.88277    1.000
    C363     C        0.41660    0.96930    0.89190    1.000
    C364     C        0.32580    0.99010    0.89150    1.000
    C365     C        0.24020    0.96310    0.88963    1.000
    C366     C        0.27200    0.92360    0.88980    1.000
    C367     C        0.08530    0.92900    0.88620    1.000
    C368     C        0.13060    0.96620    0.88792    1.000
    C369     C        0.31710    0.03490    0.89170    1.000
    H109     H        0.38350    0.04650    0.89120    1.000
    H110     H        0.27110    0.04340    0.87320    1.000
    H111     H        0.29100    0.04330    0.91070    1.000
    C370     C        0.07260    0.00510    0.88770    1.000
    H112     H        0.09730    0.02010    0.90660    1.000
    H113     H        0.08290    0.02040    0.86910    1.000
    H114     H        0.00080    0.99970    0.88720    1.000
    C371     C        0.70530    0.02330    0.82716    1.000
    C372     C        0.51810    0.10670    0.66650    1.000
    C373     C        0.68710    0.03880    0.79346    1.000
    C374     C        0.69030    0.07620    0.78140    1.000
    C375     C        0.64420    0.08380    0.75080    1.000
    C376     C        0.62790    0.04350    0.73800    1.000
    C377     C        0.57250    0.08910    0.69700    1.000
    C378     C        0.62650    0.10680    0.72340    1.000
    C379     C        0.71500    0.11120    0.80030    1.000
    C380     C        0.62900    0.14990    0.72840    1.000
    C381     C        0.82730    0.00610    0.92120    1.000
    C382     C        0.89860    0.00410    0.95230    1.000
    C383     C        0.92800    0.97060    0.97110    1.000
    C384     C        0.00980    0.02180    0.99880    1.000
    C385     C        0.90300    0.92690    0.96770    1.000
    C386     C        0.06620    0.76580    0.92530    1.000
    C387     C        0.13710    0.76100    0.95530    1.000
    C388     C        0.20600    0.72940    0.96320    1.000
    C389     C        0.23070    0.76880    0.00610    1.000
    C390     C        0.23400    0.69160    0.94600    1.000
    C391     C        0.75690    0.15710    0.87530    1.000
    C392     C        0.28770    0.22750    0.86370    1.000
    C393     C        0.85990    0.17110    0.87070    1.000
    C394     C        0.95000    0.15210    0.86940    1.000
    C395     C        0.02990    0.18000    0.86630    1.000
    C396     C        0.99600    0.21910    0.86500    1.000
    C397     C        0.18120    0.21570    0.86320    1.000
    C398     C        0.13910    0.17710    0.86410    1.000
    C399     C        0.96320    0.10740    0.87050    1.000
    H115     H        0.89840    0.09480    0.86350    1.000
    H116     H        0.01160    0.09970    0.85660    1.000
    H117     H        0.98810    0.09930    0.89200    1.000
    C400     C        0.19990    0.13930    0.86410    1.000
    H118     H        0.27170    0.14530    0.86920    1.000
    H119     H        0.18000    0.12130    0.87980    1.000
    H120     H        0.18700    0.12710    0.84340    1.000
    S93      S        0.20820    0.71400    0.95320    1.000
    C401     C        0.15600    0.78350    0.98260    1.000
    C402     C        0.10700    0.82190    0.98930    1.000
    S94      S        0.90910    0.95430    0.96740    1.000
    C403     C        0.95400    0.03350    0.97000    1.000
    C404     C        0.95400    0.07750    0.96240    1.000
    S95      S        0.68470    0.09290    0.79379    1.000
    S96      S        0.60440    0.12760    0.72681    1.000
    C405     C        0.66800    0.02110    0.76440    1.000
    C406     C        0.59300    0.05080    0.70650    1.000
    C407     C        0.65000    0.97910    0.76100    1.000
    C408     C        0.56900    0.01450    0.68850    1.000
    Er25     Er       0.60319    0.31917    0.61831    1.000
    Er26     Er       0.76954    0.43654    0.63381    1.000
    Er27     Er       0.84722    0.56880    0.60492    1.000
    Er28     Er       0.97964    0.69585    0.63397    1.000
    O145     O        0.71100    0.40545    0.67828    1.000
    O146     O        0.70990    0.34334    0.65914    1.000
    O147     O        0.50700    0.30474    0.84791    1.000
    O148     O        0.54190    0.24372    0.83072    1.000
    O149     O        0.77780    0.38893    0.59709    1.000
    O150     O        0.70080    0.33274    0.58073    1.000
    O151     O        0.05280    0.39182    0.42202    1.000
    O152     O        0.97130    0.33645    0.40708    1.000
    O153     O        0.91820    0.45869    0.61830    1.000
    O154     O        0.95400    0.51800    0.60079    1.000
    O155     O        0.59250    0.44067    0.62524    1.000
    O156     O        0.53610    0.37896    0.61265    1.000
    O157     O        0.78260    0.48631    0.66922    1.000
    O158     O        0.79590    0.54739    0.65095    1.000
    O159     O        0.01840    0.58329    0.85535    1.000
    O160     O        0.99030    0.64410    0.83464    1.000
    O161     O        0.71500    0.47490    0.58930    1.000
    O162     O        0.69140    0.54060    0.58908    1.000
    O163     O        0.43700    0.24127    0.59644    1.000
    O164     O        0.49100    0.29623    0.57659    1.000
    O165     O        0.75210    0.62216    0.61388    1.000
    O166     O        0.81550    0.68107    0.63065    1.000
    O167     O        0.14930    0.70393    0.64530    1.000
    O168     O        0.19100    0.76287    0.62708    1.000
    S97      S        0.65650    0.38954    0.74060    1.000
    S98      S        0.58670    0.35277    0.80205    1.000
    S99      S        0.87840    0.40679    0.54296    1.000
    S100     S        0.97340    0.40828    0.47924    1.000
    S101     S        0.09916    0.41785    0.61019    1.000
    S102     S        0.32579    0.38957    0.61186    1.000
    S103     S        0.85030    0.50060    0.73583    1.000
    S104     S        0.92870    0.53500    0.80351    1.000
    S105     S        0.54800    0.54870    0.53410    1.000
    S106     S        0.36310    0.29810    0.51620    1.000
    S107     S        0.63183    0.72330    0.63305    1.000
    S108     S        0.40838    0.75344    0.63604    1.000
    C409     C        0.70580    0.36840    0.68170    1.000
    C410     C        0.54440    0.28120    0.82925    1.000
    C411     C        0.68840    0.35260    0.71322    1.000
    C412     C        0.69010    0.31280    0.72340    1.000
    C413     C        0.65430    0.31350    0.75542    1.000
    C414     C        0.63460    0.35110    0.76610    1.000
    C415     C        0.59060    0.30030    0.80278    1.000
    C416     C        0.62820    0.28020    0.77720    1.000
    C417     C        0.71510    0.28340    0.71011    1.000
    H121     H        0.73450    0.26070    0.69980    1.000
    C418     C        0.63560    0.24530    0.77300    1.000
    H122     H        0.64140    0.21790    0.76960    1.000
    C419     C        0.75700    0.36180    0.57686    1.000
    C420     C        0.98990    0.36590    0.42560    1.000
    C421     C        0.79990    0.36560    0.54658    1.000
    C422     C        0.78890    0.34100    0.52020    1.000
    C423     C        0.84760    0.35600    0.49610    1.000
    C424     C        0.89920    0.39080    0.50592    1.000
    C425     C        0.93780    0.36750    0.45406    1.000
    C426     C        0.87000    0.34280    0.46560    1.000
    C427     C        0.71860    0.30570    0.51570    1.000
    H123     H        0.65300    0.31290    0.52140    1.000
    H124     H        0.71040    0.29740    0.49370    1.000
    H125     H        0.74730    0.28410    0.52900    1.000
    C428     C        0.82870    0.30520    0.44920    1.000
    H126     H        0.84470    0.30490    0.42770    1.000
    H127     H        0.85930    0.28230    0.46060    1.000
    H128     H        0.75560    0.30420    0.44870    1.000
    C429     C        0.97670    0.48350    0.60904    1.000
    C430     C        0.52180    0.41600    0.61723    1.000
    C431     C        0.08340    0.46930    0.60810    1.000
    C432     C        0.17420    0.49010    0.60850    1.000
    C433     C        0.25980    0.46310    0.61037    1.000
    C434     C        0.22800    0.42360    0.61020    1.000
    C435     C        0.41470    0.42900    0.61380    1.000
    C436     C        0.36940    0.46620    0.61208    1.000
    C437     C        0.18290    0.53490    0.60830    1.000
    H129     H        0.11650    0.54650    0.60880    1.000
    H130     H        0.22890    0.54340    0.62680    1.000
    H131     H        0.20900    0.54330    0.58930    1.000
    C438     C        0.42740    0.50510    0.61230    1.000
    H132     H        0.40270    0.52010    0.59340    1.000
    H133     H        0.41710    0.52040    0.63090    1.000
    H134     H        0.49920    0.49970    0.61280    1.000
    C439     C        0.79470    0.52330    0.67284    1.000
    C440     C        0.98190    0.60670    0.83350    1.000
    C441     C        0.81290    0.53880    0.70654    1.000
    C442     C        0.80970    0.57620    0.71860    1.000
    C443     C        0.85580    0.58380    0.74920    1.000
    C444     C        0.87210    0.54350    0.76200    1.000
    C445     C        0.92750    0.58910    0.80300    1.000
    C446     C        0.87350    0.60680    0.77660    1.000
    C447     C        0.78500    0.61120    0.69970    1.000
    C448     C        0.87100    0.64990    0.77160    1.000
    C449     C        0.67270    0.50610    0.57880    1.000
    C450     C        0.60140    0.50410    0.54770    1.000
    C451     C        0.57200    0.47060    0.52890    1.000
    C452     C        0.49020    0.52180    0.50120    1.000
    C453     C        0.59700    0.42690    0.53230    1.000
    C454     C        0.43380    0.26580    0.57470    1.000
    C455     C        0.36290    0.26100    0.54470    1.000
    C456     C        0.29400    0.22940    0.53680    1.000
    C457     C        0.26930    0.26880    0.49390    1.000
    C458     C        0.26600    0.19160    0.55400    1.000
    C459     C        0.74310    0.65710    0.62470    1.000
    C460     C        0.21230    0.72750    0.63630    1.000
    C461     C        0.64010    0.67110    0.62930    1.000
    C462     C        0.55000    0.65210    0.63060    1.000
    C463     C        0.47010    0.68000    0.63370    1.000
    C464     C        0.50400    0.71910    0.63500    1.000
    C465     C        0.31880    0.71570    0.63680    1.000
    C466     C        0.36090    0.67710    0.63590    1.000
    C467     C        0.53680    0.60740    0.62950    1.000
    H135     H        0.60160    0.59480    0.63650    1.000
    H136     H        0.48840    0.59970    0.64340    1.000
    H137     H        0.51190    0.59930    0.60800    1.000
    C468     C        0.30010    0.63930    0.63590    1.000
    H138     H        0.22830    0.64530    0.63080    1.000
    H139     H        0.32000    0.62130    0.62020    1.000
    H140     H        0.31300    0.62710    0.65660    1.000
    S109     S        0.29180    0.21400    0.54680    1.000
    C469     C        0.34400    0.28350    0.51740    1.000
    C470     C        0.39300    0.32190    0.51070    1.000
    S110     S        0.59090    0.45430    0.53260    1.000
    C471     C        0.54600    0.53350    0.53000    1.000
    C472     C        0.54600    0.57750    0.53760    1.000
    S111     S        0.81530    0.59290    0.70621    1.000
    S112     S        0.89560    0.62760    0.77319    1.000
    C473     C        0.83200    0.52110    0.73560    1.000
    C474     C        0.90700    0.55080    0.79350    1.000
    C475     C        0.85000    0.47910    0.73900    1.000
    C476     C        0.93100    0.51450    0.81150    1.000
    Er29     Er       0.10319    0.81917    0.61831    1.000
    Er30     Er       0.26954    0.93654    0.63381    1.000
    Er31     Er       0.34722    0.06880    0.60492    1.000
    Er32     Er       0.47964    0.19585    0.63397    1.000
    O169     O        0.21100    0.90545    0.67828    1.000
    O170     O        0.20990    0.84334    0.65914    1.000
    O171     O        0.00700    0.80474    0.84791    1.000
    O172     O        0.04190    0.74372    0.83072    1.000
    O173     O        0.27780    0.88893    0.59709    1.000
    O174     O        0.20080    0.83274    0.58073    1.000
    O175     O        0.55280    0.89182    0.42202    1.000
    O176     O        0.47130    0.83645    0.40708    1.000
    O177     O        0.41820    0.95869    0.61830    1.000
    O178     O        0.45400    0.01800    0.60079    1.000
    O179     O        0.09250    0.94067    0.62524    1.000
    O180     O        0.03610    0.87896    0.61265    1.000
    O181     O        0.28260    0.98631    0.66922    1.000
    O182     O        0.29590    0.04739    0.65095    1.000
    O183     O        0.51840    0.08329    0.85535    1.000
    O184     O        0.49030    0.14410    0.83464    1.000
    O185     O        0.21500    0.97490    0.58930    1.000
    O186     O        0.19140    0.04060    0.58908    1.000
    O187     O        0.93700    0.74127    0.59644    1.000
    O188     O        0.99100    0.79623    0.57659    1.000
    O189     O        0.25210    0.12216    0.61388    1.000
    O190     O        0.31550    0.18107    0.63065    1.000
    O191     O        0.64930    0.20393    0.64530    1.000
    O192     O        0.69100    0.26287    0.62708    1.000
    S113     S        0.15650    0.88954    0.74060    1.000
    S114     S        0.08670    0.85277    0.80205    1.000
    S115     S        0.37840    0.90679    0.54296    1.000
    S116     S        0.47340    0.90828    0.47924    1.000
    S117     S        0.59916    0.91785    0.61019    1.000
    S118     S        0.82579    0.88957    0.61186    1.000
    S119     S        0.35030    0.00060    0.73583    1.000
    S120     S        0.42870    0.03500    0.80351    1.000
    S121     S        0.04800    0.04870    0.53410    1.000
    S122     S        0.86310    0.79810    0.51620    1.000
    S123     S        0.13183    0.22330    0.63305    1.000
    S124     S        0.90838    0.25344    0.63604    1.000
    C477     C        0.20580    0.86840    0.68170    1.000
    C478     C        0.04440    0.78120    0.82925    1.000
    C479     C        0.18840    0.85260    0.71322    1.000
    C480     C        0.19010    0.81280    0.72340    1.000
    C481     C        0.15430    0.81350    0.75542    1.000
    C482     C        0.13460    0.85110    0.76610    1.000
    C483     C        0.09060    0.80030    0.80278    1.000
    C484     C        0.12820    0.78020    0.77720    1.000
    C485     C        0.21510    0.78340    0.71011    1.000
    H141     H        0.23450    0.76070    0.69980    1.000
    C486     C        0.13560    0.74530    0.77300    1.000
    H142     H        0.14140    0.71790    0.76960    1.000
    C487     C        0.25700    0.86180    0.57686    1.000
    C488     C        0.48990    0.86590    0.42560    1.000
    C489     C        0.29990    0.86560    0.54658    1.000
    C490     C        0.28890    0.84100    0.52020    1.000
    C491     C        0.34760    0.85600    0.49610    1.000
    C492     C        0.39920    0.89080    0.50592    1.000
    C493     C        0.43780    0.86750    0.45406    1.000
    C494     C        0.37000    0.84280    0.46560    1.000
    C495     C        0.21860    0.80570    0.51570    1.000
    H143     H        0.15300    0.81290    0.52140    1.000
    H144     H        0.21040    0.79740    0.49370    1.000
    H145     H        0.24730    0.78410    0.52900    1.000
    C496     C        0.32870    0.80520    0.44920    1.000
    H146     H        0.34470    0.80490    0.42770    1.000
    H147     H        0.35930    0.78230    0.46060    1.000
    H148     H        0.25560    0.80420    0.44870    1.000
    C497     C        0.47670    0.98350    0.60904    1.000
    C498     C        0.02180    0.91600    0.61723    1.000
    C499     C        0.58340    0.96930    0.60810    1.000
    C500     C        0.67420    0.99010    0.60850    1.000
    C501     C        0.75980    0.96310    0.61037    1.000
    C502     C        0.72800    0.92360    0.61020    1.000
    C503     C        0.91470    0.92900    0.61380    1.000
    C504     C        0.86940    0.96620    0.61208    1.000
    C505     C        0.68290    0.03490    0.60830    1.000
    H149     H        0.61650    0.04650    0.60880    1.000
    H150     H        0.72890    0.04340    0.62680    1.000
    H151     H        0.70900    0.04330    0.58930    1.000
    C506     C        0.92740    0.00510    0.61230    1.000
    H152     H        0.90270    0.02010    0.59340    1.000
    H153     H        0.91710    0.02040    0.63090    1.000
    H154     H        0.99920    0.99970    0.61280    1.000
    C507     C        0.29470    0.02330    0.67284    1.000
    C508     C        0.48190    0.10670    0.83350    1.000
    C509     C        0.31290    0.03880    0.70654    1.000
    C510     C        0.30970    0.07620    0.71860    1.000
    C511     C        0.35580    0.08380    0.74920    1.000
    C512     C        0.37210    0.04350    0.76200    1.000
    C513     C        0.42750    0.08910    0.80300    1.000
    C514     C        0.37350    0.10680    0.77660    1.000
    C515     C        0.28500    0.11120    0.69970    1.000
    C516     C        0.37100    0.14990    0.77160    1.000
    C517     C        0.17270    0.00610    0.57880    1.000
    C518     C        0.10140    0.00410    0.54770    1.000
    C519     C        0.07200    0.97060    0.52890    1.000
    C520     C        0.99020    0.02180    0.50120    1.000
    C521     C        0.09700    0.92690    0.53230    1.000
    C522     C        0.93380    0.76580    0.57470    1.000
    C523     C        0.86290    0.76100    0.54470    1.000
    C524     C        0.79400    0.72940    0.53680    1.000
    C525     C        0.76930    0.76880    0.49390    1.000
    C526     C        0.76600    0.69160    0.55400    1.000
    C527     C        0.24310    0.15710    0.62470    1.000
    C528     C        0.71230    0.22750    0.63630    1.000
    C529     C        0.14010    0.17110    0.62930    1.000
    C530     C        0.05000    0.15210    0.63060    1.000
    C531     C        0.97010    0.18000    0.63370    1.000
    C532     C        0.00400    0.21910    0.63500    1.000
    C533     C        0.81880    0.21570    0.63680    1.000
    C534     C        0.86090    0.17710    0.63590    1.000
    C535     C        0.03680    0.10740    0.62950    1.000
    H155     H        0.10160    0.09480    0.63650    1.000
    H156     H        0.98840    0.09970    0.64340    1.000
    H157     H        0.01190    0.09930    0.60800    1.000
    C536     C        0.80010    0.13930    0.63590    1.000
    H158     H        0.72830    0.14530    0.63080    1.000
    H159     H        0.82000    0.12130    0.62020    1.000
    H160     H        0.81300    0.12710    0.65660    1.000
    S125     S        0.79180    0.71400    0.54680    1.000
    C537     C        0.84400    0.78350    0.51740    1.000
    C538     C        0.89300    0.82190    0.51070    1.000
    S126     S        0.09090    0.95430    0.53260    1.000
    C539     C        0.04600    0.03350    0.53000    1.000
    C540     C        0.04600    0.07750    0.53760    1.000
    S127     S        0.31530    0.09290    0.70621    1.000
    S128     S        0.39560    0.12760    0.77319    1.000
    C541     C        0.33200    0.02110    0.73560    1.000
    C542     C        0.40700    0.05080    0.79350    1.000
    C543     C        0.35000    0.97910    0.73900    1.000
    C544     C        0.43100    0.01450    0.81150    1.000
