# CIF file generated by openbabel 3.1.0, see https://openbabel.org
data_I
_chemical_name_common 'image0'
_cell_length_a 26.8635
_cell_length_b 20.0627
_cell_length_c 13.1107
_cell_angle_alpha 90
_cell_angle_beta 90
_cell_angle_gamma 90
_space_group_name_H-M_alt 'P 1'
_space_group_name_Hall 'P 1'
loop_
    _symmetry_equiv_pos_as_xyz
    x,y,z
loop_
    _atom_site_label
    _atom_site_type_symbol
    _atom_site_fract_x
    _atom_site_fract_y
    _atom_site_fract_z
    _atom_site_occupancy
    W1       W        0.26675    0.16699    0.87631    1.000
    W2       W        0.26703    0.07466    0.12006    1.000
    W3       W        0.26819    0.15799    0.33997    1.000
    W4       W        0.36929    0.15759    0.19155    1.000
    W5       W        0.15442    0.16649    0.03839    1.000
    Co1      Co       0.25868    0.10972    0.61350    1.000
    O1       O        0.37530    0.18450    0.05360    1.000
    O2       O        0.20120    0.10740    0.10310    1.000
    O3       O        0.27910    0.10830    0.98630    1.000
    O4       O        0.33690    0.07590    0.14570    1.000
    O5       O        0.25920    0.99190    0.10250    1.000
    O6       O        0.26010    0.12720    0.46010    1.000
    O7       O        0.33860    0.14420    0.32430    1.000
    O8       O        0.25970    0.11390    0.77430    1.000
    O9       O        0.33760    0.18290    0.86450    1.000
    O10      O        0.25750    0.07620    0.26420    1.000
    O11      O        0.20310    0.18570    0.30660    1.000
    O12      O        0.28600    0.18010    0.17410    1.000
    O13      O        0.20130    0.17160    0.93170    1.000
    O14      O        0.12710    0.18200    0.17310    1.000
    N1       N        0.33630    0.08200    0.61060    1.000
    N2       N        0.68040    0.12400    0.88450    1.000
    N3       N        0.41820    0.07090    0.64840    1.000
    N4       N        0.59960    0.11880    0.84530    1.000
    C1       C        0.37270    0.09840    0.67400    1.000
    H1       H        0.36800    0.12560    0.73110    1.000
    C2       C        0.46570    0.08250    0.70000    1.000
    C3       C        0.47190    0.13780    0.74900    1.000
    H2       H        0.44670    0.16960    0.75070    1.000
    C4       C        0.40810    0.03130    0.56400    1.000
    H3       H        0.43120    0.00620    0.52800    1.000
    C5       C        0.35940    0.03570    0.54400    1.000
    H4       H        0.34300    0.01170    0.49380    1.000
    C6       C        0.50240    0.03650    0.69400    1.000
    H5       H        0.49700    0.99640    0.66010    1.000
    C7       C        0.64530    0.10160    0.81700    1.000
    H6       H        0.65260    0.07750    0.75810    1.000
    C8       C        0.65350    0.15620    0.96200    1.000
    H7       H        0.66750    0.17510    0.02020    1.000
    C9       C        0.54790    0.04930    0.73900    1.000
    H8       H        0.57420    0.01970    0.73050    1.000
    C10      C        0.55400    0.10540    0.79500    1.000
    C11      C        0.51630    0.14920    0.79900    1.000
    H9       H        0.52030    0.18810    0.83640    1.000
    C12      C        0.60470    0.15550    0.94030    1.000
    H10      H        0.57930    0.17470    0.97830    1.000
    W6       W        0.23325    0.83301    0.37631    1.000
    W7       W        0.23297    0.92534    0.62006    1.000
    W8       W        0.23181    0.84201    0.83997    1.000
    W9       W        0.13071    0.84241    0.69155    1.000
    W10      W        0.34558    0.83351    0.53839    1.000
    Co2      Co       0.24132    0.89028    0.11350    1.000
    O15      O        0.12470    0.81550    0.55360    1.000
    O16      O        0.29880    0.89260    0.60310    1.000
    O17      O        0.22090    0.89170    0.48630    1.000
    O18      O        0.16310    0.92410    0.64570    1.000
    O19      O        0.24080    0.00810    0.60250    1.000
    O20      O        0.23990    0.87280    0.96010    1.000
    O21      O        0.16140    0.85580    0.82430    1.000
    O22      O        0.24030    0.88610    0.27430    1.000
    O23      O        0.16240    0.81710    0.36450    1.000
    O24      O        0.24250    0.92380    0.76420    1.000
    O25      O        0.29690    0.81430    0.80660    1.000
    O26      O        0.21400    0.81990    0.67410    1.000
    O27      O        0.29870    0.82840    0.43170    1.000
    O28      O        0.37290    0.81800    0.67310    1.000
    N5       N        0.16370    0.91800    0.11060    1.000
    N6       N        0.81960    0.87600    0.38450    1.000
    N7       N        0.08180    0.92910    0.14840    1.000
    N8       N        0.90040    0.88120    0.34530    1.000
    C13      C        0.12730    0.90160    0.17400    1.000
    H11      H        0.13200    0.87440    0.23110    1.000
    C14      C        0.03430    0.91750    0.20000    1.000
    C15      C        0.02810    0.86220    0.24900    1.000
    H12      H        0.05330    0.83040    0.25070    1.000
    C16      C        0.09190    0.96870    0.06400    1.000
    H13      H        0.06880    0.99380    0.02800    1.000
    C17      C        0.14060    0.96430    0.04400    1.000
    H14      H        0.15700    0.98830    0.99380    1.000
    C18      C        0.99760    0.96350    0.19400    1.000
    H15      H        0.00300    0.00360    0.16010    1.000
    C19      C        0.85470    0.89840    0.31700    1.000
    H16      H        0.84740    0.92250    0.25810    1.000
    C20      C        0.84650    0.84380    0.46200    1.000
    H17      H        0.83250    0.82490    0.52020    1.000
    C21      C        0.95210    0.95070    0.23900    1.000
    H18      H        0.92580    0.98030    0.23050    1.000
    C22      C        0.94600    0.89460    0.29500    1.000
    C23      C        0.98370    0.85080    0.29900    1.000
    H19      H        0.97970    0.81190    0.33640    1.000
    C24      C        0.89530    0.84450    0.44030    1.000
    H20      H        0.92070    0.82530    0.47830    1.000
    W11      W        0.73325    0.66699    0.12369    1.000
    W12      W        0.73297    0.57466    0.87994    1.000
    W13      W        0.73181    0.65799    0.66003    1.000
    W14      W        0.63071    0.65759    0.80845    1.000
    W15      W        0.84558    0.66649    0.96161    1.000
    Co3      Co       0.74132    0.60972    0.38650    1.000
    O29      O        0.62470    0.68450    0.94640    1.000
    O30      O        0.79880    0.60740    0.89690    1.000
    O31      O        0.72090    0.60830    0.01370    1.000
    O32      O        0.66310    0.57590    0.85430    1.000
    O33      O        0.74080    0.49190    0.89750    1.000
    O34      O        0.73990    0.62720    0.53990    1.000
    O35      O        0.66140    0.64420    0.67570    1.000
    O36      O        0.74030    0.61390    0.22570    1.000
    O37      O        0.66240    0.68290    0.13550    1.000
    O38      O        0.74250    0.57620    0.73580    1.000
    O39      O        0.79690    0.68570    0.69340    1.000
    O40      O        0.71400    0.68010    0.82590    1.000
    O41      O        0.79870    0.67160    0.06830    1.000
    O42      O        0.87290    0.68200    0.82690    1.000
    N9       N        0.66370    0.58200    0.38940    1.000
    N10      N        0.31960    0.62400    0.11550    1.000
    N11      N        0.58180    0.57090    0.35160    1.000
    N12      N        0.40040    0.61880    0.15470    1.000
    C25      C        0.62730    0.59840    0.32600    1.000
    H21      H        0.63200    0.62560    0.26890    1.000
    C26      C        0.53430    0.58250    0.30000    1.000
    C27      C        0.52810    0.63780    0.25100    1.000
    H22      H        0.55330    0.66960    0.24930    1.000
    C28      C        0.59190    0.53130    0.43600    1.000
    H23      H        0.56880    0.50620    0.47200    1.000
    C29      C        0.64060    0.53570    0.45600    1.000
    H24      H        0.65700    0.51170    0.50620    1.000
    C30      C        0.49760    0.53650    0.30600    1.000
    H25      H        0.50300    0.49640    0.33990    1.000
    C31      C        0.35470    0.60160    0.18300    1.000
    H26      H        0.34740    0.57750    0.24190    1.000
    C32      C        0.34650    0.65620    0.03800    1.000
    H27      H        0.33250    0.67510    0.97980    1.000
    C33      C        0.45210    0.54930    0.26100    1.000
    H28      H        0.42580    0.51970    0.26950    1.000
    C34      C        0.44600    0.60540    0.20500    1.000
    C35      C        0.48370    0.64920    0.20100    1.000
    H29      H        0.47970    0.68810    0.16360    1.000
    C36      C        0.39530    0.65550    0.05970    1.000
    H30      H        0.42070    0.67470    0.02170    1.000
    W16      W        0.76675    0.33301    0.62369    1.000
    W17      W        0.76703    0.42534    0.37994    1.000
    W18      W        0.76819    0.34201    0.16003    1.000
    W19      W        0.86929    0.34241    0.30845    1.000
    W20      W        0.65442    0.33351    0.46161    1.000
    Co4      Co       0.75868    0.39028    0.88650    1.000
    O43      O        0.87530    0.31550    0.44640    1.000
    O44      O        0.70120    0.39260    0.39690    1.000
    O45      O        0.77910    0.39170    0.51370    1.000
    O46      O        0.83690    0.42410    0.35430    1.000
    O47      O        0.75920    0.50810    0.39750    1.000
    O48      O        0.76010    0.37280    0.03990    1.000
    O49      O        0.83860    0.35580    0.17570    1.000
    O50      O        0.75970    0.38610    0.72570    1.000
    O51      O        0.83760    0.31710    0.63550    1.000
    O52      O        0.75750    0.42380    0.23580    1.000
    O53      O        0.70310    0.31430    0.19340    1.000
    O54      O        0.78600    0.31990    0.32590    1.000
    O55      O        0.70130    0.32840    0.56830    1.000
    O56      O        0.62710    0.31800    0.32690    1.000
    N13      N        0.83630    0.41800    0.88940    1.000
    N14      N        0.18040    0.37600    0.61550    1.000
    N15      N        0.91820    0.42910    0.85160    1.000
    N16      N        0.09960    0.38120    0.65470    1.000
    C37      C        0.87270    0.40160    0.82600    1.000
    H31      H        0.86800    0.37440    0.76890    1.000
    C38      C        0.96570    0.41750    0.80000    1.000
    C39      C        0.97190    0.36220    0.75100    1.000
    H32      H        0.94670    0.33040    0.74930    1.000
    C40      C        0.90810    0.46870    0.93600    1.000
    H33      H        0.93120    0.49380    0.97200    1.000
    C41      C        0.85940    0.46430    0.95600    1.000
    H34      H        0.84300    0.48830    0.00620    1.000
    C42      C        0.00240    0.46350    0.80600    1.000
    H35      H        0.99700    0.50360    0.83990    1.000
    C43      C        0.14530    0.39840    0.68300    1.000
    H36      H        0.15260    0.42250    0.74190    1.000
    C44      C        0.15350    0.34380    0.53800    1.000
    H37      H        0.16750    0.32490    0.47980    1.000
    C45      C        0.04790    0.45070    0.76100    1.000
    H38      H        0.07420    0.48030    0.76950    1.000
    C46      C        0.05400    0.39460    0.70500    1.000
    C47      C        0.01630    0.35080    0.70100    1.000
    H39      H        0.02030    0.31190    0.66360    1.000
    C48      C        0.10470    0.34450    0.55970    1.000
    H40      H        0.07930    0.32530    0.52170    1.000
    W21      W        0.73325    0.83301    0.12369    1.000
    W22      W        0.73297    0.92534    0.87994    1.000
    W23      W        0.73181    0.84201    0.66003    1.000
    W24      W        0.63071    0.84241    0.80845    1.000
    W25      W        0.84558    0.83351    0.96161    1.000
    Co5      Co       0.74132    0.89028    0.38650    1.000
    O57      O        0.62470    0.81550    0.94640    1.000
    O58      O        0.79880    0.89260    0.89690    1.000
    O59      O        0.72090    0.89170    0.01370    1.000
    O60      O        0.66310    0.92410    0.85430    1.000
    O61      O        0.74080    0.00810    0.89750    1.000
    O62      O        0.73990    0.87280    0.53990    1.000
    O63      O        0.66140    0.85580    0.67570    1.000
    O64      O        0.74030    0.88610    0.22570    1.000
    O65      O        0.66240    0.81710    0.13550    1.000
    O66      O        0.74250    0.92380    0.73580    1.000
    O67      O        0.79690    0.81430    0.69340    1.000
    O68      O        0.71400    0.81990    0.82590    1.000
    O69      O        0.79870    0.82840    0.06830    1.000
    O70      O        0.87290    0.81800    0.82690    1.000
    N17      N        0.66370    0.91800    0.38940    1.000
    N18      N        0.31960    0.87600    0.11550    1.000
    N19      N        0.58180    0.92910    0.35160    1.000
    N20      N        0.40040    0.88120    0.15470    1.000
    C49      C        0.62730    0.90160    0.32600    1.000
    H41      H        0.63200    0.87440    0.26890    1.000
    C50      C        0.53430    0.91750    0.30000    1.000
    C51      C        0.52810    0.86220    0.25100    1.000
    H42      H        0.55330    0.83040    0.24930    1.000
    C52      C        0.59190    0.96870    0.43600    1.000
    H43      H        0.56880    0.99380    0.47200    1.000
    C53      C        0.64060    0.96430    0.45600    1.000
    H44      H        0.65700    0.98830    0.50620    1.000
    C54      C        0.49760    0.96350    0.30600    1.000
    H45      H        0.50300    0.00360    0.33990    1.000
    C55      C        0.35470    0.89840    0.18300    1.000
    H46      H        0.34740    0.92250    0.24190    1.000
    C56      C        0.34650    0.84380    0.03800    1.000
    H47      H        0.33250    0.82490    0.97980    1.000
    C57      C        0.45210    0.95070    0.26100    1.000
    H48      H        0.42580    0.98030    0.26950    1.000
    C58      C        0.44600    0.89460    0.20500    1.000
    C59      C        0.48370    0.85080    0.20100    1.000
    H49      H        0.47970    0.81190    0.16360    1.000
    C60      C        0.39530    0.84450    0.05970    1.000
    H50      H        0.42070    0.82530    0.02170    1.000
    W26      W        0.76675    0.16699    0.62369    1.000
    W27      W        0.76703    0.07466    0.37994    1.000
    W28      W        0.76819    0.15799    0.16003    1.000
    W29      W        0.86929    0.15759    0.30845    1.000
    W30      W        0.65442    0.16649    0.46161    1.000
    Co6      Co       0.75868    0.10972    0.88650    1.000
    O71      O        0.87530    0.18450    0.44640    1.000
    O72      O        0.70120    0.10740    0.39690    1.000
    O73      O        0.77910    0.10830    0.51370    1.000
    O74      O        0.83690    0.07590    0.35430    1.000
    O75      O        0.75920    0.99190    0.39750    1.000
    O76      O        0.76010    0.12720    0.03990    1.000
    O77      O        0.83860    0.14420    0.17570    1.000
    O78      O        0.75970    0.11390    0.72570    1.000
    O79      O        0.83760    0.18290    0.63550    1.000
    O80      O        0.75750    0.07620    0.23580    1.000
    O81      O        0.70310    0.18570    0.19340    1.000
    O82      O        0.78600    0.18010    0.32590    1.000
    O83      O        0.70130    0.17160    0.56830    1.000
    O84      O        0.62710    0.18200    0.32690    1.000
    N21      N        0.83630    0.08200    0.88940    1.000
    N22      N        0.18040    0.12400    0.61550    1.000
    N23      N        0.91820    0.07090    0.85160    1.000
    N24      N        0.09960    0.11880    0.65470    1.000
    C61      C        0.87270    0.09840    0.82600    1.000
    H51      H        0.86800    0.12560    0.76890    1.000
    C62      C        0.96570    0.08250    0.80000    1.000
    C63      C        0.97190    0.13780    0.75100    1.000
    H52      H        0.94670    0.16960    0.74930    1.000
    C64      C        0.90810    0.03130    0.93600    1.000
    H53      H        0.93120    0.00620    0.97200    1.000
    C65      C        0.85940    0.03570    0.95600    1.000
    H54      H        0.84300    0.01170    0.00620    1.000
    C66      C        0.00240    0.03650    0.80600    1.000
    H55      H        0.99700    0.99640    0.83990    1.000
    C67      C        0.14530    0.10160    0.68300    1.000
    H56      H        0.15260    0.07750    0.74190    1.000
    C68      C        0.15350    0.15620    0.53800    1.000
    H57      H        0.16750    0.17510    0.47980    1.000
    C69      C        0.04790    0.04930    0.76100    1.000
    H58      H        0.07420    0.01970    0.76950    1.000
    C70      C        0.05400    0.10540    0.70500    1.000
    C71      C        0.01630    0.14920    0.70100    1.000
    H59      H        0.02030    0.18810    0.66360    1.000
    C72      C        0.10470    0.15550    0.55970    1.000
    H60      H        0.07930    0.17470    0.52170    1.000
    W31      W        0.26675    0.33301    0.87631    1.000
    W32      W        0.26703    0.42534    0.12006    1.000
    W33      W        0.26819    0.34201    0.33997    1.000
    W34      W        0.36929    0.34241    0.19155    1.000
    W35      W        0.15442    0.33351    0.03839    1.000
    Co7      Co       0.25868    0.39028    0.61350    1.000
    O85      O        0.37530    0.31550    0.05360    1.000
    O86      O        0.20120    0.39260    0.10310    1.000
    O87      O        0.27910    0.39170    0.98630    1.000
    O88      O        0.33690    0.42410    0.14570    1.000
    O89      O        0.25920    0.50810    0.10250    1.000
    O90      O        0.26010    0.37280    0.46010    1.000
    O91      O        0.33860    0.35580    0.32430    1.000
    O92      O        0.25970    0.38610    0.77430    1.000
    O93      O        0.33760    0.31710    0.86450    1.000
    O94      O        0.25750    0.42380    0.26420    1.000
    O95      O        0.20310    0.31430    0.30660    1.000
    O96      O        0.28600    0.31990    0.17410    1.000
    O97      O        0.20130    0.32840    0.93170    1.000
    O98      O        0.12710    0.31800    0.17310    1.000
    N25      N        0.33630    0.41800    0.61060    1.000
    N26      N        0.68040    0.37600    0.88450    1.000
    N27      N        0.41820    0.42910    0.64840    1.000
    N28      N        0.59960    0.38120    0.84530    1.000
    C73      C        0.37270    0.40160    0.67400    1.000
    H61      H        0.36800    0.37440    0.73110    1.000
    C74      C        0.46570    0.41750    0.70000    1.000
    C75      C        0.47190    0.36220    0.74900    1.000
    H62      H        0.44670    0.33040    0.75070    1.000
    C76      C        0.40810    0.46870    0.56400    1.000
    H63      H        0.43120    0.49380    0.52800    1.000
    C77      C        0.35940    0.46430    0.54400    1.000
    H64      H        0.34300    0.48830    0.49380    1.000
    C78      C        0.50240    0.46350    0.69400    1.000
    H65      H        0.49700    0.50360    0.66010    1.000
    C79      C        0.64530    0.39840    0.81700    1.000
    H66      H        0.65260    0.42250    0.75810    1.000
    C80      C        0.65350    0.34380    0.96200    1.000
    H67      H        0.66750    0.32490    0.02020    1.000
    C81      C        0.54790    0.45070    0.73900    1.000
    H68      H        0.57420    0.48030    0.73050    1.000
    C82      C        0.55400    0.39460    0.79500    1.000
    C83      C        0.51630    0.35080    0.79900    1.000
    H69      H        0.52030    0.31190    0.83640    1.000
    C84      C        0.60470    0.34450    0.94030    1.000
    H70      H        0.57930    0.32530    0.97830    1.000
    W36      W        0.23325    0.66699    0.37631    1.000
    W37      W        0.23297    0.57466    0.62006    1.000
    W38      W        0.23181    0.65799    0.83997    1.000
    W39      W        0.13071    0.65759    0.69155    1.000
    W40      W        0.34558    0.66649    0.53839    1.000
    Co8      Co       0.24132    0.60972    0.11350    1.000
    O99      O        0.12470    0.68450    0.55360    1.000
    O100     O        0.29880    0.60740    0.60310    1.000
    O101     O        0.22090    0.60830    0.48630    1.000
    O102     O        0.16310    0.57590    0.64570    1.000
    O103     O        0.24080    0.49190    0.60250    1.000
    O104     O        0.23990    0.62720    0.96010    1.000
    O105     O        0.16140    0.64420    0.82430    1.000
    O106     O        0.24030    0.61390    0.27430    1.000
    O107     O        0.16240    0.68290    0.36450    1.000
    O108     O        0.24250    0.57620    0.76420    1.000
    O109     O        0.29690    0.68570    0.80660    1.000
    O110     O        0.21400    0.68010    0.67410    1.000
    O111     O        0.29870    0.67160    0.43170    1.000
    O112     O        0.37290    0.68200    0.67310    1.000
    N29      N        0.16370    0.58200    0.11060    1.000
    N30      N        0.81960    0.62400    0.38450    1.000
    N31      N        0.08180    0.57090    0.14840    1.000
    N32      N        0.90040    0.61880    0.34530    1.000
    C85      C        0.12730    0.59840    0.17400    1.000
    H71      H        0.13200    0.62560    0.23110    1.000
    C86      C        0.03430    0.58250    0.20000    1.000
    C87      C        0.02810    0.63780    0.24900    1.000
    H72      H        0.05330    0.66960    0.25070    1.000
    C88      C        0.09190    0.53130    0.06400    1.000
    H73      H        0.06880    0.50620    0.02800    1.000
    C89      C        0.14060    0.53570    0.04400    1.000
    H74      H        0.15700    0.51170    0.99380    1.000
    C90      C        0.99760    0.53650    0.19400    1.000
    H75      H        0.00300    0.49640    0.16010    1.000
    C91      C        0.85470    0.60160    0.31700    1.000
    H76      H        0.84740    0.57750    0.25810    1.000
    C92      C        0.84650    0.65620    0.46200    1.000
    H77      H        0.83250    0.67510    0.52020    1.000
    C93      C        0.95210    0.54930    0.23900    1.000
    H78      H        0.92580    0.51970    0.23050    1.000
    C94      C        0.94600    0.60540    0.29500    1.000
    C95      C        0.98370    0.64920    0.29900    1.000
    H79      H        0.97970    0.68810    0.33640    1.000
    C96      C        0.89530    0.65550    0.44030    1.000
    H80      H        0.92070    0.67470    0.47830    1.000
    W41      W        0.15514    0.25000    0.25969    1.000
    W42      W        0.36851    0.25000    0.94782    1.000
    Ge1      Ge       0.26413    0.25000    0.11195    1.000
    O113     O        0.12490    0.25000    0.99650    1.000
    O114     O        0.25510    0.25000    0.80320    1.000
    O115     O        0.28220    0.25000    0.36210    1.000
    O116     O        0.37550    0.25000    0.22410    1.000
    O117     O        0.20030    0.25000    0.11160    1.000
    O118     O        0.28510    0.25000    0.98830    1.000
    W43      W        0.34486    0.75000    0.75969    1.000
    W44      W        0.13149    0.75000    0.44782    1.000
    Ge2      Ge       0.23587    0.75000    0.61195    1.000
    O119     O        0.37510    0.75000    0.49650    1.000
    O120     O        0.24490    0.75000    0.30320    1.000
    O121     O        0.21780    0.75000    0.86210    1.000
    O122     O        0.12450    0.75000    0.72410    1.000
    O123     O        0.29970    0.75000    0.61160    1.000
    O124     O        0.21490    0.75000    0.48830    1.000
    W45      W        0.84486    0.75000    0.74031    1.000
    W46      W        0.63149    0.75000    0.05218    1.000
    Ge3      Ge       0.73587    0.75000    0.88805    1.000
    O125     O        0.87510    0.75000    0.00350    1.000
    O126     O        0.74490    0.75000    0.19680    1.000
    O127     O        0.71780    0.75000    0.63790    1.000
    O128     O        0.62450    0.75000    0.77590    1.000
    O129     O        0.79970    0.75000    0.88840    1.000
    O130     O        0.71490    0.75000    0.01170    1.000
    W47      W        0.65514    0.25000    0.24031    1.000
    W48      W        0.86851    0.25000    0.55218    1.000
    Ge4      Ge       0.76413    0.25000    0.38805    1.000
    O131     O        0.62490    0.25000    0.50350    1.000
    O132     O        0.75510    0.25000    0.69680    1.000
    O133     O        0.78220    0.25000    0.13790    1.000
    O134     O        0.87550    0.25000    0.27590    1.000
    O135     O        0.70030    0.25000    0.38840    1.000
    O136     O        0.78510    0.25000    0.51170    1.000
