data_functionalizedCrystal
_audit_creation_method	'EQeq! by Chris Wilmer'
_symmetry_space_group_name_H-M	'P1'
_symmetry_Int_Tables_number	1
_symmetry_cell_setting	triclinic
loop_
_symmetry_equiv_pos_as_xyz
  x,y,z
_cell_length_a	13.905
_cell_length_b	13.905
_cell_length_c	18.4663
_cell_angle_alpha	90
_cell_angle_beta	90
_cell_angle_gamma	120
loop_
_atom_site_label
_atom_site_type_symbol
_atom_site_fract_x
_atom_site_fract_y
_atom_site_fract_z
_atom_site_charge
Mof_O 	O 	0.8632	0.3515	0.33547	-0.741
Mof_C 	C 	0.9729	0.5713	0.4668	0.412
Mof_H 	H 	0.9549	0.6204	0.4448	-0.102
Mof_O 	O 	0.6485	0.5117	0.33547	-0.723
Mof_C 	C 	0.4287	0.4016	0.4668	-0.002
Mof_H 	H 	0.3796	0.3345	0.4448	0.001
Mof_O 	O 	0.4883	0.1368	0.33547	-0.703
Mof_C 	C 	0.5984	0.0271	0.4668	-0.407
Mof_H 	H 	0.6655	0.0451	0.4448	0.135
Mof_O 	O 	0.1368	0.6485	0.83547	-0.704
Mof_C 	C 	0.0271	0.4287	0.9668	-0.408
Mof_H 	H 	0.0451	0.3796	0.9448	0.124
Mof_O 	O 	0.3515	0.4883	0.83547	-0.723
Mof_C 	C 	0.5713	0.5984	0.9668	0.003
Mof_H 	H 	0.6204	0.6655	0.9448	0.021
Mof_O 	O 	0.5117	0.8632	0.83547	-0.742
Mof_C 	C 	0.4016	0.9729	0.9668	0.408
Mof_H 	H 	0.3345	0.9549	0.9448	-0.11
Mof_O 	O 	0.3515	0.8632	0.66453	-0.742
Mof_C 	C 	0.5713	0.9729	0.5332	0.411
Mof_H 	H 	0.6204	0.9549	0.5552	-0.102
Mof_O 	O 	0.5117	0.6485	0.66453	-0.723
Mof_C 	C 	0.4016	0.4287	0.5332	-0.002
Mof_H 	H 	0.3345	0.3796	0.5552	0.001
Mof_O 	O 	0.1368	0.4883	0.66453	-0.703
Mof_C 	C 	0.0271	0.5984	0.5332	-0.407
Mof_H 	H 	0.0451	0.6655	0.5552	0.135
Mof_O 	O 	0.6485	0.1368	0.16453	-0.704
Mof_C 	C 	0.4287	0.0271	0.0332	-0.408
Mof_H 	H 	0.3796	0.0451	0.0552	0.124
Mof_O 	O 	0.4883	0.3515	0.16453	-0.723
Mof_C 	C 	0.5984	0.5713	0.0332	0.003
Mof_H 	H 	0.6655	0.6204	0.0552	0.021
Mof_O 	O 	0.8632	0.5117	0.16453	-0.742
Mof_C 	C 	0.9729	0.4016	0.0332	0.408
Mof_H 	H 	0.9549	0.3345	0.0552	-0.11
Mof_O 	O 	0.1368	0.6485	0.66453	-0.703
Mof_C 	C 	0.0271	0.4287	0.5332	-0.413
Mof_H 	H 	0.0451	0.3796	0.5552	0.125
Mof_O 	O 	0.3515	0.4883	0.66453	-0.723
Mof_C 	C 	0.5713	0.5984	0.5332	0.003
Mof_H 	H 	0.6204	0.6655	0.5552	0.021
Mof_O 	O 	0.5117	0.8632	0.66453	-0.743
Mof_C 	C 	0.4016	0.9729	0.5332	0.413
Mof_H 	H 	0.3345	0.9549	0.5552	-0.111
Mof_O 	O 	0.8632	0.3515	0.16453	-0.742
Mof_C 	C 	0.9729	0.5713	0.0332	0.405
Mof_H 	H 	0.9549	0.6204	0.0552	-0.1
Mof_O 	O 	0.6485	0.5117	0.16453	-0.723
Mof_C 	C 	0.4287	0.4016	0.0332	-0.002
Mof_H 	H 	0.3796	0.3345	0.0552	0.002
Mof_O 	O 	0.4883	0.1368	0.16453	-0.704
Mof_C 	C 	0.5984	0.0271	0.0332	-0.402
Mof_H 	H 	0.6655	0.0451	0.0552	0.134
Mof_O 	O 	0.6485	0.1368	0.33547	-0.703
Mof_C 	C 	0.4287	0.0271	0.4668	-0.413
Mof_H 	H 	0.3796	0.0451	0.4448	0.125
Mof_O 	O 	0.4883	0.3515	0.33547	-0.723
Mof_C 	C 	0.5984	0.5713	0.4668	0.003
Mof_H 	H 	0.6655	0.6204	0.4448	0.021
Mof_O 	O 	0.8632	0.5117	0.33547	-0.743
Mof_C 	C 	0.9729	0.4016	0.4668	0.413
Mof_H 	H 	0.9549	0.3345	0.4448	-0.111
Mof_O 	O 	0.3515	0.8632	0.83547	-0.742
Mof_C 	C 	0.5713	0.9729	0.9668	0.405
Mof_H 	H 	0.6204	0.9549	0.9448	-0.1
Mof_O 	O 	0.5117	0.6485	0.83547	-0.723
Mof_C 	C 	0.4016	0.4287	0.9668	-0.002
Mof_H 	H 	0.3345	0.3796	0.9448	0.002
Mof_O 	O 	0.1368	0.4883	0.83547	-0.704
Mof_C 	C 	0.0271	0.5984	0.9668	-0.402
Mof_H 	H 	0.0451	0.6655	0.9448	0.134
Mof_In	In	0.75095	0.24905	0.25	2.67
Mof_N 	N 	0.8407	0.1593	0.25	-0.403
Mof_In	In	0.75095	0.5019	0.25	2.705
Mof_N 	N 	0.8407	0.6814	0.25	-0.402
Mof_In	In	0.4981	0.24905	0.25	2.633
Mof_N 	N 	0.3186	0.1593	0.25	-0.405
Mof_In	In	0.24905	0.75095	0.75	2.67
Mof_N 	N 	0.1593	0.8407	0.75	-0.403
Mof_In	In	0.24905	0.4981	0.75	2.633
Mof_N 	N 	0.1593	0.3186	0.75	-0.405
Mof_In	In	0.5019	0.75095	0.75	2.705
Mof_N 	N 	0.6814	0.8407	0.75	-0.402
Mof_O 	O 	0.66667	0.33333	0.25	-1.408
Mof_O 	O 	0.33333	0.66667	0.75	-1.408
Mof_C 	C 	0.8861	0.44305	0.3622	0.687
Mof_C 	C 	0.9458	0.4729	0.4334	-0.436
Mof_C 	C 	0.55695	0.44305	0.3622	0.579
Mof_C 	C 	0.5271	0.4729	0.4334	-0.17
Mof_C 	C 	0.55695	0.1139	0.3622	0.471
Mof_C 	C 	0.5271	0.0542	0.4334	0.097
Mof_C 	C 	0.1139	0.55695	0.8622	0.472
Mof_C 	C 	0.0542	0.5271	0.9334	0.093
Mof_C 	C 	0.44305	0.55695	0.8622	0.579
Mof_C 	C 	0.4729	0.5271	0.9334	-0.17
Mof_C 	C 	0.44305	0.8861	0.8622	0.686
Mof_C 	C 	0.4729	0.9458	0.9334	-0.432
Mof_C 	C 	0.44305	0.8861	0.6378	0.687
Mof_C 	C 	0.4729	0.9458	0.5666	-0.436
Mof_C 	C 	0.44305	0.55695	0.6378	0.579
Mof_C 	C 	0.4729	0.5271	0.5666	-0.17
Mof_C 	C 	0.1139	0.55695	0.6378	0.471
Mof_C 	C 	0.0542	0.5271	0.5666	0.097
Mof_C 	C 	0.55695	0.1139	0.1378	0.472
Mof_C 	C 	0.5271	0.0542	0.0666	0.093
Mof_C 	C 	0.55695	0.44305	0.1378	0.579
Mof_C 	C 	0.5271	0.4729	0.0666	-0.17
Mof_C 	C 	0.8861	0.44305	0.1378	0.686
Mof_C 	C 	0.9458	0.4729	0.0666	-0.432
Mof_C 	C 	0.8749	0.1251	0.3068	0.137
Mof_H 	H 	0.863	0.137	0.3547	-0.082
Mof_N 	N 	0.92751	0.07249	0.2874	-0.244
Mof_C 	C 	0.8749	0.7498	0.3068	0.151
Mof_H 	H 	0.863	0.726	0.3547	-0.066
Mof_N 	N 	0.92751	0.85502	0.2874	-0.208
Mof_C 	C 	0.2502	0.1251	0.3068	0.121
Mof_H 	H 	0.274	0.137	0.3547	-0.102
Mof_N 	N 	0.14498	0.07249	0.2874	-0.288
Mof_C 	C 	0.1251	0.8749	0.8068	0.137
Mof_H 	H 	0.137	0.863	0.8547	-0.082
Mof_N 	N 	0.07249	0.92751	0.7874	-0.244
Mof_C 	C 	0.1251	0.2502	0.8068	0.121
Mof_H 	H 	0.137	0.274	0.8547	-0.102
Mof_N 	N 	0.07249	0.14498	0.7874	-0.288
Mof_C 	C 	0.7498	0.8749	0.8068	0.151
Mof_H 	H 	0.726	0.863	0.8547	-0.066
Mof_N 	N 	0.85502	0.92751	0.7874	-0.208
Mof_C 	C 	0.1251	0.8749	0.6932	0.137
Mof_H 	H 	0.137	0.863	0.6453	-0.082
Mof_N 	N 	0.07249	0.92751	0.7126	-0.244
Mof_C 	C 	0.7498	0.8749	0.6932	0.151
Mof_H 	H 	0.726	0.863	0.6453	-0.066
Mof_N 	N 	0.85502	0.92751	0.7126	-0.208
Mof_C 	C 	0.1251	0.2502	0.6932	0.121
Mof_H 	H 	0.137	0.274	0.6453	-0.102
Mof_N 	N 	0.07249	0.14498	0.7126	-0.288
Mof_C 	C 	0.8749	0.1251	0.1932	0.137
Mof_H 	H 	0.863	0.137	0.1453	-0.082
Mof_N 	N 	0.92751	0.07249	0.2126	-0.244
Mof_C 	C 	0.2502	0.1251	0.1932	0.121
Mof_H 	H 	0.274	0.137	0.1453	-0.102
Mof_N 	N 	0.14498	0.07249	0.2126	-0.288
Mof_C 	C 	0.8749	0.7498	0.1932	0.151
Mof_H 	H 	0.863	0.726	0.1453	-0.066
Mof_N 	N 	0.92751	0.85502	0.2126	-0.208
Mof_Co	Co	4.08195e-33	-8.1639e-33	0.35738	0.92
Mof_Co	Co	-0	0	0.85738	0.921
Mof_Co	Co	-1.63278e-32	-1.63278e-32	0.64262	0.92
Mof_Co	Co	-0	-4.08195e-33	0.14262	0.921
_end
