# CIF file generated by openbabel 3.1.0, see https://openbabel.org
data_I
_chemical_name_common 'image0'
_cell_length_a 10.7613
_cell_length_b 7.1944
_cell_length_c 17.2162
_cell_angle_alpha 90
_cell_angle_beta 97.107
_cell_angle_gamma 90
_space_group_name_H-M_alt 'P 1'
_space_group_name_Hall 'P 1'
loop_
    _symmetry_equiv_pos_as_xyz
    x,y,z
loop_
    _atom_site_label
    _atom_site_type_symbol
    _atom_site_fract_x
    _atom_site_fract_y
    _atom_site_fract_z
    _atom_site_occupancy
    Sm1      Sm       0.32635    0.51998    0.75283    1.000
    O1       O        0.00562    0.25010    0.68506    1.000
    O2       O        0.20181    0.30830    0.66928    1.000
    O3       O        0.14320    0.68970    0.69178    1.000
    O4       O        0.08300    0.92150    0.61298    1.000
    O5       O        0.15500    0.46800    0.82406    1.000
    O6       O        0.11223    0.17890    0.85868    1.000
    O7       O        0.84830    0.18500    0.84893    1.000
    O8       O        0.85100    0.04790    0.96527    1.000
    C1       C        0.08380    0.32860    0.64884    1.000
    C2       C        0.04150    0.42640    0.57357    1.000
    C3       C        0.04810    0.61820    0.56147    1.000
    C4       C        0.00650    0.68970    0.48790    1.000
    C5       C        0.09450    0.75210    0.62487    1.000
    C6       C        0.10840    0.35340    0.86640    1.000
    C7       C        0.04680    0.42980    0.93380    1.000
    C8       C        0.09880    0.58900    0.97102    1.000
    C9       C        0.94680    0.34170    0.96250    1.000
    C10      C        0.87810    0.18180    0.92017    1.000
    H1       H        0.00700    0.82600    0.47800    1.000
    H2       H        0.17800    0.64800    0.95200    1.000
    H3       H        0.81400    0.94600    0.93600    1.000
    Sm2      Sm       0.17365    0.01998    0.74717    1.000
    O9       O        0.49438    0.75010    0.81494    1.000
    O10      O        0.29819    0.80830    0.83072    1.000
    O11      O        0.35680    0.18970    0.80822    1.000
    O12      O        0.41700    0.42150    0.88702    1.000
    O13      O        0.34500    0.96800    0.67594    1.000
    O14      O        0.38777    0.67890    0.64132    1.000
    O15      O        0.65170    0.68500    0.65107    1.000
    O16      O        0.64900    0.54790    0.53473    1.000
    C11      C        0.41620    0.82860    0.85116    1.000
    C12      C        0.45850    0.92640    0.92643    1.000
    C13      C        0.45190    0.11820    0.93853    1.000
    C14      C        0.49350    0.18970    0.01210    1.000
    C15      C        0.40550    0.25210    0.87513    1.000
    C16      C        0.39160    0.85340    0.63360    1.000
    C17      C        0.45320    0.92980    0.56620    1.000
    C18      C        0.40120    0.08900    0.52898    1.000
    C19      C        0.55320    0.84170    0.53750    1.000
    C20      C        0.62190    0.68180    0.57983    1.000
    H4       H        0.49300    0.32600    0.02200    1.000
    H5       H        0.32200    0.14800    0.54800    1.000
    H6       H        0.68600    0.44600    0.56400    1.000
    Sm3      Sm       0.67365    0.48002    0.24717    1.000
    O17      O        0.99438    0.74990    0.31494    1.000
    O18      O        0.79819    0.69170    0.33072    1.000
    O19      O        0.85680    0.31030    0.30822    1.000
    O20      O        0.91700    0.07850    0.38702    1.000
    O21      O        0.84500    0.53200    0.17594    1.000
    O22      O        0.88777    0.82110    0.14132    1.000
    O23      O        0.15170    0.81500    0.15107    1.000
    O24      O        0.14900    0.95210    0.03473    1.000
    C21      C        0.91620    0.67140    0.35116    1.000
    C22      C        0.95850    0.57360    0.42643    1.000
    C23      C        0.95190    0.38180    0.43853    1.000
    C24      C        0.99350    0.31030    0.51210    1.000
    C25      C        0.90550    0.24790    0.37513    1.000
    C26      C        0.89160    0.64660    0.13360    1.000
    C27      C        0.95320    0.57020    0.06620    1.000
    C28      C        0.90120    0.41100    0.02898    1.000
    C29      C        0.05320    0.65830    0.03750    1.000
    C30      C        0.12190    0.81820    0.07983    1.000
    H7       H        0.99300    0.17400    0.52200    1.000
    H8       H        0.82200    0.35200    0.04800    1.000
    H9       H        0.18600    0.05400    0.06400    1.000
    Sm4      Sm       0.82635    0.98002    0.25283    1.000
    O25      O        0.50562    0.24990    0.18506    1.000
    O26      O        0.70181    0.19170    0.16928    1.000
    O27      O        0.64320    0.81030    0.19178    1.000
    O28      O        0.58300    0.57850    0.11298    1.000
    O29      O        0.65500    0.03200    0.32406    1.000
    O30      O        0.61223    0.32110    0.35868    1.000
    O31      O        0.34830    0.31500    0.34893    1.000
    O32      O        0.35100    0.45210    0.46527    1.000
    C31      C        0.58380    0.17140    0.14884    1.000
    C32      C        0.54150    0.07360    0.07357    1.000
    C33      C        0.54810    0.88180    0.06147    1.000
    C34      C        0.50650    0.81030    0.98790    1.000
    C35      C        0.59450    0.74790    0.12487    1.000
    C36      C        0.60840    0.14660    0.36640    1.000
    C37      C        0.54680    0.07020    0.43380    1.000
    C38      C        0.59880    0.91100    0.47102    1.000
    C39      C        0.44680    0.15830    0.46250    1.000
    C40      C        0.37810    0.31820    0.42017    1.000
    H10      H        0.50700    0.67400    0.97800    1.000
    H11      H        0.67800    0.85200    0.45200    1.000
    H12      H        0.31400    0.55400    0.43600    1.000
