# CIF file generated by openbabel 3.1.0, see https://openbabel.org
data_I
_chemical_name_common 'image0'
_cell_length_a 15.508
_cell_length_b 16.241
_cell_length_c 18.383
_cell_angle_alpha 108.709
_cell_angle_beta 104.279
_cell_angle_gamma 107.16
_space_group_name_H-M_alt 'P 1'
_space_group_name_Hall 'P 1'
loop_
    _symmetry_equiv_pos_as_xyz
    x,y,z
loop_
    _atom_site_label
    _atom_site_type_symbol
    _atom_site_fract_x
    _atom_site_fract_y
    _atom_site_fract_z
    _atom_site_occupancy
    Cu1      Cu       0.51643    0.66948    0.91296    1.000
    O1       O        0.63600    0.61580    0.00900    1.000
    O2       O        0.67290    0.73990    0.99150    1.000
    O3       O        0.45480    0.61230    0.06520    1.000
    O4       O        0.46530    0.71900    0.01510    1.000
    O5       O        0.42890    0.50570    0.87580    1.000
    O6       O        0.50310    0.54260    0.79430    1.000
    O7       O        0.53540    0.78670    0.86860    1.000
    O8       O        0.38520    0.67590    0.81580    1.000
    O9       O        0.24640    0.07660    0.47530    1.000
    O10      O        0.26370    0.79410    0.48830    1.000
    O11      O        0.37760    0.90430    0.39800    1.000
    O12      O        0.05670    0.87510    0.38160    1.000
    C1       C        0.69570    0.69320    0.02900    1.000
    C2       C        0.79380    0.72690    0.08960    1.000
    C3       C        0.82060    0.67710    0.13250    1.000
    H1       H        0.77430    0.61920    0.12310    1.000
    C4       C        0.91140    0.70940    0.18740    1.000
    H2       H        0.92420    0.67380    0.21630    1.000
    C5       C        0.98250    0.78700    0.20280    1.000
    C6       C        0.96130    0.83470    0.15330    1.000
    H3       H        0.01040    0.88710    0.15690    1.000
    C7       C        0.86630    0.80240    0.09930    1.000
    H4       H        0.85280    0.83570    0.06830    1.000
    C8       C        0.08590    0.81760    0.25590    1.000
    C9       C        0.14940    0.80380    0.21910    1.000
    H5       H        0.12620    0.77510    0.16150    1.000
    C10      C        0.24810    0.83020    0.26320    1.000
    C11      C        0.28200    0.87620    0.35060    1.000
    C12      C        0.21430    0.88700    0.39120    1.000
    C13      C        0.11770    0.85850    0.34350    1.000
    C14      C        0.02050    0.80840    0.41030    1.000
    H6       H        0.01640    0.74780    0.37550    1.000
    H7       H        0.06310    0.82820    0.46610    1.000
    H8       H        0.95680    0.80290    0.40920    1.000
    C15      C        0.43820    0.99190    0.40280    1.000
    H9       H        0.50440    0.99830    0.41860    1.000
    H10      H        0.41750    0.99340    0.34970    1.000
    H11      H        0.43360    0.04340    0.44330    1.000
    C16      C        0.30970    0.80470    0.22010    1.000
    C17      C        0.36460    0.75450    0.24180    1.000
    H12      H        0.37170    0.74660    0.29050    1.000
    C18      C        0.40830    0.71670    0.18880    1.000
    H13      H        0.44160    0.68090    0.20170    1.000
    C19      C        0.40340    0.73060    0.12060    1.000
    C20      C        0.35530    0.78410    0.09940    1.000
    H14      H        0.35510    0.79620    0.05320    1.000
    C21      C        0.30800    0.81920    0.14750    1.000
    H15      H        0.27390    0.85330    0.13210    1.000
    C22      C        0.44890    0.68080    0.06130    1.000
    C23      C        0.25690    0.93460    0.48310    1.000
    C24      C        0.27190    0.03130    0.52340    1.000
    C25      C        0.31770    0.08080    0.60830    1.000
    C26      C        0.34320    0.02880    0.65270    1.000
    H16      H        0.37510    0.06140    0.71000    1.000
    C27      C        0.32440    0.93550    0.61740    1.000
    C28      C        0.28390    0.89180    0.53160    1.000
    C29      C        0.34540    0.77040    0.49480    1.000
    H17      H        0.33580    0.72490    0.44170    1.000
    H18      H        0.40300    0.82670    0.51300    1.000
    H19      H        0.35270    0.74340    0.53420    1.000
    C30      C        0.16110    0.09900    0.48370    1.000
    H20      H        0.16060    0.14960    0.46760    1.000
    H21      H        0.10170    0.04350    0.44870    1.000
    H22      H        0.16640    0.11840    0.54030    1.000
    C31      C        0.34630    0.18570    0.65550    1.000
    C32      C        0.39210    0.24850    0.63160    1.000
    H23      H        0.40100    0.22770    0.58180    1.000
    C33      C        0.42800    0.34870    0.68230    1.000
    H24      H        0.46390    0.39310    0.66760    1.000
    C34      C        0.40790    0.37860    0.75470    1.000
    C35      C        0.35870    0.31360    0.77500    1.000
    H25      H        0.34520    0.33400    0.82260    1.000
    C36      C        0.32590    0.21570    0.72790    1.000
    H26      H        0.29170    0.17170    0.74380    1.000
    C37      C        0.44740    0.47740    0.81270    1.000
    C38      C        0.35430    0.88800    0.67210    1.000
    C39      C        0.44350    0.93270    0.73630    1.000
    H27      H        0.48520    0.99400    0.74850    1.000
    C40      C        0.47000    0.88760    0.78100    1.000
    H28      H        0.53180    0.91820    0.82260    1.000
    C41      C        0.41310    0.80140    0.76980    1.000
    C42      C        0.32060    0.75680    0.70850    1.000
    H29      H        0.27880    0.69730    0.70000    1.000
    C43      C        0.29000    0.79950    0.66000    1.000
    H30      H        0.22730    0.76990    0.61970    1.000
    C44      C        0.44370    0.74840    0.82160    1.000
    Cu2      Cu       0.48357    0.33052    0.08704    1.000
    O13      O        0.36400    0.38420    0.99100    1.000
    O14      O        0.32710    0.26010    0.00850    1.000
    O15      O        0.54520    0.38770    0.93480    1.000
    O16      O        0.53470    0.28100    0.98490    1.000
    O17      O        0.57110    0.49430    0.12420    1.000
    O18      O        0.49690    0.45740    0.20570    1.000
    O19      O        0.46460    0.21330    0.13140    1.000
    O20      O        0.61480    0.32410    0.18420    1.000
    O21      O        0.75360    0.92340    0.52470    1.000
    O22      O        0.73630    0.20590    0.51170    1.000
    O23      O        0.62240    0.09570    0.60200    1.000
    O24      O        0.94330    0.12490    0.61840    1.000
    C45      C        0.30430    0.30680    0.97100    1.000
    C46      C        0.20620    0.27310    0.91040    1.000
    C47      C        0.17940    0.32290    0.86750    1.000
    H31      H        0.22570    0.38080    0.87690    1.000
    C48      C        0.08860    0.29060    0.81260    1.000
    H32      H        0.07580    0.32620    0.78370    1.000
    C49      C        0.01750    0.21300    0.79720    1.000
    C50      C        0.03870    0.16530    0.84670    1.000
    H33      H        0.98960    0.11290    0.84310    1.000
    C51      C        0.13370    0.19760    0.90070    1.000
    H34      H        0.14720    0.16430    0.93170    1.000
    C52      C        0.91410    0.18240    0.74410    1.000
    C53      C        0.85060    0.19620    0.78090    1.000
    H35      H        0.87380    0.22490    0.83850    1.000
    C54      C        0.75190    0.16980    0.73680    1.000
    C55      C        0.71800    0.12380    0.64940    1.000
    C56      C        0.78570    0.11300    0.60880    1.000
    C57      C        0.88230    0.14150    0.65650    1.000
    C58      C        0.97950    0.19160    0.58970    1.000
    H36      H        0.98360    0.25220    0.62450    1.000
    H37      H        0.93690    0.17180    0.53390    1.000
    H38      H        0.04320    0.19710    0.59080    1.000
    C59      C        0.56180    0.00810    0.59720    1.000
    H39      H        0.49560    0.00170    0.58140    1.000
    H40      H        0.58250    0.00660    0.65030    1.000
    H41      H        0.56640    0.95660    0.55670    1.000
    C60      C        0.69030    0.19530    0.77990    1.000
    C61      C        0.63540    0.24550    0.75820    1.000
    H42      H        0.62830    0.25340    0.70950    1.000
    C62      C        0.59170    0.28330    0.81120    1.000
    H43      H        0.55840    0.31910    0.79830    1.000
    C63      C        0.59660    0.26940    0.87940    1.000
    C64      C        0.64470    0.21590    0.90060    1.000
    H44      H        0.64490    0.20380    0.94680    1.000
    C65      C        0.69200    0.18080    0.85250    1.000
    H45      H        0.72610    0.14670    0.86790    1.000
    C66      C        0.55110    0.31920    0.93870    1.000
    C67      C        0.74310    0.06540    0.51690    1.000
    C68      C        0.72810    0.96870    0.47660    1.000
    C69      C        0.68230    0.91920    0.39170    1.000
    C70      C        0.65680    0.97120    0.34730    1.000
    H46      H        0.62490    0.93860    0.29000    1.000
    C71      C        0.67560    0.06450    0.38260    1.000
    C72      C        0.71610    0.10820    0.46840    1.000
    C73      C        0.65460    0.22960    0.50520    1.000
    H47      H        0.66420    0.27510    0.55830    1.000
    H48      H        0.59700    0.17330    0.48700    1.000
    H49      H        0.64730    0.25660    0.46580    1.000
    C74      C        0.83890    0.90100    0.51630    1.000
    H50      H        0.83940    0.85040    0.53240    1.000
    H51      H        0.89830    0.95650    0.55130    1.000
    H52      H        0.83360    0.88160    0.45970    1.000
    C75      C        0.65370    0.81430    0.34450    1.000
    C76      C        0.60790    0.75150    0.36840    1.000
    H53      H        0.59900    0.77230    0.41820    1.000
    C77      C        0.57200    0.65130    0.31770    1.000
    H54      H        0.53610    0.60690    0.33240    1.000
    C78      C        0.59210    0.62140    0.24530    1.000
    C79      C        0.64130    0.68640    0.22500    1.000
    H55      H        0.65480    0.66600    0.17740    1.000
    C80      C        0.67410    0.78430    0.27210    1.000
    H56      H        0.70830    0.82830    0.25620    1.000
    C81      C        0.55260    0.52260    0.18730    1.000
    C82      C        0.64570    0.11200    0.32790    1.000
    C83      C        0.55650    0.06730    0.26370    1.000
    H57      H        0.51480    0.00600    0.25150    1.000
    C84      C        0.53000    0.11240    0.21900    1.000
    H58      H        0.46820    0.08180    0.17740    1.000
    C85      C        0.58690    0.19860    0.23020    1.000
    C86      C        0.67940    0.24320    0.29150    1.000
    H59      H        0.72120    0.30270    0.30000    1.000
    C87      C        0.71000    0.20050    0.34000    1.000
    H60      H        0.77270    0.23010    0.38030    1.000
    C88      C        0.55630    0.25160    0.17840    1.000
