data_functionalizedCrystal
_audit_creation_method	'EQeq! by Chris Wilmer'
_symmetry_space_group_name_H-M	'P1'
_symmetry_Int_Tables_number	1
_symmetry_cell_setting	triclinic
loop_
_symmetry_equiv_pos_as_xyz
  x,y,z
_cell_length_a	11.44
_cell_length_b	13.7557
_cell_length_c	13.78
_cell_angle_alpha	103.234
_cell_angle_beta	90
_cell_angle_gamma	114.572
loop_
_atom_site_label
_atom_site_type_symbol
_atom_site_fract_x
_atom_site_fract_y
_atom_site_fract_z
_atom_site_charge
Mof_Cd	Cd	0.40249	0.44542	0.3686	0.457
Mof_Cd	Cd	0.95707	0.55458	0.1314	0.456
Mof_Cd	Cd	0.59751	0.55458	0.6314	0.457
Mof_Cd	Cd	0.04293	0.44542	0.8686	0.456
Mof_H 	H 	0.2718	0.3476	0.7839	0.056
Mof_H 	H 	0.4317	0.3134	0.8439	0.045
Mof_H 	H 	0.2092	0.1988	0.3706	0.008
Mof_H 	H 	0.1938	0.0268	0.3755	0.109
Mof_H 	H 	0.5816	0.1454	0.3725	0.112
Mof_H 	H 	0.5848	0.3128	0.3669	0.017
Mof_H 	H 	0.248	0.7638	0.3773	0.117
Mof_H 	H 	0.2331	0.5914	0.3811	0.026
Mof_H 	H 	0.6072	0.691	0.3712	0.012
Mof_H 	H 	0.634	0.8648	0.3656	0.104
Mof_H 	H 	0.9242	0.6524	0.7161	0.056
Mof_H 	H 	0.1183	0.6866	0.6561	0.045
Mof_H 	H 	0.0104	0.8012	0.1294	0.009
Mof_H 	H 	0.167	0.9732	0.1245	0.109
Mof_H 	H 	0.4362	0.8546	0.1275	0.111
Mof_H 	H 	0.272	0.6872	0.1331	0.017
Mof_H 	H 	0.4842	0.2362	0.1227	0.117
Mof_H 	H 	0.6417	0.4086	0.1189	0.026
Mof_H 	H 	0.9162	0.309	0.1288	0.012
Mof_H 	H 	0.7692	0.1352	0.1344	0.104
Mof_H 	H 	0.7282	0.6524	0.2161	0.056
Mof_H 	H 	0.5683	0.6866	0.1561	0.045
Mof_H 	H 	0.7908	0.8012	0.6294	0.008
Mof_H 	H 	0.8062	0.9732	0.6245	0.109
Mof_H 	H 	0.4184	0.8546	0.6275	0.112
Mof_H 	H 	0.4152	0.6872	0.6331	0.017
Mof_H 	H 	0.752	0.2362	0.6227	0.117
Mof_H 	H 	0.7669	0.4086	0.6189	0.026
Mof_H 	H 	0.3928	0.309	0.6288	0.012
Mof_H 	H 	0.366	0.1352	0.6344	0.104
Mof_H 	H 	0.0758	0.3476	0.2839	0.056
Mof_H 	H 	0.8817	0.3134	0.3439	0.045
Mof_H 	H 	0.9896	0.1988	0.8706	0.009
Mof_H 	H 	0.833	0.0268	0.8755	0.109
Mof_H 	H 	0.5638	0.1454	0.8725	0.111
Mof_H 	H 	0.728	0.3128	0.8669	0.017
Mof_H 	H 	0.5158	0.7638	0.8773	0.117
Mof_H 	H 	0.3583	0.5914	0.8811	0.026
Mof_H 	H 	0.0838	0.691	0.8712	0.012
Mof_H 	H 	0.2308	0.8648	0.8656	0.104
Mof_C 	C 	0.3281	0.3758	0.0481	0.008
Mof_C 	C 	0.2392	0.406	0.0132	-0.011
Mof_C 	C 	0.2866	0.3582	0.8542	0.015
Mof_C 	C 	0.3794	0.3346	0.8897	0.016
Mof_C 	C 	0.3489	0.3796	0.1583	0.301
Mof_C 	C 	0.1695	0.4598	0.0843	0.305
Mof_C 	C 	0.2858	0.1876	0.3707	0.114
Mof_C 	C 	0.2757	0.0852	0.374	-0.19
Mof_C 	C 	0.3865	0.0684	0.3751	0.178
Mof_C 	C 	0.5038	0.1546	0.3721	-0.183
Mof_C 	C 	0.5041	0.2536	0.3687	0.112
Mof_C 	C 	0.4432	0.8338	0.372	0.171
Mof_C 	C 	0.3234	0.7508	0.3761	-0.179
Mof_C 	C 	0.3155	0.6482	0.3783	0.114
Mof_C 	C 	0.5336	0.7066	0.3723	0.112
Mof_C 	C 	0.5506	0.81	0.3694	-0.186
Mof_C 	C 	0.9523	0.6242	0.4519	0.008
Mof_C 	C 	0.8332	0.594	0.4868	-0.011
Mof_C 	C 	0.9284	0.6418	0.6458	0.015
Mof_C 	C 	0.0448	0.6654	0.6103	0.016
Mof_C 	C 	0.9693	0.6204	0.3417	0.301
Mof_C 	C 	0.7097	0.5402	0.4157	0.305
Mof_C 	C 	0.0982	0.8124	0.1293	0.114
Mof_C 	C 	0.1905	0.9148	0.126	-0.19
Mof_C 	C 	0.3181	0.9316	0.1249	0.178
Mof_C 	C 	0.3492	0.8454	0.1279	-0.183
Mof_C 	C 	0.2505	0.7464	0.1313	0.112
Mof_C 	C 	0.6094	0.1662	0.128	0.171
Mof_C 	C 	0.5726	0.2492	0.1239	-0.179
Mof_C 	C 	0.6673	0.3518	0.1217	0.114
Mof_C 	C 	0.827	0.2934	0.1277	0.112
Mof_C 	C 	0.7406	0.19	0.1306	-0.186
Mof_C 	C 	0.6719	0.6242	0.9519	0.008
Mof_C 	C 	0.7608	0.594	0.9868	-0.011
Mof_C 	C 	0.7134	0.6418	0.1458	0.015
Mof_C 	C 	0.6206	0.6654	0.1103	0.016
Mof_C 	C 	0.6511	0.6204	0.8417	0.301
Mof_C 	C 	0.8305	0.5402	0.9157	0.305
Mof_C 	C 	0.7142	0.8124	0.6293	0.114
Mof_C 	C 	0.7243	0.9148	0.626	-0.19
Mof_C 	C 	0.6135	0.9316	0.6249	0.178
Mof_C 	C 	0.4962	0.8454	0.6279	-0.183
Mof_C 	C 	0.4959	0.7464	0.6313	0.112
Mof_C 	C 	0.5568	0.1662	0.628	0.171
Mof_C 	C 	0.6766	0.2492	0.6239	-0.179
Mof_C 	C 	0.6845	0.3518	0.6217	0.114
Mof_C 	C 	0.4664	0.2934	0.6277	0.112
Mof_C 	C 	0.4494	0.19	0.6306	-0.186
Mof_C 	C 	0.0477	0.3758	0.5481	0.008
Mof_C 	C 	0.1668	0.406	0.5132	-0.011
Mof_C 	C 	0.0716	0.3582	0.3542	0.015
Mof_C 	C 	0.9552	0.3346	0.3897	0.016
Mof_C 	C 	0.0307	0.3796	0.6583	0.301
Mof_C 	C 	0.2903	0.4598	0.5843	0.305
Mof_C 	C 	0.9018	0.1876	0.8707	0.114
Mof_C 	C 	0.8095	0.0852	0.874	-0.19
Mof_C 	C 	0.6819	0.0684	0.8751	0.178
Mof_C 	C 	0.6508	0.1546	0.8721	-0.183
Mof_C 	C 	0.7495	0.2536	0.8687	0.112
Mof_C 	C 	0.3906	0.8338	0.872	0.171
Mof_C 	C 	0.4274	0.7508	0.8761	-0.179
Mof_C 	C 	0.3327	0.6482	0.8783	0.114
Mof_C 	C 	0.173	0.7066	0.8723	0.112
Mof_C 	C 	0.2594	0.81	0.8694	-0.186
Mof_N 	N 	0.4006	0.34	0.9866	-0.097
Mof_N 	N 	0.2151	0.396	0.9146	-0.112
Mof_N 	N 	0.3983	0.2722	0.3677	-0.155
Mof_N 	N 	0.4174	0.6252	0.3768	-0.151
Mof_N 	N 	0.3679	0.96	0.3805	-0.095
Mof_N 	N 	0.4654	0.9438	0.3708	-0.095
Mof_N 	N 	0.0606	0.66	0.5134	-0.097
Mof_N 	N 	0.8191	0.604	0.5854	-0.112
Mof_N 	N 	0.1261	0.7278	0.1323	-0.154
Mof_N 	N 	0.7922	0.3748	0.1232	-0.151
Mof_N 	N 	0.4079	0.04	0.1195	-0.095
Mof_N 	N 	0.5216	0.0562	0.1292	-0.095
Mof_N 	N 	0.5994	0.66	0.0134	-0.097
Mof_N 	N 	0.7849	0.604	0.0854	-0.112
Mof_N 	N 	0.6017	0.7278	0.6323	-0.155
Mof_N 	N 	0.5826	0.3748	0.6232	-0.151
Mof_N 	N 	0.6321	0.04	0.6195	-0.095
Mof_N 	N 	0.5346	0.0562	0.6292	-0.095
Mof_N 	N 	0.9394	0.34	0.4866	-0.097
Mof_N 	N 	0.1809	0.396	0.4146	-0.112
Mof_N 	N 	0.8739	0.2722	0.8677	-0.154
Mof_N 	N 	0.2078	0.6252	0.8768	-0.151
Mof_N 	N 	0.5921	0.96	0.8805	-0.095
Mof_N 	N 	0.4784	0.9438	0.8708	-0.095
Mof_O 	O 	0.4493	0.452	0.2077	-0.264
Mof_O 	O 	0.2616	0.3082	0.1905	-0.253
Mof_O 	O 	0.21	0.4944	0.1716	-0.248
Mof_O 	O 	0.0752	0.4692	0.0453	-0.289
Mof_O 	O 	0.9973	0.548	0.2923	-0.264
Mof_O 	O 	0.9534	0.6918	0.3095	-0.254
Mof_O 	O 	0.7156	0.5056	0.3284	-0.248
Mof_O 	O 	0.606	0.5308	0.4547	-0.29
Mof_O 	O 	0.5507	0.548	0.7923	-0.264
Mof_O 	O 	0.7384	0.6918	0.8095	-0.253
Mof_O 	O 	0.79	0.5056	0.8284	-0.248
Mof_O 	O 	0.9248	0.5308	0.9547	-0.289
Mof_O 	O 	0.0027	0.452	0.7077	-0.264
Mof_O 	O 	0.0466	0.3082	0.6905	-0.254
Mof_O 	O 	0.2844	0.4944	0.6716	-0.248
Mof_O 	O 	0.394	0.4692	0.5453	-0.29
_end
