data_functionalizedCrystal
_audit_creation_method	'EQeq! by Chris Wilmer'
_symmetry_space_group_name_H-M	'P1'
_symmetry_Int_Tables_number	1
_symmetry_cell_setting	triclinic
loop_
_symmetry_equiv_pos_as_xyz
  x,y,z
_cell_length_a	11.8582
_cell_length_b	28.064
_cell_length_c	16.7331
_cell_angle_alpha	90
_cell_angle_beta	96.876
_cell_angle_gamma	90
loop_
_atom_site_label
_atom_site_type_symbol
_atom_site_fract_x
_atom_site_fract_y
_atom_site_fract_z
_atom_site_charge
Mof_Mg	Mg	0.4238	0.31274	0.0124	1.471
Mof_Mg	Mg	0.3741	0.81689	0.4907	1.454
Mof_O 	O 	0.3626	0.3294	0.9002	-0.543
Mof_O 	O 	0.1764	0.3365	0.9022	-0.574
Mof_O 	O 	0.2796	0.6238	0.8835	-0.462
Mof_H 	H 	0.257	0.639	0.923	0.28
Mof_O 	O 	0.1142	0.5895	0.8944	-0.318
Mof_O 	O 	0.3184	0.7485	0.487	-0.581
Mof_O 	O 	0.1323	0.7444	0.4928	-0.525
Mof_O 	O 	0.371	0.5863	0.0854	-0.303
Mof_O 	O 	0.2074	0.6201	0.1005	-0.486
Mof_H 	H 	0.225	0.6375	0.062	0.284
Mof_O 	O 	0.4414	0.3179	0.1393	-0.454
Mof_O 	O 	0.2772	0.3393	0.074	-0.659
Mof_O 	O 	0.2689	0.1873	0.5113	-0.354
Mof_O 	O 	0.0846	0.2011	0.493	-0.5
Mof_C 	C 	0.2466	0.4442	0.5676	-0.039
Mof_C 	C 	0.2453	0.4942	0.5647	-0.019
Mof_C 	C 	0.2518	0.5186	0.4927	-0.036
Mof_C 	C 	0.2607	0.4933	0.4218	-0.025
Mof_C 	C 	0.2638	0.443	0.4237	-0.033
Mof_C 	C 	0.2544	0.4197	0.4958	-0.028
Mof_C 	C 	0.2473	0.4185	0.6457	0.118
Mof_C 	C 	0.3439	0.4175	0.6988	-0.18
Mof_H 	H 	0.4073	0.4342	0.6865	0.095
Mof_C 	C 	0.3505	0.3925	0.7697	0.113
Mof_H 	H 	0.4187	0.3917	0.8035	0.011
Mof_C 	C 	0.257	0.3685	0.7915	-0.196
Mof_C 	C 	0.1576	0.3701	0.7378	0.12
Mof_H 	H 	0.0928	0.3548	0.751	-0.002
Mof_C 	C 	0.1536	0.3937	0.6664	-0.183
Mof_H 	H 	0.087	0.3932	0.6309	0.095
Mof_C 	C 	0.2349	0.5207	0.6408	0.082
Mof_C 	C 	0.3184	0.5507	0.676	-0.14
Mof_H 	H 	0.3832	0.5554	0.6506	0.079
Mof_C 	C 	0.3095	0.574	0.7473	0.073
Mof_H 	H 	0.3688	0.593	0.7705	0.03
Mof_C 	C 	0.2123	0.5691	0.784	-0.14
Mof_C 	C 	0.126	0.5399	0.7503	0.066
Mof_H 	H 	0.0607	0.536	0.7753	0.016
Mof_C 	C 	0.1372	0.5165	0.6794	-0.138
Mof_H 	H 	0.078	0.4974	0.6565	0.077
Mof_C 	C 	0.2463	0.5723	0.4909	0.11
Mof_C 	C 	0.342	0.6	0.4841	-0.181
Mof_H 	H 	0.4113	0.5853	0.4799	0.091
Mof_C 	C 	0.3354	0.6489	0.4836	0.118
Mof_H 	H 	0.4006	0.6666	0.4791	-0.008
Mof_C 	C 	0.235	0.6724	0.4897	-0.198
Mof_C 	C 	0.1405	0.6457	0.4956	0.111
Mof_H 	H 	0.0713	0.6609	0.498	0.005
Mof_C 	C 	0.1453	0.5959	0.4981	-0.175
Mof_H 	H 	0.0803	0.5786	0.5047	0.09
Mof_C 	C 	0.267	0.5189	0.3448	0.096
Mof_C 	C 	0.3632	0.5151	0.3048	-0.153
Mof_H 	H 	0.425	0.4972	0.3275	0.083
Mof_C 	C 	0.3676	0.5374	0.2323	0.079
Mof_H 	H 	0.4316	0.5336	0.2058	0.015
Mof_C 	C 	0.2782	0.5658	0.1975	-0.157
Mof_C 	C 	0.1834	0.5695	0.2386	0.092
Mof_H 	H 	0.1222	0.5882	0.2176	0.015
Mof_C 	C 	0.1795	0.5458	0.3095	-0.161
Mof_H 	H 	0.114	0.5483	0.3349	0.085
Mof_C 	C 	0.2803	0.4151	0.3502	0.105
Mof_C 	C 	0.3782	0.3889	0.3471	-0.168
Mof_H 	H 	0.4328	0.3885	0.3919	0.087
Mof_C 	C 	0.3976	0.3632	0.2797	0.098
Mof_H 	H 	0.4646	0.346	0.2799	0.014
Mof_C 	C 	0.3193	0.3629	0.2124	-0.185
Mof_C 	C 	0.2205	0.3886	0.2144	0.105
Mof_H 	H 	0.166	0.3887	0.1695	-0.032
Mof_C 	C 	0.201	0.4142	0.2823	-0.172
Mof_H 	H 	0.1335	0.4311	0.2822	0.092
Mof_C 	C 	0.243	0.3658	0.4957	0.116
Mof_C 	C 	0.3253	0.336	0.533	-0.19
Mof_H 	H 	0.3927	0.3485	0.5586	0.096
Mof_C 	C 	0.3072	0.2872	0.5324	0.128
Mof_H 	H 	0.3645	0.2672	0.5559	-0.027
Mof_C 	C 	0.2078	0.2676	0.4982	-0.203
Mof_C 	C 	0.125	0.2976	0.4607	0.11
Mof_H 	H 	0.056	0.2852	0.4375	0.003
Mof_C 	C 	0.1456	0.3465	0.4579	-0.179
Mof_H 	H 	0.0919	0.3662	0.4296	0.094
Mof_C 	C 	0.2664	0.3427	0.8705	0.482
Mof_C 	C 	0.1971	0.5947	0.8597	0.394
Mof_C 	C 	0.228	0.7262	0.4901	0.486
Mof_C 	C 	0.2894	0.5903	0.1208	0.419
Mof_C 	C 	0.3465	0.3376	0.1382	0.387
Mof_C 	C 	0.1851	0.2154	0.5016	0.439
Mof_Mg	Mg	0.0762	0.81274	0.4876	1.471
Mof_Mg	Mg	0.1259	0.31689	0.0093	1.453
Mof_O 	O 	0.1374	0.8294	0.5998	-0.544
Mof_O 	O 	0.3236	0.8365	0.5978	-0.575
Mof_O 	O 	0.2204	0.1238	0.6165	-0.462
Mof_H 	H 	0.243	0.139	0.577	0.28
Mof_O 	O 	0.3858	0.0895	0.6056	-0.319
Mof_O 	O 	0.1816	0.2485	0.013	-0.582
Mof_O 	O 	0.3677	0.2444	0.0072	-0.525
Mof_O 	O 	0.129	0.0863	0.4146	-0.303
Mof_O 	O 	0.2926	0.1201	0.3995	-0.486
Mof_H 	H 	0.275	0.1375	0.438	0.284
Mof_O 	O 	0.0586	0.8179	0.3607	-0.454
Mof_O 	O 	0.2228	0.8393	0.426	-0.659
Mof_O 	O 	0.2311	0.6873	0.9887	-0.353
Mof_O 	O 	0.4154	0.7011	0.007	-0.499
Mof_C 	C 	0.2534	0.9442	0.9324	-0.039
Mof_C 	C 	0.2547	0.9942	0.9353	-0.018
Mof_C 	C 	0.2482	0.0186	0.0073	-0.039
Mof_C 	C 	0.2393	0.9933	0.0782	-0.022
Mof_C 	C 	0.2362	0.943	0.0763	-0.035
Mof_C 	C 	0.2456	0.9197	0.0042	-0.027
Mof_C 	C 	0.2527	0.9185	0.8543	0.118
Mof_C 	C 	0.1561	0.9175	0.8012	-0.181
Mof_H 	H 	0.0927	0.9342	0.8135	0.096
Mof_C 	C 	0.1495	0.8925	0.7303	0.114
Mof_H 	H 	0.0813	0.8917	0.6965	0.01
Mof_C 	C 	0.243	0.8685	0.7085	-0.197
Mof_C 	C 	0.3424	0.8701	0.7622	0.121
Mof_H 	H 	0.4072	0.8548	0.749	-0.002
Mof_C 	C 	0.3464	0.8937	0.8336	-0.184
Mof_H 	H 	0.413	0.8932	0.8691	0.095
Mof_C 	C 	0.2651	0.0207	0.8592	0.082
Mof_C 	C 	0.1816	0.0507	0.824	-0.139
Mof_H 	H 	0.1168	0.0554	0.8494	0.08
Mof_C 	C 	0.1905	0.074	0.7527	0.073
Mof_H 	H 	0.1312	0.093	0.7295	0.03
Mof_C 	C 	0.2877	0.0691	0.716	-0.14
Mof_C 	C 	0.374	0.0399	0.7497	0.065
Mof_H 	H 	0.4393	0.036	0.7247	0.016
Mof_C 	C 	0.3628	0.0165	0.8206	-0.136
Mof_H 	H 	0.422	0.9974	0.8435	0.076
Mof_C 	C 	0.2537	0.0723	0.0091	0.113
Mof_C 	C 	0.158	0.1	0.0159	-0.184
Mof_H 	H 	0.0887	0.0853	0.0201	0.091
Mof_C 	C 	0.1646	0.1489	0.0164	0.12
Mof_H 	H 	0.0994	0.1666	0.0209	-0.01
Mof_C 	C 	0.265	0.1724	0.0103	-0.201
Mof_C 	C 	0.3595	0.1457	0.0044	0.115
Mof_H 	H 	0.4287	0.1609	0.002	0.003
Mof_C 	C 	0.3547	0.0959	0.0019	-0.181
Mof_H 	H 	0.4197	0.0786	0.9953	0.093
Mof_C 	C 	0.233	0.0189	0.1552	0.094
Mof_C 	C 	0.1368	0.0151	0.1952	-0.152
Mof_H 	H 	0.075	0.9972	0.1725	0.083
Mof_C 	C 	0.1324	0.0374	0.2677	0.078
Mof_H 	H 	0.0684	0.0336	0.2942	0.015
Mof_C 	C 	0.2218	0.0658	0.3025	-0.157
Mof_C 	C 	0.3166	0.0695	0.2614	0.091
Mof_H 	H 	0.3778	0.0882	0.2824	0.015
Mof_C 	C 	0.3205	0.0458	0.1905	-0.159
Mof_H 	H 	0.386	0.0483	0.1651	0.084
Mof_C 	C 	0.2197	0.9151	0.1498	0.105
Mof_C 	C 	0.1218	0.8889	0.1529	-0.169
Mof_H 	H 	0.0672	0.8885	0.1081	0.087
Mof_C 	C 	0.1024	0.8632	0.2203	0.099
Mof_H 	H 	0.0354	0.846	0.2201	0.013
Mof_C 	C 	0.1807	0.8629	0.2876	-0.186
Mof_C 	C 	0.2795	0.8886	0.2856	0.106
Mof_H 	H 	0.334	0.8887	0.3305	-0.031
Mof_C 	C 	0.299	0.9142	0.2177	-0.172
Mof_H 	H 	0.3665	0.9311	0.2178	0.093
Mof_C 	C 	0.257	0.8658	0.0043	0.115
Mof_C 	C 	0.1747	0.836	0.967	-0.189
Mof_H 	H 	0.1073	0.8485	0.9414	0.096
Mof_C 	C 	0.1928	0.7872	0.9676	0.128
Mof_H 	H 	0.1355	0.7672	0.9441	-0.026
Mof_C 	C 	0.2922	0.7676	0.0018	-0.203
Mof_C 	C 	0.375	0.7976	0.0393	0.11
Mof_H 	H 	0.444	0.7852	0.0625	0.003
Mof_C 	C 	0.3544	0.8465	0.0421	-0.178
Mof_H 	H 	0.4081	0.8662	0.0704	0.094
Mof_C 	C 	0.2336	0.8427	0.6295	0.482
Mof_C 	C 	0.3029	0.0947	0.6403	0.394
Mof_C 	C 	0.272	0.2262	0.0099	0.487
Mof_C 	C 	0.2106	0.0903	0.3792	0.419
Mof_C 	C 	0.1535	0.8376	0.3618	0.387
Mof_C 	C 	0.3149	0.7154	0.9984	0.439
Mof_Mg	Mg	0.5762	0.68726	0.9876	1.471
Mof_Mg	Mg	0.6259	0.18311	0.5093	1.454
Mof_O 	O 	0.6374	0.6706	0.0998	-0.543
Mof_O 	O 	0.8236	0.6635	0.0978	-0.574
Mof_O 	O 	0.7204	0.3762	0.1165	-0.462
Mof_H 	H 	0.743	0.361	0.077	0.28
Mof_O 	O 	0.8858	0.4105	0.1056	-0.318
Mof_O 	O 	0.6816	0.2515	0.513	-0.581
Mof_O 	O 	0.8677	0.2556	0.5072	-0.525
Mof_O 	O 	0.629	0.4137	0.9146	-0.303
Mof_O 	O 	0.7926	0.3799	0.8995	-0.486
Mof_H 	H 	0.775	0.3625	0.938	0.284
Mof_O 	O 	0.5586	0.6821	0.8607	-0.454
Mof_O 	O 	0.7228	0.6607	0.926	-0.659
Mof_O 	O 	0.7311	0.8127	0.4887	-0.354
Mof_O 	O 	0.9154	0.7989	0.507	-0.5
Mof_C 	C 	0.7534	0.5558	0.4324	-0.039
Mof_C 	C 	0.7547	0.5058	0.4353	-0.019
Mof_C 	C 	0.7482	0.4814	0.5073	-0.036
Mof_C 	C 	0.7393	0.5067	0.5782	-0.025
Mof_C 	C 	0.7362	0.557	0.5763	-0.033
Mof_C 	C 	0.7456	0.5803	0.5042	-0.028
Mof_C 	C 	0.7527	0.5815	0.3543	0.118
Mof_C 	C 	0.6561	0.5825	0.3012	-0.18
Mof_H 	H 	0.5927	0.5658	0.3135	0.095
Mof_C 	C 	0.6495	0.6075	0.2303	0.113
Mof_H 	H 	0.5813	0.6083	0.1965	0.011
Mof_C 	C 	0.743	0.6315	0.2085	-0.196
Mof_C 	C 	0.8424	0.6299	0.2622	0.12
Mof_H 	H 	0.9072	0.6452	0.249	-0.002
Mof_C 	C 	0.8464	0.6063	0.3336	-0.183
Mof_H 	H 	0.913	0.6068	0.3691	0.095
Mof_C 	C 	0.7651	0.4793	0.3592	0.082
Mof_C 	C 	0.6816	0.4493	0.324	-0.14
Mof_H 	H 	0.6168	0.4446	0.3494	0.079
Mof_C 	C 	0.6905	0.426	0.2527	0.073
Mof_H 	H 	0.6312	0.407	0.2295	0.03
Mof_C 	C 	0.7877	0.4309	0.216	-0.14
Mof_C 	C 	0.874	0.4601	0.2497	0.066
Mof_H 	H 	0.9393	0.464	0.2247	0.016
Mof_C 	C 	0.8628	0.4835	0.3206	-0.138
Mof_H 	H 	0.922	0.5026	0.3435	0.077
Mof_C 	C 	0.7537	0.4277	0.5091	0.11
Mof_C 	C 	0.658	0.4	0.5159	-0.181
Mof_H 	H 	0.5887	0.4147	0.5201	0.091
Mof_C 	C 	0.6646	0.3511	0.5164	0.118
Mof_H 	H 	0.5994	0.3334	0.5209	-0.008
Mof_C 	C 	0.765	0.3276	0.5103	-0.198
Mof_C 	C 	0.8595	0.3543	0.5044	0.111
Mof_H 	H 	0.9287	0.3391	0.502	0.005
Mof_C 	C 	0.8547	0.4041	0.5019	-0.175
Mof_H 	H 	0.9197	0.4214	0.4953	0.09
Mof_C 	C 	0.733	0.4811	0.6552	0.096
Mof_C 	C 	0.6368	0.4849	0.6952	-0.153
Mof_H 	H 	0.575	0.5028	0.6725	0.083
Mof_C 	C 	0.6324	0.4626	0.7677	0.079
Mof_H 	H 	0.5684	0.4664	0.7942	0.015
Mof_C 	C 	0.7218	0.4342	0.8025	-0.157
Mof_C 	C 	0.8166	0.4305	0.7614	0.092
Mof_H 	H 	0.8778	0.4118	0.7824	0.015
Mof_C 	C 	0.8205	0.4542	0.6905	-0.161
Mof_H 	H 	0.886	0.4517	0.6651	0.085
Mof_C 	C 	0.7197	0.5849	0.6498	0.105
Mof_C 	C 	0.6218	0.6111	0.6529	-0.168
Mof_H 	H 	0.5672	0.6115	0.6081	0.087
Mof_C 	C 	0.6024	0.6368	0.7203	0.098
Mof_H 	H 	0.5354	0.654	0.7201	0.014
Mof_C 	C 	0.6807	0.6371	0.7876	-0.185
Mof_C 	C 	0.7795	0.6114	0.7856	0.105
Mof_H 	H 	0.834	0.6113	0.8305	-0.032
Mof_C 	C 	0.799	0.5858	0.7177	-0.172
Mof_H 	H 	0.8665	0.5689	0.7178	0.092
Mof_C 	C 	0.757	0.6342	0.5043	0.116
Mof_C 	C 	0.6747	0.664	0.467	-0.19
Mof_H 	H 	0.6073	0.6515	0.4414	0.096
Mof_C 	C 	0.6928	0.7128	0.4676	0.128
Mof_H 	H 	0.6355	0.7328	0.4441	-0.027
Mof_C 	C 	0.7922	0.7324	0.5018	-0.203
Mof_C 	C 	0.875	0.7024	0.5393	0.11
Mof_H 	H 	0.944	0.7148	0.5625	0.003
Mof_C 	C 	0.8544	0.6535	0.5421	-0.179
Mof_H 	H 	0.9081	0.6338	0.5704	0.094
Mof_C 	C 	0.7336	0.6573	0.1295	0.482
Mof_C 	C 	0.8029	0.4053	0.1403	0.394
Mof_C 	C 	0.772	0.2738	0.5099	0.486
Mof_C 	C 	0.7106	0.4097	0.8792	0.419
Mof_C 	C 	0.6535	0.6624	0.8618	0.387
Mof_C 	C 	0.8149	0.7846	0.4984	0.439
Mof_Mg	Mg	0.9238	0.18726	0.5124	1.471
Mof_Mg	Mg	0.8741	0.68311	0.9907	1.453
Mof_O 	O 	0.8626	0.1706	0.4002	-0.544
Mof_O 	O 	0.6764	0.1635	0.4022	-0.575
Mof_O 	O 	0.7796	0.8762	0.3835	-0.462
Mof_H 	H 	0.757	0.861	0.423	0.28
Mof_O 	O 	0.6142	0.9105	0.3944	-0.319
Mof_O 	O 	0.8184	0.7515	0.987	-0.582
Mof_O 	O 	0.6323	0.7556	0.9928	-0.525
Mof_O 	O 	0.871	0.9137	0.5854	-0.303
Mof_O 	O 	0.7074	0.8799	0.6005	-0.486
Mof_H 	H 	0.725	0.8625	0.562	0.284
Mof_O 	O 	0.9414	0.1821	0.6393	-0.454
Mof_O 	O 	0.7772	0.1607	0.574	-0.659
Mof_O 	O 	0.7689	0.3127	0.0113	-0.353
Mof_O 	O 	0.5846	0.2989	0.993	-0.499
Mof_C 	C 	0.7466	0.0558	0.0676	-0.039
Mof_C 	C 	0.7453	0.0058	0.0647	-0.018
Mof_C 	C 	0.7518	0.9814	0.9927	-0.039
Mof_C 	C 	0.7607	0.0067	0.9218	-0.022
Mof_C 	C 	0.7638	0.057	0.9237	-0.035
Mof_C 	C 	0.7544	0.0803	0.9958	-0.027
Mof_C 	C 	0.7473	0.0815	0.1457	0.118
Mof_C 	C 	0.8439	0.0825	0.1988	-0.181
Mof_H 	H 	0.9073	0.0658	0.1865	0.096
Mof_C 	C 	0.8505	0.1075	0.2697	0.114
Mof_H 	H 	0.9187	0.1083	0.3035	0.01
Mof_C 	C 	0.757	0.1315	0.2915	-0.197
Mof_C 	C 	0.6576	0.1299	0.2378	0.121
Mof_H 	H 	0.5928	0.1452	0.251	-0.002
Mof_C 	C 	0.6536	0.1063	0.1664	-0.184
Mof_H 	H 	0.587	0.1068	0.1309	0.095
Mof_C 	C 	0.7349	0.9793	0.1408	0.082
Mof_C 	C 	0.8184	0.9493	0.176	-0.139
Mof_H 	H 	0.8832	0.9446	0.1506	0.08
Mof_C 	C 	0.8095	0.926	0.2473	0.073
Mof_H 	H 	0.8688	0.907	0.2705	0.03
Mof_C 	C 	0.7123	0.9309	0.284	-0.14
Mof_C 	C 	0.626	0.9601	0.2503	0.065
Mof_H 	H 	0.5607	0.964	0.2753	0.016
Mof_C 	C 	0.6372	0.9835	0.1794	-0.136
Mof_H 	H 	0.578	0.0026	0.1565	0.076
Mof_C 	C 	0.7463	0.9277	0.9909	0.113
Mof_C 	C 	0.842	0.9	0.9841	-0.184
Mof_H 	H 	0.9113	0.9147	0.9799	0.091
Mof_C 	C 	0.8354	0.8511	0.9836	0.12
Mof_H 	H 	0.9006	0.8334	0.9791	-0.01
Mof_C 	C 	0.735	0.8276	0.9897	-0.201
Mof_C 	C 	0.6405	0.8543	0.9956	0.115
Mof_H 	H 	0.5713	0.8391	0.998	0.003
Mof_C 	C 	0.6453	0.9041	0.9981	-0.181
Mof_H 	H 	0.5803	0.9214	0.0047	0.093
Mof_C 	C 	0.767	0.9811	0.8448	0.094
Mof_C 	C 	0.8632	0.9849	0.8048	-0.152
Mof_H 	H 	0.925	0.0028	0.8275	0.083
Mof_C 	C 	0.8676	0.9626	0.7323	0.078
Mof_H 	H 	0.9316	0.9664	0.7058	0.015
Mof_C 	C 	0.7782	0.9342	0.6975	-0.157
Mof_C 	C 	0.6834	0.9305	0.7386	0.091
Mof_H 	H 	0.6222	0.9118	0.7176	0.015
Mof_C 	C 	0.6795	0.9542	0.8095	-0.159
Mof_H 	H 	0.614	0.9517	0.8349	0.084
Mof_C 	C 	0.7803	0.0849	0.8502	0.105
Mof_C 	C 	0.8782	0.1111	0.8471	-0.169
Mof_H 	H 	0.9328	0.1115	0.8919	0.087
Mof_C 	C 	0.8976	0.1368	0.7797	0.099
Mof_H 	H 	0.9646	0.154	0.7799	0.013
Mof_C 	C 	0.8193	0.1371	0.7124	-0.186
Mof_C 	C 	0.7205	0.1114	0.7144	0.106
Mof_H 	H 	0.666	0.1113	0.6695	-0.031
Mof_C 	C 	0.701	0.0858	0.7823	-0.172
Mof_H 	H 	0.6335	0.0689	0.7822	0.093
Mof_C 	C 	0.743	0.1342	0.9957	0.115
Mof_C 	C 	0.8253	0.164	0.033	-0.189
Mof_H 	H 	0.8927	0.1515	0.0586	0.096
Mof_C 	C 	0.8072	0.2128	0.0324	0.128
Mof_H 	H 	0.8645	0.2328	0.0559	-0.026
Mof_C 	C 	0.7078	0.2324	0.9982	-0.203
Mof_C 	C 	0.625	0.2024	0.9607	0.11
Mof_H 	H 	0.556	0.2148	0.9375	0.003
Mof_C 	C 	0.6456	0.1535	0.9579	-0.178
Mof_H 	H 	0.5919	0.1338	0.9296	0.094
Mof_C 	C 	0.7664	0.1573	0.3705	0.482
Mof_C 	C 	0.6971	0.9053	0.3597	0.394
Mof_C 	C 	0.728	0.7738	0.9901	0.487
Mof_C 	C 	0.7894	0.9097	0.6208	0.419
Mof_C 	C 	0.8465	0.1624	0.6382	0.387
Mof_C 	C 	0.6851	0.2846	0.0016	0.439
_end
