data_functionalizedCrystal
_audit_creation_method	'EQeq! by Chris Wilmer'
_symmetry_space_group_name_H-M	'P1'
_symmetry_Int_Tables_number	1
_symmetry_cell_setting	triclinic
loop_
_symmetry_equiv_pos_as_xyz
  x,y,z
_cell_length_a	15.168
_cell_length_b	18.972
_cell_length_c	6.628
_cell_angle_alpha	90
_cell_angle_beta	90
_cell_angle_gamma	90
loop_
_atom_site_label
_atom_site_type_symbol
_atom_site_fract_x
_atom_site_fract_y
_atom_site_fract_z
_atom_site_charge
Mof_P 	P 	0.1205	0.0598	0.0755	-0.097
Mof_O 	O 	0.9017	0.1116	0.6869	-0.612
Mof_O 	O 	0.9935	0.3238	0.187	-0.68
Mof_O 	O 	0.7362	0.2759	0.1891	-0.715
Mof_O 	O 	0.1232	0.0643	0.3077	-0.061
Mof_P 	P 	0.8795	0.9402	0.0755	-0.097
Mof_O 	O 	0.0983	0.8884	0.6869	-0.611
Mof_O 	O 	0.0065	0.6762	0.187	-0.679
Mof_O 	O 	0.2638	0.7241	0.1891	-0.714
Mof_O 	O 	0.8768	0.9357	0.3077	-0.06
Mof_P 	P 	0.3795	0.5598	0.4245	0.414
Mof_O 	O 	0.5983	0.6116	0.8131	-0.558
Mof_O 	O 	0.5065	0.8238	0.313	-0.66
Mof_O 	O 	0.7638	0.7759	0.3109	-0.698
Mof_O 	O 	0.3768	0.5643	0.1923	-0.243
Mof_P 	P 	0.6205	0.4402	0.4245	0.414
Mof_O 	O 	0.4017	0.3884	0.8131	-0.558
Mof_O 	O 	0.4935	0.1762	0.313	-0.66
Mof_O 	O 	0.2362	0.2241	0.3109	-0.698
Mof_O 	O 	0.6232	0.4357	0.1923	-0.243
Mof_P 	P 	0.8795	0.9402	0.9245	1.118
Mof_O 	O 	0.0983	0.8884	0.3131	-0.669
Mof_O 	O 	0.0065	0.6762	0.813	-0.542
Mof_O 	O 	0.2638	0.7241	0.8109	-0.579
Mof_O 	O 	0.8768	0.9357	0.6923	-0.261
Mof_P 	P 	0.1205	0.0598	0.9245	1.118
Mof_O 	O 	0.9017	0.1116	0.3131	-0.669
Mof_O 	O 	0.9935	0.3238	0.813	-0.542
Mof_O 	O 	0.7362	0.2759	0.8109	-0.579
Mof_O 	O 	0.1232	0.0643	0.6923	-0.261
Mof_P 	P 	0.6205	0.4402	0.5755	0.409
Mof_O 	O 	0.4017	0.3884	0.1869	-0.693
Mof_O 	O 	0.4935	0.1762	0.687	-0.58
Mof_O 	O 	0.2362	0.2241	0.6891	-0.626
Mof_O 	O 	0.6232	0.4357	0.8077	-0.113
Mof_P 	P 	0.3795	0.5598	0.5755	0.409
Mof_O 	O 	0.5983	0.6116	0.1869	-0.693
Mof_O 	O 	0.5065	0.8238	0.687	-0.58
Mof_O 	O 	0.7638	0.7759	0.6891	-0.626
Mof_O 	O 	0.3768	0.5643	0.8077	-0.113
Mof_Zr	Zr	0.90134	0.11654	-0	3.208
Mof_P 	P 	0.0125	0.28008	-0	0.697
Mof_P 	P 	0.7206	0.2307	-0	0.69
Mof_O 	O 	0.9551	0.2149	-0	-0.826
Mof_O 	O 	0.7813	0.1667	-0	-0.772
Mof_O 	O 	0.0294	0.0773	-0	-0.84
Mof_O 	O 	0.8539	0.0143	-0	-0.781
Mof_Zr	Zr	0.09866	0.88346	-0	3.208
Mof_P 	P 	0.9875	0.71992	-0	0.697
Mof_P 	P 	0.2794	0.7693	-0	0.69
Mof_O 	O 	0.0449	0.7851	-0	-0.826
Mof_O 	O 	0.2187	0.8333	-0	-0.772
Mof_O 	O 	0.9706	0.9227	-0	-0.84
Mof_O 	O 	0.1461	0.9857	-0	-0.781
Mof_Zr	Zr	0.59866	0.61654	0.5	3.216
Mof_P 	P 	0.4875	0.78008	0.5	0.812
Mof_P 	P 	0.7794	0.7307	0.5	0.806
Mof_O 	O 	0.5449	0.7149	0.5	-0.769
Mof_O 	O 	0.7187	0.6667	0.5	-0.723
Mof_O 	O 	0.4706	0.5773	0.5	-0.736
Mof_O 	O 	0.6461	0.5143	0.5	-0.677
Mof_Zr	Zr	0.40134	0.38346	0.5	3.216
Mof_P 	P 	0.5125	0.21992	0.5	0.812
Mof_P 	P 	0.2206	0.2693	0.5	0.806
Mof_O 	O 	0.4551	0.2851	0.5	-0.769
Mof_O 	O 	0.2813	0.3333	0.5	-0.723
Mof_O 	O 	0.5294	0.4227	0.5	-0.736
Mof_O 	O 	0.3539	0.4857	0.5	-0.677
Mof_Zr	Zr	0.73125	0.28347	0.5	3.221
Mof_Zr	Zr	0.9966	0.31894	0.5	3.228
Mof_P 	P 	0.8911	0.15733	0.5	0.796
Mof_F 	F 	0.8568	0.332	0.5	-0.99
Mof_F 	F 	0.9998	0.4229	0.5	-0.691
Mof_O 	O 	0.7998	0.1904	0.5	-0.733
Mof_O 	O 	0.9598	0.215	0.5	-0.76
Mof_O 	O 	0.6099	0.2421	0.5	-0.784
Mof_O 	O 	0.1256	0.2967	0.5	-0.754
Mof_O 	O 	0.6886	0.3869	0.5	-0.679
Mof_Zr	Zr	0.26875	0.71653	0.5	3.221
Mof_Zr	Zr	0.0034	0.68106	0.5	3.228
Mof_P 	P 	0.1089	0.84267	0.5	0.796
Mof_F 	F 	0.1432	0.668	0.5	-0.99
Mof_F 	F 	0.0002	0.5771	0.5	-0.691
Mof_O 	O 	0.2002	0.8096	0.5	-0.733
Mof_O 	O 	0.0402	0.785	0.5	-0.76
Mof_O 	O 	0.3901	0.7579	0.5	-0.784
Mof_O 	O 	0.8744	0.7033	0.5	-0.754
Mof_O 	O 	0.3114	0.6131	0.5	-0.679
Mof_Zr	Zr	0.76875	0.78347	-0	3.213
Mof_Zr	Zr	0.5034	0.81894	-0	3.218
Mof_P 	P 	0.6089	0.65733	-0	0.677
Mof_F 	F 	0.6432	0.832	-0	-1.033
Mof_F 	F 	0.5002	0.9229	-0	-0.733
Mof_O 	O 	0.7002	0.6904	-0	-0.8
Mof_O 	O 	0.5402	0.715	-0	-0.822
Mof_O 	O 	0.8901	0.7421	-0	-0.844
Mof_O 	O 	0.3744	0.7967	-0	-0.809
Mof_O 	O 	0.8114	0.8869	-0	-0.782
Mof_Zr	Zr	0.23125	0.21653	-0	3.213
Mof_Zr	Zr	0.4966	0.18106	-0	3.218
Mof_P 	P 	0.3911	0.34267	-0	0.677
Mof_F 	F 	0.3568	0.168	-0	-1.033
Mof_F 	F 	0.4998	0.0771	-0	-0.733
Mof_O 	O 	0.2998	0.3096	-0	-0.8
Mof_O 	O 	0.4598	0.285	-0	-0.822
Mof_O 	O 	0.1099	0.2579	-0	-0.844
Mof_O 	O 	0.6256	0.2033	-0	-0.809
Mof_O 	O 	0.1886	0.1131	-0	-0.782
_end
