data_functionalizedCrystal
_audit_creation_method	'EQeq! by Chris Wilmer'
_symmetry_space_group_name_H-M	'P1'
_symmetry_Int_Tables_number	1
_symmetry_cell_setting	triclinic
loop_
_symmetry_equiv_pos_as_xyz
  x,y,z
_cell_length_a	10.814
_cell_length_b	11.523
_cell_length_c	12.6159
_cell_angle_alpha	110.517
_cell_angle_beta	115.378
_cell_angle_gamma	90
loop_
_atom_site_label
_atom_site_type_symbol
_atom_site_fract_x
_atom_site_fract_y
_atom_site_fract_z
_atom_site_charge
Mof_Ni	Ni	0.90294	0.06273	0.64344	1.089
Mof_Ni	Ni	0.7405	0.56273	0.64344	1.093
Mof_Ni	Ni	0.2595	0.43727	0.35656	1.092
Mof_Ni	Ni	0.09706	0.93727	0.35656	1.088
Mof_H 	H 	0.5968	0.7857	0.2102	0.113
Mof_H 	H 	0.9607	0.6746	0.1352	-0.007
Mof_H 	H 	0.2689	0.1883	0.4314	0.014
Mof_H 	H 	0.2133	0.4325	0.5756	0.021
Mof_H 	H 	0.3623	0.9325	0.5756	0.018
Mof_H 	H 	0.3815	0.9126	0.933	0.076
Mof_H 	H 	0.7318	0.9676	0.973	0.119
Mof_H 	H 	0.8255	0.8254	0.8648	-0.007
Mof_H 	H 	0.6185	0.0874	0.067	0.076
Mof_H 	H 	0.8375	0.3117	0.5686	0.013
Mof_H 	H 	0.8044	0.9175	0.318	-0.008
Mof_H 	H 	0.6377	0.0675	0.4244	0.018
Mof_H 	H 	0.1625	0.6883	0.4314	0.013
Mof_H 	H 	0.414	0.9595	0.2886	0.056
Mof_H 	H 	0.4032	0.2143	0.7898	0.113
Mof_H 	H 	0.1254	0.5405	0.7114	0.056
Mof_H 	H 	0.3866	0.7143	0.7898	0.113
Mof_H 	H 	0.5515	0.4126	0.933	0.077
Mof_H 	H 	0.7867	0.5675	0.4244	0.021
Mof_H 	H 	0.5136	0.4175	0.318	-0.01
Mof_H 	H 	0.8746	0.4595	0.2886	0.056
Mof_H 	H 	0.1745	0.1746	0.1352	-0.007
Mof_H 	H 	0.2682	0.0324	0.027	0.119
Mof_H 	H 	0.7588	0.5324	0.027	0.117
Mof_H 	H 	0.586	0.0405	0.7114	0.056
Mof_H 	H 	0.6134	0.2857	0.2102	0.113
Mof_H 	H 	0.4485	0.5874	0.067	0.077
Mof_H 	H 	0.7311	0.8117	0.5686	0.014
Mof_H 	H 	0.2412	0.4676	0.973	0.117
Mof_H 	H 	0.1956	0.0825	0.682	-0.008
Mof_H 	H 	0.0393	0.3254	0.8648	-0.007
Mof_H 	H 	0.4864	0.5825	0.682	-0.01
Mof_C 	C 	0.84686	0.34221	0.51272	0.064
Mof_C 	C 	0.32102	0.1112	0.08564	-0.208
Mof_C 	C 	0.02067	0.75066	0.73642	0.321
Mof_C 	C 	0.47304	0.943	0.95672	-0.098
Mof_C 	C 	0.23538	0.3888	0.91436	-0.207
Mof_C 	C 	0.18312	0.50734	0.57218	0.053
Mof_C 	C 	0.34891	0.3584	0.89358	0.156
Mof_C 	C 	0.50038	0.64869	0.44294	0.409
Mof_C 	C 	0.97933	0.24934	0.26358	0.321
Mof_C 	C 	0.52341	0.259	0.19348	-0.208
Mof_C 	C 	0.66586	0.84221	0.51272	0.065
Mof_C 	C 	0.65109	0.6416	0.10642	0.156
Mof_C 	C 	0.32993	0.241	0.80652	-0.207
Mof_C 	C 	0.26538	0.19751	0.15182	0.116
Mof_C 	C 	0.46794	0.22859	0.5659	-0.113
Mof_C 	C 	0.53206	0.77141	0.4341	-0.113
Mof_C 	C 	0.54467	0.8584	0.89358	0.157
Mof_C 	C 	0.38906	0.00734	0.57218	0.058
Mof_C 	C 	0.90204	0.27141	0.4341	-0.111
Mof_C 	C 	0.71575	0.25066	0.73642	0.325
Mof_C 	C 	0.15314	0.65779	0.48728	0.064
Mof_C 	C 	0.47659	0.741	0.80652	-0.208
Mof_C 	C 	0.09796	0.72859	0.5659	-0.111
Mof_C 	C 	0.49962	0.35131	0.55706	0.409
Mof_C 	C 	0.28425	0.74934	0.26358	0.325
Mof_C 	C 	0.94256	0.14869	0.44294	0.4
Mof_C 	C 	0.12992	0.57165	0.65412	-0.083
Mof_C 	C 	0.52696	0.057	0.04328	-0.098
Mof_C 	C 	0.87008	0.42835	0.34588	-0.083
Mof_C 	C 	0.79556	0.839	0.25732	0.124
Mof_C 	C 	0.67898	0.8888	0.91436	-0.208
Mof_C 	C 	0.43343	0.81645	0.35008	-0.015
Mof_C 	C 	0.11356	0.30249	0.84818	0.116
Mof_C 	C 	0.91665	0.31645	0.35008	-0.016
Mof_C 	C 	0.56657	0.18355	0.64992	-0.015
Mof_C 	C 	0.76462	0.6112	0.08564	-0.207
Mof_C 	C 	0.33414	0.15779	0.48728	0.065
Mof_C 	C 	0.46176	0.339	0.25732	0.125
Mof_C 	C 	0.20444	0.161	0.74268	0.124
Mof_C 	C 	0.5242	0.07165	0.65412	-0.086
Mof_C 	C 	0.4758	0.92835	0.34588	-0.086
Mof_C 	C 	0.81688	0.49266	0.42782	0.053
Mof_C 	C 	0.48368	0.443	0.95672	-0.098
Mof_C 	C 	0.45533	0.1416	0.10642	0.157
Mof_C 	C 	0.73462	0.80249	0.84818	0.116
Mof_C 	C 	0.51632	0.557	0.04328	-0.098
Mof_C 	C 	0.05744	0.85131	0.55706	0.4
Mof_C 	C 	0.88644	0.69751	0.15182	0.116
Mof_C 	C 	0.08335	0.68355	0.64992	-0.016
Mof_C 	C 	0.53824	0.661	0.74268	0.125
Mof_C 	C 	0.61094	0.99266	0.42782	0.058
Mof_C 	C 	0.67007	0.759	0.19348	-0.207
Mof_N 	N 	0.705	0.95185	0.51182	-0.216
Mof_N 	N 	0.09571	0.18837	0.76188	-0.243
Mof_N 	N 	0.33383	0.31163	0.23812	-0.246
Mof_N 	N 	0.90429	0.81163	0.23812	-0.243
Mof_N 	N 	0.19318	0.54815	0.48818	-0.216
Mof_N 	N 	0.80682	0.45185	0.51182	-0.216
Mof_N 	N 	0.66617	0.68837	0.76188	-0.246
Mof_N 	N 	0.295	0.04815	0.48818	-0.216
Mof_O 	O 	0.37473	0.59928	0.38998	-0.429
Mof_O 	O 	0.89523	0.71291	0.69994	-0.396
Mof_O 	O 	0.39772	0.39579	0.50244	-0.437
Mof_O 	O 	0.98475	0.90072	0.61002	-0.421
Mof_O 	O 	0.01525	0.09928	0.38998	-0.421
Mof_O 	O 	0.60228	0.60421	0.49756	-0.437
Mof_O 	O 	0.74047	0.33683	0.8402	-0.269
Mof_O 	O 	0.62527	0.40072	0.61002	-0.429
Mof_O 	O 	0.09973	0.83683	0.8402	-0.269
Mof_O 	O 	0.19529	0.78709	0.30006	-0.401
Mof_O 	O 	0.25953	0.66317	0.1598	-0.269
Mof_O 	O 	0.10472	0.89579	0.50244	-0.438
Mof_O 	O 	0.89528	0.10421	0.49756	-0.438
Mof_O 	O 	0.10477	0.28709	0.30006	-0.396
Mof_O 	O 	0.80471	0.21291	0.69994	-0.401
Mof_O 	O 	0.90027	0.16317	0.1598	-0.269
_end
