data_functionalizedCrystal
_audit_creation_method	'EQeq! by Chris Wilmer'
_symmetry_space_group_name_H-M	'P1'
_symmetry_Int_Tables_number	1
_symmetry_cell_setting	triclinic
loop_
_symmetry_equiv_pos_as_xyz
  x,y,z
_cell_length_a	18.5676
_cell_length_b	18.5676
_cell_length_c	20.4386
_cell_angle_alpha	62.9847
_cell_angle_beta	62.9847
_cell_angle_gamma	60
loop_
_atom_site_label
_atom_site_type_symbol
_atom_site_fract_x
_atom_site_fract_y
_atom_site_fract_z
_atom_site_charge
Mof_Cu	Cu	0.49723	0.06845	0.93778	0.908
Mof_Cu	Cu	0.06845	0.49654	0.93778	0.908
Mof_Cu	Cu	0.49654	0.49723	0.93778	0.908
Mof_Cu	Cu	0.50277	0.50346	0.06222	0.908
Mof_Cu	Cu	0.93155	0.50277	0.06222	0.907
Mof_Cu	Cu	0.50346	0.93155	0.06222	0.907
Mof_H 	H 	0.7725	0.772	0.9907	0.06
Mof_H 	H 	0.7649	0.9761	0.7975	0.063
Mof_H 	H 	0.9795	0.7616	0.8017	0.072
Mof_H 	H 	0.9382	0.8132	0.6712	0.093
Mof_H 	H 	0.8915	0.0085	0.7771	0.127
Mof_H 	H 	0.9584	0.2011	0.5983	0.128
Mof_H 	H 	0.9935	0.1288	0.5143	0.043
Mof_H 	H 	0.772	0.4648	0.9907	0.061
Mof_H 	H 	0.9761	0.4615	0.7975	0.063
Mof_H 	H 	0.7616	0.4572	0.8017	0.073
Mof_H 	H 	0.8132	0.5774	0.6712	0.093
Mof_H 	H 	0.0085	0.3229	0.7771	0.129
Mof_H 	H 	0.2011	0.2422	0.5983	0.13
Mof_H 	H 	0.1288	0.3634	0.5143	0.039
Mof_H 	H 	0.4648	0.7725	0.9907	0.061
Mof_H 	H 	0.4615	0.7649	0.7975	0.064
Mof_H 	H 	0.4572	0.9795	0.8017	0.073
Mof_H 	H 	0.5774	0.9382	0.6712	0.092
Mof_H 	H 	0.3229	0.8915	0.7771	0.13
Mof_H 	H 	0.2422	0.9584	0.5983	0.131
Mof_H 	H 	0.3634	0.9935	0.5143	0.038
Mof_H 	H 	0.2275	0.5352	0.0093	0.061
Mof_H 	H 	0.2351	0.5385	0.2025	0.064
Mof_H 	H 	0.0205	0.5428	0.1983	0.073
Mof_H 	H 	0.0618	0.4226	0.3288	0.092
Mof_H 	H 	0.1085	0.6771	0.2229	0.13
Mof_H 	H 	0.0416	0.7578	0.4017	0.131
Mof_H 	H 	0.0065	0.6366	0.4857	0.038
Mof_H 	H 	0.228	0.2275	0.0093	0.06
Mof_H 	H 	0.0239	0.2351	0.2025	0.063
Mof_H 	H 	0.2384	0.0205	0.1983	0.072
Mof_H 	H 	0.1868	0.0618	0.3288	0.093
Mof_H 	H 	0.9915	0.1085	0.2229	0.127
Mof_H 	H 	0.7989	0.0416	0.4017	0.128
Mof_H 	H 	0.8712	0.0065	0.4857	0.043
Mof_H 	H 	0.5352	0.228	0.0093	0.061
Mof_H 	H 	0.5385	0.0239	0.2025	0.063
Mof_H 	H 	0.5428	0.2384	0.1983	0.073
Mof_H 	H 	0.4226	0.1868	0.3288	0.093
Mof_H 	H 	0.6771	0.9915	0.2229	0.129
Mof_H 	H 	0.7578	0.7989	0.4017	0.13
Mof_H 	H 	0.6366	0.8712	0.4857	0.039
Mof_C 	C 	0.93139	0.65689	0.93793	0.335
Mof_C 	C 	0.88411	0.75261	0.90007	-0.053
Mof_C 	C 	0.79734	0.79844	0.93958	0.021
Mof_C 	C 	0.75138	0.87868	0.90406	-0.082
Mof_C 	C 	0.66085	0.92195	0.94195	0.367
Mof_C 	C 	0.79469	0.91929	0.82273	-0.03
Mof_C 	C 	0.87683	0.87513	0.78451	0.015
Mof_C 	C 	0.92222	0.79132	0.82564	-0.034
Mof_C 	C 	0.92344	0.90974	0.70258	0.015
Mof_C 	C 	0.94452	0.86642	0.65224	-0.124
Mof_C 	C 	0.97507	0.90247	0.57349	0.123
Mof_C 	C 	0.98454	0.98184	0.54508	-0.019
Mof_C 	C 	0.96356	0.02516	0.59542	-0
Mof_C 	C 	0.93301	0.98911	0.67417	0.056
Mof_C 	C 	0.91192	0.03252	0.72454	-0.163
Mof_C 	C 	0.9215	0.1119	0.6961	0.215
Mof_C 	C 	0.9519	0.148	0.6175	-0.15
Mof_C 	C 	0.97302	0.10462	0.56704	0.025
Mof_C 	C 	0.65689	0.47379	0.93793	0.351
Mof_C 	C 	0.75261	0.46321	0.90007	-0.056
Mof_C 	C 	0.79844	0.46464	0.93958	0.024
Mof_C 	C 	0.87868	0.46588	0.90406	-0.084
Mof_C 	C 	0.92195	0.47525	0.94195	0.371
Mof_C 	C 	0.91929	0.46329	0.82273	-0.029
Mof_C 	C 	0.87513	0.46353	0.78451	0.016
Mof_C 	C 	0.79132	0.46082	0.82564	-0.032
Mof_C 	C 	0.90974	0.46424	0.70258	0.012
Mof_C 	C 	0.86642	0.53682	0.65224	-0.122
Mof_C 	C 	0.90247	0.54897	0.57349	0.124
Mof_C 	C 	0.98184	0.48854	0.54508	-0.016
Mof_C 	C 	0.02516	0.41586	0.59542	-0.01
Mof_C 	C 	0.98911	0.40371	0.67417	0.067
Mof_C 	C 	0.03252	0.33102	0.72454	-0.173
Mof_C 	C 	0.1119	0.2705	0.6961	0.22
Mof_C 	C 	0.148	0.2826	0.6175	-0.156
Mof_C 	C 	0.10462	0.35532	0.56704	0.032
Mof_C 	C 	0.47379	0.93139	0.93793	0.341
Mof_C 	C 	0.46321	0.88411	0.90007	-0.054
Mof_C 	C 	0.46464	0.79734	0.93958	0.024
Mof_C 	C 	0.46588	0.75138	0.90406	-0.085
Mof_C 	C 	0.47525	0.66085	0.94195	0.382
Mof_C 	C 	0.46329	0.79469	0.82273	-0.029
Mof_C 	C 	0.46353	0.87683	0.78451	0.018
Mof_C 	C 	0.46082	0.92222	0.82564	-0.034
Mof_C 	C 	0.46424	0.92344	0.70258	0.008
Mof_C 	C 	0.53682	0.94452	0.65224	-0.118
Mof_C 	C 	0.54897	0.97507	0.57349	0.121
Mof_C 	C 	0.48854	0.98454	0.54508	-0.01
Mof_C 	C 	0.41586	0.96356	0.59542	-0.018
Mof_C 	C 	0.40371	0.93301	0.67417	0.075
Mof_C 	C 	0.33102	0.91192	0.72454	-0.179
Mof_C 	C 	0.2705	0.9215	0.6961	0.223
Mof_C 	C 	0.2826	0.9519	0.6175	-0.16
Mof_C 	C 	0.35532	0.97302	0.56704	0.037
Mof_C 	C 	0.06861	0.52621	0.06207	0.341
Mof_C 	C 	0.11589	0.53679	0.09993	-0.054
Mof_C 	C 	0.20266	0.53536	0.06042	0.024
Mof_C 	C 	0.24862	0.53412	0.09594	-0.085
Mof_C 	C 	0.33915	0.52475	0.05805	0.382
Mof_C 	C 	0.20531	0.53671	0.17727	-0.029
Mof_C 	C 	0.12317	0.53647	0.21549	0.018
Mof_C 	C 	0.07778	0.53918	0.17436	-0.034
Mof_C 	C 	0.07656	0.53576	0.29742	0.008
Mof_C 	C 	0.05548	0.46318	0.34776	-0.118
Mof_C 	C 	0.02493	0.45103	0.42651	0.121
Mof_C 	C 	0.01546	0.51146	0.45492	-0.01
Mof_C 	C 	0.03644	0.58414	0.40458	-0.018
Mof_C 	C 	0.06699	0.59629	0.32583	0.075
Mof_C 	C 	0.08808	0.66898	0.27546	-0.179
Mof_C 	C 	0.0785	0.7295	0.3039	0.223
Mof_C 	C 	0.0481	0.7174	0.3825	-0.16
Mof_C 	C 	0.02698	0.64468	0.43296	0.037
Mof_C 	C 	0.34311	0.06861	0.06207	0.335
Mof_C 	C 	0.24739	0.11589	0.09993	-0.053
Mof_C 	C 	0.20156	0.20266	0.06042	0.021
Mof_C 	C 	0.12132	0.24862	0.09594	-0.082
Mof_C 	C 	0.07805	0.33915	0.05805	0.367
Mof_C 	C 	0.08071	0.20531	0.17727	-0.03
Mof_C 	C 	0.12487	0.12317	0.21549	0.015
Mof_C 	C 	0.20868	0.07778	0.17436	-0.034
Mof_C 	C 	0.09026	0.07656	0.29742	0.015
Mof_C 	C 	0.13358	0.05548	0.34776	-0.124
Mof_C 	C 	0.09753	0.02493	0.42651	0.123
Mof_C 	C 	0.01816	0.01546	0.45492	-0.019
Mof_C 	C 	0.97484	0.03644	0.40458	-0
Mof_C 	C 	0.01089	0.06699	0.32583	0.056
Mof_C 	C 	0.96748	0.08808	0.27546	-0.163
Mof_C 	C 	0.8881	0.0785	0.3039	0.215
Mof_C 	C 	0.852	0.0481	0.3825	-0.15
Mof_C 	C 	0.89538	0.02698	0.43296	0.025
Mof_C 	C 	0.52621	0.34311	0.06207	0.351
Mof_C 	C 	0.53679	0.24739	0.09993	-0.056
Mof_C 	C 	0.53536	0.20156	0.06042	0.024
Mof_C 	C 	0.53412	0.12132	0.09594	-0.084
Mof_C 	C 	0.52475	0.07805	0.05805	0.371
Mof_C 	C 	0.53671	0.08071	0.17727	-0.029
Mof_C 	C 	0.53647	0.12487	0.21549	0.016
Mof_C 	C 	0.53918	0.20868	0.17436	-0.032
Mof_C 	C 	0.53576	0.09026	0.29742	0.012
Mof_C 	C 	0.46318	0.13358	0.34776	-0.122
Mof_C 	C 	0.45103	0.09753	0.42651	0.124
Mof_C 	C 	0.51146	0.01816	0.45492	-0.016
Mof_C 	C 	0.58414	0.97484	0.40458	-0.01
Mof_C 	C 	0.59629	0.01089	0.32583	0.067
Mof_C 	C 	0.66898	0.96748	0.27546	-0.173
Mof_C 	C 	0.7295	0.8881	0.3039	0.22
Mof_C 	C 	0.7174	0.852	0.3825	-0.156
Mof_C 	C 	0.64468	0.89538	0.43296	0.032
Mof_Cl	Cl	0.9263	0.1717	0.7498	-0.28
Mof_Cl	Cl	0.1717	0.1522	0.7498	-0.279
Mof_Cl	Cl	0.1522	0.9263	0.7498	-0.28
Mof_Cl	Cl	0.0737	0.8478	0.2502	-0.28
Mof_Cl	Cl	0.8283	0.0737	0.2502	-0.28
Mof_Cl	Cl	0.8478	0.8283	0.2502	-0.279
Mof_O 	O 	0.00368	0.61908	0.89956	-0.401
Mof_O 	O 	0.88682	0.62662	0.00534	-0.384
Mof_O 	O 	0.62756	0.88676	0.00462	-0.415
Mof_O 	O 	0.6229	0.0022	0.9016	-0.379
Mof_O 	O 	0.0216	0.8481	0.5197	-0.154
Mof_O 	O 	0.61908	0.47768	0.89956	-0.41
Mof_O 	O 	0.62662	0.48122	0.00534	-0.391
Mof_O 	O 	0.88676	0.48106	0.00462	-0.418
Mof_O 	O 	0.0022	0.4733	0.9016	-0.38
Mof_O 	O 	0.8481	0.6106	0.5197	-0.157
Mof_O 	O 	0.47768	0.00368	0.89956	-0.404
Mof_O 	O 	0.48122	0.88682	0.00534	-0.387
Mof_O 	O 	0.48106	0.62756	0.00462	-0.423
Mof_O 	O 	0.4733	0.6229	0.9016	-0.386
Mof_O 	O 	0.6106	0.0216	0.5197	-0.156
Mof_O 	O 	0.99632	0.52232	0.10044	-0.404
Mof_O 	O 	0.11318	0.51878	0.99466	-0.387
Mof_O 	O 	0.37244	0.51894	0.99538	-0.423
Mof_O 	O 	0.3771	0.5267	0.0984	-0.386
Mof_O 	O 	0.9784	0.3894	0.4803	-0.156
Mof_O 	O 	0.38092	0.99632	0.10044	-0.401
Mof_O 	O 	0.37338	0.11318	0.99466	-0.384
Mof_O 	O 	0.11324	0.37244	0.99538	-0.415
Mof_O 	O 	0.9978	0.3771	0.0984	-0.379
Mof_O 	O 	0.1519	0.9784	0.4803	-0.154
Mof_O 	O 	0.52232	0.38092	0.10044	-0.41
Mof_O 	O 	0.51878	0.37338	0.99466	-0.391
Mof_O 	O 	0.51894	0.11324	0.99538	-0.418
Mof_O 	O 	0.5267	0.9978	0.0984	-0.38
Mof_O 	O 	0.3894	0.1519	0.4803	-0.157
_end
