# CIF file generated by openbabel 3.1.0, see https://openbabel.org
data_I
_chemical_name_common 'image0'
_cell_length_a 10.4369
_cell_length_b 11.2951
_cell_length_c 12.7861
_cell_angle_alpha 101.639
_cell_angle_beta 111.064
_cell_angle_gamma 98.473
_space_group_name_H-M_alt 'P 1'
_space_group_name_Hall 'P 1'
loop_
    _symmetry_equiv_pos_as_xyz
    x,y,z
loop_
    _atom_site_label
    _atom_site_type_symbol
    _atom_site_fract_x
    _atom_site_fract_y
    _atom_site_fract_z
    _atom_site_occupancy
    C1       C        0.69680    0.22670    0.66670    1.000
    C2       C        0.59260    0.10790    0.58080    1.000
    C3       C        0.60620    0.06200    0.48000    1.000
    H1       H        0.67890    0.10330    0.46520    1.000
    C4       C        0.48890    0.04820    0.60320    1.000
    O1       O        0.80060    0.27430    0.65120    1.000
    O2       O        0.67490    0.27550    0.75390    1.000
    N1       N        0.47100    0.07600    0.71200    1.000
    C5       C        0.19890    0.47980    0.92530    1.000
    C6       C        0.35680    0.49090    0.96290    1.000
    C7       C        0.40870    0.42850    0.89020    1.000
    C8       C        0.44560    0.56030    0.07040    1.000
    H2       H        0.40940    0.60180    0.11970    1.000
    O3       O        0.11880    0.43710    0.82020    1.000
    O4       O        0.15250    0.51420    0.00180    1.000
    N2       N        0.32300    0.36600    0.76820    1.000
    C9       C        0.00920    0.74620    0.00020    1.000
    C10      C        0.00460    0.87690    0.00000    1.000
    C11      C        0.95990    0.91030    0.89870    1.000
    H3       H        0.93130    0.84910    0.82870    1.000
    C12      C        0.04480    0.96910    0.10460    1.000
    O5       O        0.96580    0.66730    0.90250    1.000
    O6       O        0.05000    0.72120    0.09650    1.000
    N3       N        0.06300    0.94600    0.21590    1.000
    Eu1      Eu       0.89226    0.44818    0.82890    1.000
    C13      C        0.30320    0.77330    0.33330    1.000
    C14      C        0.40740    0.89210    0.41920    1.000
    C15      C        0.39380    0.93800    0.52000    1.000
    H4       H        0.32110    0.89670    0.53480    1.000
    C16      C        0.51110    0.95180    0.39680    1.000
    O7       O        0.19940    0.72570    0.34880    1.000
    O8       O        0.32510    0.72450    0.24610    1.000
    N4       N        0.52900    0.92400    0.28800    1.000
    C17      C        0.80110    0.52020    0.07470    1.000
    C18      C        0.64320    0.50910    0.03710    1.000
    C19      C        0.59130    0.57150    0.10980    1.000
    C20      C        0.55440    0.43970    0.92960    1.000
    H5       H        0.59060    0.39820    0.88030    1.000
    O9       O        0.88120    0.56290    0.17980    1.000
    O10      O        0.84750    0.48580    0.99820    1.000
    N5       N        0.67700    0.63400    0.23180    1.000
    C21      C        0.99080    0.25380    0.99980    1.000
    C22      C        0.99540    0.12310    0.00000    1.000
    C23      C        0.04010    0.08970    0.10130    1.000
    H6       H        0.06870    0.15090    0.17130    1.000
    C24      C        0.95520    0.03090    0.89540    1.000
    O11      O        0.03420    0.33270    0.09750    1.000
    O12      O        0.95000    0.27880    0.90350    1.000
    N6       N        0.93700    0.05400    0.78410    1.000
    Eu2      Eu       0.10774    0.55182    0.17110    1.000
