# CIF file generated by openbabel 3.1.0, see https://openbabel.org
data_I
_chemical_name_common 'image0'
_cell_length_a 13.838
_cell_length_b 12.784
_cell_length_c 16.885
_cell_angle_alpha 90
_cell_angle_beta 90
_cell_angle_gamma 90
_space_group_name_H-M_alt 'P 1'
_space_group_name_Hall 'P 1'
loop_
    _symmetry_equiv_pos_as_xyz
    x,y,z
loop_
    _atom_site_label
    _atom_site_type_symbol
    _atom_site_fract_x
    _atom_site_fract_y
    _atom_site_fract_z
    _atom_site_occupancy
    Zn1      Zn       0.59354    0.97602    0.92413    1.000
    Zn2      Zn       0.47753    0.43198    0.90213    1.000
    C1       C        0.58960    0.97820    0.75460    1.000
    C2       C        0.49380    0.92580    0.77790    1.000
    C3       C        0.54810    0.20530    0.91240    1.000
    C4       C        0.41780    0.22470    0.97660    1.000
    C5       C        0.77990    0.02140    0.02220    1.000
    C6       C        0.81200    0.97570    0.90540    1.000
    H1       H        0.80520    0.95520    0.85280    1.000
    N1       N        0.47890    0.27710    0.92740    1.000
    N2       N        0.53260    0.11560    0.94910    1.000
    N3       N        0.44730    0.12820    0.99060    1.000
    N4       N        0.62780    0.22500    0.86550    1.000
    H2       H        0.67100    0.17740    0.85880    1.000
    H3       H        0.63430    0.28490    0.84290    1.000
    N5       N        0.89590    0.98870    0.93980    1.000
    N6       N        0.87560    0.01800    0.01760    1.000
    N7       N        0.73700    0.99470    0.95340    1.000
    N8       N        0.72980    0.05170    0.08730    1.000
    H4       H        0.76020    0.07060    0.12940    1.000
    H5       H        0.66770    0.05220    0.08650    1.000
    O1       O        0.64380    0.00710    0.80940    1.000
    O2       O        0.47840    0.91620    0.85030    1.000
    O3       O        0.60630    0.99200    0.68230    1.000
    O4       O        0.44160    0.89730    0.72090    1.000
    H6       H        0.29220    0.20970    0.02970    1.000
    H7       H        0.30630    0.31630    0.99600    1.000
    N9       N        0.32700    0.25400    0.00400    1.000
    Zn3      Zn       0.90646    0.02398    0.42413    1.000
    Zn4      Zn       0.02247    0.56802    0.40213    1.000
    C7       C        0.91040    0.02180    0.25460    1.000
    C8       C        0.00620    0.07420    0.27790    1.000
    C9       C        0.95190    0.79470    0.41240    1.000
    C10      C        0.08220    0.77530    0.47660    1.000
    C11      C        0.72010    0.97860    0.52220    1.000
    C12      C        0.68800    0.02430    0.40540    1.000
    H8       H        0.69480    0.04480    0.35280    1.000
    N10      N        0.02110    0.72290    0.42740    1.000
    N11      N        0.96740    0.88440    0.44910    1.000
    N12      N        0.05270    0.87180    0.49060    1.000
    N13      N        0.87220    0.77500    0.36550    1.000
    H9       H        0.82900    0.82260    0.35880    1.000
    H10      H        0.86570    0.71510    0.34290    1.000
    N14      N        0.60410    0.01130    0.43980    1.000
    N15      N        0.62440    0.98200    0.51760    1.000
    N16      N        0.76300    0.00530    0.45340    1.000
    N17      N        0.77020    0.94830    0.58730    1.000
    H11      H        0.73980    0.92940    0.62940    1.000
    H12      H        0.83230    0.94780    0.58650    1.000
    O5       O        0.85620    0.99290    0.30940    1.000
    O6       O        0.02160    0.08380    0.35030    1.000
    O7       O        0.89370    0.00800    0.18230    1.000
    O8       O        0.05840    0.10270    0.22090    1.000
    H13      H        0.20780    0.79030    0.52970    1.000
    H14      H        0.19370    0.68370    0.49600    1.000
    N18      N        0.17300    0.74600    0.50400    1.000
    Zn5      Zn       0.40646    0.47602    0.57587    1.000
    Zn6      Zn       0.52247    0.93198    0.59787    1.000
    C13      C        0.41040    0.47820    0.74540    1.000
    C14      C        0.50620    0.42580    0.72210    1.000
    C15      C        0.45190    0.70530    0.58760    1.000
    C16      C        0.58220    0.72470    0.52340    1.000
    C17      C        0.22010    0.52140    0.47780    1.000
    C18      C        0.18800    0.47570    0.59460    1.000
    H15      H        0.19480    0.45520    0.64720    1.000
    N19      N        0.52110    0.77710    0.57260    1.000
    N20      N        0.46740    0.61560    0.55090    1.000
    N21      N        0.55270    0.62820    0.50940    1.000
    N22      N        0.37220    0.72500    0.63450    1.000
    H16      H        0.32900    0.67740    0.64120    1.000
    H17      H        0.36570    0.78490    0.65710    1.000
    N23      N        0.10410    0.48870    0.56020    1.000
    N24      N        0.12440    0.51800    0.48240    1.000
    N25      N        0.26300    0.49470    0.54660    1.000
    N26      N        0.27020    0.55170    0.41270    1.000
    H18      H        0.23980    0.57060    0.37060    1.000
    H19      H        0.33230    0.55220    0.41350    1.000
    O9       O        0.35620    0.50710    0.69060    1.000
    O10      O        0.52160    0.41620    0.64970    1.000
    O11      O        0.39370    0.49200    0.81770    1.000
    O12      O        0.55840    0.39730    0.77910    1.000
    H20      H        0.70780    0.70970    0.47030    1.000
    H21      H        0.69370    0.81630    0.50400    1.000
    N27      N        0.67300    0.75400    0.49600    1.000
    Zn7      Zn       0.09354    0.52398    0.07587    1.000
    Zn8      Zn       0.97753    0.06802    0.09787    1.000
    C19      C        0.08960    0.52180    0.24540    1.000
    C20      C        0.99380    0.57420    0.22210    1.000
    C21      C        0.04810    0.29470    0.08760    1.000
    C22      C        0.91780    0.27530    0.02340    1.000
    C23      C        0.27990    0.47860    0.97780    1.000
    C24      C        0.31200    0.52430    0.09460    1.000
    H22      H        0.30520    0.54480    0.14720    1.000
    N28      N        0.97890    0.22290    0.07260    1.000
    N29      N        0.03260    0.38440    0.05090    1.000
    N30      N        0.94730    0.37180    0.00940    1.000
    N31      N        0.12780    0.27500    0.13450    1.000
    H23      H        0.17100    0.32260    0.14120    1.000
    H24      H        0.13430    0.21510    0.15710    1.000
    N32      N        0.39590    0.51130    0.06020    1.000
    N33      N        0.37560    0.48200    0.98240    1.000
    N34      N        0.23700    0.50530    0.04660    1.000
    N35      N        0.22980    0.44830    0.91270    1.000
    H25      H        0.26020    0.42940    0.87060    1.000
    H26      H        0.16770    0.44780    0.91350    1.000
    O13      O        0.14380    0.49290    0.19060    1.000
    O14      O        0.97840    0.58380    0.14970    1.000
    O15      O        0.10630    0.50800    0.31770    1.000
    O16      O        0.94160    0.60270    0.27910    1.000
    H27      H        0.79220    0.29030    0.97030    1.000
    H28      H        0.80630    0.18370    0.00400    1.000
    N36      N        0.82700    0.24600    0.99600    1.000
    Zn9      Zn       0.40646    0.02398    0.07587    1.000
    Zn10     Zn       0.52247    0.56802    0.09787    1.000
    C25      C        0.41040    0.02180    0.24540    1.000
    C26      C        0.50620    0.07420    0.22210    1.000
    C27      C        0.45190    0.79470    0.08760    1.000
    C28      C        0.58220    0.77530    0.02340    1.000
    C29      C        0.22010    0.97860    0.97780    1.000
    C30      C        0.18800    0.02430    0.09460    1.000
    H29      H        0.19480    0.04480    0.14720    1.000
    N37      N        0.52110    0.72290    0.07260    1.000
    N38      N        0.46740    0.88440    0.05090    1.000
    N39      N        0.55270    0.87180    0.00940    1.000
    N40      N        0.37220    0.77500    0.13450    1.000
    H30      H        0.32900    0.82260    0.14120    1.000
    H31      H        0.36570    0.71510    0.15710    1.000
    N41      N        0.10410    0.01130    0.06020    1.000
    N42      N        0.12440    0.98200    0.98240    1.000
    N43      N        0.26300    0.00530    0.04660    1.000
    N44      N        0.27020    0.94830    0.91270    1.000
    H32      H        0.23980    0.92940    0.87060    1.000
    H33      H        0.33230    0.94780    0.91350    1.000
    O17      O        0.35620    0.99290    0.19060    1.000
    O18      O        0.52160    0.08380    0.14970    1.000
    O19      O        0.39370    0.00800    0.31770    1.000
    O20      O        0.55840    0.10270    0.27910    1.000
    H34      H        0.70780    0.79030    0.97030    1.000
    H35      H        0.69370    0.68370    0.00400    1.000
    N45      N        0.67300    0.74600    0.99600    1.000
    Zn11     Zn       0.09354    0.97602    0.57587    1.000
    Zn12     Zn       0.97753    0.43198    0.59787    1.000
    C31      C        0.08960    0.97820    0.74540    1.000
    C32      C        0.99380    0.92580    0.72210    1.000
    C33      C        0.04810    0.20530    0.58760    1.000
    C34      C        0.91780    0.22470    0.52340    1.000
    C35      C        0.27990    0.02140    0.47780    1.000
    C36      C        0.31200    0.97570    0.59460    1.000
    H36      H        0.30520    0.95520    0.64720    1.000
    N46      N        0.97890    0.27710    0.57260    1.000
    N47      N        0.03260    0.11560    0.55090    1.000
    N48      N        0.94730    0.12820    0.50940    1.000
    N49      N        0.12780    0.22500    0.63450    1.000
    H37      H        0.17100    0.17740    0.64120    1.000
    H38      H        0.13430    0.28490    0.65710    1.000
    N50      N        0.39590    0.98870    0.56020    1.000
    N51      N        0.37560    0.01800    0.48240    1.000
    N52      N        0.23700    0.99470    0.54660    1.000
    N53      N        0.22980    0.05170    0.41270    1.000
    H39      H        0.26020    0.07060    0.37060    1.000
    H40      H        0.16770    0.05220    0.41350    1.000
    O21      O        0.14380    0.00710    0.69060    1.000
    O22      O        0.97840    0.91620    0.64970    1.000
    O23      O        0.10630    0.99200    0.81770    1.000
    O24      O        0.94160    0.89730    0.77910    1.000
    H41      H        0.79220    0.20970    0.47030    1.000
    H42      H        0.80630    0.31630    0.50400    1.000
    N54      N        0.82700    0.25400    0.49600    1.000
    Zn13     Zn       0.59354    0.52398    0.42413    1.000
    Zn14     Zn       0.47753    0.06802    0.40213    1.000
    C37      C        0.58960    0.52180    0.25460    1.000
    C38      C        0.49380    0.57420    0.27790    1.000
    C39      C        0.54810    0.29470    0.41240    1.000
    C40      C        0.41780    0.27530    0.47660    1.000
    C41      C        0.77990    0.47860    0.52220    1.000
    C42      C        0.81200    0.52430    0.40540    1.000
    H43      H        0.80520    0.54480    0.35280    1.000
    N55      N        0.47890    0.22290    0.42740    1.000
    N56      N        0.53260    0.38440    0.44910    1.000
    N57      N        0.44730    0.37180    0.49060    1.000
    N58      N        0.62780    0.27500    0.36550    1.000
    H44      H        0.67100    0.32260    0.35880    1.000
    H45      H        0.63430    0.21510    0.34290    1.000
    N59      N        0.89590    0.51130    0.43980    1.000
    N60      N        0.87560    0.48200    0.51760    1.000
    N61      N        0.73700    0.50530    0.45340    1.000
    N62      N        0.72980    0.44830    0.58730    1.000
    H46      H        0.76020    0.42940    0.62940    1.000
    H47      H        0.66770    0.44780    0.58650    1.000
    O25      O        0.64380    0.49290    0.30940    1.000
    O26      O        0.47840    0.58380    0.35030    1.000
    O27      O        0.60630    0.50800    0.18230    1.000
    O28      O        0.44160    0.60270    0.22090    1.000
    H48      H        0.29220    0.29030    0.52970    1.000
    H49      H        0.30630    0.18370    0.49600    1.000
    N63      N        0.32700    0.24600    0.50400    1.000
    Zn15     Zn       0.90646    0.47602    0.92413    1.000
    Zn16     Zn       0.02247    0.93198    0.90213    1.000
    C43      C        0.91040    0.47820    0.75460    1.000
    C44      C        0.00620    0.42580    0.77790    1.000
    C45      C        0.95190    0.70530    0.91240    1.000
    C46      C        0.08220    0.72470    0.97660    1.000
    C47      C        0.72010    0.52140    0.02220    1.000
    C48      C        0.68800    0.47570    0.90540    1.000
    H50      H        0.69480    0.45520    0.85280    1.000
    N64      N        0.02110    0.77710    0.92740    1.000
    N65      N        0.96740    0.61560    0.94910    1.000
    N66      N        0.05270    0.62820    0.99060    1.000
    N67      N        0.87220    0.72500    0.86550    1.000
    H51      H        0.82900    0.67740    0.85880    1.000
    H52      H        0.86570    0.78490    0.84290    1.000
    N68      N        0.60410    0.48870    0.93980    1.000
    N69      N        0.62440    0.51800    0.01760    1.000
    N70      N        0.76300    0.49470    0.95340    1.000
    N71      N        0.77020    0.55170    0.08730    1.000
    H53      H        0.73980    0.57060    0.12940    1.000
    H54      H        0.83230    0.55220    0.08650    1.000
    O29      O        0.85620    0.50710    0.80940    1.000
    O30      O        0.02160    0.41620    0.85030    1.000
    O31      O        0.89370    0.49200    0.68230    1.000
    O32      O        0.05840    0.39730    0.72090    1.000
    H55      H        0.20780    0.70970    0.02970    1.000
    H56      H        0.19370    0.81630    0.99600    1.000
    N72      N        0.17300    0.75400    0.00400    1.000
