# CIF file generated by openbabel 3.1.0, see https://openbabel.org
data_I
_chemical_name_common 'image0'
_cell_length_a 10.6201
_cell_length_b 11.402
_cell_length_c 11.713
_cell_angle_alpha 104.804
_cell_angle_beta 106.883
_cell_angle_gamma 95.881
_space_group_name_H-M_alt 'P 1'
_space_group_name_Hall 'P 1'
loop_
    _symmetry_equiv_pos_as_xyz
    x,y,z
loop_
    _atom_site_label
    _atom_site_type_symbol
    _atom_site_fract_x
    _atom_site_fract_y
    _atom_site_fract_z
    _atom_site_occupancy
    Tb1      Tb       0.39941    0.43949    0.62077    1.000
    O1       O        0.24391    0.48332    0.72066    1.000
    O2       O        0.30382    0.51623    0.92639    1.000
    O3       O        0.55259    0.74292    0.30778    1.000
    O4       O        0.67750    0.91558    0.45365    1.000
    H1       H        0.72580    0.86100    0.47960    1.000
    O5       O        0.53866    0.34828    0.34033    1.000
    O6       O        0.40719    0.28982    0.44267    1.000
    O7       O        0.61880    0.45873    0.62988    1.000
    O8       O        0.76257    0.51237    0.53918    1.000
    C1       C        0.21998    0.47890    0.81974    1.000
    C2       C        0.07619    0.42830    0.80281    1.000
    C3       C        0.04159    0.35194    0.87045    1.000
    C4       C        0.90607    0.31900    0.85640    1.000
    H2       H        0.88240    0.26980    0.90200    1.000
    C5       C        0.80653    0.35743    0.77692    1.000
    H3       H        0.71740    0.33590    0.77080    1.000
    C6       C        0.84039    0.42851    0.70612    1.000
    C7       C        0.97480    0.46237    0.71918    1.000
    H4       H        0.99730    0.50890    0.67090    1.000
    C8       C        0.73283    0.46927    0.61897    1.000
    C9       C        0.13962    0.29732    0.95038    1.000
    C10      C        0.22820    0.23216    0.90584    1.000
    H5       H        0.23610    0.23240    0.82890    1.000
    C11      C        0.30450    0.16702    0.97521    1.000
    H6       H        0.36090    0.12160    0.94300    1.000
    C12      C        0.29784    0.16854    0.09292    1.000
    C13      C        0.21490    0.23881    0.13982    1.000
    H7       H        0.21290    0.24470    0.21990    1.000
    C14      C        0.13474    0.30051    0.06874    1.000
    H8       H        0.07710    0.34450    0.10040    1.000
    C15      C        0.37234    0.09065    0.16264    1.000
    C16      C        0.36160    0.96560    0.10137    1.000
    H9       H        0.30960    0.93350    0.01740    1.000
    C17      C        0.42590    0.88872    0.16197    1.000
    H10      H        0.41630    0.80560    0.11960    1.000
    C18      C        0.50523    0.93657    0.28713    1.000
    C19      C        0.51475    0.06001    0.35056    1.000
    H11      H        0.56570    0.09130    0.43480    1.000
    C20      C        0.44890    0.13698    0.28930    1.000
    C21      C        0.46636    0.27029    0.36340    1.000
    C22      C        0.57920    0.85551    0.35025    1.000
    Tb2      Tb       0.60059    0.56051    0.37923    1.000
    O9       O        0.75609    0.51668    0.27934    1.000
    O10      O        0.69618    0.48377    0.07361    1.000
    O11      O        0.44741    0.25708    0.69222    1.000
    O12      O        0.32250    0.08442    0.54635    1.000
    H12      H        0.27420    0.13900    0.52040    1.000
    O13      O        0.46134    0.65172    0.65967    1.000
    O14      O        0.59281    0.71018    0.55733    1.000
    O15      O        0.38120    0.54127    0.37012    1.000
    O16      O        0.23743    0.48763    0.46082    1.000
    C23      C        0.78002    0.52110    0.18026    1.000
    C24      C        0.92381    0.57170    0.19719    1.000
    C25      C        0.95841    0.64806    0.12955    1.000
    C26      C        0.09393    0.68100    0.14360    1.000
    H13      H        0.11760    0.73020    0.09800    1.000
    C27      C        0.19347    0.64257    0.22308    1.000
    H14      H        0.28260    0.66410    0.22920    1.000
    C28      C        0.15961    0.57149    0.29388    1.000
    C29      C        0.02520    0.53763    0.28082    1.000
    H15      H        0.00270    0.49110    0.32910    1.000
    C30      C        0.26717    0.53073    0.38103    1.000
    C31      C        0.86038    0.70268    0.04962    1.000
    C32      C        0.77180    0.76784    0.09416    1.000
    H16      H        0.76390    0.76760    0.17110    1.000
    C33      C        0.69550    0.83298    0.02479    1.000
    H17      H        0.63910    0.87840    0.05700    1.000
    C34      C        0.70216    0.83146    0.90708    1.000
    C35      C        0.78510    0.76119    0.86018    1.000
    H18      H        0.78710    0.75530    0.78010    1.000
    C36      C        0.86526    0.69949    0.93126    1.000
    H19      H        0.92290    0.65550    0.89960    1.000
    C37      C        0.62766    0.90935    0.83736    1.000
    C38      C        0.63840    0.03440    0.89863    1.000
    H20      H        0.69040    0.06650    0.98260    1.000
    C39      C        0.57410    0.11128    0.83803    1.000
    H21      H        0.58370    0.19440    0.88040    1.000
    C40      C        0.49477    0.06343    0.71287    1.000
    C41      C        0.48525    0.93999    0.64944    1.000
    H22      H        0.43430    0.90870    0.56520    1.000
    C42      C        0.55110    0.86302    0.71070    1.000
    C43      C        0.53364    0.72971    0.63660    1.000
    C44      C        0.42080    0.14449    0.64975    1.000
