data_functionalizedCrystal
_audit_creation_method	'EQeq! by Chris Wilmer'
_symmetry_space_group_name_H-M	'P1'
_symmetry_Int_Tables_number	1
_symmetry_cell_setting	triclinic
loop_
_symmetry_equiv_pos_as_xyz
  x,y,z
_cell_length_a	11.2896
_cell_length_b	12.1049
_cell_length_c	16.1579
_cell_angle_alpha	90
_cell_angle_beta	129.914
_cell_angle_gamma	90
loop_
_atom_site_label
_atom_site_type_symbol
_atom_site_fract_x
_atom_site_fract_y
_atom_site_fract_z
_atom_site_charge
Mof_C 	C 	0.1424	0.8876	0.76817	-0.094
Mof_C 	C 	0.0841	0.79981	0.69741	0.07
Mof_H 	H 	0.9813	0.7789	0.6573	0.052
Mof_C 	C 	0.1806	0.7428	0.6867	-0.116
Mof_C 	C 	0.1188	0.64697	0.61139	0.419
Mof_C 	C 	0.3332	0.77595	0.74595	0.062
Mof_H 	H 	0.3975	0.7382	0.7383	0.055
Mof_C 	C 	0.3906	0.86466	0.81628	-0.088
Mof_C 	C 	0.2952	0.92008	0.8282	0.049
Mof_H 	H 	0.3334	0.9788	0.8762	0.056
Mof_C 	C 	0.5548	0.90091	0.87808	0.334
Mof_O 	O 	0.07275	0.92555	0.88927	-0.414
Mof_O 	O 	0.8669	0.9295	0.69747	-0.227
Mof_O 	O 	0.0555	0.07636	0.7855	-0.263
Mof_O 	O 	0.21577	0.57855	0.62742	-0.451
Mof_O 	O 	0.976	0.64136	0.53737	-0.47
Mof_O 	O 	0.63801	0.85421	0.86478	-0.349
Mof_O 	O 	0.6055	0.98005	0.9424	-0.384
Mof_S 	S 	0.02288	0.96245	0.78418	0.514
Mof_Zn	Zn	0.17868	0.02471	0.01903	1.235
Mof_C 	C 	0.8576	0.3876	0.73183	-0.083
Mof_C 	C 	0.9159	0.29981	0.80259	0.045
Mof_H 	H 	0.0187	0.2789	0.8427	0.066
Mof_C 	C 	0.8194	0.2428	0.8133	-0.101
Mof_C 	C 	0.8812	0.14697	0.88861	0.399
Mof_C 	C 	0.6668	0.27595	0.75405	0.051
Mof_H 	H 	0.6025	0.2382	0.7617	0.06
Mof_C 	C 	0.6094	0.36466	0.68372	-0.08
Mof_C 	C 	0.7048	0.42008	0.6718	0.04
Mof_H 	H 	0.6666	0.4788	0.6238	0.06
Mof_C 	C 	0.4452	0.40091	0.62192	0.331
Mof_O 	O 	0.92725	0.42555	0.61073	-0.414
Mof_O 	O 	0.1331	0.4295	0.80253	-0.223
Mof_O 	O 	0.9445	0.57636	0.7145	-0.274
Mof_O 	O 	0.78423	0.07855	0.87258	-0.445
Mof_O 	O 	0.024	0.14136	0.96263	-0.452
Mof_O 	O 	0.36199	0.35421	0.63522	-0.344
Mof_O 	O 	0.3945	0.48005	0.5576	-0.38
Mof_S 	S 	0.97712	0.46245	0.71582	0.514
Mof_Zn	Zn	0.82132	0.52471	0.48097	1.239
Mof_C 	C 	0.8576	0.1124	0.23183	-0.093
Mof_C 	C 	0.9159	0.20019	0.30259	0.071
Mof_H 	H 	0.0187	0.2211	0.3427	0.052
Mof_C 	C 	0.8194	0.2572	0.3133	-0.116
Mof_C 	C 	0.8812	0.35303	0.38861	0.419
Mof_C 	C 	0.6668	0.22405	0.25405	0.062
Mof_H 	H 	0.6025	0.2618	0.2617	0.055
Mof_C 	C 	0.6094	0.13534	0.18372	-0.088
Mof_C 	C 	0.7048	0.07992	0.1718	0.049
Mof_H 	H 	0.6666	0.0212	0.1238	0.056
Mof_C 	C 	0.4452	0.09909	0.12192	0.334
Mof_O 	O 	0.92725	0.07445	0.11073	-0.414
Mof_O 	O 	0.1331	0.0705	0.30253	-0.227
Mof_O 	O 	0.9445	0.92364	0.2145	-0.263
Mof_O 	O 	0.78423	0.42145	0.37258	-0.451
Mof_O 	O 	0.024	0.35864	0.46263	-0.47
Mof_O 	O 	0.36199	0.14579	0.13522	-0.349
Mof_O 	O 	0.3945	0.01995	0.0576	-0.384
Mof_S 	S 	0.97712	0.03755	0.21582	0.514
Mof_Zn	Zn	0.82132	0.97529	0.98097	1.235
Mof_C 	C 	0.1424	0.6124	0.26817	-0.083
Mof_C 	C 	0.0841	0.70019	0.19741	0.045
Mof_H 	H 	0.9813	0.7211	0.1573	0.066
Mof_C 	C 	0.1806	0.7572	0.1867	-0.101
Mof_C 	C 	0.1188	0.85303	0.11139	0.399
Mof_C 	C 	0.3332	0.72405	0.24595	0.051
Mof_H 	H 	0.3975	0.7618	0.2383	0.06
Mof_C 	C 	0.3906	0.63534	0.31628	-0.08
Mof_C 	C 	0.2952	0.57992	0.3282	0.04
Mof_H 	H 	0.3334	0.5212	0.3762	0.06
Mof_C 	C 	0.5548	0.59909	0.37808	0.331
Mof_O 	O 	0.07275	0.57445	0.38927	-0.414
Mof_O 	O 	0.8669	0.5705	0.19747	-0.223
Mof_O 	O 	0.0555	0.42364	0.2855	-0.274
Mof_O 	O 	0.21577	0.92145	0.12742	-0.445
Mof_O 	O 	0.976	0.85864	0.03737	-0.452
Mof_O 	O 	0.63801	0.64579	0.36478	-0.344
Mof_O 	O 	0.6055	0.51995	0.4424	-0.38
Mof_S 	S 	0.02288	0.53755	0.28418	0.514
Mof_Zn	Zn	0.17868	0.47529	0.51903	1.239
_end
