data_functionalizedCrystal
_audit_creation_method	'EQeq! by Chris Wilmer'
_symmetry_space_group_name_H-M	'P1'
_symmetry_Int_Tables_number	1
_symmetry_cell_setting	triclinic
loop_
_symmetry_equiv_pos_as_xyz
  x,y,z
_cell_length_a	32.04
_cell_length_b	16.79
_cell_length_c	10.77
_cell_angle_alpha	90
_cell_angle_beta	92.36
_cell_angle_gamma	90
loop_
_atom_site_label
_atom_site_type_symbol
_atom_site_fract_x
_atom_site_fract_y
_atom_site_fract_z
_atom_site_charge
Mof_Cu	Cu	0.94456	0.44593	0.0324	0.791
Mof_N 	N 	0.9228	0.4457	0.1976	-0.252
Mof_N 	N 	0.9445	0.4855	0.2851	-0.216
Mof_N 	N 	0.9234	0.495	0.3878	-0.228
Mof_N 	N 	0.7804	0.3431	0.215	-0.123
Mof_N 	N 	0.7795	0.4111	0.4556	-0.123
Mof_N 	N 	0.6444	0.3131	0.5112	-0.13
Mof_N 	N 	0.6448	0.2371	0.2794	-0.121
Mof_N 	N 	0.5164	0.1648	0.5855	-0.26
Mof_N 	N 	0.4961	0.1158	0.5027	-0.226
Mof_N 	N 	0.5153	0.1085	0.3968	-0.233
Mof_C 	C 	0.8847	0.4263	0.2445	0.045
Mof_C 	C 	0.8848	0.459	0.3682	0.058
Mof_C 	C 	0.8507	0.4526	0.4417	-0.144
Mof_H 	H 	0.8513	0.473	0.524	0.066
Mof_C 	C 	0.8151	0.4145	0.3889	0.07
Mof_C 	C 	0.8158	0.3804	0.2659	0.059
Mof_C 	C 	0.8497	0.3867	0.1898	-0.138
Mof_H 	H 	0.8493	0.3661	0.1077	0.047
Mof_C 	C 	0.7474	0.3403	0.2815	-0.021
Mof_C 	C 	0.7454	0.3803	0.3993	0.001
Mof_C 	C 	0.7066	0.3842	0.4766	0.131
Mof_C 	C 	0.6734	0.3242	0.4317	0.01
Mof_C 	C 	0.6735	0.2882	0.3152	-0.022
Mof_C 	C 	0.7077	0.3031	0.2225	0.216
Mof_C 	C 	0.6903	0.3506	0.1118	-0.527
Mof_H 	H 	0.6798	0.4019	0.1404	0.166
Mof_H 	H 	0.6675	0.3208	0.07	0.166
Mof_H 	H 	0.7126	0.3597	0.0535	0.169
Mof_C 	C 	0.719	0.2217	0.1627	-0.516
Mof_H 	H 	0.6951	0.2022	0.112	0.17
Mof_H 	H 	0.7261	0.1831	0.2284	0.17
Mof_H 	H 	0.743	0.2289	0.1102	0.167
Mof_C 	C 	0.6134	0.2205	0.3603	0.053
Mof_C 	C 	0.6133	0.2597	0.4795	0.07
Mof_C 	C 	0.5816	0.2443	0.562	-0.149
Mof_H 	H 	0.5817	0.2688	0.6414	0.045
Mof_C 	C 	0.5507	0.1928	0.5246	0.059
Mof_C 	C 	0.5503	0.1557	0.4088	0.03
Mof_C 	C 	0.5814	0.1693	0.3213	-0.127
Mof_H 	H 	0.5804	0.1451	0.2415	0.034
Mof_C 	C 	0.711	0.396	0.6005	-0.536
Mof_H 	H 	0.7215	0.45	0.6167	0.174
Mof_H 	H 	0.7309	0.3571	0.6365	0.179
Mof_H 	H 	0.6839	0.3894	0.6381	0.179
Mof_Cu	Cu	0.44456	0.94593	0.0324	0.788
Mof_N 	N 	0.4228	0.9457	0.1976	-0.253
Mof_N 	N 	0.4445	0.9855	0.2851	-0.222
Mof_N 	N 	0.4234	0.995	0.3878	-0.229
Mof_N 	N 	0.2804	0.8431	0.215	-0.122
Mof_N 	N 	0.2795	0.9111	0.4556	-0.122
Mof_N 	N 	0.1444	0.8131	0.5112	-0.13
Mof_N 	N 	0.1448	0.7371	0.2794	-0.121
Mof_N 	N 	0.0164	0.6648	0.5855	-0.275
Mof_N 	N 	0.9961	0.6158	0.5027	-0.197
Mof_N 	N 	0.0153	0.6085	0.3968	-0.25
Mof_C 	C 	0.3847	0.9263	0.2445	0.045
Mof_C 	C 	0.3848	0.959	0.3682	0.058
Mof_C 	C 	0.3507	0.9526	0.4417	-0.145
Mof_H 	H 	0.3513	0.973	0.524	0.066
Mof_C 	C 	0.3151	0.9145	0.3889	0.07
Mof_C 	C 	0.3158	0.8804	0.2659	0.059
Mof_C 	C 	0.3497	0.8867	0.1898	-0.138
Mof_H 	H 	0.3493	0.8661	0.1077	0.046
Mof_C 	C 	0.2474	0.8403	0.2815	-0.021
Mof_C 	C 	0.2454	0.8803	0.3993	0.002
Mof_C 	C 	0.2066	0.8842	0.4766	0.129
Mof_C 	C 	0.1734	0.8242	0.4317	0.01
Mof_C 	C 	0.1735	0.7882	0.3152	-0.023
Mof_C 	C 	0.2077	0.8031	0.2225	0.216
Mof_C 	C 	0.1903	0.8506	0.1118	-0.525
Mof_H 	H 	0.1798	0.9019	0.1404	0.165
Mof_H 	H 	0.1675	0.8208	0.07	0.165
Mof_H 	H 	0.2126	0.8597	0.0535	0.169
Mof_C 	C 	0.219	0.7217	0.1627	-0.516
Mof_H 	H 	0.1951	0.7022	0.112	0.17
Mof_H 	H 	0.2261	0.6831	0.2284	0.17
Mof_H 	H 	0.243	0.7289	0.1102	0.167
Mof_C 	C 	0.1134	0.7205	0.3603	0.053
Mof_C 	C 	0.1133	0.7597	0.4795	0.068
Mof_C 	C 	0.0816	0.7443	0.562	-0.149
Mof_H 	H 	0.0817	0.7688	0.6414	0.041
Mof_C 	C 	0.0507	0.6928	0.5246	0.055
Mof_C 	C 	0.0503	0.6557	0.4088	0.027
Mof_C 	C 	0.0814	0.6693	0.3213	-0.129
Mof_H 	H 	0.0804	0.6451	0.2415	0.033
Mof_C 	C 	0.211	0.896	0.6005	-0.533
Mof_H 	H 	0.2215	0.95	0.6167	0.173
Mof_H 	H 	0.2309	0.8571	0.6365	0.178
Mof_H 	H 	0.1839	0.8894	0.6381	0.177
Mof_Cu	Cu	0.05544	0.44593	0.4676	0.785
Mof_N 	N 	0.0772	0.4457	0.3024	-0.254
Mof_N 	N 	0.0555	0.4855	0.2149	-0.225
Mof_N 	N 	0.0766	0.495	0.1122	-0.231
Mof_N 	N 	0.2196	0.3431	0.285	-0.122
Mof_N 	N 	0.2205	0.4111	0.0444	-0.122
Mof_N 	N 	0.3556	0.3131	0.9888	-0.129
Mof_N 	N 	0.3552	0.2371	0.2206	-0.121
Mof_N 	N 	0.4836	0.1648	0.9145	-0.26
Mof_N 	N 	0.5039	0.1158	0.9973	-0.225
Mof_N 	N 	0.4847	0.1085	0.1032	-0.233
Mof_C 	C 	0.1153	0.4263	0.2555	0.044
Mof_C 	C 	0.1152	0.459	0.1318	0.059
Mof_C 	C 	0.1493	0.4526	0.0583	-0.146
Mof_H 	H 	0.1487	0.473	0.976	0.066
Mof_C 	C 	0.1849	0.4145	0.1111	0.07
Mof_C 	C 	0.1842	0.3804	0.2341	0.059
Mof_C 	C 	0.1503	0.3867	0.3102	-0.138
Mof_H 	H 	0.1507	0.3661	0.3923	0.046
Mof_C 	C 	0.2526	0.3403	0.2185	-0.021
Mof_C 	C 	0.2546	0.3803	0.1007	0.002
Mof_C 	C 	0.2934	0.3842	0.0234	0.13
Mof_C 	C 	0.3266	0.3242	0.0683	0.01
Mof_C 	C 	0.3265	0.2882	0.1848	-0.022
Mof_C 	C 	0.2923	0.3031	0.2775	0.217
Mof_C 	C 	0.3097	0.3506	0.3882	-0.528
Mof_H 	H 	0.3202	0.4019	0.3596	0.167
Mof_H 	H 	0.3325	0.3208	0.43	0.167
Mof_H 	H 	0.2874	0.3597	0.4465	0.17
Mof_C 	C 	0.281	0.2217	0.3373	-0.516
Mof_H 	H 	0.3049	0.2022	0.388	0.171
Mof_H 	H 	0.2739	0.1831	0.2716	0.17
Mof_H 	H 	0.257	0.2289	0.3898	0.168
Mof_C 	C 	0.3866	0.2205	0.1397	0.054
Mof_C 	C 	0.3867	0.2597	0.0205	0.068
Mof_C 	C 	0.4184	0.2443	0.938	-0.147
Mof_H 	H 	0.4183	0.2688	0.8586	0.044
Mof_C 	C 	0.4493	0.1928	0.9754	0.06
Mof_C 	C 	0.4497	0.1557	0.0912	0.029
Mof_C 	C 	0.4186	0.1693	0.1787	-0.127
Mof_H 	H 	0.4196	0.1451	0.2585	0.034
Mof_C 	C 	0.289	0.396	0.8995	-0.534
Mof_H 	H 	0.2785	0.45	0.8833	0.174
Mof_H 	H 	0.2691	0.3571	0.8635	0.179
Mof_H 	H 	0.3161	0.3894	0.8619	0.178
Mof_Cu	Cu	0.55544	0.94593	0.4676	0.788
Mof_N 	N 	0.5772	0.9457	0.3024	-0.253
Mof_N 	N 	0.5555	0.9855	0.2149	-0.222
Mof_N 	N 	0.5766	0.995	0.1122	-0.229
Mof_N 	N 	0.7196	0.8431	0.285	-0.122
Mof_N 	N 	0.7205	0.9111	0.0444	-0.122
Mof_N 	N 	0.8556	0.8131	0.9888	-0.129
Mof_N 	N 	0.8552	0.7371	0.2206	-0.12
Mof_N 	N 	0.9836	0.6648	0.9145	-0.239
Mof_N 	N 	0.0039	0.6158	0.9973	-0.252
Mof_N 	N 	0.9847	0.6085	0.1032	-0.212
Mof_C 	C 	0.6153	0.9263	0.2555	0.045
Mof_C 	C 	0.6152	0.959	0.1318	0.058
Mof_C 	C 	0.6493	0.9526	0.0583	-0.144
Mof_H 	H 	0.6487	0.973	0.976	0.065
Mof_C 	C 	0.6849	0.9145	0.1111	0.07
Mof_C 	C 	0.6842	0.8804	0.2341	0.059
Mof_C 	C 	0.6503	0.8867	0.3102	-0.138
Mof_H 	H 	0.6507	0.8661	0.3923	0.046
Mof_C 	C 	0.7526	0.8403	0.2185	-0.021
Mof_C 	C 	0.7546	0.8803	0.1007	0.001
Mof_C 	C 	0.7934	0.8842	0.0234	0.132
Mof_C 	C 	0.8266	0.8242	0.0683	0.011
Mof_C 	C 	0.8265	0.7882	0.1848	-0.022
Mof_C 	C 	0.7923	0.8031	0.2775	0.218
Mof_C 	C 	0.8097	0.8506	0.3882	-0.531
Mof_H 	H 	0.8202	0.9019	0.3596	0.169
Mof_H 	H 	0.8325	0.8208	0.43	0.169
Mof_H 	H 	0.7874	0.8597	0.4465	0.171
Mof_C 	C 	0.781	0.7217	0.3373	-0.518
Mof_H 	H 	0.8049	0.7022	0.388	0.172
Mof_H 	H 	0.7739	0.6831	0.2716	0.17
Mof_H 	H 	0.757	0.7289	0.3898	0.168
Mof_C 	C 	0.8866	0.7205	0.1397	0.054
Mof_C 	C 	0.8867	0.7597	0.0205	0.071
Mof_C 	C 	0.9184	0.7443	0.938	-0.147
Mof_H 	H 	0.9183	0.7688	0.8586	0.049
Mof_C 	C 	0.9493	0.6928	0.9754	0.064
Mof_C 	C 	0.9497	0.6557	0.0912	0.033
Mof_C 	C 	0.9186	0.6693	0.1787	-0.125
Mof_H 	H 	0.9196	0.6451	0.2585	0.037
Mof_C 	C 	0.789	0.896	0.8995	-0.538
Mof_H 	H 	0.7785	0.95	0.8833	0.175
Mof_H 	H 	0.7691	0.8571	0.8635	0.18
Mof_H 	H 	0.8161	0.8894	0.8619	0.18
Mof_Cu	Cu	0.05544	0.55407	0.9676	0.785
Mof_N 	N 	0.0772	0.5543	0.8024	-0.254
Mof_N 	N 	0.0555	0.5145	0.7149	-0.225
Mof_N 	N 	0.0766	0.505	0.6122	-0.231
Mof_N 	N 	0.2196	0.6569	0.785	-0.122
Mof_N 	N 	0.2205	0.5889	0.5444	-0.122
Mof_N 	N 	0.3556	0.6869	0.4888	-0.13
Mof_N 	N 	0.3552	0.7629	0.7206	-0.12
Mof_N 	N 	0.4836	0.8352	0.4145	-0.26
Mof_N 	N 	0.5039	0.8842	0.4973	-0.226
Mof_N 	N 	0.4847	0.8915	0.6032	-0.233
Mof_C 	C 	0.1153	0.5737	0.7555	0.044
Mof_C 	C 	0.1152	0.541	0.6318	0.059
Mof_C 	C 	0.1493	0.5474	0.5583	-0.145
Mof_H 	H 	0.1487	0.527	0.476	0.066
Mof_C 	C 	0.1849	0.5855	0.6111	0.07
Mof_C 	C 	0.1842	0.6196	0.7341	0.059
Mof_C 	C 	0.1503	0.6133	0.8102	-0.138
Mof_H 	H 	0.1507	0.6339	0.8923	0.046
Mof_C 	C 	0.2526	0.6597	0.7185	-0.021
Mof_C 	C 	0.2546	0.6197	0.6007	0.002
Mof_C 	C 	0.2934	0.6158	0.5234	0.131
Mof_C 	C 	0.3266	0.6758	0.5683	0.011
Mof_C 	C 	0.3265	0.7118	0.6848	-0.022
Mof_C 	C 	0.2923	0.6969	0.7775	0.217
Mof_C 	C 	0.3097	0.6494	0.8882	-0.528
Mof_H 	H 	0.3202	0.5981	0.8596	0.167
Mof_H 	H 	0.3325	0.6792	0.93	0.167
Mof_H 	H 	0.2874	0.6403	0.9465	0.17
Mof_C 	C 	0.281	0.7783	0.8373	-0.516
Mof_H 	H 	0.3049	0.7978	0.888	0.171
Mof_H 	H 	0.2739	0.8169	0.7716	0.17
Mof_H 	H 	0.257	0.7711	0.8898	0.168
Mof_C 	C 	0.3866	0.7795	0.6397	0.053
Mof_C 	C 	0.3867	0.7403	0.5205	0.07
Mof_C 	C 	0.4184	0.7557	0.438	-0.149
Mof_H 	H 	0.4183	0.7312	0.3586	0.044
Mof_C 	C 	0.4493	0.8072	0.4754	0.059
Mof_C 	C 	0.4497	0.8443	0.5912	0.03
Mof_C 	C 	0.4186	0.8307	0.6787	-0.127
Mof_H 	H 	0.4196	0.8549	0.7585	0.034
Mof_C 	C 	0.289	0.604	0.3995	-0.536
Mof_H 	H 	0.2785	0.55	0.3833	0.174
Mof_H 	H 	0.2691	0.6429	0.3635	0.179
Mof_H 	H 	0.3161	0.6106	0.3619	0.179
Mof_Cu	Cu	0.55544	0.05407	0.9676	0.788
Mof_N 	N 	0.5772	0.0543	0.8024	-0.253
Mof_N 	N 	0.5555	0.0145	0.7149	-0.222
Mof_N 	N 	0.5766	0.005	0.6122	-0.229
Mof_N 	N 	0.7196	0.1569	0.785	-0.122
Mof_N 	N 	0.7205	0.0889	0.5444	-0.122
Mof_N 	N 	0.8556	0.1869	0.4888	-0.129
Mof_N 	N 	0.8552	0.2629	0.7206	-0.12
Mof_N 	N 	0.9836	0.3352	0.4145	-0.239
Mof_N 	N 	0.0039	0.3842	0.4973	-0.252
Mof_N 	N 	0.9847	0.3915	0.6032	-0.212
Mof_C 	C 	0.6153	0.0737	0.7555	0.045
Mof_C 	C 	0.6152	0.041	0.6318	0.058
Mof_C 	C 	0.6493	0.0474	0.5583	-0.145
Mof_H 	H 	0.6487	0.027	0.476	0.066
Mof_C 	C 	0.6849	0.0855	0.6111	0.07
Mof_C 	C 	0.6842	0.1196	0.7341	0.059
Mof_C 	C 	0.6503	0.1133	0.8102	-0.138
Mof_H 	H 	0.6507	0.1339	0.8923	0.047
Mof_C 	C 	0.7526	0.1597	0.7185	-0.021
Mof_C 	C 	0.7546	0.1197	0.6007	0.001
Mof_C 	C 	0.7934	0.1158	0.5234	0.132
Mof_C 	C 	0.8266	0.1758	0.5683	0.011
Mof_C 	C 	0.8265	0.2118	0.6848	-0.022
Mof_C 	C 	0.7923	0.1969	0.7775	0.219
Mof_C 	C 	0.8097	0.1494	0.8882	-0.532
Mof_H 	H 	0.8202	0.0981	0.8596	0.17
Mof_H 	H 	0.8325	0.1792	0.93	0.17
Mof_H 	H 	0.7874	0.1403	0.9465	0.171
Mof_C 	C 	0.781	0.2783	0.8373	-0.519
Mof_H 	H 	0.8049	0.2978	0.888	0.172
Mof_H 	H 	0.7739	0.3169	0.7716	0.171
Mof_H 	H 	0.757	0.2711	0.8898	0.169
Mof_C 	C 	0.8866	0.2795	0.6397	0.054
Mof_C 	C 	0.8867	0.2403	0.5205	0.072
Mof_C 	C 	0.9184	0.2557	0.438	-0.148
Mof_H 	H 	0.9183	0.2312	0.3586	0.049
Mof_C 	C 	0.9493	0.3072	0.4754	0.064
Mof_C 	C 	0.9497	0.3443	0.5912	0.033
Mof_C 	C 	0.9186	0.3307	0.6787	-0.125
Mof_H 	H 	0.9196	0.3549	0.7585	0.037
Mof_C 	C 	0.789	0.104	0.3995	-0.538
Mof_H 	H 	0.7785	0.05	0.3833	0.175
Mof_H 	H 	0.7691	0.1429	0.3635	0.18
Mof_H 	H 	0.8161	0.1106	0.3619	0.18
Mof_Cu	Cu	0.94456	0.55407	0.5324	0.793
Mof_N 	N 	0.9228	0.5543	0.6976	-0.251
Mof_N 	N 	0.9445	0.5145	0.7851	-0.214
Mof_N 	N 	0.9234	0.505	0.8878	-0.227
Mof_N 	N 	0.7804	0.6569	0.715	-0.122
Mof_N 	N 	0.7795	0.5889	0.9556	-0.121
Mof_N 	N 	0.6444	0.6869	0.0112	-0.13
Mof_N 	N 	0.6448	0.7629	0.7794	-0.12
Mof_N 	N 	0.5164	0.8352	0.0855	-0.26
Mof_N 	N 	0.4961	0.8842	0.0027	-0.226
Mof_N 	N 	0.5153	0.8915	0.8968	-0.233
Mof_C 	C 	0.8847	0.5737	0.7445	0.046
Mof_C 	C 	0.8848	0.541	0.8682	0.058
Mof_C 	C 	0.8507	0.5474	0.9417	-0.143
Mof_H 	H 	0.8513	0.527	0.024	0.065
Mof_C 	C 	0.8151	0.5855	0.8889	0.069
Mof_C 	C 	0.8158	0.6196	0.7659	0.06
Mof_C 	C 	0.8497	0.6133	0.6898	-0.138
Mof_H 	H 	0.8493	0.6339	0.6077	0.047
Mof_C 	C 	0.7474	0.6597	0.7815	-0.021
Mof_C 	C 	0.7454	0.6197	0.8993	0.001
Mof_C 	C 	0.7066	0.6158	0.9766	0.131
Mof_C 	C 	0.6734	0.6758	0.9317	0.011
Mof_C 	C 	0.6735	0.7118	0.8152	-0.022
Mof_C 	C 	0.7077	0.6969	0.7225	0.217
Mof_C 	C 	0.6903	0.6494	0.6118	-0.528
Mof_H 	H 	0.6798	0.5981	0.6404	0.167
Mof_H 	H 	0.6675	0.6792	0.57	0.167
Mof_H 	H 	0.7126	0.6403	0.5535	0.169
Mof_C 	C 	0.719	0.7783	0.6627	-0.517
Mof_H 	H 	0.6951	0.7978	0.612	0.171
Mof_H 	H 	0.7261	0.8169	0.7284	0.17
Mof_H 	H 	0.743	0.7711	0.6102	0.168
Mof_C 	C 	0.6134	0.7795	0.8603	0.053
Mof_C 	C 	0.6133	0.7403	0.9795	0.07
Mof_C 	C 	0.5816	0.7557	0.062	-0.149
Mof_H 	H 	0.5817	0.7312	0.1414	0.045
Mof_C 	C 	0.5507	0.8072	0.0246	0.059
Mof_C 	C 	0.5503	0.8443	0.9088	0.03
Mof_C 	C 	0.5814	0.8307	0.8213	-0.127
Mof_H 	H 	0.5804	0.8549	0.7415	0.034
Mof_C 	C 	0.711	0.604	0.1005	-0.537
Mof_H 	H 	0.7215	0.55	0.1167	0.174
Mof_H 	H 	0.7309	0.6429	0.1365	0.179
Mof_H 	H 	0.6839	0.6106	0.1381	0.179
Mof_Cu	Cu	0.44456	0.05407	0.5324	0.788
Mof_N 	N 	0.4228	0.0543	0.6976	-0.253
Mof_N 	N 	0.4445	0.0145	0.7851	-0.222
Mof_N 	N 	0.4234	0.005	0.8878	-0.229
Mof_N 	N 	0.2804	0.1569	0.715	-0.122
Mof_N 	N 	0.2795	0.0889	0.9556	-0.121
Mof_N 	N 	0.1444	0.1869	0.0112	-0.131
Mof_N 	N 	0.1448	0.2629	0.7794	-0.121
Mof_N 	N 	0.0164	0.3352	0.0855	-0.274
Mof_N 	N 	0.9961	0.3842	0.0027	-0.198
Mof_N 	N 	0.0153	0.3915	0.8968	-0.249
Mof_C 	C 	0.3847	0.0737	0.7445	0.045
Mof_C 	C 	0.3848	0.041	0.8682	0.057
Mof_C 	C 	0.3507	0.0474	0.9417	-0.141
Mof_H 	H 	0.3513	0.027	0.024	0.064
Mof_C 	C 	0.3151	0.0855	0.8889	0.069
Mof_C 	C 	0.3158	0.1196	0.7659	0.06
Mof_C 	C 	0.3497	0.1133	0.6898	-0.139
Mof_H 	H 	0.3493	0.1339	0.6077	0.046
Mof_C 	C 	0.2474	0.1597	0.7815	-0.021
Mof_C 	C 	0.2454	0.1197	0.8993	0.001
Mof_C 	C 	0.2066	0.1158	0.9766	0.131
Mof_C 	C 	0.1734	0.1758	0.9317	0.011
Mof_C 	C 	0.1735	0.2118	0.8152	-0.023
Mof_C 	C 	0.2077	0.1969	0.7225	0.216
Mof_C 	C 	0.1903	0.1494	0.6118	-0.525
Mof_H 	H 	0.1798	0.0981	0.6404	0.165
Mof_H 	H 	0.1675	0.1792	0.57	0.165
Mof_H 	H 	0.2126	0.1403	0.5535	0.168
Mof_C 	C 	0.219	0.2783	0.6627	-0.516
Mof_H 	H 	0.1951	0.2978	0.612	0.17
Mof_H 	H 	0.2261	0.3169	0.7284	0.17
Mof_H 	H 	0.243	0.2711	0.6102	0.167
Mof_C 	C 	0.1134	0.2795	0.8603	0.052
Mof_C 	C 	0.1133	0.2403	0.9795	0.07
Mof_C 	C 	0.0816	0.2557	0.062	-0.15
Mof_H 	H 	0.0817	0.2312	0.1414	0.042
Mof_C 	C 	0.0507	0.3072	0.0246	0.055
Mof_C 	C 	0.0503	0.3443	0.9088	0.028
Mof_C 	C 	0.0814	0.3307	0.8213	-0.129
Mof_H 	H 	0.0804	0.3549	0.7415	0.033
Mof_C 	C 	0.211	0.104	0.1005	-0.537
Mof_H 	H 	0.2215	0.05	0.1167	0.174
Mof_H 	H 	0.2309	0.1429	0.1365	0.179
Mof_H 	H 	0.1839	0.1106	0.1381	0.178
Mof_Cu	Cu	3.28057e-34	0.53346	0.25	0.762
Mof_Cu	Cu	0.5	0.03346	0.25	0.775
Mof_Cu	Cu	2.45488e-18	0.46654	0.75	0.762
Mof_Cu	Cu	0.5	0.96654	0.75	0.776
Mof_Cu	Cu	0.5	0.17481	0.75	0.771
Mof_Cu	Cu	9.84172e-34	0.67481	0.75	0.757
Mof_Cu	Cu	0.5	0.82519	0.25	0.771
Mof_Cu	Cu	-6.13719e-19	0.32519	0.25	0.757
_end
