# CIF file generated by openbabel 3.1.0, see https://openbabel.org
data_I
_chemical_name_common 'image0'
_cell_length_a 4.9738
_cell_length_b 24.836
_cell_length_c 20.663
_cell_angle_alpha 90
_cell_angle_beta 95.903
_cell_angle_gamma 90
_space_group_name_H-M_alt 'P 1'
_space_group_name_Hall 'P 1'
loop_
    _symmetry_equiv_pos_as_xyz
    x,y,z
loop_
    _atom_site_label
    _atom_site_type_symbol
    _atom_site_fract_x
    _atom_site_fract_y
    _atom_site_fract_z
    _atom_site_occupancy
    Cd1      Cd       0.32280    0.95764    0.44051    1.000
    O1       O        0.94320    0.98257    0.37813    1.000
    O2       O        0.50260    0.00155    0.36211    1.000
    O3       O        0.28220    0.04105    0.48795    1.000
    O4       O        0.87140    0.07872    0.47595    1.000
    O5       O        0.76370    0.19706    0.13660    1.000
    O6       O        0.48310    0.25722    0.26970    1.000
    N1       N        0.12780    0.37373    0.10130    1.000
    C1       C        0.96000    0.36660    0.14640    1.000
    H1       H        0.84340    0.39530    0.15540    1.000
    C2       C        0.94710    0.31930    0.18100    1.000
    H2       H        0.82440    0.31560    0.21300    1.000
    C3       C        0.11390    0.27810    0.16820    1.000
    C4       C        0.27730    0.28300    0.11990    1.000
    H3       H        0.38650    0.25400    0.10810    1.000
    C5       C        0.27850    0.33240    0.08830    1.000
    H4       H        0.39590    0.33650    0.05510    1.000
    N2       N        0.10940    0.22919    0.20590    1.000
    C6       C        0.90770    0.19130    0.18730    1.000
    C7       C        0.88120    0.14600    0.23280    1.000
    C8       C        0.04760    0.14263    0.29230    1.000
    C9       C        0.25780    0.18080    0.30670    1.000
    C10      C        0.29930    0.22440    0.26110    1.000
    C11      C        0.68080    0.10900    0.21730    1.000
    H5       H        0.56890    0.11180    0.17730    1.000
    C12      C        0.64100    0.06690    0.26060    1.000
    H6       H        0.50230    0.04120    0.24940    1.000
    C13      C        0.79990    0.06200    0.31960    1.000
    C14      C        0.00490    0.10150    0.33840    1.000
    C15      C        0.16650    0.10281    0.39970    1.000
    C16      C        0.37240    0.13990    0.41130    1.000
    H7       H        0.48210    0.13950    0.45180    1.000
    C17      C        0.42140    0.17830    0.36410    1.000
    H8       H        0.56860    0.20260    0.37200    1.000
    C18      C        0.74720    0.01195    0.35760    1.000
    C19      C        0.10120    0.07073    0.45800    1.000
    Cd2      Cd       0.17720    0.45764    0.05949    1.000
    O7       O        0.55680    0.48257    0.12187    1.000
    O8       O        0.99740    0.50155    0.13789    1.000
    O9       O        0.21780    0.54105    0.01205    1.000
    O10      O        0.62860    0.57872    0.02405    1.000
    O11      O        0.73630    0.69706    0.36340    1.000
    O12      O        0.01690    0.75722    0.23030    1.000
    N3       N        0.37220    0.87373    0.39870    1.000
    C20      C        0.54000    0.86660    0.35360    1.000
    H9       H        0.65660    0.89530    0.34460    1.000
    C21      C        0.55290    0.81930    0.31900    1.000
    H10      H        0.67560    0.81560    0.28700    1.000
    C22      C        0.38610    0.77810    0.33180    1.000
    C23      C        0.22270    0.78300    0.38010    1.000
    H11      H        0.11350    0.75400    0.39190    1.000
    C24      C        0.22150    0.83240    0.41170    1.000
    H12      H        0.10410    0.83650    0.44490    1.000
    N4       N        0.39060    0.72919    0.29410    1.000
    C25      C        0.59230    0.69130    0.31270    1.000
    C26      C        0.61880    0.64600    0.26720    1.000
    C27      C        0.45240    0.64263    0.20770    1.000
    C28      C        0.24220    0.68080    0.19330    1.000
    C29      C        0.20070    0.72440    0.23890    1.000
    C30      C        0.81920    0.60900    0.28270    1.000
    H13      H        0.93110    0.61180    0.32270    1.000
    C31      C        0.85900    0.56690    0.23940    1.000
    H14      H        0.99770    0.54120    0.25060    1.000
    C32      C        0.70010    0.56200    0.18040    1.000
    C33      C        0.49510    0.60150    0.16160    1.000
    C34      C        0.33350    0.60281    0.10030    1.000
    C35      C        0.12760    0.63990    0.08870    1.000
    H15      H        0.01790    0.63950    0.04820    1.000
    C36      C        0.07860    0.67830    0.13590    1.000
    H16      H        0.93140    0.70260    0.12800    1.000
    C37      C        0.75280    0.51195    0.14240    1.000
    C38      C        0.39880    0.57073    0.04200    1.000
    Cd3      Cd       0.67720    0.04236    0.55949    1.000
    O13      O        0.05680    0.01743    0.62187    1.000
    O14      O        0.49740    0.99845    0.63789    1.000
    O15      O        0.71780    0.95895    0.51205    1.000
    O16      O        0.12860    0.92128    0.52405    1.000
    O17      O        0.23630    0.80294    0.86340    1.000
    O18      O        0.51690    0.74278    0.73030    1.000
    N5       N        0.87220    0.62627    0.89870    1.000
    C39      C        0.04000    0.63340    0.85360    1.000
    H17      H        0.15660    0.60470    0.84460    1.000
    C40      C        0.05290    0.68070    0.81900    1.000
    H18      H        0.17560    0.68440    0.78700    1.000
    C41      C        0.88610    0.72190    0.83180    1.000
    C42      C        0.72270    0.71700    0.88010    1.000
    H19      H        0.61350    0.74600    0.89190    1.000
    C43      C        0.72150    0.66760    0.91170    1.000
    H20      H        0.60410    0.66350    0.94490    1.000
    N6       N        0.89060    0.77081    0.79410    1.000
    C44      C        0.09230    0.80870    0.81270    1.000
    C45      C        0.11880    0.85400    0.76720    1.000
    C46      C        0.95240    0.85737    0.70770    1.000
    C47      C        0.74220    0.81920    0.69330    1.000
    C48      C        0.70070    0.77560    0.73890    1.000
    C49      C        0.31920    0.89100    0.78270    1.000
    H21      H        0.43110    0.88820    0.82270    1.000
    C50      C        0.35900    0.93310    0.73940    1.000
    H22      H        0.49770    0.95880    0.75060    1.000
    C51      C        0.20010    0.93800    0.68040    1.000
    C52      C        0.99510    0.89850    0.66160    1.000
    C53      C        0.83350    0.89719    0.60030    1.000
    C54      C        0.62760    0.86010    0.58870    1.000
    H23      H        0.51790    0.86050    0.54820    1.000
    C55      C        0.57860    0.82170    0.63590    1.000
    H24      H        0.43140    0.79740    0.62800    1.000
    C56      C        0.25280    0.98805    0.64240    1.000
    C57      C        0.89880    0.92927    0.54200    1.000
    Cd4      Cd       0.82280    0.54236    0.94050    1.000
    O19      O        0.44320    0.51743    0.87813    1.000
    O20      O        0.00260    0.49845    0.86211    1.000
    O21      O        0.78220    0.45895    0.98795    1.000
    O22      O        0.37140    0.42128    0.97595    1.000
    O23      O        0.26370    0.30294    0.63660    1.000
    O24      O        0.98310    0.24278    0.76970    1.000
    N7       N        0.62780    0.12627    0.60130    1.000
    C58      C        0.46000    0.13340    0.64640    1.000
    H25      H        0.34340    0.10470    0.65540    1.000
    C59      C        0.44710    0.18070    0.68100    1.000
    H26      H        0.32440    0.18440    0.71300    1.000
    C60      C        0.61390    0.22190    0.66820    1.000
    C61      C        0.77730    0.21700    0.61990    1.000
    H27      H        0.88650    0.24600    0.60810    1.000
    C62      C        0.77850    0.16760    0.58830    1.000
    H28      H        0.89590    0.16350    0.55510    1.000
    N8       N        0.60940    0.27081    0.70590    1.000
    C63      C        0.40770    0.30870    0.68730    1.000
    C64      C        0.38120    0.35400    0.73280    1.000
    C65      C        0.54760    0.35737    0.79230    1.000
    C66      C        0.75780    0.31920    0.80670    1.000
    C67      C        0.79930    0.27560    0.76110    1.000
    C68      C        0.18080    0.39100    0.71730    1.000
    H29      H        0.06890    0.38820    0.67730    1.000
    C69      C        0.14100    0.43310    0.76060    1.000
    H30      H        0.00230    0.45880    0.74940    1.000
    C70      C        0.29990    0.43800    0.81960    1.000
    C71      C        0.50490    0.39850    0.83840    1.000
    C72      C        0.66650    0.39719    0.89970    1.000
    C73      C        0.87240    0.36010    0.91130    1.000
    H31      H        0.98210    0.36050    0.95180    1.000
    C74      C        0.92140    0.32170    0.86410    1.000
    H32      H        0.06860    0.29740    0.87200    1.000
    C75      C        0.24720    0.48805    0.85760    1.000
    C76      C        0.60120    0.42927    0.95800    1.000
