data_functionalizedCrystal
_audit_creation_method	'EQeq! by Chris Wilmer'
_symmetry_space_group_name_H-M	'P1'
_symmetry_Int_Tables_number	1
_symmetry_cell_setting	triclinic
loop_
_symmetry_equiv_pos_as_xyz
  x,y,z
_cell_length_a	16.268
_cell_length_b	18.582
_cell_length_c	34.589
_cell_angle_alpha	90
_cell_angle_beta	90
_cell_angle_gamma	103.81
loop_
_atom_site_label
_atom_site_type_symbol
_atom_site_fract_x
_atom_site_fract_y
_atom_site_fract_z
_atom_site_charge
Mof_La	La	0.79297	0.295	0.76186	2.123
Mof_La	La	0.95642	0.67939	0.24827	2.102
Mof_La	La	0.70703	0.705	0.26186	2.123
Mof_La	La	0.20703	0.705	0.23814	2.123
Mof_La	La	0.04358	0.32061	0.75173	2.103
Mof_La	La	0.29297	0.295	0.73814	2.124
Mof_La	La	0.54358	0.32061	0.74827	2.103
Mof_La	La	0.45642	0.67939	0.25173	2.103
Mof_H 	H 	0.2332	0.6675	0.9327	0.044
Mof_H 	H 	0.0449	0.8202	0.332	-0.017
Mof_H 	H 	0.7875	0.5874	0.7043	0.135
Mof_H 	H 	0.0431	0.2432	0.8929	-0.017
Mof_H 	H 	0.9552	0.2218	0.3423	0.039
Mof_H 	H 	0.5452	0.3222	0.8681	-0.014
Mof_H 	H 	0.6811	0.8639	0.5461	0.04
Mof_H 	H 	0.003	0.7839	0.0455	0.126
Mof_H 	H 	0.7233	0.1733	0.6766	-0.056
Mof_H 	H 	0.7467	0.5142	0.3614	-0.006
Mof_H 	H 	0.1617	0.5244	0.7428	-0.048
Mof_H 	H 	0.8441	0.5009	0.7348	-0.033
Mof_H 	H 	0.1387	0.0634	0.2917	0.133
Mof_H 	H 	0.0463	0.9398	0.8081	0.127
Mof_H 	H 	0.7489	0.0722	0.6429	0.148
Mof_H 	H 	0.174	0.9686	0.2555	0.003
Mof_H 	H 	0.2125	0.4126	0.2957	0.135
Mof_H 	H 	0.0718	0.4275	0.3892	0.122
Mof_H 	H 	0.2053	0.7006	0.0672	0.141
Mof_H 	H 	0.5376	0.7132	0.9531	0.038
Mof_H 	H 	0.3006	0.4201	0.1119	0.143
Mof_H 	H 	0.9569	0.7568	0.1071	-0.017
Mof_H 	H 	0.674	0.9686	0.2445	0.003
Mof_H 	H 	0.8383	0.4756	0.2572	-0.048
Mof_H 	H 	0.9583	0.9575	0.6182	0.13
Mof_H 	H 	0.9551	0.1798	0.668	-0.017
Mof_H 	H 	0.4569	0.7568	0.3929	-0.017
Mof_H 	H 	0.3357	0.3148	0.6315	-0.018
Mof_H 	H 	0.2461	0.8159	0.8465	0.049
Mof_H 	H 	0.4551	0.1798	0.832	-0.017
Mof_H 	H 	0.3606	0.1093	0.3439	0.127
Mof_H 	H 	0.0376	0.7132	0.5469	0.038
Mof_H 	H 	0.6421	0.1637	0.9508	0.148
Mof_H 	H 	0.7767	0.8267	0.1766	-0.056
Mof_H 	H 	0.9548	0.6778	0.3681	-0.014
Mof_H 	H 	0.2947	0.2994	0.5672	0.141
Mof_H 	H 	0.1028	0.6977	0.666	0.127
Mof_H 	H 	0.2467	0.5142	0.1386	-0.006
Mof_H 	H 	0.5417	0.0425	0.1182	0.13
Mof_H 	H 	0.0013	0.2613	0.5072	0.126
Mof_H 	H 	0.5449	0.8202	0.168	-0.017
Mof_H 	H 	0.1421	0.1637	0.5492	0.148
Mof_H 	H 	0.7053	0.7006	0.4328	0.141
Mof_H 	H 	0.2875	0.5874	0.7957	0.135
Mof_H 	H 	0.5166	0.9151	0.1309	0.122
Mof_H 	H 	0.7511	0.9278	0.1429	0.147
Mof_H 	H 	0.4624	0.2868	0.0469	0.038
Mof_H 	H 	0.7539	0.1841	0.1535	0.049
Mof_H 	H 	0.6994	0.5799	0.8881	0.143
Mof_H 	H 	0.4834	0.0849	0.8691	0.122
Mof_H 	H 	0.9988	0.3089	0.5685	0.119
Mof_H 	H 	0.5013	0.2613	0.9928	0.126
Mof_H 	H 	0.6559	0.4991	0.2348	-0.033
Mof_H 	H 	0.6146	0.803	0.5005	0.126
Mof_H 	H 	0.5448	0.7782	0.8423	0.038
Mof_H 	H 	0.1811	0.8639	0.9539	0.04
Mof_H 	H 	0.7947	0.2994	0.9328	0.141
Mof_H 	H 	0.0129	0.5121	0.3583	-0.007
Mof_H 	H 	0.1146	0.803	0.9995	0.126
Mof_H 	H 	0.8579	0.8363	0.4508	0.148
Mof_H 	H 	0.7668	0.3325	0.0673	0.044
Mof_H 	H 	0.2489	0.0722	0.8571	0.147
Mof_H 	H 	0.826	0.0314	0.7445	0.003
Mof_H 	H 	0.0012	0.6911	0.4315	0.119
Mof_H 	H 	0.9871	0.4879	0.6417	-0.007
Mof_H 	H 	0.5463	0.9398	0.6919	0.126
Mof_H 	H 	0.9904	0.957	0.219	-0.009
Mof_H 	H 	0.4537	0.0602	0.3081	0.126
Mof_H 	H 	0.3613	0.9366	0.7917	0.134
Mof_H 	H 	0.4988	0.3089	0.9315	0.119
Mof_H 	H 	0.1559	0.4991	0.2652	-0.033
Mof_H 	H 	0.7461	0.8159	0.6535	0.049
Mof_H 	H 	0.0448	0.7782	0.6577	0.039
Mof_H 	H 	0.0417	0.0425	0.3818	0.13
Mof_H 	H 	0.8606	0.1093	0.1561	0.127
Mof_H 	H 	0.497	0.2161	0.5455	0.126
Mof_H 	H 	0.0452	0.3222	0.6319	-0.014
Mof_H 	H 	0.0166	0.9151	0.3691	0.121
Mof_H 	H 	0.9624	0.2868	0.4531	0.038
Mof_H 	H 	0.1394	0.8907	0.8439	0.127
Mof_H 	H 	0.3441	0.5009	0.7652	-0.033
Mof_H 	H 	0.4583	0.9575	0.8818	0.13
Mof_H 	H 	0.4871	0.4879	0.8583	-0.007
Mof_H 	H 	0.6394	0.8907	0.6561	0.127
Mof_H 	H 	0.6643	0.6852	0.3685	-0.018
Mof_H 	H 	0.3383	0.4756	0.2428	-0.048
Mof_H 	H 	0.3579	0.8363	0.0492	0.148
Mof_H 	H 	0.8972	0.3023	0.334	0.127
Mof_H 	H 	0.2767	0.8267	0.3234	-0.056
Mof_H 	H 	0.6028	0.6977	0.834	0.127
Mof_H 	H 	0.8189	0.1361	0.0461	0.04
Mof_H 	H 	0.4904	0.957	0.281	-0.008
Mof_H 	H 	0.1826	0.1741	0.6133	-0.014
Mof_H 	H 	0.8006	0.4201	0.3881	0.143
Mof_H 	H 	0.2668	0.3325	0.4327	0.044
Mof_H 	H 	0.2533	0.4858	0.6386	-0.006
Mof_H 	H 	0.4552	0.2218	0.1577	0.038
Mof_H 	H 	0.5096	0.043	0.719	-0.008
Mof_H 	H 	0.3972	0.3023	0.166	0.127
Mof_H 	H 	0.3854	0.197	0.4995	0.126
Mof_H 	H 	0.4987	0.7387	0.0072	0.126
Mof_H 	H 	0.8174	0.8259	0.3867	-0.014
Mof_H 	H 	0.5012	0.6911	0.0685	0.119
Mof_H 	H 	0.3189	0.1361	0.4539	0.04
Mof_H 	H 	0.6814	0.3666	0.104	0.125
Mof_H 	H 	0.7125	0.4126	0.2043	0.135
Mof_H 	H 	0.8357	0.3148	0.8685	-0.018
Mof_H 	H 	0.6387	0.0634	0.2083	0.134
Mof_H 	H 	0.4548	0.6778	0.1319	-0.014
Mof_H 	H 	0.8874	0.3794	0.2826	0.116
Mof_H 	H 	0.9834	0.0849	0.6309	0.121
Mof_H 	H 	0.5129	0.5121	0.1417	-0.007
Mof_H 	H 	0.8854	0.197	0.0005	0.126
Mof_H 	H 	0.3174	0.8259	0.1133	-0.014
Mof_H 	H 	0.7533	0.4858	0.8614	-0.006
Mof_H 	H 	0.1643	0.6852	0.1315	-0.018
Mof_H 	H 	0.997	0.2161	0.9545	0.126
Mof_H 	H 	0.9141	0.8672	0.5792	0.049
Mof_H 	H 	0.2539	0.1841	0.3465	0.049
Mof_H 	H 	0.8186	0.6334	0.604	0.125
Mof_H 	H 	0.4141	0.8672	0.9208	0.049
Mof_H 	H 	0.6617	0.5244	0.7572	-0.048
Mof_H 	H 	0.9537	0.0602	0.1919	0.127
Mof_H 	H 	0.5718	0.4275	0.1108	0.122
Mof_H 	H 	0.5431	0.2432	0.6071	-0.017
Mof_H 	H 	0.6826	0.1741	0.8867	-0.014
Mof_H 	H 	0.503	0.7839	0.4545	0.126
Mof_H 	H 	0.1126	0.6206	0.7174	0.116
Mof_H 	H 	0.2233	0.1733	0.8234	-0.056
Mof_H 	H 	0.7332	0.6675	0.5673	0.044
Mof_H 	H 	0.8613	0.9366	0.7083	0.133
Mof_H 	H 	0.6126	0.6206	0.7826	0.116
Mof_H 	H 	0.9987	0.7387	0.4928	0.126
Mof_H 	H 	0.0859	0.1328	0.4208	0.049
Mof_H 	H 	0.3874	0.3794	0.2174	0.116
Mof_H 	H 	0.2511	0.9278	0.3571	0.148
Mof_H 	H 	0.1994	0.5799	0.6119	0.143
Mof_H 	H 	0.5859	0.1328	0.0792	0.049
Mof_H 	H 	0.9282	0.5725	0.6108	0.122
Mof_H 	H 	0.0096	0.043	0.781	-0.009
Mof_H 	H 	0.3186	0.6334	0.896	0.125
Mof_H 	H 	0.4282	0.5725	0.8892	0.122
Mof_H 	H 	0.1814	0.3666	0.396	0.125
Mof_H 	H 	0.326	0.0314	0.7555	0.003
Mof_C 	C 	0.0215	0.7426	0.56627	0.006
Mof_C 	C 	0.6002	0.6819	0.8893	0.234
Mof_C 	C 	0.0457	0.5741	0.28864	0.401
Mof_C 	C 	0.0283	0.7084	0.16695	0.433
Mof_C 	C 	0.9707	0.7903	0.55596	-0.072
Mof_C 	C 	0.3546	0.7445	0.17058	0.499
Mof_C 	C 	0.5378	0.2824	0.9229	-0.257
Mof_C 	C 	0.6185	0.2479	0.87096	-0.243
Mof_C 	C 	0.831	0.4646	0.28368	0.162
Mof_C 	C 	0.4397	0.9512	0.295	0.166
Mof_C 	C 	0.8479	0.3907	0.3388	0.226
Mof_C 	C 	0.2905	0.5074	0.19308	-0.215
Mof_C 	C 	0.5651	0.8695	0.17605	0.154
Mof_C 	C 	0.7053	0.9284	0.6134	0.237
Mof_C 	C 	0.4034	0.816	0.27692	0.453
Mof_C 	C 	0.5457	0.5741	0.21136	0.401
Mof_C 	C 	0.7338	0.4257	0.79113	0.419
Mof_C 	C 	0.4785	0.2574	0.06627	0.008
Mof_C 	C 	0.6478	0.9972	0.6626	0.258
Mof_C 	C 	0.2722	0.286	0.4239	-0.006
Mof_C 	C 	0.9359	0.7106	0.38473	0.167
Mof_C 	C 	0.453	0.0739	0.8459	-0.248
Mof_C 	C 	0.5516	0.1653	0.08531	0.002
Mof_C 	C 	0.7526	0.2646	0.1147	-0.055
Mof_C 	C 	0.4326	0.7625	0.05133	0.241
Mof_C 	C 	0.7206	0.3107	0.1441	0.22
Mof_C 	C 	0.6412	0.9575	0.22191	0.139
Mof_C 	C 	0.5603	0.0488	0.705	0.166
Mof_C 	C 	0.7997	0.2383	0.0511	-0.054
Mof_C 	C 	0.0674	0.2375	0.55133	0.241
Mof_C 	C 	0.8998	0.3181	0.3893	0.234
Mof_C 	C 	0.3796	0.986	0.8	-0.233
Mof_C 	C 	0.36	0.4074	0.20147	-0.244
Mof_C 	C 	0.4735	0.2187	0.13214	0.006
Mof_C 	C 	0.3144	0.8734	0.321	0.193
Mof_C 	C 	0.7474	0.7354	0.6147	-0.055
Mof_C 	C 	0.1954	0.8302	0.9363	0.003
Mof_C 	C 	0.5674	0.2028	0.0173	0.251
Mof_C 	C 	0.5966	0.184	0.72308	0.453
Mof_C 	C 	0.9484	0.8347	0.58531	0.001
Mof_C 	C 	0.0565	0.7211	0.12649	-0.232
Mof_C 	C 	0.6813	0.7334	0.5107	0.23
Mof_C 	C 	0.5353	0.7621	0.4376	-0.271
Mof_C 	C 	0.1155	0.1185	0.7977	-0.234
Mof_C 	C 	0.3654	0.1749	0.76799	0.412
Mof_C 	C 	0.6308	0.704	0.3862	0.165
Mof_C 	C 	0.86	0.4074	0.29853	-0.244
Mof_C 	C 	0.8046	0.1698	0.0637	0.003
Mof_C 	C 	0.2113	0.8505	0.8982	-0.063
Mof_C 	C 	0.049	0.7367	0.60337	-0.072
Mof_C 	C 	0.6219	0.1959	0.9344	-0.258
Mof_C 	C 	0.3268	0.5663	0.8087	-0.257
Mof_C 	C 	0.669	0.5354	0.78368	0.162
Mof_C 	C 	0.545	0.1208	0.1547	0.24
Mof_C 	C 	0.9188	0.4827	0.69194	-0.235
Mof_C 	C 	0.2662	0.5743	0.20887	0.419
Mof_C 	C 	0.3438	0.2859	0.5757	-0.243
Mof_C 	C 	0.4707	0.7903	0.94404	-0.073
Mof_C 	C 	0.3509	0.5874	0.8467	0.227
Mof_C 	C 	0.5091	0.7479	0.4004	0.177
Mof_C 	C 	0.9105	0.5575	0.6361	-0.254
Mof_C 	C 	0.8541	0.7977	0.39589	0.172
Mof_C 	C 	0.455	0.8792	0.8453	0.24
Mof_C 	C 	0.2988	0.9342	0.341	-0.278
Mof_C 	C 	0.3815	0.7521	0.12904	-0.243
Mof_C 	C 	0.1454	0.2555	0.67058	0.499
Mof_C 	C 	0.0091	0.7479	0.0996	0.177
Mof_C 	C 	0.1459	0.2023	0.60411	0.172
Mof_C 	C 	0.5215	0.7426	0.93373	0.008
Mof_C 	C 	0.0378	0.2824	0.5771	-0.257
Mof_C 	C 	0.64	0.5926	0.79853	-0.244
Mof_C 	C 	0.2231	0.5118	0.6543	0.153
Mof_C 	C 	0.951	0.2633	0.39663	-0.072
Mof_C 	C 	0.9435	0.2789	0.87351	-0.232
Mof_C 	C 	0.4326	0.7972	0.9827	0.251
Mof_C 	C 	0.0603	0.0488	0.795	0.167
Mof_C 	C 	0.7095	0.4926	0.80692	-0.215
Mof_C 	C 	0.8438	0.2859	0.9243	-0.243
Mof_C 	C 	0.2887	0.1495	0.3982	-0.063
Mof_C 	C 	0.6923	0.5691	0.8616	-0.248
Mof_C 	C 	0.5895	0.4425	0.1361	-0.254
Mof_C 	C 	0.955	0.8792	0.6547	0.239
Mof_C 	C 	0.7887	0.1495	0.1018	-0.063
Mof_C 	C 	0.4188	0.4827	0.80806	-0.235
Mof_C 	C 	0.8588	0.0425	0.72191	0.136
Mof_C 	C 	0.4105	0.5575	0.8639	-0.254
Mof_C 	C 	0.7988	0.9342	0.159	-0.277
Mof_C 	C 	0.7769	0.4882	0.3457	0.153
Mof_C 	C 	0.4717	0.2916	0.66695	0.433
Mof_C 	C 	0.2635	0.1975	0.3726	-0.006
Mof_C 	C 	0.0895	0.4425	0.3639	-0.254
Mof_C 	C 	0.6521	0.6093	0.8388	0.226
Mof_C 	C 	0.8654	0.1749	0.73201	0.411
Mof_C 	C 	0.5241	0.1686	0.12266	-0.064
Mof_C 	C 	0.3934	0.2546	0.5495	0.233
Mof_C 	C 	0.5674	0.2375	0.94867	0.241
Mof_C 	C 	0.3541	0.7977	0.10411	0.172
Mof_C 	C 	0.7278	0.714	0.5761	-0.006
Mof_C 	C 	0.7662	0.5743	0.29113	0.419
Mof_C 	C 	0.1412	0.9575	0.27809	0.136
Mof_C 	C 	0.2474	0.7354	0.8853	-0.055
Mof_C 	C 	0.0674	0.2028	0.4827	0.251
Mof_C 	C 	0.7794	0.6893	0.6441	0.22
Mof_C 	C 	0.1923	0.5691	0.6384	-0.248
Mof_C 	C 	0.7231	0.5118	0.8457	0.153
Mof_C 	C 	0.3187	0.2666	0.4893	0.23
Mof_C 	C 	0.2095	0.4926	0.69308	-0.215
Mof_C 	C 	0.4543	0.4259	0.78864	0.401
Mof_C 	C 	0.2769	0.4882	0.1543	0.153
Mof_C 	C 	0.2947	0.0716	0.3866	0.237
Mof_C 	C 	0.2338	0.4257	0.70887	0.419
Mof_C 	C 	0.8781	0.8041	0.4344	-0.258
Mof_C 	C 	0.3845	0.8815	0.2977	-0.234
Mof_C 	C 	0.8268	0.5663	0.6913	-0.257
Mof_C 	C 	0.1521	0.6093	0.6612	0.226
Mof_C 	C 	0.1813	0.7334	0.9893	0.229
Mof_C 	C 	0.549	0.7367	0.89663	-0.072
Mof_C 	C 	0.8815	0.7521	0.37096	-0.243
Mof_C 	C 	0.7947	0.0716	0.1134	0.237
Mof_C 	C 	0.8692	0.296	0.8862	0.165
Mof_C 	C 	0.2365	0.8025	0.8726	-0.006
Mof_C 	C 	0.8077	0.4309	0.3616	-0.248
Mof_C 	C 	0.5812	0.5173	0.19194	-0.235
Mof_C 	C 	0.1308	0.704	0.1138	0.165
Mof_C 	C 	0.4454	0.5068	0.84577	0.152
Mof_C 	C 	0.0812	0.5173	0.30806	-0.235
Mof_C 	C 	0.331	0.4646	0.21632	0.162
Mof_C 	C 	0.6066	0.7454	0.4505	0.233
Mof_C 	C 	0.2206	0.3107	0.3559	0.22
Mof_C 	C 	0.953	0.0739	0.6541	-0.246
Mof_C 	C 	0.9622	0.7176	0.4229	-0.257
Mof_C 	C 	0.3692	0.296	0.6138	0.165
Mof_C 	C 	0.5798	0.9877	0.6871	-0.263
Mof_C 	C 	0.9265	0.0013	0.66632	0.229
Mof_C 	C 	0.1732	0.4337	0.3087	-0.257
Mof_C 	C 	0.888	0.1159	0.70946	-0.201
Mof_C 	C 	0.6346	0.8251	0.23201	0.412
Mof_C 	C 	0.8796	0.986	0.7	-0.229
Mof_C 	C 	0.1002	0.6819	0.6107	0.234
Mof_C 	C 	0.639	0.4852	0.2094	0.162
Mof_C 	C 	0.2053	0.9284	0.8866	0.237
Mof_C 	C 	0.4349	0.1305	0.82395	0.154
Mof_C 	C 	0.1478	0.9972	0.8374	0.257
Mof_C 	C 	0.4435	0.2789	0.62649	-0.232
Mof_C 	C 	0.6732	0.4337	0.1913	-0.257
Mof_C 	C 	0.5641	0.2894	0.88473	0.168
Mof_C 	C 	0.5265	0.7813	0.86786	0.006
Mof_C 	C 	0.6562	0.7141	0.4243	-0.243
Mof_C 	C 	0.4202	0.0123	0.3129	-0.263
Mof_C 	C 	0.9454	0.5068	0.65423	0.152
Mof_C 	C 	0.612	0.8841	0.20946	-0.202
Mof_C 	C 	0.3781	0.8041	0.0656	-0.258
Mof_C 	C 	0.0641	0.2894	0.61527	0.167
Mof_C 	C 	0.047	0.9261	0.3459	-0.246
Mof_C 	C 	0.3522	0.0028	0.3374	0.258
Mof_C 	C 	0.0966	0.184	0.77692	0.453
Mof_C 	C 	0.9349	0.1305	0.67605	0.153
Mof_C 	C 	0.1491	0.4126	0.3467	0.227
Mof_C 	C 	0.3479	0.3907	0.1612	0.226
Mof_C 	C 	0.0293	0.2097	0.44404	-0.072
Mof_C 	C 	0.9202	0.0123	0.1871	-0.264
Mof_C 	C 	0.3998	0.3181	0.1107	0.234
Mof_C 	C 	0.4909	0.2521	0.5996	0.177
Mof_C 	C 	0.1346	0.8251	0.26799	0.411
Mof_C 	C 	0.4265	0.0013	0.83368	0.232
Mof_C 	C 	0.6204	0.014	0.2	-0.233
Mof_C 	C 	0.8934	0.2546	0.9505	0.234
Mof_C 	C 	0.2794	0.6893	0.8559	0.22
Mof_C 	C 	0.8845	0.8815	0.2023	-0.234
Mof_C 	C 	0.0241	0.1686	0.37734	-0.063
Mof_C 	C 	0.1562	0.7141	0.0757	-0.243
Mof_C 	C 	0.547	0.9261	0.1541	-0.248
Mof_C 	C 	0.7722	0.286	0.0761	-0.006
Mof_C 	C 	0.5283	0.7084	0.33305	0.433
Mof_C 	C 	0.1185	0.2479	0.62904	-0.243
Mof_C 	C 	0.9326	0.7972	0.5173	0.251
Mof_C 	C 	0.6155	0.1185	0.7023	-0.234
Mof_C 	C 	0.6856	0.1266	0.679	0.193
Mof_C 	C 	0.5565	0.7211	0.37351	-0.232
Mof_C 	C 	0.4759	0.8314	0.87734	-0.064
Mof_C 	C 	0.0265	0.7813	0.63214	0.004
Mof_C 	C 	0.4647	0.2379	0.5624	-0.271
Mof_C 	C 	0.9543	0.4259	0.71136	0.401
Mof_C 	C 	0.2997	0.2383	0.4489	-0.054
Mof_C 	C 	0.7365	0.8025	0.6274	-0.006
Mof_C 	C 	0.1219	0.1959	0.5656	-0.258
Mof_C 	C 	0.4359	0.7106	0.11527	0.168
Mof_C 	C 	0.6954	0.8302	0.5637	0.003
Mof_C 	C 	0.5293	0.2097	0.05596	-0.073
Mof_C 	C 	0.7905	0.5074	0.30692	-0.215
Mof_C 	C 	0.4622	0.7176	0.0771	-0.257
Mof_C 	C 	0.3046	0.1698	0.4363	0.003
Mof_C 	C 	0.7113	0.8505	0.6018	-0.063
Mof_C 	C 	0.045	0.1208	0.3453	0.239
Mof_C 	C 	0.8144	0.8734	0.179	0.193
Mof_C 	C 	0.7012	0.0658	0.659	-0.278
Mof_C 	C 	0.0651	0.8695	0.32395	0.153
Mof_C 	C 	0.1066	0.7454	0.0495	0.234
Mof_C 	C 	0.8509	0.5874	0.6533	0.227
Mof_C 	C 	0.8522	0.0028	0.1626	0.257
Mof_C 	C 	0.361	0.5148	0.7906	0.162
Mof_C 	C 	0.3077	0.4309	0.1384	-0.248
Mof_C 	C 	0.1856	0.1266	0.821	0.193
Mof_C 	C 	0.169	0.5354	0.71632	0.162
Mof_C 	C 	0.0735	0.9987	0.33368	0.229
Mof_C 	C 	0.3588	0.0425	0.77809	0.139
Mof_C 	C 	0.2278	0.714	0.9239	-0.006
Mof_C 	C 	0.9785	0.2574	0.43373	0.006
Mof_C 	C 	0.112	0.8841	0.29054	-0.201
Mof_C 	C 	0.4484	0.8347	0.91469	0.002
Mof_C 	C 	0.9034	0.816	0.22308	0.453
Mof_C 	C 	0.0516	0.1653	0.41469	0.001
Mof_C 	C 	0.861	0.5148	0.7094	0.162
Mof_C 	C 	0.14	0.5926	0.70147	-0.244
Mof_C 	C 	0.9397	0.9512	0.205	0.167
Mof_C 	C 	0.2003	0.7617	0.9489	-0.054
Mof_C 	C 	0.388	0.1159	0.79054	-0.202
Mof_C 	C 	0.6459	0.2023	0.89589	0.172
Mof_C 	C 	0.7003	0.7617	0.5511	-0.054
Mof_C 	C 	0.5735	0.9987	0.16632	0.232
Mof_C 	C 	0.9909	0.2521	0.9004	0.177
Mof_C 	C 	0.2012	0.0658	0.841	-0.277
Mof_C 	C 	0.9326	0.7625	0.44867	0.241
Mof_C 	C 	0.6454	0.2555	0.82942	0.499
Mof_C 	C 	0.1204	0.014	0.3	-0.229
Mof_C 	C 	0.7635	0.1975	0.1274	-0.006
Mof_C 	C 	0.139	0.4852	0.2906	0.162
Mof_C 	C 	0.9735	0.2187	0.36786	0.004
Mof_C 	C 	0.2526	0.2646	0.3853	-0.055
Mof_C 	C 	0.0546	0.4932	0.34577	0.152
Mof_C 	C 	0.9717	0.2916	0.83305	0.433
Mof_C 	C 	0.451	0.2633	0.10337	-0.072
Mof_C 	C 	0.8187	0.2666	0.0107	0.229
Mof_C 	C 	0.9759	0.8314	0.62266	-0.063
Mof_C 	C 	0.9647	0.2379	0.9376	-0.271
Mof_C 	C 	0.0353	0.7621	0.0624	-0.271
Mof_C 	C 	0.0798	0.9877	0.8129	-0.264
Mof_C 	C 	0.5546	0.4932	0.15423	0.152
Mof_C 	C 	0.8546	0.7445	0.32942	0.499
Mof_C 	C 	0.6491	0.4126	0.1533	0.227
Mof_N 	N 	0.867	0.2343	0.98972	-0.249
Mof_N 	N 	0.3158	0.6368	0.8701	-0.245
Mof_N 	N 	0.6842	0.3632	0.1299	-0.245
Mof_N 	N 	0.367	0.2343	0.51028	-0.25
Mof_N 	N 	0.8845	0.3326	0.35208	-0.248
Mof_N 	N 	0.633	0.7657	0.48972	-0.25
Mof_N 	N 	0.1155	0.6674	0.64792	-0.248
Mof_N 	N 	0.5414	0.2368	0.98756	-0.255
Mof_N 	N 	0.9586	0.7632	0.48756	-0.255
Mof_N 	N 	0.6155	0.6674	0.85208	-0.248
Mof_N 	N 	0.8376	0.0659	0.14432	-0.262
Mof_N 	N 	0.3376	0.0659	0.35568	-0.262
Mof_N 	N 	0.4586	0.7632	0.01244	-0.255
Mof_N 	N 	0.0524	0.0539	0.35672	-0.253
Mof_N 	N 	0.4476	0.9461	0.85672	-0.254
Mof_N 	N 	0.9476	0.9461	0.64328	-0.253
Mof_N 	N 	0.133	0.7657	0.01028	-0.249
Mof_N 	N 	0.1624	0.9341	0.85568	-0.262
Mof_N 	N 	0.5524	0.0539	0.14328	-0.254
Mof_N 	N 	0.0414	0.2368	0.51244	-0.255
Mof_N 	N 	0.1842	0.3632	0.3701	-0.245
Mof_N 	N 	0.8158	0.6368	0.6299	-0.245
Mof_N 	N 	0.3845	0.3326	0.14792	-0.248
Mof_N 	N 	0.6624	0.9341	0.64432	-0.262
Mof_O 	O 	0.4017	0.7191	0.19305	-0.544
Mof_O 	O 	0.7858	0.3168	0.9984	-0.226
Mof_O 	O 	0.0801	0.7022	0.19372	-0.575
Mof_O 	O 	0.5495	0.2968	0.67417	-0.462
Mof_O 	O 	0.2625	0.0169	0.4065	-0.232
Mof_O 	O 	0.5546	0.1443	0.1874	-0.233
Mof_O 	O 	0.5804	0.603	0.24317	-0.592
Mof_O 	O 	0.5209	0.1818	0.73279	-0.439
Mof_O 	O 	0.4505	0.7032	0.32583	-0.462
Mof_O 	O 	0.4791	0.8182	0.26721	-0.439
Mof_O 	O 	0.7142	0.6832	0.4984	-0.226
Mof_O 	O 	0.0495	0.2968	0.82583	-0.462
Mof_O 	O 	0.5983	0.2809	0.80695	-0.544
Mof_O 	O 	0.6991	0.3953	0.7601	-0.602
Mof_O 	O 	0.0983	0.2809	0.69305	-0.544
Mof_O 	O 	0.6273	0.6526	0.91642	-0.241
Mof_O 	O 	0.9855	0.5958	0.30306	-0.455
Mof_O 	O 	0.8836	0.8361	0.51347	-0.241
Mof_O 	O 	0.3077	0.1621	0.74361	-0.449
Mof_O 	O 	0.6164	0.1639	0.01347	-0.241
Mof_O 	O 	0.2106	0.2357	0.68022	-0.492
Mof_O 	O 	0.2298	0.3007	0.32076	-0.226
Mof_O 	O 	0.1164	0.1639	0.48653	-0.241
Mof_O 	O 	0.0209	0.1818	0.76721	-0.439
Mof_O 	O 	0.4196	0.397	0.75683	-0.592
Mof_O 	O 	0.7111	0.5978	0.30841	-0.452
Mof_O 	O 	0.9791	0.8182	0.23279	-0.439
Mof_O 	O 	0.9454	0.8557	0.6874	-0.233
Mof_O 	O 	0.0804	0.603	0.25683	-0.592
Mof_O 	O 	0.1273	0.6526	0.58358	-0.241
Mof_O 	O 	0.9199	0.2978	0.80628	-0.575
Mof_O 	O 	0.2702	0.6993	0.82076	-0.226
Mof_O 	O 	0.4855	0.5958	0.19694	-0.455
Mof_O 	O 	0.2375	0.9831	0.9065	-0.232
Mof_O 	O 	0.7298	0.3007	0.17924	-0.226
Mof_O 	O 	0.3727	0.3474	0.08358	-0.241
Mof_O 	O 	0.8077	0.1621	0.75639	-0.449
Mof_O 	O 	0.7375	0.9831	0.5935	-0.232
Mof_O 	O 	0.5145	0.4042	0.80306	-0.455
Mof_O 	O 	0.2858	0.3168	0.5016	-0.226
Mof_O 	O 	0.8438	0.7604	0.23003	-0.63
Mof_O 	O 	0.2894	0.7643	0.18022	-0.492
Mof_O 	O 	0.7889	0.4022	0.80841	-0.452
Mof_O 	O 	0.3009	0.6047	0.2399	-0.602
Mof_O 	O 	0.1991	0.3953	0.7399	-0.602
Mof_O 	O 	0.9505	0.7032	0.17417	-0.462
Mof_O 	O 	0.4055	0.2437	0.77448	-0.602
Mof_O 	O 	0.7894	0.7643	0.31978	-0.492
Mof_O 	O 	0.0145	0.4042	0.69694	-0.455
Mof_O 	O 	0.2889	0.4022	0.69159	-0.452
Mof_O 	O 	0.3836	0.8361	0.98653	-0.241
Mof_O 	O 	0.6923	0.8379	0.25639	-0.449
Mof_O 	O 	0.7106	0.2357	0.81978	-0.492
Mof_O 	O 	0.9055	0.2437	0.72552	-0.602
Mof_O 	O 	0.4199	0.2978	0.69372	-0.575
Mof_O 	O 	0.4454	0.8557	0.8126	-0.233
Mof_O 	O 	0.5801	0.7022	0.30628	-0.575
Mof_O 	O 	0.8727	0.3474	0.41642	-0.241
Mof_O 	O 	0.9017	0.7191	0.30695	-0.544
Mof_O 	O 	0.5945	0.7563	0.22552	-0.602
Mof_O 	O 	0.8009	0.6047	0.2601	-0.602
Mof_O 	O 	0.6562	0.2396	0.73003	-0.63
Mof_O 	O 	0.7702	0.6993	0.67924	-0.226
Mof_O 	O 	0.1923	0.8379	0.24361	-0.449
Mof_O 	O 	0.0945	0.7563	0.27448	-0.602
Mof_O 	O 	0.9196	0.397	0.74317	-0.592
Mof_O 	O 	0.0546	0.1443	0.3126	-0.233
Mof_O 	O 	0.7625	0.0169	0.0935	-0.232
Mof_O 	O 	0.2142	0.6832	0.0016	-0.226
Mof_O 	O 	0.1562	0.2396	0.76997	-0.63
Mof_O 	O 	0.3438	0.7604	0.26997	-0.63
Mof_O 	O 	0.2111	0.5978	0.19159	-0.452
_end
