# CIF file generated by openbabel 3.1.0, see https://openbabel.org
data_I
_chemical_name_common 'image0'
_cell_length_a 10.1
_cell_length_b 30.1381
_cell_length_c 12.6679
_cell_angle_alpha 90
_cell_angle_beta 126.597
_cell_angle_gamma 90
_space_group_name_H-M_alt 'P 1'
_space_group_name_Hall 'P 1'
loop_
    _symmetry_equiv_pos_as_xyz
    x,y,z
loop_
    _atom_site_label
    _atom_site_type_symbol
    _atom_site_fract_x
    _atom_site_fract_y
    _atom_site_fract_z
    _atom_site_occupancy
    Cd1      Cd       0.12821    0.30677    0.07976    1.000
    Cd2      Cd       0.96967    0.40848    0.89017    1.000
    S1       S        0.47021    0.40497    0.40271    1.000
    S2       S        0.56018    0.31498    0.00382    1.000
    C1       C        0.16770    0.41320    0.16290    1.000
    C2       C        0.27530    0.42590    0.30350    1.000
    C3       C        0.24390    0.45357    0.37050    1.000
    H1       H        0.14420    0.46830    0.33260    1.000
    C4       C        0.37870    0.45747    0.50330    1.000
    H2       H        0.37710    0.47500    0.56300    1.000
    C5       C        0.51130    0.43335    0.53620    1.000
    C6       C        0.67530    0.42806    0.66360    1.000
    C7       C        0.24620    0.33762    0.92180    1.000
    C8       C        0.38140    0.34459    0.90830    1.000
    C9       C        0.38790    0.37355    0.82980    1.000
    H3       H        0.30220    0.39270    0.77170    1.000
    C10      C        0.53710    0.37168    0.84500    1.000
    H4       H        0.56040    0.38930    0.79760    1.000
    C11      C        0.64370    0.34153    0.93610    1.000
    C12      C        0.81170    0.33012    0.98150    1.000
    C13      C        0.01160    0.21750    0.89840    1.000
    H5       H        0.01980    0.23630    0.84440    1.000
    C14      C        0.95410    0.17520    0.85540    1.000
    H6       H        0.92530    0.16590    0.77420    1.000
    C15      C        0.93890    0.14634    0.93280    1.000
    C16      C        0.98550    0.16219    0.05140    1.000
    H7       H        0.97770    0.14410    0.10700    1.000
    C17      C        0.04380    0.20475    0.08900    1.000
    H8       H        0.07630    0.21430    0.17110    1.000
    C18      C        0.86890    0.10036    0.88510    1.000
    H9       H        0.94670    0.08280    0.88160    1.000
    H10      H        0.85720    0.08650    0.94830    1.000
    C19      C        0.70510    0.09952    0.75230    1.000
    H11      H        0.71950    0.11110    0.68830    1.000
    H12      H        0.63070    0.11940    0.75400    1.000
    C20      C        0.62440    0.05431    0.70650    1.000
    H13      H        0.61610    0.04170    0.77280    1.000
    H14      H        0.51330    0.05790    0.62650    1.000
    C21      C        0.71730    0.02229    0.68050    1.000
    C22      C        0.81750    0.98993    0.77110    1.000
    H15      H        0.82910    0.98750    0.84940    1.000
    C23      C        0.89960    0.96157    0.74410    1.000
    H16      H        0.96570    0.93970    0.80550    1.000
    C24      C        0.79610    0.99529    0.54970    1.000
    H17      H        0.78910    0.99790    0.47340    1.000
    C25      C        0.70850    0.02465    0.56940    1.000
    H18      H        0.64300    0.04620    0.50650    1.000
    O1       O        0.21390    0.38167    0.12670    1.000
    O2       O        0.03920    0.43480    0.08540    1.000
    O3       O        0.77920    0.40514    0.66360    1.000
    O4       O        0.70170    0.44527    0.76380    1.000
    O5       O        0.27400    0.30776    0.00270    1.000
    O6       O        0.12040    0.36053    0.85340    1.000
    O7       O        0.90050    0.30746    0.08200    1.000
    O8       O        0.86090    0.34336    0.91490    1.000
    N1       N        0.05650    0.23317    0.01490    1.000
    N2       N        0.89000    0.96350    0.63450    1.000
    Cd3      Cd       0.87179    0.80677    0.42024    1.000
    Cd4      Cd       0.03033    0.90848    0.60983    1.000
    S3       S        0.52979    0.90497    0.09729    1.000
    S4       S        0.43982    0.81498    0.49618    1.000
    C26      C        0.83230    0.91320    0.33710    1.000
    C27      C        0.72470    0.92590    0.19650    1.000
    C28      C        0.75610    0.95357    0.12950    1.000
    H19      H        0.85580    0.96830    0.16740    1.000
    C29      C        0.62130    0.95747    0.99670    1.000
    H20      H        0.62290    0.97500    0.93700    1.000
    C30      C        0.48870    0.93335    0.96380    1.000
    C31      C        0.32470    0.92806    0.83640    1.000
    C32      C        0.75380    0.83762    0.57820    1.000
    C33      C        0.61860    0.84459    0.59170    1.000
    C34      C        0.61210    0.87355    0.67020    1.000
    H21      H        0.69780    0.89270    0.72830    1.000
    C35      C        0.46290    0.87168    0.65500    1.000
    H22      H        0.43960    0.88930    0.70240    1.000
    C36      C        0.35630    0.84153    0.56390    1.000
    C37      C        0.18830    0.83012    0.51850    1.000
    C38      C        0.98840    0.71750    0.60160    1.000
    H23      H        0.98020    0.73630    0.65560    1.000
    C39      C        0.04590    0.67520    0.64460    1.000
    H24      H        0.07470    0.66590    0.72580    1.000
    C40      C        0.06110    0.64634    0.56720    1.000
    C41      C        0.01450    0.66219    0.44860    1.000
    H25      H        0.02230    0.64410    0.39300    1.000
    C42      C        0.95620    0.70475    0.41100    1.000
    H26      H        0.92370    0.71430    0.32890    1.000
    C43      C        0.13110    0.60036    0.61490    1.000
    H27      H        0.05330    0.58280    0.61840    1.000
    H28      H        0.14280    0.58650    0.55170    1.000
    C44      C        0.29490    0.59952    0.74770    1.000
    H29      H        0.28050    0.61110    0.81170    1.000
    H30      H        0.36930    0.61940    0.74600    1.000
    C45      C        0.37560    0.55431    0.79350    1.000
    H31      H        0.38390    0.54170    0.72720    1.000
    H32      H        0.48670    0.55790    0.87350    1.000
    C46      C        0.28270    0.52229    0.81950    1.000
    C47      C        0.18250    0.48993    0.72890    1.000
    H33      H        0.17090    0.48750    0.65060    1.000
    C48      C        0.10040    0.46157    0.75590    1.000
    H34      H        0.03430    0.43970    0.69450    1.000
    C49      C        0.20390    0.49529    0.95030    1.000
    H35      H        0.21090    0.49790    0.02660    1.000
    C50      C        0.29150    0.52465    0.93060    1.000
    H36      H        0.35700    0.54620    0.99350    1.000
    O9       O        0.78610    0.88167    0.37330    1.000
    O10      O        0.96080    0.93480    0.41460    1.000
    O11      O        0.22080    0.90514    0.83640    1.000
    O12      O        0.29830    0.94527    0.73620    1.000
    O13      O        0.72600    0.80776    0.49730    1.000
    O14      O        0.87960    0.86053    0.64660    1.000
    O15      O        0.09950    0.80746    0.41800    1.000
    O16      O        0.13910    0.84336    0.58510    1.000
    N3       N        0.94350    0.73317    0.48510    1.000
    N4       N        0.11000    0.46350    0.86550    1.000
    Cd5      Cd       0.87179    0.69323    0.92024    1.000
    Cd6      Cd       0.03033    0.59152    0.10983    1.000
    S5       S        0.52979    0.59503    0.59729    1.000
    S6       S        0.43982    0.68502    0.99618    1.000
    C51      C        0.83230    0.58680    0.83710    1.000
    C52      C        0.72470    0.57410    0.69650    1.000
    C53      C        0.75610    0.54643    0.62950    1.000
    H37      H        0.85580    0.53170    0.66740    1.000
    C54      C        0.62130    0.54253    0.49670    1.000
    H38      H        0.62290    0.52500    0.43700    1.000
    C55      C        0.48870    0.56665    0.46380    1.000
    C56      C        0.32470    0.57194    0.33640    1.000
    C57      C        0.75380    0.66238    0.07820    1.000
    C58      C        0.61860    0.65541    0.09170    1.000
    C59      C        0.61210    0.62645    0.17020    1.000
    H39      H        0.69780    0.60730    0.22830    1.000
    C60      C        0.46290    0.62832    0.15500    1.000
    H40      H        0.43960    0.61070    0.20240    1.000
    C61      C        0.35630    0.65847    0.06390    1.000
    C62      C        0.18830    0.66988    0.01850    1.000
    C63      C        0.98840    0.78250    0.10160    1.000
    H41      H        0.98020    0.76370    0.15560    1.000
    C64      C        0.04590    0.82480    0.14460    1.000
    H42      H        0.07470    0.83410    0.22580    1.000
    C65      C        0.06110    0.85366    0.06720    1.000
    C66      C        0.01450    0.83781    0.94860    1.000
    H43      H        0.02230    0.85590    0.89300    1.000
    C67      C        0.95620    0.79525    0.91100    1.000
    H44      H        0.92370    0.78570    0.82890    1.000
    C68      C        0.13110    0.89964    0.11490    1.000
    H45      H        0.05330    0.91720    0.11840    1.000
    H46      H        0.14280    0.91350    0.05170    1.000
    C69      C        0.29490    0.90048    0.24770    1.000
    H47      H        0.28050    0.88890    0.31170    1.000
    H48      H        0.36930    0.88060    0.24600    1.000
    C70      C        0.37560    0.94569    0.29350    1.000
    H49      H        0.38390    0.95830    0.22720    1.000
    H50      H        0.48670    0.94210    0.37350    1.000
    C71      C        0.28270    0.97771    0.31950    1.000
    C72      C        0.18250    0.01007    0.22890    1.000
    H51      H        0.17090    0.01250    0.15060    1.000
    C73      C        0.10040    0.03843    0.25590    1.000
    H52      H        0.03430    0.06030    0.19450    1.000
    C74      C        0.20390    0.00471    0.45030    1.000
    H53      H        0.21090    0.00210    0.52660    1.000
    C75      C        0.29150    0.97535    0.43060    1.000
    H54      H        0.35700    0.95380    0.49350    1.000
    O17      O        0.78610    0.61833    0.87330    1.000
    O18      O        0.96080    0.56520    0.91460    1.000
    O19      O        0.22080    0.59486    0.33640    1.000
    O20      O        0.29830    0.55473    0.23620    1.000
    O21      O        0.72600    0.69224    0.99730    1.000
    O22      O        0.87960    0.63947    0.14660    1.000
    O23      O        0.09950    0.69254    0.91800    1.000
    O24      O        0.13910    0.65664    0.08510    1.000
    N5       N        0.94350    0.76683    0.98510    1.000
    N6       N        0.11000    0.03650    0.36550    1.000
    Cd7      Cd       0.12821    0.19323    0.57976    1.000
    Cd8      Cd       0.96967    0.09152    0.39017    1.000
    S7       S        0.47021    0.09503    0.90271    1.000
    S8       S        0.56018    0.18502    0.50382    1.000
    C76      C        0.16770    0.08680    0.66290    1.000
    C77      C        0.27530    0.07410    0.80350    1.000
    C78      C        0.24390    0.04643    0.87050    1.000
    H55      H        0.14420    0.03170    0.83260    1.000
    C79      C        0.37870    0.04253    0.00330    1.000
    H56      H        0.37710    0.02500    0.06300    1.000
    C80      C        0.51130    0.06665    0.03620    1.000
    C81      C        0.67530    0.07194    0.16360    1.000
    C82      C        0.24620    0.16238    0.42180    1.000
    C83      C        0.38140    0.15541    0.40830    1.000
    C84      C        0.38790    0.12645    0.32980    1.000
    H57      H        0.30220    0.10730    0.27170    1.000
    C85      C        0.53710    0.12832    0.34500    1.000
    H58      H        0.56040    0.11070    0.29760    1.000
    C86      C        0.64370    0.15847    0.43610    1.000
    C87      C        0.81170    0.16988    0.48150    1.000
    C88      C        0.01160    0.28250    0.39840    1.000
    H59      H        0.01980    0.26370    0.34440    1.000
    C89      C        0.95410    0.32480    0.35540    1.000
    H60      H        0.92530    0.33410    0.27420    1.000
    C90      C        0.93890    0.35366    0.43280    1.000
    C91      C        0.98550    0.33781    0.55140    1.000
    H61      H        0.97770    0.35590    0.60700    1.000
    C92      C        0.04380    0.29525    0.58900    1.000
    H62      H        0.07630    0.28570    0.67110    1.000
    C93      C        0.86890    0.39964    0.38510    1.000
    H63      H        0.94670    0.41720    0.38160    1.000
    H64      H        0.85720    0.41350    0.44830    1.000
    C94      C        0.70510    0.40048    0.25230    1.000
    H65      H        0.71950    0.38890    0.18830    1.000
    H66      H        0.63070    0.38060    0.25400    1.000
    C95      C        0.62440    0.44569    0.20650    1.000
    H67      H        0.61610    0.45830    0.27280    1.000
    H68      H        0.51330    0.44210    0.12650    1.000
    C96      C        0.71730    0.47771    0.18050    1.000
    C97      C        0.81750    0.51007    0.27110    1.000
    H69      H        0.82910    0.51250    0.34940    1.000
    C98      C        0.89960    0.53843    0.24410    1.000
    H70      H        0.96570    0.56030    0.30550    1.000
    C99      C        0.79610    0.50471    0.04970    1.000
    H71      H        0.78910    0.50210    0.97340    1.000
    C100     C        0.70850    0.47535    0.06940    1.000
    H72      H        0.64300    0.45380    0.00650    1.000
    O25      O        0.21390    0.11833    0.62670    1.000
    O26      O        0.03920    0.06520    0.58540    1.000
    O27      O        0.77920    0.09486    0.16360    1.000
    O28      O        0.70170    0.05473    0.26380    1.000
    O29      O        0.27400    0.19224    0.50270    1.000
    O30      O        0.12040    0.13947    0.35340    1.000
    O31      O        0.90050    0.19254    0.58200    1.000
    O32      O        0.86090    0.15664    0.41490    1.000
    N7       N        0.05650    0.26683    0.51490    1.000
    N8       N        0.89000    0.53650    0.13450    1.000
