data_functionalizedCrystal
_audit_creation_method	'EQeq! by Chris Wilmer'
_symmetry_space_group_name_H-M	'P1'
_symmetry_Int_Tables_number	1
_symmetry_cell_setting	triclinic
loop_
_symmetry_equiv_pos_as_xyz
  x,y,z
_cell_length_a	63.8953
_cell_length_b	63.8953
_cell_length_c	63.8953
_cell_angle_alpha	90
_cell_angle_beta	90
_cell_angle_gamma	90
loop_
_atom_site_label
_atom_site_type_symbol
_atom_site_fract_x
_atom_site_fract_y
_atom_site_fract_z
_atom_site_charge
Mof_C 	C 	0.40972	0.60258	0.21989	0.034
Mof_H 	H 	0.3976	0.5944	0.2173	0.015
Mof_C 	C 	0.42742	0.59914	0.2075	-0.045
Mof_C 	C 	0.44523	0.61072	0.21138	0.007
Mof_H 	H 	0.4574	0.6092	0.203	0.039
Mof_C 	C 	0.44486	0.62482	0.2281	-0.099
Mof_H 	H 	0.4571	0.6324	0.2318	0.067
Mof_C 	C 	0.42686	0.62758	0.23907	0.062
Mof_H 	H 	0.4268	0.6376	0.2501	0.001
Mof_C 	C 	0.39774	0.53338	0.09533	0.099
Mof_C 	C 	0.36148	0.51321	0.16843	0.058
Mof_H 	H 	0.3506	0.5032	0.1671	0.001
Mof_C 	C 	0.3626	0.52462	0.18666	-0.095
Mof_H 	H 	0.3531	0.522	0.1978	0.064
Mof_C 	C 	0.37779	0.54007	0.18858	0.005
Mof_H 	H 	0.3784	0.5487	0.2007	0.039
Mof_C 	C 	0.3921	0.54249	0.17226	-0.044
Mof_C 	C 	0.39026	0.53001	0.15472	0.032
Mof_H 	H 	0.4002	0.5317	0.1438	0.018
Mof_C 	C 	0.40868	0.55877	0.17282	0.135
Mof_C 	C 	0.42567	0.58461	0.1897	0.134
Mof_C 	C 	0.43511	0.57589	0.15684	0.134
Mof_C 	C 	0.46232	0.59601	0.13822	0.04
Mof_H 	H 	0.4637	0.6042	0.1506	0.013
Mof_C 	C 	0.44779	0.57952	0.13815	-0.05
Mof_C 	C 	0.44589	0.56735	0.1204	0.01
Mof_H 	H 	0.436	0.5562	0.1197	0.038
Mof_C 	C 	0.45891	0.57192	0.10358	-0.099
Mof_H 	H 	0.4584	0.5636	0.0913	0.068
Mof_C 	C 	0.47254	0.5886	0.10489	0.062
Mof_H 	H 	0.4811	0.5916	0.0931	0.002
Mof_C 	C 	0.51763	0.58301	0.13862	0.064
Mof_H 	H 	0.507	0.5841	0.1489	0
Mof_C 	C 	0.5294	0.5654	0.13834	-0.102
Mof_H 	H 	0.5269	0.5545	0.1481	0.069
Mof_C 	C 	0.5453	0.5636	0.12333	0.01
Mof_H 	H 	0.5541	0.5516	0.1229	0.038
Mof_C 	C 	0.54783	0.57984	0.10924	-0.051
Mof_C 	C 	0.53502	0.59731	0.11085	0.043
Mof_H 	H 	0.537	0.6085	0.1013	0.012
Mof_C 	C 	0.56441	0.57908	0.09302	0.136
Mof_C 	C 	0.50059	0.62611	0.07478	0.109
Mof_N 	N 	0.40904	0.61692	0.23525	-0.222
Mof_N 	N 	0.38715	0.52446	0.10699	-0.26
Mof_N 	N 	0.37497	0.51551	0.15242	-0.223
Mof_N 	N 	0.4204	0.56091	0.15582	-0.15
Mof_N 	N 	0.41034	0.57025	0.19029	-0.149
Mof_N 	N 	0.43887	0.58763	0.17387	-0.15
Mof_N 	N 	0.47432	0.60075	0.12185	-0.228
Mof_N 	N 	0.49881	0.62676	0.09238	-0.263
Mof_N 	N 	0.52009	0.59897	0.12524	-0.228
Mof_N 	N 	0.57831	0.56397	0.09428	-0.151
Mof_S 	S 	0.41304	0.54463	0.07812	-0.058
Mof_S 	S 	0.50216	0.62346	0.04928	-0.061
Mof_C 	C 	0.40972	0.10258	0.71989	0.034
Mof_H 	H 	0.3976	0.0944	0.7173	0.015
Mof_C 	C 	0.42742	0.09914	0.7075	-0.045
Mof_C 	C 	0.44523	0.11072	0.71138	0.007
Mof_H 	H 	0.4574	0.1092	0.703	0.039
Mof_C 	C 	0.44486	0.12482	0.7281	-0.099
Mof_H 	H 	0.4571	0.1324	0.7318	0.067
Mof_C 	C 	0.42686	0.12758	0.73907	0.062
Mof_H 	H 	0.4268	0.1376	0.7501	0.001
Mof_C 	C 	0.39774	0.03338	0.59533	0.099
Mof_C 	C 	0.36148	0.01321	0.66843	0.058
Mof_H 	H 	0.3506	0.0032	0.6671	0.001
Mof_C 	C 	0.3626	0.02462	0.68666	-0.095
Mof_H 	H 	0.3531	0.022	0.6978	0.064
Mof_C 	C 	0.37779	0.04007	0.68858	0.005
Mof_H 	H 	0.3784	0.0487	0.7007	0.039
Mof_C 	C 	0.3921	0.04249	0.67226	-0.044
Mof_C 	C 	0.39026	0.03001	0.65472	0.032
Mof_H 	H 	0.4002	0.0317	0.6438	0.018
Mof_C 	C 	0.40868	0.05877	0.67282	0.135
Mof_C 	C 	0.42567	0.08461	0.6897	0.134
Mof_C 	C 	0.43511	0.07589	0.65684	0.134
Mof_C 	C 	0.46232	0.09601	0.63822	0.04
Mof_H 	H 	0.4637	0.1042	0.6506	0.013
Mof_C 	C 	0.44779	0.07952	0.63815	-0.05
Mof_C 	C 	0.44589	0.06735	0.6204	0.01
Mof_H 	H 	0.436	0.0562	0.6197	0.038
Mof_C 	C 	0.45891	0.07192	0.60358	-0.099
Mof_H 	H 	0.4584	0.0636	0.5913	0.068
Mof_C 	C 	0.47254	0.0886	0.60489	0.062
Mof_H 	H 	0.4811	0.0916	0.5931	0.002
Mof_C 	C 	0.51763	0.08301	0.63862	0.064
Mof_H 	H 	0.507	0.0841	0.6489	0
Mof_C 	C 	0.5294	0.0654	0.63834	-0.102
Mof_H 	H 	0.5269	0.0545	0.6481	0.069
Mof_C 	C 	0.5453	0.0636	0.62333	0.01
Mof_H 	H 	0.5541	0.0516	0.6229	0.038
Mof_C 	C 	0.54783	0.07984	0.60924	-0.051
Mof_C 	C 	0.53502	0.09731	0.61085	0.043
Mof_H 	H 	0.537	0.1085	0.6013	0.012
Mof_C 	C 	0.56441	0.07908	0.59302	0.136
Mof_C 	C 	0.50059	0.12611	0.57478	0.109
Mof_N 	N 	0.40904	0.11692	0.73525	-0.222
Mof_N 	N 	0.38715	0.02446	0.60699	-0.26
Mof_N 	N 	0.37497	0.01551	0.65242	-0.223
Mof_N 	N 	0.4204	0.06091	0.65582	-0.15
Mof_N 	N 	0.41034	0.07025	0.69029	-0.149
Mof_N 	N 	0.43887	0.08763	0.67387	-0.15
Mof_N 	N 	0.47432	0.10075	0.62185	-0.228
Mof_N 	N 	0.49881	0.12676	0.59238	-0.263
Mof_N 	N 	0.52009	0.09897	0.62524	-0.228
Mof_N 	N 	0.57831	0.06397	0.59428	-0.151
Mof_S 	S 	0.41304	0.04463	0.57812	-0.058
Mof_S 	S 	0.50216	0.12346	0.54928	-0.061
Mof_C 	C 	0.90972	0.60258	0.71989	0.034
Mof_H 	H 	0.8976	0.5944	0.7173	0.015
Mof_C 	C 	0.92742	0.59914	0.7075	-0.045
Mof_C 	C 	0.94523	0.61072	0.71138	0.007
Mof_H 	H 	0.9574	0.6092	0.703	0.039
Mof_C 	C 	0.94486	0.62482	0.7281	-0.099
Mof_H 	H 	0.9571	0.6324	0.7318	0.067
Mof_C 	C 	0.92686	0.62758	0.73907	0.062
Mof_H 	H 	0.9268	0.6376	0.7501	0.001
Mof_C 	C 	0.89774	0.53338	0.59533	0.099
Mof_C 	C 	0.86148	0.51321	0.66843	0.058
Mof_H 	H 	0.8506	0.5032	0.6671	0.001
Mof_C 	C 	0.8626	0.52462	0.68666	-0.095
Mof_H 	H 	0.8531	0.522	0.6978	0.064
Mof_C 	C 	0.87779	0.54007	0.68858	0.005
Mof_H 	H 	0.8784	0.5487	0.7007	0.039
Mof_C 	C 	0.8921	0.54249	0.67226	-0.044
Mof_C 	C 	0.89026	0.53001	0.65472	0.032
Mof_H 	H 	0.9002	0.5317	0.6438	0.018
Mof_C 	C 	0.90868	0.55877	0.67282	0.135
Mof_C 	C 	0.92567	0.58461	0.6897	0.134
Mof_C 	C 	0.93511	0.57589	0.65684	0.134
Mof_C 	C 	0.96232	0.59601	0.63822	0.04
Mof_H 	H 	0.9637	0.6042	0.6506	0.013
Mof_C 	C 	0.94779	0.57952	0.63815	-0.05
Mof_C 	C 	0.94589	0.56735	0.6204	0.01
Mof_H 	H 	0.936	0.5562	0.6197	0.038
Mof_C 	C 	0.95891	0.57192	0.60358	-0.099
Mof_H 	H 	0.9584	0.5636	0.5913	0.068
Mof_C 	C 	0.97254	0.5886	0.60489	0.062
Mof_H 	H 	0.9811	0.5916	0.5931	0.002
Mof_C 	C 	0.01763	0.58301	0.63862	0.064
Mof_H 	H 	0.007	0.5841	0.6489	0
Mof_C 	C 	0.0294	0.5654	0.63834	-0.102
Mof_H 	H 	0.0269	0.5545	0.6481	0.069
Mof_C 	C 	0.0453	0.5636	0.62333	0.01
Mof_H 	H 	0.0541	0.5516	0.6229	0.038
Mof_C 	C 	0.04783	0.57984	0.60924	-0.051
Mof_C 	C 	0.03502	0.59731	0.61085	0.043
Mof_H 	H 	0.037	0.6085	0.6013	0.012
Mof_C 	C 	0.06441	0.57908	0.59302	0.136
Mof_C 	C 	0.00059	0.62611	0.57478	0.109
Mof_N 	N 	0.90904	0.61692	0.73525	-0.222
Mof_N 	N 	0.88715	0.52446	0.60699	-0.26
Mof_N 	N 	0.87497	0.51551	0.65242	-0.223
Mof_N 	N 	0.9204	0.56091	0.65582	-0.15
Mof_N 	N 	0.91034	0.57025	0.69029	-0.149
Mof_N 	N 	0.93887	0.58763	0.67387	-0.15
Mof_N 	N 	0.97432	0.60075	0.62185	-0.228
Mof_N 	N 	0.99881	0.62676	0.59238	-0.263
Mof_N 	N 	0.02009	0.59897	0.62524	-0.228
Mof_N 	N 	0.07831	0.56397	0.59428	-0.151
Mof_S 	S 	0.91304	0.54463	0.57812	-0.058
Mof_S 	S 	0.00216	0.62346	0.54928	-0.061
Mof_C 	C 	0.90972	0.10258	0.21989	0.034
Mof_H 	H 	0.8976	0.0944	0.2173	0.015
Mof_C 	C 	0.92742	0.09914	0.2075	-0.045
Mof_C 	C 	0.94523	0.11072	0.21138	0.007
Mof_H 	H 	0.9574	0.1092	0.203	0.039
Mof_C 	C 	0.94486	0.12482	0.2281	-0.099
Mof_H 	H 	0.9571	0.1324	0.2318	0.067
Mof_C 	C 	0.92686	0.12758	0.23907	0.062
Mof_H 	H 	0.9268	0.1376	0.2501	0.001
Mof_C 	C 	0.89774	0.03338	0.09533	0.099
Mof_C 	C 	0.86148	0.01321	0.16843	0.058
Mof_H 	H 	0.8506	0.0032	0.1671	0.001
Mof_C 	C 	0.8626	0.02462	0.18666	-0.095
Mof_H 	H 	0.8531	0.022	0.1978	0.064
Mof_C 	C 	0.87779	0.04007	0.18858	0.005
Mof_H 	H 	0.8784	0.0487	0.2007	0.039
Mof_C 	C 	0.8921	0.04249	0.17226	-0.044
Mof_C 	C 	0.89026	0.03001	0.15472	0.032
Mof_H 	H 	0.9002	0.0317	0.1438	0.018
Mof_C 	C 	0.90868	0.05877	0.17282	0.135
Mof_C 	C 	0.92567	0.08461	0.1897	0.134
Mof_C 	C 	0.93511	0.07589	0.15684	0.134
Mof_C 	C 	0.96232	0.09601	0.13822	0.04
Mof_H 	H 	0.9637	0.1042	0.1506	0.013
Mof_C 	C 	0.94779	0.07952	0.13815	-0.05
Mof_C 	C 	0.94589	0.06735	0.1204	0.01
Mof_H 	H 	0.936	0.0562	0.1197	0.038
Mof_C 	C 	0.95891	0.07192	0.10358	-0.099
Mof_H 	H 	0.9584	0.0636	0.0913	0.068
Mof_C 	C 	0.97254	0.0886	0.10489	0.062
Mof_H 	H 	0.9811	0.0916	0.0931	0.002
Mof_C 	C 	0.01763	0.08301	0.13862	0.064
Mof_H 	H 	0.007	0.0841	0.1489	0
Mof_C 	C 	0.0294	0.0654	0.13834	-0.102
Mof_H 	H 	0.0269	0.0545	0.1481	0.069
Mof_C 	C 	0.0453	0.0636	0.12333	0.01
Mof_H 	H 	0.0541	0.0516	0.1229	0.038
Mof_C 	C 	0.04783	0.07984	0.10924	-0.051
Mof_C 	C 	0.03502	0.09731	0.11085	0.043
Mof_H 	H 	0.037	0.1085	0.1013	0.012
Mof_C 	C 	0.06441	0.07908	0.09302	0.136
Mof_C 	C 	0.00059	0.12611	0.07478	0.109
Mof_N 	N 	0.90904	0.11692	0.23525	-0.222
Mof_N 	N 	0.88715	0.02446	0.10699	-0.26
Mof_N 	N 	0.87497	0.01551	0.15242	-0.223
Mof_N 	N 	0.9204	0.06091	0.15582	-0.15
Mof_N 	N 	0.91034	0.07025	0.19029	-0.149
Mof_N 	N 	0.93887	0.08763	0.17387	-0.15
Mof_N 	N 	0.97432	0.10075	0.12185	-0.228
Mof_N 	N 	0.99881	0.12676	0.09238	-0.263
Mof_N 	N 	0.02009	0.09897	0.12524	-0.228
Mof_N 	N 	0.07831	0.06397	0.09428	-0.151
Mof_S 	S 	0.91304	0.04463	0.07812	-0.058
Mof_S 	S 	0.00216	0.12346	0.04928	-0.061
Mof_C 	C 	0.84028	0.14742	0.71989	0.034
Mof_H 	H 	0.8524	0.1556	0.7173	0.015
Mof_C 	C 	0.82258	0.15086	0.7075	-0.045
Mof_C 	C 	0.80477	0.13928	0.71138	0.007
Mof_H 	H 	0.7926	0.1408	0.703	0.039
Mof_C 	C 	0.80514	0.12518	0.7281	-0.099
Mof_H 	H 	0.7929	0.1176	0.7318	0.067
Mof_C 	C 	0.82314	0.12242	0.73907	0.062
Mof_H 	H 	0.8232	0.1124	0.7501	0.001
Mof_C 	C 	0.85226	0.21662	0.59533	0.099
Mof_C 	C 	0.88852	0.23679	0.66843	0.058
Mof_H 	H 	0.8994	0.2468	0.6671	0.001
Mof_C 	C 	0.8874	0.22538	0.68666	-0.095
Mof_H 	H 	0.8969	0.228	0.6978	0.064
Mof_C 	C 	0.87221	0.20993	0.68858	0.005
Mof_H 	H 	0.8716	0.2013	0.7007	0.039
Mof_C 	C 	0.8579	0.20751	0.67226	-0.044
Mof_C 	C 	0.85974	0.21999	0.65472	0.032
Mof_H 	H 	0.8498	0.2183	0.6438	0.018
Mof_C 	C 	0.84132	0.19123	0.67282	0.135
Mof_C 	C 	0.82433	0.16539	0.6897	0.134
Mof_C 	C 	0.81489	0.17411	0.65684	0.134
Mof_C 	C 	0.78768	0.15399	0.63822	0.04
Mof_H 	H 	0.7863	0.1458	0.6506	0.013
Mof_C 	C 	0.80221	0.17048	0.63815	-0.05
Mof_C 	C 	0.80411	0.18265	0.6204	0.01
Mof_H 	H 	0.814	0.1938	0.6197	0.038
Mof_C 	C 	0.79109	0.17808	0.60358	-0.099
Mof_H 	H 	0.7916	0.1864	0.5913	0.068
Mof_C 	C 	0.77746	0.1614	0.60489	0.062
Mof_H 	H 	0.7689	0.1584	0.5931	0.002
Mof_C 	C 	0.73237	0.16699	0.63862	0.064
Mof_H 	H 	0.743	0.1659	0.6489	0
Mof_C 	C 	0.7206	0.1846	0.63834	-0.102
Mof_H 	H 	0.7231	0.1955	0.6481	0.069
Mof_C 	C 	0.7047	0.1864	0.62333	0.01
Mof_H 	H 	0.6959	0.1984	0.6229	0.038
Mof_C 	C 	0.70217	0.17016	0.60924	-0.051
Mof_C 	C 	0.71498	0.15269	0.61085	0.043
Mof_H 	H 	0.713	0.1415	0.6013	0.012
Mof_C 	C 	0.68559	0.17092	0.59302	0.136
Mof_C 	C 	0.74941	0.12389	0.57478	0.109
Mof_N 	N 	0.84096	0.13308	0.73525	-0.222
Mof_N 	N 	0.86285	0.22554	0.60699	-0.26
Mof_N 	N 	0.87503	0.23449	0.65242	-0.223
Mof_N 	N 	0.8296	0.18909	0.65582	-0.15
Mof_N 	N 	0.83966	0.17975	0.69029	-0.149
Mof_N 	N 	0.81113	0.16237	0.67387	-0.15
Mof_N 	N 	0.77568	0.14925	0.62185	-0.228
Mof_N 	N 	0.75119	0.12324	0.59238	-0.263
Mof_N 	N 	0.72991	0.15103	0.62524	-0.228
Mof_N 	N 	0.67169	0.18603	0.59428	-0.151
Mof_S 	S 	0.83696	0.20537	0.57812	-0.058
Mof_S 	S 	0.74784	0.12654	0.54928	-0.061
Mof_C 	C 	0.84028	0.64742	0.21989	0.034
Mof_H 	H 	0.8524	0.6556	0.2173	0.015
Mof_C 	C 	0.82258	0.65086	0.2075	-0.045
Mof_C 	C 	0.80477	0.63928	0.21138	0.007
Mof_H 	H 	0.7926	0.6408	0.203	0.039
Mof_C 	C 	0.80514	0.62518	0.2281	-0.099
Mof_H 	H 	0.7929	0.6176	0.2318	0.067
Mof_C 	C 	0.82314	0.62242	0.23907	0.062
Mof_H 	H 	0.8232	0.6124	0.2501	0.001
Mof_C 	C 	0.85226	0.71662	0.09533	0.099
Mof_C 	C 	0.88852	0.73679	0.16843	0.058
Mof_H 	H 	0.8994	0.7468	0.1671	0.001
Mof_C 	C 	0.8874	0.72538	0.18666	-0.095
Mof_H 	H 	0.8969	0.728	0.1978	0.064
Mof_C 	C 	0.87221	0.70993	0.18858	0.005
Mof_H 	H 	0.8716	0.7013	0.2007	0.039
Mof_C 	C 	0.8579	0.70751	0.17226	-0.044
Mof_C 	C 	0.85974	0.71999	0.15472	0.032
Mof_H 	H 	0.8498	0.7183	0.1438	0.018
Mof_C 	C 	0.84132	0.69123	0.17282	0.135
Mof_C 	C 	0.82433	0.66539	0.1897	0.134
Mof_C 	C 	0.81489	0.67411	0.15684	0.134
Mof_C 	C 	0.78768	0.65399	0.13822	0.04
Mof_H 	H 	0.7863	0.6458	0.1506	0.013
Mof_C 	C 	0.80221	0.67048	0.13815	-0.05
Mof_C 	C 	0.80411	0.68265	0.1204	0.01
Mof_H 	H 	0.814	0.6938	0.1197	0.038
Mof_C 	C 	0.79109	0.67808	0.10358	-0.099
Mof_H 	H 	0.7916	0.6864	0.0913	0.068
Mof_C 	C 	0.77746	0.6614	0.10489	0.062
Mof_H 	H 	0.7689	0.6584	0.0931	0.002
Mof_C 	C 	0.73237	0.66699	0.13862	0.064
Mof_H 	H 	0.743	0.6659	0.1489	0
Mof_C 	C 	0.7206	0.6846	0.13834	-0.102
Mof_H 	H 	0.7231	0.6955	0.1481	0.069
Mof_C 	C 	0.7047	0.6864	0.12333	0.01
Mof_H 	H 	0.6959	0.6984	0.1229	0.038
Mof_C 	C 	0.70217	0.67016	0.10924	-0.051
Mof_C 	C 	0.71498	0.65269	0.11085	0.043
Mof_H 	H 	0.713	0.6415	0.1013	0.012
Mof_C 	C 	0.68559	0.67092	0.09302	0.136
Mof_C 	C 	0.74941	0.62389	0.07478	0.109
Mof_N 	N 	0.84096	0.63308	0.23525	-0.222
Mof_N 	N 	0.86285	0.72554	0.10699	-0.26
Mof_N 	N 	0.87503	0.73449	0.15242	-0.223
Mof_N 	N 	0.8296	0.68909	0.15582	-0.15
Mof_N 	N 	0.83966	0.67975	0.19029	-0.149
Mof_N 	N 	0.81113	0.66237	0.17387	-0.15
Mof_N 	N 	0.77568	0.64925	0.12185	-0.228
Mof_N 	N 	0.75119	0.62324	0.09238	-0.263
Mof_N 	N 	0.72991	0.65103	0.12524	-0.228
Mof_N 	N 	0.67169	0.68603	0.09428	-0.151
Mof_S 	S 	0.83696	0.70537	0.07812	-0.058
Mof_S 	S 	0.74784	0.62654	0.04928	-0.061
Mof_C 	C 	0.34028	0.14742	0.21989	0.034
Mof_H 	H 	0.3524	0.1556	0.2173	0.015
Mof_C 	C 	0.32258	0.15086	0.2075	-0.045
Mof_C 	C 	0.30477	0.13928	0.21138	0.007
Mof_H 	H 	0.2926	0.1408	0.203	0.039
Mof_C 	C 	0.30514	0.12518	0.2281	-0.099
Mof_H 	H 	0.2929	0.1176	0.2318	0.067
Mof_C 	C 	0.32314	0.12242	0.23907	0.062
Mof_H 	H 	0.3232	0.1124	0.2501	0.001
Mof_C 	C 	0.35226	0.21662	0.09533	0.099
Mof_C 	C 	0.38852	0.23679	0.16843	0.058
Mof_H 	H 	0.3994	0.2468	0.1671	0.001
Mof_C 	C 	0.3874	0.22538	0.18666	-0.095
Mof_H 	H 	0.3969	0.228	0.1978	0.064
Mof_C 	C 	0.37221	0.20993	0.18858	0.005
Mof_H 	H 	0.3716	0.2013	0.2007	0.039
Mof_C 	C 	0.3579	0.20751	0.17226	-0.044
Mof_C 	C 	0.35974	0.21999	0.15472	0.032
Mof_H 	H 	0.3498	0.2183	0.1438	0.018
Mof_C 	C 	0.34132	0.19123	0.17282	0.135
Mof_C 	C 	0.32433	0.16539	0.1897	0.134
Mof_C 	C 	0.31489	0.17411	0.15684	0.134
Mof_C 	C 	0.28768	0.15399	0.13822	0.04
Mof_H 	H 	0.2863	0.1458	0.1506	0.013
Mof_C 	C 	0.30221	0.17048	0.13815	-0.05
Mof_C 	C 	0.30411	0.18265	0.1204	0.01
Mof_H 	H 	0.314	0.1938	0.1197	0.038
Mof_C 	C 	0.29109	0.17808	0.10358	-0.099
Mof_H 	H 	0.2916	0.1864	0.0913	0.068
Mof_C 	C 	0.27746	0.1614	0.10489	0.062
Mof_H 	H 	0.2689	0.1584	0.0931	0.002
Mof_C 	C 	0.23237	0.16699	0.13862	0.064
Mof_H 	H 	0.243	0.1659	0.1489	0
Mof_C 	C 	0.2206	0.1846	0.13834	-0.102
Mof_H 	H 	0.2231	0.1955	0.1481	0.069
Mof_C 	C 	0.2047	0.1864	0.12333	0.01
Mof_H 	H 	0.1959	0.1984	0.1229	0.038
Mof_C 	C 	0.20217	0.17016	0.10924	-0.051
Mof_C 	C 	0.21498	0.15269	0.11085	0.043
Mof_H 	H 	0.213	0.1415	0.1013	0.012
Mof_C 	C 	0.18559	0.17092	0.09302	0.136
Mof_C 	C 	0.24941	0.12389	0.07478	0.109
Mof_N 	N 	0.34096	0.13308	0.23525	-0.222
Mof_N 	N 	0.36285	0.22554	0.10699	-0.26
Mof_N 	N 	0.37503	0.23449	0.15242	-0.223
Mof_N 	N 	0.3296	0.18909	0.15582	-0.15
Mof_N 	N 	0.33966	0.17975	0.19029	-0.149
Mof_N 	N 	0.31113	0.16237	0.17387	-0.15
Mof_N 	N 	0.27568	0.14925	0.12185	-0.228
Mof_N 	N 	0.25119	0.12324	0.09238	-0.263
Mof_N 	N 	0.22991	0.15103	0.12524	-0.228
Mof_N 	N 	0.17169	0.18603	0.09428	-0.151
Mof_S 	S 	0.33696	0.20537	0.07812	-0.058
Mof_S 	S 	0.24784	0.12654	0.04928	-0.061
Mof_C 	C 	0.34028	0.64742	0.71989	0.034
Mof_H 	H 	0.3524	0.6556	0.7173	0.015
Mof_C 	C 	0.32258	0.65086	0.7075	-0.045
Mof_C 	C 	0.30477	0.63928	0.71138	0.007
Mof_H 	H 	0.2926	0.6408	0.703	0.039
Mof_C 	C 	0.30514	0.62518	0.7281	-0.099
Mof_H 	H 	0.2929	0.6176	0.7318	0.067
Mof_C 	C 	0.32314	0.62242	0.73907	0.062
Mof_H 	H 	0.3232	0.6124	0.7501	0.001
Mof_C 	C 	0.35226	0.71662	0.59533	0.099
Mof_C 	C 	0.38852	0.73679	0.66843	0.058
Mof_H 	H 	0.3994	0.7468	0.6671	0.001
Mof_C 	C 	0.3874	0.72538	0.68666	-0.095
Mof_H 	H 	0.3969	0.728	0.6978	0.064
Mof_C 	C 	0.37221	0.70993	0.68858	0.005
Mof_H 	H 	0.3716	0.7013	0.7007	0.039
Mof_C 	C 	0.3579	0.70751	0.67226	-0.044
Mof_C 	C 	0.35974	0.71999	0.65472	0.032
Mof_H 	H 	0.3498	0.7183	0.6438	0.018
Mof_C 	C 	0.34132	0.69123	0.67282	0.135
Mof_C 	C 	0.32433	0.66539	0.6897	0.134
Mof_C 	C 	0.31489	0.67411	0.65684	0.134
Mof_C 	C 	0.28768	0.65399	0.63822	0.04
Mof_H 	H 	0.2863	0.6458	0.6506	0.013
Mof_C 	C 	0.30221	0.67048	0.63815	-0.05
Mof_C 	C 	0.30411	0.68265	0.6204	0.01
Mof_H 	H 	0.314	0.6938	0.6197	0.038
Mof_C 	C 	0.29109	0.67808	0.60358	-0.099
Mof_H 	H 	0.2916	0.6864	0.5913	0.068
Mof_C 	C 	0.27746	0.6614	0.60489	0.062
Mof_H 	H 	0.2689	0.6584	0.5931	0.002
Mof_C 	C 	0.23237	0.66699	0.63862	0.064
Mof_H 	H 	0.243	0.6659	0.6489	0
Mof_C 	C 	0.2206	0.6846	0.63834	-0.102
Mof_H 	H 	0.2231	0.6955	0.6481	0.069
Mof_C 	C 	0.2047	0.6864	0.62333	0.01
Mof_H 	H 	0.1959	0.6984	0.6229	0.038
Mof_C 	C 	0.20217	0.67016	0.60924	-0.051
Mof_C 	C 	0.21498	0.65269	0.61085	0.043
Mof_H 	H 	0.213	0.6415	0.6013	0.012
Mof_C 	C 	0.18559	0.67092	0.59302	0.136
Mof_C 	C 	0.24941	0.62389	0.57478	0.109
Mof_N 	N 	0.34096	0.63308	0.73525	-0.222
Mof_N 	N 	0.36285	0.72554	0.60699	-0.26
Mof_N 	N 	0.37503	0.73449	0.65242	-0.223
Mof_N 	N 	0.3296	0.68909	0.65582	-0.15
Mof_N 	N 	0.33966	0.67975	0.69029	-0.149
Mof_N 	N 	0.31113	0.66237	0.67387	-0.15
Mof_N 	N 	0.27568	0.64925	0.62185	-0.228
Mof_N 	N 	0.25119	0.62324	0.59238	-0.263
Mof_N 	N 	0.22991	0.65103	0.62524	-0.228
Mof_N 	N 	0.17169	0.68603	0.59428	-0.151
Mof_S 	S 	0.33696	0.70537	0.57812	-0.058
Mof_S 	S 	0.24784	0.62654	0.54928	-0.061
Mof_C 	C 	0.34028	0.10258	0.03011	0.034
Mof_H 	H 	0.3524	0.0944	0.0327	0.015
Mof_C 	C 	0.32258	0.09914	0.0425	-0.045
Mof_C 	C 	0.30477	0.11072	0.03862	0.007
Mof_H 	H 	0.2926	0.1092	0.047	0.039
Mof_C 	C 	0.30514	0.12482	0.0219	-0.099
Mof_H 	H 	0.2929	0.1324	0.0182	0.067
Mof_C 	C 	0.32314	0.12758	0.01093	0.062
Mof_H 	H 	0.3232	0.1376	0.9999	0.001
Mof_C 	C 	0.35226	0.03338	0.15467	0.099
Mof_C 	C 	0.38852	0.01321	0.08157	0.058
Mof_H 	H 	0.3994	0.0032	0.0829	0.001
Mof_C 	C 	0.3874	0.02462	0.06334	-0.095
Mof_H 	H 	0.3969	0.022	0.0522	0.064
Mof_C 	C 	0.37221	0.04007	0.06142	0.005
Mof_H 	H 	0.3716	0.0487	0.0493	0.039
Mof_C 	C 	0.3579	0.04249	0.07774	-0.044
Mof_C 	C 	0.35974	0.03001	0.09528	0.032
Mof_H 	H 	0.3498	0.0317	0.1062	0.018
Mof_C 	C 	0.34132	0.05877	0.07718	0.135
Mof_C 	C 	0.32433	0.08461	0.0603	0.134
Mof_C 	C 	0.31489	0.07589	0.09316	0.134
Mof_C 	C 	0.28768	0.09601	0.11178	0.04
Mof_H 	H 	0.2863	0.1042	0.0994	0.013
Mof_C 	C 	0.30221	0.07952	0.11185	-0.05
Mof_C 	C 	0.30411	0.06735	0.1296	0.01
Mof_H 	H 	0.314	0.0562	0.1303	0.038
Mof_C 	C 	0.29109	0.07192	0.14642	-0.099
Mof_H 	H 	0.2916	0.0636	0.1587	0.068
Mof_C 	C 	0.27746	0.0886	0.14511	0.062
Mof_H 	H 	0.2689	0.0916	0.1569	0.002
Mof_C 	C 	0.23237	0.08301	0.11138	0.064
Mof_H 	H 	0.243	0.0841	0.1011	0
Mof_C 	C 	0.2206	0.0654	0.11166	-0.102
Mof_H 	H 	0.2231	0.0545	0.1019	0.069
Mof_C 	C 	0.2047	0.0636	0.12667	0.01
Mof_H 	H 	0.1959	0.0516	0.1271	0.038
Mof_C 	C 	0.20217	0.07984	0.14076	-0.051
Mof_C 	C 	0.21498	0.09731	0.13915	0.043
Mof_H 	H 	0.213	0.1085	0.1487	0.012
Mof_C 	C 	0.18559	0.07908	0.15698	0.136
Mof_C 	C 	0.24941	0.12611	0.17522	0.109
Mof_N 	N 	0.34096	0.11692	0.01475	-0.222
Mof_N 	N 	0.36285	0.02446	0.14301	-0.26
Mof_N 	N 	0.37503	0.01551	0.09758	-0.223
Mof_N 	N 	0.3296	0.06091	0.09418	-0.15
Mof_N 	N 	0.33966	0.07025	0.05971	-0.149
Mof_N 	N 	0.31113	0.08763	0.07613	-0.15
Mof_N 	N 	0.27568	0.10075	0.12815	-0.228
Mof_N 	N 	0.25119	0.12676	0.15762	-0.263
Mof_N 	N 	0.22991	0.09897	0.12476	-0.228
Mof_N 	N 	0.17169	0.06397	0.15572	-0.151
Mof_S 	S 	0.33696	0.04463	0.17188	-0.058
Mof_S 	S 	0.24784	0.12346	0.20072	-0.061
Mof_C 	C 	0.34028	0.60258	0.53011	0.034
Mof_H 	H 	0.3524	0.5944	0.5327	0.015
Mof_C 	C 	0.32258	0.59914	0.5425	-0.045
Mof_C 	C 	0.30477	0.61072	0.53862	0.007
Mof_H 	H 	0.2926	0.6092	0.547	0.039
Mof_C 	C 	0.30514	0.62482	0.5219	-0.099
Mof_H 	H 	0.2929	0.6324	0.5182	0.067
Mof_C 	C 	0.32314	0.62758	0.51093	0.062
Mof_H 	H 	0.3232	0.6376	0.4999	0.001
Mof_C 	C 	0.35226	0.53338	0.65467	0.099
Mof_C 	C 	0.38852	0.51321	0.58157	0.058
Mof_H 	H 	0.3994	0.5032	0.5829	0.001
Mof_C 	C 	0.3874	0.52462	0.56334	-0.095
Mof_H 	H 	0.3969	0.522	0.5522	0.064
Mof_C 	C 	0.37221	0.54007	0.56142	0.005
Mof_H 	H 	0.3716	0.5487	0.5493	0.039
Mof_C 	C 	0.3579	0.54249	0.57774	-0.044
Mof_C 	C 	0.35974	0.53001	0.59528	0.032
Mof_H 	H 	0.3498	0.5317	0.6062	0.018
Mof_C 	C 	0.34132	0.55877	0.57718	0.135
Mof_C 	C 	0.32433	0.58461	0.5603	0.134
Mof_C 	C 	0.31489	0.57589	0.59316	0.134
Mof_C 	C 	0.28768	0.59601	0.61178	0.04
Mof_H 	H 	0.2863	0.6042	0.5994	0.013
Mof_C 	C 	0.30221	0.57952	0.61185	-0.05
Mof_C 	C 	0.30411	0.56735	0.6296	0.01
Mof_H 	H 	0.314	0.5562	0.6303	0.038
Mof_C 	C 	0.29109	0.57192	0.64642	-0.099
Mof_H 	H 	0.2916	0.5636	0.6587	0.068
Mof_C 	C 	0.27746	0.5886	0.64511	0.062
Mof_H 	H 	0.2689	0.5916	0.6569	0.002
Mof_C 	C 	0.23237	0.58301	0.61138	0.064
Mof_H 	H 	0.243	0.5841	0.6011	0
Mof_C 	C 	0.2206	0.5654	0.61166	-0.102
Mof_H 	H 	0.2231	0.5545	0.6019	0.069
Mof_C 	C 	0.2047	0.5636	0.62667	0.01
Mof_H 	H 	0.1959	0.5516	0.6271	0.038
Mof_C 	C 	0.20217	0.57984	0.64076	-0.051
Mof_C 	C 	0.21498	0.59731	0.63915	0.043
Mof_H 	H 	0.213	0.6085	0.6487	0.012
Mof_C 	C 	0.18559	0.57908	0.65698	0.136
Mof_C 	C 	0.24941	0.62611	0.67522	0.109
Mof_N 	N 	0.34096	0.61692	0.51475	-0.222
Mof_N 	N 	0.36285	0.52446	0.64301	-0.26
Mof_N 	N 	0.37503	0.51551	0.59758	-0.223
Mof_N 	N 	0.3296	0.56091	0.59418	-0.15
Mof_N 	N 	0.33966	0.57025	0.55971	-0.149
Mof_N 	N 	0.31113	0.58763	0.57613	-0.15
Mof_N 	N 	0.27568	0.60075	0.62815	-0.228
Mof_N 	N 	0.25119	0.62676	0.65762	-0.263
Mof_N 	N 	0.22991	0.59897	0.62476	-0.228
Mof_N 	N 	0.17169	0.56397	0.65572	-0.151
Mof_S 	S 	0.33696	0.54463	0.67188	-0.058
Mof_S 	S 	0.24784	0.62346	0.70072	-0.061
Mof_C 	C 	0.84028	0.10258	0.53011	0.034
Mof_H 	H 	0.8524	0.0944	0.5327	0.015
Mof_C 	C 	0.82258	0.09914	0.5425	-0.045
Mof_C 	C 	0.80477	0.11072	0.53862	0.007
Mof_H 	H 	0.7926	0.1092	0.547	0.039
Mof_C 	C 	0.80514	0.12482	0.5219	-0.099
Mof_H 	H 	0.7929	0.1324	0.5182	0.067
Mof_C 	C 	0.82314	0.12758	0.51093	0.062
Mof_H 	H 	0.8232	0.1376	0.4999	0.001
Mof_C 	C 	0.85226	0.03338	0.65467	0.099
Mof_C 	C 	0.88852	0.01321	0.58157	0.058
Mof_H 	H 	0.8994	0.0032	0.5829	0.001
Mof_C 	C 	0.8874	0.02462	0.56334	-0.095
Mof_H 	H 	0.8969	0.022	0.5522	0.064
Mof_C 	C 	0.87221	0.04007	0.56142	0.005
Mof_H 	H 	0.8716	0.0487	0.5493	0.039
Mof_C 	C 	0.8579	0.04249	0.57774	-0.044
Mof_C 	C 	0.85974	0.03001	0.59528	0.032
Mof_H 	H 	0.8498	0.0317	0.6062	0.018
Mof_C 	C 	0.84132	0.05877	0.57718	0.135
Mof_C 	C 	0.82433	0.08461	0.5603	0.134
Mof_C 	C 	0.81489	0.07589	0.59316	0.134
Mof_C 	C 	0.78768	0.09601	0.61178	0.04
Mof_H 	H 	0.7863	0.1042	0.5994	0.013
Mof_C 	C 	0.80221	0.07952	0.61185	-0.05
Mof_C 	C 	0.80411	0.06735	0.6296	0.01
Mof_H 	H 	0.814	0.0562	0.6303	0.038
Mof_C 	C 	0.79109	0.07192	0.64642	-0.099
Mof_H 	H 	0.7916	0.0636	0.6587	0.068
Mof_C 	C 	0.77746	0.0886	0.64511	0.062
Mof_H 	H 	0.7689	0.0916	0.6569	0.002
Mof_C 	C 	0.73237	0.08301	0.61138	0.064
Mof_H 	H 	0.743	0.0841	0.6011	0
Mof_C 	C 	0.7206	0.0654	0.61166	-0.102
Mof_H 	H 	0.7231	0.0545	0.6019	0.069
Mof_C 	C 	0.7047	0.0636	0.62667	0.01
Mof_H 	H 	0.6959	0.0516	0.6271	0.038
Mof_C 	C 	0.70217	0.07984	0.64076	-0.051
Mof_C 	C 	0.71498	0.09731	0.63915	0.043
Mof_H 	H 	0.713	0.1085	0.6487	0.012
Mof_C 	C 	0.68559	0.07908	0.65698	0.136
Mof_C 	C 	0.74941	0.12611	0.67522	0.109
Mof_N 	N 	0.84096	0.11692	0.51475	-0.222
Mof_N 	N 	0.86285	0.02446	0.64301	-0.26
Mof_N 	N 	0.87503	0.01551	0.59758	-0.223
Mof_N 	N 	0.8296	0.06091	0.59418	-0.15
Mof_N 	N 	0.83966	0.07025	0.55971	-0.149
Mof_N 	N 	0.81113	0.08763	0.57613	-0.15
Mof_N 	N 	0.77568	0.10075	0.62815	-0.228
Mof_N 	N 	0.75119	0.12676	0.65762	-0.263
Mof_N 	N 	0.72991	0.09897	0.62476	-0.228
Mof_N 	N 	0.67169	0.06397	0.65572	-0.151
Mof_S 	S 	0.83696	0.04463	0.67188	-0.058
Mof_S 	S 	0.74784	0.12346	0.70072	-0.061
Mof_C 	C 	0.84028	0.60258	0.03011	0.034
Mof_H 	H 	0.8524	0.5944	0.0327	0.015
Mof_C 	C 	0.82258	0.59914	0.0425	-0.045
Mof_C 	C 	0.80477	0.61072	0.03862	0.007
Mof_H 	H 	0.7926	0.6092	0.047	0.039
Mof_C 	C 	0.80514	0.62482	0.0219	-0.099
Mof_H 	H 	0.7929	0.6324	0.0182	0.066
Mof_C 	C 	0.82314	0.62758	0.01093	0.061
Mof_H 	H 	0.8232	0.6376	0.9999	-0
Mof_C 	C 	0.85226	0.53338	0.15467	0.098
Mof_C 	C 	0.88852	0.51321	0.08157	0.057
Mof_H 	H 	0.8994	0.5032	0.0829	-0
Mof_C 	C 	0.8874	0.52462	0.06334	-0.096
Mof_H 	H 	0.8969	0.522	0.0522	0.063
Mof_C 	C 	0.87221	0.54007	0.06142	0.004
Mof_H 	H 	0.8716	0.5487	0.0493	0.038
Mof_C 	C 	0.8579	0.54249	0.07774	-0.045
Mof_C 	C 	0.85974	0.53001	0.09528	0.031
Mof_H 	H 	0.8498	0.5317	0.1062	0.017
Mof_C 	C 	0.84132	0.55877	0.07718	0.134
Mof_C 	C 	0.82433	0.58461	0.0603	0.133
Mof_C 	C 	0.81489	0.57589	0.09316	0.133
Mof_C 	C 	0.78768	0.59601	0.11178	0.039
Mof_H 	H 	0.7863	0.6042	0.0994	0.012
Mof_C 	C 	0.80221	0.57952	0.11185	-0.051
Mof_C 	C 	0.80411	0.56735	0.1296	0.009
Mof_H 	H 	0.814	0.5562	0.1303	0.037
Mof_C 	C 	0.79109	0.57192	0.14642	-0.1
Mof_H 	H 	0.7916	0.5636	0.1587	0.067
Mof_C 	C 	0.77746	0.5886	0.14511	0.061
Mof_H 	H 	0.7689	0.5916	0.1569	0.001
Mof_C 	C 	0.73237	0.58301	0.11138	0.063
Mof_H 	H 	0.743	0.5841	0.1011	-0.001
Mof_C 	C 	0.7206	0.5654	0.11166	-0.103
Mof_H 	H 	0.7231	0.5545	0.1019	0.068
Mof_C 	C 	0.7047	0.5636	0.12667	0.009
Mof_H 	H 	0.6959	0.5516	0.1271	0.037
Mof_C 	C 	0.70217	0.57984	0.14076	-0.052
Mof_C 	C 	0.71498	0.59731	0.13915	0.042
Mof_H 	H 	0.713	0.6085	0.1487	0.011
Mof_C 	C 	0.68559	0.57908	0.15698	0.135
Mof_C 	C 	0.74941	0.62611	0.17522	0.108
Mof_N 	N 	0.84096	0.61692	0.01475	-0.223
Mof_N 	N 	0.86285	0.52446	0.14301	-0.261
Mof_N 	N 	0.87503	0.51551	0.09758	-0.224
Mof_N 	N 	0.8296	0.56091	0.09418	-0.151
Mof_N 	N 	0.83966	0.57025	0.05971	-0.15
Mof_N 	N 	0.81113	0.58763	0.07613	-0.151
Mof_N 	N 	0.77568	0.60075	0.12815	-0.229
Mof_N 	N 	0.75119	0.62676	0.15762	-0.264
Mof_N 	N 	0.72991	0.59897	0.12476	-0.229
Mof_N 	N 	0.67169	0.56397	0.15572	-0.152
Mof_S 	S 	0.83696	0.54463	0.17188	-0.059
Mof_S 	S 	0.74784	0.62346	0.20072	-0.062
Mof_C 	C 	0.90972	0.64742	0.53011	0.033
Mof_H 	H 	0.8976	0.6556	0.5327	0.014
Mof_C 	C 	0.92742	0.65086	0.5425	-0.046
Mof_C 	C 	0.94523	0.63928	0.53862	0.006
Mof_H 	H 	0.9574	0.6408	0.547	0.038
Mof_C 	C 	0.94486	0.62518	0.5219	-0.1
Mof_H 	H 	0.9571	0.6176	0.5182	0.066
Mof_C 	C 	0.92686	0.62242	0.51093	0.061
Mof_H 	H 	0.9268	0.6124	0.4999	-0
Mof_C 	C 	0.89774	0.71662	0.65467	0.098
Mof_C 	C 	0.86148	0.73679	0.58157	0.057
Mof_H 	H 	0.8506	0.7468	0.5829	-0
Mof_C 	C 	0.8626	0.72538	0.56334	-0.096
Mof_H 	H 	0.8531	0.728	0.5522	0.063
Mof_C 	C 	0.87779	0.70993	0.56142	0.004
Mof_H 	H 	0.8784	0.7013	0.5493	0.038
Mof_C 	C 	0.8921	0.70751	0.57774	-0.045
Mof_C 	C 	0.89026	0.71999	0.59528	0.031
Mof_H 	H 	0.9002	0.7183	0.6062	0.017
Mof_C 	C 	0.90868	0.69123	0.57718	0.134
Mof_C 	C 	0.92567	0.66539	0.5603	0.133
Mof_C 	C 	0.93511	0.67411	0.59316	0.133
Mof_C 	C 	0.96232	0.65399	0.61178	0.039
Mof_H 	H 	0.9637	0.6458	0.5994	0.012
Mof_C 	C 	0.94779	0.67048	0.61185	-0.051
Mof_C 	C 	0.94589	0.68265	0.6296	0.009
Mof_H 	H 	0.936	0.6938	0.6303	0.037
Mof_C 	C 	0.95891	0.67808	0.64642	-0.1
Mof_H 	H 	0.9584	0.6864	0.6587	0.067
Mof_C 	C 	0.97254	0.6614	0.64511	0.061
Mof_H 	H 	0.9811	0.6584	0.6569	0.001
Mof_C 	C 	0.01763	0.66699	0.61138	0.063
Mof_H 	H 	0.007	0.6659	0.6011	-0.001
Mof_C 	C 	0.0294	0.6846	0.61166	-0.103
Mof_H 	H 	0.0269	0.6955	0.6019	0.068
Mof_C 	C 	0.0453	0.6864	0.62667	0.009
Mof_H 	H 	0.0541	0.6984	0.6271	0.037
Mof_C 	C 	0.04783	0.67016	0.64076	-0.052
Mof_C 	C 	0.03502	0.65269	0.63915	0.042
Mof_H 	H 	0.037	0.6415	0.6487	0.011
Mof_C 	C 	0.06441	0.67092	0.65698	0.135
Mof_C 	C 	0.00059	0.62389	0.67522	0.108
Mof_N 	N 	0.90904	0.63308	0.51475	-0.223
Mof_N 	N 	0.88715	0.72554	0.64301	-0.261
Mof_N 	N 	0.87497	0.73449	0.59758	-0.224
Mof_N 	N 	0.9204	0.68909	0.59418	-0.151
Mof_N 	N 	0.91034	0.67975	0.55971	-0.15
Mof_N 	N 	0.93887	0.66237	0.57613	-0.151
Mof_N 	N 	0.97432	0.64925	0.62815	-0.229
Mof_N 	N 	0.99881	0.62324	0.65762	-0.264
Mof_N 	N 	0.02009	0.65103	0.62476	-0.229
Mof_N 	N 	0.07831	0.68603	0.65572	-0.152
Mof_S 	S 	0.91304	0.70537	0.67188	-0.059
Mof_S 	S 	0.00216	0.62654	0.70072	-0.062
Mof_C 	C 	0.90972	0.14742	0.03011	0.033
Mof_H 	H 	0.8976	0.1556	0.0327	0.014
Mof_C 	C 	0.92742	0.15086	0.0425	-0.046
Mof_C 	C 	0.94523	0.13928	0.03862	0.006
Mof_H 	H 	0.9574	0.1408	0.047	0.038
Mof_C 	C 	0.94486	0.12518	0.0219	-0.1
Mof_H 	H 	0.9571	0.1176	0.0182	0.066
Mof_C 	C 	0.92686	0.12242	0.01093	0.061
Mof_H 	H 	0.9268	0.1124	0.9999	-0
Mof_C 	C 	0.89774	0.21662	0.15467	0.098
Mof_C 	C 	0.86148	0.23679	0.08157	0.057
Mof_H 	H 	0.8506	0.2468	0.0829	-0
Mof_C 	C 	0.8626	0.22538	0.06334	-0.096
Mof_H 	H 	0.8531	0.228	0.0522	0.063
Mof_C 	C 	0.87779	0.20993	0.06142	0.004
Mof_H 	H 	0.8784	0.2013	0.0493	0.038
Mof_C 	C 	0.8921	0.20751	0.07774	-0.045
Mof_C 	C 	0.89026	0.21999	0.09528	0.031
Mof_H 	H 	0.9002	0.2183	0.1062	0.017
Mof_C 	C 	0.90868	0.19123	0.07718	0.134
Mof_C 	C 	0.92567	0.16539	0.0603	0.133
Mof_C 	C 	0.93511	0.17411	0.09316	0.133
Mof_C 	C 	0.96232	0.15399	0.11178	0.039
Mof_H 	H 	0.9637	0.1458	0.0994	0.012
Mof_C 	C 	0.94779	0.17048	0.11185	-0.051
Mof_C 	C 	0.94589	0.18265	0.1296	0.009
Mof_H 	H 	0.936	0.1938	0.1303	0.037
Mof_C 	C 	0.95891	0.17808	0.14642	-0.1
Mof_H 	H 	0.9584	0.1864	0.1587	0.067
Mof_C 	C 	0.97254	0.1614	0.14511	0.061
Mof_H 	H 	0.9811	0.1584	0.1569	0.001
Mof_C 	C 	0.01763	0.16699	0.11138	0.063
Mof_H 	H 	0.007	0.1659	0.1011	-0.001
Mof_C 	C 	0.0294	0.1846	0.11166	-0.103
Mof_H 	H 	0.0269	0.1955	0.1019	0.068
Mof_C 	C 	0.0453	0.1864	0.12667	0.009
Mof_H 	H 	0.0541	0.1984	0.1271	0.037
Mof_C 	C 	0.04783	0.17016	0.14076	-0.052
Mof_C 	C 	0.03502	0.15269	0.13915	0.042
Mof_H 	H 	0.037	0.1415	0.1487	0.011
Mof_C 	C 	0.06441	0.17092	0.15698	0.135
Mof_C 	C 	0.00059	0.12389	0.17522	0.108
Mof_N 	N 	0.90904	0.13308	0.01475	-0.223
Mof_N 	N 	0.88715	0.22554	0.14301	-0.261
Mof_N 	N 	0.87497	0.23449	0.09758	-0.224
Mof_N 	N 	0.9204	0.18909	0.09418	-0.151
Mof_N 	N 	0.91034	0.17975	0.05971	-0.15
Mof_N 	N 	0.93887	0.16237	0.07613	-0.151
Mof_N 	N 	0.97432	0.14925	0.12815	-0.229
Mof_N 	N 	0.99881	0.12324	0.15762	-0.264
Mof_N 	N 	0.02009	0.15103	0.12476	-0.229
Mof_N 	N 	0.07831	0.18603	0.15572	-0.152
Mof_S 	S 	0.91304	0.20537	0.17188	-0.059
Mof_S 	S 	0.00216	0.12654	0.20072	-0.062
Mof_C 	C 	0.40972	0.64742	0.03011	0.033
Mof_H 	H 	0.3976	0.6556	0.0327	0.014
Mof_C 	C 	0.42742	0.65086	0.0425	-0.046
Mof_C 	C 	0.44523	0.63928	0.03862	0.006
Mof_H 	H 	0.4574	0.6408	0.047	0.038
Mof_C 	C 	0.44486	0.62518	0.0219	-0.1
Mof_H 	H 	0.4571	0.6176	0.0182	0.066
Mof_C 	C 	0.42686	0.62242	0.01093	0.061
Mof_H 	H 	0.4268	0.6124	0.9999	-0
Mof_C 	C 	0.39774	0.71662	0.15467	0.098
Mof_C 	C 	0.36148	0.73679	0.08157	0.057
Mof_H 	H 	0.3506	0.7468	0.0829	-0
Mof_C 	C 	0.3626	0.72538	0.06334	-0.096
Mof_H 	H 	0.3531	0.728	0.0522	0.063
Mof_C 	C 	0.37779	0.70993	0.06142	0.004
Mof_H 	H 	0.3784	0.7013	0.0493	0.038
Mof_C 	C 	0.3921	0.70751	0.07774	-0.045
Mof_C 	C 	0.39026	0.71999	0.09528	0.031
Mof_H 	H 	0.4002	0.7183	0.1062	0.017
Mof_C 	C 	0.40868	0.69123	0.07718	0.134
Mof_C 	C 	0.42567	0.66539	0.0603	0.133
Mof_C 	C 	0.43511	0.67411	0.09316	0.133
Mof_C 	C 	0.46232	0.65399	0.11178	0.039
Mof_H 	H 	0.4637	0.6458	0.0994	0.012
Mof_C 	C 	0.44779	0.67048	0.11185	-0.051
Mof_C 	C 	0.44589	0.68265	0.1296	0.009
Mof_H 	H 	0.436	0.6938	0.1303	0.037
Mof_C 	C 	0.45891	0.67808	0.14642	-0.1
Mof_H 	H 	0.4584	0.6864	0.1587	0.067
Mof_C 	C 	0.47254	0.6614	0.14511	0.061
Mof_H 	H 	0.4811	0.6584	0.1569	0.001
Mof_C 	C 	0.51763	0.66699	0.11138	0.063
Mof_H 	H 	0.507	0.6659	0.1011	-0.001
Mof_C 	C 	0.5294	0.6846	0.11166	-0.103
Mof_H 	H 	0.5269	0.6955	0.1019	0.068
Mof_C 	C 	0.5453	0.6864	0.12667	0.009
Mof_H 	H 	0.5541	0.6984	0.1271	0.037
Mof_C 	C 	0.54783	0.67016	0.14076	-0.052
Mof_C 	C 	0.53502	0.65269	0.13915	0.042
Mof_H 	H 	0.537	0.6415	0.1487	0.011
Mof_C 	C 	0.56441	0.67092	0.15698	0.135
Mof_C 	C 	0.50059	0.62389	0.17522	0.108
Mof_N 	N 	0.40904	0.63308	0.01475	-0.223
Mof_N 	N 	0.38715	0.72554	0.14301	-0.261
Mof_N 	N 	0.37497	0.73449	0.09758	-0.224
Mof_N 	N 	0.4204	0.68909	0.09418	-0.151
Mof_N 	N 	0.41034	0.67975	0.05971	-0.15
Mof_N 	N 	0.43887	0.66237	0.07613	-0.151
Mof_N 	N 	0.47432	0.64925	0.12815	-0.229
Mof_N 	N 	0.49881	0.62324	0.15762	-0.264
Mof_N 	N 	0.52009	0.65103	0.12476	-0.229
Mof_N 	N 	0.57831	0.68603	0.15572	-0.152
Mof_S 	S 	0.41304	0.70537	0.17188	-0.059
Mof_S 	S 	0.50216	0.62654	0.20072	-0.062
Mof_C 	C 	0.40972	0.14742	0.53011	0.033
Mof_H 	H 	0.3976	0.1556	0.5327	0.014
Mof_C 	C 	0.42742	0.15086	0.5425	-0.046
Mof_C 	C 	0.44523	0.13928	0.53862	0.006
Mof_H 	H 	0.4574	0.1408	0.547	0.038
Mof_C 	C 	0.44486	0.12518	0.5219	-0.1
Mof_H 	H 	0.4571	0.1176	0.5182	0.066
Mof_C 	C 	0.42686	0.12242	0.51093	0.061
Mof_H 	H 	0.4268	0.1124	0.4999	-0
Mof_C 	C 	0.39774	0.21662	0.65467	0.098
Mof_C 	C 	0.36148	0.23679	0.58157	0.057
Mof_H 	H 	0.3506	0.2468	0.5829	-0
Mof_C 	C 	0.3626	0.22538	0.56334	-0.096
Mof_H 	H 	0.3531	0.228	0.5522	0.063
Mof_C 	C 	0.37779	0.20993	0.56142	0.004
Mof_H 	H 	0.3784	0.2013	0.5493	0.038
Mof_C 	C 	0.3921	0.20751	0.57774	-0.045
Mof_C 	C 	0.39026	0.21999	0.59528	0.031
Mof_H 	H 	0.4002	0.2183	0.6062	0.017
Mof_C 	C 	0.40868	0.19123	0.57718	0.134
Mof_C 	C 	0.42567	0.16539	0.5603	0.133
Mof_C 	C 	0.43511	0.17411	0.59316	0.133
Mof_C 	C 	0.46232	0.15399	0.61178	0.039
Mof_H 	H 	0.4637	0.1458	0.5994	0.012
Mof_C 	C 	0.44779	0.17048	0.61185	-0.051
Mof_C 	C 	0.44589	0.18265	0.6296	0.009
Mof_H 	H 	0.436	0.1938	0.6303	0.037
Mof_C 	C 	0.45891	0.17808	0.64642	-0.1
Mof_H 	H 	0.4584	0.1864	0.6587	0.067
Mof_C 	C 	0.47254	0.1614	0.64511	0.061
Mof_H 	H 	0.4811	0.1584	0.6569	0.001
Mof_C 	C 	0.51763	0.16699	0.61138	0.063
Mof_H 	H 	0.507	0.1659	0.6011	-0.001
Mof_C 	C 	0.5294	0.1846	0.61166	-0.103
Mof_H 	H 	0.5269	0.1955	0.6019	0.068
Mof_C 	C 	0.5453	0.1864	0.62667	0.009
Mof_H 	H 	0.5541	0.1984	0.6271	0.037
Mof_C 	C 	0.54783	0.17016	0.64076	-0.052
Mof_C 	C 	0.53502	0.15269	0.63915	0.042
Mof_H 	H 	0.537	0.1415	0.6487	0.011
Mof_C 	C 	0.56441	0.17092	0.65698	0.135
Mof_C 	C 	0.50059	0.12389	0.67522	0.108
Mof_N 	N 	0.40904	0.13308	0.51475	-0.223
Mof_N 	N 	0.38715	0.22554	0.64301	-0.261
Mof_N 	N 	0.37497	0.23449	0.59758	-0.224
Mof_N 	N 	0.4204	0.18909	0.59418	-0.151
Mof_N 	N 	0.41034	0.17975	0.55971	-0.15
Mof_N 	N 	0.43887	0.16237	0.57613	-0.151
Mof_N 	N 	0.47432	0.14925	0.62815	-0.229
Mof_N 	N 	0.49881	0.12324	0.65762	-0.264
Mof_N 	N 	0.52009	0.15103	0.62476	-0.229
Mof_N 	N 	0.57831	0.18603	0.65572	-0.152
Mof_S 	S 	0.41304	0.20537	0.67188	-0.059
Mof_S 	S 	0.50216	0.12654	0.70072	-0.062
Mof_C 	C 	0.21989	0.40972	0.60258	0.033
Mof_H 	H 	0.2173	0.3976	0.5944	0.014
Mof_C 	C 	0.2075	0.42742	0.59914	-0.046
Mof_C 	C 	0.21138	0.44523	0.61072	0.006
Mof_H 	H 	0.203	0.4574	0.6092	0.038
Mof_C 	C 	0.2281	0.44486	0.62482	-0.1
Mof_H 	H 	0.2318	0.4571	0.6324	0.066
Mof_C 	C 	0.23907	0.42686	0.62758	0.061
Mof_H 	H 	0.2501	0.4268	0.6376	-0
Mof_C 	C 	0.09533	0.39774	0.53338	0.098
Mof_C 	C 	0.16843	0.36148	0.51321	0.057
Mof_H 	H 	0.1671	0.3506	0.5032	-0
Mof_C 	C 	0.18666	0.3626	0.52462	-0.096
Mof_H 	H 	0.1978	0.3531	0.522	0.063
Mof_C 	C 	0.18858	0.37779	0.54007	0.004
Mof_H 	H 	0.2007	0.3784	0.5487	0.038
Mof_C 	C 	0.17226	0.3921	0.54249	-0.045
Mof_C 	C 	0.15472	0.39026	0.53001	0.031
Mof_H 	H 	0.1438	0.4002	0.5317	0.017
Mof_C 	C 	0.17282	0.40868	0.55877	0.134
Mof_C 	C 	0.1897	0.42567	0.58461	0.133
Mof_C 	C 	0.15684	0.43511	0.57589	0.133
Mof_C 	C 	0.13822	0.46232	0.59601	0.039
Mof_H 	H 	0.1506	0.4637	0.6042	0.012
Mof_C 	C 	0.13815	0.44779	0.57952	-0.051
Mof_C 	C 	0.1204	0.44589	0.56735	0.009
Mof_H 	H 	0.1197	0.436	0.5562	0.037
Mof_C 	C 	0.10358	0.45891	0.57192	-0.1
Mof_H 	H 	0.0913	0.4584	0.5636	0.067
Mof_C 	C 	0.10489	0.47254	0.5886	0.061
Mof_H 	H 	0.0931	0.4811	0.5916	0.001
Mof_C 	C 	0.13862	0.51763	0.58301	0.063
Mof_H 	H 	0.1489	0.507	0.5841	-0.001
Mof_C 	C 	0.13834	0.5294	0.5654	-0.103
Mof_H 	H 	0.1481	0.5269	0.5545	0.068
Mof_C 	C 	0.12333	0.5453	0.5636	0.009
Mof_H 	H 	0.1229	0.5541	0.5516	0.037
Mof_C 	C 	0.10924	0.54783	0.57984	-0.052
Mof_C 	C 	0.11085	0.53502	0.59731	0.042
Mof_H 	H 	0.1013	0.537	0.6085	0.011
Mof_C 	C 	0.09302	0.56441	0.57908	0.135
Mof_C 	C 	0.07478	0.50059	0.62611	0.108
Mof_N 	N 	0.23525	0.40904	0.61692	-0.223
Mof_N 	N 	0.10699	0.38715	0.52446	-0.261
Mof_N 	N 	0.15242	0.37497	0.51551	-0.224
Mof_N 	N 	0.15582	0.4204	0.56091	-0.151
Mof_N 	N 	0.19029	0.41034	0.57025	-0.15
Mof_N 	N 	0.17387	0.43887	0.58763	-0.151
Mof_N 	N 	0.12185	0.47432	0.60075	-0.229
Mof_N 	N 	0.09238	0.49881	0.62676	-0.264
Mof_N 	N 	0.12524	0.52009	0.59897	-0.229
Mof_N 	N 	0.09428	0.57831	0.56397	-0.152
Mof_S 	S 	0.07812	0.41304	0.54463	-0.059
Mof_S 	S 	0.04928	0.50216	0.62346	-0.062
Mof_C 	C 	0.21989	0.90972	0.10258	0.033
Mof_H 	H 	0.2173	0.8976	0.0944	0.014
Mof_C 	C 	0.2075	0.92742	0.09914	-0.046
Mof_C 	C 	0.21138	0.94523	0.11072	0.006
Mof_H 	H 	0.203	0.9574	0.1092	0.038
Mof_C 	C 	0.2281	0.94486	0.12482	-0.1
Mof_H 	H 	0.2318	0.9571	0.1324	0.066
Mof_C 	C 	0.23907	0.92686	0.12758	0.061
Mof_H 	H 	0.2501	0.9268	0.1376	-0
Mof_C 	C 	0.09533	0.89774	0.03338	0.098
Mof_C 	C 	0.16843	0.86148	0.01321	0.057
Mof_H 	H 	0.1671	0.8506	0.0032	-0
Mof_C 	C 	0.18666	0.8626	0.02462	-0.096
Mof_H 	H 	0.1978	0.8531	0.022	0.063
Mof_C 	C 	0.18858	0.87779	0.04007	0.004
Mof_H 	H 	0.2007	0.8784	0.0487	0.038
Mof_C 	C 	0.17226	0.8921	0.04249	-0.045
Mof_C 	C 	0.15472	0.89026	0.03001	0.031
Mof_H 	H 	0.1438	0.9002	0.0317	0.017
Mof_C 	C 	0.17282	0.90868	0.05877	0.134
Mof_C 	C 	0.1897	0.92567	0.08461	0.133
Mof_C 	C 	0.15684	0.93511	0.07589	0.133
Mof_C 	C 	0.13822	0.96232	0.09601	0.039
Mof_H 	H 	0.1506	0.9637	0.1042	0.012
Mof_C 	C 	0.13815	0.94779	0.07952	-0.051
Mof_C 	C 	0.1204	0.94589	0.06735	0.009
Mof_H 	H 	0.1197	0.936	0.0562	0.037
Mof_C 	C 	0.10358	0.95891	0.07192	-0.1
Mof_H 	H 	0.0913	0.9584	0.0636	0.067
Mof_C 	C 	0.10489	0.97254	0.0886	0.061
Mof_H 	H 	0.0931	0.9811	0.0916	0.001
Mof_C 	C 	0.13862	0.01763	0.08301	0.063
Mof_H 	H 	0.1489	0.007	0.0841	-0.001
Mof_C 	C 	0.13834	0.0294	0.0654	-0.103
Mof_H 	H 	0.1481	0.0269	0.0545	0.068
Mof_C 	C 	0.12333	0.0453	0.0636	0.009
Mof_H 	H 	0.1229	0.0541	0.0516	0.037
Mof_C 	C 	0.10924	0.04783	0.07984	-0.052
Mof_C 	C 	0.11085	0.03502	0.09731	0.042
Mof_H 	H 	0.1013	0.037	0.1085	0.011
Mof_C 	C 	0.09302	0.06441	0.07908	0.135
Mof_C 	C 	0.07478	0.00059	0.12611	0.108
Mof_N 	N 	0.23525	0.90904	0.11692	-0.223
Mof_N 	N 	0.10699	0.88715	0.02446	-0.261
Mof_N 	N 	0.15242	0.87497	0.01551	-0.224
Mof_N 	N 	0.15582	0.9204	0.06091	-0.151
Mof_N 	N 	0.19029	0.91034	0.07025	-0.15
Mof_N 	N 	0.17387	0.93887	0.08763	-0.151
Mof_N 	N 	0.12185	0.97432	0.10075	-0.229
Mof_N 	N 	0.09238	0.99881	0.12676	-0.264
Mof_N 	N 	0.12524	0.02009	0.09897	-0.229
Mof_N 	N 	0.09428	0.07831	0.06397	-0.152
Mof_S 	S 	0.07812	0.91304	0.04463	-0.059
Mof_S 	S 	0.04928	0.00216	0.12346	-0.062
Mof_C 	C 	0.71989	0.40972	0.10258	0.033
Mof_H 	H 	0.7173	0.3976	0.0944	0.014
Mof_C 	C 	0.7075	0.42742	0.09914	-0.046
Mof_C 	C 	0.71138	0.44523	0.11072	0.006
Mof_H 	H 	0.703	0.4574	0.1092	0.038
Mof_C 	C 	0.7281	0.44486	0.12482	-0.1
Mof_H 	H 	0.7318	0.4571	0.1324	0.066
Mof_C 	C 	0.73907	0.42686	0.12758	0.061
Mof_H 	H 	0.7501	0.4268	0.1376	-0
Mof_C 	C 	0.59533	0.39774	0.03338	0.098
Mof_C 	C 	0.66843	0.36148	0.01321	0.057
Mof_H 	H 	0.6671	0.3506	0.0032	-0
Mof_C 	C 	0.68666	0.3626	0.02462	-0.096
Mof_H 	H 	0.6978	0.3531	0.022	0.063
Mof_C 	C 	0.68858	0.37779	0.04007	0.004
Mof_H 	H 	0.7007	0.3784	0.0487	0.038
Mof_C 	C 	0.67226	0.3921	0.04249	-0.045
Mof_C 	C 	0.65472	0.39026	0.03001	0.031
Mof_H 	H 	0.6438	0.4002	0.0317	0.017
Mof_C 	C 	0.67282	0.40868	0.05877	0.134
Mof_C 	C 	0.6897	0.42567	0.08461	0.133
Mof_C 	C 	0.65684	0.43511	0.07589	0.133
Mof_C 	C 	0.63822	0.46232	0.09601	0.039
Mof_H 	H 	0.6506	0.4637	0.1042	0.012
Mof_C 	C 	0.63815	0.44779	0.07952	-0.051
Mof_C 	C 	0.6204	0.44589	0.06735	0.009
Mof_H 	H 	0.6197	0.436	0.0562	0.037
Mof_C 	C 	0.60358	0.45891	0.07192	-0.1
Mof_H 	H 	0.5913	0.4584	0.0636	0.067
Mof_C 	C 	0.60489	0.47254	0.0886	0.061
Mof_H 	H 	0.5931	0.4811	0.0916	0.001
Mof_C 	C 	0.63862	0.51763	0.08301	0.063
Mof_H 	H 	0.6489	0.507	0.0841	-0.001
Mof_C 	C 	0.63834	0.5294	0.0654	-0.103
Mof_H 	H 	0.6481	0.5269	0.0545	0.068
Mof_C 	C 	0.62333	0.5453	0.0636	0.009
Mof_H 	H 	0.6229	0.5541	0.0516	0.037
Mof_C 	C 	0.60924	0.54783	0.07984	-0.052
Mof_C 	C 	0.61085	0.53502	0.09731	0.042
Mof_H 	H 	0.6013	0.537	0.1085	0.011
Mof_C 	C 	0.59302	0.56441	0.07908	0.135
Mof_C 	C 	0.57478	0.50059	0.12611	0.108
Mof_N 	N 	0.73525	0.40904	0.11692	-0.223
Mof_N 	N 	0.60699	0.38715	0.02446	-0.261
Mof_N 	N 	0.65242	0.37497	0.01551	-0.224
Mof_N 	N 	0.65582	0.4204	0.06091	-0.151
Mof_N 	N 	0.69029	0.41034	0.07025	-0.15
Mof_N 	N 	0.67387	0.43887	0.08763	-0.151
Mof_N 	N 	0.62185	0.47432	0.10075	-0.229
Mof_N 	N 	0.59238	0.49881	0.12676	-0.264
Mof_N 	N 	0.62524	0.52009	0.09897	-0.229
Mof_N 	N 	0.59428	0.57831	0.06397	-0.152
Mof_S 	S 	0.57812	0.41304	0.04463	-0.059
Mof_S 	S 	0.54928	0.50216	0.12346	-0.062
Mof_C 	C 	0.71989	0.90972	0.60258	0.033
Mof_H 	H 	0.7173	0.8976	0.5944	0.014
Mof_C 	C 	0.7075	0.92742	0.59914	-0.046
Mof_C 	C 	0.71138	0.94523	0.61072	0.006
Mof_H 	H 	0.703	0.9574	0.6092	0.038
Mof_C 	C 	0.7281	0.94486	0.62482	-0.1
Mof_H 	H 	0.7318	0.9571	0.6324	0.066
Mof_C 	C 	0.73907	0.92686	0.62758	0.061
Mof_H 	H 	0.7501	0.9268	0.6376	-0
Mof_C 	C 	0.59533	0.89774	0.53338	0.098
Mof_C 	C 	0.66843	0.86148	0.51321	0.057
Mof_H 	H 	0.6671	0.8506	0.5032	-0
Mof_C 	C 	0.68666	0.8626	0.52462	-0.096
Mof_H 	H 	0.6978	0.8531	0.522	0.063
Mof_C 	C 	0.68858	0.87779	0.54007	0.004
Mof_H 	H 	0.7007	0.8784	0.5487	0.038
Mof_C 	C 	0.67226	0.8921	0.54249	-0.045
Mof_C 	C 	0.65472	0.89026	0.53001	0.031
Mof_H 	H 	0.6438	0.9002	0.5317	0.017
Mof_C 	C 	0.67282	0.90868	0.55877	0.134
Mof_C 	C 	0.6897	0.92567	0.58461	0.133
Mof_C 	C 	0.65684	0.93511	0.57589	0.133
Mof_C 	C 	0.63822	0.96232	0.59601	0.039
Mof_H 	H 	0.6506	0.9637	0.6042	0.012
Mof_C 	C 	0.63815	0.94779	0.57952	-0.051
Mof_C 	C 	0.6204	0.94589	0.56735	0.009
Mof_H 	H 	0.6197	0.936	0.5562	0.037
Mof_C 	C 	0.60358	0.95891	0.57192	-0.1
Mof_H 	H 	0.5913	0.9584	0.5636	0.067
Mof_C 	C 	0.60489	0.97254	0.5886	0.061
Mof_H 	H 	0.5931	0.9811	0.5916	0.001
Mof_C 	C 	0.63862	0.01763	0.58301	0.063
Mof_H 	H 	0.6489	0.007	0.5841	-0.001
Mof_C 	C 	0.63834	0.0294	0.5654	-0.103
Mof_H 	H 	0.6481	0.0269	0.5545	0.068
Mof_C 	C 	0.62333	0.0453	0.5636	0.009
Mof_H 	H 	0.6229	0.0541	0.5516	0.037
Mof_C 	C 	0.60924	0.04783	0.57984	-0.052
Mof_C 	C 	0.61085	0.03502	0.59731	0.042
Mof_H 	H 	0.6013	0.037	0.6085	0.011
Mof_C 	C 	0.59302	0.06441	0.57908	0.135
Mof_C 	C 	0.57478	0.00059	0.62611	0.108
Mof_N 	N 	0.73525	0.90904	0.61692	-0.223
Mof_N 	N 	0.60699	0.88715	0.52446	-0.261
Mof_N 	N 	0.65242	0.87497	0.51551	-0.224
Mof_N 	N 	0.65582	0.9204	0.56091	-0.151
Mof_N 	N 	0.69029	0.91034	0.57025	-0.15
Mof_N 	N 	0.67387	0.93887	0.58763	-0.151
Mof_N 	N 	0.62185	0.97432	0.60075	-0.229
Mof_N 	N 	0.59238	0.99881	0.62676	-0.264
Mof_N 	N 	0.62524	0.02009	0.59897	-0.229
Mof_N 	N 	0.59428	0.07831	0.56397	-0.152
Mof_S 	S 	0.57812	0.91304	0.54463	-0.059
Mof_S 	S 	0.54928	0.00216	0.62346	-0.062
Mof_C 	C 	0.71989	0.84028	0.14742	0.033
Mof_H 	H 	0.7173	0.8524	0.1556	0.014
Mof_C 	C 	0.7075	0.82258	0.15086	-0.046
Mof_C 	C 	0.71138	0.80477	0.13928	0.006
Mof_H 	H 	0.703	0.7926	0.1408	0.038
Mof_C 	C 	0.7281	0.80514	0.12518	-0.1
Mof_H 	H 	0.7318	0.7929	0.1176	0.066
Mof_C 	C 	0.73907	0.82314	0.12242	0.061
Mof_H 	H 	0.7501	0.8232	0.1124	-0
Mof_C 	C 	0.59533	0.85226	0.21662	0.098
Mof_C 	C 	0.66843	0.88852	0.23679	0.057
Mof_H 	H 	0.6671	0.8994	0.2468	-0
Mof_C 	C 	0.68666	0.8874	0.22538	-0.096
Mof_H 	H 	0.6978	0.8969	0.228	0.063
Mof_C 	C 	0.68858	0.87221	0.20993	0.004
Mof_H 	H 	0.7007	0.8716	0.2013	0.038
Mof_C 	C 	0.67226	0.8579	0.20751	-0.045
Mof_C 	C 	0.65472	0.85974	0.21999	0.031
Mof_H 	H 	0.6438	0.8498	0.2183	0.017
Mof_C 	C 	0.67282	0.84132	0.19123	0.134
Mof_C 	C 	0.6897	0.82433	0.16539	0.133
Mof_C 	C 	0.65684	0.81489	0.17411	0.133
Mof_C 	C 	0.63822	0.78768	0.15399	0.039
Mof_H 	H 	0.6506	0.7863	0.1458	0.012
Mof_C 	C 	0.63815	0.80221	0.17048	-0.051
Mof_C 	C 	0.6204	0.80411	0.18265	0.009
Mof_H 	H 	0.6197	0.814	0.1938	0.037
Mof_C 	C 	0.60358	0.79109	0.17808	-0.1
Mof_H 	H 	0.5913	0.7916	0.1864	0.067
Mof_C 	C 	0.60489	0.77746	0.1614	0.061
Mof_H 	H 	0.5931	0.7689	0.1584	0.001
Mof_C 	C 	0.63862	0.73237	0.16699	0.063
Mof_H 	H 	0.6489	0.743	0.1659	-0.001
Mof_C 	C 	0.63834	0.7206	0.1846	-0.103
Mof_H 	H 	0.6481	0.7231	0.1955	0.068
Mof_C 	C 	0.62333	0.7047	0.1864	0.009
Mof_H 	H 	0.6229	0.6959	0.1984	0.037
Mof_C 	C 	0.60924	0.70217	0.17016	-0.052
Mof_C 	C 	0.61085	0.71498	0.15269	0.042
Mof_H 	H 	0.6013	0.713	0.1415	0.011
Mof_C 	C 	0.59302	0.68559	0.17092	0.135
Mof_C 	C 	0.57478	0.74941	0.12389	0.108
Mof_N 	N 	0.73525	0.84096	0.13308	-0.223
Mof_N 	N 	0.60699	0.86285	0.22554	-0.261
Mof_N 	N 	0.65242	0.87503	0.23449	-0.224
Mof_N 	N 	0.65582	0.8296	0.18909	-0.151
Mof_N 	N 	0.69029	0.83966	0.17975	-0.15
Mof_N 	N 	0.67387	0.81113	0.16237	-0.151
Mof_N 	N 	0.62185	0.77568	0.14925	-0.229
Mof_N 	N 	0.59238	0.75119	0.12324	-0.264
Mof_N 	N 	0.62524	0.72991	0.15103	-0.229
Mof_N 	N 	0.59428	0.67169	0.18603	-0.152
Mof_S 	S 	0.57812	0.83696	0.20537	-0.059
Mof_S 	S 	0.54928	0.74784	0.12654	-0.062
Mof_C 	C 	0.71989	0.34028	0.64742	0.033
Mof_H 	H 	0.7173	0.3524	0.6556	0.014
Mof_C 	C 	0.7075	0.32258	0.65086	-0.046
Mof_C 	C 	0.71138	0.30477	0.63928	0.006
Mof_H 	H 	0.703	0.2926	0.6408	0.038
Mof_C 	C 	0.7281	0.30514	0.62518	-0.1
Mof_H 	H 	0.7318	0.2929	0.6176	0.066
Mof_C 	C 	0.73907	0.32314	0.62242	0.061
Mof_H 	H 	0.7501	0.3232	0.6124	-0
Mof_C 	C 	0.59533	0.35226	0.71662	0.098
Mof_C 	C 	0.66843	0.38852	0.73679	0.057
Mof_H 	H 	0.6671	0.3994	0.7468	-0
Mof_C 	C 	0.68666	0.3874	0.72538	-0.096
Mof_H 	H 	0.6978	0.3969	0.728	0.063
Mof_C 	C 	0.68858	0.37221	0.70993	0.004
Mof_H 	H 	0.7007	0.3716	0.7013	0.038
Mof_C 	C 	0.67226	0.3579	0.70751	-0.045
Mof_C 	C 	0.65472	0.35974	0.71999	0.031
Mof_H 	H 	0.6438	0.3498	0.7183	0.017
Mof_C 	C 	0.67282	0.34132	0.69123	0.134
Mof_C 	C 	0.6897	0.32433	0.66539	0.133
Mof_C 	C 	0.65684	0.31489	0.67411	0.133
Mof_C 	C 	0.63822	0.28768	0.65399	0.039
Mof_H 	H 	0.6506	0.2863	0.6458	0.012
Mof_C 	C 	0.63815	0.30221	0.67048	-0.051
Mof_C 	C 	0.6204	0.30411	0.68265	0.009
Mof_H 	H 	0.6197	0.314	0.6938	0.037
Mof_C 	C 	0.60358	0.29109	0.67808	-0.1
Mof_H 	H 	0.5913	0.2916	0.6864	0.067
Mof_C 	C 	0.60489	0.27746	0.6614	0.061
Mof_H 	H 	0.5931	0.2689	0.6584	0.001
Mof_C 	C 	0.63862	0.23237	0.66699	0.063
Mof_H 	H 	0.6489	0.243	0.6659	-0.001
Mof_C 	C 	0.63834	0.2206	0.6846	-0.103
Mof_H 	H 	0.6481	0.2231	0.6955	0.068
Mof_C 	C 	0.62333	0.2047	0.6864	0.009
Mof_H 	H 	0.6229	0.1959	0.6984	0.037
Mof_C 	C 	0.60924	0.20217	0.67016	-0.052
Mof_C 	C 	0.61085	0.21498	0.65269	0.042
Mof_H 	H 	0.6013	0.213	0.6415	0.011
Mof_C 	C 	0.59302	0.18559	0.67092	0.135
Mof_C 	C 	0.57478	0.24941	0.62389	0.108
Mof_N 	N 	0.73525	0.34096	0.63308	-0.223
Mof_N 	N 	0.60699	0.36285	0.72554	-0.261
Mof_N 	N 	0.65242	0.37503	0.73449	-0.224
Mof_N 	N 	0.65582	0.3296	0.68909	-0.151
Mof_N 	N 	0.69029	0.33966	0.67975	-0.15
Mof_N 	N 	0.67387	0.31113	0.66237	-0.151
Mof_N 	N 	0.62185	0.27568	0.64925	-0.229
Mof_N 	N 	0.59238	0.25119	0.62324	-0.264
Mof_N 	N 	0.62524	0.22991	0.65103	-0.229
Mof_N 	N 	0.59428	0.17169	0.68603	-0.152
Mof_S 	S 	0.57812	0.33696	0.70537	-0.059
Mof_S 	S 	0.54928	0.24784	0.62654	-0.062
Mof_C 	C 	0.21989	0.84028	0.64742	0.033
Mof_H 	H 	0.2173	0.8524	0.6556	0.014
Mof_C 	C 	0.2075	0.82258	0.65086	-0.046
Mof_C 	C 	0.21138	0.80477	0.63928	0.006
Mof_H 	H 	0.203	0.7926	0.6408	0.038
Mof_C 	C 	0.2281	0.80514	0.62518	-0.1
Mof_H 	H 	0.2318	0.7929	0.6176	0.066
Mof_C 	C 	0.23907	0.82314	0.62242	0.061
Mof_H 	H 	0.2501	0.8232	0.6124	-0
Mof_C 	C 	0.09533	0.85226	0.71662	0.098
Mof_C 	C 	0.16843	0.88852	0.73679	0.057
Mof_H 	H 	0.1671	0.8994	0.7468	-0
Mof_C 	C 	0.18666	0.8874	0.72538	-0.096
Mof_H 	H 	0.1978	0.8969	0.728	0.063
Mof_C 	C 	0.18858	0.87221	0.70993	0.004
Mof_H 	H 	0.2007	0.8716	0.7013	0.038
Mof_C 	C 	0.17226	0.8579	0.70751	-0.045
Mof_C 	C 	0.15472	0.85974	0.71999	0.031
Mof_H 	H 	0.1438	0.8498	0.7183	0.017
Mof_C 	C 	0.17282	0.84132	0.69123	0.134
Mof_C 	C 	0.1897	0.82433	0.66539	0.133
Mof_C 	C 	0.15684	0.81489	0.67411	0.133
Mof_C 	C 	0.13822	0.78768	0.65399	0.039
Mof_H 	H 	0.1506	0.7863	0.6458	0.012
Mof_C 	C 	0.13815	0.80221	0.67048	-0.051
Mof_C 	C 	0.1204	0.80411	0.68265	0.009
Mof_H 	H 	0.1197	0.814	0.6938	0.037
Mof_C 	C 	0.10358	0.79109	0.67808	-0.1
Mof_H 	H 	0.0913	0.7916	0.6864	0.067
Mof_C 	C 	0.10489	0.77746	0.6614	0.061
Mof_H 	H 	0.0931	0.7689	0.6584	0.001
Mof_C 	C 	0.13862	0.73237	0.66699	0.063
Mof_H 	H 	0.1489	0.743	0.6659	-0.001
Mof_C 	C 	0.13834	0.7206	0.6846	-0.103
Mof_H 	H 	0.1481	0.7231	0.6955	0.068
Mof_C 	C 	0.12333	0.7047	0.6864	0.009
Mof_H 	H 	0.1229	0.6959	0.6984	0.037
Mof_C 	C 	0.10924	0.70217	0.67016	-0.052
Mof_C 	C 	0.11085	0.71498	0.65269	0.042
Mof_H 	H 	0.1013	0.713	0.6415	0.011
Mof_C 	C 	0.09302	0.68559	0.67092	0.135
Mof_C 	C 	0.07478	0.74941	0.62389	0.108
Mof_N 	N 	0.23525	0.84096	0.63308	-0.223
Mof_N 	N 	0.10699	0.86285	0.72554	-0.261
Mof_N 	N 	0.15242	0.87503	0.73449	-0.224
Mof_N 	N 	0.15582	0.8296	0.68909	-0.151
Mof_N 	N 	0.19029	0.83966	0.67975	-0.15
Mof_N 	N 	0.17387	0.81113	0.66237	-0.151
Mof_N 	N 	0.12185	0.77568	0.64925	-0.229
Mof_N 	N 	0.09238	0.75119	0.62324	-0.264
Mof_N 	N 	0.12524	0.72991	0.65103	-0.229
Mof_N 	N 	0.09428	0.67169	0.68603	-0.152
Mof_S 	S 	0.07812	0.83696	0.70537	-0.059
Mof_S 	S 	0.04928	0.74784	0.62654	-0.062
Mof_C 	C 	0.21989	0.34028	0.14742	0.033
Mof_H 	H 	0.2173	0.3524	0.1556	0.014
Mof_C 	C 	0.2075	0.32258	0.15086	-0.046
Mof_C 	C 	0.21138	0.30477	0.13928	0.006
Mof_H 	H 	0.203	0.2926	0.1408	0.038
Mof_C 	C 	0.2281	0.30514	0.12518	-0.1
Mof_H 	H 	0.2318	0.2929	0.1176	0.066
Mof_C 	C 	0.23907	0.32314	0.12242	0.061
Mof_H 	H 	0.2501	0.3232	0.1124	-0
Mof_C 	C 	0.09533	0.35226	0.21662	0.098
Mof_C 	C 	0.16843	0.38852	0.23679	0.057
Mof_H 	H 	0.1671	0.3994	0.2468	-0
Mof_C 	C 	0.18666	0.3874	0.22538	-0.096
Mof_H 	H 	0.1978	0.3969	0.228	0.063
Mof_C 	C 	0.18858	0.37221	0.20993	0.004
Mof_H 	H 	0.2007	0.3716	0.2013	0.038
Mof_C 	C 	0.17226	0.3579	0.20751	-0.045
Mof_C 	C 	0.15472	0.35974	0.21999	0.031
Mof_H 	H 	0.1438	0.3498	0.2183	0.017
Mof_C 	C 	0.17282	0.34132	0.19123	0.134
Mof_C 	C 	0.1897	0.32433	0.16539	0.133
Mof_C 	C 	0.15684	0.31489	0.17411	0.133
Mof_C 	C 	0.13822	0.28768	0.15399	0.039
Mof_H 	H 	0.1506	0.2863	0.1458	0.012
Mof_C 	C 	0.13815	0.30221	0.17048	-0.051
Mof_C 	C 	0.1204	0.30411	0.18265	0.009
Mof_H 	H 	0.1197	0.314	0.1938	0.037
Mof_C 	C 	0.10358	0.29109	0.17808	-0.1
Mof_H 	H 	0.0913	0.2916	0.1864	0.067
Mof_C 	C 	0.10489	0.27746	0.1614	0.061
Mof_H 	H 	0.0931	0.2689	0.1584	0.001
Mof_C 	C 	0.13862	0.23237	0.16699	0.063
Mof_H 	H 	0.1489	0.243	0.1659	-0.001
Mof_C 	C 	0.13834	0.2206	0.1846	-0.103
Mof_H 	H 	0.1481	0.2231	0.1955	0.068
Mof_C 	C 	0.12333	0.2047	0.1864	0.009
Mof_H 	H 	0.1229	0.1959	0.1984	0.037
Mof_C 	C 	0.10924	0.20217	0.17016	-0.052
Mof_C 	C 	0.11085	0.21498	0.15269	0.042
Mof_H 	H 	0.1013	0.213	0.1415	0.011
Mof_C 	C 	0.09302	0.18559	0.17092	0.135
Mof_C 	C 	0.07478	0.24941	0.12389	0.108
Mof_N 	N 	0.23525	0.34096	0.13308	-0.223
Mof_N 	N 	0.10699	0.36285	0.22554	-0.261
Mof_N 	N 	0.15242	0.37503	0.23449	-0.224
Mof_N 	N 	0.15582	0.3296	0.18909	-0.151
Mof_N 	N 	0.19029	0.33966	0.17975	-0.15
Mof_N 	N 	0.17387	0.31113	0.16237	-0.151
Mof_N 	N 	0.12185	0.27568	0.14925	-0.229
Mof_N 	N 	0.09238	0.25119	0.12324	-0.264
Mof_N 	N 	0.12524	0.22991	0.15103	-0.229
Mof_N 	N 	0.09428	0.17169	0.18603	-0.152
Mof_S 	S 	0.07812	0.33696	0.20537	-0.059
Mof_S 	S 	0.04928	0.24784	0.12654	-0.062
Mof_C 	C 	0.03011	0.34028	0.10258	0.033
Mof_H 	H 	0.0327	0.3524	0.0944	0.014
Mof_C 	C 	0.0425	0.32258	0.09914	-0.046
Mof_C 	C 	0.03862	0.30477	0.11072	0.006
Mof_H 	H 	0.047	0.2926	0.1092	0.038
Mof_C 	C 	0.0219	0.30514	0.12482	-0.1
Mof_H 	H 	0.0182	0.2929	0.1324	0.066
Mof_C 	C 	0.01093	0.32314	0.12758	0.061
Mof_H 	H 	0.9999	0.3232	0.1376	-0
Mof_C 	C 	0.15467	0.35226	0.03338	0.098
Mof_C 	C 	0.08157	0.38852	0.01321	0.057
Mof_H 	H 	0.0829	0.3994	0.0032	-0
Mof_C 	C 	0.06334	0.3874	0.02462	-0.096
Mof_H 	H 	0.0522	0.3969	0.022	0.063
Mof_C 	C 	0.06142	0.37221	0.04007	0.004
Mof_H 	H 	0.0493	0.3716	0.0487	0.038
Mof_C 	C 	0.07774	0.3579	0.04249	-0.045
Mof_C 	C 	0.09528	0.35974	0.03001	0.031
Mof_H 	H 	0.1062	0.3498	0.0317	0.017
Mof_C 	C 	0.07718	0.34132	0.05877	0.134
Mof_C 	C 	0.0603	0.32433	0.08461	0.133
Mof_C 	C 	0.09316	0.31489	0.07589	0.133
Mof_C 	C 	0.11178	0.28768	0.09601	0.039
Mof_H 	H 	0.0994	0.2863	0.1042	0.012
Mof_C 	C 	0.11185	0.30221	0.07952	-0.051
Mof_C 	C 	0.1296	0.30411	0.06735	0.009
Mof_H 	H 	0.1303	0.314	0.0562	0.037
Mof_C 	C 	0.14642	0.29109	0.07192	-0.1
Mof_H 	H 	0.1587	0.2916	0.0636	0.067
Mof_C 	C 	0.14511	0.27746	0.0886	0.061
Mof_H 	H 	0.1569	0.2689	0.0916	0.001
Mof_C 	C 	0.11138	0.23237	0.08301	0.063
Mof_H 	H 	0.1011	0.243	0.0841	-0.001
Mof_C 	C 	0.11166	0.2206	0.0654	-0.103
Mof_H 	H 	0.1019	0.2231	0.0545	0.068
Mof_C 	C 	0.12667	0.2047	0.0636	0.009
Mof_H 	H 	0.1271	0.1959	0.0516	0.037
Mof_C 	C 	0.14076	0.20217	0.07984	-0.052
Mof_C 	C 	0.13915	0.21498	0.09731	0.042
Mof_H 	H 	0.1487	0.213	0.1085	0.011
Mof_C 	C 	0.15698	0.18559	0.07908	0.135
Mof_C 	C 	0.17522	0.24941	0.12611	0.108
Mof_N 	N 	0.01475	0.34096	0.11692	-0.223
Mof_N 	N 	0.14301	0.36285	0.02446	-0.261
Mof_N 	N 	0.09758	0.37503	0.01551	-0.224
Mof_N 	N 	0.09418	0.3296	0.06091	-0.151
Mof_N 	N 	0.05971	0.33966	0.07025	-0.15
Mof_N 	N 	0.07613	0.31113	0.08763	-0.151
Mof_N 	N 	0.12815	0.27568	0.10075	-0.229
Mof_N 	N 	0.15762	0.25119	0.12676	-0.264
Mof_N 	N 	0.12476	0.22991	0.09897	-0.229
Mof_N 	N 	0.15572	0.17169	0.06397	-0.152
Mof_S 	S 	0.17188	0.33696	0.04463	-0.059
Mof_S 	S 	0.20072	0.24784	0.12346	-0.062
Mof_C 	C 	0.03011	0.84028	0.60258	0.033
Mof_H 	H 	0.0327	0.8524	0.5944	0.014
Mof_C 	C 	0.0425	0.82258	0.59914	-0.046
Mof_C 	C 	0.03862	0.80477	0.61072	0.006
Mof_H 	H 	0.047	0.7926	0.6092	0.038
Mof_C 	C 	0.0219	0.80514	0.62482	-0.1
Mof_H 	H 	0.0182	0.7929	0.6324	0.066
Mof_C 	C 	0.01093	0.82314	0.62758	0.061
Mof_H 	H 	0.9999	0.8232	0.6376	-0
Mof_C 	C 	0.15467	0.85226	0.53338	0.098
Mof_C 	C 	0.08157	0.88852	0.51321	0.057
Mof_H 	H 	0.0829	0.8994	0.5032	-0
Mof_C 	C 	0.06334	0.8874	0.52462	-0.096
Mof_H 	H 	0.0522	0.8969	0.522	0.063
Mof_C 	C 	0.06142	0.87221	0.54007	0.004
Mof_H 	H 	0.0493	0.8716	0.5487	0.038
Mof_C 	C 	0.07774	0.8579	0.54249	-0.045
Mof_C 	C 	0.09528	0.85974	0.53001	0.031
Mof_H 	H 	0.1062	0.8498	0.5317	0.017
Mof_C 	C 	0.07718	0.84132	0.55877	0.134
Mof_C 	C 	0.0603	0.82433	0.58461	0.133
Mof_C 	C 	0.09316	0.81489	0.57589	0.133
Mof_C 	C 	0.11178	0.78768	0.59601	0.039
Mof_H 	H 	0.0994	0.7863	0.6042	0.012
Mof_C 	C 	0.11185	0.80221	0.57952	-0.051
Mof_C 	C 	0.1296	0.80411	0.56735	0.009
Mof_H 	H 	0.1303	0.814	0.5562	0.037
Mof_C 	C 	0.14642	0.79109	0.57192	-0.1
Mof_H 	H 	0.1587	0.7916	0.5636	0.067
Mof_C 	C 	0.14511	0.77746	0.5886	0.061
Mof_H 	H 	0.1569	0.7689	0.5916	0.001
Mof_C 	C 	0.11138	0.73237	0.58301	0.063
Mof_H 	H 	0.1011	0.743	0.5841	-0.001
Mof_C 	C 	0.11166	0.7206	0.5654	-0.103
Mof_H 	H 	0.1019	0.7231	0.5545	0.068
Mof_C 	C 	0.12667	0.7047	0.5636	0.009
Mof_H 	H 	0.1271	0.6959	0.5516	0.037
Mof_C 	C 	0.14076	0.70217	0.57984	-0.052
Mof_C 	C 	0.13915	0.71498	0.59731	0.042
Mof_H 	H 	0.1487	0.713	0.6085	0.011
Mof_C 	C 	0.15698	0.68559	0.57908	0.135
Mof_C 	C 	0.17522	0.74941	0.62611	0.108
Mof_N 	N 	0.01475	0.84096	0.61692	-0.223
Mof_N 	N 	0.14301	0.86285	0.52446	-0.261
Mof_N 	N 	0.09758	0.87503	0.51551	-0.224
Mof_N 	N 	0.09418	0.8296	0.56091	-0.151
Mof_N 	N 	0.05971	0.83966	0.57025	-0.15
Mof_N 	N 	0.07613	0.81113	0.58763	-0.151
Mof_N 	N 	0.12815	0.77568	0.60075	-0.229
Mof_N 	N 	0.15762	0.75119	0.62676	-0.264
Mof_N 	N 	0.12476	0.72991	0.59897	-0.229
Mof_N 	N 	0.15572	0.67169	0.56397	-0.152
Mof_S 	S 	0.17188	0.83696	0.54463	-0.059
Mof_S 	S 	0.20072	0.74784	0.62346	-0.062
Mof_C 	C 	0.53011	0.34028	0.60258	0.033
Mof_H 	H 	0.5327	0.3524	0.5944	0.014
Mof_C 	C 	0.5425	0.32258	0.59914	-0.046
Mof_C 	C 	0.53862	0.30477	0.61072	0.006
Mof_H 	H 	0.547	0.2926	0.6092	0.038
Mof_C 	C 	0.5219	0.30514	0.62482	-0.1
Mof_H 	H 	0.5182	0.2929	0.6324	0.066
Mof_C 	C 	0.51093	0.32314	0.62758	0.061
Mof_H 	H 	0.4999	0.3232	0.6376	-0
Mof_C 	C 	0.65467	0.35226	0.53338	0.098
Mof_C 	C 	0.58157	0.38852	0.51321	0.057
Mof_H 	H 	0.5829	0.3994	0.5032	-0
Mof_C 	C 	0.56334	0.3874	0.52462	-0.096
Mof_H 	H 	0.5522	0.3969	0.522	0.063
Mof_C 	C 	0.56142	0.37221	0.54007	0.004
Mof_H 	H 	0.5493	0.3716	0.5487	0.038
Mof_C 	C 	0.57774	0.3579	0.54249	-0.045
Mof_C 	C 	0.59528	0.35974	0.53001	0.031
Mof_H 	H 	0.6062	0.3498	0.5317	0.017
Mof_C 	C 	0.57718	0.34132	0.55877	0.134
Mof_C 	C 	0.5603	0.32433	0.58461	0.133
Mof_C 	C 	0.59316	0.31489	0.57589	0.133
Mof_C 	C 	0.61178	0.28768	0.59601	0.039
Mof_H 	H 	0.5994	0.2863	0.6042	0.012
Mof_C 	C 	0.61185	0.30221	0.57952	-0.051
Mof_C 	C 	0.6296	0.30411	0.56735	0.009
Mof_H 	H 	0.6303	0.314	0.5562	0.037
Mof_C 	C 	0.64642	0.29109	0.57192	-0.1
Mof_H 	H 	0.6587	0.2916	0.5636	0.067
Mof_C 	C 	0.64511	0.27746	0.5886	0.061
Mof_H 	H 	0.6569	0.2689	0.5916	0.001
Mof_C 	C 	0.61138	0.23237	0.58301	0.063
Mof_H 	H 	0.6011	0.243	0.5841	-0.001
Mof_C 	C 	0.61166	0.2206	0.5654	-0.103
Mof_H 	H 	0.6019	0.2231	0.5545	0.068
Mof_C 	C 	0.62667	0.2047	0.5636	0.009
Mof_H 	H 	0.6271	0.1959	0.5516	0.037
Mof_C 	C 	0.64076	0.20217	0.57984	-0.052
Mof_C 	C 	0.63915	0.21498	0.59731	0.042
Mof_H 	H 	0.6487	0.213	0.6085	0.011
Mof_C 	C 	0.65698	0.18559	0.57908	0.135
Mof_C 	C 	0.67522	0.24941	0.62611	0.108
Mof_N 	N 	0.51475	0.34096	0.61692	-0.223
Mof_N 	N 	0.64301	0.36285	0.52446	-0.261
Mof_N 	N 	0.59758	0.37503	0.51551	-0.224
Mof_N 	N 	0.59418	0.3296	0.56091	-0.151
Mof_N 	N 	0.55971	0.33966	0.57025	-0.15
Mof_N 	N 	0.57613	0.31113	0.58763	-0.151
Mof_N 	N 	0.62815	0.27568	0.60075	-0.229
Mof_N 	N 	0.65762	0.25119	0.62676	-0.264
Mof_N 	N 	0.62476	0.22991	0.59897	-0.229
Mof_N 	N 	0.65572	0.17169	0.56397	-0.152
Mof_S 	S 	0.67188	0.33696	0.54463	-0.059
Mof_S 	S 	0.70072	0.24784	0.62346	-0.062
Mof_C 	C 	0.53011	0.84028	0.10258	0.033
Mof_H 	H 	0.5327	0.8524	0.0944	0.014
Mof_C 	C 	0.5425	0.82258	0.09914	-0.046
Mof_C 	C 	0.53862	0.80477	0.11072	0.006
Mof_H 	H 	0.547	0.7926	0.1092	0.038
Mof_C 	C 	0.5219	0.80514	0.12482	-0.1
Mof_H 	H 	0.5182	0.7929	0.1324	0.066
Mof_C 	C 	0.51093	0.82314	0.12758	0.061
Mof_H 	H 	0.4999	0.8232	0.1376	-0
Mof_C 	C 	0.65467	0.85226	0.03338	0.098
Mof_C 	C 	0.58157	0.88852	0.01321	0.057
Mof_H 	H 	0.5829	0.8994	0.0032	-0
Mof_C 	C 	0.56334	0.8874	0.02462	-0.096
Mof_H 	H 	0.5522	0.8969	0.022	0.063
Mof_C 	C 	0.56142	0.87221	0.04007	0.004
Mof_H 	H 	0.5493	0.8716	0.0487	0.038
Mof_C 	C 	0.57774	0.8579	0.04249	-0.045
Mof_C 	C 	0.59528	0.85974	0.03001	0.031
Mof_H 	H 	0.6062	0.8498	0.0317	0.017
Mof_C 	C 	0.57718	0.84132	0.05877	0.134
Mof_C 	C 	0.5603	0.82433	0.08461	0.133
Mof_C 	C 	0.59316	0.81489	0.07589	0.133
Mof_C 	C 	0.61178	0.78768	0.09601	0.039
Mof_H 	H 	0.5994	0.7863	0.1042	0.012
Mof_C 	C 	0.61185	0.80221	0.07952	-0.051
Mof_C 	C 	0.6296	0.80411	0.06735	0.009
Mof_H 	H 	0.6303	0.814	0.0562	0.037
Mof_C 	C 	0.64642	0.79109	0.07192	-0.1
Mof_H 	H 	0.6587	0.7916	0.0636	0.067
Mof_C 	C 	0.64511	0.77746	0.0886	0.061
Mof_H 	H 	0.6569	0.7689	0.0916	0.001
Mof_C 	C 	0.61138	0.73237	0.08301	0.063
Mof_H 	H 	0.6011	0.743	0.0841	-0.001
Mof_C 	C 	0.61166	0.7206	0.0654	-0.103
Mof_H 	H 	0.6019	0.7231	0.0545	0.068
Mof_C 	C 	0.62667	0.7047	0.0636	0.009
Mof_H 	H 	0.6271	0.6959	0.0516	0.037
Mof_C 	C 	0.64076	0.70217	0.07984	-0.052
Mof_C 	C 	0.63915	0.71498	0.09731	0.042
Mof_H 	H 	0.6487	0.713	0.1085	0.011
Mof_C 	C 	0.65698	0.68559	0.07908	0.135
Mof_C 	C 	0.67522	0.74941	0.12611	0.108
Mof_N 	N 	0.51475	0.84096	0.11692	-0.223
Mof_N 	N 	0.64301	0.86285	0.02446	-0.261
Mof_N 	N 	0.59758	0.87503	0.01551	-0.224
Mof_N 	N 	0.59418	0.8296	0.06091	-0.151
Mof_N 	N 	0.55971	0.83966	0.07025	-0.15
Mof_N 	N 	0.57613	0.81113	0.08763	-0.151
Mof_N 	N 	0.62815	0.77568	0.10075	-0.229
Mof_N 	N 	0.65762	0.75119	0.12676	-0.264
Mof_N 	N 	0.62476	0.72991	0.09897	-0.229
Mof_N 	N 	0.65572	0.67169	0.06397	-0.152
Mof_S 	S 	0.67188	0.83696	0.04463	-0.059
Mof_S 	S 	0.70072	0.74784	0.12346	-0.062
Mof_C 	C 	0.53011	0.90972	0.64742	0.033
Mof_H 	H 	0.5327	0.8976	0.6556	0.014
Mof_C 	C 	0.5425	0.92742	0.65086	-0.046
Mof_C 	C 	0.53862	0.94523	0.63928	0.006
Mof_H 	H 	0.547	0.9574	0.6408	0.038
Mof_C 	C 	0.5219	0.94486	0.62518	-0.1
Mof_H 	H 	0.5182	0.9571	0.6176	0.066
Mof_C 	C 	0.51093	0.92686	0.62242	0.061
Mof_H 	H 	0.4999	0.9268	0.6124	-0
Mof_C 	C 	0.65467	0.89774	0.71662	0.098
Mof_C 	C 	0.58157	0.86148	0.73679	0.057
Mof_H 	H 	0.5829	0.8506	0.7468	-0
Mof_C 	C 	0.56334	0.8626	0.72538	-0.096
Mof_H 	H 	0.5522	0.8531	0.728	0.063
Mof_C 	C 	0.56142	0.87779	0.70993	0.004
Mof_H 	H 	0.5493	0.8784	0.7013	0.038
Mof_C 	C 	0.57774	0.8921	0.70751	-0.045
Mof_C 	C 	0.59528	0.89026	0.71999	0.031
Mof_H 	H 	0.6062	0.9002	0.7183	0.017
Mof_C 	C 	0.57718	0.90868	0.69123	0.134
Mof_C 	C 	0.5603	0.92567	0.66539	0.133
Mof_C 	C 	0.59316	0.93511	0.67411	0.133
Mof_C 	C 	0.61178	0.96232	0.65399	0.039
Mof_H 	H 	0.5994	0.9637	0.6458	0.012
Mof_C 	C 	0.61185	0.94779	0.67048	-0.051
Mof_C 	C 	0.6296	0.94589	0.68265	0.009
Mof_H 	H 	0.6303	0.936	0.6938	0.037
Mof_C 	C 	0.64642	0.95891	0.67808	-0.1
Mof_H 	H 	0.6587	0.9584	0.6864	0.067
Mof_C 	C 	0.64511	0.97254	0.6614	0.061
Mof_H 	H 	0.6569	0.9811	0.6584	0.001
Mof_C 	C 	0.61138	0.01763	0.66699	0.063
Mof_H 	H 	0.6011	0.007	0.6659	-0.001
Mof_C 	C 	0.61166	0.0294	0.6846	-0.103
Mof_H 	H 	0.6019	0.0269	0.6955	0.068
Mof_C 	C 	0.62667	0.0453	0.6864	0.009
Mof_H 	H 	0.6271	0.0541	0.6984	0.037
Mof_C 	C 	0.64076	0.04783	0.67016	-0.052
Mof_C 	C 	0.63915	0.03502	0.65269	0.042
Mof_H 	H 	0.6487	0.037	0.6415	0.011
Mof_C 	C 	0.65698	0.06441	0.67092	0.135
Mof_C 	C 	0.67522	0.00059	0.62389	0.108
Mof_N 	N 	0.51475	0.90904	0.63308	-0.223
Mof_N 	N 	0.64301	0.88715	0.72554	-0.261
Mof_N 	N 	0.59758	0.87497	0.73449	-0.224
Mof_N 	N 	0.59418	0.9204	0.68909	-0.151
Mof_N 	N 	0.55971	0.91034	0.67975	-0.15
Mof_N 	N 	0.57613	0.93887	0.66237	-0.151
Mof_N 	N 	0.62815	0.97432	0.64925	-0.229
Mof_N 	N 	0.65762	0.99881	0.62324	-0.264
Mof_N 	N 	0.62476	0.02009	0.65103	-0.229
Mof_N 	N 	0.65572	0.07831	0.68603	-0.152
Mof_S 	S 	0.67188	0.91304	0.70537	-0.059
Mof_S 	S 	0.70072	0.00216	0.62654	-0.062
Mof_C 	C 	0.53011	0.40972	0.14742	0.033
Mof_H 	H 	0.5327	0.3976	0.1556	0.014
Mof_C 	C 	0.5425	0.42742	0.15086	-0.046
Mof_C 	C 	0.53862	0.44523	0.13928	0.006
Mof_H 	H 	0.547	0.4574	0.1408	0.038
Mof_C 	C 	0.5219	0.44486	0.12518	-0.1
Mof_H 	H 	0.5182	0.4571	0.1176	0.066
Mof_C 	C 	0.51093	0.42686	0.12242	0.061
Mof_H 	H 	0.4999	0.4268	0.1124	-0
Mof_C 	C 	0.65467	0.39774	0.21662	0.098
Mof_C 	C 	0.58157	0.36148	0.23679	0.057
Mof_H 	H 	0.5829	0.3506	0.2468	-0
Mof_C 	C 	0.56334	0.3626	0.22538	-0.096
Mof_H 	H 	0.5522	0.3531	0.228	0.063
Mof_C 	C 	0.56142	0.37779	0.20993	0.004
Mof_H 	H 	0.5493	0.3784	0.2013	0.038
Mof_C 	C 	0.57774	0.3921	0.20751	-0.045
Mof_C 	C 	0.59528	0.39026	0.21999	0.031
Mof_H 	H 	0.6062	0.4002	0.2183	0.017
Mof_C 	C 	0.57718	0.40868	0.19123	0.134
Mof_C 	C 	0.5603	0.42567	0.16539	0.133
Mof_C 	C 	0.59316	0.43511	0.17411	0.133
Mof_C 	C 	0.61178	0.46232	0.15399	0.039
Mof_H 	H 	0.5994	0.4637	0.1458	0.012
Mof_C 	C 	0.61185	0.44779	0.17048	-0.051
Mof_C 	C 	0.6296	0.44589	0.18265	0.009
Mof_H 	H 	0.6303	0.436	0.1938	0.037
Mof_C 	C 	0.64642	0.45891	0.17808	-0.1
Mof_H 	H 	0.6587	0.4584	0.1864	0.067
Mof_C 	C 	0.64511	0.47254	0.1614	0.061
Mof_H 	H 	0.6569	0.4811	0.1584	0.001
Mof_C 	C 	0.61138	0.51763	0.16699	0.063
Mof_H 	H 	0.6011	0.507	0.1659	-0.001
Mof_C 	C 	0.61166	0.5294	0.1846	-0.103
Mof_H 	H 	0.6019	0.5269	0.1955	0.068
Mof_C 	C 	0.62667	0.5453	0.1864	0.009
Mof_H 	H 	0.6271	0.5541	0.1984	0.037
Mof_C 	C 	0.64076	0.54783	0.17016	-0.052
Mof_C 	C 	0.63915	0.53502	0.15269	0.042
Mof_H 	H 	0.6487	0.537	0.1415	0.011
Mof_C 	C 	0.65698	0.56441	0.17092	0.135
Mof_C 	C 	0.67522	0.50059	0.12389	0.108
Mof_N 	N 	0.51475	0.40904	0.13308	-0.223
Mof_N 	N 	0.64301	0.38715	0.22554	-0.261
Mof_N 	N 	0.59758	0.37497	0.23449	-0.224
Mof_N 	N 	0.59418	0.4204	0.18909	-0.151
Mof_N 	N 	0.55971	0.41034	0.17975	-0.15
Mof_N 	N 	0.57613	0.43887	0.16237	-0.151
Mof_N 	N 	0.62815	0.47432	0.14925	-0.229
Mof_N 	N 	0.65762	0.49881	0.12324	-0.264
Mof_N 	N 	0.62476	0.52009	0.15103	-0.229
Mof_N 	N 	0.65572	0.57831	0.18603	-0.152
Mof_S 	S 	0.67188	0.41304	0.20537	-0.059
Mof_S 	S 	0.70072	0.50216	0.12654	-0.062
Mof_C 	C 	0.03011	0.90972	0.14742	0.033
Mof_H 	H 	0.0327	0.8976	0.1556	0.014
Mof_C 	C 	0.0425	0.92742	0.15086	-0.046
Mof_C 	C 	0.03862	0.94523	0.13928	0.006
Mof_H 	H 	0.047	0.9574	0.1408	0.038
Mof_C 	C 	0.0219	0.94486	0.12518	-0.1
Mof_H 	H 	0.0182	0.9571	0.1176	0.066
Mof_C 	C 	0.01093	0.92686	0.12242	0.061
Mof_H 	H 	0.9999	0.9268	0.1124	-0
Mof_C 	C 	0.15467	0.89774	0.21662	0.098
Mof_C 	C 	0.08157	0.86148	0.23679	0.057
Mof_H 	H 	0.0829	0.8506	0.2468	-0
Mof_C 	C 	0.06334	0.8626	0.22538	-0.096
Mof_H 	H 	0.0522	0.8531	0.228	0.063
Mof_C 	C 	0.06142	0.87779	0.20993	0.004
Mof_H 	H 	0.0493	0.8784	0.2013	0.038
Mof_C 	C 	0.07774	0.8921	0.20751	-0.045
Mof_C 	C 	0.09528	0.89026	0.21999	0.031
Mof_H 	H 	0.1062	0.9002	0.2183	0.017
Mof_C 	C 	0.07718	0.90868	0.19123	0.134
Mof_C 	C 	0.0603	0.92567	0.16539	0.133
Mof_C 	C 	0.09316	0.93511	0.17411	0.133
Mof_C 	C 	0.11178	0.96232	0.15399	0.039
Mof_H 	H 	0.0994	0.9637	0.1458	0.012
Mof_C 	C 	0.11185	0.94779	0.17048	-0.051
Mof_C 	C 	0.1296	0.94589	0.18265	0.009
Mof_H 	H 	0.1303	0.936	0.1938	0.037
Mof_C 	C 	0.14642	0.95891	0.17808	-0.1
Mof_H 	H 	0.1587	0.9584	0.1864	0.067
Mof_C 	C 	0.14511	0.97254	0.1614	0.061
Mof_H 	H 	0.1569	0.9811	0.1584	0.001
Mof_C 	C 	0.11138	0.01763	0.16699	0.063
Mof_H 	H 	0.1011	0.007	0.1659	-0.001
Mof_C 	C 	0.11166	0.0294	0.1846	-0.103
Mof_H 	H 	0.1019	0.0269	0.1955	0.068
Mof_C 	C 	0.12667	0.0453	0.1864	0.009
Mof_H 	H 	0.1271	0.0541	0.1984	0.037
Mof_C 	C 	0.14076	0.04783	0.17016	-0.052
Mof_C 	C 	0.13915	0.03502	0.15269	0.042
Mof_H 	H 	0.1487	0.037	0.1415	0.011
Mof_C 	C 	0.15698	0.06441	0.17092	0.135
Mof_C 	C 	0.17522	0.00059	0.12389	0.108
Mof_N 	N 	0.01475	0.90904	0.13308	-0.223
Mof_N 	N 	0.14301	0.88715	0.22554	-0.261
Mof_N 	N 	0.09758	0.87497	0.23449	-0.224
Mof_N 	N 	0.09418	0.9204	0.18909	-0.151
Mof_N 	N 	0.05971	0.91034	0.17975	-0.15
Mof_N 	N 	0.07613	0.93887	0.16237	-0.151
Mof_N 	N 	0.12815	0.97432	0.14925	-0.229
Mof_N 	N 	0.15762	0.99881	0.12324	-0.264
Mof_N 	N 	0.12476	0.02009	0.15103	-0.229
Mof_N 	N 	0.15572	0.07831	0.18603	-0.152
Mof_S 	S 	0.17188	0.91304	0.20537	-0.059
Mof_S 	S 	0.20072	0.00216	0.12654	-0.062
Mof_C 	C 	0.03011	0.40972	0.64742	0.033
Mof_H 	H 	0.0327	0.3976	0.6556	0.014
Mof_C 	C 	0.0425	0.42742	0.65086	-0.046
Mof_C 	C 	0.03862	0.44523	0.63928	0.006
Mof_H 	H 	0.047	0.4574	0.6408	0.038
Mof_C 	C 	0.0219	0.44486	0.62518	-0.1
Mof_H 	H 	0.0182	0.4571	0.6176	0.066
Mof_C 	C 	0.01093	0.42686	0.62242	0.061
Mof_H 	H 	0.9999	0.4268	0.6124	-0
Mof_C 	C 	0.15467	0.39774	0.71662	0.098
Mof_C 	C 	0.08157	0.36148	0.73679	0.057
Mof_H 	H 	0.0829	0.3506	0.7468	-0
Mof_C 	C 	0.06334	0.3626	0.72538	-0.096
Mof_H 	H 	0.0522	0.3531	0.728	0.063
Mof_C 	C 	0.06142	0.37779	0.70993	0.004
Mof_H 	H 	0.0493	0.3784	0.7013	0.038
Mof_C 	C 	0.07774	0.3921	0.70751	-0.045
Mof_C 	C 	0.09528	0.39026	0.71999	0.031
Mof_H 	H 	0.1062	0.4002	0.7183	0.017
Mof_C 	C 	0.07718	0.40868	0.69123	0.134
Mof_C 	C 	0.0603	0.42567	0.66539	0.133
Mof_C 	C 	0.09316	0.43511	0.67411	0.133
Mof_C 	C 	0.11178	0.46232	0.65399	0.039
Mof_H 	H 	0.0994	0.4637	0.6458	0.012
Mof_C 	C 	0.11185	0.44779	0.67048	-0.051
Mof_C 	C 	0.1296	0.44589	0.68265	0.009
Mof_H 	H 	0.1303	0.436	0.6938	0.037
Mof_C 	C 	0.14642	0.45891	0.67808	-0.1
Mof_H 	H 	0.1587	0.4584	0.6864	0.067
Mof_C 	C 	0.14511	0.47254	0.6614	0.061
Mof_H 	H 	0.1569	0.4811	0.6584	0.001
Mof_C 	C 	0.11138	0.51763	0.66699	0.063
Mof_H 	H 	0.1011	0.507	0.6659	-0.001
Mof_C 	C 	0.11166	0.5294	0.6846	-0.103
Mof_H 	H 	0.1019	0.5269	0.6955	0.068
Mof_C 	C 	0.12667	0.5453	0.6864	0.009
Mof_H 	H 	0.1271	0.5541	0.6984	0.037
Mof_C 	C 	0.14076	0.54783	0.67016	-0.052
Mof_C 	C 	0.13915	0.53502	0.65269	0.042
Mof_H 	H 	0.1487	0.537	0.6415	0.011
Mof_C 	C 	0.15698	0.56441	0.67092	0.135
Mof_C 	C 	0.17522	0.50059	0.62389	0.108
Mof_N 	N 	0.01475	0.40904	0.63308	-0.223
Mof_N 	N 	0.14301	0.38715	0.72554	-0.261
Mof_N 	N 	0.09758	0.37497	0.73449	-0.224
Mof_N 	N 	0.09418	0.4204	0.68909	-0.151
Mof_N 	N 	0.05971	0.41034	0.67975	-0.15
Mof_N 	N 	0.07613	0.43887	0.66237	-0.151
Mof_N 	N 	0.12815	0.47432	0.64925	-0.229
Mof_N 	N 	0.15762	0.49881	0.62324	-0.264
Mof_N 	N 	0.12476	0.52009	0.65103	-0.229
Mof_N 	N 	0.15572	0.57831	0.68603	-0.152
Mof_S 	S 	0.17188	0.41304	0.70537	-0.059
Mof_S 	S 	0.20072	0.50216	0.62654	-0.062
Mof_C 	C 	0.60258	0.21989	0.40972	0.033
Mof_H 	H 	0.5944	0.2173	0.3976	0.014
Mof_C 	C 	0.59914	0.2075	0.42742	-0.046
Mof_C 	C 	0.61072	0.21138	0.44523	0.006
Mof_H 	H 	0.6092	0.203	0.4574	0.038
Mof_C 	C 	0.62482	0.2281	0.44486	-0.1
Mof_H 	H 	0.6324	0.2318	0.4571	0.066
Mof_C 	C 	0.62758	0.23907	0.42686	0.061
Mof_H 	H 	0.6376	0.2501	0.4268	-0
Mof_C 	C 	0.53338	0.09533	0.39774	0.098
Mof_C 	C 	0.51321	0.16843	0.36148	0.057
Mof_H 	H 	0.5032	0.1671	0.3506	-0
Mof_C 	C 	0.52462	0.18666	0.3626	-0.096
Mof_H 	H 	0.522	0.1978	0.3531	0.063
Mof_C 	C 	0.54007	0.18858	0.37779	0.004
Mof_H 	H 	0.5487	0.2007	0.3784	0.038
Mof_C 	C 	0.54249	0.17226	0.3921	-0.045
Mof_C 	C 	0.53001	0.15472	0.39026	0.031
Mof_H 	H 	0.5317	0.1438	0.4002	0.017
Mof_C 	C 	0.55877	0.17282	0.40868	0.134
Mof_C 	C 	0.58461	0.1897	0.42567	0.133
Mof_C 	C 	0.57589	0.15684	0.43511	0.133
Mof_C 	C 	0.59601	0.13822	0.46232	0.039
Mof_H 	H 	0.6042	0.1506	0.4637	0.012
Mof_C 	C 	0.57952	0.13815	0.44779	-0.051
Mof_C 	C 	0.56735	0.1204	0.44589	0.009
Mof_H 	H 	0.5562	0.1197	0.436	0.037
Mof_C 	C 	0.57192	0.10358	0.45891	-0.1
Mof_H 	H 	0.5636	0.0913	0.4584	0.067
Mof_C 	C 	0.5886	0.10489	0.47254	0.061
Mof_H 	H 	0.5916	0.0931	0.4811	0.001
Mof_C 	C 	0.58301	0.13862	0.51763	0.063
Mof_H 	H 	0.5841	0.1489	0.507	-0.001
Mof_C 	C 	0.5654	0.13834	0.5294	-0.103
Mof_H 	H 	0.5545	0.1481	0.5269	0.068
Mof_C 	C 	0.5636	0.12333	0.5453	0.009
Mof_H 	H 	0.5516	0.1229	0.5541	0.037
Mof_C 	C 	0.57984	0.10924	0.54783	-0.052
Mof_C 	C 	0.59731	0.11085	0.53502	0.042
Mof_H 	H 	0.6085	0.1013	0.537	0.011
Mof_C 	C 	0.57908	0.09302	0.56441	0.135
Mof_C 	C 	0.62611	0.07478	0.50059	0.108
Mof_N 	N 	0.61692	0.23525	0.40904	-0.223
Mof_N 	N 	0.52446	0.10699	0.38715	-0.261
Mof_N 	N 	0.51551	0.15242	0.37497	-0.224
Mof_N 	N 	0.56091	0.15582	0.4204	-0.151
Mof_N 	N 	0.57025	0.19029	0.41034	-0.15
Mof_N 	N 	0.58763	0.17387	0.43887	-0.151
Mof_N 	N 	0.60075	0.12185	0.47432	-0.229
Mof_N 	N 	0.62676	0.09238	0.49881	-0.264
Mof_N 	N 	0.59897	0.12524	0.52009	-0.229
Mof_N 	N 	0.56397	0.09428	0.57831	-0.152
Mof_S 	S 	0.54463	0.07812	0.41304	-0.059
Mof_S 	S 	0.62346	0.04928	0.50216	-0.062
Mof_C 	C 	0.60258	0.71989	0.90972	0.033
Mof_H 	H 	0.5944	0.7173	0.8976	0.014
Mof_C 	C 	0.59914	0.7075	0.92742	-0.046
Mof_C 	C 	0.61072	0.71138	0.94523	0.006
Mof_H 	H 	0.6092	0.703	0.9574	0.038
Mof_C 	C 	0.62482	0.7281	0.94486	-0.1
Mof_H 	H 	0.6324	0.7318	0.9571	0.066
Mof_C 	C 	0.62758	0.73907	0.92686	0.061
Mof_H 	H 	0.6376	0.7501	0.9268	-0
Mof_C 	C 	0.53338	0.59533	0.89774	0.098
Mof_C 	C 	0.51321	0.66843	0.86148	0.057
Mof_H 	H 	0.5032	0.6671	0.8506	-0
Mof_C 	C 	0.52462	0.68666	0.8626	-0.096
Mof_H 	H 	0.522	0.6978	0.8531	0.063
Mof_C 	C 	0.54007	0.68858	0.87779	0.004
Mof_H 	H 	0.5487	0.7007	0.8784	0.038
Mof_C 	C 	0.54249	0.67226	0.8921	-0.045
Mof_C 	C 	0.53001	0.65472	0.89026	0.031
Mof_H 	H 	0.5317	0.6438	0.9002	0.017
Mof_C 	C 	0.55877	0.67282	0.90868	0.134
Mof_C 	C 	0.58461	0.6897	0.92567	0.133
Mof_C 	C 	0.57589	0.65684	0.93511	0.133
Mof_C 	C 	0.59601	0.63822	0.96232	0.039
Mof_H 	H 	0.6042	0.6506	0.9637	0.012
Mof_C 	C 	0.57952	0.63815	0.94779	-0.051
Mof_C 	C 	0.56735	0.6204	0.94589	0.009
Mof_H 	H 	0.5562	0.6197	0.936	0.037
Mof_C 	C 	0.57192	0.60358	0.95891	-0.1
Mof_H 	H 	0.5636	0.5913	0.9584	0.067
Mof_C 	C 	0.5886	0.60489	0.97254	0.061
Mof_H 	H 	0.5916	0.5931	0.9811	0.001
Mof_C 	C 	0.58301	0.63862	0.01763	0.063
Mof_H 	H 	0.5841	0.6489	0.007	-0.001
Mof_C 	C 	0.5654	0.63834	0.0294	-0.103
Mof_H 	H 	0.5545	0.6481	0.0269	0.068
Mof_C 	C 	0.5636	0.62333	0.0453	0.009
Mof_H 	H 	0.5516	0.6229	0.0541	0.037
Mof_C 	C 	0.57984	0.60924	0.04783	-0.052
Mof_C 	C 	0.59731	0.61085	0.03502	0.042
Mof_H 	H 	0.6085	0.6013	0.037	0.011
Mof_C 	C 	0.57908	0.59302	0.06441	0.135
Mof_C 	C 	0.62611	0.57478	0.00059	0.108
Mof_N 	N 	0.61692	0.73525	0.90904	-0.223
Mof_N 	N 	0.52446	0.60699	0.88715	-0.261
Mof_N 	N 	0.51551	0.65242	0.87497	-0.224
Mof_N 	N 	0.56091	0.65582	0.9204	-0.151
Mof_N 	N 	0.57025	0.69029	0.91034	-0.15
Mof_N 	N 	0.58763	0.67387	0.93887	-0.151
Mof_N 	N 	0.60075	0.62185	0.97432	-0.229
Mof_N 	N 	0.62676	0.59238	0.99881	-0.264
Mof_N 	N 	0.59897	0.62524	0.02009	-0.229
Mof_N 	N 	0.56397	0.59428	0.07831	-0.152
Mof_S 	S 	0.54463	0.57812	0.91304	-0.059
Mof_S 	S 	0.62346	0.54928	0.00216	-0.062
Mof_C 	C 	0.10258	0.21989	0.90972	0.033
Mof_H 	H 	0.0944	0.2173	0.8976	0.014
Mof_C 	C 	0.09914	0.2075	0.92742	-0.046
Mof_C 	C 	0.11072	0.21138	0.94523	0.006
Mof_H 	H 	0.1092	0.203	0.9574	0.038
Mof_C 	C 	0.12482	0.2281	0.94486	-0.1
Mof_H 	H 	0.1324	0.2318	0.9571	0.066
Mof_C 	C 	0.12758	0.23907	0.92686	0.061
Mof_H 	H 	0.1376	0.2501	0.9268	-0
Mof_C 	C 	0.03338	0.09533	0.89774	0.098
Mof_C 	C 	0.01321	0.16843	0.86148	0.057
Mof_H 	H 	0.0032	0.1671	0.8506	-0
Mof_C 	C 	0.02462	0.18666	0.8626	-0.096
Mof_H 	H 	0.022	0.1978	0.8531	0.063
Mof_C 	C 	0.04007	0.18858	0.87779	0.004
Mof_H 	H 	0.0487	0.2007	0.8784	0.038
Mof_C 	C 	0.04249	0.17226	0.8921	-0.045
Mof_C 	C 	0.03001	0.15472	0.89026	0.031
Mof_H 	H 	0.0317	0.1438	0.9002	0.017
Mof_C 	C 	0.05877	0.17282	0.90868	0.134
Mof_C 	C 	0.08461	0.1897	0.92567	0.133
Mof_C 	C 	0.07589	0.15684	0.93511	0.133
Mof_C 	C 	0.09601	0.13822	0.96232	0.039
Mof_H 	H 	0.1042	0.1506	0.9637	0.012
Mof_C 	C 	0.07952	0.13815	0.94779	-0.051
Mof_C 	C 	0.06735	0.1204	0.94589	0.009
Mof_H 	H 	0.0562	0.1197	0.936	0.037
Mof_C 	C 	0.07192	0.10358	0.95891	-0.1
Mof_H 	H 	0.0636	0.0913	0.9584	0.067
Mof_C 	C 	0.0886	0.10489	0.97254	0.061
Mof_H 	H 	0.0916	0.0931	0.9811	0.001
Mof_C 	C 	0.08301	0.13862	0.01763	0.063
Mof_H 	H 	0.0841	0.1489	0.007	-0.001
Mof_C 	C 	0.0654	0.13834	0.0294	-0.103
Mof_H 	H 	0.0545	0.1481	0.0269	0.068
Mof_C 	C 	0.0636	0.12333	0.0453	0.009
Mof_H 	H 	0.0516	0.1229	0.0541	0.037
Mof_C 	C 	0.07984	0.10924	0.04783	-0.052
Mof_C 	C 	0.09731	0.11085	0.03502	0.042
Mof_H 	H 	0.1085	0.1013	0.037	0.011
Mof_C 	C 	0.07908	0.09302	0.06441	0.135
Mof_C 	C 	0.12611	0.07478	0.00059	0.108
Mof_N 	N 	0.11692	0.23525	0.90904	-0.223
Mof_N 	N 	0.02446	0.10699	0.88715	-0.261
Mof_N 	N 	0.01551	0.15242	0.87497	-0.224
Mof_N 	N 	0.06091	0.15582	0.9204	-0.151
Mof_N 	N 	0.07025	0.19029	0.91034	-0.15
Mof_N 	N 	0.08763	0.17387	0.93887	-0.151
Mof_N 	N 	0.10075	0.12185	0.97432	-0.229
Mof_N 	N 	0.12676	0.09238	0.99881	-0.264
Mof_N 	N 	0.09897	0.12524	0.02009	-0.229
Mof_N 	N 	0.06397	0.09428	0.07831	-0.152
Mof_S 	S 	0.04463	0.07812	0.91304	-0.059
Mof_S 	S 	0.12346	0.04928	0.00216	-0.062
Mof_C 	C 	0.10258	0.71989	0.40972	0.033
Mof_H 	H 	0.0944	0.7173	0.3976	0.014
Mof_C 	C 	0.09914	0.7075	0.42742	-0.046
Mof_C 	C 	0.11072	0.71138	0.44523	0.006
Mof_H 	H 	0.1092	0.703	0.4574	0.038
Mof_C 	C 	0.12482	0.7281	0.44486	-0.1
Mof_H 	H 	0.1324	0.7318	0.4571	0.066
Mof_C 	C 	0.12758	0.73907	0.42686	0.061
Mof_H 	H 	0.1376	0.7501	0.4268	-0
Mof_C 	C 	0.03338	0.59533	0.39774	0.098
Mof_C 	C 	0.01321	0.66843	0.36148	0.057
Mof_H 	H 	0.0032	0.6671	0.3506	-0
Mof_C 	C 	0.02462	0.68666	0.3626	-0.096
Mof_H 	H 	0.022	0.6978	0.3531	0.063
Mof_C 	C 	0.04007	0.68858	0.37779	0.004
Mof_H 	H 	0.0487	0.7007	0.3784	0.038
Mof_C 	C 	0.04249	0.67226	0.3921	-0.045
Mof_C 	C 	0.03001	0.65472	0.39026	0.031
Mof_H 	H 	0.0317	0.6438	0.4002	0.017
Mof_C 	C 	0.05877	0.67282	0.40868	0.134
Mof_C 	C 	0.08461	0.6897	0.42567	0.133
Mof_C 	C 	0.07589	0.65684	0.43511	0.133
Mof_C 	C 	0.09601	0.63822	0.46232	0.039
Mof_H 	H 	0.1042	0.6506	0.4637	0.012
Mof_C 	C 	0.07952	0.63815	0.44779	-0.051
Mof_C 	C 	0.06735	0.6204	0.44589	0.009
Mof_H 	H 	0.0562	0.6197	0.436	0.037
Mof_C 	C 	0.07192	0.60358	0.45891	-0.1
Mof_H 	H 	0.0636	0.5913	0.4584	0.067
Mof_C 	C 	0.0886	0.60489	0.47254	0.061
Mof_H 	H 	0.0916	0.5931	0.4811	0.001
Mof_C 	C 	0.08301	0.63862	0.51763	0.063
Mof_H 	H 	0.0841	0.6489	0.507	-0.001
Mof_C 	C 	0.0654	0.63834	0.5294	-0.103
Mof_H 	H 	0.0545	0.6481	0.5269	0.068
Mof_C 	C 	0.0636	0.62333	0.5453	0.009
Mof_H 	H 	0.0516	0.6229	0.5541	0.037
Mof_C 	C 	0.07984	0.60924	0.54783	-0.052
Mof_C 	C 	0.09731	0.61085	0.53502	0.042
Mof_H 	H 	0.1085	0.6013	0.537	0.011
Mof_C 	C 	0.07908	0.59302	0.56441	0.135
Mof_C 	C 	0.12611	0.57478	0.50059	0.108
Mof_N 	N 	0.11692	0.73525	0.40904	-0.223
Mof_N 	N 	0.02446	0.60699	0.38715	-0.261
Mof_N 	N 	0.01551	0.65242	0.37497	-0.224
Mof_N 	N 	0.06091	0.65582	0.4204	-0.151
Mof_N 	N 	0.07025	0.69029	0.41034	-0.15
Mof_N 	N 	0.08763	0.67387	0.43887	-0.151
Mof_N 	N 	0.10075	0.62185	0.47432	-0.229
Mof_N 	N 	0.12676	0.59238	0.49881	-0.264
Mof_N 	N 	0.09897	0.62524	0.52009	-0.229
Mof_N 	N 	0.06397	0.59428	0.57831	-0.152
Mof_S 	S 	0.04463	0.57812	0.41304	-0.059
Mof_S 	S 	0.12346	0.54928	0.50216	-0.062
Mof_C 	C 	0.14742	0.71989	0.84028	0.033
Mof_H 	H 	0.1556	0.7173	0.8524	0.014
Mof_C 	C 	0.15086	0.7075	0.82258	-0.046
Mof_C 	C 	0.13928	0.71138	0.80477	0.006
Mof_H 	H 	0.1408	0.703	0.7926	0.038
Mof_C 	C 	0.12518	0.7281	0.80514	-0.1
Mof_H 	H 	0.1176	0.7318	0.7929	0.066
Mof_C 	C 	0.12242	0.73907	0.82314	0.061
Mof_H 	H 	0.1124	0.7501	0.8232	-0
Mof_C 	C 	0.21662	0.59533	0.85226	0.098
Mof_C 	C 	0.23679	0.66843	0.88852	0.057
Mof_H 	H 	0.2468	0.6671	0.8994	-0
Mof_C 	C 	0.22538	0.68666	0.8874	-0.096
Mof_H 	H 	0.228	0.6978	0.8969	0.063
Mof_C 	C 	0.20993	0.68858	0.87221	0.004
Mof_H 	H 	0.2013	0.7007	0.8716	0.038
Mof_C 	C 	0.20751	0.67226	0.8579	-0.045
Mof_C 	C 	0.21999	0.65472	0.85974	0.031
Mof_H 	H 	0.2183	0.6438	0.8498	0.017
Mof_C 	C 	0.19123	0.67282	0.84132	0.134
Mof_C 	C 	0.16539	0.6897	0.82433	0.133
Mof_C 	C 	0.17411	0.65684	0.81489	0.133
Mof_C 	C 	0.15399	0.63822	0.78768	0.039
Mof_H 	H 	0.1458	0.6506	0.7863	0.012
Mof_C 	C 	0.17048	0.63815	0.80221	-0.051
Mof_C 	C 	0.18265	0.6204	0.80411	0.009
Mof_H 	H 	0.1938	0.6197	0.814	0.037
Mof_C 	C 	0.17808	0.60358	0.79109	-0.1
Mof_H 	H 	0.1864	0.5913	0.7916	0.067
Mof_C 	C 	0.1614	0.60489	0.77746	0.061
Mof_H 	H 	0.1584	0.5931	0.7689	0.001
Mof_C 	C 	0.16699	0.63862	0.73237	0.063
Mof_H 	H 	0.1659	0.6489	0.743	-0.001
Mof_C 	C 	0.1846	0.63834	0.7206	-0.103
Mof_H 	H 	0.1955	0.6481	0.7231	0.068
Mof_C 	C 	0.1864	0.62333	0.7047	0.009
Mof_H 	H 	0.1984	0.6229	0.6959	0.037
Mof_C 	C 	0.17016	0.60924	0.70217	-0.052
Mof_C 	C 	0.15269	0.61085	0.71498	0.042
Mof_H 	H 	0.1415	0.6013	0.713	0.011
Mof_C 	C 	0.17092	0.59302	0.68559	0.135
Mof_C 	C 	0.12389	0.57478	0.74941	0.108
Mof_N 	N 	0.13308	0.73525	0.84096	-0.223
Mof_N 	N 	0.22554	0.60699	0.86285	-0.261
Mof_N 	N 	0.23449	0.65242	0.87503	-0.224
Mof_N 	N 	0.18909	0.65582	0.8296	-0.151
Mof_N 	N 	0.17975	0.69029	0.83966	-0.15
Mof_N 	N 	0.16237	0.67387	0.81113	-0.151
Mof_N 	N 	0.14925	0.62185	0.77568	-0.229
Mof_N 	N 	0.12324	0.59238	0.75119	-0.264
Mof_N 	N 	0.15103	0.62524	0.72991	-0.229
Mof_N 	N 	0.18603	0.59428	0.67169	-0.152
Mof_S 	S 	0.20537	0.57812	0.83696	-0.059
Mof_S 	S 	0.12654	0.54928	0.74784	-0.062
Mof_C 	C 	0.14742	0.21989	0.34028	0.033
Mof_H 	H 	0.1556	0.2173	0.3524	0.014
Mof_C 	C 	0.15086	0.2075	0.32258	-0.046
Mof_C 	C 	0.13928	0.21138	0.30477	0.006
Mof_H 	H 	0.1408	0.203	0.2926	0.038
Mof_C 	C 	0.12518	0.2281	0.30514	-0.1
Mof_H 	H 	0.1176	0.2318	0.2929	0.066
Mof_C 	C 	0.12242	0.23907	0.32314	0.061
Mof_H 	H 	0.1124	0.2501	0.3232	-0
Mof_C 	C 	0.21662	0.09533	0.35226	0.098
Mof_C 	C 	0.23679	0.16843	0.38852	0.057
Mof_H 	H 	0.2468	0.1671	0.3994	-0
Mof_C 	C 	0.22538	0.18666	0.3874	-0.096
Mof_H 	H 	0.228	0.1978	0.3969	0.063
Mof_C 	C 	0.20993	0.18858	0.37221	0.004
Mof_H 	H 	0.2013	0.2007	0.3716	0.038
Mof_C 	C 	0.20751	0.17226	0.3579	-0.045
Mof_C 	C 	0.21999	0.15472	0.35974	0.031
Mof_H 	H 	0.2183	0.1438	0.3498	0.017
Mof_C 	C 	0.19123	0.17282	0.34132	0.134
Mof_C 	C 	0.16539	0.1897	0.32433	0.133
Mof_C 	C 	0.17411	0.15684	0.31489	0.133
Mof_C 	C 	0.15399	0.13822	0.28768	0.039
Mof_H 	H 	0.1458	0.1506	0.2863	0.012
Mof_C 	C 	0.17048	0.13815	0.30221	-0.051
Mof_C 	C 	0.18265	0.1204	0.30411	0.009
Mof_H 	H 	0.1938	0.1197	0.314	0.037
Mof_C 	C 	0.17808	0.10358	0.29109	-0.1
Mof_H 	H 	0.1864	0.0913	0.2916	0.067
Mof_C 	C 	0.1614	0.10489	0.27746	0.061
Mof_H 	H 	0.1584	0.0931	0.2689	0.001
Mof_C 	C 	0.16699	0.13862	0.23237	0.063
Mof_H 	H 	0.1659	0.1489	0.243	-0.001
Mof_C 	C 	0.1846	0.13834	0.2206	-0.103
Mof_H 	H 	0.1955	0.1481	0.2231	0.068
Mof_C 	C 	0.1864	0.12333	0.2047	0.009
Mof_H 	H 	0.1984	0.1229	0.1959	0.037
Mof_C 	C 	0.17016	0.10924	0.20217	-0.052
Mof_C 	C 	0.15269	0.11085	0.21498	0.042
Mof_H 	H 	0.1415	0.1013	0.213	0.011
Mof_C 	C 	0.17092	0.09302	0.18559	0.135
Mof_C 	C 	0.12389	0.07478	0.24941	0.108
Mof_N 	N 	0.13308	0.23525	0.34096	-0.223
Mof_N 	N 	0.22554	0.10699	0.36285	-0.261
Mof_N 	N 	0.23449	0.15242	0.37503	-0.224
Mof_N 	N 	0.18909	0.15582	0.3296	-0.151
Mof_N 	N 	0.17975	0.19029	0.33966	-0.15
Mof_N 	N 	0.16237	0.17387	0.31113	-0.151
Mof_N 	N 	0.14925	0.12185	0.27568	-0.229
Mof_N 	N 	0.12324	0.09238	0.25119	-0.264
Mof_N 	N 	0.15103	0.12524	0.22991	-0.229
Mof_N 	N 	0.18603	0.09428	0.17169	-0.152
Mof_S 	S 	0.20537	0.07812	0.33696	-0.059
Mof_S 	S 	0.12654	0.04928	0.24784	-0.062
Mof_C 	C 	0.64742	0.71989	0.34028	0.033
Mof_H 	H 	0.6556	0.7173	0.3524	0.014
Mof_C 	C 	0.65086	0.7075	0.32258	-0.046
Mof_C 	C 	0.63928	0.71138	0.30477	0.006
Mof_H 	H 	0.6408	0.703	0.2926	0.038
Mof_C 	C 	0.62518	0.7281	0.30514	-0.1
Mof_H 	H 	0.6176	0.7318	0.2929	0.066
Mof_C 	C 	0.62242	0.73907	0.32314	0.061
Mof_H 	H 	0.6124	0.7501	0.3232	-0
Mof_C 	C 	0.71662	0.59533	0.35226	0.098
Mof_C 	C 	0.73679	0.66843	0.38852	0.057
Mof_H 	H 	0.7468	0.6671	0.3994	-0
Mof_C 	C 	0.72538	0.68666	0.3874	-0.096
Mof_H 	H 	0.728	0.6978	0.3969	0.063
Mof_C 	C 	0.70993	0.68858	0.37221	0.004
Mof_H 	H 	0.7013	0.7007	0.3716	0.038
Mof_C 	C 	0.70751	0.67226	0.3579	-0.045
Mof_C 	C 	0.71999	0.65472	0.35974	0.031
Mof_H 	H 	0.7183	0.6438	0.3498	0.017
Mof_C 	C 	0.69123	0.67282	0.34132	0.134
Mof_C 	C 	0.66539	0.6897	0.32433	0.133
Mof_C 	C 	0.67411	0.65684	0.31489	0.133
Mof_C 	C 	0.65399	0.63822	0.28768	0.039
Mof_H 	H 	0.6458	0.6506	0.2863	0.012
Mof_C 	C 	0.67048	0.63815	0.30221	-0.051
Mof_C 	C 	0.68265	0.6204	0.30411	0.009
Mof_H 	H 	0.6938	0.6197	0.314	0.037
Mof_C 	C 	0.67808	0.60358	0.29109	-0.1
Mof_H 	H 	0.6864	0.5913	0.2916	0.067
Mof_C 	C 	0.6614	0.60489	0.27746	0.061
Mof_H 	H 	0.6584	0.5931	0.2689	0.001
Mof_C 	C 	0.66699	0.63862	0.23237	0.063
Mof_H 	H 	0.6659	0.6489	0.243	-0.001
Mof_C 	C 	0.6846	0.63834	0.2206	-0.103
Mof_H 	H 	0.6955	0.6481	0.2231	0.068
Mof_C 	C 	0.6864	0.62333	0.2047	0.009
Mof_H 	H 	0.6984	0.6229	0.1959	0.037
Mof_C 	C 	0.67016	0.60924	0.20217	-0.052
Mof_C 	C 	0.65269	0.61085	0.21498	0.042
Mof_H 	H 	0.6415	0.6013	0.213	0.011
Mof_C 	C 	0.67092	0.59302	0.18559	0.135
Mof_C 	C 	0.62389	0.57478	0.24941	0.108
Mof_N 	N 	0.63308	0.73525	0.34096	-0.223
Mof_N 	N 	0.72554	0.60699	0.36285	-0.261
Mof_N 	N 	0.73449	0.65242	0.37503	-0.224
Mof_N 	N 	0.68909	0.65582	0.3296	-0.151
Mof_N 	N 	0.67975	0.69029	0.33966	-0.15
Mof_N 	N 	0.66237	0.67387	0.31113	-0.151
Mof_N 	N 	0.64925	0.62185	0.27568	-0.229
Mof_N 	N 	0.62324	0.59238	0.25119	-0.264
Mof_N 	N 	0.65103	0.62524	0.22991	-0.229
Mof_N 	N 	0.68603	0.59428	0.17169	-0.152
Mof_S 	S 	0.70537	0.57812	0.33696	-0.059
Mof_S 	S 	0.62654	0.54928	0.24784	-0.062
Mof_C 	C 	0.64742	0.21989	0.84028	0.033
Mof_H 	H 	0.6556	0.2173	0.8524	0.014
Mof_C 	C 	0.65086	0.2075	0.82258	-0.046
Mof_C 	C 	0.63928	0.21138	0.80477	0.006
Mof_H 	H 	0.6408	0.203	0.7926	0.038
Mof_C 	C 	0.62518	0.2281	0.80514	-0.1
Mof_H 	H 	0.6176	0.2318	0.7929	0.066
Mof_C 	C 	0.62242	0.23907	0.82314	0.061
Mof_H 	H 	0.6124	0.2501	0.8232	-0
Mof_C 	C 	0.71662	0.09533	0.85226	0.098
Mof_C 	C 	0.73679	0.16843	0.88852	0.057
Mof_H 	H 	0.7468	0.1671	0.8994	-0
Mof_C 	C 	0.72538	0.18666	0.8874	-0.096
Mof_H 	H 	0.728	0.1978	0.8969	0.063
Mof_C 	C 	0.70993	0.18858	0.87221	0.004
Mof_H 	H 	0.7013	0.2007	0.8716	0.038
Mof_C 	C 	0.70751	0.17226	0.8579	-0.045
Mof_C 	C 	0.71999	0.15472	0.85974	0.031
Mof_H 	H 	0.7183	0.1438	0.8498	0.017
Mof_C 	C 	0.69123	0.17282	0.84132	0.134
Mof_C 	C 	0.66539	0.1897	0.82433	0.133
Mof_C 	C 	0.67411	0.15684	0.81489	0.133
Mof_C 	C 	0.65399	0.13822	0.78768	0.039
Mof_H 	H 	0.6458	0.1506	0.7863	0.012
Mof_C 	C 	0.67048	0.13815	0.80221	-0.051
Mof_C 	C 	0.68265	0.1204	0.80411	0.009
Mof_H 	H 	0.6938	0.1197	0.814	0.037
Mof_C 	C 	0.67808	0.10358	0.79109	-0.1
Mof_H 	H 	0.6864	0.0913	0.7916	0.067
Mof_C 	C 	0.6614	0.10489	0.77746	0.061
Mof_H 	H 	0.6584	0.0931	0.7689	0.001
Mof_C 	C 	0.66699	0.13862	0.73237	0.063
Mof_H 	H 	0.6659	0.1489	0.743	-0.001
Mof_C 	C 	0.6846	0.13834	0.7206	-0.103
Mof_H 	H 	0.6955	0.1481	0.7231	0.068
Mof_C 	C 	0.6864	0.12333	0.7047	0.009
Mof_H 	H 	0.6984	0.1229	0.6959	0.037
Mof_C 	C 	0.67016	0.10924	0.70217	-0.052
Mof_C 	C 	0.65269	0.11085	0.71498	0.042
Mof_H 	H 	0.6415	0.1013	0.713	0.011
Mof_C 	C 	0.67092	0.09302	0.68559	0.135
Mof_C 	C 	0.62389	0.07478	0.74941	0.108
Mof_N 	N 	0.63308	0.23525	0.84096	-0.223
Mof_N 	N 	0.72554	0.10699	0.86285	-0.261
Mof_N 	N 	0.73449	0.15242	0.87503	-0.224
Mof_N 	N 	0.68909	0.15582	0.8296	-0.151
Mof_N 	N 	0.67975	0.19029	0.83966	-0.15
Mof_N 	N 	0.66237	0.17387	0.81113	-0.151
Mof_N 	N 	0.64925	0.12185	0.77568	-0.229
Mof_N 	N 	0.62324	0.09238	0.75119	-0.264
Mof_N 	N 	0.65103	0.12524	0.72991	-0.229
Mof_N 	N 	0.68603	0.09428	0.67169	-0.152
Mof_S 	S 	0.70537	0.07812	0.83696	-0.059
Mof_S 	S 	0.62654	0.04928	0.74784	-0.062
Mof_C 	C 	0.10258	0.03011	0.34028	0.033
Mof_H 	H 	0.0944	0.0327	0.3524	0.014
Mof_C 	C 	0.09914	0.0425	0.32258	-0.046
Mof_C 	C 	0.11072	0.03862	0.30477	0.006
Mof_H 	H 	0.1092	0.047	0.2926	0.038
Mof_C 	C 	0.12482	0.0219	0.30514	-0.1
Mof_H 	H 	0.1324	0.0182	0.2929	0.066
Mof_C 	C 	0.12758	0.01093	0.32314	0.061
Mof_H 	H 	0.1376	0.9999	0.3232	-0
Mof_C 	C 	0.03338	0.15467	0.35226	0.098
Mof_C 	C 	0.01321	0.08157	0.38852	0.057
Mof_H 	H 	0.0032	0.0829	0.3994	-0
Mof_C 	C 	0.02462	0.06334	0.3874	-0.096
Mof_H 	H 	0.022	0.0522	0.3969	0.063
Mof_C 	C 	0.04007	0.06142	0.37221	0.004
Mof_H 	H 	0.0487	0.0493	0.3716	0.038
Mof_C 	C 	0.04249	0.07774	0.3579	-0.045
Mof_C 	C 	0.03001	0.09528	0.35974	0.031
Mof_H 	H 	0.0317	0.1062	0.3498	0.017
Mof_C 	C 	0.05877	0.07718	0.34132	0.134
Mof_C 	C 	0.08461	0.0603	0.32433	0.133
Mof_C 	C 	0.07589	0.09316	0.31489	0.133
Mof_C 	C 	0.09601	0.11178	0.28768	0.039
Mof_H 	H 	0.1042	0.0994	0.2863	0.012
Mof_C 	C 	0.07952	0.11185	0.30221	-0.051
Mof_C 	C 	0.06735	0.1296	0.30411	0.009
Mof_H 	H 	0.0562	0.1303	0.314	0.037
Mof_C 	C 	0.07192	0.14642	0.29109	-0.1
Mof_H 	H 	0.0636	0.1587	0.2916	0.067
Mof_C 	C 	0.0886	0.14511	0.27746	0.061
Mof_H 	H 	0.0916	0.1569	0.2689	0.001
Mof_C 	C 	0.08301	0.11138	0.23237	0.063
Mof_H 	H 	0.0841	0.1011	0.243	-0.001
Mof_C 	C 	0.0654	0.11166	0.2206	-0.103
Mof_H 	H 	0.0545	0.1019	0.2231	0.068
Mof_C 	C 	0.0636	0.12667	0.2047	0.009
Mof_H 	H 	0.0516	0.1271	0.1959	0.037
Mof_C 	C 	0.07984	0.14076	0.20217	-0.052
Mof_C 	C 	0.09731	0.13915	0.21498	0.042
Mof_H 	H 	0.1085	0.1487	0.213	0.011
Mof_C 	C 	0.07908	0.15698	0.18559	0.135
Mof_C 	C 	0.12611	0.17522	0.24941	0.108
Mof_N 	N 	0.11692	0.01475	0.34096	-0.223
Mof_N 	N 	0.02446	0.14301	0.36285	-0.261
Mof_N 	N 	0.01551	0.09758	0.37503	-0.224
Mof_N 	N 	0.06091	0.09418	0.3296	-0.151
Mof_N 	N 	0.07025	0.05971	0.33966	-0.15
Mof_N 	N 	0.08763	0.07613	0.31113	-0.151
Mof_N 	N 	0.10075	0.12815	0.27568	-0.229
Mof_N 	N 	0.12676	0.15762	0.25119	-0.264
Mof_N 	N 	0.09897	0.12476	0.22991	-0.229
Mof_N 	N 	0.06397	0.15572	0.17169	-0.152
Mof_S 	S 	0.04463	0.17188	0.33696	-0.059
Mof_S 	S 	0.12346	0.20072	0.24784	-0.062
Mof_C 	C 	0.10258	0.53011	0.84028	0.033
Mof_H 	H 	0.0944	0.5327	0.8524	0.014
Mof_C 	C 	0.09914	0.5425	0.82258	-0.046
Mof_C 	C 	0.11072	0.53862	0.80477	0.006
Mof_H 	H 	0.1092	0.547	0.7926	0.038
Mof_C 	C 	0.12482	0.5219	0.80514	-0.1
Mof_H 	H 	0.1324	0.5182	0.7929	0.066
Mof_C 	C 	0.12758	0.51093	0.82314	0.061
Mof_H 	H 	0.1376	0.4999	0.8232	-0
Mof_C 	C 	0.03338	0.65467	0.85226	0.098
Mof_C 	C 	0.01321	0.58157	0.88852	0.057
Mof_H 	H 	0.0032	0.5829	0.8994	-0
Mof_C 	C 	0.02462	0.56334	0.8874	-0.096
Mof_H 	H 	0.022	0.5522	0.8969	0.063
Mof_C 	C 	0.04007	0.56142	0.87221	0.004
Mof_H 	H 	0.0487	0.5493	0.8716	0.038
Mof_C 	C 	0.04249	0.57774	0.8579	-0.045
Mof_C 	C 	0.03001	0.59528	0.85974	0.031
Mof_H 	H 	0.0317	0.6062	0.8498	0.017
Mof_C 	C 	0.05877	0.57718	0.84132	0.134
Mof_C 	C 	0.08461	0.5603	0.82433	0.133
Mof_C 	C 	0.07589	0.59316	0.81489	0.133
Mof_C 	C 	0.09601	0.61178	0.78768	0.039
Mof_H 	H 	0.1042	0.5994	0.7863	0.012
Mof_C 	C 	0.07952	0.61185	0.80221	-0.051
Mof_C 	C 	0.06735	0.6296	0.80411	0.009
Mof_H 	H 	0.0562	0.6303	0.814	0.037
Mof_C 	C 	0.07192	0.64642	0.79109	-0.1
Mof_H 	H 	0.0636	0.6587	0.7916	0.067
Mof_C 	C 	0.0886	0.64511	0.77746	0.061
Mof_H 	H 	0.0916	0.6569	0.7689	0.001
Mof_C 	C 	0.08301	0.61138	0.73237	0.063
Mof_H 	H 	0.0841	0.6011	0.743	-0.001
Mof_C 	C 	0.0654	0.61166	0.7206	-0.103
Mof_H 	H 	0.0545	0.6019	0.7231	0.068
Mof_C 	C 	0.0636	0.62667	0.7047	0.009
Mof_H 	H 	0.0516	0.6271	0.6959	0.037
Mof_C 	C 	0.07984	0.64076	0.70217	-0.052
Mof_C 	C 	0.09731	0.63915	0.71498	0.042
Mof_H 	H 	0.1085	0.6487	0.713	0.011
Mof_C 	C 	0.07908	0.65698	0.68559	0.135
Mof_C 	C 	0.12611	0.67522	0.74941	0.108
Mof_N 	N 	0.11692	0.51475	0.84096	-0.223
Mof_N 	N 	0.02446	0.64301	0.86285	-0.261
Mof_N 	N 	0.01551	0.59758	0.87503	-0.224
Mof_N 	N 	0.06091	0.59418	0.8296	-0.151
Mof_N 	N 	0.07025	0.55971	0.83966	-0.15
Mof_N 	N 	0.08763	0.57613	0.81113	-0.151
Mof_N 	N 	0.10075	0.62815	0.77568	-0.229
Mof_N 	N 	0.12676	0.65762	0.75119	-0.264
Mof_N 	N 	0.09897	0.62476	0.72991	-0.229
Mof_N 	N 	0.06397	0.65572	0.67169	-0.152
Mof_S 	S 	0.04463	0.67188	0.83696	-0.059
Mof_S 	S 	0.12346	0.70072	0.74784	-0.062
Mof_C 	C 	0.60258	0.03011	0.84028	0.033
Mof_H 	H 	0.5944	0.0327	0.8524	0.014
Mof_C 	C 	0.59914	0.0425	0.82258	-0.046
Mof_C 	C 	0.61072	0.03862	0.80477	0.006
Mof_H 	H 	0.6092	0.047	0.7926	0.038
Mof_C 	C 	0.62482	0.0219	0.80514	-0.1
Mof_H 	H 	0.6324	0.0182	0.7929	0.066
Mof_C 	C 	0.62758	0.01093	0.82314	0.061
Mof_H 	H 	0.6376	0.9999	0.8232	-0
Mof_C 	C 	0.53338	0.15467	0.85226	0.098
Mof_C 	C 	0.51321	0.08157	0.88852	0.057
Mof_H 	H 	0.5032	0.0829	0.8994	-0
Mof_C 	C 	0.52462	0.06334	0.8874	-0.096
Mof_H 	H 	0.522	0.0522	0.8969	0.063
Mof_C 	C 	0.54007	0.06142	0.87221	0.004
Mof_H 	H 	0.5487	0.0493	0.8716	0.038
Mof_C 	C 	0.54249	0.07774	0.8579	-0.045
Mof_C 	C 	0.53001	0.09528	0.85974	0.031
Mof_H 	H 	0.5317	0.1062	0.8498	0.017
Mof_C 	C 	0.55877	0.07718	0.84132	0.134
Mof_C 	C 	0.58461	0.0603	0.82433	0.133
Mof_C 	C 	0.57589	0.09316	0.81489	0.133
Mof_C 	C 	0.59601	0.11178	0.78768	0.039
Mof_H 	H 	0.6042	0.0994	0.7863	0.012
Mof_C 	C 	0.57952	0.11185	0.80221	-0.051
Mof_C 	C 	0.56735	0.1296	0.80411	0.009
Mof_H 	H 	0.5562	0.1303	0.814	0.037
Mof_C 	C 	0.57192	0.14642	0.79109	-0.1
Mof_H 	H 	0.5636	0.1587	0.7916	0.067
Mof_C 	C 	0.5886	0.14511	0.77746	0.061
Mof_H 	H 	0.5916	0.1569	0.7689	0.001
Mof_C 	C 	0.58301	0.11138	0.73237	0.063
Mof_H 	H 	0.5841	0.1011	0.743	-0.001
Mof_C 	C 	0.5654	0.11166	0.7206	-0.103
Mof_H 	H 	0.5545	0.1019	0.7231	0.068
Mof_C 	C 	0.5636	0.12667	0.7047	0.009
Mof_H 	H 	0.5516	0.1271	0.6959	0.037
Mof_C 	C 	0.57984	0.14076	0.70217	-0.052
Mof_C 	C 	0.59731	0.13915	0.71498	0.042
Mof_H 	H 	0.6085	0.1487	0.713	0.011
Mof_C 	C 	0.57908	0.15698	0.68559	0.135
Mof_C 	C 	0.62611	0.17522	0.74941	0.108
Mof_N 	N 	0.61692	0.01475	0.84096	-0.223
Mof_N 	N 	0.52446	0.14301	0.86285	-0.261
Mof_N 	N 	0.51551	0.09758	0.87503	-0.224
Mof_N 	N 	0.56091	0.09418	0.8296	-0.151
Mof_N 	N 	0.57025	0.05971	0.83966	-0.15
Mof_N 	N 	0.58763	0.07613	0.81113	-0.151
Mof_N 	N 	0.60075	0.12815	0.77568	-0.229
Mof_N 	N 	0.62676	0.15762	0.75119	-0.264
Mof_N 	N 	0.59897	0.12476	0.72991	-0.229
Mof_N 	N 	0.56397	0.15572	0.67169	-0.152
Mof_S 	S 	0.54463	0.17188	0.83696	-0.059
Mof_S 	S 	0.62346	0.20072	0.74784	-0.062
Mof_C 	C 	0.60258	0.53011	0.34028	0.033
Mof_H 	H 	0.5944	0.5327	0.3524	0.014
Mof_C 	C 	0.59914	0.5425	0.32258	-0.046
Mof_C 	C 	0.61072	0.53862	0.30477	0.006
Mof_H 	H 	0.6092	0.547	0.2926	0.038
Mof_C 	C 	0.62482	0.5219	0.30514	-0.1
Mof_H 	H 	0.6324	0.5182	0.2929	0.066
Mof_C 	C 	0.62758	0.51093	0.32314	0.061
Mof_H 	H 	0.6376	0.4999	0.3232	-0
Mof_C 	C 	0.53338	0.65467	0.35226	0.098
Mof_C 	C 	0.51321	0.58157	0.38852	0.057
Mof_H 	H 	0.5032	0.5829	0.3994	-0
Mof_C 	C 	0.52462	0.56334	0.3874	-0.096
Mof_H 	H 	0.522	0.5522	0.3969	0.063
Mof_C 	C 	0.54007	0.56142	0.37221	0.004
Mof_H 	H 	0.5487	0.5493	0.3716	0.038
Mof_C 	C 	0.54249	0.57774	0.3579	-0.045
Mof_C 	C 	0.53001	0.59528	0.35974	0.031
Mof_H 	H 	0.5317	0.6062	0.3498	0.017
Mof_C 	C 	0.55877	0.57718	0.34132	0.134
Mof_C 	C 	0.58461	0.5603	0.32433	0.133
Mof_C 	C 	0.57589	0.59316	0.31489	0.133
Mof_C 	C 	0.59601	0.61178	0.28768	0.039
Mof_H 	H 	0.6042	0.5994	0.2863	0.012
Mof_C 	C 	0.57952	0.61185	0.30221	-0.051
Mof_C 	C 	0.56735	0.6296	0.30411	0.009
Mof_H 	H 	0.5562	0.6303	0.314	0.037
Mof_C 	C 	0.57192	0.64642	0.29109	-0.1
Mof_H 	H 	0.5636	0.6587	0.2916	0.067
Mof_C 	C 	0.5886	0.64511	0.27746	0.061
Mof_H 	H 	0.5916	0.6569	0.2689	0.001
Mof_C 	C 	0.58301	0.61138	0.23237	0.063
Mof_H 	H 	0.5841	0.6011	0.243	-0.001
Mof_C 	C 	0.5654	0.61166	0.2206	-0.103
Mof_H 	H 	0.5545	0.6019	0.2231	0.068
Mof_C 	C 	0.5636	0.62667	0.2047	0.009
Mof_H 	H 	0.5516	0.6271	0.1959	0.037
Mof_C 	C 	0.57984	0.64076	0.20217	-0.052
Mof_C 	C 	0.59731	0.63915	0.21498	0.042
Mof_H 	H 	0.6085	0.6487	0.213	0.011
Mof_C 	C 	0.57908	0.65698	0.18559	0.135
Mof_C 	C 	0.62611	0.67522	0.24941	0.108
Mof_N 	N 	0.61692	0.51475	0.34096	-0.223
Mof_N 	N 	0.52446	0.64301	0.36285	-0.261
Mof_N 	N 	0.51551	0.59758	0.37503	-0.224
Mof_N 	N 	0.56091	0.59418	0.3296	-0.151
Mof_N 	N 	0.57025	0.55971	0.33966	-0.15
Mof_N 	N 	0.58763	0.57613	0.31113	-0.151
Mof_N 	N 	0.60075	0.62815	0.27568	-0.229
Mof_N 	N 	0.62676	0.65762	0.25119	-0.264
Mof_N 	N 	0.59897	0.62476	0.22991	-0.229
Mof_N 	N 	0.56397	0.65572	0.17169	-0.152
Mof_S 	S 	0.54463	0.67188	0.33696	-0.059
Mof_S 	S 	0.62346	0.70072	0.24784	-0.062
Mof_C 	C 	0.64742	0.53011	0.90972	0.033
Mof_H 	H 	0.6556	0.5327	0.8976	0.014
Mof_C 	C 	0.65086	0.5425	0.92742	-0.046
Mof_C 	C 	0.63928	0.53862	0.94523	0.006
Mof_H 	H 	0.6408	0.547	0.9574	0.038
Mof_C 	C 	0.62518	0.5219	0.94486	-0.1
Mof_H 	H 	0.6176	0.5182	0.9571	0.066
Mof_C 	C 	0.62242	0.51093	0.92686	0.061
Mof_H 	H 	0.6124	0.4999	0.9268	-0
Mof_C 	C 	0.71662	0.65467	0.89774	0.098
Mof_C 	C 	0.73679	0.58157	0.86148	0.057
Mof_H 	H 	0.7468	0.5829	0.8506	-0
Mof_C 	C 	0.72538	0.56334	0.8626	-0.096
Mof_H 	H 	0.728	0.5522	0.8531	0.063
Mof_C 	C 	0.70993	0.56142	0.87779	0.004
Mof_H 	H 	0.7013	0.5493	0.8784	0.038
Mof_C 	C 	0.70751	0.57774	0.8921	-0.045
Mof_C 	C 	0.71999	0.59528	0.89026	0.031
Mof_H 	H 	0.7183	0.6062	0.9002	0.017
Mof_C 	C 	0.69123	0.57718	0.90868	0.134
Mof_C 	C 	0.66539	0.5603	0.92567	0.133
Mof_C 	C 	0.67411	0.59316	0.93511	0.133
Mof_C 	C 	0.65399	0.61178	0.96232	0.039
Mof_H 	H 	0.6458	0.5994	0.9637	0.012
Mof_C 	C 	0.67048	0.61185	0.94779	-0.051
Mof_C 	C 	0.68265	0.6296	0.94589	0.009
Mof_H 	H 	0.6938	0.6303	0.936	0.037
Mof_C 	C 	0.67808	0.64642	0.95891	-0.1
Mof_H 	H 	0.6864	0.6587	0.9584	0.067
Mof_C 	C 	0.6614	0.64511	0.97254	0.061
Mof_H 	H 	0.6584	0.6569	0.9811	0.001
Mof_C 	C 	0.66699	0.61138	0.01763	0.063
Mof_H 	H 	0.6659	0.6011	0.007	-0.001
Mof_C 	C 	0.6846	0.61166	0.0294	-0.103
Mof_H 	H 	0.6955	0.6019	0.0269	0.068
Mof_C 	C 	0.6864	0.62667	0.0453	0.009
Mof_H 	H 	0.6984	0.6271	0.0541	0.037
Mof_C 	C 	0.67016	0.64076	0.04783	-0.052
Mof_C 	C 	0.65269	0.63915	0.03502	0.042
Mof_H 	H 	0.6415	0.6487	0.037	0.011
Mof_C 	C 	0.67092	0.65698	0.06441	0.135
Mof_C 	C 	0.62389	0.67522	0.00059	0.108
Mof_N 	N 	0.63308	0.51475	0.90904	-0.223
Mof_N 	N 	0.72554	0.64301	0.88715	-0.261
Mof_N 	N 	0.73449	0.59758	0.87497	-0.224
Mof_N 	N 	0.68909	0.59418	0.9204	-0.151
Mof_N 	N 	0.67975	0.55971	0.91034	-0.15
Mof_N 	N 	0.66237	0.57613	0.93887	-0.151
Mof_N 	N 	0.64925	0.62815	0.97432	-0.229
Mof_N 	N 	0.62324	0.65762	0.99881	-0.264
Mof_N 	N 	0.65103	0.62476	0.02009	-0.229
Mof_N 	N 	0.68603	0.65572	0.07831	-0.152
Mof_S 	S 	0.70537	0.67188	0.91304	-0.059
Mof_S 	S 	0.62654	0.70072	0.00216	-0.062
Mof_C 	C 	0.64742	0.03011	0.40972	0.033
Mof_H 	H 	0.6556	0.0327	0.3976	0.014
Mof_C 	C 	0.65086	0.0425	0.42742	-0.046
Mof_C 	C 	0.63928	0.03862	0.44523	0.006
Mof_H 	H 	0.6408	0.047	0.4574	0.038
Mof_C 	C 	0.62518	0.0219	0.44486	-0.1
Mof_H 	H 	0.6176	0.0182	0.4571	0.066
Mof_C 	C 	0.62242	0.01093	0.42686	0.061
Mof_H 	H 	0.6124	0.9999	0.4268	-0
Mof_C 	C 	0.71662	0.15467	0.39774	0.098
Mof_C 	C 	0.73679	0.08157	0.36148	0.057
Mof_H 	H 	0.7468	0.0829	0.3506	-0
Mof_C 	C 	0.72538	0.06334	0.3626	-0.096
Mof_H 	H 	0.728	0.0522	0.3531	0.063
Mof_C 	C 	0.70993	0.06142	0.37779	0.004
Mof_H 	H 	0.7013	0.0493	0.3784	0.038
Mof_C 	C 	0.70751	0.07774	0.3921	-0.045
Mof_C 	C 	0.71999	0.09528	0.39026	0.031
Mof_H 	H 	0.7183	0.1062	0.4002	0.017
Mof_C 	C 	0.69123	0.07718	0.40868	0.134
Mof_C 	C 	0.66539	0.0603	0.42567	0.133
Mof_C 	C 	0.67411	0.09316	0.43511	0.133
Mof_C 	C 	0.65399	0.11178	0.46232	0.039
Mof_H 	H 	0.6458	0.0994	0.4637	0.012
Mof_C 	C 	0.67048	0.11185	0.44779	-0.051
Mof_C 	C 	0.68265	0.1296	0.44589	0.009
Mof_H 	H 	0.6938	0.1303	0.436	0.037
Mof_C 	C 	0.67808	0.14642	0.45891	-0.1
Mof_H 	H 	0.6864	0.1587	0.4584	0.067
Mof_C 	C 	0.6614	0.14511	0.47254	0.061
Mof_H 	H 	0.6584	0.1569	0.4811	0.001
Mof_C 	C 	0.66699	0.11138	0.51763	0.063
Mof_H 	H 	0.6659	0.1011	0.507	-0.001
Mof_C 	C 	0.6846	0.11166	0.5294	-0.103
Mof_H 	H 	0.6955	0.1019	0.5269	0.068
Mof_C 	C 	0.6864	0.12667	0.5453	0.009
Mof_H 	H 	0.6984	0.1271	0.5541	0.037
Mof_C 	C 	0.67016	0.14076	0.54783	-0.052
Mof_C 	C 	0.65269	0.13915	0.53502	0.042
Mof_H 	H 	0.6415	0.1487	0.537	0.011
Mof_C 	C 	0.67092	0.15698	0.56441	0.135
Mof_C 	C 	0.62389	0.17522	0.50059	0.108
Mof_N 	N 	0.63308	0.01475	0.40904	-0.223
Mof_N 	N 	0.72554	0.14301	0.38715	-0.261
Mof_N 	N 	0.73449	0.09758	0.37497	-0.224
Mof_N 	N 	0.68909	0.09418	0.4204	-0.151
Mof_N 	N 	0.67975	0.05971	0.41034	-0.15
Mof_N 	N 	0.66237	0.07613	0.43887	-0.151
Mof_N 	N 	0.64925	0.12815	0.47432	-0.229
Mof_N 	N 	0.62324	0.15762	0.49881	-0.264
Mof_N 	N 	0.65103	0.12476	0.52009	-0.229
Mof_N 	N 	0.68603	0.15572	0.57831	-0.152
Mof_S 	S 	0.70537	0.17188	0.41304	-0.059
Mof_S 	S 	0.62654	0.20072	0.50216	-0.062
Mof_C 	C 	0.14742	0.53011	0.40972	0.033
Mof_H 	H 	0.1556	0.5327	0.3976	0.014
Mof_C 	C 	0.15086	0.5425	0.42742	-0.046
Mof_C 	C 	0.13928	0.53862	0.44523	0.006
Mof_H 	H 	0.1408	0.547	0.4574	0.038
Mof_C 	C 	0.12518	0.5219	0.44486	-0.1
Mof_H 	H 	0.1176	0.5182	0.4571	0.066
Mof_C 	C 	0.12242	0.51093	0.42686	0.061
Mof_H 	H 	0.1124	0.4999	0.4268	-0
Mof_C 	C 	0.21662	0.65467	0.39774	0.098
Mof_C 	C 	0.23679	0.58157	0.36148	0.057
Mof_H 	H 	0.2468	0.5829	0.3506	-0
Mof_C 	C 	0.22538	0.56334	0.3626	-0.096
Mof_H 	H 	0.228	0.5522	0.3531	0.063
Mof_C 	C 	0.20993	0.56142	0.37779	0.004
Mof_H 	H 	0.2013	0.5493	0.3784	0.038
Mof_C 	C 	0.20751	0.57774	0.3921	-0.045
Mof_C 	C 	0.21999	0.59528	0.39026	0.031
Mof_H 	H 	0.2183	0.6062	0.4002	0.017
Mof_C 	C 	0.19123	0.57718	0.40868	0.134
Mof_C 	C 	0.16539	0.5603	0.42567	0.133
Mof_C 	C 	0.17411	0.59316	0.43511	0.133
Mof_C 	C 	0.15399	0.61178	0.46232	0.039
Mof_H 	H 	0.1458	0.5994	0.4637	0.012
Mof_C 	C 	0.17048	0.61185	0.44779	-0.051
Mof_C 	C 	0.18265	0.6296	0.44589	0.009
Mof_H 	H 	0.1938	0.6303	0.436	0.037
Mof_C 	C 	0.17808	0.64642	0.45891	-0.1
Mof_H 	H 	0.1864	0.6587	0.4584	0.067
Mof_C 	C 	0.1614	0.64511	0.47254	0.061
Mof_H 	H 	0.1584	0.6569	0.4811	0.001
Mof_C 	C 	0.16699	0.61138	0.51763	0.063
Mof_H 	H 	0.1659	0.6011	0.507	-0.001
Mof_C 	C 	0.1846	0.61166	0.5294	-0.103
Mof_H 	H 	0.1955	0.6019	0.5269	0.068
Mof_C 	C 	0.1864	0.62667	0.5453	0.009
Mof_H 	H 	0.1984	0.6271	0.5541	0.037
Mof_C 	C 	0.17016	0.64076	0.54783	-0.052
Mof_C 	C 	0.15269	0.63915	0.53502	0.042
Mof_H 	H 	0.1415	0.6487	0.537	0.011
Mof_C 	C 	0.17092	0.65698	0.56441	0.135
Mof_C 	C 	0.12389	0.67522	0.50059	0.108
Mof_N 	N 	0.13308	0.51475	0.40904	-0.223
Mof_N 	N 	0.22554	0.64301	0.38715	-0.261
Mof_N 	N 	0.23449	0.59758	0.37497	-0.224
Mof_N 	N 	0.18909	0.59418	0.4204	-0.151
Mof_N 	N 	0.17975	0.55971	0.41034	-0.15
Mof_N 	N 	0.16237	0.57613	0.43887	-0.151
Mof_N 	N 	0.14925	0.62815	0.47432	-0.229
Mof_N 	N 	0.12324	0.65762	0.49881	-0.264
Mof_N 	N 	0.15103	0.62476	0.52009	-0.229
Mof_N 	N 	0.18603	0.65572	0.57831	-0.152
Mof_S 	S 	0.20537	0.67188	0.41304	-0.059
Mof_S 	S 	0.12654	0.70072	0.50216	-0.062
Mof_C 	C 	0.14742	0.03011	0.90972	0.033
Mof_H 	H 	0.1556	0.0327	0.8976	0.014
Mof_C 	C 	0.15086	0.0425	0.92742	-0.046
Mof_C 	C 	0.13928	0.03862	0.94523	0.006
Mof_H 	H 	0.1408	0.047	0.9574	0.038
Mof_C 	C 	0.12518	0.0219	0.94486	-0.1
Mof_H 	H 	0.1176	0.0182	0.9571	0.066
Mof_C 	C 	0.12242	0.01093	0.92686	0.061
Mof_H 	H 	0.1124	0.9999	0.9268	-0
Mof_C 	C 	0.21662	0.15467	0.89774	0.098
Mof_C 	C 	0.23679	0.08157	0.86148	0.057
Mof_H 	H 	0.2468	0.0829	0.8506	-0
Mof_C 	C 	0.22538	0.06334	0.8626	-0.096
Mof_H 	H 	0.228	0.0522	0.8531	0.063
Mof_C 	C 	0.20993	0.06142	0.87779	0.004
Mof_H 	H 	0.2013	0.0493	0.8784	0.038
Mof_C 	C 	0.20751	0.07774	0.8921	-0.045
Mof_C 	C 	0.21999	0.09528	0.89026	0.031
Mof_H 	H 	0.2183	0.1062	0.9002	0.017
Mof_C 	C 	0.19123	0.07718	0.90868	0.134
Mof_C 	C 	0.16539	0.0603	0.92567	0.133
Mof_C 	C 	0.17411	0.09316	0.93511	0.133
Mof_C 	C 	0.15399	0.11178	0.96232	0.039
Mof_H 	H 	0.1458	0.0994	0.9637	0.012
Mof_C 	C 	0.17048	0.11185	0.94779	-0.051
Mof_C 	C 	0.18265	0.1296	0.94589	0.009
Mof_H 	H 	0.1938	0.1303	0.936	0.037
Mof_C 	C 	0.17808	0.14642	0.95891	-0.1
Mof_H 	H 	0.1864	0.1587	0.9584	0.067
Mof_C 	C 	0.1614	0.14511	0.97254	0.061
Mof_H 	H 	0.1584	0.1569	0.9811	0.001
Mof_C 	C 	0.16699	0.11138	0.01763	0.063
Mof_H 	H 	0.1659	0.1011	0.007	-0.001
Mof_C 	C 	0.1846	0.11166	0.0294	-0.103
Mof_H 	H 	0.1955	0.1019	0.0269	0.068
Mof_C 	C 	0.1864	0.12667	0.0453	0.009
Mof_H 	H 	0.1984	0.1271	0.0541	0.037
Mof_C 	C 	0.17016	0.14076	0.04783	-0.052
Mof_C 	C 	0.15269	0.13915	0.03502	0.042
Mof_H 	H 	0.1415	0.1487	0.037	0.011
Mof_C 	C 	0.17092	0.15698	0.06441	0.135
Mof_C 	C 	0.12389	0.17522	0.00059	0.108
Mof_N 	N 	0.13308	0.01475	0.90904	-0.223
Mof_N 	N 	0.22554	0.14301	0.88715	-0.261
Mof_N 	N 	0.23449	0.09758	0.87497	-0.224
Mof_N 	N 	0.18909	0.09418	0.9204	-0.151
Mof_N 	N 	0.17975	0.05971	0.91034	-0.15
Mof_N 	N 	0.16237	0.07613	0.93887	-0.151
Mof_N 	N 	0.14925	0.12815	0.97432	-0.229
Mof_N 	N 	0.12324	0.15762	0.99881	-0.264
Mof_N 	N 	0.15103	0.12476	0.02009	-0.229
Mof_N 	N 	0.18603	0.15572	0.07831	-0.152
Mof_S 	S 	0.20537	0.17188	0.91304	-0.059
Mof_S 	S 	0.12654	0.20072	0.00216	-0.062
Mof_C 	C 	0.35258	0.65972	0.78011	0.033
Mof_H 	H 	0.3444	0.6476	0.7827	0.014
Mof_C 	C 	0.34914	0.67742	0.7925	-0.046
Mof_C 	C 	0.36072	0.69523	0.78862	0.006
Mof_H 	H 	0.3592	0.7074	0.797	0.038
Mof_C 	C 	0.37482	0.69486	0.7719	-0.1
Mof_H 	H 	0.3824	0.7071	0.7682	0.066
Mof_C 	C 	0.37758	0.67686	0.76093	0.061
Mof_H 	H 	0.3876	0.6768	0.7499	-0
Mof_C 	C 	0.28338	0.64774	0.90467	0.098
Mof_C 	C 	0.26321	0.61148	0.83157	0.057
Mof_H 	H 	0.2532	0.6006	0.8329	-0
Mof_C 	C 	0.27462	0.6126	0.81334	-0.096
Mof_H 	H 	0.272	0.6031	0.8022	0.063
Mof_C 	C 	0.29007	0.62779	0.81142	0.004
Mof_H 	H 	0.2987	0.6284	0.7993	0.038
Mof_C 	C 	0.29249	0.6421	0.82774	-0.045
Mof_C 	C 	0.28001	0.64026	0.84528	0.031
Mof_H 	H 	0.2817	0.6502	0.8562	0.017
Mof_C 	C 	0.30877	0.65868	0.82718	0.134
Mof_C 	C 	0.33461	0.67567	0.8103	0.133
Mof_C 	C 	0.32589	0.68511	0.84316	0.133
Mof_C 	C 	0.34601	0.71232	0.86178	0.039
Mof_H 	H 	0.3542	0.7137	0.8494	0.012
Mof_C 	C 	0.32952	0.69779	0.86185	-0.051
Mof_C 	C 	0.31735	0.69589	0.8796	0.009
Mof_H 	H 	0.3062	0.686	0.8803	0.037
Mof_C 	C 	0.32192	0.70891	0.89642	-0.1
Mof_H 	H 	0.3136	0.7084	0.9087	0.067
Mof_C 	C 	0.3386	0.72254	0.89511	0.061
Mof_H 	H 	0.3416	0.7311	0.9069	0.001
Mof_C 	C 	0.33301	0.76763	0.86138	0.063
Mof_H 	H 	0.3341	0.757	0.8511	-0.001
Mof_C 	C 	0.3154	0.7794	0.86166	-0.103
Mof_H 	H 	0.3045	0.7769	0.8519	0.068
Mof_C 	C 	0.3136	0.7953	0.87667	0.009
Mof_H 	H 	0.3016	0.8041	0.8771	0.037
Mof_C 	C 	0.32984	0.79783	0.89076	-0.052
Mof_C 	C 	0.34731	0.78502	0.88915	0.042
Mof_H 	H 	0.3585	0.787	0.8987	0.011
Mof_C 	C 	0.32908	0.81441	0.90698	0.135
Mof_C 	C 	0.37611	0.75059	0.92522	0.108
Mof_N 	N 	0.36692	0.65904	0.76475	-0.223
Mof_N 	N 	0.27446	0.63715	0.89301	-0.261
Mof_N 	N 	0.26551	0.62497	0.84758	-0.224
Mof_N 	N 	0.31091	0.6704	0.84418	-0.151
Mof_N 	N 	0.32025	0.66034	0.80971	-0.15
Mof_N 	N 	0.33763	0.68887	0.82613	-0.151
Mof_N 	N 	0.35075	0.72432	0.87815	-0.229
Mof_N 	N 	0.37676	0.74881	0.90762	-0.264
Mof_N 	N 	0.34897	0.77009	0.87476	-0.229
Mof_N 	N 	0.31397	0.82831	0.90572	-0.152
Mof_S 	S 	0.29463	0.66304	0.92188	-0.059
Mof_S 	S 	0.37346	0.75216	0.95072	-0.062
Mof_C 	C 	0.35258	0.15972	0.28011	0.033
Mof_H 	H 	0.3444	0.1476	0.2827	0.014
Mof_C 	C 	0.34914	0.17742	0.2925	-0.046
Mof_C 	C 	0.36072	0.19523	0.28862	0.006
Mof_H 	H 	0.3592	0.2074	0.297	0.038
Mof_C 	C 	0.37482	0.19486	0.2719	-0.1
Mof_H 	H 	0.3824	0.2071	0.2682	0.066
Mof_C 	C 	0.37758	0.17686	0.26093	0.061
Mof_H 	H 	0.3876	0.1768	0.2499	-0
Mof_C 	C 	0.28338	0.14774	0.40467	0.098
Mof_C 	C 	0.26321	0.11148	0.33157	0.057
Mof_H 	H 	0.2532	0.1006	0.3329	-0
Mof_C 	C 	0.27462	0.1126	0.31334	-0.096
Mof_H 	H 	0.272	0.1031	0.3022	0.063
Mof_C 	C 	0.29007	0.12779	0.31142	0.004
Mof_H 	H 	0.2987	0.1284	0.2993	0.038
Mof_C 	C 	0.29249	0.1421	0.32774	-0.045
Mof_C 	C 	0.28001	0.14026	0.34528	0.031
Mof_H 	H 	0.2817	0.1502	0.3562	0.017
Mof_C 	C 	0.30877	0.15868	0.32718	0.134
Mof_C 	C 	0.33461	0.17567	0.3103	0.133
Mof_C 	C 	0.32589	0.18511	0.34316	0.133
Mof_C 	C 	0.34601	0.21232	0.36178	0.039
Mof_H 	H 	0.3542	0.2137	0.3494	0.012
Mof_C 	C 	0.32952	0.19779	0.36185	-0.051
Mof_C 	C 	0.31735	0.19589	0.3796	0.009
Mof_H 	H 	0.3062	0.186	0.3803	0.037
Mof_C 	C 	0.32192	0.20891	0.39642	-0.1
Mof_H 	H 	0.3136	0.2084	0.4087	0.067
Mof_C 	C 	0.3386	0.22254	0.39511	0.061
Mof_H 	H 	0.3416	0.2311	0.4069	0.001
Mof_C 	C 	0.33301	0.26763	0.36138	0.063
Mof_H 	H 	0.3341	0.257	0.3511	-0.001
Mof_C 	C 	0.3154	0.2794	0.36166	-0.103
Mof_H 	H 	0.3045	0.2769	0.3519	0.068
Mof_C 	C 	0.3136	0.2953	0.37667	0.009
Mof_H 	H 	0.3016	0.3041	0.3771	0.037
Mof_C 	C 	0.32984	0.29783	0.39076	-0.052
Mof_C 	C 	0.34731	0.28502	0.38915	0.042
Mof_H 	H 	0.3585	0.287	0.3987	0.011
Mof_C 	C 	0.32908	0.31441	0.40698	0.135
Mof_C 	C 	0.37611	0.25059	0.42522	0.108
Mof_N 	N 	0.36692	0.15904	0.26475	-0.223
Mof_N 	N 	0.27446	0.13715	0.39301	-0.261
Mof_N 	N 	0.26551	0.12497	0.34758	-0.224
Mof_N 	N 	0.31091	0.1704	0.34418	-0.151
Mof_N 	N 	0.32025	0.16034	0.30971	-0.15
Mof_N 	N 	0.33763	0.18887	0.32613	-0.151
Mof_N 	N 	0.35075	0.22432	0.37815	-0.229
Mof_N 	N 	0.37676	0.24881	0.40762	-0.264
Mof_N 	N 	0.34897	0.27009	0.37476	-0.229
Mof_N 	N 	0.31397	0.32831	0.40572	-0.152
Mof_S 	S 	0.29463	0.16304	0.42188	-0.059
Mof_S 	S 	0.37346	0.25216	0.45072	-0.062
Mof_C 	C 	0.85258	0.65972	0.28011	0.033
Mof_H 	H 	0.8444	0.6476	0.2827	0.014
Mof_C 	C 	0.84914	0.67742	0.2925	-0.046
Mof_C 	C 	0.86072	0.69523	0.28862	0.006
Mof_H 	H 	0.8592	0.7074	0.297	0.038
Mof_C 	C 	0.87482	0.69486	0.2719	-0.1
Mof_H 	H 	0.8824	0.7071	0.2682	0.066
Mof_C 	C 	0.87758	0.67686	0.26093	0.061
Mof_H 	H 	0.8876	0.6768	0.2499	-0
Mof_C 	C 	0.78338	0.64774	0.40467	0.098
Mof_C 	C 	0.76321	0.61148	0.33157	0.057
Mof_H 	H 	0.7532	0.6006	0.3329	-0
Mof_C 	C 	0.77462	0.6126	0.31334	-0.096
Mof_H 	H 	0.772	0.6031	0.3022	0.063
Mof_C 	C 	0.79007	0.62779	0.31142	0.004
Mof_H 	H 	0.7987	0.6284	0.2993	0.038
Mof_C 	C 	0.79249	0.6421	0.32774	-0.045
Mof_C 	C 	0.78001	0.64026	0.34528	0.031
Mof_H 	H 	0.7817	0.6502	0.3562	0.017
Mof_C 	C 	0.80877	0.65868	0.32718	0.134
Mof_C 	C 	0.83461	0.67567	0.3103	0.133
Mof_C 	C 	0.82589	0.68511	0.34316	0.133
Mof_C 	C 	0.84601	0.71232	0.36178	0.039
Mof_H 	H 	0.8542	0.7137	0.3494	0.012
Mof_C 	C 	0.82952	0.69779	0.36185	-0.051
Mof_C 	C 	0.81735	0.69589	0.3796	0.009
Mof_H 	H 	0.8062	0.686	0.3803	0.037
Mof_C 	C 	0.82192	0.70891	0.39642	-0.1
Mof_H 	H 	0.8136	0.7084	0.4087	0.067
Mof_C 	C 	0.8386	0.72254	0.39511	0.061
Mof_H 	H 	0.8416	0.7311	0.4069	0.001
Mof_C 	C 	0.83301	0.76763	0.36138	0.063
Mof_H 	H 	0.8341	0.757	0.3511	-0.001
Mof_C 	C 	0.8154	0.7794	0.36166	-0.103
Mof_H 	H 	0.8045	0.7769	0.3519	0.068
Mof_C 	C 	0.8136	0.7953	0.37667	0.009
Mof_H 	H 	0.8016	0.8041	0.3771	0.037
Mof_C 	C 	0.82984	0.79783	0.39076	-0.052
Mof_C 	C 	0.84731	0.78502	0.38915	0.042
Mof_H 	H 	0.8585	0.787	0.3987	0.011
Mof_C 	C 	0.82908	0.81441	0.40698	0.135
Mof_C 	C 	0.87611	0.75059	0.42522	0.108
Mof_N 	N 	0.86692	0.65904	0.26475	-0.223
Mof_N 	N 	0.77446	0.63715	0.39301	-0.261
Mof_N 	N 	0.76551	0.62497	0.34758	-0.224
Mof_N 	N 	0.81091	0.6704	0.34418	-0.151
Mof_N 	N 	0.82025	0.66034	0.30971	-0.15
Mof_N 	N 	0.83763	0.68887	0.32613	-0.151
Mof_N 	N 	0.85075	0.72432	0.37815	-0.229
Mof_N 	N 	0.87676	0.74881	0.40762	-0.264
Mof_N 	N 	0.84897	0.77009	0.37476	-0.229
Mof_N 	N 	0.81397	0.82831	0.40572	-0.152
Mof_S 	S 	0.79463	0.66304	0.42188	-0.059
Mof_S 	S 	0.87346	0.75216	0.45072	-0.062
Mof_C 	C 	0.85258	0.15972	0.78011	0.033
Mof_H 	H 	0.8444	0.1476	0.7827	0.014
Mof_C 	C 	0.84914	0.17742	0.7925	-0.046
Mof_C 	C 	0.86072	0.19523	0.78862	0.006
Mof_H 	H 	0.8592	0.2074	0.797	0.038
Mof_C 	C 	0.87482	0.19486	0.7719	-0.1
Mof_H 	H 	0.8824	0.2071	0.7682	0.066
Mof_C 	C 	0.87758	0.17686	0.76093	0.061
Mof_H 	H 	0.8876	0.1768	0.7499	-0
Mof_C 	C 	0.78338	0.14774	0.90467	0.098
Mof_C 	C 	0.76321	0.11148	0.83157	0.057
Mof_H 	H 	0.7532	0.1006	0.8329	-0
Mof_C 	C 	0.77462	0.1126	0.81334	-0.096
Mof_H 	H 	0.772	0.1031	0.8022	0.063
Mof_C 	C 	0.79007	0.12779	0.81142	0.004
Mof_H 	H 	0.7987	0.1284	0.7993	0.038
Mof_C 	C 	0.79249	0.1421	0.82774	-0.045
Mof_C 	C 	0.78001	0.14026	0.84528	0.031
Mof_H 	H 	0.7817	0.1502	0.8562	0.017
Mof_C 	C 	0.80877	0.15868	0.82718	0.134
Mof_C 	C 	0.83461	0.17567	0.8103	0.133
Mof_C 	C 	0.82589	0.18511	0.84316	0.133
Mof_C 	C 	0.84601	0.21232	0.86178	0.039
Mof_H 	H 	0.8542	0.2137	0.8494	0.012
Mof_C 	C 	0.82952	0.19779	0.86185	-0.051
Mof_C 	C 	0.81735	0.19589	0.8796	0.009
Mof_H 	H 	0.8062	0.186	0.8803	0.037
Mof_C 	C 	0.82192	0.20891	0.89642	-0.1
Mof_H 	H 	0.8136	0.2084	0.9087	0.067
Mof_C 	C 	0.8386	0.22254	0.89511	0.061
Mof_H 	H 	0.8416	0.2311	0.9069	0.001
Mof_C 	C 	0.83301	0.26763	0.86138	0.063
Mof_H 	H 	0.8341	0.257	0.8511	-0.001
Mof_C 	C 	0.8154	0.2794	0.86166	-0.103
Mof_H 	H 	0.8045	0.2769	0.8519	0.068
Mof_C 	C 	0.8136	0.2953	0.87667	0.009
Mof_H 	H 	0.8016	0.3041	0.8771	0.037
Mof_C 	C 	0.82984	0.29783	0.89076	-0.052
Mof_C 	C 	0.84731	0.28502	0.88915	0.042
Mof_H 	H 	0.8585	0.287	0.8987	0.011
Mof_C 	C 	0.82908	0.31441	0.90698	0.135
Mof_C 	C 	0.87611	0.25059	0.92522	0.108
Mof_N 	N 	0.86692	0.15904	0.76475	-0.223
Mof_N 	N 	0.77446	0.13715	0.89301	-0.261
Mof_N 	N 	0.76551	0.12497	0.84758	-0.224
Mof_N 	N 	0.81091	0.1704	0.84418	-0.151
Mof_N 	N 	0.82025	0.16034	0.80971	-0.15
Mof_N 	N 	0.83763	0.18887	0.82613	-0.151
Mof_N 	N 	0.85075	0.22432	0.87815	-0.229
Mof_N 	N 	0.87676	0.24881	0.90762	-0.264
Mof_N 	N 	0.84897	0.27009	0.87476	-0.229
Mof_N 	N 	0.81397	0.32831	0.90572	-0.152
Mof_S 	S 	0.79463	0.16304	0.92188	-0.059
Mof_S 	S 	0.87346	0.25216	0.95072	-0.062
Mof_C 	C 	0.89742	0.09028	0.28011	0.033
Mof_H 	H 	0.9056	0.1024	0.2827	0.014
Mof_C 	C 	0.90086	0.07258	0.2925	-0.046
Mof_C 	C 	0.88928	0.05477	0.28862	0.006
Mof_H 	H 	0.8908	0.0426	0.297	0.038
Mof_C 	C 	0.87518	0.05514	0.2719	-0.1
Mof_H 	H 	0.8676	0.0429	0.2682	0.066
Mof_C 	C 	0.87242	0.07314	0.26093	0.061
Mof_H 	H 	0.8624	0.0732	0.2499	-0
Mof_C 	C 	0.96662	0.10226	0.40467	0.098
Mof_C 	C 	0.98679	0.13852	0.33157	0.057
Mof_H 	H 	0.9968	0.1494	0.3329	-0
Mof_C 	C 	0.97538	0.1374	0.31334	-0.096
Mof_H 	H 	0.978	0.1469	0.3022	0.063
Mof_C 	C 	0.95993	0.12221	0.31142	0.004
Mof_H 	H 	0.9513	0.1216	0.2993	0.038
Mof_C 	C 	0.95751	0.1079	0.32774	-0.045
Mof_C 	C 	0.96999	0.10974	0.34528	0.031
Mof_H 	H 	0.9683	0.0998	0.3562	0.017
Mof_C 	C 	0.94123	0.09132	0.32718	0.134
Mof_C 	C 	0.91539	0.07433	0.3103	0.133
Mof_C 	C 	0.92411	0.06489	0.34316	0.133
Mof_C 	C 	0.90399	0.03768	0.36178	0.039
Mof_H 	H 	0.8958	0.0363	0.3494	0.012
Mof_C 	C 	0.92048	0.05221	0.36185	-0.051
Mof_C 	C 	0.93265	0.05411	0.3796	0.009
Mof_H 	H 	0.9438	0.064	0.3803	0.037
Mof_C 	C 	0.92808	0.04109	0.39642	-0.1
Mof_H 	H 	0.9364	0.0416	0.4087	0.067
Mof_C 	C 	0.9114	0.02746	0.39511	0.061
Mof_H 	H 	0.9084	0.0189	0.4069	0.001
Mof_C 	C 	0.91699	0.98237	0.36138	0.063
Mof_H 	H 	0.9159	0.993	0.3511	-0.001
Mof_C 	C 	0.9346	0.9706	0.36166	-0.103
Mof_H 	H 	0.9455	0.9731	0.3519	0.068
Mof_C 	C 	0.9364	0.9547	0.37667	0.009
Mof_H 	H 	0.9484	0.9459	0.3771	0.037
Mof_C 	C 	0.92016	0.95217	0.39076	-0.052
Mof_C 	C 	0.90269	0.96498	0.38915	0.042
Mof_H 	H 	0.8915	0.963	0.3987	0.011
Mof_C 	C 	0.92092	0.93559	0.40698	0.135
Mof_C 	C 	0.87389	0.99941	0.42522	0.108
Mof_N 	N 	0.88308	0.09096	0.26475	-0.223
Mof_N 	N 	0.97554	0.11285	0.39301	-0.261
Mof_N 	N 	0.98449	0.12503	0.34758	-0.224
Mof_N 	N 	0.93909	0.0796	0.34418	-0.151
Mof_N 	N 	0.92975	0.08966	0.30971	-0.15
Mof_N 	N 	0.91237	0.06113	0.32613	-0.151
Mof_N 	N 	0.89925	0.02568	0.37815	-0.229
Mof_N 	N 	0.87324	0.00119	0.40762	-0.264
Mof_N 	N 	0.90103	0.97991	0.37476	-0.229
Mof_N 	N 	0.93603	0.92169	0.40572	-0.152
Mof_S 	S 	0.95537	0.08696	0.42188	-0.059
Mof_S 	S 	0.87654	0.99784	0.45072	-0.062
Mof_C 	C 	0.89742	0.59028	0.78011	0.033
Mof_H 	H 	0.9056	0.6024	0.7827	0.014
Mof_C 	C 	0.90086	0.57258	0.7925	-0.046
Mof_C 	C 	0.88928	0.55477	0.78862	0.006
Mof_H 	H 	0.8908	0.5426	0.797	0.038
Mof_C 	C 	0.87518	0.55514	0.7719	-0.1
Mof_H 	H 	0.8676	0.5429	0.7682	0.066
Mof_C 	C 	0.87242	0.57314	0.76093	0.061
Mof_H 	H 	0.8624	0.5732	0.7499	-0
Mof_C 	C 	0.96662	0.60226	0.90467	0.098
Mof_C 	C 	0.98679	0.63852	0.83157	0.057
Mof_H 	H 	0.9968	0.6494	0.8329	-0
Mof_C 	C 	0.97538	0.6374	0.81334	-0.096
Mof_H 	H 	0.978	0.6469	0.8022	0.063
Mof_C 	C 	0.95993	0.62221	0.81142	0.004
Mof_H 	H 	0.9513	0.6216	0.7993	0.038
Mof_C 	C 	0.95751	0.6079	0.82774	-0.045
Mof_C 	C 	0.96999	0.60974	0.84528	0.031
Mof_H 	H 	0.9683	0.5998	0.8562	0.017
Mof_C 	C 	0.94123	0.59132	0.82718	0.134
Mof_C 	C 	0.91539	0.57433	0.8103	0.133
Mof_C 	C 	0.92411	0.56489	0.84316	0.133
Mof_C 	C 	0.90399	0.53768	0.86178	0.039
Mof_H 	H 	0.8958	0.5363	0.8494	0.012
Mof_C 	C 	0.92048	0.55221	0.86185	-0.051
Mof_C 	C 	0.93265	0.55411	0.8796	0.009
Mof_H 	H 	0.9438	0.564	0.8803	0.037
Mof_C 	C 	0.92808	0.54109	0.89642	-0.1
Mof_H 	H 	0.9364	0.5416	0.9087	0.067
Mof_C 	C 	0.9114	0.52746	0.89511	0.061
Mof_H 	H 	0.9084	0.5189	0.9069	0.001
Mof_C 	C 	0.91699	0.48237	0.86138	0.063
Mof_H 	H 	0.9159	0.493	0.8511	-0.001
Mof_C 	C 	0.9346	0.4706	0.86166	-0.103
Mof_H 	H 	0.9455	0.4731	0.8519	0.068
Mof_C 	C 	0.9364	0.4547	0.87667	0.009
Mof_H 	H 	0.9484	0.4459	0.8771	0.037
Mof_C 	C 	0.92016	0.45217	0.89076	-0.052
Mof_C 	C 	0.90269	0.46498	0.88915	0.042
Mof_H 	H 	0.8915	0.463	0.8987	0.011
Mof_C 	C 	0.92092	0.43559	0.90698	0.135
Mof_C 	C 	0.87389	0.49941	0.92522	0.108
Mof_N 	N 	0.88308	0.59096	0.76475	-0.223
Mof_N 	N 	0.97554	0.61285	0.89301	-0.261
Mof_N 	N 	0.98449	0.62503	0.84758	-0.224
Mof_N 	N 	0.93909	0.5796	0.84418	-0.151
Mof_N 	N 	0.92975	0.58966	0.80971	-0.15
Mof_N 	N 	0.91237	0.56113	0.82613	-0.151
Mof_N 	N 	0.89925	0.52568	0.87815	-0.229
Mof_N 	N 	0.87324	0.50119	0.90762	-0.264
Mof_N 	N 	0.90103	0.47991	0.87476	-0.229
Mof_N 	N 	0.93603	0.42169	0.90572	-0.152
Mof_S 	S 	0.95537	0.58696	0.92188	-0.059
Mof_S 	S 	0.87654	0.49784	0.95072	-0.062
Mof_C 	C 	0.39742	0.09028	0.78011	0.033
Mof_H 	H 	0.4056	0.1024	0.7827	0.014
Mof_C 	C 	0.40086	0.07258	0.7925	-0.046
Mof_C 	C 	0.38928	0.05477	0.78862	0.006
Mof_H 	H 	0.3908	0.0426	0.797	0.038
Mof_C 	C 	0.37518	0.05514	0.7719	-0.1
Mof_H 	H 	0.3676	0.0429	0.7682	0.066
Mof_C 	C 	0.37242	0.07314	0.76093	0.061
Mof_H 	H 	0.3624	0.0732	0.7499	-0
Mof_C 	C 	0.46662	0.10226	0.90467	0.098
Mof_C 	C 	0.48679	0.13852	0.83157	0.057
Mof_H 	H 	0.4968	0.1494	0.8329	-0
Mof_C 	C 	0.47538	0.1374	0.81334	-0.096
Mof_H 	H 	0.478	0.1469	0.8022	0.063
Mof_C 	C 	0.45993	0.12221	0.81142	0.004
Mof_H 	H 	0.4513	0.1216	0.7993	0.038
Mof_C 	C 	0.45751	0.1079	0.82774	-0.045
Mof_C 	C 	0.46999	0.10974	0.84528	0.031
Mof_H 	H 	0.4683	0.0998	0.8562	0.017
Mof_C 	C 	0.44123	0.09132	0.82718	0.134
Mof_C 	C 	0.41539	0.07433	0.8103	0.133
Mof_C 	C 	0.42411	0.06489	0.84316	0.133
Mof_C 	C 	0.40399	0.03768	0.86178	0.039
Mof_H 	H 	0.3958	0.0363	0.8494	0.012
Mof_C 	C 	0.42048	0.05221	0.86185	-0.051
Mof_C 	C 	0.43265	0.05411	0.8796	0.009
Mof_H 	H 	0.4438	0.064	0.8803	0.037
Mof_C 	C 	0.42808	0.04109	0.89642	-0.1
Mof_H 	H 	0.4364	0.0416	0.9087	0.067
Mof_C 	C 	0.4114	0.02746	0.89511	0.061
Mof_H 	H 	0.4084	0.0189	0.9069	0.001
Mof_C 	C 	0.41699	0.98237	0.86138	0.063
Mof_H 	H 	0.4159	0.993	0.8511	-0.001
Mof_C 	C 	0.4346	0.9706	0.86166	-0.103
Mof_H 	H 	0.4455	0.9731	0.8519	0.068
Mof_C 	C 	0.4364	0.9547	0.87667	0.009
Mof_H 	H 	0.4484	0.9459	0.8771	0.037
Mof_C 	C 	0.42016	0.95217	0.89076	-0.052
Mof_C 	C 	0.40269	0.96498	0.88915	0.042
Mof_H 	H 	0.3915	0.963	0.8987	0.011
Mof_C 	C 	0.42092	0.93559	0.90698	0.135
Mof_C 	C 	0.37389	0.99941	0.92522	0.108
Mof_N 	N 	0.38308	0.09096	0.76475	-0.223
Mof_N 	N 	0.47554	0.11285	0.89301	-0.261
Mof_N 	N 	0.48449	0.12503	0.84758	-0.224
Mof_N 	N 	0.43909	0.0796	0.84418	-0.151
Mof_N 	N 	0.42975	0.08966	0.80971	-0.15
Mof_N 	N 	0.41237	0.06113	0.82613	-0.151
Mof_N 	N 	0.39925	0.02568	0.87815	-0.229
Mof_N 	N 	0.37324	0.00119	0.90762	-0.264
Mof_N 	N 	0.40103	0.97991	0.87476	-0.229
Mof_N 	N 	0.43603	0.92169	0.90572	-0.152
Mof_S 	S 	0.45537	0.08696	0.92188	-0.059
Mof_S 	S 	0.37654	0.99784	0.95072	-0.062
Mof_C 	C 	0.39742	0.59028	0.28011	0.033
Mof_H 	H 	0.4056	0.6024	0.2827	0.014
Mof_C 	C 	0.40086	0.57258	0.2925	-0.046
Mof_C 	C 	0.38928	0.55477	0.28862	0.006
Mof_H 	H 	0.3908	0.5426	0.297	0.038
Mof_C 	C 	0.37518	0.55514	0.2719	-0.1
Mof_H 	H 	0.3676	0.5429	0.2682	0.066
Mof_C 	C 	0.37242	0.57314	0.26093	0.061
Mof_H 	H 	0.3624	0.5732	0.2499	-0
Mof_C 	C 	0.46662	0.60226	0.40467	0.098
Mof_C 	C 	0.48679	0.63852	0.33157	0.057
Mof_H 	H 	0.4968	0.6494	0.3329	-0
Mof_C 	C 	0.47538	0.6374	0.31334	-0.096
Mof_H 	H 	0.478	0.6469	0.3022	0.063
Mof_C 	C 	0.45993	0.62221	0.31142	0.004
Mof_H 	H 	0.4513	0.6216	0.2993	0.038
Mof_C 	C 	0.45751	0.6079	0.32774	-0.045
Mof_C 	C 	0.46999	0.60974	0.34528	0.031
Mof_H 	H 	0.4683	0.5998	0.3562	0.017
Mof_C 	C 	0.44123	0.59132	0.32718	0.134
Mof_C 	C 	0.41539	0.57433	0.3103	0.133
Mof_C 	C 	0.42411	0.56489	0.34316	0.133
Mof_C 	C 	0.40399	0.53768	0.36178	0.039
Mof_H 	H 	0.3958	0.5363	0.3494	0.012
Mof_C 	C 	0.42048	0.55221	0.36185	-0.051
Mof_C 	C 	0.43265	0.55411	0.3796	0.009
Mof_H 	H 	0.4438	0.564	0.3803	0.037
Mof_C 	C 	0.42808	0.54109	0.39642	-0.1
Mof_H 	H 	0.4364	0.5416	0.4087	0.067
Mof_C 	C 	0.4114	0.52746	0.39511	0.061
Mof_H 	H 	0.4084	0.5189	0.4069	0.001
Mof_C 	C 	0.41699	0.48237	0.36138	0.063
Mof_H 	H 	0.4159	0.493	0.3511	-0.001
Mof_C 	C 	0.4346	0.4706	0.36166	-0.103
Mof_H 	H 	0.4455	0.4731	0.3519	0.068
Mof_C 	C 	0.4364	0.4547	0.37667	0.009
Mof_H 	H 	0.4484	0.4459	0.3771	0.037
Mof_C 	C 	0.42016	0.45217	0.39076	-0.052
Mof_C 	C 	0.40269	0.46498	0.38915	0.042
Mof_H 	H 	0.3915	0.463	0.3987	0.011
Mof_C 	C 	0.42092	0.43559	0.40698	0.135
Mof_C 	C 	0.37389	0.49941	0.42522	0.108
Mof_N 	N 	0.38308	0.59096	0.26475	-0.223
Mof_N 	N 	0.47554	0.61285	0.39301	-0.261
Mof_N 	N 	0.48449	0.62503	0.34758	-0.224
Mof_N 	N 	0.43909	0.5796	0.34418	-0.151
Mof_N 	N 	0.42975	0.58966	0.30971	-0.15
Mof_N 	N 	0.41237	0.56113	0.32613	-0.151
Mof_N 	N 	0.39925	0.52568	0.37815	-0.229
Mof_N 	N 	0.37324	0.50119	0.40762	-0.264
Mof_N 	N 	0.40103	0.47991	0.37476	-0.229
Mof_N 	N 	0.43603	0.42169	0.40572	-0.152
Mof_S 	S 	0.45537	0.58696	0.42188	-0.059
Mof_S 	S 	0.37654	0.49784	0.45072	-0.062
Mof_C 	C 	0.85258	0.59028	0.96989	0.033
Mof_H 	H 	0.8444	0.6024	0.9673	0.014
Mof_C 	C 	0.84914	0.57258	0.9575	-0.046
Mof_C 	C 	0.86072	0.55477	0.96138	0.006
Mof_H 	H 	0.8592	0.5426	0.953	0.038
Mof_C 	C 	0.87482	0.55514	0.9781	-0.1
Mof_H 	H 	0.8824	0.5429	0.9818	0.066
Mof_C 	C 	0.87758	0.57314	0.98907	0.061
Mof_H 	H 	0.8876	0.5732	0.0001	-0
Mof_C 	C 	0.78338	0.60226	0.84533	0.098
Mof_C 	C 	0.76321	0.63852	0.91843	0.057
Mof_H 	H 	0.7532	0.6494	0.9171	-0
Mof_C 	C 	0.77462	0.6374	0.93666	-0.096
Mof_H 	H 	0.772	0.6469	0.9478	0.063
Mof_C 	C 	0.79007	0.62221	0.93858	0.004
Mof_H 	H 	0.7987	0.6216	0.9507	0.038
Mof_C 	C 	0.79249	0.6079	0.92226	-0.045
Mof_C 	C 	0.78001	0.60974	0.90472	0.031
Mof_H 	H 	0.7817	0.5998	0.8938	0.017
Mof_C 	C 	0.80877	0.59132	0.92282	0.134
Mof_C 	C 	0.83461	0.57433	0.9397	0.133
Mof_C 	C 	0.82589	0.56489	0.90684	0.133
Mof_C 	C 	0.84601	0.53768	0.88822	0.039
Mof_H 	H 	0.8542	0.5363	0.9006	0.012
Mof_C 	C 	0.82952	0.55221	0.88815	-0.051
Mof_C 	C 	0.81735	0.55411	0.8704	0.009
Mof_H 	H 	0.8062	0.564	0.8697	0.037
Mof_C 	C 	0.82192	0.54109	0.85358	-0.1
Mof_H 	H 	0.8136	0.5416	0.8413	0.067
Mof_C 	C 	0.8386	0.52746	0.85489	0.061
Mof_H 	H 	0.8416	0.5189	0.8431	0.001
Mof_C 	C 	0.83301	0.48237	0.88862	0.063
Mof_H 	H 	0.8341	0.493	0.8989	-0.001
Mof_C 	C 	0.8154	0.4706	0.88834	-0.103
Mof_H 	H 	0.8045	0.4731	0.8981	0.068
Mof_C 	C 	0.8136	0.4547	0.87333	0.009
Mof_H 	H 	0.8016	0.4459	0.8729	0.037
Mof_C 	C 	0.82984	0.45217	0.85924	-0.052
Mof_C 	C 	0.84731	0.46498	0.86085	0.042
Mof_H 	H 	0.8585	0.463	0.8513	0.011
Mof_C 	C 	0.82908	0.43559	0.84302	0.135
Mof_C 	C 	0.87611	0.49941	0.82478	0.108
Mof_N 	N 	0.86692	0.59096	0.98525	-0.223
Mof_N 	N 	0.77446	0.61285	0.85699	-0.261
Mof_N 	N 	0.76551	0.62503	0.90242	-0.224
Mof_N 	N 	0.81091	0.5796	0.90582	-0.151
Mof_N 	N 	0.82025	0.58966	0.94029	-0.15
Mof_N 	N 	0.83763	0.56113	0.92387	-0.151
Mof_N 	N 	0.85075	0.52568	0.87185	-0.229
Mof_N 	N 	0.87676	0.50119	0.84238	-0.264
Mof_N 	N 	0.84897	0.47991	0.87524	-0.229
Mof_N 	N 	0.81397	0.42169	0.84428	-0.152
Mof_S 	S 	0.79463	0.58696	0.82812	-0.059
Mof_S 	S 	0.87346	0.49784	0.79928	-0.062
Mof_C 	C 	0.85258	0.09028	0.46989	0.033
Mof_H 	H 	0.8444	0.1024	0.4673	0.014
Mof_C 	C 	0.84914	0.07258	0.4575	-0.046
Mof_C 	C 	0.86072	0.05477	0.46138	0.006
Mof_H 	H 	0.8592	0.0426	0.453	0.038
Mof_C 	C 	0.87482	0.05514	0.4781	-0.1
Mof_H 	H 	0.8824	0.0429	0.4818	0.066
Mof_C 	C 	0.87758	0.07314	0.48907	0.061
Mof_H 	H 	0.8876	0.0732	0.5001	-0
Mof_C 	C 	0.78338	0.10226	0.34533	0.098
Mof_C 	C 	0.76321	0.13852	0.41843	0.057
Mof_H 	H 	0.7532	0.1494	0.4171	-0
Mof_C 	C 	0.77462	0.1374	0.43666	-0.096
Mof_H 	H 	0.772	0.1469	0.4478	0.063
Mof_C 	C 	0.79007	0.12221	0.43858	0.004
Mof_H 	H 	0.7987	0.1216	0.4507	0.038
Mof_C 	C 	0.79249	0.1079	0.42226	-0.045
Mof_C 	C 	0.78001	0.10974	0.40472	0.031
Mof_H 	H 	0.7817	0.0998	0.3938	0.017
Mof_C 	C 	0.80877	0.09132	0.42282	0.134
Mof_C 	C 	0.83461	0.07433	0.4397	0.133
Mof_C 	C 	0.82589	0.06489	0.40684	0.133
Mof_C 	C 	0.84601	0.03768	0.38822	0.039
Mof_H 	H 	0.8542	0.0363	0.4006	0.012
Mof_C 	C 	0.82952	0.05221	0.38815	-0.051
Mof_C 	C 	0.81735	0.05411	0.3704	0.009
Mof_H 	H 	0.8062	0.064	0.3697	0.037
Mof_C 	C 	0.82192	0.04109	0.35358	-0.1
Mof_H 	H 	0.8136	0.0416	0.3413	0.067
Mof_C 	C 	0.8386	0.02746	0.35489	0.061
Mof_H 	H 	0.8416	0.0189	0.3431	0.001
Mof_C 	C 	0.83301	0.98237	0.38862	0.063
Mof_H 	H 	0.8341	0.993	0.3989	-0.001
Mof_C 	C 	0.8154	0.9706	0.38834	-0.103
Mof_H 	H 	0.8045	0.9731	0.3981	0.068
Mof_C 	C 	0.8136	0.9547	0.37333	0.009
Mof_H 	H 	0.8016	0.9459	0.3729	0.037
Mof_C 	C 	0.82984	0.95217	0.35924	-0.052
Mof_C 	C 	0.84731	0.96498	0.36085	0.042
Mof_H 	H 	0.8585	0.963	0.3513	0.011
Mof_C 	C 	0.82908	0.93559	0.34302	0.135
Mof_C 	C 	0.87611	0.99941	0.32478	0.108
Mof_N 	N 	0.86692	0.09096	0.48525	-0.223
Mof_N 	N 	0.77446	0.11285	0.35699	-0.261
Mof_N 	N 	0.76551	0.12503	0.40242	-0.224
Mof_N 	N 	0.81091	0.0796	0.40582	-0.151
Mof_N 	N 	0.82025	0.08966	0.44029	-0.15
Mof_N 	N 	0.83763	0.06113	0.42387	-0.151
Mof_N 	N 	0.85075	0.02568	0.37185	-0.229
Mof_N 	N 	0.87676	0.00119	0.34238	-0.264
Mof_N 	N 	0.84897	0.97991	0.37524	-0.229
Mof_N 	N 	0.81397	0.92169	0.34428	-0.152
Mof_S 	S 	0.79463	0.08696	0.32812	-0.059
Mof_S 	S 	0.87346	0.99784	0.29928	-0.062
Mof_C 	C 	0.35258	0.59028	0.46989	0.033
Mof_H 	H 	0.3444	0.6024	0.4673	0.014
Mof_C 	C 	0.34914	0.57258	0.4575	-0.046
Mof_C 	C 	0.36072	0.55477	0.46138	0.006
Mof_H 	H 	0.3592	0.5426	0.453	0.038
Mof_C 	C 	0.37482	0.55514	0.4781	-0.1
Mof_H 	H 	0.3824	0.5429	0.4818	0.066
Mof_C 	C 	0.37758	0.57314	0.48907	0.061
Mof_H 	H 	0.3876	0.5732	0.5001	-0
Mof_C 	C 	0.28338	0.60226	0.34533	0.098
Mof_C 	C 	0.26321	0.63852	0.41843	0.057
Mof_H 	H 	0.2532	0.6494	0.4171	-0
Mof_C 	C 	0.27462	0.6374	0.43666	-0.096
Mof_H 	H 	0.272	0.6469	0.4478	0.063
Mof_C 	C 	0.29007	0.62221	0.43858	0.004
Mof_H 	H 	0.2987	0.6216	0.4507	0.038
Mof_C 	C 	0.29249	0.6079	0.42226	-0.045
Mof_C 	C 	0.28001	0.60974	0.40472	0.031
Mof_H 	H 	0.2817	0.5998	0.3938	0.017
Mof_C 	C 	0.30877	0.59132	0.42282	0.134
Mof_C 	C 	0.33461	0.57433	0.4397	0.133
Mof_C 	C 	0.32589	0.56489	0.40684	0.133
Mof_C 	C 	0.34601	0.53768	0.38822	0.039
Mof_H 	H 	0.3542	0.5363	0.4006	0.012
Mof_C 	C 	0.32952	0.55221	0.38815	-0.051
Mof_C 	C 	0.31735	0.55411	0.3704	0.009
Mof_H 	H 	0.3062	0.564	0.3697	0.037
Mof_C 	C 	0.32192	0.54109	0.35358	-0.1
Mof_H 	H 	0.3136	0.5416	0.3413	0.067
Mof_C 	C 	0.3386	0.52746	0.35489	0.061
Mof_H 	H 	0.3416	0.5189	0.3431	0.001
Mof_C 	C 	0.33301	0.48237	0.38862	0.063
Mof_H 	H 	0.3341	0.493	0.3989	-0.001
Mof_C 	C 	0.3154	0.4706	0.38834	-0.103
Mof_H 	H 	0.3045	0.4731	0.3981	0.068
Mof_C 	C 	0.3136	0.4547	0.37333	0.009
Mof_H 	H 	0.3016	0.4459	0.3729	0.037
Mof_C 	C 	0.32984	0.45217	0.35924	-0.052
Mof_C 	C 	0.34731	0.46498	0.36085	0.042
Mof_H 	H 	0.3585	0.463	0.3513	0.011
Mof_C 	C 	0.32908	0.43559	0.34302	0.135
Mof_C 	C 	0.37611	0.49941	0.32478	0.108
Mof_N 	N 	0.36692	0.59096	0.48525	-0.223
Mof_N 	N 	0.27446	0.61285	0.35699	-0.261
Mof_N 	N 	0.26551	0.62503	0.40242	-0.224
Mof_N 	N 	0.31091	0.5796	0.40582	-0.151
Mof_N 	N 	0.32025	0.58966	0.44029	-0.15
Mof_N 	N 	0.33763	0.56113	0.42387	-0.151
Mof_N 	N 	0.35075	0.52568	0.37185	-0.229
Mof_N 	N 	0.37676	0.50119	0.34238	-0.264
Mof_N 	N 	0.34897	0.47991	0.37524	-0.229
Mof_N 	N 	0.31397	0.42169	0.34428	-0.152
Mof_S 	S 	0.29463	0.58696	0.32812	-0.059
Mof_S 	S 	0.37346	0.49784	0.29928	-0.062
Mof_C 	C 	0.35258	0.09028	0.96989	0.033
Mof_H 	H 	0.3444	0.1024	0.9673	0.014
Mof_C 	C 	0.34914	0.07258	0.9575	-0.046
Mof_C 	C 	0.36072	0.05477	0.96138	0.006
Mof_H 	H 	0.3592	0.0426	0.953	0.038
Mof_C 	C 	0.37482	0.05514	0.9781	-0.1
Mof_H 	H 	0.3824	0.0429	0.9818	0.066
Mof_C 	C 	0.37758	0.07314	0.98907	0.061
Mof_H 	H 	0.3876	0.0732	0.0001	-0
Mof_C 	C 	0.28338	0.10226	0.84533	0.098
Mof_C 	C 	0.26321	0.13852	0.91843	0.057
Mof_H 	H 	0.2532	0.1494	0.9171	-0
Mof_C 	C 	0.27462	0.1374	0.93666	-0.096
Mof_H 	H 	0.272	0.1469	0.9478	0.063
Mof_C 	C 	0.29007	0.12221	0.93858	0.004
Mof_H 	H 	0.2987	0.1216	0.9507	0.038
Mof_C 	C 	0.29249	0.1079	0.92226	-0.045
Mof_C 	C 	0.28001	0.10974	0.90472	0.031
Mof_H 	H 	0.2817	0.0998	0.8938	0.017
Mof_C 	C 	0.30877	0.09132	0.92282	0.134
Mof_C 	C 	0.33461	0.07433	0.9397	0.133
Mof_C 	C 	0.32589	0.06489	0.90684	0.133
Mof_C 	C 	0.34601	0.03768	0.88822	0.039
Mof_H 	H 	0.3542	0.0363	0.9006	0.012
Mof_C 	C 	0.32952	0.05221	0.88815	-0.051
Mof_C 	C 	0.31735	0.05411	0.8704	0.009
Mof_H 	H 	0.3062	0.064	0.8697	0.037
Mof_C 	C 	0.32192	0.04109	0.85358	-0.1
Mof_H 	H 	0.3136	0.0416	0.8413	0.067
Mof_C 	C 	0.3386	0.02746	0.85489	0.061
Mof_H 	H 	0.3416	0.0189	0.8431	0.001
Mof_C 	C 	0.33301	0.98237	0.88862	0.063
Mof_H 	H 	0.3341	0.993	0.8989	-0.001
Mof_C 	C 	0.3154	0.9706	0.88834	-0.103
Mof_H 	H 	0.3045	0.9731	0.8981	0.068
Mof_C 	C 	0.3136	0.9547	0.87333	0.009
Mof_H 	H 	0.3016	0.9459	0.8729	0.037
Mof_C 	C 	0.32984	0.95217	0.85924	-0.052
Mof_C 	C 	0.34731	0.96498	0.86085	0.042
Mof_H 	H 	0.3585	0.963	0.8513	0.011
Mof_C 	C 	0.32908	0.93559	0.84302	0.135
Mof_C 	C 	0.37611	0.99941	0.82478	0.108
Mof_N 	N 	0.36692	0.09096	0.98525	-0.223
Mof_N 	N 	0.27446	0.11285	0.85699	-0.261
Mof_N 	N 	0.26551	0.12503	0.90242	-0.224
Mof_N 	N 	0.31091	0.0796	0.90582	-0.151
Mof_N 	N 	0.32025	0.08966	0.94029	-0.15
Mof_N 	N 	0.33763	0.06113	0.92387	-0.151
Mof_N 	N 	0.35075	0.02568	0.87185	-0.229
Mof_N 	N 	0.37676	0.00119	0.84238	-0.264
Mof_N 	N 	0.34897	0.97991	0.87524	-0.229
Mof_N 	N 	0.31397	0.92169	0.84428	-0.152
Mof_S 	S 	0.29463	0.08696	0.82812	-0.059
Mof_S 	S 	0.37346	0.99784	0.79928	-0.062
Mof_C 	C 	0.39742	0.15972	0.46989	0.033
Mof_H 	H 	0.4056	0.1476	0.4673	0.014
Mof_C 	C 	0.40086	0.17742	0.4575	-0.046
Mof_C 	C 	0.38928	0.19523	0.46138	0.006
Mof_H 	H 	0.3908	0.2074	0.453	0.038
Mof_C 	C 	0.37518	0.19486	0.4781	-0.1
Mof_H 	H 	0.3676	0.2071	0.4818	0.066
Mof_C 	C 	0.37242	0.17686	0.48907	0.061
Mof_H 	H 	0.3624	0.1768	0.5001	-0
Mof_C 	C 	0.46662	0.14774	0.34533	0.098
Mof_C 	C 	0.48679	0.11148	0.41843	0.057
Mof_H 	H 	0.4968	0.1006	0.4171	-0
Mof_C 	C 	0.47538	0.1126	0.43666	-0.096
Mof_H 	H 	0.478	0.1031	0.4478	0.063
Mof_C 	C 	0.45993	0.12779	0.43858	0.004
Mof_H 	H 	0.4513	0.1284	0.4507	0.038
Mof_C 	C 	0.45751	0.1421	0.42226	-0.045
Mof_C 	C 	0.46999	0.14026	0.40472	0.031
Mof_H 	H 	0.4683	0.1502	0.3938	0.017
Mof_C 	C 	0.44123	0.15868	0.42282	0.134
Mof_C 	C 	0.41539	0.17567	0.4397	0.133
Mof_C 	C 	0.42411	0.18511	0.40684	0.133
Mof_C 	C 	0.40399	0.21232	0.38822	0.039
Mof_H 	H 	0.3958	0.2137	0.4006	0.012
Mof_C 	C 	0.42048	0.19779	0.38815	-0.051
Mof_C 	C 	0.43265	0.19589	0.3704	0.009
Mof_H 	H 	0.4438	0.186	0.3697	0.037
Mof_C 	C 	0.42808	0.20891	0.35358	-0.1
Mof_H 	H 	0.4364	0.2084	0.3413	0.067
Mof_C 	C 	0.4114	0.22254	0.35489	0.061
Mof_H 	H 	0.4084	0.2311	0.3431	0.001
Mof_C 	C 	0.41699	0.26763	0.38862	0.063
Mof_H 	H 	0.4159	0.257	0.3989	-0.001
Mof_C 	C 	0.4346	0.2794	0.38834	-0.103
Mof_H 	H 	0.4455	0.2769	0.3981	0.068
Mof_C 	C 	0.4364	0.2953	0.37333	0.009
Mof_H 	H 	0.4484	0.3041	0.3729	0.037
Mof_C 	C 	0.42016	0.29783	0.35924	-0.052
Mof_C 	C 	0.40269	0.28502	0.36085	0.042
Mof_H 	H 	0.3915	0.287	0.3513	0.011
Mof_C 	C 	0.42092	0.31441	0.34302	0.135
Mof_C 	C 	0.37389	0.25059	0.32478	0.108
Mof_N 	N 	0.38308	0.15904	0.48525	-0.223
Mof_N 	N 	0.47554	0.13715	0.35699	-0.261
Mof_N 	N 	0.48449	0.12497	0.40242	-0.224
Mof_N 	N 	0.43909	0.1704	0.40582	-0.151
Mof_N 	N 	0.42975	0.16034	0.44029	-0.15
Mof_N 	N 	0.41237	0.18887	0.42387	-0.151
Mof_N 	N 	0.39925	0.22432	0.37185	-0.229
Mof_N 	N 	0.37324	0.24881	0.34238	-0.264
Mof_N 	N 	0.40103	0.27009	0.37524	-0.229
Mof_N 	N 	0.43603	0.32831	0.34428	-0.152
Mof_S 	S 	0.45537	0.16304	0.32812	-0.059
Mof_S 	S 	0.37654	0.25216	0.29928	-0.062
Mof_C 	C 	0.39742	0.65972	0.96989	0.033
Mof_H 	H 	0.4056	0.6476	0.9673	0.014
Mof_C 	C 	0.40086	0.67742	0.9575	-0.046
Mof_C 	C 	0.38928	0.69523	0.96138	0.006
Mof_H 	H 	0.3908	0.7074	0.953	0.038
Mof_C 	C 	0.37518	0.69486	0.9781	-0.1
Mof_H 	H 	0.3676	0.7071	0.9818	0.066
Mof_C 	C 	0.37242	0.67686	0.98907	0.061
Mof_H 	H 	0.3624	0.6768	0.0001	-0
Mof_C 	C 	0.46662	0.64774	0.84533	0.098
Mof_C 	C 	0.48679	0.61148	0.91843	0.057
Mof_H 	H 	0.4968	0.6006	0.9171	-0
Mof_C 	C 	0.47538	0.6126	0.93666	-0.096
Mof_H 	H 	0.478	0.6031	0.9478	0.063
Mof_C 	C 	0.45993	0.62779	0.93858	0.004
Mof_H 	H 	0.4513	0.6284	0.9507	0.038
Mof_C 	C 	0.45751	0.6421	0.92226	-0.045
Mof_C 	C 	0.46999	0.64026	0.90472	0.031
Mof_H 	H 	0.4683	0.6502	0.8938	0.017
Mof_C 	C 	0.44123	0.65868	0.92282	0.134
Mof_C 	C 	0.41539	0.67567	0.9397	0.133
Mof_C 	C 	0.42411	0.68511	0.90684	0.133
Mof_C 	C 	0.40399	0.71232	0.88822	0.039
Mof_H 	H 	0.3958	0.7137	0.9006	0.012
Mof_C 	C 	0.42048	0.69779	0.88815	-0.051
Mof_C 	C 	0.43265	0.69589	0.8704	0.009
Mof_H 	H 	0.4438	0.686	0.8697	0.037
Mof_C 	C 	0.42808	0.70891	0.85358	-0.1
Mof_H 	H 	0.4364	0.7084	0.8413	0.067
Mof_C 	C 	0.4114	0.72254	0.85489	0.061
Mof_H 	H 	0.4084	0.7311	0.8431	0.001
Mof_C 	C 	0.41699	0.76763	0.88862	0.063
Mof_H 	H 	0.4159	0.757	0.8989	-0.001
Mof_C 	C 	0.4346	0.7794	0.88834	-0.103
Mof_H 	H 	0.4455	0.7769	0.8981	0.068
Mof_C 	C 	0.4364	0.7953	0.87333	0.009
Mof_H 	H 	0.4484	0.8041	0.8729	0.037
Mof_C 	C 	0.42016	0.79783	0.85924	-0.052
Mof_C 	C 	0.40269	0.78502	0.86085	0.042
Mof_H 	H 	0.3915	0.787	0.8513	0.011
Mof_C 	C 	0.42092	0.81441	0.84302	0.135
Mof_C 	C 	0.37389	0.75059	0.82478	0.108
Mof_N 	N 	0.38308	0.65904	0.98525	-0.223
Mof_N 	N 	0.47554	0.63715	0.85699	-0.261
Mof_N 	N 	0.48449	0.62497	0.90242	-0.224
Mof_N 	N 	0.43909	0.6704	0.90582	-0.151
Mof_N 	N 	0.42975	0.66034	0.94029	-0.15
Mof_N 	N 	0.41237	0.68887	0.92387	-0.151
Mof_N 	N 	0.39925	0.72432	0.87185	-0.229
Mof_N 	N 	0.37324	0.74881	0.84238	-0.264
Mof_N 	N 	0.40103	0.77009	0.87524	-0.229
Mof_N 	N 	0.43603	0.82831	0.84428	-0.152
Mof_S 	S 	0.45537	0.66304	0.82812	-0.059
Mof_S 	S 	0.37654	0.75216	0.79928	-0.062
Mof_C 	C 	0.89742	0.15972	0.96989	0.033
Mof_H 	H 	0.9056	0.1476	0.9673	0.014
Mof_C 	C 	0.90086	0.17742	0.9575	-0.046
Mof_C 	C 	0.88928	0.19523	0.96138	0.006
Mof_H 	H 	0.8908	0.2074	0.953	0.038
Mof_C 	C 	0.87518	0.19486	0.9781	-0.1
Mof_H 	H 	0.8676	0.2071	0.9818	0.066
Mof_C 	C 	0.87242	0.17686	0.98907	0.061
Mof_H 	H 	0.8624	0.1768	0.0001	-0
Mof_C 	C 	0.96662	0.14774	0.84533	0.098
Mof_C 	C 	0.98679	0.11148	0.91843	0.057
Mof_H 	H 	0.9968	0.1006	0.9171	-0
Mof_C 	C 	0.97538	0.1126	0.93666	-0.096
Mof_H 	H 	0.978	0.1031	0.9478	0.063
Mof_C 	C 	0.95993	0.12779	0.93858	0.004
Mof_H 	H 	0.9513	0.1284	0.9507	0.038
Mof_C 	C 	0.95751	0.1421	0.92226	-0.045
Mof_C 	C 	0.96999	0.14026	0.90472	0.031
Mof_H 	H 	0.9683	0.1502	0.8938	0.017
Mof_C 	C 	0.94123	0.15868	0.92282	0.134
Mof_C 	C 	0.91539	0.17567	0.9397	0.133
Mof_C 	C 	0.92411	0.18511	0.90684	0.133
Mof_C 	C 	0.90399	0.21232	0.88822	0.039
Mof_H 	H 	0.8958	0.2137	0.9006	0.012
Mof_C 	C 	0.92048	0.19779	0.88815	-0.051
Mof_C 	C 	0.93265	0.19589	0.8704	0.009
Mof_H 	H 	0.9438	0.186	0.8697	0.037
Mof_C 	C 	0.92808	0.20891	0.85358	-0.1
Mof_H 	H 	0.9364	0.2084	0.8413	0.067
Mof_C 	C 	0.9114	0.22254	0.85489	0.061
Mof_H 	H 	0.9084	0.2311	0.8431	0.001
Mof_C 	C 	0.91699	0.26763	0.88862	0.063
Mof_H 	H 	0.9159	0.257	0.8989	-0.001
Mof_C 	C 	0.9346	0.2794	0.88834	-0.103
Mof_H 	H 	0.9455	0.2769	0.8981	0.068
Mof_C 	C 	0.9364	0.2953	0.87333	0.009
Mof_H 	H 	0.9484	0.3041	0.8729	0.037
Mof_C 	C 	0.92016	0.29783	0.85924	-0.052
Mof_C 	C 	0.90269	0.28502	0.86085	0.042
Mof_H 	H 	0.8915	0.287	0.8513	0.011
Mof_C 	C 	0.92092	0.31441	0.84302	0.135
Mof_C 	C 	0.87389	0.25059	0.82478	0.108
Mof_N 	N 	0.88308	0.15904	0.98525	-0.223
Mof_N 	N 	0.97554	0.13715	0.85699	-0.261
Mof_N 	N 	0.98449	0.12497	0.90242	-0.224
Mof_N 	N 	0.93909	0.1704	0.90582	-0.151
Mof_N 	N 	0.92975	0.16034	0.94029	-0.15
Mof_N 	N 	0.91237	0.18887	0.92387	-0.151
Mof_N 	N 	0.89925	0.22432	0.87185	-0.229
Mof_N 	N 	0.87324	0.24881	0.84238	-0.264
Mof_N 	N 	0.90103	0.27009	0.87524	-0.229
Mof_N 	N 	0.93603	0.32831	0.84428	-0.152
Mof_S 	S 	0.95537	0.16304	0.82812	-0.059
Mof_S 	S 	0.87654	0.25216	0.79928	-0.062
Mof_C 	C 	0.89742	0.65972	0.46989	0.033
Mof_H 	H 	0.9056	0.6476	0.4673	0.014
Mof_C 	C 	0.90086	0.67742	0.4575	-0.046
Mof_C 	C 	0.88928	0.69523	0.46138	0.006
Mof_H 	H 	0.8908	0.7074	0.453	0.038
Mof_C 	C 	0.87518	0.69486	0.4781	-0.1
Mof_H 	H 	0.8676	0.7071	0.4818	0.066
Mof_C 	C 	0.87242	0.67686	0.48907	0.061
Mof_H 	H 	0.8624	0.6768	0.5001	-0
Mof_C 	C 	0.96662	0.64774	0.34533	0.098
Mof_C 	C 	0.98679	0.61148	0.41843	0.057
Mof_H 	H 	0.9968	0.6006	0.4171	-0
Mof_C 	C 	0.97538	0.6126	0.43666	-0.096
Mof_H 	H 	0.978	0.6031	0.4478	0.063
Mof_C 	C 	0.95993	0.62779	0.43858	0.004
Mof_H 	H 	0.9513	0.6284	0.4507	0.038
Mof_C 	C 	0.95751	0.6421	0.42226	-0.045
Mof_C 	C 	0.96999	0.64026	0.40472	0.031
Mof_H 	H 	0.9683	0.6502	0.3938	0.017
Mof_C 	C 	0.94123	0.65868	0.42282	0.134
Mof_C 	C 	0.91539	0.67567	0.4397	0.133
Mof_C 	C 	0.92411	0.68511	0.40684	0.133
Mof_C 	C 	0.90399	0.71232	0.38822	0.039
Mof_H 	H 	0.8958	0.7137	0.4006	0.012
Mof_C 	C 	0.92048	0.69779	0.38815	-0.051
Mof_C 	C 	0.93265	0.69589	0.3704	0.009
Mof_H 	H 	0.9438	0.686	0.3697	0.037
Mof_C 	C 	0.92808	0.70891	0.35358	-0.1
Mof_H 	H 	0.9364	0.7084	0.3413	0.067
Mof_C 	C 	0.9114	0.72254	0.35489	0.061
Mof_H 	H 	0.9084	0.7311	0.3431	0.001
Mof_C 	C 	0.91699	0.76763	0.38862	0.063
Mof_H 	H 	0.9159	0.757	0.3989	-0.001
Mof_C 	C 	0.9346	0.7794	0.38834	-0.103
Mof_H 	H 	0.9455	0.7769	0.3981	0.068
Mof_C 	C 	0.9364	0.7953	0.37333	0.009
Mof_H 	H 	0.9484	0.8041	0.3729	0.037
Mof_C 	C 	0.92016	0.79783	0.35924	-0.052
Mof_C 	C 	0.90269	0.78502	0.36085	0.042
Mof_H 	H 	0.8915	0.787	0.3513	0.011
Mof_C 	C 	0.92092	0.81441	0.34302	0.135
Mof_C 	C 	0.87389	0.75059	0.32478	0.108
Mof_N 	N 	0.88308	0.65904	0.48525	-0.223
Mof_N 	N 	0.97554	0.63715	0.35699	-0.261
Mof_N 	N 	0.98449	0.62497	0.40242	-0.224
Mof_N 	N 	0.93909	0.6704	0.40582	-0.151
Mof_N 	N 	0.92975	0.66034	0.44029	-0.15
Mof_N 	N 	0.91237	0.68887	0.42387	-0.151
Mof_N 	N 	0.89925	0.72432	0.37185	-0.229
Mof_N 	N 	0.87324	0.74881	0.34238	-0.264
Mof_N 	N 	0.90103	0.77009	0.37524	-0.229
Mof_N 	N 	0.93603	0.82831	0.34428	-0.152
Mof_S 	S 	0.95537	0.66304	0.32812	-0.059
Mof_S 	S 	0.87654	0.75216	0.29928	-0.062
Mof_C 	C 	0.15972	0.46989	0.39742	0.033
Mof_H 	H 	0.1476	0.4673	0.4056	0.014
Mof_C 	C 	0.17742	0.4575	0.40086	-0.046
Mof_C 	C 	0.19523	0.46138	0.38928	0.006
Mof_H 	H 	0.2074	0.453	0.3908	0.038
Mof_C 	C 	0.19486	0.4781	0.37518	-0.1
Mof_H 	H 	0.2071	0.4818	0.3676	0.066
Mof_C 	C 	0.17686	0.48907	0.37242	0.061
Mof_H 	H 	0.1768	0.5001	0.3624	-0
Mof_C 	C 	0.14774	0.34533	0.46662	0.098
Mof_C 	C 	0.11148	0.41843	0.48679	0.057
Mof_H 	H 	0.1006	0.4171	0.4968	-0
Mof_C 	C 	0.1126	0.43666	0.47538	-0.096
Mof_H 	H 	0.1031	0.4478	0.478	0.063
Mof_C 	C 	0.12779	0.43858	0.45993	0.004
Mof_H 	H 	0.1284	0.4507	0.4513	0.038
Mof_C 	C 	0.1421	0.42226	0.45751	-0.045
Mof_C 	C 	0.14026	0.40472	0.46999	0.031
Mof_H 	H 	0.1502	0.3938	0.4683	0.017
Mof_C 	C 	0.15868	0.42282	0.44123	0.134
Mof_C 	C 	0.17567	0.4397	0.41539	0.133
Mof_C 	C 	0.18511	0.40684	0.42411	0.133
Mof_C 	C 	0.21232	0.38822	0.40399	0.039
Mof_H 	H 	0.2137	0.4006	0.3958	0.012
Mof_C 	C 	0.19779	0.38815	0.42048	-0.051
Mof_C 	C 	0.19589	0.3704	0.43265	0.009
Mof_H 	H 	0.186	0.3697	0.4438	0.037
Mof_C 	C 	0.20891	0.35358	0.42808	-0.1
Mof_H 	H 	0.2084	0.3413	0.4364	0.067
Mof_C 	C 	0.22254	0.35489	0.4114	0.061
Mof_H 	H 	0.2311	0.3431	0.4084	0.001
Mof_C 	C 	0.26763	0.38862	0.41699	0.063
Mof_H 	H 	0.257	0.3989	0.4159	-0.001
Mof_C 	C 	0.2794	0.38834	0.4346	-0.103
Mof_H 	H 	0.2769	0.3981	0.4455	0.068
Mof_C 	C 	0.2953	0.37333	0.4364	0.009
Mof_H 	H 	0.3041	0.3729	0.4484	0.037
Mof_C 	C 	0.29783	0.35924	0.42016	-0.052
Mof_C 	C 	0.28502	0.36085	0.40269	0.042
Mof_H 	H 	0.287	0.3513	0.3915	0.011
Mof_C 	C 	0.31441	0.34302	0.42092	0.135
Mof_C 	C 	0.25059	0.32478	0.37389	0.108
Mof_N 	N 	0.15904	0.48525	0.38308	-0.223
Mof_N 	N 	0.13715	0.35699	0.47554	-0.261
Mof_N 	N 	0.12497	0.40242	0.48449	-0.224
Mof_N 	N 	0.1704	0.40582	0.43909	-0.151
Mof_N 	N 	0.16034	0.44029	0.42975	-0.15
Mof_N 	N 	0.18887	0.42387	0.41237	-0.151
Mof_N 	N 	0.22432	0.37185	0.39925	-0.229
Mof_N 	N 	0.24881	0.34238	0.37324	-0.264
Mof_N 	N 	0.27009	0.37524	0.40103	-0.229
Mof_N 	N 	0.32831	0.34428	0.43603	-0.152
Mof_S 	S 	0.16304	0.32812	0.45537	-0.059
Mof_S 	S 	0.25216	0.29928	0.37654	-0.062
Mof_C 	C 	0.15972	0.96989	0.89742	0.033
Mof_H 	H 	0.1476	0.9673	0.9056	0.014
Mof_C 	C 	0.17742	0.9575	0.90086	-0.046
Mof_C 	C 	0.19523	0.96138	0.88928	0.006
Mof_H 	H 	0.2074	0.953	0.8908	0.038
Mof_C 	C 	0.19486	0.9781	0.87518	-0.1
Mof_H 	H 	0.2071	0.9818	0.8676	0.066
Mof_C 	C 	0.17686	0.98907	0.87242	0.061
Mof_H 	H 	0.1768	0.0001	0.8624	-0
Mof_C 	C 	0.14774	0.84533	0.96662	0.098
Mof_C 	C 	0.11148	0.91843	0.98679	0.057
Mof_H 	H 	0.1006	0.9171	0.9968	-0
Mof_C 	C 	0.1126	0.93666	0.97538	-0.096
Mof_H 	H 	0.1031	0.9478	0.978	0.063
Mof_C 	C 	0.12779	0.93858	0.95993	0.004
Mof_H 	H 	0.1284	0.9507	0.9513	0.038
Mof_C 	C 	0.1421	0.92226	0.95751	-0.045
Mof_C 	C 	0.14026	0.90472	0.96999	0.031
Mof_H 	H 	0.1502	0.8938	0.9683	0.017
Mof_C 	C 	0.15868	0.92282	0.94123	0.134
Mof_C 	C 	0.17567	0.9397	0.91539	0.133
Mof_C 	C 	0.18511	0.90684	0.92411	0.133
Mof_C 	C 	0.21232	0.88822	0.90399	0.039
Mof_H 	H 	0.2137	0.9006	0.8958	0.012
Mof_C 	C 	0.19779	0.88815	0.92048	-0.051
Mof_C 	C 	0.19589	0.8704	0.93265	0.009
Mof_H 	H 	0.186	0.8697	0.9438	0.037
Mof_C 	C 	0.20891	0.85358	0.92808	-0.1
Mof_H 	H 	0.2084	0.8413	0.9364	0.067
Mof_C 	C 	0.22254	0.85489	0.9114	0.061
Mof_H 	H 	0.2311	0.8431	0.9084	0.001
Mof_C 	C 	0.26763	0.88862	0.91699	0.063
Mof_H 	H 	0.257	0.8989	0.9159	-0.001
Mof_C 	C 	0.2794	0.88834	0.9346	-0.103
Mof_H 	H 	0.2769	0.8981	0.9455	0.068
Mof_C 	C 	0.2953	0.87333	0.9364	0.009
Mof_H 	H 	0.3041	0.8729	0.9484	0.037
Mof_C 	C 	0.29783	0.85924	0.92016	-0.052
Mof_C 	C 	0.28502	0.86085	0.90269	0.042
Mof_H 	H 	0.287	0.8513	0.8915	0.011
Mof_C 	C 	0.31441	0.84302	0.92092	0.135
Mof_C 	C 	0.25059	0.82478	0.87389	0.108
Mof_N 	N 	0.15904	0.98525	0.88308	-0.223
Mof_N 	N 	0.13715	0.85699	0.97554	-0.261
Mof_N 	N 	0.12497	0.90242	0.98449	-0.224
Mof_N 	N 	0.1704	0.90582	0.93909	-0.151
Mof_N 	N 	0.16034	0.94029	0.92975	-0.15
Mof_N 	N 	0.18887	0.92387	0.91237	-0.151
Mof_N 	N 	0.22432	0.87185	0.89925	-0.229
Mof_N 	N 	0.24881	0.84238	0.87324	-0.264
Mof_N 	N 	0.27009	0.87524	0.90103	-0.229
Mof_N 	N 	0.32831	0.84428	0.93603	-0.152
Mof_S 	S 	0.16304	0.82812	0.95537	-0.059
Mof_S 	S 	0.25216	0.79928	0.87654	-0.062
Mof_C 	C 	0.65972	0.46989	0.89742	0.033
Mof_H 	H 	0.6476	0.4673	0.9056	0.014
Mof_C 	C 	0.67742	0.4575	0.90086	-0.046
Mof_C 	C 	0.69523	0.46138	0.88928	0.006
Mof_H 	H 	0.7074	0.453	0.8908	0.038
Mof_C 	C 	0.69486	0.4781	0.87518	-0.1
Mof_H 	H 	0.7071	0.4818	0.8676	0.066
Mof_C 	C 	0.67686	0.48907	0.87242	0.061
Mof_H 	H 	0.6768	0.5001	0.8624	-0
Mof_C 	C 	0.64774	0.34533	0.96662	0.098
Mof_C 	C 	0.61148	0.41843	0.98679	0.057
Mof_H 	H 	0.6006	0.4171	0.9968	-0
Mof_C 	C 	0.6126	0.43666	0.97538	-0.096
Mof_H 	H 	0.6031	0.4478	0.978	0.063
Mof_C 	C 	0.62779	0.43858	0.95993	0.004
Mof_H 	H 	0.6284	0.4507	0.9513	0.038
Mof_C 	C 	0.6421	0.42226	0.95751	-0.045
Mof_C 	C 	0.64026	0.40472	0.96999	0.031
Mof_H 	H 	0.6502	0.3938	0.9683	0.017
Mof_C 	C 	0.65868	0.42282	0.94123	0.134
Mof_C 	C 	0.67567	0.4397	0.91539	0.133
Mof_C 	C 	0.68511	0.40684	0.92411	0.133
Mof_C 	C 	0.71232	0.38822	0.90399	0.039
Mof_H 	H 	0.7137	0.4006	0.8958	0.012
Mof_C 	C 	0.69779	0.38815	0.92048	-0.051
Mof_C 	C 	0.69589	0.3704	0.93265	0.009
Mof_H 	H 	0.686	0.3697	0.9438	0.037
Mof_C 	C 	0.70891	0.35358	0.92808	-0.1
Mof_H 	H 	0.7084	0.3413	0.9364	0.067
Mof_C 	C 	0.72254	0.35489	0.9114	0.061
Mof_H 	H 	0.7311	0.3431	0.9084	0.001
Mof_C 	C 	0.76763	0.38862	0.91699	0.063
Mof_H 	H 	0.757	0.3989	0.9159	-0.001
Mof_C 	C 	0.7794	0.38834	0.9346	-0.103
Mof_H 	H 	0.7769	0.3981	0.9455	0.068
Mof_C 	C 	0.7953	0.37333	0.9364	0.009
Mof_H 	H 	0.8041	0.3729	0.9484	0.037
Mof_C 	C 	0.79783	0.35924	0.92016	-0.052
Mof_C 	C 	0.78502	0.36085	0.90269	0.042
Mof_H 	H 	0.787	0.3513	0.8915	0.011
Mof_C 	C 	0.81441	0.34302	0.92092	0.135
Mof_C 	C 	0.75059	0.32478	0.87389	0.108
Mof_N 	N 	0.65904	0.48525	0.88308	-0.223
Mof_N 	N 	0.63715	0.35699	0.97554	-0.261
Mof_N 	N 	0.62497	0.40242	0.98449	-0.224
Mof_N 	N 	0.6704	0.40582	0.93909	-0.151
Mof_N 	N 	0.66034	0.44029	0.92975	-0.15
Mof_N 	N 	0.68887	0.42387	0.91237	-0.151
Mof_N 	N 	0.72432	0.37185	0.89925	-0.229
Mof_N 	N 	0.74881	0.34238	0.87324	-0.264
Mof_N 	N 	0.77009	0.37524	0.90103	-0.229
Mof_N 	N 	0.82831	0.34428	0.93603	-0.152
Mof_S 	S 	0.66304	0.32812	0.95537	-0.059
Mof_S 	S 	0.75216	0.29928	0.87654	-0.062
Mof_C 	C 	0.65972	0.96989	0.39742	0.033
Mof_H 	H 	0.6476	0.9673	0.4056	0.014
Mof_C 	C 	0.67742	0.9575	0.40086	-0.046
Mof_C 	C 	0.69523	0.96138	0.38928	0.006
Mof_H 	H 	0.7074	0.953	0.3908	0.038
Mof_C 	C 	0.69486	0.9781	0.37518	-0.1
Mof_H 	H 	0.7071	0.9818	0.3676	0.066
Mof_C 	C 	0.67686	0.98907	0.37242	0.061
Mof_H 	H 	0.6768	0.0001	0.3624	-0
Mof_C 	C 	0.64774	0.84533	0.46662	0.098
Mof_C 	C 	0.61148	0.91843	0.48679	0.057
Mof_H 	H 	0.6006	0.9171	0.4968	-0
Mof_C 	C 	0.6126	0.93666	0.47538	-0.096
Mof_H 	H 	0.6031	0.9478	0.478	0.063
Mof_C 	C 	0.62779	0.93858	0.45993	0.004
Mof_H 	H 	0.6284	0.9507	0.4513	0.038
Mof_C 	C 	0.6421	0.92226	0.45751	-0.045
Mof_C 	C 	0.64026	0.90472	0.46999	0.031
Mof_H 	H 	0.6502	0.8938	0.4683	0.017
Mof_C 	C 	0.65868	0.92282	0.44123	0.134
Mof_C 	C 	0.67567	0.9397	0.41539	0.133
Mof_C 	C 	0.68511	0.90684	0.42411	0.133
Mof_C 	C 	0.71232	0.88822	0.40399	0.039
Mof_H 	H 	0.7137	0.9006	0.3958	0.012
Mof_C 	C 	0.69779	0.88815	0.42048	-0.051
Mof_C 	C 	0.69589	0.8704	0.43265	0.009
Mof_H 	H 	0.686	0.8697	0.4438	0.037
Mof_C 	C 	0.70891	0.85358	0.42808	-0.1
Mof_H 	H 	0.7084	0.8413	0.4364	0.067
Mof_C 	C 	0.72254	0.85489	0.4114	0.061
Mof_H 	H 	0.7311	0.8431	0.4084	0.001
Mof_C 	C 	0.76763	0.88862	0.41699	0.063
Mof_H 	H 	0.757	0.8989	0.4159	-0.001
Mof_C 	C 	0.7794	0.88834	0.4346	-0.103
Mof_H 	H 	0.7769	0.8981	0.4455	0.068
Mof_C 	C 	0.7953	0.87333	0.4364	0.009
Mof_H 	H 	0.8041	0.8729	0.4484	0.037
Mof_C 	C 	0.79783	0.85924	0.42016	-0.052
Mof_C 	C 	0.78502	0.86085	0.40269	0.042
Mof_H 	H 	0.787	0.8513	0.3915	0.011
Mof_C 	C 	0.81441	0.84302	0.42092	0.135
Mof_C 	C 	0.75059	0.82478	0.37389	0.108
Mof_N 	N 	0.65904	0.98525	0.38308	-0.223
Mof_N 	N 	0.63715	0.85699	0.47554	-0.261
Mof_N 	N 	0.62497	0.90242	0.48449	-0.224
Mof_N 	N 	0.6704	0.90582	0.43909	-0.151
Mof_N 	N 	0.66034	0.94029	0.42975	-0.15
Mof_N 	N 	0.68887	0.92387	0.41237	-0.151
Mof_N 	N 	0.72432	0.87185	0.39925	-0.229
Mof_N 	N 	0.74881	0.84238	0.37324	-0.264
Mof_N 	N 	0.77009	0.87524	0.40103	-0.229
Mof_N 	N 	0.82831	0.84428	0.43603	-0.152
Mof_S 	S 	0.66304	0.82812	0.45537	-0.059
Mof_S 	S 	0.75216	0.79928	0.37654	-0.062
Mof_C 	C 	0.59028	0.96989	0.85258	0.033
Mof_H 	H 	0.6024	0.9673	0.8444	0.014
Mof_C 	C 	0.57258	0.9575	0.84914	-0.046
Mof_C 	C 	0.55477	0.96138	0.86072	0.006
Mof_H 	H 	0.5426	0.953	0.8592	0.038
Mof_C 	C 	0.55514	0.9781	0.87482	-0.1
Mof_H 	H 	0.5429	0.9818	0.8824	0.066
Mof_C 	C 	0.57314	0.98907	0.87758	0.061
Mof_H 	H 	0.5732	0.0001	0.8876	-0
Mof_C 	C 	0.60226	0.84533	0.78338	0.098
Mof_C 	C 	0.63852	0.91843	0.76321	0.057
Mof_H 	H 	0.6494	0.9171	0.7532	-0
Mof_C 	C 	0.6374	0.93666	0.77462	-0.096
Mof_H 	H 	0.6469	0.9478	0.772	0.063
Mof_C 	C 	0.62221	0.93858	0.79007	0.004
Mof_H 	H 	0.6216	0.9507	0.7987	0.038
Mof_C 	C 	0.6079	0.92226	0.79249	-0.045
Mof_C 	C 	0.60974	0.90472	0.78001	0.031
Mof_H 	H 	0.5998	0.8938	0.7817	0.017
Mof_C 	C 	0.59132	0.92282	0.80877	0.134
Mof_C 	C 	0.57433	0.9397	0.83461	0.133
Mof_C 	C 	0.56489	0.90684	0.82589	0.133
Mof_C 	C 	0.53768	0.88822	0.84601	0.039
Mof_H 	H 	0.5363	0.9006	0.8542	0.012
Mof_C 	C 	0.55221	0.88815	0.82952	-0.051
Mof_C 	C 	0.55411	0.8704	0.81735	0.009
Mof_H 	H 	0.564	0.8697	0.8062	0.037
Mof_C 	C 	0.54109	0.85358	0.82192	-0.1
Mof_H 	H 	0.5416	0.8413	0.8136	0.067
Mof_C 	C 	0.52746	0.85489	0.8386	0.061
Mof_H 	H 	0.5189	0.8431	0.8416	0.001
Mof_C 	C 	0.48237	0.88862	0.83301	0.063
Mof_H 	H 	0.493	0.8989	0.8341	-0.001
Mof_C 	C 	0.4706	0.88834	0.8154	-0.103
Mof_H 	H 	0.4731	0.8981	0.8045	0.068
Mof_C 	C 	0.4547	0.87333	0.8136	0.009
Mof_H 	H 	0.4459	0.8729	0.8016	0.037
Mof_C 	C 	0.45217	0.85924	0.82984	-0.052
Mof_C 	C 	0.46498	0.86085	0.84731	0.042
Mof_H 	H 	0.463	0.8513	0.8585	0.011
Mof_C 	C 	0.43559	0.84302	0.82908	0.135
Mof_C 	C 	0.49941	0.82478	0.87611	0.108
Mof_N 	N 	0.59096	0.98525	0.86692	-0.223
Mof_N 	N 	0.61285	0.85699	0.77446	-0.261
Mof_N 	N 	0.62503	0.90242	0.76551	-0.224
Mof_N 	N 	0.5796	0.90582	0.81091	-0.151
Mof_N 	N 	0.58966	0.94029	0.82025	-0.15
Mof_N 	N 	0.56113	0.92387	0.83763	-0.151
Mof_N 	N 	0.52568	0.87185	0.85075	-0.229
Mof_N 	N 	0.50119	0.84238	0.87676	-0.264
Mof_N 	N 	0.47991	0.87524	0.84897	-0.229
Mof_N 	N 	0.42169	0.84428	0.81397	-0.152
Mof_S 	S 	0.58696	0.82812	0.79463	-0.059
Mof_S 	S 	0.49784	0.79928	0.87346	-0.062
Mof_C 	C 	0.59028	0.46989	0.35258	0.033
Mof_H 	H 	0.6024	0.4673	0.3444	0.014
Mof_C 	C 	0.57258	0.4575	0.34914	-0.046
Mof_C 	C 	0.55477	0.46138	0.36072	0.006
Mof_H 	H 	0.5426	0.453	0.3592	0.038
Mof_C 	C 	0.55514	0.4781	0.37482	-0.1
Mof_H 	H 	0.5429	0.4818	0.3824	0.066
Mof_C 	C 	0.57314	0.48907	0.37758	0.061
Mof_H 	H 	0.5732	0.5001	0.3876	-0
Mof_C 	C 	0.60226	0.34533	0.28338	0.098
Mof_C 	C 	0.63852	0.41843	0.26321	0.057
Mof_H 	H 	0.6494	0.4171	0.2532	-0
Mof_C 	C 	0.6374	0.43666	0.27462	-0.096
Mof_H 	H 	0.6469	0.4478	0.272	0.063
Mof_C 	C 	0.62221	0.43858	0.29007	0.004
Mof_H 	H 	0.6216	0.4507	0.2987	0.038
Mof_C 	C 	0.6079	0.42226	0.29249	-0.045
Mof_C 	C 	0.60974	0.40472	0.28001	0.031
Mof_H 	H 	0.5998	0.3938	0.2817	0.017
Mof_C 	C 	0.59132	0.42282	0.30877	0.134
Mof_C 	C 	0.57433	0.4397	0.33461	0.133
Mof_C 	C 	0.56489	0.40684	0.32589	0.133
Mof_C 	C 	0.53768	0.38822	0.34601	0.039
Mof_H 	H 	0.5363	0.4006	0.3542	0.012
Mof_C 	C 	0.55221	0.38815	0.32952	-0.051
Mof_C 	C 	0.55411	0.3704	0.31735	0.009
Mof_H 	H 	0.564	0.3697	0.3062	0.037
Mof_C 	C 	0.54109	0.35358	0.32192	-0.1
Mof_H 	H 	0.5416	0.3413	0.3136	0.067
Mof_C 	C 	0.52746	0.35489	0.3386	0.061
Mof_H 	H 	0.5189	0.3431	0.3416	0.001
Mof_C 	C 	0.48237	0.38862	0.33301	0.063
Mof_H 	H 	0.493	0.3989	0.3341	-0.001
Mof_C 	C 	0.4706	0.38834	0.3154	-0.103
Mof_H 	H 	0.4731	0.3981	0.3045	0.068
Mof_C 	C 	0.4547	0.37333	0.3136	0.009
Mof_H 	H 	0.4459	0.3729	0.3016	0.037
Mof_C 	C 	0.45217	0.35924	0.32984	-0.052
Mof_C 	C 	0.46498	0.36085	0.34731	0.042
Mof_H 	H 	0.463	0.3513	0.3585	0.011
Mof_C 	C 	0.43559	0.34302	0.32908	0.135
Mof_C 	C 	0.49941	0.32478	0.37611	0.108
Mof_N 	N 	0.59096	0.48525	0.36692	-0.223
Mof_N 	N 	0.61285	0.35699	0.27446	-0.261
Mof_N 	N 	0.62503	0.40242	0.26551	-0.224
Mof_N 	N 	0.5796	0.40582	0.31091	-0.151
Mof_N 	N 	0.58966	0.44029	0.32025	-0.15
Mof_N 	N 	0.56113	0.42387	0.33763	-0.151
Mof_N 	N 	0.52568	0.37185	0.35075	-0.229
Mof_N 	N 	0.50119	0.34238	0.37676	-0.264
Mof_N 	N 	0.47991	0.37524	0.34897	-0.229
Mof_N 	N 	0.42169	0.34428	0.31397	-0.152
Mof_S 	S 	0.58696	0.32812	0.29463	-0.059
Mof_S 	S 	0.49784	0.29928	0.37346	-0.062
Mof_C 	C 	0.09028	0.96989	0.35258	0.033
Mof_H 	H 	0.1024	0.9673	0.3444	0.014
Mof_C 	C 	0.07258	0.9575	0.34914	-0.046
Mof_C 	C 	0.05477	0.96138	0.36072	0.006
Mof_H 	H 	0.0426	0.953	0.3592	0.038
Mof_C 	C 	0.05514	0.9781	0.37482	-0.1
Mof_H 	H 	0.0429	0.9818	0.3824	0.066
Mof_C 	C 	0.07314	0.98907	0.37758	0.061
Mof_H 	H 	0.0732	0.0001	0.3876	-0
Mof_C 	C 	0.10226	0.84533	0.28338	0.098
Mof_C 	C 	0.13852	0.91843	0.26321	0.057
Mof_H 	H 	0.1494	0.9171	0.2532	-0
Mof_C 	C 	0.1374	0.93666	0.27462	-0.096
Mof_H 	H 	0.1469	0.9478	0.272	0.063
Mof_C 	C 	0.12221	0.93858	0.29007	0.004
Mof_H 	H 	0.1216	0.9507	0.2987	0.038
Mof_C 	C 	0.1079	0.92226	0.29249	-0.045
Mof_C 	C 	0.10974	0.90472	0.28001	0.031
Mof_H 	H 	0.0998	0.8938	0.2817	0.017
Mof_C 	C 	0.09132	0.92282	0.30877	0.134
Mof_C 	C 	0.07433	0.9397	0.33461	0.133
Mof_C 	C 	0.06489	0.90684	0.32589	0.133
Mof_C 	C 	0.03768	0.88822	0.34601	0.039
Mof_H 	H 	0.0363	0.9006	0.3542	0.012
Mof_C 	C 	0.05221	0.88815	0.32952	-0.051
Mof_C 	C 	0.05411	0.8704	0.31735	0.009
Mof_H 	H 	0.064	0.8697	0.3062	0.037
Mof_C 	C 	0.04109	0.85358	0.32192	-0.1
Mof_H 	H 	0.0416	0.8413	0.3136	0.067
Mof_C 	C 	0.02746	0.85489	0.3386	0.061
Mof_H 	H 	0.0189	0.8431	0.3416	0.001
Mof_C 	C 	0.98237	0.88862	0.33301	0.063
Mof_H 	H 	0.993	0.8989	0.3341	-0.001
Mof_C 	C 	0.9706	0.88834	0.3154	-0.103
Mof_H 	H 	0.9731	0.8981	0.3045	0.068
Mof_C 	C 	0.9547	0.87333	0.3136	0.009
Mof_H 	H 	0.9459	0.8729	0.3016	0.037
Mof_C 	C 	0.95217	0.85924	0.32984	-0.052
Mof_C 	C 	0.96498	0.86085	0.34731	0.042
Mof_H 	H 	0.963	0.8513	0.3585	0.011
Mof_C 	C 	0.93559	0.84302	0.32908	0.135
Mof_C 	C 	0.99941	0.82478	0.37611	0.108
Mof_N 	N 	0.09096	0.98525	0.36692	-0.223
Mof_N 	N 	0.11285	0.85699	0.27446	-0.261
Mof_N 	N 	0.12503	0.90242	0.26551	-0.224
Mof_N 	N 	0.0796	0.90582	0.31091	-0.151
Mof_N 	N 	0.08966	0.94029	0.32025	-0.15
Mof_N 	N 	0.06113	0.92387	0.33763	-0.151
Mof_N 	N 	0.02568	0.87185	0.35075	-0.229
Mof_N 	N 	0.00119	0.84238	0.37676	-0.264
Mof_N 	N 	0.97991	0.87524	0.34897	-0.229
Mof_N 	N 	0.92169	0.84428	0.31397	-0.152
Mof_S 	S 	0.08696	0.82812	0.29463	-0.059
Mof_S 	S 	0.99784	0.79928	0.37346	-0.062
Mof_C 	C 	0.09028	0.46989	0.85258	0.033
Mof_H 	H 	0.1024	0.4673	0.8444	0.014
Mof_C 	C 	0.07258	0.4575	0.84914	-0.046
Mof_C 	C 	0.05477	0.46138	0.86072	0.006
Mof_H 	H 	0.0426	0.453	0.8592	0.038
Mof_C 	C 	0.05514	0.4781	0.87482	-0.1
Mof_H 	H 	0.0429	0.4818	0.8824	0.066
Mof_C 	C 	0.07314	0.48907	0.87758	0.061
Mof_H 	H 	0.0732	0.5001	0.8876	-0
Mof_C 	C 	0.10226	0.34533	0.78338	0.098
Mof_C 	C 	0.13852	0.41843	0.76321	0.057
Mof_H 	H 	0.1494	0.4171	0.7532	-0
Mof_C 	C 	0.1374	0.43666	0.77462	-0.096
Mof_H 	H 	0.1469	0.4478	0.772	0.063
Mof_C 	C 	0.12221	0.43858	0.79007	0.004
Mof_H 	H 	0.1216	0.4507	0.7987	0.038
Mof_C 	C 	0.1079	0.42226	0.79249	-0.045
Mof_C 	C 	0.10974	0.40472	0.78001	0.031
Mof_H 	H 	0.0998	0.3938	0.7817	0.017
Mof_C 	C 	0.09132	0.42282	0.80877	0.134
Mof_C 	C 	0.07433	0.4397	0.83461	0.133
Mof_C 	C 	0.06489	0.40684	0.82589	0.133
Mof_C 	C 	0.03768	0.38822	0.84601	0.039
Mof_H 	H 	0.0363	0.4006	0.8542	0.012
Mof_C 	C 	0.05221	0.38815	0.82952	-0.051
Mof_C 	C 	0.05411	0.3704	0.81735	0.009
Mof_H 	H 	0.064	0.3697	0.8062	0.037
Mof_C 	C 	0.04109	0.35358	0.82192	-0.1
Mof_H 	H 	0.0416	0.3413	0.8136	0.067
Mof_C 	C 	0.02746	0.35489	0.8386	0.061
Mof_H 	H 	0.0189	0.3431	0.8416	0.001
Mof_C 	C 	0.98237	0.38862	0.83301	0.063
Mof_H 	H 	0.993	0.3989	0.8341	-0.001
Mof_C 	C 	0.9706	0.38834	0.8154	-0.103
Mof_H 	H 	0.9731	0.3981	0.8045	0.068
Mof_C 	C 	0.9547	0.37333	0.8136	0.009
Mof_H 	H 	0.9459	0.3729	0.8016	0.037
Mof_C 	C 	0.95217	0.35924	0.82984	-0.052
Mof_C 	C 	0.96498	0.36085	0.84731	0.042
Mof_H 	H 	0.963	0.3513	0.8585	0.011
Mof_C 	C 	0.93559	0.34302	0.82908	0.135
Mof_C 	C 	0.99941	0.32478	0.87611	0.108
Mof_N 	N 	0.09096	0.48525	0.86692	-0.223
Mof_N 	N 	0.11285	0.35699	0.77446	-0.261
Mof_N 	N 	0.12503	0.40242	0.76551	-0.224
Mof_N 	N 	0.0796	0.40582	0.81091	-0.151
Mof_N 	N 	0.08966	0.44029	0.82025	-0.15
Mof_N 	N 	0.06113	0.42387	0.83763	-0.151
Mof_N 	N 	0.02568	0.37185	0.85075	-0.229
Mof_N 	N 	0.00119	0.34238	0.87676	-0.264
Mof_N 	N 	0.97991	0.37524	0.84897	-0.229
Mof_N 	N 	0.92169	0.34428	0.81397	-0.152
Mof_S 	S 	0.08696	0.32812	0.79463	-0.059
Mof_S 	S 	0.99784	0.29928	0.87346	-0.062
Mof_C 	C 	0.09028	0.28011	0.89742	0.033
Mof_H 	H 	0.1024	0.2827	0.9056	0.014
Mof_C 	C 	0.07258	0.2925	0.90086	-0.046
Mof_C 	C 	0.05477	0.28862	0.88928	0.006
Mof_H 	H 	0.0426	0.297	0.8908	0.038
Mof_C 	C 	0.05514	0.2719	0.87518	-0.1
Mof_H 	H 	0.0429	0.2682	0.8676	0.066
Mof_C 	C 	0.07314	0.26093	0.87242	0.061
Mof_H 	H 	0.0732	0.2499	0.8624	-0
Mof_C 	C 	0.10226	0.40467	0.96662	0.098
Mof_C 	C 	0.13852	0.33157	0.98679	0.057
Mof_H 	H 	0.1494	0.3329	0.9968	-0
Mof_C 	C 	0.1374	0.31334	0.97538	-0.096
Mof_H 	H 	0.1469	0.3022	0.978	0.063
Mof_C 	C 	0.12221	0.31142	0.95993	0.004
Mof_H 	H 	0.1216	0.2993	0.9513	0.038
Mof_C 	C 	0.1079	0.32774	0.95751	-0.045
Mof_C 	C 	0.10974	0.34528	0.96999	0.031
Mof_H 	H 	0.0998	0.3562	0.9683	0.017
Mof_C 	C 	0.09132	0.32718	0.94123	0.134
Mof_C 	C 	0.07433	0.3103	0.91539	0.133
Mof_C 	C 	0.06489	0.34316	0.92411	0.133
Mof_C 	C 	0.03768	0.36178	0.90399	0.039
Mof_H 	H 	0.0363	0.3494	0.8958	0.012
Mof_C 	C 	0.05221	0.36185	0.92048	-0.051
Mof_C 	C 	0.05411	0.3796	0.93265	0.009
Mof_H 	H 	0.064	0.3803	0.9438	0.037
Mof_C 	C 	0.04109	0.39642	0.92808	-0.1
Mof_H 	H 	0.0416	0.4087	0.9364	0.067
Mof_C 	C 	0.02746	0.39511	0.9114	0.061
Mof_H 	H 	0.0189	0.4069	0.9084	0.001
Mof_C 	C 	0.98237	0.36138	0.91699	0.063
Mof_H 	H 	0.993	0.3511	0.9159	-0.001
Mof_C 	C 	0.9706	0.36166	0.9346	-0.103
Mof_H 	H 	0.9731	0.3519	0.9455	0.068
Mof_C 	C 	0.9547	0.37667	0.9364	0.009
Mof_H 	H 	0.9459	0.3771	0.9484	0.037
Mof_C 	C 	0.95217	0.39076	0.92016	-0.052
Mof_C 	C 	0.96498	0.38915	0.90269	0.042
Mof_H 	H 	0.963	0.3987	0.8915	0.011
Mof_C 	C 	0.93559	0.40698	0.92092	0.135
Mof_C 	C 	0.99941	0.42522	0.87389	0.108
Mof_N 	N 	0.09096	0.26475	0.88308	-0.223
Mof_N 	N 	0.11285	0.39301	0.97554	-0.261
Mof_N 	N 	0.12503	0.34758	0.98449	-0.224
Mof_N 	N 	0.0796	0.34418	0.93909	-0.151
Mof_N 	N 	0.08966	0.30971	0.92975	-0.15
Mof_N 	N 	0.06113	0.32613	0.91237	-0.151
Mof_N 	N 	0.02568	0.37815	0.89925	-0.229
Mof_N 	N 	0.00119	0.40762	0.87324	-0.264
Mof_N 	N 	0.97991	0.37476	0.90103	-0.229
Mof_N 	N 	0.92169	0.40572	0.93603	-0.152
Mof_S 	S 	0.08696	0.42188	0.95537	-0.059
Mof_S 	S 	0.99784	0.45072	0.87654	-0.062
Mof_C 	C 	0.09028	0.78011	0.39742	0.033
Mof_H 	H 	0.1024	0.7827	0.4056	0.014
Mof_C 	C 	0.07258	0.7925	0.40086	-0.046
Mof_C 	C 	0.05477	0.78862	0.38928	0.006
Mof_H 	H 	0.0426	0.797	0.3908	0.038
Mof_C 	C 	0.05514	0.7719	0.37518	-0.1
Mof_H 	H 	0.0429	0.7682	0.3676	0.066
Mof_C 	C 	0.07314	0.76093	0.37242	0.061
Mof_H 	H 	0.0732	0.7499	0.3624	-0
Mof_C 	C 	0.10226	0.90467	0.46662	0.098
Mof_C 	C 	0.13852	0.83157	0.48679	0.057
Mof_H 	H 	0.1494	0.8329	0.4968	-0
Mof_C 	C 	0.1374	0.81334	0.47538	-0.096
Mof_H 	H 	0.1469	0.8022	0.478	0.063
Mof_C 	C 	0.12221	0.81142	0.45993	0.004
Mof_H 	H 	0.1216	0.7993	0.4513	0.038
Mof_C 	C 	0.1079	0.82774	0.45751	-0.045
Mof_C 	C 	0.10974	0.84528	0.46999	0.031
Mof_H 	H 	0.0998	0.8562	0.4683	0.017
Mof_C 	C 	0.09132	0.82718	0.44123	0.134
Mof_C 	C 	0.07433	0.8103	0.41539	0.133
Mof_C 	C 	0.06489	0.84316	0.42411	0.133
Mof_C 	C 	0.03768	0.86178	0.40399	0.039
Mof_H 	H 	0.0363	0.8494	0.3958	0.012
Mof_C 	C 	0.05221	0.86185	0.42048	-0.051
Mof_C 	C 	0.05411	0.8796	0.43265	0.009
Mof_H 	H 	0.064	0.8803	0.4438	0.037
Mof_C 	C 	0.04109	0.89642	0.42808	-0.1
Mof_H 	H 	0.0416	0.9087	0.4364	0.067
Mof_C 	C 	0.02746	0.89511	0.4114	0.061
Mof_H 	H 	0.0189	0.9069	0.4084	0.001
Mof_C 	C 	0.98237	0.86138	0.41699	0.063
Mof_H 	H 	0.993	0.8511	0.4159	-0.001
Mof_C 	C 	0.9706	0.86166	0.4346	-0.103
Mof_H 	H 	0.9731	0.8519	0.4455	0.068
Mof_C 	C 	0.9547	0.87667	0.4364	0.009
Mof_H 	H 	0.9459	0.8771	0.4484	0.037
Mof_C 	C 	0.95217	0.89076	0.42016	-0.052
Mof_C 	C 	0.96498	0.88915	0.40269	0.042
Mof_H 	H 	0.963	0.8987	0.3915	0.011
Mof_C 	C 	0.93559	0.90698	0.42092	0.135
Mof_C 	C 	0.99941	0.92522	0.37389	0.108
Mof_N 	N 	0.09096	0.76475	0.38308	-0.223
Mof_N 	N 	0.11285	0.89301	0.47554	-0.261
Mof_N 	N 	0.12503	0.84758	0.48449	-0.224
Mof_N 	N 	0.0796	0.84418	0.43909	-0.151
Mof_N 	N 	0.08966	0.80971	0.42975	-0.15
Mof_N 	N 	0.06113	0.82613	0.41237	-0.151
Mof_N 	N 	0.02568	0.87815	0.39925	-0.229
Mof_N 	N 	0.00119	0.90762	0.37324	-0.264
Mof_N 	N 	0.97991	0.87476	0.40103	-0.229
Mof_N 	N 	0.92169	0.90572	0.43603	-0.152
Mof_S 	S 	0.08696	0.92188	0.45537	-0.059
Mof_S 	S 	0.99784	0.95072	0.37654	-0.062
Mof_C 	C 	0.59028	0.28011	0.39742	0.033
Mof_H 	H 	0.6024	0.2827	0.4056	0.014
Mof_C 	C 	0.57258	0.2925	0.40086	-0.046
Mof_C 	C 	0.55477	0.28862	0.38928	0.006
Mof_H 	H 	0.5426	0.297	0.3908	0.038
Mof_C 	C 	0.55514	0.2719	0.37518	-0.1
Mof_H 	H 	0.5429	0.2682	0.3676	0.066
Mof_C 	C 	0.57314	0.26093	0.37242	0.061
Mof_H 	H 	0.5732	0.2499	0.3624	-0
Mof_C 	C 	0.60226	0.40467	0.46662	0.098
Mof_C 	C 	0.63852	0.33157	0.48679	0.057
Mof_H 	H 	0.6494	0.3329	0.4968	-0
Mof_C 	C 	0.6374	0.31334	0.47538	-0.096
Mof_H 	H 	0.6469	0.3022	0.478	0.063
Mof_C 	C 	0.62221	0.31142	0.45993	0.004
Mof_H 	H 	0.6216	0.2993	0.4513	0.038
Mof_C 	C 	0.6079	0.32774	0.45751	-0.045
Mof_C 	C 	0.60974	0.34528	0.46999	0.031
Mof_H 	H 	0.5998	0.3562	0.4683	0.017
Mof_C 	C 	0.59132	0.32718	0.44123	0.134
Mof_C 	C 	0.57433	0.3103	0.41539	0.133
Mof_C 	C 	0.56489	0.34316	0.42411	0.133
Mof_C 	C 	0.53768	0.36178	0.40399	0.039
Mof_H 	H 	0.5363	0.3494	0.3958	0.012
Mof_C 	C 	0.55221	0.36185	0.42048	-0.051
Mof_C 	C 	0.55411	0.3796	0.43265	0.009
Mof_H 	H 	0.564	0.3803	0.4438	0.037
Mof_C 	C 	0.54109	0.39642	0.42808	-0.1
Mof_H 	H 	0.5416	0.4087	0.4364	0.067
Mof_C 	C 	0.52746	0.39511	0.4114	0.061
Mof_H 	H 	0.5189	0.4069	0.4084	0.001
Mof_C 	C 	0.48237	0.36138	0.41699	0.063
Mof_H 	H 	0.493	0.3511	0.4159	-0.001
Mof_C 	C 	0.4706	0.36166	0.4346	-0.103
Mof_H 	H 	0.4731	0.3519	0.4455	0.068
Mof_C 	C 	0.4547	0.37667	0.4364	0.009
Mof_H 	H 	0.4459	0.3771	0.4484	0.037
Mof_C 	C 	0.45217	0.39076	0.42016	-0.052
Mof_C 	C 	0.46498	0.38915	0.40269	0.042
Mof_H 	H 	0.463	0.3987	0.3915	0.011
Mof_C 	C 	0.43559	0.40698	0.42092	0.135
Mof_C 	C 	0.49941	0.42522	0.37389	0.108
Mof_N 	N 	0.59096	0.26475	0.38308	-0.223
Mof_N 	N 	0.61285	0.39301	0.47554	-0.261
Mof_N 	N 	0.62503	0.34758	0.48449	-0.224
Mof_N 	N 	0.5796	0.34418	0.43909	-0.151
Mof_N 	N 	0.58966	0.30971	0.42975	-0.15
Mof_N 	N 	0.56113	0.32613	0.41237	-0.151
Mof_N 	N 	0.52568	0.37815	0.39925	-0.229
Mof_N 	N 	0.50119	0.40762	0.37324	-0.264
Mof_N 	N 	0.47991	0.37476	0.40103	-0.229
Mof_N 	N 	0.42169	0.40572	0.43603	-0.152
Mof_S 	S 	0.58696	0.42188	0.45537	-0.059
Mof_S 	S 	0.49784	0.45072	0.37654	-0.062
Mof_C 	C 	0.59028	0.78011	0.89742	0.033
Mof_H 	H 	0.6024	0.7827	0.9056	0.014
Mof_C 	C 	0.57258	0.7925	0.90086	-0.046
Mof_C 	C 	0.55477	0.78862	0.88928	0.006
Mof_H 	H 	0.5426	0.797	0.8908	0.038
Mof_C 	C 	0.55514	0.7719	0.87518	-0.1
Mof_H 	H 	0.5429	0.7682	0.8676	0.066
Mof_C 	C 	0.57314	0.76093	0.87242	0.061
Mof_H 	H 	0.5732	0.7499	0.8624	-0
Mof_C 	C 	0.60226	0.90467	0.96662	0.098
Mof_C 	C 	0.63852	0.83157	0.98679	0.057
Mof_H 	H 	0.6494	0.8329	0.9968	-0
Mof_C 	C 	0.6374	0.81334	0.97538	-0.096
Mof_H 	H 	0.6469	0.8022	0.978	0.063
Mof_C 	C 	0.62221	0.81142	0.95993	0.004
Mof_H 	H 	0.6216	0.7993	0.9513	0.038
Mof_C 	C 	0.6079	0.82774	0.95751	-0.045
Mof_C 	C 	0.60974	0.84528	0.96999	0.031
Mof_H 	H 	0.5998	0.8562	0.9683	0.017
Mof_C 	C 	0.59132	0.82718	0.94123	0.134
Mof_C 	C 	0.57433	0.8103	0.91539	0.133
Mof_C 	C 	0.56489	0.84316	0.92411	0.133
Mof_C 	C 	0.53768	0.86178	0.90399	0.039
Mof_H 	H 	0.5363	0.8494	0.8958	0.012
Mof_C 	C 	0.55221	0.86185	0.92048	-0.051
Mof_C 	C 	0.55411	0.8796	0.93265	0.009
Mof_H 	H 	0.564	0.8803	0.9438	0.037
Mof_C 	C 	0.54109	0.89642	0.92808	-0.1
Mof_H 	H 	0.5416	0.9087	0.9364	0.067
Mof_C 	C 	0.52746	0.89511	0.9114	0.061
Mof_H 	H 	0.5189	0.9069	0.9084	0.001
Mof_C 	C 	0.48237	0.86138	0.91699	0.063
Mof_H 	H 	0.493	0.8511	0.9159	-0.001
Mof_C 	C 	0.4706	0.86166	0.9346	-0.103
Mof_H 	H 	0.4731	0.8519	0.9455	0.068
Mof_C 	C 	0.4547	0.87667	0.9364	0.009
Mof_H 	H 	0.4459	0.8771	0.9484	0.037
Mof_C 	C 	0.45217	0.89076	0.92016	-0.052
Mof_C 	C 	0.46498	0.88915	0.90269	0.042
Mof_H 	H 	0.463	0.8987	0.8915	0.011
Mof_C 	C 	0.43559	0.90698	0.92092	0.135
Mof_C 	C 	0.49941	0.92522	0.87389	0.108
Mof_N 	N 	0.59096	0.76475	0.88308	-0.223
Mof_N 	N 	0.61285	0.89301	0.97554	-0.261
Mof_N 	N 	0.62503	0.84758	0.98449	-0.224
Mof_N 	N 	0.5796	0.84418	0.93909	-0.151
Mof_N 	N 	0.58966	0.80971	0.92975	-0.15
Mof_N 	N 	0.56113	0.82613	0.91237	-0.151
Mof_N 	N 	0.52568	0.87815	0.89925	-0.229
Mof_N 	N 	0.50119	0.90762	0.87324	-0.264
Mof_N 	N 	0.47991	0.87476	0.90103	-0.229
Mof_N 	N 	0.42169	0.90572	0.93603	-0.152
Mof_S 	S 	0.58696	0.92188	0.95537	-0.059
Mof_S 	S 	0.49784	0.95072	0.87654	-0.062
Mof_C 	C 	0.65972	0.78011	0.35258	0.033
Mof_H 	H 	0.6476	0.7827	0.3444	0.014
Mof_C 	C 	0.67742	0.7925	0.34914	-0.046
Mof_C 	C 	0.69523	0.78862	0.36072	0.006
Mof_H 	H 	0.7074	0.797	0.3592	0.038
Mof_C 	C 	0.69486	0.7719	0.37482	-0.1
Mof_H 	H 	0.7071	0.7682	0.3824	0.066
Mof_C 	C 	0.67686	0.76093	0.37758	0.061
Mof_H 	H 	0.6768	0.7499	0.3876	-0
Mof_C 	C 	0.64774	0.90467	0.28338	0.098
Mof_C 	C 	0.61148	0.83157	0.26321	0.057
Mof_H 	H 	0.6006	0.8329	0.2532	-0
Mof_C 	C 	0.6126	0.81334	0.27462	-0.096
Mof_H 	H 	0.6031	0.8022	0.272	0.063
Mof_C 	C 	0.62779	0.81142	0.29007	0.004
Mof_H 	H 	0.6284	0.7993	0.2987	0.038
Mof_C 	C 	0.6421	0.82774	0.29249	-0.045
Mof_C 	C 	0.64026	0.84528	0.28001	0.031
Mof_H 	H 	0.6502	0.8562	0.2817	0.017
Mof_C 	C 	0.65868	0.82718	0.30877	0.134
Mof_C 	C 	0.67567	0.8103	0.33461	0.133
Mof_C 	C 	0.68511	0.84316	0.32589	0.133
Mof_C 	C 	0.71232	0.86178	0.34601	0.039
Mof_H 	H 	0.7137	0.8494	0.3542	0.012
Mof_C 	C 	0.69779	0.86185	0.32952	-0.051
Mof_C 	C 	0.69589	0.8796	0.31735	0.009
Mof_H 	H 	0.686	0.8803	0.3062	0.037
Mof_C 	C 	0.70891	0.89642	0.32192	-0.1
Mof_H 	H 	0.7084	0.9087	0.3136	0.067
Mof_C 	C 	0.72254	0.89511	0.3386	0.061
Mof_H 	H 	0.7311	0.9069	0.3416	0.001
Mof_C 	C 	0.76763	0.86138	0.33301	0.063
Mof_H 	H 	0.757	0.8511	0.3341	-0.001
Mof_C 	C 	0.7794	0.86166	0.3154	-0.103
Mof_H 	H 	0.7769	0.8519	0.3045	0.068
Mof_C 	C 	0.7953	0.87667	0.3136	0.009
Mof_H 	H 	0.8041	0.8771	0.3016	0.037
Mof_C 	C 	0.79783	0.89076	0.32984	-0.052
Mof_C 	C 	0.78502	0.88915	0.34731	0.042
Mof_H 	H 	0.787	0.8987	0.3585	0.011
Mof_C 	C 	0.81441	0.90698	0.32908	0.135
Mof_C 	C 	0.75059	0.92522	0.37611	0.108
Mof_N 	N 	0.65904	0.76475	0.36692	-0.223
Mof_N 	N 	0.63715	0.89301	0.27446	-0.261
Mof_N 	N 	0.62497	0.84758	0.26551	-0.224
Mof_N 	N 	0.6704	0.84418	0.31091	-0.151
Mof_N 	N 	0.66034	0.80971	0.32025	-0.15
Mof_N 	N 	0.68887	0.82613	0.33763	-0.151
Mof_N 	N 	0.72432	0.87815	0.35075	-0.229
Mof_N 	N 	0.74881	0.90762	0.37676	-0.264
Mof_N 	N 	0.77009	0.87476	0.34897	-0.229
Mof_N 	N 	0.82831	0.90572	0.31397	-0.152
Mof_S 	S 	0.66304	0.92188	0.29463	-0.059
Mof_S 	S 	0.75216	0.95072	0.37346	-0.062
Mof_C 	C 	0.65972	0.28011	0.85258	0.033
Mof_H 	H 	0.6476	0.2827	0.8444	0.014
Mof_C 	C 	0.67742	0.2925	0.84914	-0.046
Mof_C 	C 	0.69523	0.28862	0.86072	0.006
Mof_H 	H 	0.7074	0.297	0.8592	0.038
Mof_C 	C 	0.69486	0.2719	0.87482	-0.1
Mof_H 	H 	0.7071	0.2682	0.8824	0.066
Mof_C 	C 	0.67686	0.26093	0.87758	0.061
Mof_H 	H 	0.6768	0.2499	0.8876	-0
Mof_C 	C 	0.64774	0.40467	0.78338	0.098
Mof_C 	C 	0.61148	0.33157	0.76321	0.057
Mof_H 	H 	0.6006	0.3329	0.7532	-0
Mof_C 	C 	0.6126	0.31334	0.77462	-0.096
Mof_H 	H 	0.6031	0.3022	0.772	0.063
Mof_C 	C 	0.62779	0.31142	0.79007	0.004
Mof_H 	H 	0.6284	0.2993	0.7987	0.038
Mof_C 	C 	0.6421	0.32774	0.79249	-0.045
Mof_C 	C 	0.64026	0.34528	0.78001	0.031
Mof_H 	H 	0.6502	0.3562	0.7817	0.017
Mof_C 	C 	0.65868	0.32718	0.80877	0.134
Mof_C 	C 	0.67567	0.3103	0.83461	0.133
Mof_C 	C 	0.68511	0.34316	0.82589	0.133
Mof_C 	C 	0.71232	0.36178	0.84601	0.039
Mof_H 	H 	0.7137	0.3494	0.8542	0.012
Mof_C 	C 	0.69779	0.36185	0.82952	-0.051
Mof_C 	C 	0.69589	0.3796	0.81735	0.009
Mof_H 	H 	0.686	0.3803	0.8062	0.037
Mof_C 	C 	0.70891	0.39642	0.82192	-0.1
Mof_H 	H 	0.7084	0.4087	0.8136	0.067
Mof_C 	C 	0.72254	0.39511	0.8386	0.061
Mof_H 	H 	0.7311	0.4069	0.8416	0.001
Mof_C 	C 	0.76763	0.36138	0.83301	0.063
Mof_H 	H 	0.757	0.3511	0.8341	-0.001
Mof_C 	C 	0.7794	0.36166	0.8154	-0.103
Mof_H 	H 	0.7769	0.3519	0.8045	0.068
Mof_C 	C 	0.7953	0.37667	0.8136	0.009
Mof_H 	H 	0.8041	0.3771	0.8016	0.037
Mof_C 	C 	0.79783	0.39076	0.82984	-0.052
Mof_C 	C 	0.78502	0.38915	0.84731	0.042
Mof_H 	H 	0.787	0.3987	0.8585	0.011
Mof_C 	C 	0.81441	0.40698	0.82908	0.135
Mof_C 	C 	0.75059	0.42522	0.87611	0.108
Mof_N 	N 	0.65904	0.26475	0.86692	-0.223
Mof_N 	N 	0.63715	0.39301	0.77446	-0.261
Mof_N 	N 	0.62497	0.34758	0.76551	-0.224
Mof_N 	N 	0.6704	0.34418	0.81091	-0.151
Mof_N 	N 	0.66034	0.30971	0.82025	-0.15
Mof_N 	N 	0.68887	0.32613	0.83763	-0.151
Mof_N 	N 	0.72432	0.37815	0.85075	-0.229
Mof_N 	N 	0.74881	0.40762	0.87676	-0.264
Mof_N 	N 	0.77009	0.37476	0.84897	-0.229
Mof_N 	N 	0.82831	0.40572	0.81397	-0.152
Mof_S 	S 	0.66304	0.42188	0.79463	-0.059
Mof_S 	S 	0.75216	0.45072	0.87346	-0.062
Mof_C 	C 	0.15972	0.78011	0.85258	0.033
Mof_H 	H 	0.1476	0.7827	0.8444	0.014
Mof_C 	C 	0.17742	0.7925	0.84914	-0.046
Mof_C 	C 	0.19523	0.78862	0.86072	0.006
Mof_H 	H 	0.2074	0.797	0.8592	0.038
Mof_C 	C 	0.19486	0.7719	0.87482	-0.1
Mof_H 	H 	0.2071	0.7682	0.8824	0.066
Mof_C 	C 	0.17686	0.76093	0.87758	0.061
Mof_H 	H 	0.1768	0.7499	0.8876	-0
Mof_C 	C 	0.14774	0.90467	0.78338	0.098
Mof_C 	C 	0.11148	0.83157	0.76321	0.057
Mof_H 	H 	0.1006	0.8329	0.7532	-0
Mof_C 	C 	0.1126	0.81334	0.77462	-0.096
Mof_H 	H 	0.1031	0.8022	0.772	0.063
Mof_C 	C 	0.12779	0.81142	0.79007	0.004
Mof_H 	H 	0.1284	0.7993	0.7987	0.038
Mof_C 	C 	0.1421	0.82774	0.79249	-0.045
Mof_C 	C 	0.14026	0.84528	0.78001	0.031
Mof_H 	H 	0.1502	0.8562	0.7817	0.017
Mof_C 	C 	0.15868	0.82718	0.80877	0.134
Mof_C 	C 	0.17567	0.8103	0.83461	0.133
Mof_C 	C 	0.18511	0.84316	0.82589	0.133
Mof_C 	C 	0.21232	0.86178	0.84601	0.039
Mof_H 	H 	0.2137	0.8494	0.8542	0.012
Mof_C 	C 	0.19779	0.86185	0.82952	-0.051
Mof_C 	C 	0.19589	0.8796	0.81735	0.009
Mof_H 	H 	0.186	0.8803	0.8062	0.037
Mof_C 	C 	0.20891	0.89642	0.82192	-0.1
Mof_H 	H 	0.2084	0.9087	0.8136	0.067
Mof_C 	C 	0.22254	0.89511	0.8386	0.061
Mof_H 	H 	0.2311	0.9069	0.8416	0.001
Mof_C 	C 	0.26763	0.86138	0.83301	0.063
Mof_H 	H 	0.257	0.8511	0.8341	-0.001
Mof_C 	C 	0.2794	0.86166	0.8154	-0.103
Mof_H 	H 	0.2769	0.8519	0.8045	0.068
Mof_C 	C 	0.2953	0.87667	0.8136	0.009
Mof_H 	H 	0.3041	0.8771	0.8016	0.037
Mof_C 	C 	0.29783	0.89076	0.82984	-0.052
Mof_C 	C 	0.28502	0.88915	0.84731	0.042
Mof_H 	H 	0.287	0.8987	0.8585	0.011
Mof_C 	C 	0.31441	0.90698	0.82908	0.135
Mof_C 	C 	0.25059	0.92522	0.87611	0.108
Mof_N 	N 	0.15904	0.76475	0.86692	-0.223
Mof_N 	N 	0.13715	0.89301	0.77446	-0.261
Mof_N 	N 	0.12497	0.84758	0.76551	-0.224
Mof_N 	N 	0.1704	0.84418	0.81091	-0.151
Mof_N 	N 	0.16034	0.80971	0.82025	-0.15
Mof_N 	N 	0.18887	0.82613	0.83763	-0.151
Mof_N 	N 	0.22432	0.87815	0.85075	-0.229
Mof_N 	N 	0.24881	0.90762	0.87676	-0.264
Mof_N 	N 	0.27009	0.87476	0.84897	-0.229
Mof_N 	N 	0.32831	0.90572	0.81397	-0.152
Mof_S 	S 	0.16304	0.92188	0.79463	-0.059
Mof_S 	S 	0.25216	0.95072	0.87346	-0.062
Mof_C 	C 	0.15972	0.28011	0.35258	0.033
Mof_H 	H 	0.1476	0.2827	0.3444	0.014
Mof_C 	C 	0.17742	0.2925	0.34914	-0.046
Mof_C 	C 	0.19523	0.28862	0.36072	0.006
Mof_H 	H 	0.2074	0.297	0.3592	0.038
Mof_C 	C 	0.19486	0.2719	0.37482	-0.1
Mof_H 	H 	0.2071	0.2682	0.3824	0.066
Mof_C 	C 	0.17686	0.26093	0.37758	0.061
Mof_H 	H 	0.1768	0.2499	0.3876	-0
Mof_C 	C 	0.14774	0.40467	0.28338	0.098
Mof_C 	C 	0.11148	0.33157	0.26321	0.057
Mof_H 	H 	0.1006	0.3329	0.2532	-0
Mof_C 	C 	0.1126	0.31334	0.27462	-0.096
Mof_H 	H 	0.1031	0.3022	0.272	0.063
Mof_C 	C 	0.12779	0.31142	0.29007	0.004
Mof_H 	H 	0.1284	0.2993	0.2987	0.038
Mof_C 	C 	0.1421	0.32774	0.29249	-0.045
Mof_C 	C 	0.14026	0.34528	0.28001	0.031
Mof_H 	H 	0.1502	0.3562	0.2817	0.017
Mof_C 	C 	0.15868	0.32718	0.30877	0.134
Mof_C 	C 	0.17567	0.3103	0.33461	0.133
Mof_C 	C 	0.18511	0.34316	0.32589	0.133
Mof_C 	C 	0.21232	0.36178	0.34601	0.039
Mof_H 	H 	0.2137	0.3494	0.3542	0.012
Mof_C 	C 	0.19779	0.36185	0.32952	-0.051
Mof_C 	C 	0.19589	0.3796	0.31735	0.009
Mof_H 	H 	0.186	0.3803	0.3062	0.037
Mof_C 	C 	0.20891	0.39642	0.32192	-0.1
Mof_H 	H 	0.2084	0.4087	0.3136	0.067
Mof_C 	C 	0.22254	0.39511	0.3386	0.061
Mof_H 	H 	0.2311	0.4069	0.3416	0.001
Mof_C 	C 	0.26763	0.36138	0.33301	0.063
Mof_H 	H 	0.257	0.3511	0.3341	-0.001
Mof_C 	C 	0.2794	0.36166	0.3154	-0.103
Mof_H 	H 	0.2769	0.3519	0.3045	0.068
Mof_C 	C 	0.2953	0.37667	0.3136	0.009
Mof_H 	H 	0.3041	0.3771	0.3016	0.037
Mof_C 	C 	0.29783	0.39076	0.32984	-0.052
Mof_C 	C 	0.28502	0.38915	0.34731	0.042
Mof_H 	H 	0.287	0.3987	0.3585	0.011
Mof_C 	C 	0.31441	0.40698	0.32908	0.135
Mof_C 	C 	0.25059	0.42522	0.37611	0.108
Mof_N 	N 	0.15904	0.26475	0.36692	-0.223
Mof_N 	N 	0.13715	0.39301	0.27446	-0.261
Mof_N 	N 	0.12497	0.34758	0.26551	-0.224
Mof_N 	N 	0.1704	0.34418	0.31091	-0.151
Mof_N 	N 	0.16034	0.30971	0.32025	-0.15
Mof_N 	N 	0.18887	0.32613	0.33763	-0.151
Mof_N 	N 	0.22432	0.37815	0.35075	-0.229
Mof_N 	N 	0.24881	0.40762	0.37676	-0.264
Mof_N 	N 	0.27009	0.37476	0.34897	-0.229
Mof_N 	N 	0.32831	0.40572	0.31397	-0.152
Mof_S 	S 	0.16304	0.42188	0.29463	-0.059
Mof_S 	S 	0.25216	0.45072	0.37346	-0.062
Mof_C 	C 	0.96989	0.85258	0.59028	0.033
Mof_H 	H 	0.9673	0.8444	0.6024	0.014
Mof_C 	C 	0.9575	0.84914	0.57258	-0.046
Mof_C 	C 	0.96138	0.86072	0.55477	0.006
Mof_H 	H 	0.953	0.8592	0.5426	0.038
Mof_C 	C 	0.9781	0.87482	0.55514	-0.1
Mof_H 	H 	0.9818	0.8824	0.5429	0.066
Mof_C 	C 	0.98907	0.87758	0.57314	0.061
Mof_H 	H 	0.0001	0.8876	0.5732	-0
Mof_C 	C 	0.84533	0.78338	0.60226	0.098
Mof_C 	C 	0.91843	0.76321	0.63852	0.057
Mof_H 	H 	0.9171	0.7532	0.6494	-0
Mof_C 	C 	0.93666	0.77462	0.6374	-0.096
Mof_H 	H 	0.9478	0.772	0.6469	0.063
Mof_C 	C 	0.93858	0.79007	0.62221	0.004
Mof_H 	H 	0.9507	0.7987	0.6216	0.038
Mof_C 	C 	0.92226	0.79249	0.6079	-0.045
Mof_C 	C 	0.90472	0.78001	0.60974	0.031
Mof_H 	H 	0.8938	0.7817	0.5998	0.017
Mof_C 	C 	0.92282	0.80877	0.59132	0.134
Mof_C 	C 	0.9397	0.83461	0.57433	0.133
Mof_C 	C 	0.90684	0.82589	0.56489	0.133
Mof_C 	C 	0.88822	0.84601	0.53768	0.039
Mof_H 	H 	0.9006	0.8542	0.5363	0.012
Mof_C 	C 	0.88815	0.82952	0.55221	-0.051
Mof_C 	C 	0.8704	0.81735	0.55411	0.009
Mof_H 	H 	0.8697	0.8062	0.564	0.037
Mof_C 	C 	0.85358	0.82192	0.54109	-0.1
Mof_H 	H 	0.8413	0.8136	0.5416	0.067
Mof_C 	C 	0.85489	0.8386	0.52746	0.061
Mof_H 	H 	0.8431	0.8416	0.5189	0.001
Mof_C 	C 	0.88862	0.83301	0.48237	0.063
Mof_H 	H 	0.8989	0.8341	0.493	-0.001
Mof_C 	C 	0.88834	0.8154	0.4706	-0.103
Mof_H 	H 	0.8981	0.8045	0.4731	0.068
Mof_C 	C 	0.87333	0.8136	0.4547	0.009
Mof_H 	H 	0.8729	0.8016	0.4459	0.037
Mof_C 	C 	0.85924	0.82984	0.45217	-0.052
Mof_C 	C 	0.86085	0.84731	0.46498	0.042
Mof_H 	H 	0.8513	0.8585	0.463	0.011
Mof_C 	C 	0.84302	0.82908	0.43559	0.135
Mof_C 	C 	0.82478	0.87611	0.49941	0.108
Mof_N 	N 	0.98525	0.86692	0.59096	-0.223
Mof_N 	N 	0.85699	0.77446	0.61285	-0.261
Mof_N 	N 	0.90242	0.76551	0.62503	-0.224
Mof_N 	N 	0.90582	0.81091	0.5796	-0.151
Mof_N 	N 	0.94029	0.82025	0.58966	-0.15
Mof_N 	N 	0.92387	0.83763	0.56113	-0.151
Mof_N 	N 	0.87185	0.85075	0.52568	-0.229
Mof_N 	N 	0.84238	0.87676	0.50119	-0.264
Mof_N 	N 	0.87524	0.84897	0.47991	-0.229
Mof_N 	N 	0.84428	0.81397	0.42169	-0.152
Mof_S 	S 	0.82812	0.79463	0.58696	-0.059
Mof_S 	S 	0.79928	0.87346	0.49784	-0.062
Mof_C 	C 	0.96989	0.35258	0.09028	0.033
Mof_H 	H 	0.9673	0.3444	0.1024	0.014
Mof_C 	C 	0.9575	0.34914	0.07258	-0.046
Mof_C 	C 	0.96138	0.36072	0.05477	0.006
Mof_H 	H 	0.953	0.3592	0.0426	0.038
Mof_C 	C 	0.9781	0.37482	0.05514	-0.1
Mof_H 	H 	0.9818	0.3824	0.0429	0.066
Mof_C 	C 	0.98907	0.37758	0.07314	0.061
Mof_H 	H 	0.0001	0.3876	0.0732	-0
Mof_C 	C 	0.84533	0.28338	0.10226	0.098
Mof_C 	C 	0.91843	0.26321	0.13852	0.057
Mof_H 	H 	0.9171	0.2532	0.1494	-0
Mof_C 	C 	0.93666	0.27462	0.1374	-0.096
Mof_H 	H 	0.9478	0.272	0.1469	0.063
Mof_C 	C 	0.93858	0.29007	0.12221	0.004
Mof_H 	H 	0.9507	0.2987	0.1216	0.038
Mof_C 	C 	0.92226	0.29249	0.1079	-0.045
Mof_C 	C 	0.90472	0.28001	0.10974	0.031
Mof_H 	H 	0.8938	0.2817	0.0998	0.017
Mof_C 	C 	0.92282	0.30877	0.09132	0.134
Mof_C 	C 	0.9397	0.33461	0.07433	0.133
Mof_C 	C 	0.90684	0.32589	0.06489	0.133
Mof_C 	C 	0.88822	0.34601	0.03768	0.039
Mof_H 	H 	0.9006	0.3542	0.0363	0.012
Mof_C 	C 	0.88815	0.32952	0.05221	-0.051
Mof_C 	C 	0.8704	0.31735	0.05411	0.009
Mof_H 	H 	0.8697	0.3062	0.064	0.037
Mof_C 	C 	0.85358	0.32192	0.04109	-0.1
Mof_H 	H 	0.8413	0.3136	0.0416	0.067
Mof_C 	C 	0.85489	0.3386	0.02746	0.061
Mof_H 	H 	0.8431	0.3416	0.0189	0.001
Mof_C 	C 	0.88862	0.33301	0.98237	0.063
Mof_H 	H 	0.8989	0.3341	0.993	-0.001
Mof_C 	C 	0.88834	0.3154	0.9706	-0.103
Mof_H 	H 	0.8981	0.3045	0.9731	0.068
Mof_C 	C 	0.87333	0.3136	0.9547	0.009
Mof_H 	H 	0.8729	0.3016	0.9459	0.037
Mof_C 	C 	0.85924	0.32984	0.95217	-0.052
Mof_C 	C 	0.86085	0.34731	0.96498	0.042
Mof_H 	H 	0.8513	0.3585	0.963	0.011
Mof_C 	C 	0.84302	0.32908	0.93559	0.135
Mof_C 	C 	0.82478	0.37611	0.99941	0.108
Mof_N 	N 	0.98525	0.36692	0.09096	-0.223
Mof_N 	N 	0.85699	0.27446	0.11285	-0.261
Mof_N 	N 	0.90242	0.26551	0.12503	-0.224
Mof_N 	N 	0.90582	0.31091	0.0796	-0.151
Mof_N 	N 	0.94029	0.32025	0.08966	-0.15
Mof_N 	N 	0.92387	0.33763	0.06113	-0.151
Mof_N 	N 	0.87185	0.35075	0.02568	-0.229
Mof_N 	N 	0.84238	0.37676	0.00119	-0.264
Mof_N 	N 	0.87524	0.34897	0.97991	-0.229
Mof_N 	N 	0.84428	0.31397	0.92169	-0.152
Mof_S 	S 	0.82812	0.29463	0.08696	-0.059
Mof_S 	S 	0.79928	0.37346	0.99784	-0.062
Mof_C 	C 	0.46989	0.85258	0.09028	0.033
Mof_H 	H 	0.4673	0.8444	0.1024	0.014
Mof_C 	C 	0.4575	0.84914	0.07258	-0.046
Mof_C 	C 	0.46138	0.86072	0.05477	0.006
Mof_H 	H 	0.453	0.8592	0.0426	0.038
Mof_C 	C 	0.4781	0.87482	0.05514	-0.1
Mof_H 	H 	0.4818	0.8824	0.0429	0.066
Mof_C 	C 	0.48907	0.87758	0.07314	0.061
Mof_H 	H 	0.5001	0.8876	0.0732	-0
Mof_C 	C 	0.34533	0.78338	0.10226	0.098
Mof_C 	C 	0.41843	0.76321	0.13852	0.057
Mof_H 	H 	0.4171	0.7532	0.1494	-0
Mof_C 	C 	0.43666	0.77462	0.1374	-0.096
Mof_H 	H 	0.4478	0.772	0.1469	0.063
Mof_C 	C 	0.43858	0.79007	0.12221	0.004
Mof_H 	H 	0.4507	0.7987	0.1216	0.038
Mof_C 	C 	0.42226	0.79249	0.1079	-0.045
Mof_C 	C 	0.40472	0.78001	0.10974	0.031
Mof_H 	H 	0.3938	0.7817	0.0998	0.017
Mof_C 	C 	0.42282	0.80877	0.09132	0.134
Mof_C 	C 	0.4397	0.83461	0.07433	0.133
Mof_C 	C 	0.40684	0.82589	0.06489	0.133
Mof_C 	C 	0.38822	0.84601	0.03768	0.039
Mof_H 	H 	0.4006	0.8542	0.0363	0.012
Mof_C 	C 	0.38815	0.82952	0.05221	-0.051
Mof_C 	C 	0.3704	0.81735	0.05411	0.009
Mof_H 	H 	0.3697	0.8062	0.064	0.037
Mof_C 	C 	0.35358	0.82192	0.04109	-0.1
Mof_H 	H 	0.3413	0.8136	0.0416	0.067
Mof_C 	C 	0.35489	0.8386	0.02746	0.061
Mof_H 	H 	0.3431	0.8416	0.0189	0.001
Mof_C 	C 	0.38862	0.83301	0.98237	0.063
Mof_H 	H 	0.3989	0.8341	0.993	-0.001
Mof_C 	C 	0.38834	0.8154	0.9706	-0.103
Mof_H 	H 	0.3981	0.8045	0.9731	0.068
Mof_C 	C 	0.37333	0.8136	0.9547	0.009
Mof_H 	H 	0.3729	0.8016	0.9459	0.037
Mof_C 	C 	0.35924	0.82984	0.95217	-0.052
Mof_C 	C 	0.36085	0.84731	0.96498	0.042
Mof_H 	H 	0.3513	0.8585	0.963	0.011
Mof_C 	C 	0.34302	0.82908	0.93559	0.135
Mof_C 	C 	0.32478	0.87611	0.99941	0.108
Mof_N 	N 	0.48525	0.86692	0.09096	-0.223
Mof_N 	N 	0.35699	0.77446	0.11285	-0.261
Mof_N 	N 	0.40242	0.76551	0.12503	-0.224
Mof_N 	N 	0.40582	0.81091	0.0796	-0.151
Mof_N 	N 	0.44029	0.82025	0.08966	-0.15
Mof_N 	N 	0.42387	0.83763	0.06113	-0.151
Mof_N 	N 	0.37185	0.85075	0.02568	-0.229
Mof_N 	N 	0.34238	0.87676	0.00119	-0.264
Mof_N 	N 	0.37524	0.84897	0.97991	-0.229
Mof_N 	N 	0.34428	0.81397	0.92169	-0.152
Mof_S 	S 	0.32812	0.79463	0.08696	-0.059
Mof_S 	S 	0.29928	0.87346	0.99784	-0.062
Mof_C 	C 	0.46989	0.35258	0.59028	0.033
Mof_H 	H 	0.4673	0.3444	0.6024	0.014
Mof_C 	C 	0.4575	0.34914	0.57258	-0.046
Mof_C 	C 	0.46138	0.36072	0.55477	0.006
Mof_H 	H 	0.453	0.3592	0.5426	0.038
Mof_C 	C 	0.4781	0.37482	0.55514	-0.1
Mof_H 	H 	0.4818	0.3824	0.5429	0.066
Mof_C 	C 	0.48907	0.37758	0.57314	0.061
Mof_H 	H 	0.5001	0.3876	0.5732	-0
Mof_C 	C 	0.34533	0.28338	0.60226	0.098
Mof_C 	C 	0.41843	0.26321	0.63852	0.057
Mof_H 	H 	0.4171	0.2532	0.6494	-0
Mof_C 	C 	0.43666	0.27462	0.6374	-0.096
Mof_H 	H 	0.4478	0.272	0.6469	0.063
Mof_C 	C 	0.43858	0.29007	0.62221	0.004
Mof_H 	H 	0.4507	0.2987	0.6216	0.038
Mof_C 	C 	0.42226	0.29249	0.6079	-0.045
Mof_C 	C 	0.40472	0.28001	0.60974	0.031
Mof_H 	H 	0.3938	0.2817	0.5998	0.017
Mof_C 	C 	0.42282	0.30877	0.59132	0.134
Mof_C 	C 	0.4397	0.33461	0.57433	0.133
Mof_C 	C 	0.40684	0.32589	0.56489	0.133
Mof_C 	C 	0.38822	0.34601	0.53768	0.039
Mof_H 	H 	0.4006	0.3542	0.5363	0.012
Mof_C 	C 	0.38815	0.32952	0.55221	-0.051
Mof_C 	C 	0.3704	0.31735	0.55411	0.009
Mof_H 	H 	0.3697	0.3062	0.564	0.037
Mof_C 	C 	0.35358	0.32192	0.54109	-0.1
Mof_H 	H 	0.3413	0.3136	0.5416	0.067
Mof_C 	C 	0.35489	0.3386	0.52746	0.061
Mof_H 	H 	0.3431	0.3416	0.5189	0.001
Mof_C 	C 	0.38862	0.33301	0.48237	0.063
Mof_H 	H 	0.3989	0.3341	0.493	-0.001
Mof_C 	C 	0.38834	0.3154	0.4706	-0.103
Mof_H 	H 	0.3981	0.3045	0.4731	0.068
Mof_C 	C 	0.37333	0.3136	0.4547	0.009
Mof_H 	H 	0.3729	0.3016	0.4459	0.037
Mof_C 	C 	0.35924	0.32984	0.45217	-0.052
Mof_C 	C 	0.36085	0.34731	0.46498	0.042
Mof_H 	H 	0.3513	0.3585	0.463	0.011
Mof_C 	C 	0.34302	0.32908	0.43559	0.135
Mof_C 	C 	0.32478	0.37611	0.49941	0.108
Mof_N 	N 	0.48525	0.36692	0.59096	-0.223
Mof_N 	N 	0.35699	0.27446	0.61285	-0.261
Mof_N 	N 	0.40242	0.26551	0.62503	-0.224
Mof_N 	N 	0.40582	0.31091	0.5796	-0.151
Mof_N 	N 	0.44029	0.32025	0.58966	-0.15
Mof_N 	N 	0.42387	0.33763	0.56113	-0.151
Mof_N 	N 	0.37185	0.35075	0.52568	-0.229
Mof_N 	N 	0.34238	0.37676	0.50119	-0.264
Mof_N 	N 	0.37524	0.34897	0.47991	-0.229
Mof_N 	N 	0.34428	0.31397	0.42169	-0.152
Mof_S 	S 	0.32812	0.29463	0.58696	-0.059
Mof_S 	S 	0.29928	0.37346	0.49784	-0.062
Mof_C 	C 	0.46989	0.39742	0.15972	0.033
Mof_H 	H 	0.4673	0.4056	0.1476	0.014
Mof_C 	C 	0.4575	0.40086	0.17742	-0.046
Mof_C 	C 	0.46138	0.38928	0.19523	0.006
Mof_H 	H 	0.453	0.3908	0.2074	0.038
Mof_C 	C 	0.4781	0.37518	0.19486	-0.1
Mof_H 	H 	0.4818	0.3676	0.2071	0.066
Mof_C 	C 	0.48907	0.37242	0.17686	0.061
Mof_H 	H 	0.5001	0.3624	0.1768	-0
Mof_C 	C 	0.34533	0.46662	0.14774	0.098
Mof_C 	C 	0.41843	0.48679	0.11148	0.057
Mof_H 	H 	0.4171	0.4968	0.1006	-0
Mof_C 	C 	0.43666	0.47538	0.1126	-0.096
Mof_H 	H 	0.4478	0.478	0.1031	0.063
Mof_C 	C 	0.43858	0.45993	0.12779	0.004
Mof_H 	H 	0.4507	0.4513	0.1284	0.038
Mof_C 	C 	0.42226	0.45751	0.1421	-0.045
Mof_C 	C 	0.40472	0.46999	0.14026	0.031
Mof_H 	H 	0.3938	0.4683	0.1502	0.017
Mof_C 	C 	0.42282	0.44123	0.15868	0.134
Mof_C 	C 	0.4397	0.41539	0.17567	0.133
Mof_C 	C 	0.40684	0.42411	0.18511	0.133
Mof_C 	C 	0.38822	0.40399	0.21232	0.039
Mof_H 	H 	0.4006	0.3958	0.2137	0.012
Mof_C 	C 	0.38815	0.42048	0.19779	-0.051
Mof_C 	C 	0.3704	0.43265	0.19589	0.009
Mof_H 	H 	0.3697	0.4438	0.186	0.037
Mof_C 	C 	0.35358	0.42808	0.20891	-0.1
Mof_H 	H 	0.3413	0.4364	0.2084	0.067
Mof_C 	C 	0.35489	0.4114	0.22254	0.061
Mof_H 	H 	0.3431	0.4084	0.2311	0.001
Mof_C 	C 	0.38862	0.41699	0.26763	0.063
Mof_H 	H 	0.3989	0.4159	0.257	-0.001
Mof_C 	C 	0.38834	0.4346	0.2794	-0.103
Mof_H 	H 	0.3981	0.4455	0.2769	0.068
Mof_C 	C 	0.37333	0.4364	0.2953	0.009
Mof_H 	H 	0.3729	0.4484	0.3041	0.037
Mof_C 	C 	0.35924	0.42016	0.29783	-0.052
Mof_C 	C 	0.36085	0.40269	0.28502	0.042
Mof_H 	H 	0.3513	0.3915	0.287	0.011
Mof_C 	C 	0.34302	0.42092	0.31441	0.135
Mof_C 	C 	0.32478	0.37389	0.25059	0.108
Mof_N 	N 	0.48525	0.38308	0.15904	-0.223
Mof_N 	N 	0.35699	0.47554	0.13715	-0.261
Mof_N 	N 	0.40242	0.48449	0.12497	-0.224
Mof_N 	N 	0.40582	0.43909	0.1704	-0.151
Mof_N 	N 	0.44029	0.42975	0.16034	-0.15
Mof_N 	N 	0.42387	0.41237	0.18887	-0.151
Mof_N 	N 	0.37185	0.39925	0.22432	-0.229
Mof_N 	N 	0.34238	0.37324	0.24881	-0.264
Mof_N 	N 	0.37524	0.40103	0.27009	-0.229
Mof_N 	N 	0.34428	0.43603	0.32831	-0.152
Mof_S 	S 	0.32812	0.45537	0.16304	-0.059
Mof_S 	S 	0.29928	0.37654	0.25216	-0.062
Mof_C 	C 	0.46989	0.89742	0.65972	0.033
Mof_H 	H 	0.4673	0.9056	0.6476	0.014
Mof_C 	C 	0.4575	0.90086	0.67742	-0.046
Mof_C 	C 	0.46138	0.88928	0.69523	0.006
Mof_H 	H 	0.453	0.8908	0.7074	0.038
Mof_C 	C 	0.4781	0.87518	0.69486	-0.1
Mof_H 	H 	0.4818	0.8676	0.7071	0.066
Mof_C 	C 	0.48907	0.87242	0.67686	0.061
Mof_H 	H 	0.5001	0.8624	0.6768	-0
Mof_C 	C 	0.34533	0.96662	0.64774	0.098
Mof_C 	C 	0.41843	0.98679	0.61148	0.057
Mof_H 	H 	0.4171	0.9968	0.6006	-0
Mof_C 	C 	0.43666	0.97538	0.6126	-0.096
Mof_H 	H 	0.4478	0.978	0.6031	0.063
Mof_C 	C 	0.43858	0.95993	0.62779	0.004
Mof_H 	H 	0.4507	0.9513	0.6284	0.038
Mof_C 	C 	0.42226	0.95751	0.6421	-0.045
Mof_C 	C 	0.40472	0.96999	0.64026	0.031
Mof_H 	H 	0.3938	0.9683	0.6502	0.017
Mof_C 	C 	0.42282	0.94123	0.65868	0.134
Mof_C 	C 	0.4397	0.91539	0.67567	0.133
Mof_C 	C 	0.40684	0.92411	0.68511	0.133
Mof_C 	C 	0.38822	0.90399	0.71232	0.039
Mof_H 	H 	0.4006	0.8958	0.7137	0.012
Mof_C 	C 	0.38815	0.92048	0.69779	-0.051
Mof_C 	C 	0.3704	0.93265	0.69589	0.009
Mof_H 	H 	0.3697	0.9438	0.686	0.037
Mof_C 	C 	0.35358	0.92808	0.70891	-0.1
Mof_H 	H 	0.3413	0.9364	0.7084	0.067
Mof_C 	C 	0.35489	0.9114	0.72254	0.061
Mof_H 	H 	0.3431	0.9084	0.7311	0.001
Mof_C 	C 	0.38862	0.91699	0.76763	0.063
Mof_H 	H 	0.3989	0.9159	0.757	-0.001
Mof_C 	C 	0.38834	0.9346	0.7794	-0.103
Mof_H 	H 	0.3981	0.9455	0.7769	0.068
Mof_C 	C 	0.37333	0.9364	0.7953	0.009
Mof_H 	H 	0.3729	0.9484	0.8041	0.037
Mof_C 	C 	0.35924	0.92016	0.79783	-0.052
Mof_C 	C 	0.36085	0.90269	0.78502	0.042
Mof_H 	H 	0.3513	0.8915	0.787	0.011
Mof_C 	C 	0.34302	0.92092	0.81441	0.135
Mof_C 	C 	0.32478	0.87389	0.75059	0.108
Mof_N 	N 	0.48525	0.88308	0.65904	-0.223
Mof_N 	N 	0.35699	0.97554	0.63715	-0.261
Mof_N 	N 	0.40242	0.98449	0.62497	-0.224
Mof_N 	N 	0.40582	0.93909	0.6704	-0.151
Mof_N 	N 	0.44029	0.92975	0.66034	-0.15
Mof_N 	N 	0.42387	0.91237	0.68887	-0.151
Mof_N 	N 	0.37185	0.89925	0.72432	-0.229
Mof_N 	N 	0.34238	0.87324	0.74881	-0.264
Mof_N 	N 	0.37524	0.90103	0.77009	-0.229
Mof_N 	N 	0.34428	0.93603	0.82831	-0.152
Mof_S 	S 	0.32812	0.95537	0.66304	-0.059
Mof_S 	S 	0.29928	0.87654	0.75216	-0.062
Mof_C 	C 	0.96989	0.39742	0.65972	0.033
Mof_H 	H 	0.9673	0.4056	0.6476	0.014
Mof_C 	C 	0.9575	0.40086	0.67742	-0.046
Mof_C 	C 	0.96138	0.38928	0.69523	0.006
Mof_H 	H 	0.953	0.3908	0.7074	0.038
Mof_C 	C 	0.9781	0.37518	0.69486	-0.1
Mof_H 	H 	0.9818	0.3676	0.7071	0.066
Mof_C 	C 	0.98907	0.37242	0.67686	0.061
Mof_H 	H 	0.0001	0.3624	0.6768	-0
Mof_C 	C 	0.84533	0.46662	0.64774	0.098
Mof_C 	C 	0.91843	0.48679	0.61148	0.057
Mof_H 	H 	0.9171	0.4968	0.6006	-0
Mof_C 	C 	0.93666	0.47538	0.6126	-0.096
Mof_H 	H 	0.9478	0.478	0.6031	0.063
Mof_C 	C 	0.93858	0.45993	0.62779	0.004
Mof_H 	H 	0.9507	0.4513	0.6284	0.038
Mof_C 	C 	0.92226	0.45751	0.6421	-0.045
Mof_C 	C 	0.90472	0.46999	0.64026	0.031
Mof_H 	H 	0.8938	0.4683	0.6502	0.017
Mof_C 	C 	0.92282	0.44123	0.65868	0.134
Mof_C 	C 	0.9397	0.41539	0.67567	0.133
Mof_C 	C 	0.90684	0.42411	0.68511	0.133
Mof_C 	C 	0.88822	0.40399	0.71232	0.039
Mof_H 	H 	0.9006	0.3958	0.7137	0.012
Mof_C 	C 	0.88815	0.42048	0.69779	-0.051
Mof_C 	C 	0.8704	0.43265	0.69589	0.009
Mof_H 	H 	0.8697	0.4438	0.686	0.037
Mof_C 	C 	0.85358	0.42808	0.70891	-0.1
Mof_H 	H 	0.8413	0.4364	0.7084	0.067
Mof_C 	C 	0.85489	0.4114	0.72254	0.061
Mof_H 	H 	0.8431	0.4084	0.7311	0.001
Mof_C 	C 	0.88862	0.41699	0.76763	0.063
Mof_H 	H 	0.8989	0.4159	0.757	-0.001
Mof_C 	C 	0.88834	0.4346	0.7794	-0.103
Mof_H 	H 	0.8981	0.4455	0.7769	0.068
Mof_C 	C 	0.87333	0.4364	0.7953	0.009
Mof_H 	H 	0.8729	0.4484	0.8041	0.037
Mof_C 	C 	0.85924	0.42016	0.79783	-0.052
Mof_C 	C 	0.86085	0.40269	0.78502	0.042
Mof_H 	H 	0.8513	0.3915	0.787	0.011
Mof_C 	C 	0.84302	0.42092	0.81441	0.135
Mof_C 	C 	0.82478	0.37389	0.75059	0.108
Mof_N 	N 	0.98525	0.38308	0.65904	-0.223
Mof_N 	N 	0.85699	0.47554	0.63715	-0.261
Mof_N 	N 	0.90242	0.48449	0.62497	-0.224
Mof_N 	N 	0.90582	0.43909	0.6704	-0.151
Mof_N 	N 	0.94029	0.42975	0.66034	-0.15
Mof_N 	N 	0.92387	0.41237	0.68887	-0.151
Mof_N 	N 	0.87185	0.39925	0.72432	-0.229
Mof_N 	N 	0.84238	0.37324	0.74881	-0.264
Mof_N 	N 	0.87524	0.40103	0.77009	-0.229
Mof_N 	N 	0.84428	0.43603	0.82831	-0.152
Mof_S 	S 	0.82812	0.45537	0.66304	-0.059
Mof_S 	S 	0.79928	0.37654	0.75216	-0.062
Mof_C 	C 	0.96989	0.89742	0.15972	0.033
Mof_H 	H 	0.9673	0.9056	0.1476	0.014
Mof_C 	C 	0.9575	0.90086	0.17742	-0.046
Mof_C 	C 	0.96138	0.88928	0.19523	0.006
Mof_H 	H 	0.953	0.8908	0.2074	0.038
Mof_C 	C 	0.9781	0.87518	0.19486	-0.1
Mof_H 	H 	0.9818	0.8676	0.2071	0.066
Mof_C 	C 	0.98907	0.87242	0.17686	0.061
Mof_H 	H 	0.0001	0.8624	0.1768	-0
Mof_C 	C 	0.84533	0.96662	0.14774	0.098
Mof_C 	C 	0.91843	0.98679	0.11148	0.057
Mof_H 	H 	0.9171	0.9968	0.1006	-0
Mof_C 	C 	0.93666	0.97538	0.1126	-0.096
Mof_H 	H 	0.9478	0.978	0.1031	0.063
Mof_C 	C 	0.93858	0.95993	0.12779	0.004
Mof_H 	H 	0.9507	0.9513	0.1284	0.038
Mof_C 	C 	0.92226	0.95751	0.1421	-0.045
Mof_C 	C 	0.90472	0.96999	0.14026	0.031
Mof_H 	H 	0.8938	0.9683	0.1502	0.017
Mof_C 	C 	0.92282	0.94123	0.15868	0.134
Mof_C 	C 	0.9397	0.91539	0.17567	0.133
Mof_C 	C 	0.90684	0.92411	0.18511	0.133
Mof_C 	C 	0.88822	0.90399	0.21232	0.039
Mof_H 	H 	0.9006	0.8958	0.2137	0.012
Mof_C 	C 	0.88815	0.92048	0.19779	-0.051
Mof_C 	C 	0.8704	0.93265	0.19589	0.009
Mof_H 	H 	0.8697	0.9438	0.186	0.037
Mof_C 	C 	0.85358	0.92808	0.20891	-0.1
Mof_H 	H 	0.8413	0.9364	0.2084	0.067
Mof_C 	C 	0.85489	0.9114	0.22254	0.061
Mof_H 	H 	0.8431	0.9084	0.2311	0.001
Mof_C 	C 	0.88862	0.91699	0.26763	0.063
Mof_H 	H 	0.8989	0.9159	0.257	-0.001
Mof_C 	C 	0.88834	0.9346	0.2794	-0.103
Mof_H 	H 	0.8981	0.9455	0.2769	0.068
Mof_C 	C 	0.87333	0.9364	0.2953	0.009
Mof_H 	H 	0.8729	0.9484	0.3041	0.037
Mof_C 	C 	0.85924	0.92016	0.29783	-0.052
Mof_C 	C 	0.86085	0.90269	0.28502	0.042
Mof_H 	H 	0.8513	0.8915	0.287	0.011
Mof_C 	C 	0.84302	0.92092	0.31441	0.135
Mof_C 	C 	0.82478	0.87389	0.25059	0.108
Mof_N 	N 	0.98525	0.88308	0.15904	-0.223
Mof_N 	N 	0.85699	0.97554	0.13715	-0.261
Mof_N 	N 	0.90242	0.98449	0.12497	-0.224
Mof_N 	N 	0.90582	0.93909	0.1704	-0.151
Mof_N 	N 	0.94029	0.92975	0.16034	-0.15
Mof_N 	N 	0.92387	0.91237	0.18887	-0.151
Mof_N 	N 	0.87185	0.89925	0.22432	-0.229
Mof_N 	N 	0.84238	0.87324	0.24881	-0.264
Mof_N 	N 	0.87524	0.90103	0.27009	-0.229
Mof_N 	N 	0.84428	0.93603	0.32831	-0.152
Mof_S 	S 	0.82812	0.95537	0.16304	-0.059
Mof_S 	S 	0.79928	0.87654	0.25216	-0.062
Mof_C 	C 	0.78011	0.35258	0.65972	0.033
Mof_H 	H 	0.7827	0.3444	0.6476	0.014
Mof_C 	C 	0.7925	0.34914	0.67742	-0.046
Mof_C 	C 	0.78862	0.36072	0.69523	0.006
Mof_H 	H 	0.797	0.3592	0.7074	0.038
Mof_C 	C 	0.7719	0.37482	0.69486	-0.1
Mof_H 	H 	0.7682	0.3824	0.7071	0.066
Mof_C 	C 	0.76093	0.37758	0.67686	0.061
Mof_H 	H 	0.7499	0.3876	0.6768	-0
Mof_C 	C 	0.90467	0.28338	0.64774	0.098
Mof_C 	C 	0.83157	0.26321	0.61148	0.057
Mof_H 	H 	0.8329	0.2532	0.6006	-0
Mof_C 	C 	0.81334	0.27462	0.6126	-0.096
Mof_H 	H 	0.8022	0.272	0.6031	0.063
Mof_C 	C 	0.81142	0.29007	0.62779	0.004
Mof_H 	H 	0.7993	0.2987	0.6284	0.038
Mof_C 	C 	0.82774	0.29249	0.6421	-0.045
Mof_C 	C 	0.84528	0.28001	0.64026	0.031
Mof_H 	H 	0.8562	0.2817	0.6502	0.017
Mof_C 	C 	0.82718	0.30877	0.65868	0.134
Mof_C 	C 	0.8103	0.33461	0.67567	0.133
Mof_C 	C 	0.84316	0.32589	0.68511	0.133
Mof_C 	C 	0.86178	0.34601	0.71232	0.039
Mof_H 	H 	0.8494	0.3542	0.7137	0.012
Mof_C 	C 	0.86185	0.32952	0.69779	-0.051
Mof_C 	C 	0.8796	0.31735	0.69589	0.009
Mof_H 	H 	0.8803	0.3062	0.686	0.037
Mof_C 	C 	0.89642	0.32192	0.70891	-0.1
Mof_H 	H 	0.9087	0.3136	0.7084	0.067
Mof_C 	C 	0.89511	0.3386	0.72254	0.061
Mof_H 	H 	0.9069	0.3416	0.7311	0.001
Mof_C 	C 	0.86138	0.33301	0.76763	0.063
Mof_H 	H 	0.8511	0.3341	0.757	-0.001
Mof_C 	C 	0.86166	0.3154	0.7794	-0.103
Mof_H 	H 	0.8519	0.3045	0.7769	0.068
Mof_C 	C 	0.87667	0.3136	0.7953	0.009
Mof_H 	H 	0.8771	0.3016	0.8041	0.037
Mof_C 	C 	0.89076	0.32984	0.79783	-0.052
Mof_C 	C 	0.88915	0.34731	0.78502	0.042
Mof_H 	H 	0.8987	0.3585	0.787	0.011
Mof_C 	C 	0.90698	0.32908	0.81441	0.135
Mof_C 	C 	0.92522	0.37611	0.75059	0.108
Mof_N 	N 	0.76475	0.36692	0.65904	-0.223
Mof_N 	N 	0.89301	0.27446	0.63715	-0.261
Mof_N 	N 	0.84758	0.26551	0.62497	-0.224
Mof_N 	N 	0.84418	0.31091	0.6704	-0.151
Mof_N 	N 	0.80971	0.32025	0.66034	-0.15
Mof_N 	N 	0.82613	0.33763	0.68887	-0.151
Mof_N 	N 	0.87815	0.35075	0.72432	-0.229
Mof_N 	N 	0.90762	0.37676	0.74881	-0.264
Mof_N 	N 	0.87476	0.34897	0.77009	-0.229
Mof_N 	N 	0.90572	0.31397	0.82831	-0.152
Mof_S 	S 	0.92188	0.29463	0.66304	-0.059
Mof_S 	S 	0.95072	0.37346	0.75216	-0.062
Mof_C 	C 	0.78011	0.85258	0.15972	0.033
Mof_H 	H 	0.7827	0.8444	0.1476	0.014
Mof_C 	C 	0.7925	0.84914	0.17742	-0.046
Mof_C 	C 	0.78862	0.86072	0.19523	0.006
Mof_H 	H 	0.797	0.8592	0.2074	0.038
Mof_C 	C 	0.7719	0.87482	0.19486	-0.1
Mof_H 	H 	0.7682	0.8824	0.2071	0.066
Mof_C 	C 	0.76093	0.87758	0.17686	0.061
Mof_H 	H 	0.7499	0.8876	0.1768	-0
Mof_C 	C 	0.90467	0.78338	0.14774	0.098
Mof_C 	C 	0.83157	0.76321	0.11148	0.057
Mof_H 	H 	0.8329	0.7532	0.1006	-0
Mof_C 	C 	0.81334	0.77462	0.1126	-0.096
Mof_H 	H 	0.8022	0.772	0.1031	0.063
Mof_C 	C 	0.81142	0.79007	0.12779	0.004
Mof_H 	H 	0.7993	0.7987	0.1284	0.038
Mof_C 	C 	0.82774	0.79249	0.1421	-0.045
Mof_C 	C 	0.84528	0.78001	0.14026	0.031
Mof_H 	H 	0.8562	0.7817	0.1502	0.017
Mof_C 	C 	0.82718	0.80877	0.15868	0.134
Mof_C 	C 	0.8103	0.83461	0.17567	0.133
Mof_C 	C 	0.84316	0.82589	0.18511	0.133
Mof_C 	C 	0.86178	0.84601	0.21232	0.039
Mof_H 	H 	0.8494	0.8542	0.2137	0.012
Mof_C 	C 	0.86185	0.82952	0.19779	-0.051
Mof_C 	C 	0.8796	0.81735	0.19589	0.009
Mof_H 	H 	0.8803	0.8062	0.186	0.037
Mof_C 	C 	0.89642	0.82192	0.20891	-0.1
Mof_H 	H 	0.9087	0.8136	0.2084	0.067
Mof_C 	C 	0.89511	0.8386	0.22254	0.061
Mof_H 	H 	0.9069	0.8416	0.2311	0.001
Mof_C 	C 	0.86138	0.83301	0.26763	0.063
Mof_H 	H 	0.8511	0.8341	0.257	-0.001
Mof_C 	C 	0.86166	0.8154	0.2794	-0.103
Mof_H 	H 	0.8519	0.8045	0.2769	0.068
Mof_C 	C 	0.87667	0.8136	0.2953	0.009
Mof_H 	H 	0.8771	0.8016	0.3041	0.037
Mof_C 	C 	0.89076	0.82984	0.29783	-0.052
Mof_C 	C 	0.88915	0.84731	0.28502	0.042
Mof_H 	H 	0.8987	0.8585	0.287	0.011
Mof_C 	C 	0.90698	0.82908	0.31441	0.135
Mof_C 	C 	0.92522	0.87611	0.25059	0.108
Mof_N 	N 	0.76475	0.86692	0.15904	-0.223
Mof_N 	N 	0.89301	0.77446	0.13715	-0.261
Mof_N 	N 	0.84758	0.76551	0.12497	-0.224
Mof_N 	N 	0.84418	0.81091	0.1704	-0.151
Mof_N 	N 	0.80971	0.82025	0.16034	-0.15
Mof_N 	N 	0.82613	0.83763	0.18887	-0.151
Mof_N 	N 	0.87815	0.85075	0.22432	-0.229
Mof_N 	N 	0.90762	0.87676	0.24881	-0.264
Mof_N 	N 	0.87476	0.84897	0.27009	-0.229
Mof_N 	N 	0.90572	0.81397	0.32831	-0.152
Mof_S 	S 	0.92188	0.79463	0.16304	-0.059
Mof_S 	S 	0.95072	0.87346	0.25216	-0.062
Mof_C 	C 	0.28011	0.35258	0.15972	0.033
Mof_H 	H 	0.2827	0.3444	0.1476	0.014
Mof_C 	C 	0.2925	0.34914	0.17742	-0.046
Mof_C 	C 	0.28862	0.36072	0.19523	0.006
Mof_H 	H 	0.297	0.3592	0.2074	0.038
Mof_C 	C 	0.2719	0.37482	0.19486	-0.1
Mof_H 	H 	0.2682	0.3824	0.2071	0.066
Mof_C 	C 	0.26093	0.37758	0.17686	0.061
Mof_H 	H 	0.2499	0.3876	0.1768	-0
Mof_C 	C 	0.40467	0.28338	0.14774	0.098
Mof_C 	C 	0.33157	0.26321	0.11148	0.057
Mof_H 	H 	0.3329	0.2532	0.1006	-0
Mof_C 	C 	0.31334	0.27462	0.1126	-0.096
Mof_H 	H 	0.3022	0.272	0.1031	0.063
Mof_C 	C 	0.31142	0.29007	0.12779	0.004
Mof_H 	H 	0.2993	0.2987	0.1284	0.038
Mof_C 	C 	0.32774	0.29249	0.1421	-0.045
Mof_C 	C 	0.34528	0.28001	0.14026	0.031
Mof_H 	H 	0.3562	0.2817	0.1502	0.017
Mof_C 	C 	0.32718	0.30877	0.15868	0.134
Mof_C 	C 	0.3103	0.33461	0.17567	0.133
Mof_C 	C 	0.34316	0.32589	0.18511	0.133
Mof_C 	C 	0.36178	0.34601	0.21232	0.039
Mof_H 	H 	0.3494	0.3542	0.2137	0.012
Mof_C 	C 	0.36185	0.32952	0.19779	-0.051
Mof_C 	C 	0.3796	0.31735	0.19589	0.009
Mof_H 	H 	0.3803	0.3062	0.186	0.037
Mof_C 	C 	0.39642	0.32192	0.20891	-0.1
Mof_H 	H 	0.4087	0.3136	0.2084	0.067
Mof_C 	C 	0.39511	0.3386	0.22254	0.061
Mof_H 	H 	0.4069	0.3416	0.2311	0.001
Mof_C 	C 	0.36138	0.33301	0.26763	0.063
Mof_H 	H 	0.3511	0.3341	0.257	-0.001
Mof_C 	C 	0.36166	0.3154	0.2794	-0.103
Mof_H 	H 	0.3519	0.3045	0.2769	0.068
Mof_C 	C 	0.37667	0.3136	0.2953	0.009
Mof_H 	H 	0.3771	0.3016	0.3041	0.037
Mof_C 	C 	0.39076	0.32984	0.29783	-0.052
Mof_C 	C 	0.38915	0.34731	0.28502	0.042
Mof_H 	H 	0.3987	0.3585	0.287	0.011
Mof_C 	C 	0.40698	0.32908	0.31441	0.135
Mof_C 	C 	0.42522	0.37611	0.25059	0.108
Mof_N 	N 	0.26475	0.36692	0.15904	-0.223
Mof_N 	N 	0.39301	0.27446	0.13715	-0.261
Mof_N 	N 	0.34758	0.26551	0.12497	-0.224
Mof_N 	N 	0.34418	0.31091	0.1704	-0.151
Mof_N 	N 	0.30971	0.32025	0.16034	-0.15
Mof_N 	N 	0.32613	0.33763	0.18887	-0.151
Mof_N 	N 	0.37815	0.35075	0.22432	-0.229
Mof_N 	N 	0.40762	0.37676	0.24881	-0.264
Mof_N 	N 	0.37476	0.34897	0.27009	-0.229
Mof_N 	N 	0.40572	0.31397	0.32831	-0.152
Mof_S 	S 	0.42188	0.29463	0.16304	-0.059
Mof_S 	S 	0.45072	0.37346	0.25216	-0.062
Mof_C 	C 	0.28011	0.85258	0.65972	0.033
Mof_H 	H 	0.2827	0.8444	0.6476	0.014
Mof_C 	C 	0.2925	0.84914	0.67742	-0.046
Mof_C 	C 	0.28862	0.86072	0.69523	0.006
Mof_H 	H 	0.297	0.8592	0.7074	0.038
Mof_C 	C 	0.2719	0.87482	0.69486	-0.1
Mof_H 	H 	0.2682	0.8824	0.7071	0.066
Mof_C 	C 	0.26093	0.87758	0.67686	0.061
Mof_H 	H 	0.2499	0.8876	0.6768	-0
Mof_C 	C 	0.40467	0.78338	0.64774	0.098
Mof_C 	C 	0.33157	0.76321	0.61148	0.057
Mof_H 	H 	0.3329	0.7532	0.6006	-0
Mof_C 	C 	0.31334	0.77462	0.6126	-0.096
Mof_H 	H 	0.3022	0.772	0.6031	0.063
Mof_C 	C 	0.31142	0.79007	0.62779	0.004
Mof_H 	H 	0.2993	0.7987	0.6284	0.038
Mof_C 	C 	0.32774	0.79249	0.6421	-0.045
Mof_C 	C 	0.34528	0.78001	0.64026	0.031
Mof_H 	H 	0.3562	0.7817	0.6502	0.017
Mof_C 	C 	0.32718	0.80877	0.65868	0.134
Mof_C 	C 	0.3103	0.83461	0.67567	0.133
Mof_C 	C 	0.34316	0.82589	0.68511	0.133
Mof_C 	C 	0.36178	0.84601	0.71232	0.039
Mof_H 	H 	0.3494	0.8542	0.7137	0.012
Mof_C 	C 	0.36185	0.82952	0.69779	-0.051
Mof_C 	C 	0.3796	0.81735	0.69589	0.009
Mof_H 	H 	0.3803	0.8062	0.686	0.037
Mof_C 	C 	0.39642	0.82192	0.70891	-0.1
Mof_H 	H 	0.4087	0.8136	0.7084	0.067
Mof_C 	C 	0.39511	0.8386	0.72254	0.061
Mof_H 	H 	0.4069	0.8416	0.7311	0.001
Mof_C 	C 	0.36138	0.83301	0.76763	0.063
Mof_H 	H 	0.3511	0.8341	0.757	-0.001
Mof_C 	C 	0.36166	0.8154	0.7794	-0.103
Mof_H 	H 	0.3519	0.8045	0.7769	0.068
Mof_C 	C 	0.37667	0.8136	0.7953	0.009
Mof_H 	H 	0.3771	0.8016	0.8041	0.037
Mof_C 	C 	0.39076	0.82984	0.79783	-0.052
Mof_C 	C 	0.38915	0.84731	0.78502	0.042
Mof_H 	H 	0.3987	0.8585	0.787	0.011
Mof_C 	C 	0.40698	0.82908	0.81441	0.135
Mof_C 	C 	0.42522	0.87611	0.75059	0.108
Mof_N 	N 	0.26475	0.86692	0.65904	-0.223
Mof_N 	N 	0.39301	0.77446	0.63715	-0.261
Mof_N 	N 	0.34758	0.76551	0.62497	-0.224
Mof_N 	N 	0.34418	0.81091	0.6704	-0.151
Mof_N 	N 	0.30971	0.82025	0.66034	-0.15
Mof_N 	N 	0.32613	0.83763	0.68887	-0.151
Mof_N 	N 	0.37815	0.85075	0.72432	-0.229
Mof_N 	N 	0.40762	0.87676	0.74881	-0.264
Mof_N 	N 	0.37476	0.84897	0.77009	-0.229
Mof_N 	N 	0.40572	0.81397	0.82831	-0.152
Mof_S 	S 	0.42188	0.79463	0.66304	-0.059
Mof_S 	S 	0.45072	0.87346	0.75216	-0.062
Mof_C 	C 	0.28011	0.89742	0.09028	0.033
Mof_H 	H 	0.2827	0.9056	0.1024	0.014
Mof_C 	C 	0.2925	0.90086	0.07258	-0.046
Mof_C 	C 	0.28862	0.88928	0.05477	0.006
Mof_H 	H 	0.297	0.8908	0.0426	0.038
Mof_C 	C 	0.2719	0.87518	0.05514	-0.1
Mof_H 	H 	0.2682	0.8676	0.0429	0.066
Mof_C 	C 	0.26093	0.87242	0.07314	0.061
Mof_H 	H 	0.2499	0.8624	0.0732	-0
Mof_C 	C 	0.40467	0.96662	0.10226	0.098
Mof_C 	C 	0.33157	0.98679	0.13852	0.057
Mof_H 	H 	0.3329	0.9968	0.1494	-0
Mof_C 	C 	0.31334	0.97538	0.1374	-0.096
Mof_H 	H 	0.3022	0.978	0.1469	0.063
Mof_C 	C 	0.31142	0.95993	0.12221	0.004
Mof_H 	H 	0.2993	0.9513	0.1216	0.038
Mof_C 	C 	0.32774	0.95751	0.1079	-0.045
Mof_C 	C 	0.34528	0.96999	0.10974	0.031
Mof_H 	H 	0.3562	0.9683	0.0998	0.017
Mof_C 	C 	0.32718	0.94123	0.09132	0.134
Mof_C 	C 	0.3103	0.91539	0.07433	0.133
Mof_C 	C 	0.34316	0.92411	0.06489	0.133
Mof_C 	C 	0.36178	0.90399	0.03768	0.039
Mof_H 	H 	0.3494	0.8958	0.0363	0.012
Mof_C 	C 	0.36185	0.92048	0.05221	-0.051
Mof_C 	C 	0.3796	0.93265	0.05411	0.009
Mof_H 	H 	0.3803	0.9438	0.064	0.037
Mof_C 	C 	0.39642	0.92808	0.04109	-0.1
Mof_H 	H 	0.4087	0.9364	0.0416	0.067
Mof_C 	C 	0.39511	0.9114	0.02746	0.061
Mof_H 	H 	0.4069	0.9084	0.0189	0.001
Mof_C 	C 	0.36138	0.91699	0.98237	0.063
Mof_H 	H 	0.3511	0.9159	0.993	-0.001
Mof_C 	C 	0.36166	0.9346	0.9706	-0.103
Mof_H 	H 	0.3519	0.9455	0.9731	0.068
Mof_C 	C 	0.37667	0.9364	0.9547	0.009
Mof_H 	H 	0.3771	0.9484	0.9459	0.037
Mof_C 	C 	0.39076	0.92016	0.95217	-0.052
Mof_C 	C 	0.38915	0.90269	0.96498	0.042
Mof_H 	H 	0.3987	0.8915	0.963	0.011
Mof_C 	C 	0.40698	0.92092	0.93559	0.135
Mof_C 	C 	0.42522	0.87389	0.99941	0.108
Mof_N 	N 	0.26475	0.88308	0.09096	-0.223
Mof_N 	N 	0.39301	0.97554	0.11285	-0.261
Mof_N 	N 	0.34758	0.98449	0.12503	-0.224
Mof_N 	N 	0.34418	0.93909	0.0796	-0.151
Mof_N 	N 	0.30971	0.92975	0.08966	-0.15
Mof_N 	N 	0.32613	0.91237	0.06113	-0.151
Mof_N 	N 	0.37815	0.89925	0.02568	-0.229
Mof_N 	N 	0.40762	0.87324	0.00119	-0.264
Mof_N 	N 	0.37476	0.90103	0.97991	-0.229
Mof_N 	N 	0.40572	0.93603	0.92169	-0.152
Mof_S 	S 	0.42188	0.95537	0.08696	-0.059
Mof_S 	S 	0.45072	0.87654	0.99784	-0.062
Mof_C 	C 	0.28011	0.39742	0.59028	0.033
Mof_H 	H 	0.2827	0.4056	0.6024	0.014
Mof_C 	C 	0.2925	0.40086	0.57258	-0.046
Mof_C 	C 	0.28862	0.38928	0.55477	0.006
Mof_H 	H 	0.297	0.3908	0.5426	0.038
Mof_C 	C 	0.2719	0.37518	0.55514	-0.1
Mof_H 	H 	0.2682	0.3676	0.5429	0.066
Mof_C 	C 	0.26093	0.37242	0.57314	0.061
Mof_H 	H 	0.2499	0.3624	0.5732	-0
Mof_C 	C 	0.40467	0.46662	0.60226	0.098
Mof_C 	C 	0.33157	0.48679	0.63852	0.057
Mof_H 	H 	0.3329	0.4968	0.6494	-0
Mof_C 	C 	0.31334	0.47538	0.6374	-0.096
Mof_H 	H 	0.3022	0.478	0.6469	0.063
Mof_C 	C 	0.31142	0.45993	0.62221	0.004
Mof_H 	H 	0.2993	0.4513	0.6216	0.038
Mof_C 	C 	0.32774	0.45751	0.6079	-0.045
Mof_C 	C 	0.34528	0.46999	0.60974	0.031
Mof_H 	H 	0.3562	0.4683	0.5998	0.017
Mof_C 	C 	0.32718	0.44123	0.59132	0.134
Mof_C 	C 	0.3103	0.41539	0.57433	0.133
Mof_C 	C 	0.34316	0.42411	0.56489	0.133
Mof_C 	C 	0.36178	0.40399	0.53768	0.039
Mof_H 	H 	0.3494	0.3958	0.5363	0.012
Mof_C 	C 	0.36185	0.42048	0.55221	-0.051
Mof_C 	C 	0.3796	0.43265	0.55411	0.009
Mof_H 	H 	0.3803	0.4438	0.564	0.037
Mof_C 	C 	0.39642	0.42808	0.54109	-0.1
Mof_H 	H 	0.4087	0.4364	0.5416	0.067
Mof_C 	C 	0.39511	0.4114	0.52746	0.061
Mof_H 	H 	0.4069	0.4084	0.5189	0.001
Mof_C 	C 	0.36138	0.41699	0.48237	0.063
Mof_H 	H 	0.3511	0.4159	0.493	-0.001
Mof_C 	C 	0.36166	0.4346	0.4706	-0.103
Mof_H 	H 	0.3519	0.4455	0.4731	0.068
Mof_C 	C 	0.37667	0.4364	0.4547	0.009
Mof_H 	H 	0.3771	0.4484	0.4459	0.037
Mof_C 	C 	0.39076	0.42016	0.45217	-0.052
Mof_C 	C 	0.38915	0.40269	0.46498	0.042
Mof_H 	H 	0.3987	0.3915	0.463	0.011
Mof_C 	C 	0.40698	0.42092	0.43559	0.135
Mof_C 	C 	0.42522	0.37389	0.49941	0.108
Mof_N 	N 	0.26475	0.38308	0.59096	-0.223
Mof_N 	N 	0.39301	0.47554	0.61285	-0.261
Mof_N 	N 	0.34758	0.48449	0.62503	-0.224
Mof_N 	N 	0.34418	0.43909	0.5796	-0.151
Mof_N 	N 	0.30971	0.42975	0.58966	-0.15
Mof_N 	N 	0.32613	0.41237	0.56113	-0.151
Mof_N 	N 	0.37815	0.39925	0.52568	-0.229
Mof_N 	N 	0.40762	0.37324	0.50119	-0.264
Mof_N 	N 	0.37476	0.40103	0.47991	-0.229
Mof_N 	N 	0.40572	0.43603	0.42169	-0.152
Mof_S 	S 	0.42188	0.45537	0.58696	-0.059
Mof_S 	S 	0.45072	0.37654	0.49784	-0.062
Mof_C 	C 	0.78011	0.89742	0.59028	0.033
Mof_H 	H 	0.7827	0.9056	0.6024	0.014
Mof_C 	C 	0.7925	0.90086	0.57258	-0.046
Mof_C 	C 	0.78862	0.88928	0.55477	0.006
Mof_H 	H 	0.797	0.8908	0.5426	0.038
Mof_C 	C 	0.7719	0.87518	0.55514	-0.1
Mof_H 	H 	0.7682	0.8676	0.5429	0.066
Mof_C 	C 	0.76093	0.87242	0.57314	0.061
Mof_H 	H 	0.7499	0.8624	0.5732	-0
Mof_C 	C 	0.90467	0.96662	0.60226	0.098
Mof_C 	C 	0.83157	0.98679	0.63852	0.057
Mof_H 	H 	0.8329	0.9968	0.6494	-0
Mof_C 	C 	0.81334	0.97538	0.6374	-0.096
Mof_H 	H 	0.8022	0.978	0.6469	0.063
Mof_C 	C 	0.81142	0.95993	0.62221	0.004
Mof_H 	H 	0.7993	0.9513	0.6216	0.038
Mof_C 	C 	0.82774	0.95751	0.6079	-0.045
Mof_C 	C 	0.84528	0.96999	0.60974	0.031
Mof_H 	H 	0.8562	0.9683	0.5998	0.017
Mof_C 	C 	0.82718	0.94123	0.59132	0.134
Mof_C 	C 	0.8103	0.91539	0.57433	0.133
Mof_C 	C 	0.84316	0.92411	0.56489	0.133
Mof_C 	C 	0.86178	0.90399	0.53768	0.039
Mof_H 	H 	0.8494	0.8958	0.5363	0.012
Mof_C 	C 	0.86185	0.92048	0.55221	-0.051
Mof_C 	C 	0.8796	0.93265	0.55411	0.009
Mof_H 	H 	0.8803	0.9438	0.564	0.037
Mof_C 	C 	0.89642	0.92808	0.54109	-0.1
Mof_H 	H 	0.9087	0.9364	0.5416	0.067
Mof_C 	C 	0.89511	0.9114	0.52746	0.061
Mof_H 	H 	0.9069	0.9084	0.5189	0.001
Mof_C 	C 	0.86138	0.91699	0.48237	0.063
Mof_H 	H 	0.8511	0.9159	0.493	-0.001
Mof_C 	C 	0.86166	0.9346	0.4706	-0.103
Mof_H 	H 	0.8519	0.9455	0.4731	0.068
Mof_C 	C 	0.87667	0.9364	0.4547	0.009
Mof_H 	H 	0.8771	0.9484	0.4459	0.037
Mof_C 	C 	0.89076	0.92016	0.45217	-0.052
Mof_C 	C 	0.88915	0.90269	0.46498	0.042
Mof_H 	H 	0.8987	0.8915	0.463	0.011
Mof_C 	C 	0.90698	0.92092	0.43559	0.135
Mof_C 	C 	0.92522	0.87389	0.49941	0.108
Mof_N 	N 	0.76475	0.88308	0.59096	-0.223
Mof_N 	N 	0.89301	0.97554	0.61285	-0.261
Mof_N 	N 	0.84758	0.98449	0.62503	-0.224
Mof_N 	N 	0.84418	0.93909	0.5796	-0.151
Mof_N 	N 	0.80971	0.92975	0.58966	-0.15
Mof_N 	N 	0.82613	0.91237	0.56113	-0.151
Mof_N 	N 	0.87815	0.89925	0.52568	-0.229
Mof_N 	N 	0.90762	0.87324	0.50119	-0.264
Mof_N 	N 	0.87476	0.90103	0.47991	-0.229
Mof_N 	N 	0.90572	0.93603	0.42169	-0.152
Mof_S 	S 	0.92188	0.95537	0.58696	-0.059
Mof_S 	S 	0.95072	0.87654	0.49784	-0.062
Mof_C 	C 	0.78011	0.39742	0.09028	0.033
Mof_H 	H 	0.7827	0.4056	0.1024	0.014
Mof_C 	C 	0.7925	0.40086	0.07258	-0.046
Mof_C 	C 	0.78862	0.38928	0.05477	0.006
Mof_H 	H 	0.797	0.3908	0.0426	0.038
Mof_C 	C 	0.7719	0.37518	0.05514	-0.1
Mof_H 	H 	0.7682	0.3676	0.0429	0.066
Mof_C 	C 	0.76093	0.37242	0.07314	0.061
Mof_H 	H 	0.7499	0.3624	0.0732	-0
Mof_C 	C 	0.90467	0.46662	0.10226	0.098
Mof_C 	C 	0.83157	0.48679	0.13852	0.057
Mof_H 	H 	0.8329	0.4968	0.1494	-0
Mof_C 	C 	0.81334	0.47538	0.1374	-0.096
Mof_H 	H 	0.8022	0.478	0.1469	0.063
Mof_C 	C 	0.81142	0.45993	0.12221	0.004
Mof_H 	H 	0.7993	0.4513	0.1216	0.038
Mof_C 	C 	0.82774	0.45751	0.1079	-0.045
Mof_C 	C 	0.84528	0.46999	0.10974	0.031
Mof_H 	H 	0.8562	0.4683	0.0998	0.017
Mof_C 	C 	0.82718	0.44123	0.09132	0.134
Mof_C 	C 	0.8103	0.41539	0.07433	0.133
Mof_C 	C 	0.84316	0.42411	0.06489	0.133
Mof_C 	C 	0.86178	0.40399	0.03768	0.039
Mof_H 	H 	0.8494	0.3958	0.0363	0.012
Mof_C 	C 	0.86185	0.42048	0.05221	-0.051
Mof_C 	C 	0.8796	0.43265	0.05411	0.009
Mof_H 	H 	0.8803	0.4438	0.064	0.037
Mof_C 	C 	0.89642	0.42808	0.04109	-0.1
Mof_H 	H 	0.9087	0.4364	0.0416	0.067
Mof_C 	C 	0.89511	0.4114	0.02746	0.061
Mof_H 	H 	0.9069	0.4084	0.0189	0.001
Mof_C 	C 	0.86138	0.41699	0.98237	0.063
Mof_H 	H 	0.8511	0.4159	0.993	-0.001
Mof_C 	C 	0.86166	0.4346	0.9706	-0.103
Mof_H 	H 	0.8519	0.4455	0.9731	0.068
Mof_C 	C 	0.87667	0.4364	0.9547	0.009
Mof_H 	H 	0.8771	0.4484	0.9459	0.037
Mof_C 	C 	0.89076	0.42016	0.95217	-0.052
Mof_C 	C 	0.88915	0.40269	0.96498	0.042
Mof_H 	H 	0.8987	0.3915	0.963	0.011
Mof_C 	C 	0.90698	0.42092	0.93559	0.135
Mof_C 	C 	0.92522	0.37389	0.99941	0.108
Mof_N 	N 	0.76475	0.38308	0.09096	-0.223
Mof_N 	N 	0.89301	0.47554	0.11285	-0.261
Mof_N 	N 	0.84758	0.48449	0.12503	-0.224
Mof_N 	N 	0.84418	0.43909	0.0796	-0.151
Mof_N 	N 	0.80971	0.42975	0.08966	-0.15
Mof_N 	N 	0.82613	0.41237	0.06113	-0.151
Mof_N 	N 	0.87815	0.39925	0.02568	-0.229
Mof_N 	N 	0.90762	0.37324	0.00119	-0.264
Mof_N 	N 	0.87476	0.40103	0.97991	-0.229
Mof_N 	N 	0.90572	0.43603	0.92169	-0.152
Mof_S 	S 	0.92188	0.45537	0.08696	-0.059
Mof_S 	S 	0.95072	0.37654	0.99784	-0.062
Mof_C 	C 	0.59028	0.39742	0.78011	0.033
Mof_H 	H 	0.6024	0.4056	0.7827	0.014
Mof_C 	C 	0.57258	0.40086	0.7925	-0.046
Mof_C 	C 	0.55477	0.38928	0.78862	0.006
Mof_H 	H 	0.5426	0.3908	0.797	0.038
Mof_C 	C 	0.55514	0.37518	0.7719	-0.1
Mof_H 	H 	0.5429	0.3676	0.7682	0.066
Mof_C 	C 	0.57314	0.37242	0.76093	0.061
Mof_H 	H 	0.5732	0.3624	0.7499	-0
Mof_C 	C 	0.60226	0.46662	0.90467	0.098
Mof_C 	C 	0.63852	0.48679	0.83157	0.057
Mof_H 	H 	0.6494	0.4968	0.8329	-0
Mof_C 	C 	0.6374	0.47538	0.81334	-0.096
Mof_H 	H 	0.6469	0.478	0.8022	0.063
Mof_C 	C 	0.62221	0.45993	0.81142	0.004
Mof_H 	H 	0.6216	0.4513	0.7993	0.038
Mof_C 	C 	0.6079	0.45751	0.82774	-0.045
Mof_C 	C 	0.60974	0.46999	0.84528	0.031
Mof_H 	H 	0.5998	0.4683	0.8562	0.017
Mof_C 	C 	0.59132	0.44123	0.82718	0.134
Mof_C 	C 	0.57433	0.41539	0.8103	0.133
Mof_C 	C 	0.56489	0.42411	0.84316	0.133
Mof_C 	C 	0.53768	0.40399	0.86178	0.039
Mof_H 	H 	0.5363	0.3958	0.8494	0.012
Mof_C 	C 	0.55221	0.42048	0.86185	-0.051
Mof_C 	C 	0.55411	0.43265	0.8796	0.009
Mof_H 	H 	0.564	0.4438	0.8803	0.037
Mof_C 	C 	0.54109	0.42808	0.89642	-0.1
Mof_H 	H 	0.5416	0.4364	0.9087	0.067
Mof_C 	C 	0.52746	0.4114	0.89511	0.061
Mof_H 	H 	0.5189	0.4084	0.9069	0.001
Mof_C 	C 	0.48237	0.41699	0.86138	0.063
Mof_H 	H 	0.493	0.4159	0.8511	-0.001
Mof_C 	C 	0.4706	0.4346	0.86166	-0.103
Mof_H 	H 	0.4731	0.4455	0.8519	0.068
Mof_C 	C 	0.4547	0.4364	0.87667	0.009
Mof_H 	H 	0.4459	0.4484	0.8771	0.037
Mof_C 	C 	0.45217	0.42016	0.89076	-0.052
Mof_C 	C 	0.46498	0.40269	0.88915	0.042
Mof_H 	H 	0.463	0.3915	0.8987	0.011
Mof_C 	C 	0.43559	0.42092	0.90698	0.135
Mof_C 	C 	0.49941	0.37389	0.92522	0.108
Mof_N 	N 	0.59096	0.38308	0.76475	-0.223
Mof_N 	N 	0.61285	0.47554	0.89301	-0.261
Mof_N 	N 	0.62503	0.48449	0.84758	-0.224
Mof_N 	N 	0.5796	0.43909	0.84418	-0.151
Mof_N 	N 	0.58966	0.42975	0.80971	-0.15
Mof_N 	N 	0.56113	0.41237	0.82613	-0.151
Mof_N 	N 	0.52568	0.39925	0.87815	-0.229
Mof_N 	N 	0.50119	0.37324	0.90762	-0.264
Mof_N 	N 	0.47991	0.40103	0.87476	-0.229
Mof_N 	N 	0.42169	0.43603	0.90572	-0.152
Mof_S 	S 	0.58696	0.45537	0.92188	-0.059
Mof_S 	S 	0.49784	0.37654	0.95072	-0.062
Mof_C 	C 	0.59028	0.89742	0.28011	0.033
Mof_H 	H 	0.6024	0.9056	0.2827	0.014
Mof_C 	C 	0.57258	0.90086	0.2925	-0.046
Mof_C 	C 	0.55477	0.88928	0.28862	0.006
Mof_H 	H 	0.5426	0.8908	0.297	0.038
Mof_C 	C 	0.55514	0.87518	0.2719	-0.1
Mof_H 	H 	0.5429	0.8676	0.2682	0.066
Mof_C 	C 	0.57314	0.87242	0.26093	0.061
Mof_H 	H 	0.5732	0.8624	0.2499	-0
Mof_C 	C 	0.60226	0.96662	0.40467	0.098
Mof_C 	C 	0.63852	0.98679	0.33157	0.057
Mof_H 	H 	0.6494	0.9968	0.3329	-0
Mof_C 	C 	0.6374	0.97538	0.31334	-0.096
Mof_H 	H 	0.6469	0.978	0.3022	0.063
Mof_C 	C 	0.62221	0.95993	0.31142	0.004
Mof_H 	H 	0.6216	0.9513	0.2993	0.038
Mof_C 	C 	0.6079	0.95751	0.32774	-0.045
Mof_C 	C 	0.60974	0.96999	0.34528	0.031
Mof_H 	H 	0.5998	0.9683	0.3562	0.017
Mof_C 	C 	0.59132	0.94123	0.32718	0.134
Mof_C 	C 	0.57433	0.91539	0.3103	0.133
Mof_C 	C 	0.56489	0.92411	0.34316	0.133
Mof_C 	C 	0.53768	0.90399	0.36178	0.039
Mof_H 	H 	0.5363	0.8958	0.3494	0.012
Mof_C 	C 	0.55221	0.92048	0.36185	-0.051
Mof_C 	C 	0.55411	0.93265	0.3796	0.009
Mof_H 	H 	0.564	0.9438	0.3803	0.037
Mof_C 	C 	0.54109	0.92808	0.39642	-0.1
Mof_H 	H 	0.5416	0.9364	0.4087	0.067
Mof_C 	C 	0.52746	0.9114	0.39511	0.061
Mof_H 	H 	0.5189	0.9084	0.4069	0.001
Mof_C 	C 	0.48237	0.91699	0.36138	0.063
Mof_H 	H 	0.493	0.9159	0.3511	-0.001
Mof_C 	C 	0.4706	0.9346	0.36166	-0.103
Mof_H 	H 	0.4731	0.9455	0.3519	0.068
Mof_C 	C 	0.4547	0.9364	0.37667	0.009
Mof_H 	H 	0.4459	0.9484	0.3771	0.037
Mof_C 	C 	0.45217	0.92016	0.39076	-0.052
Mof_C 	C 	0.46498	0.90269	0.38915	0.042
Mof_H 	H 	0.463	0.8915	0.3987	0.011
Mof_C 	C 	0.43559	0.92092	0.40698	0.135
Mof_C 	C 	0.49941	0.87389	0.42522	0.108
Mof_N 	N 	0.59096	0.88308	0.26475	-0.223
Mof_N 	N 	0.61285	0.97554	0.39301	-0.261
Mof_N 	N 	0.62503	0.98449	0.34758	-0.224
Mof_N 	N 	0.5796	0.93909	0.34418	-0.151
Mof_N 	N 	0.58966	0.92975	0.30971	-0.15
Mof_N 	N 	0.56113	0.91237	0.32613	-0.151
Mof_N 	N 	0.52568	0.89925	0.37815	-0.229
Mof_N 	N 	0.50119	0.87324	0.40762	-0.264
Mof_N 	N 	0.47991	0.90103	0.37476	-0.229
Mof_N 	N 	0.42169	0.93603	0.40572	-0.152
Mof_S 	S 	0.58696	0.95537	0.42188	-0.059
Mof_S 	S 	0.49784	0.87654	0.45072	-0.062
Mof_C 	C 	0.09028	0.39742	0.28011	0.033
Mof_H 	H 	0.1024	0.4056	0.2827	0.014
Mof_C 	C 	0.07258	0.40086	0.2925	-0.046
Mof_C 	C 	0.05477	0.38928	0.28862	0.006
Mof_H 	H 	0.0426	0.3908	0.297	0.038
Mof_C 	C 	0.05514	0.37518	0.2719	-0.1
Mof_H 	H 	0.0429	0.3676	0.2682	0.066
Mof_C 	C 	0.07314	0.37242	0.26093	0.061
Mof_H 	H 	0.0732	0.3624	0.2499	-0
Mof_C 	C 	0.10226	0.46662	0.40467	0.098
Mof_C 	C 	0.13852	0.48679	0.33157	0.057
Mof_H 	H 	0.1494	0.4968	0.3329	-0
Mof_C 	C 	0.1374	0.47538	0.31334	-0.096
Mof_H 	H 	0.1469	0.478	0.3022	0.063
Mof_C 	C 	0.12221	0.45993	0.31142	0.004
Mof_H 	H 	0.1216	0.4513	0.2993	0.038
Mof_C 	C 	0.1079	0.45751	0.32774	-0.045
Mof_C 	C 	0.10974	0.46999	0.34528	0.031
Mof_H 	H 	0.0998	0.4683	0.3562	0.017
Mof_C 	C 	0.09132	0.44123	0.32718	0.134
Mof_C 	C 	0.07433	0.41539	0.3103	0.133
Mof_C 	C 	0.06489	0.42411	0.34316	0.133
Mof_C 	C 	0.03768	0.40399	0.36178	0.039
Mof_H 	H 	0.0363	0.3958	0.3494	0.012
Mof_C 	C 	0.05221	0.42048	0.36185	-0.051
Mof_C 	C 	0.05411	0.43265	0.3796	0.009
Mof_H 	H 	0.064	0.4438	0.3803	0.037
Mof_C 	C 	0.04109	0.42808	0.39642	-0.1
Mof_H 	H 	0.0416	0.4364	0.4087	0.067
Mof_C 	C 	0.02746	0.4114	0.39511	0.061
Mof_H 	H 	0.0189	0.4084	0.4069	0.001
Mof_C 	C 	0.98237	0.41699	0.36138	0.063
Mof_H 	H 	0.993	0.4159	0.3511	-0.001
Mof_C 	C 	0.9706	0.4346	0.36166	-0.103
Mof_H 	H 	0.9731	0.4455	0.3519	0.068
Mof_C 	C 	0.9547	0.4364	0.37667	0.009
Mof_H 	H 	0.9459	0.4484	0.3771	0.037
Mof_C 	C 	0.95217	0.42016	0.39076	-0.052
Mof_C 	C 	0.96498	0.40269	0.38915	0.042
Mof_H 	H 	0.963	0.3915	0.3987	0.011
Mof_C 	C 	0.93559	0.42092	0.40698	0.135
Mof_C 	C 	0.99941	0.37389	0.42522	0.108
Mof_N 	N 	0.09096	0.38308	0.26475	-0.223
Mof_N 	N 	0.11285	0.47554	0.39301	-0.261
Mof_N 	N 	0.12503	0.48449	0.34758	-0.224
Mof_N 	N 	0.0796	0.43909	0.34418	-0.151
Mof_N 	N 	0.08966	0.42975	0.30971	-0.15
Mof_N 	N 	0.06113	0.41237	0.32613	-0.151
Mof_N 	N 	0.02568	0.39925	0.37815	-0.229
Mof_N 	N 	0.00119	0.37324	0.40762	-0.264
Mof_N 	N 	0.97991	0.40103	0.37476	-0.229
Mof_N 	N 	0.92169	0.43603	0.40572	-0.152
Mof_S 	S 	0.08696	0.45537	0.42188	-0.059
Mof_S 	S 	0.99784	0.37654	0.45072	-0.062
Mof_C 	C 	0.09028	0.89742	0.78011	0.033
Mof_H 	H 	0.1024	0.9056	0.7827	0.014
Mof_C 	C 	0.07258	0.90086	0.7925	-0.046
Mof_C 	C 	0.05477	0.88928	0.78862	0.006
Mof_H 	H 	0.0426	0.8908	0.797	0.038
Mof_C 	C 	0.05514	0.87518	0.7719	-0.1
Mof_H 	H 	0.0429	0.8676	0.7682	0.066
Mof_C 	C 	0.07314	0.87242	0.76093	0.061
Mof_H 	H 	0.0732	0.8624	0.7499	-0
Mof_C 	C 	0.10226	0.96662	0.90467	0.098
Mof_C 	C 	0.13852	0.98679	0.83157	0.057
Mof_H 	H 	0.1494	0.9968	0.8329	-0
Mof_C 	C 	0.1374	0.97538	0.81334	-0.096
Mof_H 	H 	0.1469	0.978	0.8022	0.063
Mof_C 	C 	0.12221	0.95993	0.81142	0.004
Mof_H 	H 	0.1216	0.9513	0.7993	0.038
Mof_C 	C 	0.1079	0.95751	0.82774	-0.045
Mof_C 	C 	0.10974	0.96999	0.84528	0.031
Mof_H 	H 	0.0998	0.9683	0.8562	0.017
Mof_C 	C 	0.09132	0.94123	0.82718	0.134
Mof_C 	C 	0.07433	0.91539	0.8103	0.133
Mof_C 	C 	0.06489	0.92411	0.84316	0.133
Mof_C 	C 	0.03768	0.90399	0.86178	0.039
Mof_H 	H 	0.0363	0.8958	0.8494	0.012
Mof_C 	C 	0.05221	0.92048	0.86185	-0.051
Mof_C 	C 	0.05411	0.93265	0.8796	0.009
Mof_H 	H 	0.064	0.9438	0.8803	0.037
Mof_C 	C 	0.04109	0.92808	0.89642	-0.1
Mof_H 	H 	0.0416	0.9364	0.9087	0.067
Mof_C 	C 	0.02746	0.9114	0.89511	0.061
Mof_H 	H 	0.0189	0.9084	0.9069	0.001
Mof_C 	C 	0.98237	0.91699	0.86138	0.063
Mof_H 	H 	0.993	0.9159	0.8511	-0.001
Mof_C 	C 	0.9706	0.9346	0.86166	-0.103
Mof_H 	H 	0.9731	0.9455	0.8519	0.068
Mof_C 	C 	0.9547	0.9364	0.87667	0.009
Mof_H 	H 	0.9459	0.9484	0.8771	0.037
Mof_C 	C 	0.95217	0.92016	0.89076	-0.052
Mof_C 	C 	0.96498	0.90269	0.88915	0.042
Mof_H 	H 	0.963	0.8915	0.8987	0.011
Mof_C 	C 	0.93559	0.92092	0.90698	0.135
Mof_C 	C 	0.99941	0.87389	0.92522	0.108
Mof_N 	N 	0.09096	0.88308	0.76475	-0.223
Mof_N 	N 	0.11285	0.97554	0.89301	-0.261
Mof_N 	N 	0.12503	0.98449	0.84758	-0.224
Mof_N 	N 	0.0796	0.93909	0.84418	-0.151
Mof_N 	N 	0.08966	0.92975	0.80971	-0.15
Mof_N 	N 	0.06113	0.91237	0.82613	-0.151
Mof_N 	N 	0.02568	0.89925	0.87815	-0.229
Mof_N 	N 	0.00119	0.87324	0.90762	-0.264
Mof_N 	N 	0.97991	0.90103	0.87476	-0.229
Mof_N 	N 	0.92169	0.93603	0.90572	-0.152
Mof_S 	S 	0.08696	0.95537	0.92188	-0.059
Mof_S 	S 	0.99784	0.87654	0.95072	-0.062
Mof_C 	C 	0.15972	0.85258	0.28011	0.033
Mof_H 	H 	0.1476	0.8444	0.2827	0.014
Mof_C 	C 	0.17742	0.84914	0.2925	-0.046
Mof_C 	C 	0.19523	0.86072	0.28862	0.006
Mof_H 	H 	0.2074	0.8592	0.297	0.038
Mof_C 	C 	0.19486	0.87482	0.2719	-0.1
Mof_H 	H 	0.2071	0.8824	0.2682	0.066
Mof_C 	C 	0.17686	0.87758	0.26093	0.061
Mof_H 	H 	0.1768	0.8876	0.2499	-0
Mof_C 	C 	0.14774	0.78338	0.40467	0.098
Mof_C 	C 	0.11148	0.76321	0.33157	0.057
Mof_H 	H 	0.1006	0.7532	0.3329	-0
Mof_C 	C 	0.1126	0.77462	0.31334	-0.096
Mof_H 	H 	0.1031	0.772	0.3022	0.063
Mof_C 	C 	0.12779	0.79007	0.31142	0.004
Mof_H 	H 	0.1284	0.7987	0.2993	0.038
Mof_C 	C 	0.1421	0.79249	0.32774	-0.045
Mof_C 	C 	0.14026	0.78001	0.34528	0.031
Mof_H 	H 	0.1502	0.7817	0.3562	0.017
Mof_C 	C 	0.15868	0.80877	0.32718	0.134
Mof_C 	C 	0.17567	0.83461	0.3103	0.133
Mof_C 	C 	0.18511	0.82589	0.34316	0.133
Mof_C 	C 	0.21232	0.84601	0.36178	0.039
Mof_H 	H 	0.2137	0.8542	0.3494	0.012
Mof_C 	C 	0.19779	0.82952	0.36185	-0.051
Mof_C 	C 	0.19589	0.81735	0.3796	0.009
Mof_H 	H 	0.186	0.8062	0.3803	0.037
Mof_C 	C 	0.20891	0.82192	0.39642	-0.1
Mof_H 	H 	0.2084	0.8136	0.4087	0.067
Mof_C 	C 	0.22254	0.8386	0.39511	0.061
Mof_H 	H 	0.2311	0.8416	0.4069	0.001
Mof_C 	C 	0.26763	0.83301	0.36138	0.063
Mof_H 	H 	0.257	0.8341	0.3511	-0.001
Mof_C 	C 	0.2794	0.8154	0.36166	-0.103
Mof_H 	H 	0.2769	0.8045	0.3519	0.068
Mof_C 	C 	0.2953	0.8136	0.37667	0.009
Mof_H 	H 	0.3041	0.8016	0.3771	0.037
Mof_C 	C 	0.29783	0.82984	0.39076	-0.052
Mof_C 	C 	0.28502	0.84731	0.38915	0.042
Mof_H 	H 	0.287	0.8585	0.3987	0.011
Mof_C 	C 	0.31441	0.82908	0.40698	0.135
Mof_C 	C 	0.25059	0.87611	0.42522	0.108
Mof_N 	N 	0.15904	0.86692	0.26475	-0.223
Mof_N 	N 	0.13715	0.77446	0.39301	-0.261
Mof_N 	N 	0.12497	0.76551	0.34758	-0.224
Mof_N 	N 	0.1704	0.81091	0.34418	-0.151
Mof_N 	N 	0.16034	0.82025	0.30971	-0.15
Mof_N 	N 	0.18887	0.83763	0.32613	-0.151
Mof_N 	N 	0.22432	0.85075	0.37815	-0.229
Mof_N 	N 	0.24881	0.87676	0.40762	-0.264
Mof_N 	N 	0.27009	0.84897	0.37476	-0.229
Mof_N 	N 	0.32831	0.81397	0.40572	-0.152
Mof_S 	S 	0.16304	0.79463	0.42188	-0.059
Mof_S 	S 	0.25216	0.87346	0.45072	-0.062
Mof_C 	C 	0.15972	0.35258	0.78011	0.033
Mof_H 	H 	0.1476	0.3444	0.7827	0.014
Mof_C 	C 	0.17742	0.34914	0.7925	-0.046
Mof_C 	C 	0.19523	0.36072	0.78862	0.006
Mof_H 	H 	0.2074	0.3592	0.797	0.038
Mof_C 	C 	0.19486	0.37482	0.7719	-0.1
Mof_H 	H 	0.2071	0.3824	0.7682	0.066
Mof_C 	C 	0.17686	0.37758	0.76093	0.061
Mof_H 	H 	0.1768	0.3876	0.7499	-0
Mof_C 	C 	0.14774	0.28338	0.90467	0.098
Mof_C 	C 	0.11148	0.26321	0.83157	0.057
Mof_H 	H 	0.1006	0.2532	0.8329	-0
Mof_C 	C 	0.1126	0.27462	0.81334	-0.096
Mof_H 	H 	0.1031	0.272	0.8022	0.063
Mof_C 	C 	0.12779	0.29007	0.81142	0.004
Mof_H 	H 	0.1284	0.2987	0.7993	0.038
Mof_C 	C 	0.1421	0.29249	0.82774	-0.045
Mof_C 	C 	0.14026	0.28001	0.84528	0.031
Mof_H 	H 	0.1502	0.2817	0.8562	0.017
Mof_C 	C 	0.15868	0.30877	0.82718	0.134
Mof_C 	C 	0.17567	0.33461	0.8103	0.133
Mof_C 	C 	0.18511	0.32589	0.84316	0.133
Mof_C 	C 	0.21232	0.34601	0.86178	0.039
Mof_H 	H 	0.2137	0.3542	0.8494	0.012
Mof_C 	C 	0.19779	0.32952	0.86185	-0.051
Mof_C 	C 	0.19589	0.31735	0.8796	0.009
Mof_H 	H 	0.186	0.3062	0.8803	0.037
Mof_C 	C 	0.20891	0.32192	0.89642	-0.1
Mof_H 	H 	0.2084	0.3136	0.9087	0.067
Mof_C 	C 	0.22254	0.3386	0.89511	0.061
Mof_H 	H 	0.2311	0.3416	0.9069	0.001
Mof_C 	C 	0.26763	0.33301	0.86138	0.063
Mof_H 	H 	0.257	0.3341	0.8511	-0.001
Mof_C 	C 	0.2794	0.3154	0.86166	-0.103
Mof_H 	H 	0.2769	0.3045	0.8519	0.068
Mof_C 	C 	0.2953	0.3136	0.87667	0.009
Mof_H 	H 	0.3041	0.3016	0.8771	0.037
Mof_C 	C 	0.29783	0.32984	0.89076	-0.052
Mof_C 	C 	0.28502	0.34731	0.88915	0.042
Mof_H 	H 	0.287	0.3585	0.8987	0.011
Mof_C 	C 	0.31441	0.32908	0.90698	0.135
Mof_C 	C 	0.25059	0.37611	0.92522	0.108
Mof_N 	N 	0.15904	0.36692	0.76475	-0.223
Mof_N 	N 	0.13715	0.27446	0.89301	-0.261
Mof_N 	N 	0.12497	0.26551	0.84758	-0.224
Mof_N 	N 	0.1704	0.31091	0.84418	-0.151
Mof_N 	N 	0.16034	0.32025	0.80971	-0.15
Mof_N 	N 	0.18887	0.33763	0.82613	-0.151
Mof_N 	N 	0.22432	0.35075	0.87815	-0.229
Mof_N 	N 	0.24881	0.37676	0.90762	-0.264
Mof_N 	N 	0.27009	0.34897	0.87476	-0.229
Mof_N 	N 	0.32831	0.31397	0.90572	-0.152
Mof_S 	S 	0.16304	0.29463	0.92188	-0.059
Mof_S 	S 	0.25216	0.37346	0.95072	-0.062
Mof_C 	C 	0.65972	0.85258	0.78011	0.033
Mof_H 	H 	0.6476	0.8444	0.7827	0.014
Mof_C 	C 	0.67742	0.84914	0.7925	-0.046
Mof_C 	C 	0.69523	0.86072	0.78862	0.006
Mof_H 	H 	0.7074	0.8592	0.797	0.038
Mof_C 	C 	0.69486	0.87482	0.7719	-0.1
Mof_H 	H 	0.7071	0.8824	0.7682	0.066
Mof_C 	C 	0.67686	0.87758	0.76093	0.061
Mof_H 	H 	0.6768	0.8876	0.7499	-0
Mof_C 	C 	0.64774	0.78338	0.90467	0.098
Mof_C 	C 	0.61148	0.76321	0.83157	0.057
Mof_H 	H 	0.6006	0.7532	0.8329	-0
Mof_C 	C 	0.6126	0.77462	0.81334	-0.096
Mof_H 	H 	0.6031	0.772	0.8022	0.063
Mof_C 	C 	0.62779	0.79007	0.81142	0.004
Mof_H 	H 	0.6284	0.7987	0.7993	0.038
Mof_C 	C 	0.6421	0.79249	0.82774	-0.045
Mof_C 	C 	0.64026	0.78001	0.84528	0.031
Mof_H 	H 	0.6502	0.7817	0.8562	0.017
Mof_C 	C 	0.65868	0.80877	0.82718	0.134
Mof_C 	C 	0.67567	0.83461	0.8103	0.133
Mof_C 	C 	0.68511	0.82589	0.84316	0.133
Mof_C 	C 	0.71232	0.84601	0.86178	0.039
Mof_H 	H 	0.7137	0.8542	0.8494	0.012
Mof_C 	C 	0.69779	0.82952	0.86185	-0.051
Mof_C 	C 	0.69589	0.81735	0.8796	0.009
Mof_H 	H 	0.686	0.8062	0.8803	0.037
Mof_C 	C 	0.70891	0.82192	0.89642	-0.1
Mof_H 	H 	0.7084	0.8136	0.9087	0.067
Mof_C 	C 	0.72254	0.8386	0.89511	0.061
Mof_H 	H 	0.7311	0.8416	0.9069	0.001
Mof_C 	C 	0.76763	0.83301	0.86138	0.063
Mof_H 	H 	0.757	0.8341	0.8511	-0.001
Mof_C 	C 	0.7794	0.8154	0.86166	-0.103
Mof_H 	H 	0.7769	0.8045	0.8519	0.068
Mof_C 	C 	0.7953	0.8136	0.87667	0.009
Mof_H 	H 	0.8041	0.8016	0.8771	0.037
Mof_C 	C 	0.79783	0.82984	0.89076	-0.052
Mof_C 	C 	0.78502	0.84731	0.88915	0.042
Mof_H 	H 	0.787	0.8585	0.8987	0.011
Mof_C 	C 	0.81441	0.82908	0.90698	0.135
Mof_C 	C 	0.75059	0.87611	0.92522	0.108
Mof_N 	N 	0.65904	0.86692	0.76475	-0.223
Mof_N 	N 	0.63715	0.77446	0.89301	-0.261
Mof_N 	N 	0.62497	0.76551	0.84758	-0.224
Mof_N 	N 	0.6704	0.81091	0.84418	-0.151
Mof_N 	N 	0.66034	0.82025	0.80971	-0.15
Mof_N 	N 	0.68887	0.83763	0.82613	-0.151
Mof_N 	N 	0.72432	0.85075	0.87815	-0.229
Mof_N 	N 	0.74881	0.87676	0.90762	-0.264
Mof_N 	N 	0.77009	0.84897	0.87476	-0.229
Mof_N 	N 	0.82831	0.81397	0.90572	-0.152
Mof_S 	S 	0.66304	0.79463	0.92188	-0.059
Mof_S 	S 	0.75216	0.87346	0.95072	-0.062
Mof_C 	C 	0.65972	0.35258	0.28011	0.033
Mof_H 	H 	0.6476	0.3444	0.2827	0.014
Mof_C 	C 	0.67742	0.34914	0.2925	-0.046
Mof_C 	C 	0.69523	0.36072	0.28862	0.006
Mof_H 	H 	0.7074	0.3592	0.297	0.038
Mof_C 	C 	0.69486	0.37482	0.2719	-0.1
Mof_H 	H 	0.7071	0.3824	0.2682	0.066
Mof_C 	C 	0.67686	0.37758	0.26093	0.061
Mof_H 	H 	0.6768	0.3876	0.2499	-0
Mof_C 	C 	0.64774	0.28338	0.40467	0.098
Mof_C 	C 	0.61148	0.26321	0.33157	0.057
Mof_H 	H 	0.6006	0.2532	0.3329	-0
Mof_C 	C 	0.6126	0.27462	0.31334	-0.096
Mof_H 	H 	0.6031	0.272	0.3022	0.063
Mof_C 	C 	0.62779	0.29007	0.31142	0.004
Mof_H 	H 	0.6284	0.2987	0.2993	0.038
Mof_C 	C 	0.6421	0.29249	0.32774	-0.045
Mof_C 	C 	0.64026	0.28001	0.34528	0.031
Mof_H 	H 	0.6502	0.2817	0.3562	0.017
Mof_C 	C 	0.65868	0.30877	0.32718	0.134
Mof_C 	C 	0.67567	0.33461	0.3103	0.133
Mof_C 	C 	0.68511	0.32589	0.34316	0.133
Mof_C 	C 	0.71232	0.34601	0.36178	0.039
Mof_H 	H 	0.7137	0.3542	0.3494	0.012
Mof_C 	C 	0.69779	0.32952	0.36185	-0.051
Mof_C 	C 	0.69589	0.31735	0.3796	0.009
Mof_H 	H 	0.686	0.3062	0.3803	0.037
Mof_C 	C 	0.70891	0.32192	0.39642	-0.1
Mof_H 	H 	0.7084	0.3136	0.4087	0.067
Mof_C 	C 	0.72254	0.3386	0.39511	0.061
Mof_H 	H 	0.7311	0.3416	0.4069	0.001
Mof_C 	C 	0.76763	0.33301	0.36138	0.063
Mof_H 	H 	0.757	0.3341	0.3511	-0.001
Mof_C 	C 	0.7794	0.3154	0.36166	-0.103
Mof_H 	H 	0.7769	0.3045	0.3519	0.068
Mof_C 	C 	0.7953	0.3136	0.37667	0.009
Mof_H 	H 	0.8041	0.3016	0.3771	0.037
Mof_C 	C 	0.79783	0.32984	0.39076	-0.052
Mof_C 	C 	0.78502	0.34731	0.38915	0.042
Mof_H 	H 	0.787	0.3585	0.3987	0.011
Mof_C 	C 	0.81441	0.32908	0.40698	0.135
Mof_C 	C 	0.75059	0.37611	0.42522	0.108
Mof_N 	N 	0.65904	0.36692	0.26475	-0.223
Mof_N 	N 	0.63715	0.27446	0.39301	-0.261
Mof_N 	N 	0.62497	0.26551	0.34758	-0.224
Mof_N 	N 	0.6704	0.31091	0.34418	-0.151
Mof_N 	N 	0.66034	0.32025	0.30971	-0.15
Mof_N 	N 	0.68887	0.33763	0.32613	-0.151
Mof_N 	N 	0.72432	0.35075	0.37815	-0.229
Mof_N 	N 	0.74881	0.37676	0.40762	-0.264
Mof_N 	N 	0.77009	0.34897	0.37476	-0.229
Mof_N 	N 	0.82831	0.31397	0.40572	-0.152
Mof_S 	S 	0.66304	0.29463	0.42188	-0.059
Mof_S 	S 	0.75216	0.37346	0.45072	-0.062
Mof_C 	C 	0.65972	0.89742	0.96989	0.033
Mof_H 	H 	0.6476	0.9056	0.9673	0.014
Mof_C 	C 	0.67742	0.90086	0.9575	-0.046
Mof_C 	C 	0.69523	0.88928	0.96138	0.006
Mof_H 	H 	0.7074	0.8908	0.953	0.038
Mof_C 	C 	0.69486	0.87518	0.9781	-0.1
Mof_H 	H 	0.7071	0.8676	0.9818	0.066
Mof_C 	C 	0.67686	0.87242	0.98907	0.061
Mof_H 	H 	0.6768	0.8624	0.0001	-0
Mof_C 	C 	0.64774	0.96662	0.84533	0.098
Mof_C 	C 	0.61148	0.98679	0.91843	0.057
Mof_H 	H 	0.6006	0.9968	0.9171	-0
Mof_C 	C 	0.6126	0.97538	0.93666	-0.096
Mof_H 	H 	0.6031	0.978	0.9478	0.063
Mof_C 	C 	0.62779	0.95993	0.93858	0.004
Mof_H 	H 	0.6284	0.9513	0.9507	0.038
Mof_C 	C 	0.6421	0.95751	0.92226	-0.045
Mof_C 	C 	0.64026	0.96999	0.90472	0.031
Mof_H 	H 	0.6502	0.9683	0.8938	0.017
Mof_C 	C 	0.65868	0.94123	0.92282	0.134
Mof_C 	C 	0.67567	0.91539	0.9397	0.133
Mof_C 	C 	0.68511	0.92411	0.90684	0.133
Mof_C 	C 	0.71232	0.90399	0.88822	0.039
Mof_H 	H 	0.7137	0.8958	0.9006	0.012
Mof_C 	C 	0.69779	0.92048	0.88815	-0.051
Mof_C 	C 	0.69589	0.93265	0.8704	0.009
Mof_H 	H 	0.686	0.9438	0.8697	0.037
Mof_C 	C 	0.70891	0.92808	0.85358	-0.1
Mof_H 	H 	0.7084	0.9364	0.8413	0.067
Mof_C 	C 	0.72254	0.9114	0.85489	0.061
Mof_H 	H 	0.7311	0.9084	0.8431	0.001
Mof_C 	C 	0.76763	0.91699	0.88862	0.063
Mof_H 	H 	0.757	0.9159	0.8989	-0.001
Mof_C 	C 	0.7794	0.9346	0.88834	-0.103
Mof_H 	H 	0.7769	0.9455	0.8981	0.068
Mof_C 	C 	0.7953	0.9364	0.87333	0.009
Mof_H 	H 	0.8041	0.9484	0.8729	0.037
Mof_C 	C 	0.79783	0.92016	0.85924	-0.052
Mof_C 	C 	0.78502	0.90269	0.86085	0.042
Mof_H 	H 	0.787	0.8915	0.8513	0.011
Mof_C 	C 	0.81441	0.92092	0.84302	0.135
Mof_C 	C 	0.75059	0.87389	0.82478	0.108
Mof_N 	N 	0.65904	0.88308	0.98525	-0.223
Mof_N 	N 	0.63715	0.97554	0.85699	-0.261
Mof_N 	N 	0.62497	0.98449	0.90242	-0.224
Mof_N 	N 	0.6704	0.93909	0.90582	-0.151
Mof_N 	N 	0.66034	0.92975	0.94029	-0.15
Mof_N 	N 	0.68887	0.91237	0.92387	-0.151
Mof_N 	N 	0.72432	0.89925	0.87185	-0.229
Mof_N 	N 	0.74881	0.87324	0.84238	-0.264
Mof_N 	N 	0.77009	0.90103	0.87524	-0.229
Mof_N 	N 	0.82831	0.93603	0.84428	-0.152
Mof_S 	S 	0.66304	0.95537	0.82812	-0.059
Mof_S 	S 	0.75216	0.87654	0.79928	-0.062
Mof_C 	C 	0.65972	0.39742	0.46989	0.033
Mof_H 	H 	0.6476	0.4056	0.4673	0.014
Mof_C 	C 	0.67742	0.40086	0.4575	-0.046
Mof_C 	C 	0.69523	0.38928	0.46138	0.006
Mof_H 	H 	0.7074	0.3908	0.453	0.038
Mof_C 	C 	0.69486	0.37518	0.4781	-0.1
Mof_H 	H 	0.7071	0.3676	0.4818	0.066
Mof_C 	C 	0.67686	0.37242	0.48907	0.061
Mof_H 	H 	0.6768	0.3624	0.5001	-0
Mof_C 	C 	0.64774	0.46662	0.34533	0.098
Mof_C 	C 	0.61148	0.48679	0.41843	0.057
Mof_H 	H 	0.6006	0.4968	0.4171	-0
Mof_C 	C 	0.6126	0.47538	0.43666	-0.096
Mof_H 	H 	0.6031	0.478	0.4478	0.063
Mof_C 	C 	0.62779	0.45993	0.43858	0.004
Mof_H 	H 	0.6284	0.4513	0.4507	0.038
Mof_C 	C 	0.6421	0.45751	0.42226	-0.045
Mof_C 	C 	0.64026	0.46999	0.40472	0.031
Mof_H 	H 	0.6502	0.4683	0.3938	0.017
Mof_C 	C 	0.65868	0.44123	0.42282	0.134
Mof_C 	C 	0.67567	0.41539	0.4397	0.133
Mof_C 	C 	0.68511	0.42411	0.40684	0.133
Mof_C 	C 	0.71232	0.40399	0.38822	0.039
Mof_H 	H 	0.7137	0.3958	0.4006	0.012
Mof_C 	C 	0.69779	0.42048	0.38815	-0.051
Mof_C 	C 	0.69589	0.43265	0.3704	0.009
Mof_H 	H 	0.686	0.4438	0.3697	0.037
Mof_C 	C 	0.70891	0.42808	0.35358	-0.1
Mof_H 	H 	0.7084	0.4364	0.3413	0.067
Mof_C 	C 	0.72254	0.4114	0.35489	0.061
Mof_H 	H 	0.7311	0.4084	0.3431	0.001
Mof_C 	C 	0.76763	0.41699	0.38862	0.063
Mof_H 	H 	0.757	0.4159	0.3989	-0.001
Mof_C 	C 	0.7794	0.4346	0.38834	-0.103
Mof_H 	H 	0.7769	0.4455	0.3981	0.068
Mof_C 	C 	0.7953	0.4364	0.37333	0.009
Mof_H 	H 	0.8041	0.4484	0.3729	0.037
Mof_C 	C 	0.79783	0.42016	0.35924	-0.052
Mof_C 	C 	0.78502	0.40269	0.36085	0.042
Mof_H 	H 	0.787	0.3915	0.3513	0.011
Mof_C 	C 	0.81441	0.42092	0.34302	0.135
Mof_C 	C 	0.75059	0.37389	0.32478	0.108
Mof_N 	N 	0.65904	0.38308	0.48525	-0.223
Mof_N 	N 	0.63715	0.47554	0.35699	-0.261
Mof_N 	N 	0.62497	0.48449	0.40242	-0.224
Mof_N 	N 	0.6704	0.43909	0.40582	-0.151
Mof_N 	N 	0.66034	0.42975	0.44029	-0.15
Mof_N 	N 	0.68887	0.41237	0.42387	-0.151
Mof_N 	N 	0.72432	0.39925	0.37185	-0.229
Mof_N 	N 	0.74881	0.37324	0.34238	-0.264
Mof_N 	N 	0.77009	0.40103	0.37524	-0.229
Mof_N 	N 	0.82831	0.43603	0.34428	-0.152
Mof_S 	S 	0.66304	0.45537	0.32812	-0.059
Mof_S 	S 	0.75216	0.37654	0.29928	-0.062
Mof_C 	C 	0.15972	0.89742	0.46989	0.033
Mof_H 	H 	0.1476	0.9056	0.4673	0.014
Mof_C 	C 	0.17742	0.90086	0.4575	-0.046
Mof_C 	C 	0.19523	0.88928	0.46138	0.006
Mof_H 	H 	0.2074	0.8908	0.453	0.038
Mof_C 	C 	0.19486	0.87518	0.4781	-0.1
Mof_H 	H 	0.2071	0.8676	0.4818	0.066
Mof_C 	C 	0.17686	0.87242	0.48907	0.061
Mof_H 	H 	0.1768	0.8624	0.5001	-0
Mof_C 	C 	0.14774	0.96662	0.34533	0.098
Mof_C 	C 	0.11148	0.98679	0.41843	0.057
Mof_H 	H 	0.1006	0.9968	0.4171	-0
Mof_C 	C 	0.1126	0.97538	0.43666	-0.096
Mof_H 	H 	0.1031	0.978	0.4478	0.063
Mof_C 	C 	0.12779	0.95993	0.43858	0.004
Mof_H 	H 	0.1284	0.9513	0.4507	0.038
Mof_C 	C 	0.1421	0.95751	0.42226	-0.045
Mof_C 	C 	0.14026	0.96999	0.40472	0.031
Mof_H 	H 	0.1502	0.9683	0.3938	0.017
Mof_C 	C 	0.15868	0.94123	0.42282	0.134
Mof_C 	C 	0.17567	0.91539	0.4397	0.133
Mof_C 	C 	0.18511	0.92411	0.40684	0.133
Mof_C 	C 	0.21232	0.90399	0.38822	0.039
Mof_H 	H 	0.2137	0.8958	0.4006	0.012
Mof_C 	C 	0.19779	0.92048	0.38815	-0.051
Mof_C 	C 	0.19589	0.93265	0.3704	0.009
Mof_H 	H 	0.186	0.9438	0.3697	0.037
Mof_C 	C 	0.20891	0.92808	0.35358	-0.1
Mof_H 	H 	0.2084	0.9364	0.3413	0.067
Mof_C 	C 	0.22254	0.9114	0.35489	0.061
Mof_H 	H 	0.2311	0.9084	0.3431	0.001
Mof_C 	C 	0.26763	0.91699	0.38862	0.063
Mof_H 	H 	0.257	0.9159	0.3989	-0.001
Mof_C 	C 	0.2794	0.9346	0.38834	-0.103
Mof_H 	H 	0.2769	0.9455	0.3981	0.068
Mof_C 	C 	0.2953	0.9364	0.37333	0.009
Mof_H 	H 	0.3041	0.9484	0.3729	0.037
Mof_C 	C 	0.29783	0.92016	0.35924	-0.052
Mof_C 	C 	0.28502	0.90269	0.36085	0.042
Mof_H 	H 	0.287	0.8915	0.3513	0.011
Mof_C 	C 	0.31441	0.92092	0.34302	0.135
Mof_C 	C 	0.25059	0.87389	0.32478	0.108
Mof_N 	N 	0.15904	0.88308	0.48525	-0.223
Mof_N 	N 	0.13715	0.97554	0.35699	-0.261
Mof_N 	N 	0.12497	0.98449	0.40242	-0.224
Mof_N 	N 	0.1704	0.93909	0.40582	-0.151
Mof_N 	N 	0.16034	0.92975	0.44029	-0.15
Mof_N 	N 	0.18887	0.91237	0.42387	-0.151
Mof_N 	N 	0.22432	0.89925	0.37185	-0.229
Mof_N 	N 	0.24881	0.87324	0.34238	-0.264
Mof_N 	N 	0.27009	0.90103	0.37524	-0.229
Mof_N 	N 	0.32831	0.93603	0.34428	-0.152
Mof_S 	S 	0.16304	0.95537	0.32812	-0.059
Mof_S 	S 	0.25216	0.87654	0.29928	-0.062
Mof_C 	C 	0.15972	0.39742	0.96989	0.033
Mof_H 	H 	0.1476	0.4056	0.9673	0.014
Mof_C 	C 	0.17742	0.40086	0.9575	-0.046
Mof_C 	C 	0.19523	0.38928	0.96138	0.006
Mof_H 	H 	0.2074	0.3908	0.953	0.038
Mof_C 	C 	0.19486	0.37518	0.9781	-0.1
Mof_H 	H 	0.2071	0.3676	0.9818	0.066
Mof_C 	C 	0.17686	0.37242	0.98907	0.061
Mof_H 	H 	0.1768	0.3624	0.0001	-0
Mof_C 	C 	0.14774	0.46662	0.84533	0.098
Mof_C 	C 	0.11148	0.48679	0.91843	0.057
Mof_H 	H 	0.1006	0.4968	0.9171	-0
Mof_C 	C 	0.1126	0.47538	0.93666	-0.096
Mof_H 	H 	0.1031	0.478	0.9478	0.063
Mof_C 	C 	0.12779	0.45993	0.93858	0.004
Mof_H 	H 	0.1284	0.4513	0.9507	0.038
Mof_C 	C 	0.1421	0.45751	0.92226	-0.045
Mof_C 	C 	0.14026	0.46999	0.90472	0.031
Mof_H 	H 	0.1502	0.4683	0.8938	0.017
Mof_C 	C 	0.15868	0.44123	0.92282	0.134
Mof_C 	C 	0.17567	0.41539	0.9397	0.133
Mof_C 	C 	0.18511	0.42411	0.90684	0.133
Mof_C 	C 	0.21232	0.40399	0.88822	0.039
Mof_H 	H 	0.2137	0.3958	0.9006	0.012
Mof_C 	C 	0.19779	0.42048	0.88815	-0.051
Mof_C 	C 	0.19589	0.43265	0.8704	0.009
Mof_H 	H 	0.186	0.4438	0.8697	0.037
Mof_C 	C 	0.20891	0.42808	0.85358	-0.1
Mof_H 	H 	0.2084	0.4364	0.8413	0.067
Mof_C 	C 	0.22254	0.4114	0.85489	0.061
Mof_H 	H 	0.2311	0.4084	0.8431	0.001
Mof_C 	C 	0.26763	0.41699	0.88862	0.063
Mof_H 	H 	0.257	0.4159	0.8989	-0.001
Mof_C 	C 	0.2794	0.4346	0.88834	-0.103
Mof_H 	H 	0.2769	0.4455	0.8981	0.068
Mof_C 	C 	0.2953	0.4364	0.87333	0.009
Mof_H 	H 	0.3041	0.4484	0.8729	0.037
Mof_C 	C 	0.29783	0.42016	0.85924	-0.052
Mof_C 	C 	0.28502	0.40269	0.86085	0.042
Mof_H 	H 	0.287	0.3915	0.8513	0.011
Mof_C 	C 	0.31441	0.42092	0.84302	0.135
Mof_C 	C 	0.25059	0.37389	0.82478	0.108
Mof_N 	N 	0.15904	0.38308	0.98525	-0.223
Mof_N 	N 	0.13715	0.47554	0.85699	-0.261
Mof_N 	N 	0.12497	0.48449	0.90242	-0.224
Mof_N 	N 	0.1704	0.43909	0.90582	-0.151
Mof_N 	N 	0.16034	0.42975	0.94029	-0.15
Mof_N 	N 	0.18887	0.41237	0.92387	-0.151
Mof_N 	N 	0.22432	0.39925	0.87185	-0.229
Mof_N 	N 	0.24881	0.37324	0.84238	-0.264
Mof_N 	N 	0.27009	0.40103	0.87524	-0.229
Mof_N 	N 	0.32831	0.43603	0.84428	-0.152
Mof_S 	S 	0.16304	0.45537	0.82812	-0.059
Mof_S 	S 	0.25216	0.37654	0.79928	-0.062
Mof_C 	C 	0.09028	0.35258	0.46989	0.033
Mof_H 	H 	0.1024	0.3444	0.4673	0.014
Mof_C 	C 	0.07258	0.34914	0.4575	-0.046
Mof_C 	C 	0.05477	0.36072	0.46138	0.006
Mof_H 	H 	0.0426	0.3592	0.453	0.038
Mof_C 	C 	0.05514	0.37482	0.4781	-0.1
Mof_H 	H 	0.0429	0.3824	0.4818	0.066
Mof_C 	C 	0.07314	0.37758	0.48907	0.061
Mof_H 	H 	0.0732	0.3876	0.5001	-0
Mof_C 	C 	0.10226	0.28338	0.34533	0.098
Mof_C 	C 	0.13852	0.26321	0.41843	0.057
Mof_H 	H 	0.1494	0.2532	0.4171	-0
Mof_C 	C 	0.1374	0.27462	0.43666	-0.096
Mof_H 	H 	0.1469	0.272	0.4478	0.063
Mof_C 	C 	0.12221	0.29007	0.43858	0.004
Mof_H 	H 	0.1216	0.2987	0.4507	0.038
Mof_C 	C 	0.1079	0.29249	0.42226	-0.045
Mof_C 	C 	0.10974	0.28001	0.40472	0.031
Mof_H 	H 	0.0998	0.2817	0.3938	0.017
Mof_C 	C 	0.09132	0.30877	0.42282	0.134
Mof_C 	C 	0.07433	0.33461	0.4397	0.133
Mof_C 	C 	0.06489	0.32589	0.40684	0.133
Mof_C 	C 	0.03768	0.34601	0.38822	0.039
Mof_H 	H 	0.0363	0.3542	0.4006	0.012
Mof_C 	C 	0.05221	0.32952	0.38815	-0.051
Mof_C 	C 	0.05411	0.31735	0.3704	0.009
Mof_H 	H 	0.064	0.3062	0.3697	0.037
Mof_C 	C 	0.04109	0.32192	0.35358	-0.1
Mof_H 	H 	0.0416	0.3136	0.3413	0.067
Mof_C 	C 	0.02746	0.3386	0.35489	0.061
Mof_H 	H 	0.0189	0.3416	0.3431	0.001
Mof_C 	C 	0.98237	0.33301	0.38862	0.063
Mof_H 	H 	0.993	0.3341	0.3989	-0.001
Mof_C 	C 	0.9706	0.3154	0.38834	-0.103
Mof_H 	H 	0.9731	0.3045	0.3981	0.068
Mof_C 	C 	0.9547	0.3136	0.37333	0.009
Mof_H 	H 	0.9459	0.3016	0.3729	0.037
Mof_C 	C 	0.95217	0.32984	0.35924	-0.052
Mof_C 	C 	0.96498	0.34731	0.36085	0.042
Mof_H 	H 	0.963	0.3585	0.3513	0.011
Mof_C 	C 	0.93559	0.32908	0.34302	0.135
Mof_C 	C 	0.99941	0.37611	0.32478	0.108
Mof_N 	N 	0.09096	0.36692	0.48525	-0.223
Mof_N 	N 	0.11285	0.27446	0.35699	-0.261
Mof_N 	N 	0.12503	0.26551	0.40242	-0.224
Mof_N 	N 	0.0796	0.31091	0.40582	-0.151
Mof_N 	N 	0.08966	0.32025	0.44029	-0.15
Mof_N 	N 	0.06113	0.33763	0.42387	-0.151
Mof_N 	N 	0.02568	0.35075	0.37185	-0.229
Mof_N 	N 	0.00119	0.37676	0.34238	-0.264
Mof_N 	N 	0.97991	0.34897	0.37524	-0.229
Mof_N 	N 	0.92169	0.31397	0.34428	-0.152
Mof_S 	S 	0.08696	0.29463	0.32812	-0.059
Mof_S 	S 	0.99784	0.37346	0.29928	-0.062
Mof_C 	C 	0.09028	0.85258	0.96989	0.033
Mof_H 	H 	0.1024	0.8444	0.9673	0.014
Mof_C 	C 	0.07258	0.84914	0.9575	-0.046
Mof_C 	C 	0.05477	0.86072	0.96138	0.006
Mof_H 	H 	0.0426	0.8592	0.953	0.038
Mof_C 	C 	0.05514	0.87482	0.9781	-0.1
Mof_H 	H 	0.0429	0.8824	0.9818	0.066
Mof_C 	C 	0.07314	0.87758	0.98907	0.061
Mof_H 	H 	0.0732	0.8876	0.0001	-0
Mof_C 	C 	0.10226	0.78338	0.84533	0.098
Mof_C 	C 	0.13852	0.76321	0.91843	0.057
Mof_H 	H 	0.1494	0.7532	0.9171	-0
Mof_C 	C 	0.1374	0.77462	0.93666	-0.096
Mof_H 	H 	0.1469	0.772	0.9478	0.063
Mof_C 	C 	0.12221	0.79007	0.93858	0.004
Mof_H 	H 	0.1216	0.7987	0.9507	0.038
Mof_C 	C 	0.1079	0.79249	0.92226	-0.045
Mof_C 	C 	0.10974	0.78001	0.90472	0.031
Mof_H 	H 	0.0998	0.7817	0.8938	0.017
Mof_C 	C 	0.09132	0.80877	0.92282	0.134
Mof_C 	C 	0.07433	0.83461	0.9397	0.133
Mof_C 	C 	0.06489	0.82589	0.90684	0.133
Mof_C 	C 	0.03768	0.84601	0.88822	0.039
Mof_H 	H 	0.0363	0.8542	0.9006	0.012
Mof_C 	C 	0.05221	0.82952	0.88815	-0.051
Mof_C 	C 	0.05411	0.81735	0.8704	0.009
Mof_H 	H 	0.064	0.8062	0.8697	0.037
Mof_C 	C 	0.04109	0.82192	0.85358	-0.1
Mof_H 	H 	0.0416	0.8136	0.8413	0.067
Mof_C 	C 	0.02746	0.8386	0.85489	0.061
Mof_H 	H 	0.0189	0.8416	0.8431	0.001
Mof_C 	C 	0.98237	0.83301	0.88862	0.063
Mof_H 	H 	0.993	0.8341	0.8989	-0.001
Mof_C 	C 	0.9706	0.8154	0.88834	-0.103
Mof_H 	H 	0.9731	0.8045	0.8981	0.068
Mof_C 	C 	0.9547	0.8136	0.87333	0.009
Mof_H 	H 	0.9459	0.8016	0.8729	0.037
Mof_C 	C 	0.95217	0.82984	0.85924	-0.052
Mof_C 	C 	0.96498	0.84731	0.86085	0.042
Mof_H 	H 	0.963	0.8585	0.8513	0.011
Mof_C 	C 	0.93559	0.82908	0.84302	0.135
Mof_C 	C 	0.99941	0.87611	0.82478	0.108
Mof_N 	N 	0.09096	0.86692	0.98525	-0.223
Mof_N 	N 	0.11285	0.77446	0.85699	-0.261
Mof_N 	N 	0.12503	0.76551	0.90242	-0.224
Mof_N 	N 	0.0796	0.81091	0.90582	-0.151
Mof_N 	N 	0.08966	0.82025	0.94029	-0.15
Mof_N 	N 	0.06113	0.83763	0.92387	-0.151
Mof_N 	N 	0.02568	0.85075	0.87185	-0.229
Mof_N 	N 	0.00119	0.87676	0.84238	-0.264
Mof_N 	N 	0.97991	0.84897	0.87524	-0.229
Mof_N 	N 	0.92169	0.81397	0.84428	-0.152
Mof_S 	S 	0.08696	0.79463	0.82812	-0.059
Mof_S 	S 	0.99784	0.87346	0.79928	-0.062
Mof_C 	C 	0.59028	0.35258	0.96989	0.033
Mof_H 	H 	0.6024	0.3444	0.9673	0.014
Mof_C 	C 	0.57258	0.34914	0.9575	-0.046
Mof_C 	C 	0.55477	0.36072	0.96138	0.006
Mof_H 	H 	0.5426	0.3592	0.953	0.038
Mof_C 	C 	0.55514	0.37482	0.9781	-0.1
Mof_H 	H 	0.5429	0.3824	0.9818	0.066
Mof_C 	C 	0.57314	0.37758	0.98907	0.061
Mof_H 	H 	0.5732	0.3876	0.0001	-0
Mof_C 	C 	0.60226	0.28338	0.84533	0.098
Mof_C 	C 	0.63852	0.26321	0.91843	0.057
Mof_H 	H 	0.6494	0.2532	0.9171	-0
Mof_C 	C 	0.6374	0.27462	0.93666	-0.096
Mof_H 	H 	0.6469	0.272	0.9478	0.063
Mof_C 	C 	0.62221	0.29007	0.93858	0.004
Mof_H 	H 	0.6216	0.2987	0.9507	0.038
Mof_C 	C 	0.6079	0.29249	0.92226	-0.045
Mof_C 	C 	0.60974	0.28001	0.90472	0.031
Mof_H 	H 	0.5998	0.2817	0.8938	0.017
Mof_C 	C 	0.59132	0.30877	0.92282	0.134
Mof_C 	C 	0.57433	0.33461	0.9397	0.133
Mof_C 	C 	0.56489	0.32589	0.90684	0.133
Mof_C 	C 	0.53768	0.34601	0.88822	0.039
Mof_H 	H 	0.5363	0.3542	0.9006	0.012
Mof_C 	C 	0.55221	0.32952	0.88815	-0.051
Mof_C 	C 	0.55411	0.31735	0.8704	0.009
Mof_H 	H 	0.564	0.3062	0.8697	0.037
Mof_C 	C 	0.54109	0.32192	0.85358	-0.1
Mof_H 	H 	0.5416	0.3136	0.8413	0.067
Mof_C 	C 	0.52746	0.3386	0.85489	0.061
Mof_H 	H 	0.5189	0.3416	0.8431	0.001
Mof_C 	C 	0.48237	0.33301	0.88862	0.063
Mof_H 	H 	0.493	0.3341	0.8989	-0.001
Mof_C 	C 	0.4706	0.3154	0.88834	-0.103
Mof_H 	H 	0.4731	0.3045	0.8981	0.068
Mof_C 	C 	0.4547	0.3136	0.87333	0.009
Mof_H 	H 	0.4459	0.3016	0.8729	0.037
Mof_C 	C 	0.45217	0.32984	0.85924	-0.052
Mof_C 	C 	0.46498	0.34731	0.86085	0.042
Mof_H 	H 	0.463	0.3585	0.8513	0.011
Mof_C 	C 	0.43559	0.32908	0.84302	0.135
Mof_C 	C 	0.49941	0.37611	0.82478	0.108
Mof_N 	N 	0.59096	0.36692	0.98525	-0.223
Mof_N 	N 	0.61285	0.27446	0.85699	-0.261
Mof_N 	N 	0.62503	0.26551	0.90242	-0.224
Mof_N 	N 	0.5796	0.31091	0.90582	-0.151
Mof_N 	N 	0.58966	0.32025	0.94029	-0.15
Mof_N 	N 	0.56113	0.33763	0.92387	-0.151
Mof_N 	N 	0.52568	0.35075	0.87185	-0.229
Mof_N 	N 	0.50119	0.37676	0.84238	-0.264
Mof_N 	N 	0.47991	0.34897	0.87524	-0.229
Mof_N 	N 	0.42169	0.31397	0.84428	-0.152
Mof_S 	S 	0.58696	0.29463	0.82812	-0.059
Mof_S 	S 	0.49784	0.37346	0.79928	-0.062
Mof_C 	C 	0.59028	0.85258	0.46989	0.033
Mof_H 	H 	0.6024	0.8444	0.4673	0.014
Mof_C 	C 	0.57258	0.84914	0.4575	-0.046
Mof_C 	C 	0.55477	0.86072	0.46138	0.006
Mof_H 	H 	0.5426	0.8592	0.453	0.038
Mof_C 	C 	0.55514	0.87482	0.4781	-0.1
Mof_H 	H 	0.5429	0.8824	0.4818	0.066
Mof_C 	C 	0.57314	0.87758	0.48907	0.061
Mof_H 	H 	0.5732	0.8876	0.5001	-0
Mof_C 	C 	0.60226	0.78338	0.34533	0.098
Mof_C 	C 	0.63852	0.76321	0.41843	0.057
Mof_H 	H 	0.6494	0.7532	0.4171	-0
Mof_C 	C 	0.6374	0.77462	0.43666	-0.096
Mof_H 	H 	0.6469	0.772	0.4478	0.063
Mof_C 	C 	0.62221	0.79007	0.43858	0.004
Mof_H 	H 	0.6216	0.7987	0.4507	0.038
Mof_C 	C 	0.6079	0.79249	0.42226	-0.045
Mof_C 	C 	0.60974	0.78001	0.40472	0.031
Mof_H 	H 	0.5998	0.7817	0.3938	0.017
Mof_C 	C 	0.59132	0.80877	0.42282	0.134
Mof_C 	C 	0.57433	0.83461	0.4397	0.133
Mof_C 	C 	0.56489	0.82589	0.40684	0.133
Mof_C 	C 	0.53768	0.84601	0.38822	0.039
Mof_H 	H 	0.5363	0.8542	0.4006	0.012
Mof_C 	C 	0.55221	0.82952	0.38815	-0.051
Mof_C 	C 	0.55411	0.81735	0.3704	0.009
Mof_H 	H 	0.564	0.8062	0.3697	0.037
Mof_C 	C 	0.54109	0.82192	0.35358	-0.1
Mof_H 	H 	0.5416	0.8136	0.3413	0.067
Mof_C 	C 	0.52746	0.8386	0.35489	0.061
Mof_H 	H 	0.5189	0.8416	0.3431	0.001
Mof_C 	C 	0.48237	0.83301	0.38862	0.063
Mof_H 	H 	0.493	0.8341	0.3989	-0.001
Mof_C 	C 	0.4706	0.8154	0.38834	-0.103
Mof_H 	H 	0.4731	0.8045	0.3981	0.068
Mof_C 	C 	0.4547	0.8136	0.37333	0.009
Mof_H 	H 	0.4459	0.8016	0.3729	0.037
Mof_C 	C 	0.45217	0.82984	0.35924	-0.052
Mof_C 	C 	0.46498	0.84731	0.36085	0.042
Mof_H 	H 	0.463	0.8585	0.3513	0.011
Mof_C 	C 	0.43559	0.82908	0.34302	0.135
Mof_C 	C 	0.49941	0.87611	0.32478	0.108
Mof_N 	N 	0.59096	0.86692	0.48525	-0.223
Mof_N 	N 	0.61285	0.77446	0.35699	-0.261
Mof_N 	N 	0.62503	0.76551	0.40242	-0.224
Mof_N 	N 	0.5796	0.81091	0.40582	-0.151
Mof_N 	N 	0.58966	0.82025	0.44029	-0.15
Mof_N 	N 	0.56113	0.83763	0.42387	-0.151
Mof_N 	N 	0.52568	0.85075	0.37185	-0.229
Mof_N 	N 	0.50119	0.87676	0.34238	-0.264
Mof_N 	N 	0.47991	0.84897	0.37524	-0.229
Mof_N 	N 	0.42169	0.81397	0.34428	-0.152
Mof_S 	S 	0.58696	0.79463	0.32812	-0.059
Mof_S 	S 	0.49784	0.87346	0.29928	-0.062
Mof_C 	C 	0.78011	0.59028	0.39742	0.033
Mof_H 	H 	0.7827	0.6024	0.4056	0.014
Mof_C 	C 	0.7925	0.57258	0.40086	-0.046
Mof_C 	C 	0.78862	0.55477	0.38928	0.006
Mof_H 	H 	0.797	0.5426	0.3908	0.038
Mof_C 	C 	0.7719	0.55514	0.37518	-0.1
Mof_H 	H 	0.7682	0.5429	0.3676	0.066
Mof_C 	C 	0.76093	0.57314	0.37242	0.061
Mof_H 	H 	0.7499	0.5732	0.3624	-0
Mof_C 	C 	0.90467	0.60226	0.46662	0.098
Mof_C 	C 	0.83157	0.63852	0.48679	0.057
Mof_H 	H 	0.8329	0.6494	0.4968	-0
Mof_C 	C 	0.81334	0.6374	0.47538	-0.096
Mof_H 	H 	0.8022	0.6469	0.478	0.063
Mof_C 	C 	0.81142	0.62221	0.45993	0.004
Mof_H 	H 	0.7993	0.6216	0.4513	0.038
Mof_C 	C 	0.82774	0.6079	0.45751	-0.045
Mof_C 	C 	0.84528	0.60974	0.46999	0.031
Mof_H 	H 	0.8562	0.5998	0.4683	0.017
Mof_C 	C 	0.82718	0.59132	0.44123	0.134
Mof_C 	C 	0.8103	0.57433	0.41539	0.133
Mof_C 	C 	0.84316	0.56489	0.42411	0.133
Mof_C 	C 	0.86178	0.53768	0.40399	0.039
Mof_H 	H 	0.8494	0.5363	0.3958	0.012
Mof_C 	C 	0.86185	0.55221	0.42048	-0.051
Mof_C 	C 	0.8796	0.55411	0.43265	0.009
Mof_H 	H 	0.8803	0.564	0.4438	0.037
Mof_C 	C 	0.89642	0.54109	0.42808	-0.1
Mof_H 	H 	0.9087	0.5416	0.4364	0.067
Mof_C 	C 	0.89511	0.52746	0.4114	0.061
Mof_H 	H 	0.9069	0.5189	0.4084	0.001
Mof_C 	C 	0.86138	0.48237	0.41699	0.063
Mof_H 	H 	0.8511	0.493	0.4159	-0.001
Mof_C 	C 	0.86166	0.4706	0.4346	-0.103
Mof_H 	H 	0.8519	0.4731	0.4455	0.068
Mof_C 	C 	0.87667	0.4547	0.4364	0.009
Mof_H 	H 	0.8771	0.4459	0.4484	0.037
Mof_C 	C 	0.89076	0.45217	0.42016	-0.052
Mof_C 	C 	0.88915	0.46498	0.40269	0.042
Mof_H 	H 	0.8987	0.463	0.3915	0.011
Mof_C 	C 	0.90698	0.43559	0.42092	0.135
Mof_C 	C 	0.92522	0.49941	0.37389	0.108
Mof_N 	N 	0.76475	0.59096	0.38308	-0.223
Mof_N 	N 	0.89301	0.61285	0.47554	-0.261
Mof_N 	N 	0.84758	0.62503	0.48449	-0.224
Mof_N 	N 	0.84418	0.5796	0.43909	-0.151
Mof_N 	N 	0.80971	0.58966	0.42975	-0.15
Mof_N 	N 	0.82613	0.56113	0.41237	-0.151
Mof_N 	N 	0.87815	0.52568	0.39925	-0.229
Mof_N 	N 	0.90762	0.50119	0.37324	-0.264
Mof_N 	N 	0.87476	0.47991	0.40103	-0.229
Mof_N 	N 	0.90572	0.42169	0.43603	-0.152
Mof_S 	S 	0.92188	0.58696	0.45537	-0.059
Mof_S 	S 	0.95072	0.49784	0.37654	-0.062
Mof_C 	C 	0.78011	0.09028	0.89742	0.033
Mof_H 	H 	0.7827	0.1024	0.9056	0.014
Mof_C 	C 	0.7925	0.07258	0.90086	-0.046
Mof_C 	C 	0.78862	0.05477	0.88928	0.006
Mof_H 	H 	0.797	0.0426	0.8908	0.038
Mof_C 	C 	0.7719	0.05514	0.87518	-0.1
Mof_H 	H 	0.7682	0.0429	0.8676	0.066
Mof_C 	C 	0.76093	0.07314	0.87242	0.061
Mof_H 	H 	0.7499	0.0732	0.8624	-0
Mof_C 	C 	0.90467	0.10226	0.96662	0.098
Mof_C 	C 	0.83157	0.13852	0.98679	0.057
Mof_H 	H 	0.8329	0.1494	0.9968	-0
Mof_C 	C 	0.81334	0.1374	0.97538	-0.096
Mof_H 	H 	0.8022	0.1469	0.978	0.063
Mof_C 	C 	0.81142	0.12221	0.95993	0.004
Mof_H 	H 	0.7993	0.1216	0.9513	0.038
Mof_C 	C 	0.82774	0.1079	0.95751	-0.045
Mof_C 	C 	0.84528	0.10974	0.96999	0.031
Mof_H 	H 	0.8562	0.0998	0.9683	0.017
Mof_C 	C 	0.82718	0.09132	0.94123	0.134
Mof_C 	C 	0.8103	0.07433	0.91539	0.133
Mof_C 	C 	0.84316	0.06489	0.92411	0.133
Mof_C 	C 	0.86178	0.03768	0.90399	0.039
Mof_H 	H 	0.8494	0.0363	0.8958	0.012
Mof_C 	C 	0.86185	0.05221	0.92048	-0.051
Mof_C 	C 	0.8796	0.05411	0.93265	0.009
Mof_H 	H 	0.8803	0.064	0.9438	0.037
Mof_C 	C 	0.89642	0.04109	0.92808	-0.1
Mof_H 	H 	0.9087	0.0416	0.9364	0.067
Mof_C 	C 	0.89511	0.02746	0.9114	0.061
Mof_H 	H 	0.9069	0.0189	0.9084	0.001
Mof_C 	C 	0.86138	0.98237	0.91699	0.063
Mof_H 	H 	0.8511	0.993	0.9159	-0.001
Mof_C 	C 	0.86166	0.9706	0.9346	-0.103
Mof_H 	H 	0.8519	0.9731	0.9455	0.068
Mof_C 	C 	0.87667	0.9547	0.9364	0.009
Mof_H 	H 	0.8771	0.9459	0.9484	0.037
Mof_C 	C 	0.89076	0.95217	0.92016	-0.052
Mof_C 	C 	0.88915	0.96498	0.90269	0.042
Mof_H 	H 	0.8987	0.963	0.8915	0.011
Mof_C 	C 	0.90698	0.93559	0.92092	0.135
Mof_C 	C 	0.92522	0.99941	0.87389	0.108
Mof_N 	N 	0.76475	0.09096	0.88308	-0.223
Mof_N 	N 	0.89301	0.11285	0.97554	-0.261
Mof_N 	N 	0.84758	0.12503	0.98449	-0.224
Mof_N 	N 	0.84418	0.0796	0.93909	-0.151
Mof_N 	N 	0.80971	0.08966	0.92975	-0.15
Mof_N 	N 	0.82613	0.06113	0.91237	-0.151
Mof_N 	N 	0.87815	0.02568	0.89925	-0.229
Mof_N 	N 	0.90762	0.00119	0.87324	-0.264
Mof_N 	N 	0.87476	0.97991	0.90103	-0.229
Mof_N 	N 	0.90572	0.92169	0.93603	-0.152
Mof_S 	S 	0.92188	0.08696	0.95537	-0.059
Mof_S 	S 	0.95072	0.99784	0.87654	-0.062
Mof_C 	C 	0.28011	0.59028	0.89742	0.033
Mof_H 	H 	0.2827	0.6024	0.9056	0.014
Mof_C 	C 	0.2925	0.57258	0.90086	-0.046
Mof_C 	C 	0.28862	0.55477	0.88928	0.006
Mof_H 	H 	0.297	0.5426	0.8908	0.038
Mof_C 	C 	0.2719	0.55514	0.87518	-0.1
Mof_H 	H 	0.2682	0.5429	0.8676	0.066
Mof_C 	C 	0.26093	0.57314	0.87242	0.061
Mof_H 	H 	0.2499	0.5732	0.8624	-0
Mof_C 	C 	0.40467	0.60226	0.96662	0.098
Mof_C 	C 	0.33157	0.63852	0.98679	0.057
Mof_H 	H 	0.3329	0.6494	0.9968	-0
Mof_C 	C 	0.31334	0.6374	0.97538	-0.096
Mof_H 	H 	0.3022	0.6469	0.978	0.063
Mof_C 	C 	0.31142	0.62221	0.95993	0.004
Mof_H 	H 	0.2993	0.6216	0.9513	0.038
Mof_C 	C 	0.32774	0.6079	0.95751	-0.045
Mof_C 	C 	0.34528	0.60974	0.96999	0.031
Mof_H 	H 	0.3562	0.5998	0.9683	0.017
Mof_C 	C 	0.32718	0.59132	0.94123	0.134
Mof_C 	C 	0.3103	0.57433	0.91539	0.133
Mof_C 	C 	0.34316	0.56489	0.92411	0.133
Mof_C 	C 	0.36178	0.53768	0.90399	0.039
Mof_H 	H 	0.3494	0.5363	0.8958	0.012
Mof_C 	C 	0.36185	0.55221	0.92048	-0.051
Mof_C 	C 	0.3796	0.55411	0.93265	0.009
Mof_H 	H 	0.3803	0.564	0.9438	0.037
Mof_C 	C 	0.39642	0.54109	0.92808	-0.1
Mof_H 	H 	0.4087	0.5416	0.9364	0.067
Mof_C 	C 	0.39511	0.52746	0.9114	0.061
Mof_H 	H 	0.4069	0.5189	0.9084	0.001
Mof_C 	C 	0.36138	0.48237	0.91699	0.063
Mof_H 	H 	0.3511	0.493	0.9159	-0.001
Mof_C 	C 	0.36166	0.4706	0.9346	-0.103
Mof_H 	H 	0.3519	0.4731	0.9455	0.068
Mof_C 	C 	0.37667	0.4547	0.9364	0.009
Mof_H 	H 	0.3771	0.4459	0.9484	0.037
Mof_C 	C 	0.39076	0.45217	0.92016	-0.052
Mof_C 	C 	0.38915	0.46498	0.90269	0.042
Mof_H 	H 	0.3987	0.463	0.8915	0.011
Mof_C 	C 	0.40698	0.43559	0.92092	0.135
Mof_C 	C 	0.42522	0.49941	0.87389	0.108
Mof_N 	N 	0.26475	0.59096	0.88308	-0.223
Mof_N 	N 	0.39301	0.61285	0.97554	-0.261
Mof_N 	N 	0.34758	0.62503	0.98449	-0.224
Mof_N 	N 	0.34418	0.5796	0.93909	-0.151
Mof_N 	N 	0.30971	0.58966	0.92975	-0.15
Mof_N 	N 	0.32613	0.56113	0.91237	-0.151
Mof_N 	N 	0.37815	0.52568	0.89925	-0.229
Mof_N 	N 	0.40762	0.50119	0.87324	-0.264
Mof_N 	N 	0.37476	0.47991	0.90103	-0.229
Mof_N 	N 	0.40572	0.42169	0.93603	-0.152
Mof_S 	S 	0.42188	0.58696	0.95537	-0.059
Mof_S 	S 	0.45072	0.49784	0.87654	-0.062
Mof_C 	C 	0.28011	0.09028	0.39742	0.033
Mof_H 	H 	0.2827	0.1024	0.4056	0.014
Mof_C 	C 	0.2925	0.07258	0.40086	-0.046
Mof_C 	C 	0.28862	0.05477	0.38928	0.006
Mof_H 	H 	0.297	0.0426	0.3908	0.038
Mof_C 	C 	0.2719	0.05514	0.37518	-0.1
Mof_H 	H 	0.2682	0.0429	0.3676	0.066
Mof_C 	C 	0.26093	0.07314	0.37242	0.061
Mof_H 	H 	0.2499	0.0732	0.3624	-0
Mof_C 	C 	0.40467	0.10226	0.46662	0.098
Mof_C 	C 	0.33157	0.13852	0.48679	0.057
Mof_H 	H 	0.3329	0.1494	0.4968	-0
Mof_C 	C 	0.31334	0.1374	0.47538	-0.096
Mof_H 	H 	0.3022	0.1469	0.478	0.063
Mof_C 	C 	0.31142	0.12221	0.45993	0.004
Mof_H 	H 	0.2993	0.1216	0.4513	0.038
Mof_C 	C 	0.32774	0.1079	0.45751	-0.045
Mof_C 	C 	0.34528	0.10974	0.46999	0.031
Mof_H 	H 	0.3562	0.0998	0.4683	0.017
Mof_C 	C 	0.32718	0.09132	0.44123	0.134
Mof_C 	C 	0.3103	0.07433	0.41539	0.133
Mof_C 	C 	0.34316	0.06489	0.42411	0.133
Mof_C 	C 	0.36178	0.03768	0.40399	0.039
Mof_H 	H 	0.3494	0.0363	0.3958	0.012
Mof_C 	C 	0.36185	0.05221	0.42048	-0.051
Mof_C 	C 	0.3796	0.05411	0.43265	0.009
Mof_H 	H 	0.3803	0.064	0.4438	0.037
Mof_C 	C 	0.39642	0.04109	0.42808	-0.1
Mof_H 	H 	0.4087	0.0416	0.4364	0.067
Mof_C 	C 	0.39511	0.02746	0.4114	0.061
Mof_H 	H 	0.4069	0.0189	0.4084	0.001
Mof_C 	C 	0.36138	0.98237	0.41699	0.063
Mof_H 	H 	0.3511	0.993	0.4159	-0.001
Mof_C 	C 	0.36166	0.9706	0.4346	-0.103
Mof_H 	H 	0.3519	0.9731	0.4455	0.068
Mof_C 	C 	0.37667	0.9547	0.4364	0.009
Mof_H 	H 	0.3771	0.9459	0.4484	0.037
Mof_C 	C 	0.39076	0.95217	0.42016	-0.052
Mof_C 	C 	0.38915	0.96498	0.40269	0.042
Mof_H 	H 	0.3987	0.963	0.3915	0.011
Mof_C 	C 	0.40698	0.93559	0.42092	0.135
Mof_C 	C 	0.42522	0.99941	0.37389	0.108
Mof_N 	N 	0.26475	0.09096	0.38308	-0.223
Mof_N 	N 	0.39301	0.11285	0.47554	-0.261
Mof_N 	N 	0.34758	0.12503	0.48449	-0.224
Mof_N 	N 	0.34418	0.0796	0.43909	-0.151
Mof_N 	N 	0.30971	0.08966	0.42975	-0.15
Mof_N 	N 	0.32613	0.06113	0.41237	-0.151
Mof_N 	N 	0.37815	0.02568	0.39925	-0.229
Mof_N 	N 	0.40762	0.00119	0.37324	-0.264
Mof_N 	N 	0.37476	0.97991	0.40103	-0.229
Mof_N 	N 	0.40572	0.92169	0.43603	-0.152
Mof_S 	S 	0.42188	0.08696	0.45537	-0.059
Mof_S 	S 	0.45072	0.99784	0.37654	-0.062
Mof_C 	C 	0.28011	0.15972	0.85258	0.033
Mof_H 	H 	0.2827	0.1476	0.8444	0.014
Mof_C 	C 	0.2925	0.17742	0.84914	-0.046
Mof_C 	C 	0.28862	0.19523	0.86072	0.006
Mof_H 	H 	0.297	0.2074	0.8592	0.038
Mof_C 	C 	0.2719	0.19486	0.87482	-0.1
Mof_H 	H 	0.2682	0.2071	0.8824	0.066
Mof_C 	C 	0.26093	0.17686	0.87758	0.061
Mof_H 	H 	0.2499	0.1768	0.8876	-0
Mof_C 	C 	0.40467	0.14774	0.78338	0.098
Mof_C 	C 	0.33157	0.11148	0.76321	0.057
Mof_H 	H 	0.3329	0.1006	0.7532	-0
Mof_C 	C 	0.31334	0.1126	0.77462	-0.096
Mof_H 	H 	0.3022	0.1031	0.772	0.063
Mof_C 	C 	0.31142	0.12779	0.79007	0.004
Mof_H 	H 	0.2993	0.1284	0.7987	0.038
Mof_C 	C 	0.32774	0.1421	0.79249	-0.045
Mof_C 	C 	0.34528	0.14026	0.78001	0.031
Mof_H 	H 	0.3562	0.1502	0.7817	0.017
Mof_C 	C 	0.32718	0.15868	0.80877	0.134
Mof_C 	C 	0.3103	0.17567	0.83461	0.133
Mof_C 	C 	0.34316	0.18511	0.82589	0.133
Mof_C 	C 	0.36178	0.21232	0.84601	0.039
Mof_H 	H 	0.3494	0.2137	0.8542	0.012
Mof_C 	C 	0.36185	0.19779	0.82952	-0.051
Mof_C 	C 	0.3796	0.19589	0.81735	0.009
Mof_H 	H 	0.3803	0.186	0.8062	0.037
Mof_C 	C 	0.39642	0.20891	0.82192	-0.1
Mof_H 	H 	0.4087	0.2084	0.8136	0.067
Mof_C 	C 	0.39511	0.22254	0.8386	0.061
Mof_H 	H 	0.4069	0.2311	0.8416	0.001
Mof_C 	C 	0.36138	0.26763	0.83301	0.063
Mof_H 	H 	0.3511	0.257	0.8341	-0.001
Mof_C 	C 	0.36166	0.2794	0.8154	-0.103
Mof_H 	H 	0.3519	0.2769	0.8045	0.068
Mof_C 	C 	0.37667	0.2953	0.8136	0.009
Mof_H 	H 	0.3771	0.3041	0.8016	0.037
Mof_C 	C 	0.39076	0.29783	0.82984	-0.052
Mof_C 	C 	0.38915	0.28502	0.84731	0.042
Mof_H 	H 	0.3987	0.287	0.8585	0.011
Mof_C 	C 	0.40698	0.31441	0.82908	0.135
Mof_C 	C 	0.42522	0.25059	0.87611	0.108
Mof_N 	N 	0.26475	0.15904	0.86692	-0.223
Mof_N 	N 	0.39301	0.13715	0.77446	-0.261
Mof_N 	N 	0.34758	0.12497	0.76551	-0.224
Mof_N 	N 	0.34418	0.1704	0.81091	-0.151
Mof_N 	N 	0.30971	0.16034	0.82025	-0.15
Mof_N 	N 	0.32613	0.18887	0.83763	-0.151
Mof_N 	N 	0.37815	0.22432	0.85075	-0.229
Mof_N 	N 	0.40762	0.24881	0.87676	-0.264
Mof_N 	N 	0.37476	0.27009	0.84897	-0.229
Mof_N 	N 	0.40572	0.32831	0.81397	-0.152
Mof_S 	S 	0.42188	0.16304	0.79463	-0.059
Mof_S 	S 	0.45072	0.25216	0.87346	-0.062
Mof_C 	C 	0.28011	0.65972	0.35258	0.033
Mof_H 	H 	0.2827	0.6476	0.3444	0.014
Mof_C 	C 	0.2925	0.67742	0.34914	-0.046
Mof_C 	C 	0.28862	0.69523	0.36072	0.006
Mof_H 	H 	0.297	0.7074	0.3592	0.038
Mof_C 	C 	0.2719	0.69486	0.37482	-0.1
Mof_H 	H 	0.2682	0.7071	0.3824	0.066
Mof_C 	C 	0.26093	0.67686	0.37758	0.061
Mof_H 	H 	0.2499	0.6768	0.3876	-0
Mof_C 	C 	0.40467	0.64774	0.28338	0.098
Mof_C 	C 	0.33157	0.61148	0.26321	0.057
Mof_H 	H 	0.3329	0.6006	0.2532	-0
Mof_C 	C 	0.31334	0.6126	0.27462	-0.096
Mof_H 	H 	0.3022	0.6031	0.272	0.063
Mof_C 	C 	0.31142	0.62779	0.29007	0.004
Mof_H 	H 	0.2993	0.6284	0.2987	0.038
Mof_C 	C 	0.32774	0.6421	0.29249	-0.045
Mof_C 	C 	0.34528	0.64026	0.28001	0.031
Mof_H 	H 	0.3562	0.6502	0.2817	0.017
Mof_C 	C 	0.32718	0.65868	0.30877	0.134
Mof_C 	C 	0.3103	0.67567	0.33461	0.133
Mof_C 	C 	0.34316	0.68511	0.32589	0.133
Mof_C 	C 	0.36178	0.71232	0.34601	0.039
Mof_H 	H 	0.3494	0.7137	0.3542	0.012
Mof_C 	C 	0.36185	0.69779	0.32952	-0.051
Mof_C 	C 	0.3796	0.69589	0.31735	0.009
Mof_H 	H 	0.3803	0.686	0.3062	0.037
Mof_C 	C 	0.39642	0.70891	0.32192	-0.1
Mof_H 	H 	0.4087	0.7084	0.3136	0.067
Mof_C 	C 	0.39511	0.72254	0.3386	0.061
Mof_H 	H 	0.4069	0.7311	0.3416	0.001
Mof_C 	C 	0.36138	0.76763	0.33301	0.063
Mof_H 	H 	0.3511	0.757	0.3341	-0.001
Mof_C 	C 	0.36166	0.7794	0.3154	-0.103
Mof_H 	H 	0.3519	0.7769	0.3045	0.068
Mof_C 	C 	0.37667	0.7953	0.3136	0.009
Mof_H 	H 	0.3771	0.8041	0.3016	0.037
Mof_C 	C 	0.39076	0.79783	0.32984	-0.052
Mof_C 	C 	0.38915	0.78502	0.34731	0.042
Mof_H 	H 	0.3987	0.787	0.3585	0.011
Mof_C 	C 	0.40698	0.81441	0.32908	0.135
Mof_C 	C 	0.42522	0.75059	0.37611	0.108
Mof_N 	N 	0.26475	0.65904	0.36692	-0.223
Mof_N 	N 	0.39301	0.63715	0.27446	-0.261
Mof_N 	N 	0.34758	0.62497	0.26551	-0.224
Mof_N 	N 	0.34418	0.6704	0.31091	-0.151
Mof_N 	N 	0.30971	0.66034	0.32025	-0.15
Mof_N 	N 	0.32613	0.68887	0.33763	-0.151
Mof_N 	N 	0.37815	0.72432	0.35075	-0.229
Mof_N 	N 	0.40762	0.74881	0.37676	-0.264
Mof_N 	N 	0.37476	0.77009	0.34897	-0.229
Mof_N 	N 	0.40572	0.82831	0.31397	-0.152
Mof_S 	S 	0.42188	0.66304	0.29463	-0.059
Mof_S 	S 	0.45072	0.75216	0.37346	-0.062
Mof_C 	C 	0.78011	0.15972	0.35258	0.033
Mof_H 	H 	0.7827	0.1476	0.3444	0.014
Mof_C 	C 	0.7925	0.17742	0.34914	-0.046
Mof_C 	C 	0.78862	0.19523	0.36072	0.006
Mof_H 	H 	0.797	0.2074	0.3592	0.038
Mof_C 	C 	0.7719	0.19486	0.37482	-0.1
Mof_H 	H 	0.7682	0.2071	0.3824	0.066
Mof_C 	C 	0.76093	0.17686	0.37758	0.061
Mof_H 	H 	0.7499	0.1768	0.3876	-0
Mof_C 	C 	0.90467	0.14774	0.28338	0.098
Mof_C 	C 	0.83157	0.11148	0.26321	0.057
Mof_H 	H 	0.8329	0.1006	0.2532	-0
Mof_C 	C 	0.81334	0.1126	0.27462	-0.096
Mof_H 	H 	0.8022	0.1031	0.272	0.063
Mof_C 	C 	0.81142	0.12779	0.29007	0.004
Mof_H 	H 	0.7993	0.1284	0.2987	0.038
Mof_C 	C 	0.82774	0.1421	0.29249	-0.045
Mof_C 	C 	0.84528	0.14026	0.28001	0.031
Mof_H 	H 	0.8562	0.1502	0.2817	0.017
Mof_C 	C 	0.82718	0.15868	0.30877	0.134
Mof_C 	C 	0.8103	0.17567	0.33461	0.133
Mof_C 	C 	0.84316	0.18511	0.32589	0.133
Mof_C 	C 	0.86178	0.21232	0.34601	0.039
Mof_H 	H 	0.8494	0.2137	0.3542	0.012
Mof_C 	C 	0.86185	0.19779	0.32952	-0.051
Mof_C 	C 	0.8796	0.19589	0.31735	0.009
Mof_H 	H 	0.8803	0.186	0.3062	0.037
Mof_C 	C 	0.89642	0.20891	0.32192	-0.1
Mof_H 	H 	0.9087	0.2084	0.3136	0.067
Mof_C 	C 	0.89511	0.22254	0.3386	0.061
Mof_H 	H 	0.9069	0.2311	0.3416	0.001
Mof_C 	C 	0.86138	0.26763	0.33301	0.063
Mof_H 	H 	0.8511	0.257	0.3341	-0.001
Mof_C 	C 	0.86166	0.2794	0.3154	-0.103
Mof_H 	H 	0.8519	0.2769	0.3045	0.068
Mof_C 	C 	0.87667	0.2953	0.3136	0.009
Mof_H 	H 	0.8771	0.3041	0.3016	0.037
Mof_C 	C 	0.89076	0.29783	0.32984	-0.052
Mof_C 	C 	0.88915	0.28502	0.34731	0.042
Mof_H 	H 	0.8987	0.287	0.3585	0.011
Mof_C 	C 	0.90698	0.31441	0.32908	0.135
Mof_C 	C 	0.92522	0.25059	0.37611	0.108
Mof_N 	N 	0.76475	0.15904	0.36692	-0.223
Mof_N 	N 	0.89301	0.13715	0.27446	-0.261
Mof_N 	N 	0.84758	0.12497	0.26551	-0.224
Mof_N 	N 	0.84418	0.1704	0.31091	-0.151
Mof_N 	N 	0.80971	0.16034	0.32025	-0.15
Mof_N 	N 	0.82613	0.18887	0.33763	-0.151
Mof_N 	N 	0.87815	0.22432	0.35075	-0.229
Mof_N 	N 	0.90762	0.24881	0.37676	-0.264
Mof_N 	N 	0.87476	0.27009	0.34897	-0.229
Mof_N 	N 	0.90572	0.32831	0.31397	-0.152
Mof_S 	S 	0.92188	0.16304	0.29463	-0.059
Mof_S 	S 	0.95072	0.25216	0.37346	-0.062
Mof_C 	C 	0.78011	0.65972	0.85258	0.033
Mof_H 	H 	0.7827	0.6476	0.8444	0.014
Mof_C 	C 	0.7925	0.67742	0.84914	-0.046
Mof_C 	C 	0.78862	0.69523	0.86072	0.006
Mof_H 	H 	0.797	0.7074	0.8592	0.038
Mof_C 	C 	0.7719	0.69486	0.87482	-0.1
Mof_H 	H 	0.7682	0.7071	0.8824	0.066
Mof_C 	C 	0.76093	0.67686	0.87758	0.061
Mof_H 	H 	0.7499	0.6768	0.8876	-0
Mof_C 	C 	0.90467	0.64774	0.78338	0.098
Mof_C 	C 	0.83157	0.61148	0.76321	0.057
Mof_H 	H 	0.8329	0.6006	0.7532	-0
Mof_C 	C 	0.81334	0.6126	0.77462	-0.096
Mof_H 	H 	0.8022	0.6031	0.772	0.063
Mof_C 	C 	0.81142	0.62779	0.79007	0.004
Mof_H 	H 	0.7993	0.6284	0.7987	0.038
Mof_C 	C 	0.82774	0.6421	0.79249	-0.045
Mof_C 	C 	0.84528	0.64026	0.78001	0.031
Mof_H 	H 	0.8562	0.6502	0.7817	0.017
Mof_C 	C 	0.82718	0.65868	0.80877	0.134
Mof_C 	C 	0.8103	0.67567	0.83461	0.133
Mof_C 	C 	0.84316	0.68511	0.82589	0.133
Mof_C 	C 	0.86178	0.71232	0.84601	0.039
Mof_H 	H 	0.8494	0.7137	0.8542	0.012
Mof_C 	C 	0.86185	0.69779	0.82952	-0.051
Mof_C 	C 	0.8796	0.69589	0.81735	0.009
Mof_H 	H 	0.8803	0.686	0.8062	0.037
Mof_C 	C 	0.89642	0.70891	0.82192	-0.1
Mof_H 	H 	0.9087	0.7084	0.8136	0.067
Mof_C 	C 	0.89511	0.72254	0.8386	0.061
Mof_H 	H 	0.9069	0.7311	0.8416	0.001
Mof_C 	C 	0.86138	0.76763	0.83301	0.063
Mof_H 	H 	0.8511	0.757	0.8341	-0.001
Mof_C 	C 	0.86166	0.7794	0.8154	-0.103
Mof_H 	H 	0.8519	0.7769	0.8045	0.068
Mof_C 	C 	0.87667	0.7953	0.8136	0.009
Mof_H 	H 	0.8771	0.8041	0.8016	0.037
Mof_C 	C 	0.89076	0.79783	0.82984	-0.052
Mof_C 	C 	0.88915	0.78502	0.84731	0.042
Mof_H 	H 	0.8987	0.787	0.8585	0.011
Mof_C 	C 	0.90698	0.81441	0.82908	0.135
Mof_C 	C 	0.92522	0.75059	0.87611	0.108
Mof_N 	N 	0.76475	0.65904	0.86692	-0.223
Mof_N 	N 	0.89301	0.63715	0.77446	-0.261
Mof_N 	N 	0.84758	0.62497	0.76551	-0.224
Mof_N 	N 	0.84418	0.6704	0.81091	-0.151
Mof_N 	N 	0.80971	0.66034	0.82025	-0.15
Mof_N 	N 	0.82613	0.68887	0.83763	-0.151
Mof_N 	N 	0.87815	0.72432	0.85075	-0.229
Mof_N 	N 	0.90762	0.74881	0.87676	-0.264
Mof_N 	N 	0.87476	0.77009	0.84897	-0.229
Mof_N 	N 	0.90572	0.82831	0.81397	-0.152
Mof_S 	S 	0.92188	0.66304	0.79463	-0.059
Mof_S 	S 	0.95072	0.75216	0.87346	-0.062
Mof_C 	C 	0.96989	0.65972	0.89742	0.033
Mof_H 	H 	0.9673	0.6476	0.9056	0.014
Mof_C 	C 	0.9575	0.67742	0.90086	-0.046
Mof_C 	C 	0.96138	0.69523	0.88928	0.006
Mof_H 	H 	0.953	0.7074	0.8908	0.038
Mof_C 	C 	0.9781	0.69486	0.87518	-0.1
Mof_H 	H 	0.9818	0.7071	0.8676	0.066
Mof_C 	C 	0.98907	0.67686	0.87242	0.061
Mof_H 	H 	0.0001	0.6768	0.8624	-0
Mof_C 	C 	0.84533	0.64774	0.96662	0.098
Mof_C 	C 	0.91843	0.61148	0.98679	0.057
Mof_H 	H 	0.9171	0.6006	0.9968	-0
Mof_C 	C 	0.93666	0.6126	0.97538	-0.096
Mof_H 	H 	0.9478	0.6031	0.978	0.063
Mof_C 	C 	0.93858	0.62779	0.95993	0.004
Mof_H 	H 	0.9507	0.6284	0.9513	0.038
Mof_C 	C 	0.92226	0.6421	0.95751	-0.045
Mof_C 	C 	0.90472	0.64026	0.96999	0.031
Mof_H 	H 	0.8938	0.6502	0.9683	0.017
Mof_C 	C 	0.92282	0.65868	0.94123	0.134
Mof_C 	C 	0.9397	0.67567	0.91539	0.133
Mof_C 	C 	0.90684	0.68511	0.92411	0.133
Mof_C 	C 	0.88822	0.71232	0.90399	0.039
Mof_H 	H 	0.9006	0.7137	0.8958	0.012
Mof_C 	C 	0.88815	0.69779	0.92048	-0.051
Mof_C 	C 	0.8704	0.69589	0.93265	0.009
Mof_H 	H 	0.8697	0.686	0.9438	0.037
Mof_C 	C 	0.85358	0.70891	0.92808	-0.1
Mof_H 	H 	0.8413	0.7084	0.9364	0.067
Mof_C 	C 	0.85489	0.72254	0.9114	0.061
Mof_H 	H 	0.8431	0.7311	0.9084	0.001
Mof_C 	C 	0.88862	0.76763	0.91699	0.063
Mof_H 	H 	0.8989	0.757	0.9159	-0.001
Mof_C 	C 	0.88834	0.7794	0.9346	-0.103
Mof_H 	H 	0.8981	0.7769	0.9455	0.068
Mof_C 	C 	0.87333	0.7953	0.9364	0.009
Mof_H 	H 	0.8729	0.8041	0.9484	0.037
Mof_C 	C 	0.85924	0.79783	0.92016	-0.052
Mof_C 	C 	0.86085	0.78502	0.90269	0.042
Mof_H 	H 	0.8513	0.787	0.8915	0.011
Mof_C 	C 	0.84302	0.81441	0.92092	0.135
Mof_C 	C 	0.82478	0.75059	0.87389	0.108
Mof_N 	N 	0.98525	0.65904	0.88308	-0.223
Mof_N 	N 	0.85699	0.63715	0.97554	-0.261
Mof_N 	N 	0.90242	0.62497	0.98449	-0.224
Mof_N 	N 	0.90582	0.6704	0.93909	-0.151
Mof_N 	N 	0.94029	0.66034	0.92975	-0.15
Mof_N 	N 	0.92387	0.68887	0.91237	-0.151
Mof_N 	N 	0.87185	0.72432	0.89925	-0.229
Mof_N 	N 	0.84238	0.74881	0.87324	-0.264
Mof_N 	N 	0.87524	0.77009	0.90103	-0.229
Mof_N 	N 	0.84428	0.82831	0.93603	-0.152
Mof_S 	S 	0.82812	0.66304	0.95537	-0.059
Mof_S 	S 	0.79928	0.75216	0.87654	-0.062
Mof_C 	C 	0.96989	0.15972	0.39742	0.033
Mof_H 	H 	0.9673	0.1476	0.4056	0.014
Mof_C 	C 	0.9575	0.17742	0.40086	-0.046
Mof_C 	C 	0.96138	0.19523	0.38928	0.006
Mof_H 	H 	0.953	0.2074	0.3908	0.038
Mof_C 	C 	0.9781	0.19486	0.37518	-0.1
Mof_H 	H 	0.9818	0.2071	0.3676	0.066
Mof_C 	C 	0.98907	0.17686	0.37242	0.061
Mof_H 	H 	0.0001	0.1768	0.3624	-0
Mof_C 	C 	0.84533	0.14774	0.46662	0.098
Mof_C 	C 	0.91843	0.11148	0.48679	0.057
Mof_H 	H 	0.9171	0.1006	0.4968	-0
Mof_C 	C 	0.93666	0.1126	0.47538	-0.096
Mof_H 	H 	0.9478	0.1031	0.478	0.063
Mof_C 	C 	0.93858	0.12779	0.45993	0.004
Mof_H 	H 	0.9507	0.1284	0.4513	0.038
Mof_C 	C 	0.92226	0.1421	0.45751	-0.045
Mof_C 	C 	0.90472	0.14026	0.46999	0.031
Mof_H 	H 	0.8938	0.1502	0.4683	0.017
Mof_C 	C 	0.92282	0.15868	0.44123	0.134
Mof_C 	C 	0.9397	0.17567	0.41539	0.133
Mof_C 	C 	0.90684	0.18511	0.42411	0.133
Mof_C 	C 	0.88822	0.21232	0.40399	0.039
Mof_H 	H 	0.9006	0.2137	0.3958	0.012
Mof_C 	C 	0.88815	0.19779	0.42048	-0.051
Mof_C 	C 	0.8704	0.19589	0.43265	0.009
Mof_H 	H 	0.8697	0.186	0.4438	0.037
Mof_C 	C 	0.85358	0.20891	0.42808	-0.1
Mof_H 	H 	0.8413	0.2084	0.4364	0.067
Mof_C 	C 	0.85489	0.22254	0.4114	0.061
Mof_H 	H 	0.8431	0.2311	0.4084	0.001
Mof_C 	C 	0.88862	0.26763	0.41699	0.063
Mof_H 	H 	0.8989	0.257	0.4159	-0.001
Mof_C 	C 	0.88834	0.2794	0.4346	-0.103
Mof_H 	H 	0.8981	0.2769	0.4455	0.068
Mof_C 	C 	0.87333	0.2953	0.4364	0.009
Mof_H 	H 	0.8729	0.3041	0.4484	0.037
Mof_C 	C 	0.85924	0.29783	0.42016	-0.052
Mof_C 	C 	0.86085	0.28502	0.40269	0.042
Mof_H 	H 	0.8513	0.287	0.3915	0.011
Mof_C 	C 	0.84302	0.31441	0.42092	0.135
Mof_C 	C 	0.82478	0.25059	0.37389	0.108
Mof_N 	N 	0.98525	0.15904	0.38308	-0.223
Mof_N 	N 	0.85699	0.13715	0.47554	-0.261
Mof_N 	N 	0.90242	0.12497	0.48449	-0.224
Mof_N 	N 	0.90582	0.1704	0.43909	-0.151
Mof_N 	N 	0.94029	0.16034	0.42975	-0.15
Mof_N 	N 	0.92387	0.18887	0.41237	-0.151
Mof_N 	N 	0.87185	0.22432	0.39925	-0.229
Mof_N 	N 	0.84238	0.24881	0.37324	-0.264
Mof_N 	N 	0.87524	0.27009	0.40103	-0.229
Mof_N 	N 	0.84428	0.32831	0.43603	-0.152
Mof_S 	S 	0.82812	0.16304	0.45537	-0.059
Mof_S 	S 	0.79928	0.25216	0.37654	-0.062
Mof_C 	C 	0.46989	0.65972	0.39742	0.033
Mof_H 	H 	0.4673	0.6476	0.4056	0.014
Mof_C 	C 	0.4575	0.67742	0.40086	-0.046
Mof_C 	C 	0.46138	0.69523	0.38928	0.006
Mof_H 	H 	0.453	0.7074	0.3908	0.038
Mof_C 	C 	0.4781	0.69486	0.37518	-0.1
Mof_H 	H 	0.4818	0.7071	0.3676	0.066
Mof_C 	C 	0.48907	0.67686	0.37242	0.061
Mof_H 	H 	0.5001	0.6768	0.3624	-0
Mof_C 	C 	0.34533	0.64774	0.46662	0.098
Mof_C 	C 	0.41843	0.61148	0.48679	0.057
Mof_H 	H 	0.4171	0.6006	0.4968	-0
Mof_C 	C 	0.43666	0.6126	0.47538	-0.096
Mof_H 	H 	0.4478	0.6031	0.478	0.063
Mof_C 	C 	0.43858	0.62779	0.45993	0.004
Mof_H 	H 	0.4507	0.6284	0.4513	0.038
Mof_C 	C 	0.42226	0.6421	0.45751	-0.045
Mof_C 	C 	0.40472	0.64026	0.46999	0.031
Mof_H 	H 	0.3938	0.6502	0.4683	0.017
Mof_C 	C 	0.42282	0.65868	0.44123	0.134
Mof_C 	C 	0.4397	0.67567	0.41539	0.133
Mof_C 	C 	0.40684	0.68511	0.42411	0.133
Mof_C 	C 	0.38822	0.71232	0.40399	0.039
Mof_H 	H 	0.4006	0.7137	0.3958	0.012
Mof_C 	C 	0.38815	0.69779	0.42048	-0.051
Mof_C 	C 	0.3704	0.69589	0.43265	0.009
Mof_H 	H 	0.3697	0.686	0.4438	0.037
Mof_C 	C 	0.35358	0.70891	0.42808	-0.1
Mof_H 	H 	0.3413	0.7084	0.4364	0.067
Mof_C 	C 	0.35489	0.72254	0.4114	0.061
Mof_H 	H 	0.3431	0.7311	0.4084	0.001
Mof_C 	C 	0.38862	0.76763	0.41699	0.063
Mof_H 	H 	0.3989	0.757	0.4159	-0.001
Mof_C 	C 	0.38834	0.7794	0.4346	-0.103
Mof_H 	H 	0.3981	0.7769	0.4455	0.068
Mof_C 	C 	0.37333	0.7953	0.4364	0.009
Mof_H 	H 	0.3729	0.8041	0.4484	0.037
Mof_C 	C 	0.35924	0.79783	0.42016	-0.052
Mof_C 	C 	0.36085	0.78502	0.40269	0.042
Mof_H 	H 	0.3513	0.787	0.3915	0.011
Mof_C 	C 	0.34302	0.81441	0.42092	0.135
Mof_C 	C 	0.32478	0.75059	0.37389	0.108
Mof_N 	N 	0.48525	0.65904	0.38308	-0.223
Mof_N 	N 	0.35699	0.63715	0.47554	-0.261
Mof_N 	N 	0.40242	0.62497	0.48449	-0.224
Mof_N 	N 	0.40582	0.6704	0.43909	-0.151
Mof_N 	N 	0.44029	0.66034	0.42975	-0.15
Mof_N 	N 	0.42387	0.68887	0.41237	-0.151
Mof_N 	N 	0.37185	0.72432	0.39925	-0.229
Mof_N 	N 	0.34238	0.74881	0.37324	-0.264
Mof_N 	N 	0.37524	0.77009	0.40103	-0.229
Mof_N 	N 	0.34428	0.82831	0.43603	-0.152
Mof_S 	S 	0.32812	0.66304	0.45537	-0.059
Mof_S 	S 	0.29928	0.75216	0.37654	-0.062
Mof_C 	C 	0.46989	0.15972	0.89742	0.033
Mof_H 	H 	0.4673	0.1476	0.9056	0.014
Mof_C 	C 	0.4575	0.17742	0.90086	-0.046
Mof_C 	C 	0.46138	0.19523	0.88928	0.006
Mof_H 	H 	0.453	0.2074	0.8908	0.038
Mof_C 	C 	0.4781	0.19486	0.87518	-0.1
Mof_H 	H 	0.4818	0.2071	0.8676	0.066
Mof_C 	C 	0.48907	0.17686	0.87242	0.061
Mof_H 	H 	0.5001	0.1768	0.8624	-0
Mof_C 	C 	0.34533	0.14774	0.96662	0.098
Mof_C 	C 	0.41843	0.11148	0.98679	0.057
Mof_H 	H 	0.4171	0.1006	0.9968	-0
Mof_C 	C 	0.43666	0.1126	0.97538	-0.096
Mof_H 	H 	0.4478	0.1031	0.978	0.063
Mof_C 	C 	0.43858	0.12779	0.95993	0.004
Mof_H 	H 	0.4507	0.1284	0.9513	0.038
Mof_C 	C 	0.42226	0.1421	0.95751	-0.045
Mof_C 	C 	0.40472	0.14026	0.96999	0.031
Mof_H 	H 	0.3938	0.1502	0.9683	0.017
Mof_C 	C 	0.42282	0.15868	0.94123	0.134
Mof_C 	C 	0.4397	0.17567	0.91539	0.133
Mof_C 	C 	0.40684	0.18511	0.92411	0.133
Mof_C 	C 	0.38822	0.21232	0.90399	0.039
Mof_H 	H 	0.4006	0.2137	0.8958	0.012
Mof_C 	C 	0.38815	0.19779	0.92048	-0.051
Mof_C 	C 	0.3704	0.19589	0.93265	0.009
Mof_H 	H 	0.3697	0.186	0.9438	0.037
Mof_C 	C 	0.35358	0.20891	0.92808	-0.1
Mof_H 	H 	0.3413	0.2084	0.9364	0.067
Mof_C 	C 	0.35489	0.22254	0.9114	0.061
Mof_H 	H 	0.3431	0.2311	0.9084	0.001
Mof_C 	C 	0.38862	0.26763	0.91699	0.063
Mof_H 	H 	0.3989	0.257	0.9159	-0.001
Mof_C 	C 	0.38834	0.2794	0.9346	-0.103
Mof_H 	H 	0.3981	0.2769	0.9455	0.068
Mof_C 	C 	0.37333	0.2953	0.9364	0.009
Mof_H 	H 	0.3729	0.3041	0.9484	0.037
Mof_C 	C 	0.35924	0.29783	0.92016	-0.052
Mof_C 	C 	0.36085	0.28502	0.90269	0.042
Mof_H 	H 	0.3513	0.287	0.8915	0.011
Mof_C 	C 	0.34302	0.31441	0.92092	0.135
Mof_C 	C 	0.32478	0.25059	0.87389	0.108
Mof_N 	N 	0.48525	0.15904	0.88308	-0.223
Mof_N 	N 	0.35699	0.13715	0.97554	-0.261
Mof_N 	N 	0.40242	0.12497	0.98449	-0.224
Mof_N 	N 	0.40582	0.1704	0.93909	-0.151
Mof_N 	N 	0.44029	0.16034	0.92975	-0.15
Mof_N 	N 	0.42387	0.18887	0.91237	-0.151
Mof_N 	N 	0.37185	0.22432	0.89925	-0.229
Mof_N 	N 	0.34238	0.24881	0.87324	-0.264
Mof_N 	N 	0.37524	0.27009	0.90103	-0.229
Mof_N 	N 	0.34428	0.32831	0.93603	-0.152
Mof_S 	S 	0.32812	0.16304	0.95537	-0.059
Mof_S 	S 	0.29928	0.25216	0.87654	-0.062
Mof_C 	C 	0.46989	0.09028	0.35258	0.033
Mof_H 	H 	0.4673	0.1024	0.3444	0.014
Mof_C 	C 	0.4575	0.07258	0.34914	-0.046
Mof_C 	C 	0.46138	0.05477	0.36072	0.006
Mof_H 	H 	0.453	0.0426	0.3592	0.038
Mof_C 	C 	0.4781	0.05514	0.37482	-0.1
Mof_H 	H 	0.4818	0.0429	0.3824	0.066
Mof_C 	C 	0.48907	0.07314	0.37758	0.061
Mof_H 	H 	0.5001	0.0732	0.3876	-0
Mof_C 	C 	0.34533	0.10226	0.28338	0.098
Mof_C 	C 	0.41843	0.13852	0.26321	0.057
Mof_H 	H 	0.4171	0.1494	0.2532	-0
Mof_C 	C 	0.43666	0.1374	0.27462	-0.096
Mof_H 	H 	0.4478	0.1469	0.272	0.063
Mof_C 	C 	0.43858	0.12221	0.29007	0.004
Mof_H 	H 	0.4507	0.1216	0.2987	0.038
Mof_C 	C 	0.42226	0.1079	0.29249	-0.045
Mof_C 	C 	0.40472	0.10974	0.28001	0.031
Mof_H 	H 	0.3938	0.0998	0.2817	0.017
Mof_C 	C 	0.42282	0.09132	0.30877	0.134
Mof_C 	C 	0.4397	0.07433	0.33461	0.133
Mof_C 	C 	0.40684	0.06489	0.32589	0.133
Mof_C 	C 	0.38822	0.03768	0.34601	0.039
Mof_H 	H 	0.4006	0.0363	0.3542	0.012
Mof_C 	C 	0.38815	0.05221	0.32952	-0.051
Mof_C 	C 	0.3704	0.05411	0.31735	0.009
Mof_H 	H 	0.3697	0.064	0.3062	0.037
Mof_C 	C 	0.35358	0.04109	0.32192	-0.1
Mof_H 	H 	0.3413	0.0416	0.3136	0.067
Mof_C 	C 	0.35489	0.02746	0.3386	0.061
Mof_H 	H 	0.3431	0.0189	0.3416	0.001
Mof_C 	C 	0.38862	0.98237	0.33301	0.063
Mof_H 	H 	0.3989	0.993	0.3341	-0.001
Mof_C 	C 	0.38834	0.9706	0.3154	-0.103
Mof_H 	H 	0.3981	0.9731	0.3045	0.068
Mof_C 	C 	0.37333	0.9547	0.3136	0.009
Mof_H 	H 	0.3729	0.9459	0.3016	0.037
Mof_C 	C 	0.35924	0.95217	0.32984	-0.052
Mof_C 	C 	0.36085	0.96498	0.34731	0.042
Mof_H 	H 	0.3513	0.963	0.3585	0.011
Mof_C 	C 	0.34302	0.93559	0.32908	0.135
Mof_C 	C 	0.32478	0.99941	0.37611	0.108
Mof_N 	N 	0.48525	0.09096	0.36692	-0.223
Mof_N 	N 	0.35699	0.11285	0.27446	-0.261
Mof_N 	N 	0.40242	0.12503	0.26551	-0.224
Mof_N 	N 	0.40582	0.0796	0.31091	-0.151
Mof_N 	N 	0.44029	0.08966	0.32025	-0.15
Mof_N 	N 	0.42387	0.06113	0.33763	-0.151
Mof_N 	N 	0.37185	0.02568	0.35075	-0.229
Mof_N 	N 	0.34238	0.00119	0.37676	-0.264
Mof_N 	N 	0.37524	0.97991	0.34897	-0.229
Mof_N 	N 	0.34428	0.92169	0.31397	-0.152
Mof_S 	S 	0.32812	0.08696	0.29463	-0.059
Mof_S 	S 	0.29928	0.99784	0.37346	-0.062
Mof_C 	C 	0.46989	0.59028	0.85258	0.033
Mof_H 	H 	0.4673	0.6024	0.8444	0.014
Mof_C 	C 	0.4575	0.57258	0.84914	-0.046
Mof_C 	C 	0.46138	0.55477	0.86072	0.006
Mof_H 	H 	0.453	0.5426	0.8592	0.038
Mof_C 	C 	0.4781	0.55514	0.87482	-0.1
Mof_H 	H 	0.4818	0.5429	0.8824	0.066
Mof_C 	C 	0.48907	0.57314	0.87758	0.061
Mof_H 	H 	0.5001	0.5732	0.8876	-0
Mof_C 	C 	0.34533	0.60226	0.78338	0.098
Mof_C 	C 	0.41843	0.63852	0.76321	0.057
Mof_H 	H 	0.4171	0.6494	0.7532	-0
Mof_C 	C 	0.43666	0.6374	0.77462	-0.096
Mof_H 	H 	0.4478	0.6469	0.772	0.063
Mof_C 	C 	0.43858	0.62221	0.79007	0.004
Mof_H 	H 	0.4507	0.6216	0.7987	0.038
Mof_C 	C 	0.42226	0.6079	0.79249	-0.045
Mof_C 	C 	0.40472	0.60974	0.78001	0.031
Mof_H 	H 	0.3938	0.5998	0.7817	0.017
Mof_C 	C 	0.42282	0.59132	0.80877	0.134
Mof_C 	C 	0.4397	0.57433	0.83461	0.133
Mof_C 	C 	0.40684	0.56489	0.82589	0.133
Mof_C 	C 	0.38822	0.53768	0.84601	0.039
Mof_H 	H 	0.4006	0.5363	0.8542	0.012
Mof_C 	C 	0.38815	0.55221	0.82952	-0.051
Mof_C 	C 	0.3704	0.55411	0.81735	0.009
Mof_H 	H 	0.3697	0.564	0.8062	0.037
Mof_C 	C 	0.35358	0.54109	0.82192	-0.1
Mof_H 	H 	0.3413	0.5416	0.8136	0.067
Mof_C 	C 	0.35489	0.52746	0.8386	0.061
Mof_H 	H 	0.3431	0.5189	0.8416	0.001
Mof_C 	C 	0.38862	0.48237	0.83301	0.063
Mof_H 	H 	0.3989	0.493	0.8341	-0.001
Mof_C 	C 	0.38834	0.4706	0.8154	-0.103
Mof_H 	H 	0.3981	0.4731	0.8045	0.068
Mof_C 	C 	0.37333	0.4547	0.8136	0.009
Mof_H 	H 	0.3729	0.4459	0.8016	0.037
Mof_C 	C 	0.35924	0.45217	0.82984	-0.052
Mof_C 	C 	0.36085	0.46498	0.84731	0.042
Mof_H 	H 	0.3513	0.463	0.8585	0.011
Mof_C 	C 	0.34302	0.43559	0.82908	0.135
Mof_C 	C 	0.32478	0.49941	0.87611	0.108
Mof_N 	N 	0.48525	0.59096	0.86692	-0.223
Mof_N 	N 	0.35699	0.61285	0.77446	-0.261
Mof_N 	N 	0.40242	0.62503	0.76551	-0.224
Mof_N 	N 	0.40582	0.5796	0.81091	-0.151
Mof_N 	N 	0.44029	0.58966	0.82025	-0.15
Mof_N 	N 	0.42387	0.56113	0.83763	-0.151
Mof_N 	N 	0.37185	0.52568	0.85075	-0.229
Mof_N 	N 	0.34238	0.50119	0.87676	-0.264
Mof_N 	N 	0.37524	0.47991	0.84897	-0.229
Mof_N 	N 	0.34428	0.42169	0.81397	-0.152
Mof_S 	S 	0.32812	0.58696	0.79463	-0.059
Mof_S 	S 	0.29928	0.49784	0.87346	-0.062
Mof_C 	C 	0.96989	0.09028	0.85258	0.033
Mof_H 	H 	0.9673	0.1024	0.8444	0.014
Mof_C 	C 	0.9575	0.07258	0.84914	-0.046
Mof_C 	C 	0.96138	0.05477	0.86072	0.006
Mof_H 	H 	0.953	0.0426	0.8592	0.038
Mof_C 	C 	0.9781	0.05514	0.87482	-0.1
Mof_H 	H 	0.9818	0.0429	0.8824	0.066
Mof_C 	C 	0.98907	0.07314	0.87758	0.061
Mof_H 	H 	0.0001	0.0732	0.8876	-0
Mof_C 	C 	0.84533	0.10226	0.78338	0.098
Mof_C 	C 	0.91843	0.13852	0.76321	0.057
Mof_H 	H 	0.9171	0.1494	0.7532	-0
Mof_C 	C 	0.93666	0.1374	0.77462	-0.096
Mof_H 	H 	0.9478	0.1469	0.772	0.063
Mof_C 	C 	0.93858	0.12221	0.79007	0.004
Mof_H 	H 	0.9507	0.1216	0.7987	0.038
Mof_C 	C 	0.92226	0.1079	0.79249	-0.045
Mof_C 	C 	0.90472	0.10974	0.78001	0.031
Mof_H 	H 	0.8938	0.0998	0.7817	0.017
Mof_C 	C 	0.92282	0.09132	0.80877	0.134
Mof_C 	C 	0.9397	0.07433	0.83461	0.133
Mof_C 	C 	0.90684	0.06489	0.82589	0.133
Mof_C 	C 	0.88822	0.03768	0.84601	0.039
Mof_H 	H 	0.9006	0.0363	0.8542	0.012
Mof_C 	C 	0.88815	0.05221	0.82952	-0.051
Mof_C 	C 	0.8704	0.05411	0.81735	0.009
Mof_H 	H 	0.8697	0.064	0.8062	0.037
Mof_C 	C 	0.85358	0.04109	0.82192	-0.1
Mof_H 	H 	0.8413	0.0416	0.8136	0.067
Mof_C 	C 	0.85489	0.02746	0.8386	0.061
Mof_H 	H 	0.8431	0.0189	0.8416	0.001
Mof_C 	C 	0.88862	0.98237	0.83301	0.063
Mof_H 	H 	0.8989	0.993	0.8341	-0.001
Mof_C 	C 	0.88834	0.9706	0.8154	-0.103
Mof_H 	H 	0.8981	0.9731	0.8045	0.068
Mof_C 	C 	0.87333	0.9547	0.8136	0.009
Mof_H 	H 	0.8729	0.9459	0.8016	0.037
Mof_C 	C 	0.85924	0.95217	0.82984	-0.052
Mof_C 	C 	0.86085	0.96498	0.84731	0.042
Mof_H 	H 	0.8513	0.963	0.8585	0.011
Mof_C 	C 	0.84302	0.93559	0.82908	0.135
Mof_C 	C 	0.82478	0.99941	0.87611	0.108
Mof_N 	N 	0.98525	0.09096	0.86692	-0.223
Mof_N 	N 	0.85699	0.11285	0.77446	-0.261
Mof_N 	N 	0.90242	0.12503	0.76551	-0.224
Mof_N 	N 	0.90582	0.0796	0.81091	-0.151
Mof_N 	N 	0.94029	0.08966	0.82025	-0.15
Mof_N 	N 	0.92387	0.06113	0.83763	-0.151
Mof_N 	N 	0.87185	0.02568	0.85075	-0.229
Mof_N 	N 	0.84238	0.00119	0.87676	-0.264
Mof_N 	N 	0.87524	0.97991	0.84897	-0.229
Mof_N 	N 	0.84428	0.92169	0.81397	-0.152
Mof_S 	S 	0.82812	0.08696	0.79463	-0.059
Mof_S 	S 	0.79928	0.99784	0.87346	-0.062
Mof_C 	C 	0.96989	0.59028	0.35258	0.033
Mof_H 	H 	0.9673	0.6024	0.3444	0.014
Mof_C 	C 	0.9575	0.57258	0.34914	-0.046
Mof_C 	C 	0.96138	0.55477	0.36072	0.006
Mof_H 	H 	0.953	0.5426	0.3592	0.038
Mof_C 	C 	0.9781	0.55514	0.37482	-0.1
Mof_H 	H 	0.9818	0.5429	0.3824	0.066
Mof_C 	C 	0.98907	0.57314	0.37758	0.061
Mof_H 	H 	0.0001	0.5732	0.3876	-0
Mof_C 	C 	0.84533	0.60226	0.28338	0.098
Mof_C 	C 	0.91843	0.63852	0.26321	0.057
Mof_H 	H 	0.9171	0.6494	0.2532	-0
Mof_C 	C 	0.93666	0.6374	0.27462	-0.096
Mof_H 	H 	0.9478	0.6469	0.272	0.063
Mof_C 	C 	0.93858	0.62221	0.29007	0.004
Mof_H 	H 	0.9507	0.6216	0.2987	0.038
Mof_C 	C 	0.92226	0.6079	0.29249	-0.045
Mof_C 	C 	0.90472	0.60974	0.28001	0.031
Mof_H 	H 	0.8938	0.5998	0.2817	0.017
Mof_C 	C 	0.92282	0.59132	0.30877	0.134
Mof_C 	C 	0.9397	0.57433	0.33461	0.133
Mof_C 	C 	0.90684	0.56489	0.32589	0.133
Mof_C 	C 	0.88822	0.53768	0.34601	0.039
Mof_H 	H 	0.9006	0.5363	0.3542	0.012
Mof_C 	C 	0.88815	0.55221	0.32952	-0.051
Mof_C 	C 	0.8704	0.55411	0.31735	0.009
Mof_H 	H 	0.8697	0.564	0.3062	0.037
Mof_C 	C 	0.85358	0.54109	0.32192	-0.1
Mof_H 	H 	0.8413	0.5416	0.3136	0.067
Mof_C 	C 	0.85489	0.52746	0.3386	0.061
Mof_H 	H 	0.8431	0.5189	0.3416	0.001
Mof_C 	C 	0.88862	0.48237	0.33301	0.063
Mof_H 	H 	0.8989	0.493	0.3341	-0.001
Mof_C 	C 	0.88834	0.4706	0.3154	-0.103
Mof_H 	H 	0.8981	0.4731	0.3045	0.068
Mof_C 	C 	0.87333	0.4547	0.3136	0.009
Mof_H 	H 	0.8729	0.4459	0.3016	0.037
Mof_C 	C 	0.85924	0.45217	0.32984	-0.052
Mof_C 	C 	0.86085	0.46498	0.34731	0.042
Mof_H 	H 	0.8513	0.463	0.3585	0.011
Mof_C 	C 	0.84302	0.43559	0.32908	0.135
Mof_C 	C 	0.82478	0.49941	0.37611	0.108
Mof_N 	N 	0.98525	0.59096	0.36692	-0.223
Mof_N 	N 	0.85699	0.61285	0.27446	-0.261
Mof_N 	N 	0.90242	0.62503	0.26551	-0.224
Mof_N 	N 	0.90582	0.5796	0.31091	-0.151
Mof_N 	N 	0.94029	0.58966	0.32025	-0.15
Mof_N 	N 	0.92387	0.56113	0.33763	-0.151
Mof_N 	N 	0.87185	0.52568	0.35075	-0.229
Mof_N 	N 	0.84238	0.50119	0.37676	-0.264
Mof_N 	N 	0.87524	0.47991	0.34897	-0.229
Mof_N 	N 	0.84428	0.42169	0.31397	-0.152
Mof_S 	S 	0.82812	0.58696	0.29463	-0.059
Mof_S 	S 	0.79928	0.49784	0.37346	-0.062
Mof_C 	C 	0.39742	0.78011	0.59028	0.033
Mof_H 	H 	0.4056	0.7827	0.6024	0.014
Mof_C 	C 	0.40086	0.7925	0.57258	-0.046
Mof_C 	C 	0.38928	0.78862	0.55477	0.006
Mof_H 	H 	0.3908	0.797	0.5426	0.038
Mof_C 	C 	0.37518	0.7719	0.55514	-0.1
Mof_H 	H 	0.3676	0.7682	0.5429	0.066
Mof_C 	C 	0.37242	0.76093	0.57314	0.061
Mof_H 	H 	0.3624	0.7499	0.5732	-0
Mof_C 	C 	0.46662	0.90467	0.60226	0.098
Mof_C 	C 	0.48679	0.83157	0.63852	0.057
Mof_H 	H 	0.4968	0.8329	0.6494	-0
Mof_C 	C 	0.47538	0.81334	0.6374	-0.096
Mof_H 	H 	0.478	0.8022	0.6469	0.063
Mof_C 	C 	0.45993	0.81142	0.62221	0.004
Mof_H 	H 	0.4513	0.7993	0.6216	0.038
Mof_C 	C 	0.45751	0.82774	0.6079	-0.045
Mof_C 	C 	0.46999	0.84528	0.60974	0.031
Mof_H 	H 	0.4683	0.8562	0.5998	0.017
Mof_C 	C 	0.44123	0.82718	0.59132	0.134
Mof_C 	C 	0.41539	0.8103	0.57433	0.133
Mof_C 	C 	0.42411	0.84316	0.56489	0.133
Mof_C 	C 	0.40399	0.86178	0.53768	0.039
Mof_H 	H 	0.3958	0.8494	0.5363	0.012
Mof_C 	C 	0.42048	0.86185	0.55221	-0.051
Mof_C 	C 	0.43265	0.8796	0.55411	0.009
Mof_H 	H 	0.4438	0.8803	0.564	0.037
Mof_C 	C 	0.42808	0.89642	0.54109	-0.1
Mof_H 	H 	0.4364	0.9087	0.5416	0.067
Mof_C 	C 	0.4114	0.89511	0.52746	0.061
Mof_H 	H 	0.4084	0.9069	0.5189	0.001
Mof_C 	C 	0.41699	0.86138	0.48237	0.063
Mof_H 	H 	0.4159	0.8511	0.493	-0.001
Mof_C 	C 	0.4346	0.86166	0.4706	-0.103
Mof_H 	H 	0.4455	0.8519	0.4731	0.068
Mof_C 	C 	0.4364	0.87667	0.4547	0.009
Mof_H 	H 	0.4484	0.8771	0.4459	0.037
Mof_C 	C 	0.42016	0.89076	0.45217	-0.052
Mof_C 	C 	0.40269	0.88915	0.46498	0.042
Mof_H 	H 	0.3915	0.8987	0.463	0.011
Mof_C 	C 	0.42092	0.90698	0.43559	0.135
Mof_C 	C 	0.37389	0.92522	0.49941	0.108
Mof_N 	N 	0.38308	0.76475	0.59096	-0.223
Mof_N 	N 	0.47554	0.89301	0.61285	-0.261
Mof_N 	N 	0.48449	0.84758	0.62503	-0.224
Mof_N 	N 	0.43909	0.84418	0.5796	-0.151
Mof_N 	N 	0.42975	0.80971	0.58966	-0.15
Mof_N 	N 	0.41237	0.82613	0.56113	-0.151
Mof_N 	N 	0.39925	0.87815	0.52568	-0.229
Mof_N 	N 	0.37324	0.90762	0.50119	-0.264
Mof_N 	N 	0.40103	0.87476	0.47991	-0.229
Mof_N 	N 	0.43603	0.90572	0.42169	-0.152
Mof_S 	S 	0.45537	0.92188	0.58696	-0.059
Mof_S 	S 	0.37654	0.95072	0.49784	-0.062
Mof_C 	C 	0.39742	0.28011	0.09028	0.033
Mof_H 	H 	0.4056	0.2827	0.1024	0.014
Mof_C 	C 	0.40086	0.2925	0.07258	-0.046
Mof_C 	C 	0.38928	0.28862	0.05477	0.006
Mof_H 	H 	0.3908	0.297	0.0426	0.038
Mof_C 	C 	0.37518	0.2719	0.05514	-0.1
Mof_H 	H 	0.3676	0.2682	0.0429	0.066
Mof_C 	C 	0.37242	0.26093	0.07314	0.061
Mof_H 	H 	0.3624	0.2499	0.0732	-0
Mof_C 	C 	0.46662	0.40467	0.10226	0.098
Mof_C 	C 	0.48679	0.33157	0.13852	0.057
Mof_H 	H 	0.4968	0.3329	0.1494	-0
Mof_C 	C 	0.47538	0.31334	0.1374	-0.096
Mof_H 	H 	0.478	0.3022	0.1469	0.063
Mof_C 	C 	0.45993	0.31142	0.12221	0.004
Mof_H 	H 	0.4513	0.2993	0.1216	0.038
Mof_C 	C 	0.45751	0.32774	0.1079	-0.045
Mof_C 	C 	0.46999	0.34528	0.10974	0.031
Mof_H 	H 	0.4683	0.3562	0.0998	0.017
Mof_C 	C 	0.44123	0.32718	0.09132	0.134
Mof_C 	C 	0.41539	0.3103	0.07433	0.133
Mof_C 	C 	0.42411	0.34316	0.06489	0.133
Mof_C 	C 	0.40399	0.36178	0.03768	0.039
Mof_H 	H 	0.3958	0.3494	0.0363	0.012
Mof_C 	C 	0.42048	0.36185	0.05221	-0.051
Mof_C 	C 	0.43265	0.3796	0.05411	0.009
Mof_H 	H 	0.4438	0.3803	0.064	0.037
Mof_C 	C 	0.42808	0.39642	0.04109	-0.1
Mof_H 	H 	0.4364	0.4087	0.0416	0.067
Mof_C 	C 	0.4114	0.39511	0.02746	0.061
Mof_H 	H 	0.4084	0.4069	0.0189	0.001
Mof_C 	C 	0.41699	0.36138	0.98237	0.063
Mof_H 	H 	0.4159	0.3511	0.993	-0.001
Mof_C 	C 	0.4346	0.36166	0.9706	-0.103
Mof_H 	H 	0.4455	0.3519	0.9731	0.068
Mof_C 	C 	0.4364	0.37667	0.9547	0.009
Mof_H 	H 	0.4484	0.3771	0.9459	0.037
Mof_C 	C 	0.42016	0.39076	0.95217	-0.052
Mof_C 	C 	0.40269	0.38915	0.96498	0.042
Mof_H 	H 	0.3915	0.3987	0.963	0.011
Mof_C 	C 	0.42092	0.40698	0.93559	0.135
Mof_C 	C 	0.37389	0.42522	0.99941	0.108
Mof_N 	N 	0.38308	0.26475	0.09096	-0.223
Mof_N 	N 	0.47554	0.39301	0.11285	-0.261
Mof_N 	N 	0.48449	0.34758	0.12503	-0.224
Mof_N 	N 	0.43909	0.34418	0.0796	-0.151
Mof_N 	N 	0.42975	0.30971	0.08966	-0.15
Mof_N 	N 	0.41237	0.32613	0.06113	-0.151
Mof_N 	N 	0.39925	0.37815	0.02568	-0.229
Mof_N 	N 	0.37324	0.40762	0.00119	-0.264
Mof_N 	N 	0.40103	0.37476	0.97991	-0.229
Mof_N 	N 	0.43603	0.40572	0.92169	-0.152
Mof_S 	S 	0.45537	0.42188	0.08696	-0.059
Mof_S 	S 	0.37654	0.45072	0.99784	-0.062
Mof_C 	C 	0.89742	0.78011	0.09028	0.033
Mof_H 	H 	0.9056	0.7827	0.1024	0.014
Mof_C 	C 	0.90086	0.7925	0.07258	-0.046
Mof_C 	C 	0.88928	0.78862	0.05477	0.006
Mof_H 	H 	0.8908	0.797	0.0426	0.038
Mof_C 	C 	0.87518	0.7719	0.05514	-0.1
Mof_H 	H 	0.8676	0.7682	0.0429	0.066
Mof_C 	C 	0.87242	0.76093	0.07314	0.061
Mof_H 	H 	0.8624	0.7499	0.0732	-0
Mof_C 	C 	0.96662	0.90467	0.10226	0.098
Mof_C 	C 	0.98679	0.83157	0.13852	0.057
Mof_H 	H 	0.9968	0.8329	0.1494	-0
Mof_C 	C 	0.97538	0.81334	0.1374	-0.096
Mof_H 	H 	0.978	0.8022	0.1469	0.063
Mof_C 	C 	0.95993	0.81142	0.12221	0.004
Mof_H 	H 	0.9513	0.7993	0.1216	0.038
Mof_C 	C 	0.95751	0.82774	0.1079	-0.045
Mof_C 	C 	0.96999	0.84528	0.10974	0.031
Mof_H 	H 	0.9683	0.8562	0.0998	0.017
Mof_C 	C 	0.94123	0.82718	0.09132	0.134
Mof_C 	C 	0.91539	0.8103	0.07433	0.133
Mof_C 	C 	0.92411	0.84316	0.06489	0.133
Mof_C 	C 	0.90399	0.86178	0.03768	0.039
Mof_H 	H 	0.8958	0.8494	0.0363	0.012
Mof_C 	C 	0.92048	0.86185	0.05221	-0.051
Mof_C 	C 	0.93265	0.8796	0.05411	0.009
Mof_H 	H 	0.9438	0.8803	0.064	0.037
Mof_C 	C 	0.92808	0.89642	0.04109	-0.1
Mof_H 	H 	0.9364	0.9087	0.0416	0.067
Mof_C 	C 	0.9114	0.89511	0.02746	0.061
Mof_H 	H 	0.9084	0.9069	0.0189	0.001
Mof_C 	C 	0.91699	0.86138	0.98237	0.063
Mof_H 	H 	0.9159	0.8511	0.993	-0.001
Mof_C 	C 	0.9346	0.86166	0.9706	-0.103
Mof_H 	H 	0.9455	0.8519	0.9731	0.068
Mof_C 	C 	0.9364	0.87667	0.9547	0.009
Mof_H 	H 	0.9484	0.8771	0.9459	0.037
Mof_C 	C 	0.92016	0.89076	0.95217	-0.052
Mof_C 	C 	0.90269	0.88915	0.96498	0.042
Mof_H 	H 	0.8915	0.8987	0.963	0.011
Mof_C 	C 	0.92092	0.90698	0.93559	0.135
Mof_C 	C 	0.87389	0.92522	0.99941	0.108
Mof_N 	N 	0.88308	0.76475	0.09096	-0.223
Mof_N 	N 	0.97554	0.89301	0.11285	-0.261
Mof_N 	N 	0.98449	0.84758	0.12503	-0.224
Mof_N 	N 	0.93909	0.84418	0.0796	-0.151
Mof_N 	N 	0.92975	0.80971	0.08966	-0.15
Mof_N 	N 	0.91237	0.82613	0.06113	-0.151
Mof_N 	N 	0.89925	0.87815	0.02568	-0.229
Mof_N 	N 	0.87324	0.90762	0.00119	-0.264
Mof_N 	N 	0.90103	0.87476	0.97991	-0.229
Mof_N 	N 	0.93603	0.90572	0.92169	-0.152
Mof_S 	S 	0.95537	0.92188	0.08696	-0.059
Mof_S 	S 	0.87654	0.95072	0.99784	-0.062
Mof_C 	C 	0.89742	0.28011	0.59028	0.033
Mof_H 	H 	0.9056	0.2827	0.6024	0.014
Mof_C 	C 	0.90086	0.2925	0.57258	-0.046
Mof_C 	C 	0.88928	0.28862	0.55477	0.006
Mof_H 	H 	0.8908	0.297	0.5426	0.038
Mof_C 	C 	0.87518	0.2719	0.55514	-0.1
Mof_H 	H 	0.8676	0.2682	0.5429	0.066
Mof_C 	C 	0.87242	0.26093	0.57314	0.061
Mof_H 	H 	0.8624	0.2499	0.5732	-0
Mof_C 	C 	0.96662	0.40467	0.60226	0.098
Mof_C 	C 	0.98679	0.33157	0.63852	0.057
Mof_H 	H 	0.9968	0.3329	0.6494	-0
Mof_C 	C 	0.97538	0.31334	0.6374	-0.096
Mof_H 	H 	0.978	0.3022	0.6469	0.063
Mof_C 	C 	0.95993	0.31142	0.62221	0.004
Mof_H 	H 	0.9513	0.2993	0.6216	0.038
Mof_C 	C 	0.95751	0.32774	0.6079	-0.045
Mof_C 	C 	0.96999	0.34528	0.60974	0.031
Mof_H 	H 	0.9683	0.3562	0.5998	0.017
Mof_C 	C 	0.94123	0.32718	0.59132	0.134
Mof_C 	C 	0.91539	0.3103	0.57433	0.133
Mof_C 	C 	0.92411	0.34316	0.56489	0.133
Mof_C 	C 	0.90399	0.36178	0.53768	0.039
Mof_H 	H 	0.8958	0.3494	0.5363	0.012
Mof_C 	C 	0.92048	0.36185	0.55221	-0.051
Mof_C 	C 	0.93265	0.3796	0.55411	0.009
Mof_H 	H 	0.9438	0.3803	0.564	0.037
Mof_C 	C 	0.92808	0.39642	0.54109	-0.1
Mof_H 	H 	0.9364	0.4087	0.5416	0.067
Mof_C 	C 	0.9114	0.39511	0.52746	0.061
Mof_H 	H 	0.9084	0.4069	0.5189	0.001
Mof_C 	C 	0.91699	0.36138	0.48237	0.063
Mof_H 	H 	0.9159	0.3511	0.493	-0.001
Mof_C 	C 	0.9346	0.36166	0.4706	-0.103
Mof_H 	H 	0.9455	0.3519	0.4731	0.068
Mof_C 	C 	0.9364	0.37667	0.4547	0.009
Mof_H 	H 	0.9484	0.3771	0.4459	0.037
Mof_C 	C 	0.92016	0.39076	0.45217	-0.052
Mof_C 	C 	0.90269	0.38915	0.46498	0.042
Mof_H 	H 	0.8915	0.3987	0.463	0.011
Mof_C 	C 	0.92092	0.40698	0.43559	0.135
Mof_C 	C 	0.87389	0.42522	0.49941	0.108
Mof_N 	N 	0.88308	0.26475	0.59096	-0.223
Mof_N 	N 	0.97554	0.39301	0.61285	-0.261
Mof_N 	N 	0.98449	0.34758	0.62503	-0.224
Mof_N 	N 	0.93909	0.34418	0.5796	-0.151
Mof_N 	N 	0.92975	0.30971	0.58966	-0.15
Mof_N 	N 	0.91237	0.32613	0.56113	-0.151
Mof_N 	N 	0.89925	0.37815	0.52568	-0.229
Mof_N 	N 	0.87324	0.40762	0.50119	-0.264
Mof_N 	N 	0.90103	0.37476	0.47991	-0.229
Mof_N 	N 	0.93603	0.40572	0.42169	-0.152
Mof_S 	S 	0.95537	0.42188	0.58696	-0.059
Mof_S 	S 	0.87654	0.45072	0.49784	-0.062
Mof_C 	C 	0.85258	0.28011	0.15972	0.033
Mof_H 	H 	0.8444	0.2827	0.1476	0.014
Mof_C 	C 	0.84914	0.2925	0.17742	-0.046
Mof_C 	C 	0.86072	0.28862	0.19523	0.006
Mof_H 	H 	0.8592	0.297	0.2074	0.038
Mof_C 	C 	0.87482	0.2719	0.19486	-0.1
Mof_H 	H 	0.8824	0.2682	0.2071	0.066
Mof_C 	C 	0.87758	0.26093	0.17686	0.061
Mof_H 	H 	0.8876	0.2499	0.1768	-0
Mof_C 	C 	0.78338	0.40467	0.14774	0.098
Mof_C 	C 	0.76321	0.33157	0.11148	0.057
Mof_H 	H 	0.7532	0.3329	0.1006	-0
Mof_C 	C 	0.77462	0.31334	0.1126	-0.096
Mof_H 	H 	0.772	0.3022	0.1031	0.063
Mof_C 	C 	0.79007	0.31142	0.12779	0.004
Mof_H 	H 	0.7987	0.2993	0.1284	0.038
Mof_C 	C 	0.79249	0.32774	0.1421	-0.045
Mof_C 	C 	0.78001	0.34528	0.14026	0.031
Mof_H 	H 	0.7817	0.3562	0.1502	0.017
Mof_C 	C 	0.80877	0.32718	0.15868	0.134
Mof_C 	C 	0.83461	0.3103	0.17567	0.133
Mof_C 	C 	0.82589	0.34316	0.18511	0.133
Mof_C 	C 	0.84601	0.36178	0.21232	0.039
Mof_H 	H 	0.8542	0.3494	0.2137	0.012
Mof_C 	C 	0.82952	0.36185	0.19779	-0.051
Mof_C 	C 	0.81735	0.3796	0.19589	0.009
Mof_H 	H 	0.8062	0.3803	0.186	0.037
Mof_C 	C 	0.82192	0.39642	0.20891	-0.1
Mof_H 	H 	0.8136	0.4087	0.2084	0.067
Mof_C 	C 	0.8386	0.39511	0.22254	0.061
Mof_H 	H 	0.8416	0.4069	0.2311	0.001
Mof_C 	C 	0.83301	0.36138	0.26763	0.063
Mof_H 	H 	0.8341	0.3511	0.257	-0.001
Mof_C 	C 	0.8154	0.36166	0.2794	-0.103
Mof_H 	H 	0.8045	0.3519	0.2769	0.068
Mof_C 	C 	0.8136	0.37667	0.2953	0.009
Mof_H 	H 	0.8016	0.3771	0.3041	0.037
Mof_C 	C 	0.82984	0.39076	0.29783	-0.052
Mof_C 	C 	0.84731	0.38915	0.28502	0.042
Mof_H 	H 	0.8585	0.3987	0.287	0.011
Mof_C 	C 	0.82908	0.40698	0.31441	0.135
Mof_C 	C 	0.87611	0.42522	0.25059	0.108
Mof_N 	N 	0.86692	0.26475	0.15904	-0.223
Mof_N 	N 	0.77446	0.39301	0.13715	-0.261
Mof_N 	N 	0.76551	0.34758	0.12497	-0.224
Mof_N 	N 	0.81091	0.34418	0.1704	-0.151
Mof_N 	N 	0.82025	0.30971	0.16034	-0.15
Mof_N 	N 	0.83763	0.32613	0.18887	-0.151
Mof_N 	N 	0.85075	0.37815	0.22432	-0.229
Mof_N 	N 	0.87676	0.40762	0.24881	-0.264
Mof_N 	N 	0.84897	0.37476	0.27009	-0.229
Mof_N 	N 	0.81397	0.40572	0.32831	-0.152
Mof_S 	S 	0.79463	0.42188	0.16304	-0.059
Mof_S 	S 	0.87346	0.45072	0.25216	-0.062
Mof_C 	C 	0.85258	0.78011	0.65972	0.033
Mof_H 	H 	0.8444	0.7827	0.6476	0.014
Mof_C 	C 	0.84914	0.7925	0.67742	-0.046
Mof_C 	C 	0.86072	0.78862	0.69523	0.006
Mof_H 	H 	0.8592	0.797	0.7074	0.038
Mof_C 	C 	0.87482	0.7719	0.69486	-0.1
Mof_H 	H 	0.8824	0.7682	0.7071	0.066
Mof_C 	C 	0.87758	0.76093	0.67686	0.061
Mof_H 	H 	0.8876	0.7499	0.6768	-0
Mof_C 	C 	0.78338	0.90467	0.64774	0.098
Mof_C 	C 	0.76321	0.83157	0.61148	0.057
Mof_H 	H 	0.7532	0.8329	0.6006	-0
Mof_C 	C 	0.77462	0.81334	0.6126	-0.096
Mof_H 	H 	0.772	0.8022	0.6031	0.063
Mof_C 	C 	0.79007	0.81142	0.62779	0.004
Mof_H 	H 	0.7987	0.7993	0.6284	0.038
Mof_C 	C 	0.79249	0.82774	0.6421	-0.045
Mof_C 	C 	0.78001	0.84528	0.64026	0.031
Mof_H 	H 	0.7817	0.8562	0.6502	0.017
Mof_C 	C 	0.80877	0.82718	0.65868	0.134
Mof_C 	C 	0.83461	0.8103	0.67567	0.133
Mof_C 	C 	0.82589	0.84316	0.68511	0.133
Mof_C 	C 	0.84601	0.86178	0.71232	0.039
Mof_H 	H 	0.8542	0.8494	0.7137	0.012
Mof_C 	C 	0.82952	0.86185	0.69779	-0.051
Mof_C 	C 	0.81735	0.8796	0.69589	0.009
Mof_H 	H 	0.8062	0.8803	0.686	0.037
Mof_C 	C 	0.82192	0.89642	0.70891	-0.1
Mof_H 	H 	0.8136	0.9087	0.7084	0.067
Mof_C 	C 	0.8386	0.89511	0.72254	0.061
Mof_H 	H 	0.8416	0.9069	0.7311	0.001
Mof_C 	C 	0.83301	0.86138	0.76763	0.063
Mof_H 	H 	0.8341	0.8511	0.757	-0.001
Mof_C 	C 	0.8154	0.86166	0.7794	-0.103
Mof_H 	H 	0.8045	0.8519	0.7769	0.068
Mof_C 	C 	0.8136	0.87667	0.7953	0.009
Mof_H 	H 	0.8016	0.8771	0.8041	0.037
Mof_C 	C 	0.82984	0.89076	0.79783	-0.052
Mof_C 	C 	0.84731	0.88915	0.78502	0.042
Mof_H 	H 	0.8585	0.8987	0.787	0.011
Mof_C 	C 	0.82908	0.90698	0.81441	0.135
Mof_C 	C 	0.87611	0.92522	0.75059	0.108
Mof_N 	N 	0.86692	0.76475	0.65904	-0.223
Mof_N 	N 	0.77446	0.89301	0.63715	-0.261
Mof_N 	N 	0.76551	0.84758	0.62497	-0.224
Mof_N 	N 	0.81091	0.84418	0.6704	-0.151
Mof_N 	N 	0.82025	0.80971	0.66034	-0.15
Mof_N 	N 	0.83763	0.82613	0.68887	-0.151
Mof_N 	N 	0.85075	0.87815	0.72432	-0.229
Mof_N 	N 	0.87676	0.90762	0.74881	-0.264
Mof_N 	N 	0.84897	0.87476	0.77009	-0.229
Mof_N 	N 	0.81397	0.90572	0.82831	-0.152
Mof_S 	S 	0.79463	0.92188	0.66304	-0.059
Mof_S 	S 	0.87346	0.95072	0.75216	-0.062
Mof_C 	C 	0.35258	0.28011	0.65972	0.033
Mof_H 	H 	0.3444	0.2827	0.6476	0.014
Mof_C 	C 	0.34914	0.2925	0.67742	-0.046
Mof_C 	C 	0.36072	0.28862	0.69523	0.006
Mof_H 	H 	0.3592	0.297	0.7074	0.038
Mof_C 	C 	0.37482	0.2719	0.69486	-0.1
Mof_H 	H 	0.3824	0.2682	0.7071	0.066
Mof_C 	C 	0.37758	0.26093	0.67686	0.061
Mof_H 	H 	0.3876	0.2499	0.6768	-0
Mof_C 	C 	0.28338	0.40467	0.64774	0.098
Mof_C 	C 	0.26321	0.33157	0.61148	0.057
Mof_H 	H 	0.2532	0.3329	0.6006	-0
Mof_C 	C 	0.27462	0.31334	0.6126	-0.096
Mof_H 	H 	0.272	0.3022	0.6031	0.063
Mof_C 	C 	0.29007	0.31142	0.62779	0.004
Mof_H 	H 	0.2987	0.2993	0.6284	0.038
Mof_C 	C 	0.29249	0.32774	0.6421	-0.045
Mof_C 	C 	0.28001	0.34528	0.64026	0.031
Mof_H 	H 	0.2817	0.3562	0.6502	0.017
Mof_C 	C 	0.30877	0.32718	0.65868	0.134
Mof_C 	C 	0.33461	0.3103	0.67567	0.133
Mof_C 	C 	0.32589	0.34316	0.68511	0.133
Mof_C 	C 	0.34601	0.36178	0.71232	0.039
Mof_H 	H 	0.3542	0.3494	0.7137	0.012
Mof_C 	C 	0.32952	0.36185	0.69779	-0.051
Mof_C 	C 	0.31735	0.3796	0.69589	0.009
Mof_H 	H 	0.3062	0.3803	0.686	0.037
Mof_C 	C 	0.32192	0.39642	0.70891	-0.1
Mof_H 	H 	0.3136	0.4087	0.7084	0.067
Mof_C 	C 	0.3386	0.39511	0.72254	0.061
Mof_H 	H 	0.3416	0.4069	0.7311	0.001
Mof_C 	C 	0.33301	0.36138	0.76763	0.063
Mof_H 	H 	0.3341	0.3511	0.757	-0.001
Mof_C 	C 	0.3154	0.36166	0.7794	-0.103
Mof_H 	H 	0.3045	0.3519	0.7769	0.068
Mof_C 	C 	0.3136	0.37667	0.7953	0.009
Mof_H 	H 	0.3016	0.3771	0.8041	0.037
Mof_C 	C 	0.32984	0.39076	0.79783	-0.052
Mof_C 	C 	0.34731	0.38915	0.78502	0.042
Mof_H 	H 	0.3585	0.3987	0.787	0.011
Mof_C 	C 	0.32908	0.40698	0.81441	0.135
Mof_C 	C 	0.37611	0.42522	0.75059	0.108
Mof_N 	N 	0.36692	0.26475	0.65904	-0.223
Mof_N 	N 	0.27446	0.39301	0.63715	-0.261
Mof_N 	N 	0.26551	0.34758	0.62497	-0.224
Mof_N 	N 	0.31091	0.34418	0.6704	-0.151
Mof_N 	N 	0.32025	0.30971	0.66034	-0.15
Mof_N 	N 	0.33763	0.32613	0.68887	-0.151
Mof_N 	N 	0.35075	0.37815	0.72432	-0.229
Mof_N 	N 	0.37676	0.40762	0.74881	-0.264
Mof_N 	N 	0.34897	0.37476	0.77009	-0.229
Mof_N 	N 	0.31397	0.40572	0.82831	-0.152
Mof_S 	S 	0.29463	0.42188	0.66304	-0.059
Mof_S 	S 	0.37346	0.45072	0.75216	-0.062
Mof_C 	C 	0.35258	0.78011	0.15972	0.033
Mof_H 	H 	0.3444	0.7827	0.1476	0.014
Mof_C 	C 	0.34914	0.7925	0.17742	-0.046
Mof_C 	C 	0.36072	0.78862	0.19523	0.006
Mof_H 	H 	0.3592	0.797	0.2074	0.038
Mof_C 	C 	0.37482	0.7719	0.19486	-0.1
Mof_H 	H 	0.3824	0.7682	0.2071	0.066
Mof_C 	C 	0.37758	0.76093	0.17686	0.061
Mof_H 	H 	0.3876	0.7499	0.1768	-0
Mof_C 	C 	0.28338	0.90467	0.14774	0.098
Mof_C 	C 	0.26321	0.83157	0.11148	0.057
Mof_H 	H 	0.2532	0.8329	0.1006	-0
Mof_C 	C 	0.27462	0.81334	0.1126	-0.096
Mof_H 	H 	0.272	0.8022	0.1031	0.063
Mof_C 	C 	0.29007	0.81142	0.12779	0.004
Mof_H 	H 	0.2987	0.7993	0.1284	0.038
Mof_C 	C 	0.29249	0.82774	0.1421	-0.045
Mof_C 	C 	0.28001	0.84528	0.14026	0.031
Mof_H 	H 	0.2817	0.8562	0.1502	0.017
Mof_C 	C 	0.30877	0.82718	0.15868	0.134
Mof_C 	C 	0.33461	0.8103	0.17567	0.133
Mof_C 	C 	0.32589	0.84316	0.18511	0.133
Mof_C 	C 	0.34601	0.86178	0.21232	0.039
Mof_H 	H 	0.3542	0.8494	0.2137	0.012
Mof_C 	C 	0.32952	0.86185	0.19779	-0.051
Mof_C 	C 	0.31735	0.8796	0.19589	0.009
Mof_H 	H 	0.3062	0.8803	0.186	0.037
Mof_C 	C 	0.32192	0.89642	0.20891	-0.1
Mof_H 	H 	0.3136	0.9087	0.2084	0.067
Mof_C 	C 	0.3386	0.89511	0.22254	0.061
Mof_H 	H 	0.3416	0.9069	0.2311	0.001
Mof_C 	C 	0.33301	0.86138	0.26763	0.063
Mof_H 	H 	0.3341	0.8511	0.257	-0.001
Mof_C 	C 	0.3154	0.86166	0.2794	-0.103
Mof_H 	H 	0.3045	0.8519	0.2769	0.068
Mof_C 	C 	0.3136	0.87667	0.2953	0.009
Mof_H 	H 	0.3016	0.8771	0.3041	0.037
Mof_C 	C 	0.32984	0.89076	0.29783	-0.052
Mof_C 	C 	0.34731	0.88915	0.28502	0.042
Mof_H 	H 	0.3585	0.8987	0.287	0.011
Mof_C 	C 	0.32908	0.90698	0.31441	0.135
Mof_C 	C 	0.37611	0.92522	0.25059	0.108
Mof_N 	N 	0.36692	0.76475	0.15904	-0.223
Mof_N 	N 	0.27446	0.89301	0.13715	-0.261
Mof_N 	N 	0.26551	0.84758	0.12497	-0.224
Mof_N 	N 	0.31091	0.84418	0.1704	-0.151
Mof_N 	N 	0.32025	0.80971	0.16034	-0.15
Mof_N 	N 	0.33763	0.82613	0.18887	-0.151
Mof_N 	N 	0.35075	0.87815	0.22432	-0.229
Mof_N 	N 	0.37676	0.90762	0.24881	-0.264
Mof_N 	N 	0.34897	0.87476	0.27009	-0.229
Mof_N 	N 	0.31397	0.90572	0.32831	-0.152
Mof_S 	S 	0.29463	0.92188	0.16304	-0.059
Mof_S 	S 	0.37346	0.95072	0.25216	-0.062
Mof_C 	C 	0.89742	0.96989	0.65972	0.033
Mof_H 	H 	0.9056	0.9673	0.6476	0.014
Mof_C 	C 	0.90086	0.9575	0.67742	-0.046
Mof_C 	C 	0.88928	0.96138	0.69523	0.006
Mof_H 	H 	0.8908	0.953	0.7074	0.038
Mof_C 	C 	0.87518	0.9781	0.69486	-0.1
Mof_H 	H 	0.8676	0.9818	0.7071	0.066
Mof_C 	C 	0.87242	0.98907	0.67686	0.061
Mof_H 	H 	0.8624	0.0001	0.6768	-0
Mof_C 	C 	0.96662	0.84533	0.64774	0.098
Mof_C 	C 	0.98679	0.91843	0.61148	0.057
Mof_H 	H 	0.9968	0.9171	0.6006	-0
Mof_C 	C 	0.97538	0.93666	0.6126	-0.096
Mof_H 	H 	0.978	0.9478	0.6031	0.063
Mof_C 	C 	0.95993	0.93858	0.62779	0.004
Mof_H 	H 	0.9513	0.9507	0.6284	0.038
Mof_C 	C 	0.95751	0.92226	0.6421	-0.045
Mof_C 	C 	0.96999	0.90472	0.64026	0.031
Mof_H 	H 	0.9683	0.8938	0.6502	0.017
Mof_C 	C 	0.94123	0.92282	0.65868	0.134
Mof_C 	C 	0.91539	0.9397	0.67567	0.133
Mof_C 	C 	0.92411	0.90684	0.68511	0.133
Mof_C 	C 	0.90399	0.88822	0.71232	0.039
Mof_H 	H 	0.8958	0.9006	0.7137	0.012
Mof_C 	C 	0.92048	0.88815	0.69779	-0.051
Mof_C 	C 	0.93265	0.8704	0.69589	0.009
Mof_H 	H 	0.9438	0.8697	0.686	0.037
Mof_C 	C 	0.92808	0.85358	0.70891	-0.1
Mof_H 	H 	0.9364	0.8413	0.7084	0.067
Mof_C 	C 	0.9114	0.85489	0.72254	0.061
Mof_H 	H 	0.9084	0.8431	0.7311	0.001
Mof_C 	C 	0.91699	0.88862	0.76763	0.063
Mof_H 	H 	0.9159	0.8989	0.757	-0.001
Mof_C 	C 	0.9346	0.88834	0.7794	-0.103
Mof_H 	H 	0.9455	0.8981	0.7769	0.068
Mof_C 	C 	0.9364	0.87333	0.7953	0.009
Mof_H 	H 	0.9484	0.8729	0.8041	0.037
Mof_C 	C 	0.92016	0.85924	0.79783	-0.052
Mof_C 	C 	0.90269	0.86085	0.78502	0.042
Mof_H 	H 	0.8915	0.8513	0.787	0.011
Mof_C 	C 	0.92092	0.84302	0.81441	0.135
Mof_C 	C 	0.87389	0.82478	0.75059	0.108
Mof_N 	N 	0.88308	0.98525	0.65904	-0.223
Mof_N 	N 	0.97554	0.85699	0.63715	-0.261
Mof_N 	N 	0.98449	0.90242	0.62497	-0.224
Mof_N 	N 	0.93909	0.90582	0.6704	-0.151
Mof_N 	N 	0.92975	0.94029	0.66034	-0.15
Mof_N 	N 	0.91237	0.92387	0.68887	-0.151
Mof_N 	N 	0.89925	0.87185	0.72432	-0.229
Mof_N 	N 	0.87324	0.84238	0.74881	-0.264
Mof_N 	N 	0.90103	0.87524	0.77009	-0.229
Mof_N 	N 	0.93603	0.84428	0.82831	-0.152
Mof_S 	S 	0.95537	0.82812	0.66304	-0.059
Mof_S 	S 	0.87654	0.79928	0.75216	-0.062
Mof_C 	C 	0.89742	0.46989	0.15972	0.033
Mof_H 	H 	0.9056	0.4673	0.1476	0.014
Mof_C 	C 	0.90086	0.4575	0.17742	-0.046
Mof_C 	C 	0.88928	0.46138	0.19523	0.006
Mof_H 	H 	0.8908	0.453	0.2074	0.038
Mof_C 	C 	0.87518	0.4781	0.19486	-0.1
Mof_H 	H 	0.8676	0.4818	0.2071	0.066
Mof_C 	C 	0.87242	0.48907	0.17686	0.061
Mof_H 	H 	0.8624	0.5001	0.1768	-0
Mof_C 	C 	0.96662	0.34533	0.14774	0.098
Mof_C 	C 	0.98679	0.41843	0.11148	0.057
Mof_H 	H 	0.9968	0.4171	0.1006	-0
Mof_C 	C 	0.97538	0.43666	0.1126	-0.096
Mof_H 	H 	0.978	0.4478	0.1031	0.063
Mof_C 	C 	0.95993	0.43858	0.12779	0.004
Mof_H 	H 	0.9513	0.4507	0.1284	0.038
Mof_C 	C 	0.95751	0.42226	0.1421	-0.045
Mof_C 	C 	0.96999	0.40472	0.14026	0.031
Mof_H 	H 	0.9683	0.3938	0.1502	0.017
Mof_C 	C 	0.94123	0.42282	0.15868	0.134
Mof_C 	C 	0.91539	0.4397	0.17567	0.133
Mof_C 	C 	0.92411	0.40684	0.18511	0.133
Mof_C 	C 	0.90399	0.38822	0.21232	0.039
Mof_H 	H 	0.8958	0.4006	0.2137	0.012
Mof_C 	C 	0.92048	0.38815	0.19779	-0.051
Mof_C 	C 	0.93265	0.3704	0.19589	0.009
Mof_H 	H 	0.9438	0.3697	0.186	0.037
Mof_C 	C 	0.92808	0.35358	0.20891	-0.1
Mof_H 	H 	0.9364	0.3413	0.2084	0.067
Mof_C 	C 	0.9114	0.35489	0.22254	0.061
Mof_H 	H 	0.9084	0.3431	0.2311	0.001
Mof_C 	C 	0.91699	0.38862	0.26763	0.063
Mof_H 	H 	0.9159	0.3989	0.257	-0.001
Mof_C 	C 	0.9346	0.38834	0.2794	-0.103
Mof_H 	H 	0.9455	0.3981	0.2769	0.068
Mof_C 	C 	0.9364	0.37333	0.2953	0.009
Mof_H 	H 	0.9484	0.3729	0.3041	0.037
Mof_C 	C 	0.92016	0.35924	0.29783	-0.052
Mof_C 	C 	0.90269	0.36085	0.28502	0.042
Mof_H 	H 	0.8915	0.3513	0.287	0.011
Mof_C 	C 	0.92092	0.34302	0.31441	0.135
Mof_C 	C 	0.87389	0.32478	0.25059	0.108
Mof_N 	N 	0.88308	0.48525	0.15904	-0.223
Mof_N 	N 	0.97554	0.35699	0.13715	-0.261
Mof_N 	N 	0.98449	0.40242	0.12497	-0.224
Mof_N 	N 	0.93909	0.40582	0.1704	-0.151
Mof_N 	N 	0.92975	0.44029	0.16034	-0.15
Mof_N 	N 	0.91237	0.42387	0.18887	-0.151
Mof_N 	N 	0.89925	0.37185	0.22432	-0.229
Mof_N 	N 	0.87324	0.34238	0.24881	-0.264
Mof_N 	N 	0.90103	0.37524	0.27009	-0.229
Mof_N 	N 	0.93603	0.34428	0.32831	-0.152
Mof_S 	S 	0.95537	0.32812	0.16304	-0.059
Mof_S 	S 	0.87654	0.29928	0.25216	-0.062
Mof_C 	C 	0.39742	0.96989	0.15972	0.033
Mof_H 	H 	0.4056	0.9673	0.1476	0.014
Mof_C 	C 	0.40086	0.9575	0.17742	-0.046
Mof_C 	C 	0.38928	0.96138	0.19523	0.006
Mof_H 	H 	0.3908	0.953	0.2074	0.038
Mof_C 	C 	0.37518	0.9781	0.19486	-0.1
Mof_H 	H 	0.3676	0.9818	0.2071	0.066
Mof_C 	C 	0.37242	0.98907	0.17686	0.061
Mof_H 	H 	0.3624	0.0001	0.1768	-0
Mof_C 	C 	0.46662	0.84533	0.14774	0.098
Mof_C 	C 	0.48679	0.91843	0.11148	0.057
Mof_H 	H 	0.4968	0.9171	0.1006	-0
Mof_C 	C 	0.47538	0.93666	0.1126	-0.096
Mof_H 	H 	0.478	0.9478	0.1031	0.063
Mof_C 	C 	0.45993	0.93858	0.12779	0.004
Mof_H 	H 	0.4513	0.9507	0.1284	0.038
Mof_C 	C 	0.45751	0.92226	0.1421	-0.045
Mof_C 	C 	0.46999	0.90472	0.14026	0.031
Mof_H 	H 	0.4683	0.8938	0.1502	0.017
Mof_C 	C 	0.44123	0.92282	0.15868	0.134
Mof_C 	C 	0.41539	0.9397	0.17567	0.133
Mof_C 	C 	0.42411	0.90684	0.18511	0.133
Mof_C 	C 	0.40399	0.88822	0.21232	0.039
Mof_H 	H 	0.3958	0.9006	0.2137	0.012
Mof_C 	C 	0.42048	0.88815	0.19779	-0.051
Mof_C 	C 	0.43265	0.8704	0.19589	0.009
Mof_H 	H 	0.4438	0.8697	0.186	0.037
Mof_C 	C 	0.42808	0.85358	0.20891	-0.1
Mof_H 	H 	0.4364	0.8413	0.2084	0.067
Mof_C 	C 	0.4114	0.85489	0.22254	0.061
Mof_H 	H 	0.4084	0.8431	0.2311	0.001
Mof_C 	C 	0.41699	0.88862	0.26763	0.063
Mof_H 	H 	0.4159	0.8989	0.257	-0.001
Mof_C 	C 	0.4346	0.88834	0.2794	-0.103
Mof_H 	H 	0.4455	0.8981	0.2769	0.068
Mof_C 	C 	0.4364	0.87333	0.2953	0.009
Mof_H 	H 	0.4484	0.8729	0.3041	0.037
Mof_C 	C 	0.42016	0.85924	0.29783	-0.052
Mof_C 	C 	0.40269	0.86085	0.28502	0.042
Mof_H 	H 	0.3915	0.8513	0.287	0.011
Mof_C 	C 	0.42092	0.84302	0.31441	0.135
Mof_C 	C 	0.37389	0.82478	0.25059	0.108
Mof_N 	N 	0.38308	0.98525	0.15904	-0.223
Mof_N 	N 	0.47554	0.85699	0.13715	-0.261
Mof_N 	N 	0.48449	0.90242	0.12497	-0.224
Mof_N 	N 	0.43909	0.90582	0.1704	-0.151
Mof_N 	N 	0.42975	0.94029	0.16034	-0.15
Mof_N 	N 	0.41237	0.92387	0.18887	-0.151
Mof_N 	N 	0.39925	0.87185	0.22432	-0.229
Mof_N 	N 	0.37324	0.84238	0.24881	-0.264
Mof_N 	N 	0.40103	0.87524	0.27009	-0.229
Mof_N 	N 	0.43603	0.84428	0.32831	-0.152
Mof_S 	S 	0.45537	0.82812	0.16304	-0.059
Mof_S 	S 	0.37654	0.79928	0.25216	-0.062
Mof_C 	C 	0.39742	0.46989	0.65972	0.033
Mof_H 	H 	0.4056	0.4673	0.6476	0.014
Mof_C 	C 	0.40086	0.4575	0.67742	-0.046
Mof_C 	C 	0.38928	0.46138	0.69523	0.006
Mof_H 	H 	0.3908	0.453	0.7074	0.038
Mof_C 	C 	0.37518	0.4781	0.69486	-0.1
Mof_H 	H 	0.3676	0.4818	0.7071	0.066
Mof_C 	C 	0.37242	0.48907	0.67686	0.061
Mof_H 	H 	0.3624	0.5001	0.6768	-0
Mof_C 	C 	0.46662	0.34533	0.64774	0.098
Mof_C 	C 	0.48679	0.41843	0.61148	0.057
Mof_H 	H 	0.4968	0.4171	0.6006	-0
Mof_C 	C 	0.47538	0.43666	0.6126	-0.096
Mof_H 	H 	0.478	0.4478	0.6031	0.063
Mof_C 	C 	0.45993	0.43858	0.62779	0.004
Mof_H 	H 	0.4513	0.4507	0.6284	0.038
Mof_C 	C 	0.45751	0.42226	0.6421	-0.045
Mof_C 	C 	0.46999	0.40472	0.64026	0.031
Mof_H 	H 	0.4683	0.3938	0.6502	0.017
Mof_C 	C 	0.44123	0.42282	0.65868	0.134
Mof_C 	C 	0.41539	0.4397	0.67567	0.133
Mof_C 	C 	0.42411	0.40684	0.68511	0.133
Mof_C 	C 	0.40399	0.38822	0.71232	0.039
Mof_H 	H 	0.3958	0.4006	0.7137	0.012
Mof_C 	C 	0.42048	0.38815	0.69779	-0.051
Mof_C 	C 	0.43265	0.3704	0.69589	0.009
Mof_H 	H 	0.4438	0.3697	0.686	0.037
Mof_C 	C 	0.42808	0.35358	0.70891	-0.1
Mof_H 	H 	0.4364	0.3413	0.7084	0.067
Mof_C 	C 	0.4114	0.35489	0.72254	0.061
Mof_H 	H 	0.4084	0.3431	0.7311	0.001
Mof_C 	C 	0.41699	0.38862	0.76763	0.063
Mof_H 	H 	0.4159	0.3989	0.757	-0.001
Mof_C 	C 	0.4346	0.38834	0.7794	-0.103
Mof_H 	H 	0.4455	0.3981	0.7769	0.068
Mof_C 	C 	0.4364	0.37333	0.7953	0.009
Mof_H 	H 	0.4484	0.3729	0.8041	0.037
Mof_C 	C 	0.42016	0.35924	0.79783	-0.052
Mof_C 	C 	0.40269	0.36085	0.78502	0.042
Mof_H 	H 	0.3915	0.3513	0.787	0.011
Mof_C 	C 	0.42092	0.34302	0.81441	0.135
Mof_C 	C 	0.37389	0.32478	0.75059	0.108
Mof_N 	N 	0.38308	0.48525	0.65904	-0.223
Mof_N 	N 	0.47554	0.35699	0.63715	-0.261
Mof_N 	N 	0.48449	0.40242	0.62497	-0.224
Mof_N 	N 	0.43909	0.40582	0.6704	-0.151
Mof_N 	N 	0.42975	0.44029	0.66034	-0.15
Mof_N 	N 	0.41237	0.42387	0.68887	-0.151
Mof_N 	N 	0.39925	0.37185	0.72432	-0.229
Mof_N 	N 	0.37324	0.34238	0.74881	-0.264
Mof_N 	N 	0.40103	0.37524	0.77009	-0.229
Mof_N 	N 	0.43603	0.34428	0.82831	-0.152
Mof_S 	S 	0.45537	0.32812	0.66304	-0.059
Mof_S 	S 	0.37654	0.29928	0.75216	-0.062
Mof_C 	C 	0.35258	0.46989	0.09028	0.033
Mof_H 	H 	0.3444	0.4673	0.1024	0.014
Mof_C 	C 	0.34914	0.4575	0.07258	-0.046
Mof_C 	C 	0.36072	0.46138	0.05477	0.006
Mof_H 	H 	0.3592	0.453	0.0426	0.038
Mof_C 	C 	0.37482	0.4781	0.05514	-0.1
Mof_H 	H 	0.3824	0.4818	0.0429	0.066
Mof_C 	C 	0.37758	0.48907	0.07314	0.061
Mof_H 	H 	0.3876	0.5001	0.0732	-0
Mof_C 	C 	0.28338	0.34533	0.10226	0.098
Mof_C 	C 	0.26321	0.41843	0.13852	0.057
Mof_H 	H 	0.2532	0.4171	0.1494	-0
Mof_C 	C 	0.27462	0.43666	0.1374	-0.096
Mof_H 	H 	0.272	0.4478	0.1469	0.063
Mof_C 	C 	0.29007	0.43858	0.12221	0.004
Mof_H 	H 	0.2987	0.4507	0.1216	0.038
Mof_C 	C 	0.29249	0.42226	0.1079	-0.045
Mof_C 	C 	0.28001	0.40472	0.10974	0.031
Mof_H 	H 	0.2817	0.3938	0.0998	0.017
Mof_C 	C 	0.30877	0.42282	0.09132	0.134
Mof_C 	C 	0.33461	0.4397	0.07433	0.133
Mof_C 	C 	0.32589	0.40684	0.06489	0.133
Mof_C 	C 	0.34601	0.38822	0.03768	0.039
Mof_H 	H 	0.3542	0.4006	0.0363	0.012
Mof_C 	C 	0.32952	0.38815	0.05221	-0.051
Mof_C 	C 	0.31735	0.3704	0.05411	0.009
Mof_H 	H 	0.3062	0.3697	0.064	0.037
Mof_C 	C 	0.32192	0.35358	0.04109	-0.1
Mof_H 	H 	0.3136	0.3413	0.0416	0.067
Mof_C 	C 	0.3386	0.35489	0.02746	0.061
Mof_H 	H 	0.3416	0.3431	0.0189	0.001
Mof_C 	C 	0.33301	0.38862	0.98237	0.063
Mof_H 	H 	0.3341	0.3989	0.993	-0.001
Mof_C 	C 	0.3154	0.38834	0.9706	-0.103
Mof_H 	H 	0.3045	0.3981	0.9731	0.068
Mof_C 	C 	0.3136	0.37333	0.9547	0.009
Mof_H 	H 	0.3016	0.3729	0.9459	0.037
Mof_C 	C 	0.32984	0.35924	0.95217	-0.052
Mof_C 	C 	0.34731	0.36085	0.96498	0.042
Mof_H 	H 	0.3585	0.3513	0.963	0.011
Mof_C 	C 	0.32908	0.34302	0.93559	0.135
Mof_C 	C 	0.37611	0.32478	0.99941	0.108
Mof_N 	N 	0.36692	0.48525	0.09096	-0.223
Mof_N 	N 	0.27446	0.35699	0.11285	-0.261
Mof_N 	N 	0.26551	0.40242	0.12503	-0.224
Mof_N 	N 	0.31091	0.40582	0.0796	-0.151
Mof_N 	N 	0.32025	0.44029	0.08966	-0.15
Mof_N 	N 	0.33763	0.42387	0.06113	-0.151
Mof_N 	N 	0.35075	0.37185	0.02568	-0.229
Mof_N 	N 	0.37676	0.34238	0.00119	-0.264
Mof_N 	N 	0.34897	0.37524	0.97991	-0.229
Mof_N 	N 	0.31397	0.34428	0.92169	-0.152
Mof_S 	S 	0.29463	0.32812	0.08696	-0.059
Mof_S 	S 	0.37346	0.29928	0.99784	-0.062
Mof_C 	C 	0.35258	0.96989	0.59028	0.033
Mof_H 	H 	0.3444	0.9673	0.6024	0.014
Mof_C 	C 	0.34914	0.9575	0.57258	-0.046
Mof_C 	C 	0.36072	0.96138	0.55477	0.006
Mof_H 	H 	0.3592	0.953	0.5426	0.038
Mof_C 	C 	0.37482	0.9781	0.55514	-0.1
Mof_H 	H 	0.3824	0.9818	0.5429	0.066
Mof_C 	C 	0.37758	0.98907	0.57314	0.061
Mof_H 	H 	0.3876	0.0001	0.5732	-0
Mof_C 	C 	0.28338	0.84533	0.60226	0.098
Mof_C 	C 	0.26321	0.91843	0.63852	0.057
Mof_H 	H 	0.2532	0.9171	0.6494	-0
Mof_C 	C 	0.27462	0.93666	0.6374	-0.096
Mof_H 	H 	0.272	0.9478	0.6469	0.063
Mof_C 	C 	0.29007	0.93858	0.62221	0.004
Mof_H 	H 	0.2987	0.9507	0.6216	0.038
Mof_C 	C 	0.29249	0.92226	0.6079	-0.045
Mof_C 	C 	0.28001	0.90472	0.60974	0.031
Mof_H 	H 	0.2817	0.8938	0.5998	0.017
Mof_C 	C 	0.30877	0.92282	0.59132	0.134
Mof_C 	C 	0.33461	0.9397	0.57433	0.133
Mof_C 	C 	0.32589	0.90684	0.56489	0.133
Mof_C 	C 	0.34601	0.88822	0.53768	0.039
Mof_H 	H 	0.3542	0.9006	0.5363	0.012
Mof_C 	C 	0.32952	0.88815	0.55221	-0.051
Mof_C 	C 	0.31735	0.8704	0.55411	0.009
Mof_H 	H 	0.3062	0.8697	0.564	0.037
Mof_C 	C 	0.32192	0.85358	0.54109	-0.1
Mof_H 	H 	0.3136	0.8413	0.5416	0.067
Mof_C 	C 	0.3386	0.85489	0.52746	0.061
Mof_H 	H 	0.3416	0.8431	0.5189	0.001
Mof_C 	C 	0.33301	0.88862	0.48237	0.063
Mof_H 	H 	0.3341	0.8989	0.493	-0.001
Mof_C 	C 	0.3154	0.88834	0.4706	-0.103
Mof_H 	H 	0.3045	0.8981	0.4731	0.068
Mof_C 	C 	0.3136	0.87333	0.4547	0.009
Mof_H 	H 	0.3016	0.8729	0.4459	0.037
Mof_C 	C 	0.32984	0.85924	0.45217	-0.052
Mof_C 	C 	0.34731	0.86085	0.46498	0.042
Mof_H 	H 	0.3585	0.8513	0.463	0.011
Mof_C 	C 	0.32908	0.84302	0.43559	0.135
Mof_C 	C 	0.37611	0.82478	0.49941	0.108
Mof_N 	N 	0.36692	0.98525	0.59096	-0.223
Mof_N 	N 	0.27446	0.85699	0.61285	-0.261
Mof_N 	N 	0.26551	0.90242	0.62503	-0.224
Mof_N 	N 	0.31091	0.90582	0.5796	-0.151
Mof_N 	N 	0.32025	0.94029	0.58966	-0.15
Mof_N 	N 	0.33763	0.92387	0.56113	-0.151
Mof_N 	N 	0.35075	0.87185	0.52568	-0.229
Mof_N 	N 	0.37676	0.84238	0.50119	-0.264
Mof_N 	N 	0.34897	0.87524	0.47991	-0.229
Mof_N 	N 	0.31397	0.84428	0.42169	-0.152
Mof_S 	S 	0.29463	0.82812	0.58696	-0.059
Mof_S 	S 	0.37346	0.79928	0.49784	-0.062
Mof_C 	C 	0.85258	0.46989	0.59028	0.033
Mof_H 	H 	0.8444	0.4673	0.6024	0.014
Mof_C 	C 	0.84914	0.4575	0.57258	-0.046
Mof_C 	C 	0.86072	0.46138	0.55477	0.006
Mof_H 	H 	0.8592	0.453	0.5426	0.038
Mof_C 	C 	0.87482	0.4781	0.55514	-0.1
Mof_H 	H 	0.8824	0.4818	0.5429	0.066
Mof_C 	C 	0.87758	0.48907	0.57314	0.061
Mof_H 	H 	0.8876	0.5001	0.5732	-0
Mof_C 	C 	0.78338	0.34533	0.60226	0.098
Mof_C 	C 	0.76321	0.41843	0.63852	0.057
Mof_H 	H 	0.7532	0.4171	0.6494	-0
Mof_C 	C 	0.77462	0.43666	0.6374	-0.096
Mof_H 	H 	0.772	0.4478	0.6469	0.063
Mof_C 	C 	0.79007	0.43858	0.62221	0.004
Mof_H 	H 	0.7987	0.4507	0.6216	0.038
Mof_C 	C 	0.79249	0.42226	0.6079	-0.045
Mof_C 	C 	0.78001	0.40472	0.60974	0.031
Mof_H 	H 	0.7817	0.3938	0.5998	0.017
Mof_C 	C 	0.80877	0.42282	0.59132	0.134
Mof_C 	C 	0.83461	0.4397	0.57433	0.133
Mof_C 	C 	0.82589	0.40684	0.56489	0.133
Mof_C 	C 	0.84601	0.38822	0.53768	0.039
Mof_H 	H 	0.8542	0.4006	0.5363	0.012
Mof_C 	C 	0.82952	0.38815	0.55221	-0.051
Mof_C 	C 	0.81735	0.3704	0.55411	0.009
Mof_H 	H 	0.8062	0.3697	0.564	0.037
Mof_C 	C 	0.82192	0.35358	0.54109	-0.1
Mof_H 	H 	0.8136	0.3413	0.5416	0.067
Mof_C 	C 	0.8386	0.35489	0.52746	0.061
Mof_H 	H 	0.8416	0.3431	0.5189	0.001
Mof_C 	C 	0.83301	0.38862	0.48237	0.063
Mof_H 	H 	0.8341	0.3989	0.493	-0.001
Mof_C 	C 	0.8154	0.38834	0.4706	-0.103
Mof_H 	H 	0.8045	0.3981	0.4731	0.068
Mof_C 	C 	0.8136	0.37333	0.4547	0.009
Mof_H 	H 	0.8016	0.3729	0.4459	0.037
Mof_C 	C 	0.82984	0.35924	0.45217	-0.052
Mof_C 	C 	0.84731	0.36085	0.46498	0.042
Mof_H 	H 	0.8585	0.3513	0.463	0.011
Mof_C 	C 	0.82908	0.34302	0.43559	0.135
Mof_C 	C 	0.87611	0.32478	0.49941	0.108
Mof_N 	N 	0.86692	0.48525	0.59096	-0.223
Mof_N 	N 	0.77446	0.35699	0.61285	-0.261
Mof_N 	N 	0.76551	0.40242	0.62503	-0.224
Mof_N 	N 	0.81091	0.40582	0.5796	-0.151
Mof_N 	N 	0.82025	0.44029	0.58966	-0.15
Mof_N 	N 	0.83763	0.42387	0.56113	-0.151
Mof_N 	N 	0.85075	0.37185	0.52568	-0.229
Mof_N 	N 	0.87676	0.34238	0.50119	-0.264
Mof_N 	N 	0.84897	0.37524	0.47991	-0.229
Mof_N 	N 	0.81397	0.34428	0.42169	-0.152
Mof_S 	S 	0.79463	0.32812	0.58696	-0.059
Mof_S 	S 	0.87346	0.29928	0.49784	-0.062
Mof_C 	C 	0.85258	0.96989	0.09028	0.033
Mof_H 	H 	0.8444	0.9673	0.1024	0.014
Mof_C 	C 	0.84914	0.9575	0.07258	-0.046
Mof_C 	C 	0.86072	0.96138	0.05477	0.006
Mof_H 	H 	0.8592	0.953	0.0426	0.038
Mof_C 	C 	0.87482	0.9781	0.05514	-0.1
Mof_H 	H 	0.8824	0.9818	0.0429	0.066
Mof_C 	C 	0.87758	0.98907	0.07314	0.061
Mof_H 	H 	0.8876	0.0001	0.0732	-0
Mof_C 	C 	0.78338	0.84533	0.10226	0.098
Mof_C 	C 	0.76321	0.91843	0.13852	0.057
Mof_H 	H 	0.7532	0.9171	0.1494	-0
Mof_C 	C 	0.77462	0.93666	0.1374	-0.096
Mof_H 	H 	0.772	0.9478	0.1469	0.063
Mof_C 	C 	0.79007	0.93858	0.12221	0.004
Mof_H 	H 	0.7987	0.9507	0.1216	0.038
Mof_C 	C 	0.79249	0.92226	0.1079	-0.045
Mof_C 	C 	0.78001	0.90472	0.10974	0.031
Mof_H 	H 	0.7817	0.8938	0.0998	0.017
Mof_C 	C 	0.80877	0.92282	0.09132	0.134
Mof_C 	C 	0.83461	0.9397	0.07433	0.133
Mof_C 	C 	0.82589	0.90684	0.06489	0.133
Mof_C 	C 	0.84601	0.88822	0.03768	0.039
Mof_H 	H 	0.8542	0.9006	0.0363	0.012
Mof_C 	C 	0.82952	0.88815	0.05221	-0.051
Mof_C 	C 	0.81735	0.8704	0.05411	0.009
Mof_H 	H 	0.8062	0.8697	0.064	0.037
Mof_C 	C 	0.82192	0.85358	0.04109	-0.1
Mof_H 	H 	0.8136	0.8413	0.0416	0.067
Mof_C 	C 	0.8386	0.85489	0.02746	0.061
Mof_H 	H 	0.8416	0.8431	0.0189	0.001
Mof_C 	C 	0.83301	0.88862	0.98237	0.063
Mof_H 	H 	0.8341	0.8989	0.993	-0.001
Mof_C 	C 	0.8154	0.88834	0.9706	-0.103
Mof_H 	H 	0.8045	0.8981	0.9731	0.068
Mof_C 	C 	0.8136	0.87333	0.9547	0.009
Mof_H 	H 	0.8016	0.8729	0.9459	0.037
Mof_C 	C 	0.82984	0.85924	0.95217	-0.052
Mof_C 	C 	0.84731	0.86085	0.96498	0.042
Mof_H 	H 	0.8585	0.8513	0.963	0.011
Mof_C 	C 	0.82908	0.84302	0.93559	0.135
Mof_C 	C 	0.87611	0.82478	0.99941	0.108
Mof_N 	N 	0.86692	0.98525	0.09096	-0.223
Mof_N 	N 	0.77446	0.85699	0.11285	-0.261
Mof_N 	N 	0.76551	0.90242	0.12503	-0.224
Mof_N 	N 	0.81091	0.90582	0.0796	-0.151
Mof_N 	N 	0.82025	0.94029	0.08966	-0.15
Mof_N 	N 	0.83763	0.92387	0.06113	-0.151
Mof_N 	N 	0.85075	0.87185	0.02568	-0.229
Mof_N 	N 	0.87676	0.84238	0.00119	-0.264
Mof_N 	N 	0.84897	0.87524	0.97991	-0.229
Mof_N 	N 	0.81397	0.84428	0.92169	-0.152
Mof_S 	S 	0.79463	0.82812	0.08696	-0.059
Mof_S 	S 	0.87346	0.79928	0.99784	-0.062
Mof_C 	C 	0.64742	0.34028	0.21989	0.033
Mof_H 	H 	0.6556	0.3524	0.2173	0.014
Mof_C 	C 	0.65086	0.32258	0.2075	-0.046
Mof_C 	C 	0.63928	0.30477	0.21138	0.006
Mof_H 	H 	0.6408	0.2926	0.203	0.038
Mof_C 	C 	0.62518	0.30514	0.2281	-0.1
Mof_H 	H 	0.6176	0.2929	0.2318	0.066
Mof_C 	C 	0.62242	0.32314	0.23907	0.061
Mof_H 	H 	0.6124	0.3232	0.2501	-0
Mof_C 	C 	0.71662	0.35226	0.09533	0.098
Mof_C 	C 	0.73679	0.38852	0.16843	0.057
Mof_H 	H 	0.7468	0.3994	0.1671	-0
Mof_C 	C 	0.72538	0.3874	0.18666	-0.096
Mof_H 	H 	0.728	0.3969	0.1978	0.063
Mof_C 	C 	0.70993	0.37221	0.18858	0.004
Mof_H 	H 	0.7013	0.3716	0.2007	0.038
Mof_C 	C 	0.70751	0.3579	0.17226	-0.045
Mof_C 	C 	0.71999	0.35974	0.15472	0.031
Mof_H 	H 	0.7183	0.3498	0.1438	0.017
Mof_C 	C 	0.69123	0.34132	0.17282	0.134
Mof_C 	C 	0.66539	0.32433	0.1897	0.133
Mof_C 	C 	0.67411	0.31489	0.15684	0.133
Mof_C 	C 	0.65399	0.28768	0.13822	0.039
Mof_H 	H 	0.6458	0.2863	0.1506	0.012
Mof_C 	C 	0.67048	0.30221	0.13815	-0.051
Mof_C 	C 	0.68265	0.30411	0.1204	0.009
Mof_H 	H 	0.6938	0.314	0.1197	0.037
Mof_C 	C 	0.67808	0.29109	0.10358	-0.1
Mof_H 	H 	0.6864	0.2916	0.0913	0.067
Mof_C 	C 	0.6614	0.27746	0.10489	0.061
Mof_H 	H 	0.6584	0.2689	0.0931	0.001
Mof_C 	C 	0.66699	0.23237	0.13862	0.063
Mof_H 	H 	0.6659	0.243	0.1489	-0.001
Mof_C 	C 	0.6846	0.2206	0.13834	-0.103
Mof_H 	H 	0.6955	0.2231	0.1481	0.068
Mof_C 	C 	0.6864	0.2047	0.12333	0.009
Mof_H 	H 	0.6984	0.1959	0.1229	0.037
Mof_C 	C 	0.67016	0.20217	0.10924	-0.052
Mof_C 	C 	0.65269	0.21498	0.11085	0.042
Mof_H 	H 	0.6415	0.213	0.1013	0.011
Mof_C 	C 	0.67092	0.18559	0.09302	0.135
Mof_C 	C 	0.62389	0.24941	0.07478	0.108
Mof_N 	N 	0.63308	0.34096	0.23525	-0.223
Mof_N 	N 	0.72554	0.36285	0.10699	-0.261
Mof_N 	N 	0.73449	0.37503	0.15242	-0.224
Mof_N 	N 	0.68909	0.3296	0.15582	-0.151
Mof_N 	N 	0.67975	0.33966	0.19029	-0.15
Mof_N 	N 	0.66237	0.31113	0.17387	-0.151
Mof_N 	N 	0.64925	0.27568	0.12185	-0.229
Mof_N 	N 	0.62324	0.25119	0.09238	-0.264
Mof_N 	N 	0.65103	0.22991	0.12524	-0.229
Mof_N 	N 	0.68603	0.17169	0.09428	-0.152
Mof_S 	S 	0.70537	0.33696	0.07812	-0.059
Mof_S 	S 	0.62654	0.24784	0.04928	-0.062
Mof_C 	C 	0.64742	0.84028	0.71989	0.033
Mof_H 	H 	0.6556	0.8524	0.7173	0.014
Mof_C 	C 	0.65086	0.82258	0.7075	-0.046
Mof_C 	C 	0.63928	0.80477	0.71138	0.006
Mof_H 	H 	0.6408	0.7926	0.703	0.038
Mof_C 	C 	0.62518	0.80514	0.7281	-0.1
Mof_H 	H 	0.6176	0.7929	0.7318	0.066
Mof_C 	C 	0.62242	0.82314	0.73907	0.061
Mof_H 	H 	0.6124	0.8232	0.7501	-0
Mof_C 	C 	0.71662	0.85226	0.59533	0.098
Mof_C 	C 	0.73679	0.88852	0.66843	0.057
Mof_H 	H 	0.7468	0.8994	0.6671	-0
Mof_C 	C 	0.72538	0.8874	0.68666	-0.096
Mof_H 	H 	0.728	0.8969	0.6978	0.063
Mof_C 	C 	0.70993	0.87221	0.68858	0.004
Mof_H 	H 	0.7013	0.8716	0.7007	0.038
Mof_C 	C 	0.70751	0.8579	0.67226	-0.045
Mof_C 	C 	0.71999	0.85974	0.65472	0.031
Mof_H 	H 	0.7183	0.8498	0.6438	0.017
Mof_C 	C 	0.69123	0.84132	0.67282	0.134
Mof_C 	C 	0.66539	0.82433	0.6897	0.133
Mof_C 	C 	0.67411	0.81489	0.65684	0.133
Mof_C 	C 	0.65399	0.78768	0.63822	0.039
Mof_H 	H 	0.6458	0.7863	0.6506	0.012
Mof_C 	C 	0.67048	0.80221	0.63815	-0.051
Mof_C 	C 	0.68265	0.80411	0.6204	0.009
Mof_H 	H 	0.6938	0.814	0.6197	0.037
Mof_C 	C 	0.67808	0.79109	0.60358	-0.1
Mof_H 	H 	0.6864	0.7916	0.5913	0.067
Mof_C 	C 	0.6614	0.77746	0.60489	0.061
Mof_H 	H 	0.6584	0.7689	0.5931	0.001
Mof_C 	C 	0.66699	0.73237	0.63862	0.063
Mof_H 	H 	0.6659	0.743	0.6489	-0.001
Mof_C 	C 	0.6846	0.7206	0.63834	-0.103
Mof_H 	H 	0.6955	0.7231	0.6481	0.068
Mof_C 	C 	0.6864	0.7047	0.62333	0.009
Mof_H 	H 	0.6984	0.6959	0.6229	0.037
Mof_C 	C 	0.67016	0.70217	0.60924	-0.052
Mof_C 	C 	0.65269	0.71498	0.61085	0.042
Mof_H 	H 	0.6415	0.713	0.6013	0.011
Mof_C 	C 	0.67092	0.68559	0.59302	0.135
Mof_C 	C 	0.62389	0.74941	0.57478	0.108
Mof_N 	N 	0.63308	0.84096	0.73525	-0.223
Mof_N 	N 	0.72554	0.86285	0.60699	-0.261
Mof_N 	N 	0.73449	0.87503	0.65242	-0.224
Mof_N 	N 	0.68909	0.8296	0.65582	-0.151
Mof_N 	N 	0.67975	0.83966	0.69029	-0.15
Mof_N 	N 	0.66237	0.81113	0.67387	-0.151
Mof_N 	N 	0.64925	0.77568	0.62185	-0.229
Mof_N 	N 	0.62324	0.75119	0.59238	-0.264
Mof_N 	N 	0.65103	0.72991	0.62524	-0.229
Mof_N 	N 	0.68603	0.67169	0.59428	-0.152
Mof_S 	S 	0.70537	0.83696	0.57812	-0.059
Mof_S 	S 	0.62654	0.74784	0.54928	-0.062
Mof_C 	C 	0.14742	0.34028	0.71989	0.033
Mof_H 	H 	0.1556	0.3524	0.7173	0.014
Mof_C 	C 	0.15086	0.32258	0.7075	-0.046
Mof_C 	C 	0.13928	0.30477	0.71138	0.006
Mof_H 	H 	0.1408	0.2926	0.703	0.038
Mof_C 	C 	0.12518	0.30514	0.7281	-0.1
Mof_H 	H 	0.1176	0.2929	0.7318	0.066
Mof_C 	C 	0.12242	0.32314	0.73907	0.061
Mof_H 	H 	0.1124	0.3232	0.7501	-0
Mof_C 	C 	0.21662	0.35226	0.59533	0.098
Mof_C 	C 	0.23679	0.38852	0.66843	0.057
Mof_H 	H 	0.2468	0.3994	0.6671	-0
Mof_C 	C 	0.22538	0.3874	0.68666	-0.096
Mof_H 	H 	0.228	0.3969	0.6978	0.063
Mof_C 	C 	0.20993	0.37221	0.68858	0.004
Mof_H 	H 	0.2013	0.3716	0.7007	0.038
Mof_C 	C 	0.20751	0.3579	0.67226	-0.045
Mof_C 	C 	0.21999	0.35974	0.65472	0.031
Mof_H 	H 	0.2183	0.3498	0.6438	0.017
Mof_C 	C 	0.19123	0.34132	0.67282	0.134
Mof_C 	C 	0.16539	0.32433	0.6897	0.133
Mof_C 	C 	0.17411	0.31489	0.65684	0.133
Mof_C 	C 	0.15399	0.28768	0.63822	0.039
Mof_H 	H 	0.1458	0.2863	0.6506	0.012
Mof_C 	C 	0.17048	0.30221	0.63815	-0.051
Mof_C 	C 	0.18265	0.30411	0.6204	0.009
Mof_H 	H 	0.1938	0.314	0.6197	0.037
Mof_C 	C 	0.17808	0.29109	0.60358	-0.1
Mof_H 	H 	0.1864	0.2916	0.5913	0.067
Mof_C 	C 	0.1614	0.27746	0.60489	0.061
Mof_H 	H 	0.1584	0.2689	0.5931	0.001
Mof_C 	C 	0.16699	0.23237	0.63862	0.063
Mof_H 	H 	0.1659	0.243	0.6489	-0.001
Mof_C 	C 	0.1846	0.2206	0.63834	-0.103
Mof_H 	H 	0.1955	0.2231	0.6481	0.068
Mof_C 	C 	0.1864	0.2047	0.62333	0.009
Mof_H 	H 	0.1984	0.1959	0.6229	0.037
Mof_C 	C 	0.17016	0.20217	0.60924	-0.052
Mof_C 	C 	0.15269	0.21498	0.61085	0.042
Mof_H 	H 	0.1415	0.213	0.6013	0.011
Mof_C 	C 	0.17092	0.18559	0.59302	0.135
Mof_C 	C 	0.12389	0.24941	0.57478	0.108
Mof_N 	N 	0.13308	0.34096	0.73525	-0.223
Mof_N 	N 	0.22554	0.36285	0.60699	-0.261
Mof_N 	N 	0.23449	0.37503	0.65242	-0.224
Mof_N 	N 	0.18909	0.3296	0.65582	-0.151
Mof_N 	N 	0.17975	0.33966	0.69029	-0.15
Mof_N 	N 	0.16237	0.31113	0.67387	-0.151
Mof_N 	N 	0.14925	0.27568	0.62185	-0.229
Mof_N 	N 	0.12324	0.25119	0.59238	-0.264
Mof_N 	N 	0.15103	0.22991	0.62524	-0.229
Mof_N 	N 	0.18603	0.17169	0.59428	-0.152
Mof_S 	S 	0.20537	0.33696	0.57812	-0.059
Mof_S 	S 	0.12654	0.24784	0.54928	-0.062
Mof_C 	C 	0.14742	0.84028	0.21989	0.033
Mof_H 	H 	0.1556	0.8524	0.2173	0.014
Mof_C 	C 	0.15086	0.82258	0.2075	-0.046
Mof_C 	C 	0.13928	0.80477	0.21138	0.006
Mof_H 	H 	0.1408	0.7926	0.203	0.038
Mof_C 	C 	0.12518	0.80514	0.2281	-0.1
Mof_H 	H 	0.1176	0.7929	0.2318	0.066
Mof_C 	C 	0.12242	0.82314	0.23907	0.061
Mof_H 	H 	0.1124	0.8232	0.2501	-0
Mof_C 	C 	0.21662	0.85226	0.09533	0.098
Mof_C 	C 	0.23679	0.88852	0.16843	0.057
Mof_H 	H 	0.2468	0.8994	0.1671	-0
Mof_C 	C 	0.22538	0.8874	0.18666	-0.096
Mof_H 	H 	0.228	0.8969	0.1978	0.063
Mof_C 	C 	0.20993	0.87221	0.18858	0.004
Mof_H 	H 	0.2013	0.8716	0.2007	0.038
Mof_C 	C 	0.20751	0.8579	0.17226	-0.045
Mof_C 	C 	0.21999	0.85974	0.15472	0.031
Mof_H 	H 	0.2183	0.8498	0.1438	0.017
Mof_C 	C 	0.19123	0.84132	0.17282	0.134
Mof_C 	C 	0.16539	0.82433	0.1897	0.133
Mof_C 	C 	0.17411	0.81489	0.15684	0.133
Mof_C 	C 	0.15399	0.78768	0.13822	0.039
Mof_H 	H 	0.1458	0.7863	0.1506	0.012
Mof_C 	C 	0.17048	0.80221	0.13815	-0.051
Mof_C 	C 	0.18265	0.80411	0.1204	0.009
Mof_H 	H 	0.1938	0.814	0.1197	0.037
Mof_C 	C 	0.17808	0.79109	0.10358	-0.1
Mof_H 	H 	0.1864	0.7916	0.0913	0.067
Mof_C 	C 	0.1614	0.77746	0.10489	0.061
Mof_H 	H 	0.1584	0.7689	0.0931	0.001
Mof_C 	C 	0.16699	0.73237	0.13862	0.063
Mof_H 	H 	0.1659	0.743	0.1489	-0.001
Mof_C 	C 	0.1846	0.7206	0.13834	-0.103
Mof_H 	H 	0.1955	0.7231	0.1481	0.068
Mof_C 	C 	0.1864	0.7047	0.12333	0.009
Mof_H 	H 	0.1984	0.6959	0.1229	0.037
Mof_C 	C 	0.17016	0.70217	0.10924	-0.052
Mof_C 	C 	0.15269	0.71498	0.11085	0.042
Mof_H 	H 	0.1415	0.713	0.1013	0.011
Mof_C 	C 	0.17092	0.68559	0.09302	0.135
Mof_C 	C 	0.12389	0.74941	0.07478	0.108
Mof_N 	N 	0.13308	0.84096	0.23525	-0.223
Mof_N 	N 	0.22554	0.86285	0.10699	-0.261
Mof_N 	N 	0.23449	0.87503	0.15242	-0.224
Mof_N 	N 	0.18909	0.8296	0.15582	-0.151
Mof_N 	N 	0.17975	0.83966	0.19029	-0.15
Mof_N 	N 	0.16237	0.81113	0.17387	-0.151
Mof_N 	N 	0.14925	0.77568	0.12185	-0.229
Mof_N 	N 	0.12324	0.75119	0.09238	-0.264
Mof_N 	N 	0.15103	0.72991	0.12524	-0.229
Mof_N 	N 	0.18603	0.67169	0.09428	-0.152
Mof_S 	S 	0.20537	0.83696	0.07812	-0.059
Mof_S 	S 	0.12654	0.74784	0.04928	-0.062
Mof_C 	C 	0.10258	0.90972	0.71989	0.033
Mof_H 	H 	0.0944	0.8976	0.7173	0.014
Mof_C 	C 	0.09914	0.92742	0.7075	-0.046
Mof_C 	C 	0.11072	0.94523	0.71138	0.006
Mof_H 	H 	0.1092	0.9574	0.703	0.038
Mof_C 	C 	0.12482	0.94486	0.7281	-0.1
Mof_H 	H 	0.1324	0.9571	0.7318	0.066
Mof_C 	C 	0.12758	0.92686	0.73907	0.061
Mof_H 	H 	0.1376	0.9268	0.7501	-0
Mof_C 	C 	0.03338	0.89774	0.59533	0.098
Mof_C 	C 	0.01321	0.86148	0.66843	0.057
Mof_H 	H 	0.0032	0.8506	0.6671	-0
Mof_C 	C 	0.02462	0.8626	0.68666	-0.096
Mof_H 	H 	0.022	0.8531	0.6978	0.063
Mof_C 	C 	0.04007	0.87779	0.68858	0.004
Mof_H 	H 	0.0487	0.8784	0.7007	0.038
Mof_C 	C 	0.04249	0.8921	0.67226	-0.045
Mof_C 	C 	0.03001	0.89026	0.65472	0.031
Mof_H 	H 	0.0317	0.9002	0.6438	0.017
Mof_C 	C 	0.05877	0.90868	0.67282	0.134
Mof_C 	C 	0.08461	0.92567	0.6897	0.133
Mof_C 	C 	0.07589	0.93511	0.65684	0.133
Mof_C 	C 	0.09601	0.96232	0.63822	0.039
Mof_H 	H 	0.1042	0.9637	0.6506	0.012
Mof_C 	C 	0.07952	0.94779	0.63815	-0.051
Mof_C 	C 	0.06735	0.94589	0.6204	0.009
Mof_H 	H 	0.0562	0.936	0.6197	0.037
Mof_C 	C 	0.07192	0.95891	0.60358	-0.1
Mof_H 	H 	0.0636	0.9584	0.5913	0.067
Mof_C 	C 	0.0886	0.97254	0.60489	0.061
Mof_H 	H 	0.0916	0.9811	0.5931	0.001
Mof_C 	C 	0.08301	0.01763	0.63862	0.063
Mof_H 	H 	0.0841	0.007	0.6489	-0.001
Mof_C 	C 	0.0654	0.0294	0.63834	-0.103
Mof_H 	H 	0.0545	0.0269	0.6481	0.068
Mof_C 	C 	0.0636	0.0453	0.62333	0.009
Mof_H 	H 	0.0516	0.0541	0.6229	0.037
Mof_C 	C 	0.07984	0.04783	0.60924	-0.052
Mof_C 	C 	0.09731	0.03502	0.61085	0.042
Mof_H 	H 	0.1085	0.037	0.6013	0.011
Mof_C 	C 	0.07908	0.06441	0.59302	0.135
Mof_C 	C 	0.12611	0.00059	0.57478	0.108
Mof_N 	N 	0.11692	0.90904	0.73525	-0.223
Mof_N 	N 	0.02446	0.88715	0.60699	-0.261
Mof_N 	N 	0.01551	0.87497	0.65242	-0.224
Mof_N 	N 	0.06091	0.9204	0.65582	-0.151
Mof_N 	N 	0.07025	0.91034	0.69029	-0.15
Mof_N 	N 	0.08763	0.93887	0.67387	-0.151
Mof_N 	N 	0.10075	0.97432	0.62185	-0.229
Mof_N 	N 	0.12676	0.99881	0.59238	-0.264
Mof_N 	N 	0.09897	0.02009	0.62524	-0.229
Mof_N 	N 	0.06397	0.07831	0.59428	-0.152
Mof_S 	S 	0.04463	0.91304	0.57812	-0.059
Mof_S 	S 	0.12346	0.00216	0.54928	-0.062
Mof_C 	C 	0.10258	0.40972	0.21989	0.033
Mof_H 	H 	0.0944	0.3976	0.2173	0.014
Mof_C 	C 	0.09914	0.42742	0.2075	-0.046
Mof_C 	C 	0.11072	0.44523	0.21138	0.006
Mof_H 	H 	0.1092	0.4574	0.203	0.038
Mof_C 	C 	0.12482	0.44486	0.2281	-0.1
Mof_H 	H 	0.1324	0.4571	0.2318	0.066
Mof_C 	C 	0.12758	0.42686	0.23907	0.061
Mof_H 	H 	0.1376	0.4268	0.2501	-0
Mof_C 	C 	0.03338	0.39774	0.09533	0.098
Mof_C 	C 	0.01321	0.36148	0.16843	0.057
Mof_H 	H 	0.0032	0.3506	0.1671	-0
Mof_C 	C 	0.02462	0.3626	0.18666	-0.096
Mof_H 	H 	0.022	0.3531	0.1978	0.063
Mof_C 	C 	0.04007	0.37779	0.18858	0.004
Mof_H 	H 	0.0487	0.3784	0.2007	0.038
Mof_C 	C 	0.04249	0.3921	0.17226	-0.045
Mof_C 	C 	0.03001	0.39026	0.15472	0.031
Mof_H 	H 	0.0317	0.4002	0.1438	0.017
Mof_C 	C 	0.05877	0.40868	0.17282	0.134
Mof_C 	C 	0.08461	0.42567	0.1897	0.133
Mof_C 	C 	0.07589	0.43511	0.15684	0.133
Mof_C 	C 	0.09601	0.46232	0.13822	0.039
Mof_H 	H 	0.1042	0.4637	0.1506	0.012
Mof_C 	C 	0.07952	0.44779	0.13815	-0.051
Mof_C 	C 	0.06735	0.44589	0.1204	0.009
Mof_H 	H 	0.0562	0.436	0.1197	0.037
Mof_C 	C 	0.07192	0.45891	0.10358	-0.1
Mof_H 	H 	0.0636	0.4584	0.0913	0.067
Mof_C 	C 	0.0886	0.47254	0.10489	0.061
Mof_H 	H 	0.0916	0.4811	0.0931	0.001
Mof_C 	C 	0.08301	0.51763	0.13862	0.063
Mof_H 	H 	0.0841	0.507	0.1489	-0.001
Mof_C 	C 	0.0654	0.5294	0.13834	-0.103
Mof_H 	H 	0.0545	0.5269	0.1481	0.068
Mof_C 	C 	0.0636	0.5453	0.12333	0.009
Mof_H 	H 	0.0516	0.5541	0.1229	0.037
Mof_C 	C 	0.07984	0.54783	0.10924	-0.052
Mof_C 	C 	0.09731	0.53502	0.11085	0.042
Mof_H 	H 	0.1085	0.537	0.1013	0.011
Mof_C 	C 	0.07908	0.56441	0.09302	0.135
Mof_C 	C 	0.12611	0.50059	0.07478	0.108
Mof_N 	N 	0.11692	0.40904	0.23525	-0.223
Mof_N 	N 	0.02446	0.38715	0.10699	-0.261
Mof_N 	N 	0.01551	0.37497	0.15242	-0.224
Mof_N 	N 	0.06091	0.4204	0.15582	-0.151
Mof_N 	N 	0.07025	0.41034	0.19029	-0.15
Mof_N 	N 	0.08763	0.43887	0.17387	-0.151
Mof_N 	N 	0.10075	0.47432	0.12185	-0.229
Mof_N 	N 	0.12676	0.49881	0.09238	-0.264
Mof_N 	N 	0.09897	0.52009	0.12524	-0.229
Mof_N 	N 	0.06397	0.57831	0.09428	-0.152
Mof_S 	S 	0.04463	0.41304	0.07812	-0.059
Mof_S 	S 	0.12346	0.50216	0.04928	-0.062
Mof_C 	C 	0.60258	0.90972	0.21989	0.033
Mof_H 	H 	0.5944	0.8976	0.2173	0.014
Mof_C 	C 	0.59914	0.92742	0.2075	-0.046
Mof_C 	C 	0.61072	0.94523	0.21138	0.006
Mof_H 	H 	0.6092	0.9574	0.203	0.038
Mof_C 	C 	0.62482	0.94486	0.2281	-0.1
Mof_H 	H 	0.6324	0.9571	0.2318	0.066
Mof_C 	C 	0.62758	0.92686	0.23907	0.061
Mof_H 	H 	0.6376	0.9268	0.2501	-0
Mof_C 	C 	0.53338	0.89774	0.09533	0.098
Mof_C 	C 	0.51321	0.86148	0.16843	0.057
Mof_H 	H 	0.5032	0.8506	0.1671	-0
Mof_C 	C 	0.52462	0.8626	0.18666	-0.096
Mof_H 	H 	0.522	0.8531	0.1978	0.063
Mof_C 	C 	0.54007	0.87779	0.18858	0.004
Mof_H 	H 	0.5487	0.8784	0.2007	0.038
Mof_C 	C 	0.54249	0.8921	0.17226	-0.045
Mof_C 	C 	0.53001	0.89026	0.15472	0.031
Mof_H 	H 	0.5317	0.9002	0.1438	0.017
Mof_C 	C 	0.55877	0.90868	0.17282	0.134
Mof_C 	C 	0.58461	0.92567	0.1897	0.133
Mof_C 	C 	0.57589	0.93511	0.15684	0.133
Mof_C 	C 	0.59601	0.96232	0.13822	0.039
Mof_H 	H 	0.6042	0.9637	0.1506	0.012
Mof_C 	C 	0.57952	0.94779	0.13815	-0.051
Mof_C 	C 	0.56735	0.94589	0.1204	0.009
Mof_H 	H 	0.5562	0.936	0.1197	0.037
Mof_C 	C 	0.57192	0.95891	0.10358	-0.1
Mof_H 	H 	0.5636	0.9584	0.0913	0.067
Mof_C 	C 	0.5886	0.97254	0.10489	0.061
Mof_H 	H 	0.5916	0.9811	0.0931	0.001
Mof_C 	C 	0.58301	0.01763	0.13862	0.063
Mof_H 	H 	0.5841	0.007	0.1489	-0.001
Mof_C 	C 	0.5654	0.0294	0.13834	-0.103
Mof_H 	H 	0.5545	0.0269	0.1481	0.068
Mof_C 	C 	0.5636	0.0453	0.12333	0.009
Mof_H 	H 	0.5516	0.0541	0.1229	0.037
Mof_C 	C 	0.57984	0.04783	0.10924	-0.052
Mof_C 	C 	0.59731	0.03502	0.11085	0.042
Mof_H 	H 	0.6085	0.037	0.1013	0.011
Mof_C 	C 	0.57908	0.06441	0.09302	0.135
Mof_C 	C 	0.62611	0.00059	0.07478	0.108
Mof_N 	N 	0.61692	0.90904	0.23525	-0.223
Mof_N 	N 	0.52446	0.88715	0.10699	-0.261
Mof_N 	N 	0.51551	0.87497	0.15242	-0.224
Mof_N 	N 	0.56091	0.9204	0.15582	-0.151
Mof_N 	N 	0.57025	0.91034	0.19029	-0.15
Mof_N 	N 	0.58763	0.93887	0.17387	-0.151
Mof_N 	N 	0.60075	0.97432	0.12185	-0.229
Mof_N 	N 	0.62676	0.99881	0.09238	-0.264
Mof_N 	N 	0.59897	0.02009	0.12524	-0.229
Mof_N 	N 	0.56397	0.07831	0.09428	-0.152
Mof_S 	S 	0.54463	0.91304	0.07812	-0.059
Mof_S 	S 	0.62346	0.00216	0.04928	-0.062
Mof_C 	C 	0.60258	0.40972	0.71989	0.033
Mof_H 	H 	0.5944	0.3976	0.7173	0.014
Mof_C 	C 	0.59914	0.42742	0.7075	-0.046
Mof_C 	C 	0.61072	0.44523	0.71138	0.006
Mof_H 	H 	0.6092	0.4574	0.703	0.038
Mof_C 	C 	0.62482	0.44486	0.7281	-0.1
Mof_H 	H 	0.6324	0.4571	0.7318	0.066
Mof_C 	C 	0.62758	0.42686	0.73907	0.061
Mof_H 	H 	0.6376	0.4268	0.7501	-0
Mof_C 	C 	0.53338	0.39774	0.59533	0.098
Mof_C 	C 	0.51321	0.36148	0.66843	0.057
Mof_H 	H 	0.5032	0.3506	0.6671	-0
Mof_C 	C 	0.52462	0.3626	0.68666	-0.096
Mof_H 	H 	0.522	0.3531	0.6978	0.063
Mof_C 	C 	0.54007	0.37779	0.68858	0.004
Mof_H 	H 	0.5487	0.3784	0.7007	0.038
Mof_C 	C 	0.54249	0.3921	0.67226	-0.045
Mof_C 	C 	0.53001	0.39026	0.65472	0.031
Mof_H 	H 	0.5317	0.4002	0.6438	0.017
Mof_C 	C 	0.55877	0.40868	0.67282	0.134
Mof_C 	C 	0.58461	0.42567	0.6897	0.133
Mof_C 	C 	0.57589	0.43511	0.65684	0.133
Mof_C 	C 	0.59601	0.46232	0.63822	0.039
Mof_H 	H 	0.6042	0.4637	0.6506	0.012
Mof_C 	C 	0.57952	0.44779	0.63815	-0.051
Mof_C 	C 	0.56735	0.44589	0.6204	0.009
Mof_H 	H 	0.5562	0.436	0.6197	0.037
Mof_C 	C 	0.57192	0.45891	0.60358	-0.1
Mof_H 	H 	0.5636	0.4584	0.5913	0.067
Mof_C 	C 	0.5886	0.47254	0.60489	0.061
Mof_H 	H 	0.5916	0.4811	0.5931	0.001
Mof_C 	C 	0.58301	0.51763	0.63862	0.063
Mof_H 	H 	0.5841	0.507	0.6489	-0.001
Mof_C 	C 	0.5654	0.5294	0.63834	-0.103
Mof_H 	H 	0.5545	0.5269	0.6481	0.068
Mof_C 	C 	0.5636	0.5453	0.62333	0.009
Mof_H 	H 	0.5516	0.5541	0.6229	0.037
Mof_C 	C 	0.57984	0.54783	0.60924	-0.052
Mof_C 	C 	0.59731	0.53502	0.61085	0.042
Mof_H 	H 	0.6085	0.537	0.6013	0.011
Mof_C 	C 	0.57908	0.56441	0.59302	0.135
Mof_C 	C 	0.62611	0.50059	0.57478	0.108
Mof_N 	N 	0.61692	0.40904	0.73525	-0.223
Mof_N 	N 	0.52446	0.38715	0.60699	-0.261
Mof_N 	N 	0.51551	0.37497	0.65242	-0.224
Mof_N 	N 	0.56091	0.4204	0.65582	-0.151
Mof_N 	N 	0.57025	0.41034	0.69029	-0.15
Mof_N 	N 	0.58763	0.43887	0.67387	-0.151
Mof_N 	N 	0.60075	0.47432	0.62185	-0.229
Mof_N 	N 	0.62676	0.49881	0.59238	-0.264
Mof_N 	N 	0.59897	0.52009	0.62524	-0.229
Mof_N 	N 	0.56397	0.57831	0.59428	-0.152
Mof_S 	S 	0.54463	0.41304	0.57812	-0.059
Mof_S 	S 	0.62346	0.50216	0.54928	-0.062
Mof_C 	C 	0.14742	0.40972	0.03011	0.033
Mof_H 	H 	0.1556	0.3976	0.0327	0.014
Mof_C 	C 	0.15086	0.42742	0.0425	-0.046
Mof_C 	C 	0.13928	0.44523	0.03862	0.006
Mof_H 	H 	0.1408	0.4574	0.047	0.038
Mof_C 	C 	0.12518	0.44486	0.0219	-0.1
Mof_H 	H 	0.1176	0.4571	0.0182	0.066
Mof_C 	C 	0.12242	0.42686	0.01093	0.061
Mof_H 	H 	0.1124	0.4268	0.9999	-0
Mof_C 	C 	0.21662	0.39774	0.15467	0.098
Mof_C 	C 	0.23679	0.36148	0.08157	0.057
Mof_H 	H 	0.2468	0.3506	0.0829	-0
Mof_C 	C 	0.22538	0.3626	0.06334	-0.096
Mof_H 	H 	0.228	0.3531	0.0522	0.063
Mof_C 	C 	0.20993	0.37779	0.06142	0.004
Mof_H 	H 	0.2013	0.3784	0.0493	0.038
Mof_C 	C 	0.20751	0.3921	0.07774	-0.045
Mof_C 	C 	0.21999	0.39026	0.09528	0.031
Mof_H 	H 	0.2183	0.4002	0.1062	0.017
Mof_C 	C 	0.19123	0.40868	0.07718	0.134
Mof_C 	C 	0.16539	0.42567	0.0603	0.133
Mof_C 	C 	0.17411	0.43511	0.09316	0.133
Mof_C 	C 	0.15399	0.46232	0.11178	0.039
Mof_H 	H 	0.1458	0.4637	0.0994	0.012
Mof_C 	C 	0.17048	0.44779	0.11185	-0.051
Mof_C 	C 	0.18265	0.44589	0.1296	0.009
Mof_H 	H 	0.1938	0.436	0.1303	0.037
Mof_C 	C 	0.17808	0.45891	0.14642	-0.1
Mof_H 	H 	0.1864	0.4584	0.1587	0.067
Mof_C 	C 	0.1614	0.47254	0.14511	0.061
Mof_H 	H 	0.1584	0.4811	0.1569	0.001
Mof_C 	C 	0.16699	0.51763	0.11138	0.063
Mof_H 	H 	0.1659	0.507	0.1011	-0.001
Mof_C 	C 	0.1846	0.5294	0.11166	-0.103
Mof_H 	H 	0.1955	0.5269	0.1019	0.068
Mof_C 	C 	0.1864	0.5453	0.12667	0.009
Mof_H 	H 	0.1984	0.5541	0.1271	0.037
Mof_C 	C 	0.17016	0.54783	0.14076	-0.052
Mof_C 	C 	0.15269	0.53502	0.13915	0.042
Mof_H 	H 	0.1415	0.537	0.1487	0.011
Mof_C 	C 	0.17092	0.56441	0.15698	0.135
Mof_C 	C 	0.12389	0.50059	0.17522	0.108
Mof_N 	N 	0.13308	0.40904	0.01475	-0.223
Mof_N 	N 	0.22554	0.38715	0.14301	-0.261
Mof_N 	N 	0.23449	0.37497	0.09758	-0.224
Mof_N 	N 	0.18909	0.4204	0.09418	-0.151
Mof_N 	N 	0.17975	0.41034	0.05971	-0.15
Mof_N 	N 	0.16237	0.43887	0.07613	-0.151
Mof_N 	N 	0.14925	0.47432	0.12815	-0.229
Mof_N 	N 	0.12324	0.49881	0.15762	-0.264
Mof_N 	N 	0.15103	0.52009	0.12476	-0.229
Mof_N 	N 	0.18603	0.57831	0.15572	-0.152
Mof_S 	S 	0.20537	0.41304	0.17188	-0.059
Mof_S 	S 	0.12654	0.50216	0.20072	-0.062
Mof_C 	C 	0.14742	0.90972	0.53011	0.033
Mof_H 	H 	0.1556	0.8976	0.5327	0.014
Mof_C 	C 	0.15086	0.92742	0.5425	-0.046
Mof_C 	C 	0.13928	0.94523	0.53862	0.006
Mof_H 	H 	0.1408	0.9574	0.547	0.038
Mof_C 	C 	0.12518	0.94486	0.5219	-0.1
Mof_H 	H 	0.1176	0.9571	0.5182	0.066
Mof_C 	C 	0.12242	0.92686	0.51093	0.061
Mof_H 	H 	0.1124	0.9268	0.4999	-0
Mof_C 	C 	0.21662	0.89774	0.65467	0.098
Mof_C 	C 	0.23679	0.86148	0.58157	0.057
Mof_H 	H 	0.2468	0.8506	0.5829	-0
Mof_C 	C 	0.22538	0.8626	0.56334	-0.096
Mof_H 	H 	0.228	0.8531	0.5522	0.063
Mof_C 	C 	0.20993	0.87779	0.56142	0.004
Mof_H 	H 	0.2013	0.8784	0.5493	0.038
Mof_C 	C 	0.20751	0.8921	0.57774	-0.045
Mof_C 	C 	0.21999	0.89026	0.59528	0.031
Mof_H 	H 	0.2183	0.9002	0.6062	0.017
Mof_C 	C 	0.19123	0.90868	0.57718	0.134
Mof_C 	C 	0.16539	0.92567	0.5603	0.133
Mof_C 	C 	0.17411	0.93511	0.59316	0.133
Mof_C 	C 	0.15399	0.96232	0.61178	0.039
Mof_H 	H 	0.1458	0.9637	0.5994	0.012
Mof_C 	C 	0.17048	0.94779	0.61185	-0.051
Mof_C 	C 	0.18265	0.94589	0.6296	0.009
Mof_H 	H 	0.1938	0.936	0.6303	0.037
Mof_C 	C 	0.17808	0.95891	0.64642	-0.1
Mof_H 	H 	0.1864	0.9584	0.6587	0.067
Mof_C 	C 	0.1614	0.97254	0.64511	0.061
Mof_H 	H 	0.1584	0.9811	0.6569	0.001
Mof_C 	C 	0.16699	0.01763	0.61138	0.063
Mof_H 	H 	0.1659	0.007	0.6011	-0.001
Mof_C 	C 	0.1846	0.0294	0.61166	-0.103
Mof_H 	H 	0.1955	0.0269	0.6019	0.068
Mof_C 	C 	0.1864	0.0453	0.62667	0.009
Mof_H 	H 	0.1984	0.0541	0.6271	0.037
Mof_C 	C 	0.17016	0.04783	0.64076	-0.052
Mof_C 	C 	0.15269	0.03502	0.63915	0.042
Mof_H 	H 	0.1415	0.037	0.6487	0.011
Mof_C 	C 	0.17092	0.06441	0.65698	0.135
Mof_C 	C 	0.12389	0.00059	0.67522	0.108
Mof_N 	N 	0.13308	0.90904	0.51475	-0.223
Mof_N 	N 	0.22554	0.88715	0.64301	-0.261
Mof_N 	N 	0.23449	0.87497	0.59758	-0.224
Mof_N 	N 	0.18909	0.9204	0.59418	-0.151
Mof_N 	N 	0.17975	0.91034	0.55971	-0.15
Mof_N 	N 	0.16237	0.93887	0.57613	-0.151
Mof_N 	N 	0.14925	0.97432	0.62815	-0.229
Mof_N 	N 	0.12324	0.99881	0.65762	-0.264
Mof_N 	N 	0.15103	0.02009	0.62476	-0.229
Mof_N 	N 	0.18603	0.07831	0.65572	-0.152
Mof_S 	S 	0.20537	0.91304	0.67188	-0.059
Mof_S 	S 	0.12654	0.00216	0.70072	-0.062
Mof_C 	C 	0.64742	0.40972	0.53011	0.033
Mof_H 	H 	0.6556	0.3976	0.5327	0.014
Mof_C 	C 	0.65086	0.42742	0.5425	-0.046
Mof_C 	C 	0.63928	0.44523	0.53862	0.006
Mof_H 	H 	0.6408	0.4574	0.547	0.038
Mof_C 	C 	0.62518	0.44486	0.5219	-0.1
Mof_H 	H 	0.6176	0.4571	0.5182	0.066
Mof_C 	C 	0.62242	0.42686	0.51093	0.061
Mof_H 	H 	0.6124	0.4268	0.4999	-0
Mof_C 	C 	0.71662	0.39774	0.65467	0.098
Mof_C 	C 	0.73679	0.36148	0.58157	0.057
Mof_H 	H 	0.7468	0.3506	0.5829	-0
Mof_C 	C 	0.72538	0.3626	0.56334	-0.096
Mof_H 	H 	0.728	0.3531	0.5522	0.063
Mof_C 	C 	0.70993	0.37779	0.56142	0.004
Mof_H 	H 	0.7013	0.3784	0.5493	0.038
Mof_C 	C 	0.70751	0.3921	0.57774	-0.045
Mof_C 	C 	0.71999	0.39026	0.59528	0.031
Mof_H 	H 	0.7183	0.4002	0.6062	0.017
Mof_C 	C 	0.69123	0.40868	0.57718	0.134
Mof_C 	C 	0.66539	0.42567	0.5603	0.133
Mof_C 	C 	0.67411	0.43511	0.59316	0.133
Mof_C 	C 	0.65399	0.46232	0.61178	0.039
Mof_H 	H 	0.6458	0.4637	0.5994	0.012
Mof_C 	C 	0.67048	0.44779	0.61185	-0.051
Mof_C 	C 	0.68265	0.44589	0.6296	0.009
Mof_H 	H 	0.6938	0.436	0.6303	0.037
Mof_C 	C 	0.67808	0.45891	0.64642	-0.1
Mof_H 	H 	0.6864	0.4584	0.6587	0.067
Mof_C 	C 	0.6614	0.47254	0.64511	0.061
Mof_H 	H 	0.6584	0.4811	0.6569	0.001
Mof_C 	C 	0.66699	0.51763	0.61138	0.063
Mof_H 	H 	0.6659	0.507	0.6011	-0.001
Mof_C 	C 	0.6846	0.5294	0.61166	-0.103
Mof_H 	H 	0.6955	0.5269	0.6019	0.068
Mof_C 	C 	0.6864	0.5453	0.62667	0.009
Mof_H 	H 	0.6984	0.5541	0.6271	0.037
Mof_C 	C 	0.67016	0.54783	0.64076	-0.052
Mof_C 	C 	0.65269	0.53502	0.63915	0.042
Mof_H 	H 	0.6415	0.537	0.6487	0.011
Mof_C 	C 	0.67092	0.56441	0.65698	0.135
Mof_C 	C 	0.62389	0.50059	0.67522	0.108
Mof_N 	N 	0.63308	0.40904	0.51475	-0.223
Mof_N 	N 	0.72554	0.38715	0.64301	-0.261
Mof_N 	N 	0.73449	0.37497	0.59758	-0.224
Mof_N 	N 	0.68909	0.4204	0.59418	-0.151
Mof_N 	N 	0.67975	0.41034	0.55971	-0.15
Mof_N 	N 	0.66237	0.43887	0.57613	-0.151
Mof_N 	N 	0.64925	0.47432	0.62815	-0.229
Mof_N 	N 	0.62324	0.49881	0.65762	-0.264
Mof_N 	N 	0.65103	0.52009	0.62476	-0.229
Mof_N 	N 	0.68603	0.57831	0.65572	-0.152
Mof_S 	S 	0.70537	0.41304	0.67188	-0.059
Mof_S 	S 	0.62654	0.50216	0.70072	-0.062
Mof_C 	C 	0.64742	0.90972	0.03011	0.033
Mof_H 	H 	0.6556	0.8976	0.0327	0.014
Mof_C 	C 	0.65086	0.92742	0.0425	-0.046
Mof_C 	C 	0.63928	0.94523	0.03862	0.006
Mof_H 	H 	0.6408	0.9574	0.047	0.038
Mof_C 	C 	0.62518	0.94486	0.0219	-0.1
Mof_H 	H 	0.6176	0.9571	0.0182	0.066
Mof_C 	C 	0.62242	0.92686	0.01093	0.061
Mof_H 	H 	0.6124	0.9268	0.9999	-0
Mof_C 	C 	0.71662	0.89774	0.15467	0.098
Mof_C 	C 	0.73679	0.86148	0.08157	0.057
Mof_H 	H 	0.7468	0.8506	0.0829	-0
Mof_C 	C 	0.72538	0.8626	0.06334	-0.096
Mof_H 	H 	0.728	0.8531	0.0522	0.063
Mof_C 	C 	0.70993	0.87779	0.06142	0.004
Mof_H 	H 	0.7013	0.8784	0.0493	0.038
Mof_C 	C 	0.70751	0.8921	0.07774	-0.045
Mof_C 	C 	0.71999	0.89026	0.09528	0.031
Mof_H 	H 	0.7183	0.9002	0.1062	0.017
Mof_C 	C 	0.69123	0.90868	0.07718	0.134
Mof_C 	C 	0.66539	0.92567	0.0603	0.133
Mof_C 	C 	0.67411	0.93511	0.09316	0.133
Mof_C 	C 	0.65399	0.96232	0.11178	0.039
Mof_H 	H 	0.6458	0.9637	0.0994	0.012
Mof_C 	C 	0.67048	0.94779	0.11185	-0.051
Mof_C 	C 	0.68265	0.94589	0.1296	0.009
Mof_H 	H 	0.6938	0.936	0.1303	0.037
Mof_C 	C 	0.67808	0.95891	0.14642	-0.1
Mof_H 	H 	0.6864	0.9584	0.1587	0.067
Mof_C 	C 	0.6614	0.97254	0.14511	0.061
Mof_H 	H 	0.6584	0.9811	0.1569	0.001
Mof_C 	C 	0.66699	0.01763	0.11138	0.063
Mof_H 	H 	0.6659	0.007	0.1011	-0.001
Mof_C 	C 	0.6846	0.0294	0.11166	-0.103
Mof_H 	H 	0.6955	0.0269	0.1019	0.068
Mof_C 	C 	0.6864	0.0453	0.12667	0.009
Mof_H 	H 	0.6984	0.0541	0.1271	0.037
Mof_C 	C 	0.67016	0.04783	0.14076	-0.052
Mof_C 	C 	0.65269	0.03502	0.13915	0.042
Mof_H 	H 	0.6415	0.037	0.1487	0.011
Mof_C 	C 	0.67092	0.06441	0.15698	0.135
Mof_C 	C 	0.62389	0.00059	0.17522	0.108
Mof_N 	N 	0.63308	0.90904	0.01475	-0.223
Mof_N 	N 	0.72554	0.88715	0.14301	-0.261
Mof_N 	N 	0.73449	0.87497	0.09758	-0.224
Mof_N 	N 	0.68909	0.9204	0.09418	-0.151
Mof_N 	N 	0.67975	0.91034	0.05971	-0.15
Mof_N 	N 	0.66237	0.93887	0.07613	-0.151
Mof_N 	N 	0.64925	0.97432	0.12815	-0.229
Mof_N 	N 	0.62324	0.99881	0.15762	-0.264
Mof_N 	N 	0.65103	0.02009	0.12476	-0.229
Mof_N 	N 	0.68603	0.07831	0.15572	-0.152
Mof_S 	S 	0.70537	0.91304	0.17188	-0.059
Mof_S 	S 	0.62654	0.00216	0.20072	-0.062
Mof_C 	C 	0.60258	0.84028	0.53011	0.033
Mof_H 	H 	0.5944	0.8524	0.5327	0.014
Mof_C 	C 	0.59914	0.82258	0.5425	-0.046
Mof_C 	C 	0.61072	0.80477	0.53862	0.006
Mof_H 	H 	0.6092	0.7926	0.547	0.038
Mof_C 	C 	0.62482	0.80514	0.5219	-0.1
Mof_H 	H 	0.6324	0.7929	0.5182	0.066
Mof_C 	C 	0.62758	0.82314	0.51093	0.061
Mof_H 	H 	0.6376	0.8232	0.4999	-0
Mof_C 	C 	0.53338	0.85226	0.65467	0.098
Mof_C 	C 	0.51321	0.88852	0.58157	0.057
Mof_H 	H 	0.5032	0.8994	0.5829	-0
Mof_C 	C 	0.52462	0.8874	0.56334	-0.096
Mof_H 	H 	0.522	0.8969	0.5522	0.063
Mof_C 	C 	0.54007	0.87221	0.56142	0.004
Mof_H 	H 	0.5487	0.8716	0.5493	0.038
Mof_C 	C 	0.54249	0.8579	0.57774	-0.045
Mof_C 	C 	0.53001	0.85974	0.59528	0.031
Mof_H 	H 	0.5317	0.8498	0.6062	0.017
Mof_C 	C 	0.55877	0.84132	0.57718	0.134
Mof_C 	C 	0.58461	0.82433	0.5603	0.133
Mof_C 	C 	0.57589	0.81489	0.59316	0.133
Mof_C 	C 	0.59601	0.78768	0.61178	0.039
Mof_H 	H 	0.6042	0.7863	0.5994	0.012
Mof_C 	C 	0.57952	0.80221	0.61185	-0.051
Mof_C 	C 	0.56735	0.80411	0.6296	0.009
Mof_H 	H 	0.5562	0.814	0.6303	0.037
Mof_C 	C 	0.57192	0.79109	0.64642	-0.1
Mof_H 	H 	0.5636	0.7916	0.6587	0.067
Mof_C 	C 	0.5886	0.77746	0.64511	0.061
Mof_H 	H 	0.5916	0.7689	0.6569	0.001
Mof_C 	C 	0.58301	0.73237	0.61138	0.063
Mof_H 	H 	0.5841	0.743	0.6011	-0.001
Mof_C 	C 	0.5654	0.7206	0.61166	-0.103
Mof_H 	H 	0.5545	0.7231	0.6019	0.068
Mof_C 	C 	0.5636	0.7047	0.62667	0.009
Mof_H 	H 	0.5516	0.6959	0.6271	0.037
Mof_C 	C 	0.57984	0.70217	0.64076	-0.052
Mof_C 	C 	0.59731	0.71498	0.63915	0.042
Mof_H 	H 	0.6085	0.713	0.6487	0.011
Mof_C 	C 	0.57908	0.68559	0.65698	0.135
Mof_C 	C 	0.62611	0.74941	0.67522	0.108
Mof_N 	N 	0.61692	0.84096	0.51475	-0.223
Mof_N 	N 	0.52446	0.86285	0.64301	-0.261
Mof_N 	N 	0.51551	0.87503	0.59758	-0.224
Mof_N 	N 	0.56091	0.8296	0.59418	-0.151
Mof_N 	N 	0.57025	0.83966	0.55971	-0.15
Mof_N 	N 	0.58763	0.81113	0.57613	-0.151
Mof_N 	N 	0.60075	0.77568	0.62815	-0.229
Mof_N 	N 	0.62676	0.75119	0.65762	-0.264
Mof_N 	N 	0.59897	0.72991	0.62476	-0.229
Mof_N 	N 	0.56397	0.67169	0.65572	-0.152
Mof_S 	S 	0.54463	0.83696	0.67188	-0.059
Mof_S 	S 	0.62346	0.74784	0.70072	-0.062
Mof_C 	C 	0.60258	0.34028	0.03011	0.033
Mof_H 	H 	0.5944	0.3524	0.0327	0.014
Mof_C 	C 	0.59914	0.32258	0.0425	-0.046
Mof_C 	C 	0.61072	0.30477	0.03862	0.006
Mof_H 	H 	0.6092	0.2926	0.047	0.038
Mof_C 	C 	0.62482	0.30514	0.0219	-0.1
Mof_H 	H 	0.6324	0.2929	0.0182	0.066
Mof_C 	C 	0.62758	0.32314	0.01093	0.061
Mof_H 	H 	0.6376	0.3232	0.9999	-0
Mof_C 	C 	0.53338	0.35226	0.15467	0.098
Mof_C 	C 	0.51321	0.38852	0.08157	0.057
Mof_H 	H 	0.5032	0.3994	0.0829	-0
Mof_C 	C 	0.52462	0.3874	0.06334	-0.096
Mof_H 	H 	0.522	0.3969	0.0522	0.063
Mof_C 	C 	0.54007	0.37221	0.06142	0.004
Mof_H 	H 	0.5487	0.3716	0.0493	0.038
Mof_C 	C 	0.54249	0.3579	0.07774	-0.045
Mof_C 	C 	0.53001	0.35974	0.09528	0.031
Mof_H 	H 	0.5317	0.3498	0.1062	0.017
Mof_C 	C 	0.55877	0.34132	0.07718	0.134
Mof_C 	C 	0.58461	0.32433	0.0603	0.133
Mof_C 	C 	0.57589	0.31489	0.09316	0.133
Mof_C 	C 	0.59601	0.28768	0.11178	0.039
Mof_H 	H 	0.6042	0.2863	0.0994	0.012
Mof_C 	C 	0.57952	0.30221	0.11185	-0.051
Mof_C 	C 	0.56735	0.30411	0.1296	0.009
Mof_H 	H 	0.5562	0.314	0.1303	0.037
Mof_C 	C 	0.57192	0.29109	0.14642	-0.1
Mof_H 	H 	0.5636	0.2916	0.1587	0.067
Mof_C 	C 	0.5886	0.27746	0.14511	0.061
Mof_H 	H 	0.5916	0.2689	0.1569	0.001
Mof_C 	C 	0.58301	0.23237	0.11138	0.063
Mof_H 	H 	0.5841	0.243	0.1011	-0.001
Mof_C 	C 	0.5654	0.2206	0.11166	-0.103
Mof_H 	H 	0.5545	0.2231	0.1019	0.068
Mof_C 	C 	0.5636	0.2047	0.12667	0.009
Mof_H 	H 	0.5516	0.1959	0.1271	0.037
Mof_C 	C 	0.57984	0.20217	0.14076	-0.052
Mof_C 	C 	0.59731	0.21498	0.13915	0.042
Mof_H 	H 	0.6085	0.213	0.1487	0.011
Mof_C 	C 	0.57908	0.18559	0.15698	0.135
Mof_C 	C 	0.62611	0.24941	0.17522	0.108
Mof_N 	N 	0.61692	0.34096	0.01475	-0.223
Mof_N 	N 	0.52446	0.36285	0.14301	-0.261
Mof_N 	N 	0.51551	0.37503	0.09758	-0.224
Mof_N 	N 	0.56091	0.3296	0.09418	-0.151
Mof_N 	N 	0.57025	0.33966	0.05971	-0.15
Mof_N 	N 	0.58763	0.31113	0.07613	-0.151
Mof_N 	N 	0.60075	0.27568	0.12815	-0.229
Mof_N 	N 	0.62676	0.25119	0.15762	-0.264
Mof_N 	N 	0.59897	0.22991	0.12476	-0.229
Mof_N 	N 	0.56397	0.17169	0.15572	-0.152
Mof_S 	S 	0.54463	0.33696	0.17188	-0.059
Mof_S 	S 	0.62346	0.24784	0.20072	-0.062
Mof_C 	C 	0.10258	0.84028	0.03011	0.033
Mof_H 	H 	0.0944	0.8524	0.0327	0.014
Mof_C 	C 	0.09914	0.82258	0.0425	-0.046
Mof_C 	C 	0.11072	0.80477	0.03862	0.006
Mof_H 	H 	0.1092	0.7926	0.047	0.038
Mof_C 	C 	0.12482	0.80514	0.0219	-0.1
Mof_H 	H 	0.1324	0.7929	0.0182	0.066
Mof_C 	C 	0.12758	0.82314	0.01093	0.061
Mof_H 	H 	0.1376	0.8232	0.9999	-0
Mof_C 	C 	0.03338	0.85226	0.15467	0.098
Mof_C 	C 	0.01321	0.88852	0.08157	0.057
Mof_H 	H 	0.0032	0.8994	0.0829	-0
Mof_C 	C 	0.02462	0.8874	0.06334	-0.096
Mof_H 	H 	0.022	0.8969	0.0522	0.063
Mof_C 	C 	0.04007	0.87221	0.06142	0.004
Mof_H 	H 	0.0487	0.8716	0.0493	0.038
Mof_C 	C 	0.04249	0.8579	0.07774	-0.045
Mof_C 	C 	0.03001	0.85974	0.09528	0.031
Mof_H 	H 	0.0317	0.8498	0.1062	0.017
Mof_C 	C 	0.05877	0.84132	0.07718	0.134
Mof_C 	C 	0.08461	0.82433	0.0603	0.133
Mof_C 	C 	0.07589	0.81489	0.09316	0.133
Mof_C 	C 	0.09601	0.78768	0.11178	0.039
Mof_H 	H 	0.1042	0.7863	0.0994	0.012
Mof_C 	C 	0.07952	0.80221	0.11185	-0.051
Mof_C 	C 	0.06735	0.80411	0.1296	0.009
Mof_H 	H 	0.0562	0.814	0.1303	0.037
Mof_C 	C 	0.07192	0.79109	0.14642	-0.1
Mof_H 	H 	0.0636	0.7916	0.1587	0.067
Mof_C 	C 	0.0886	0.77746	0.14511	0.061
Mof_H 	H 	0.0916	0.7689	0.1569	0.001
Mof_C 	C 	0.08301	0.73237	0.11138	0.063
Mof_H 	H 	0.0841	0.743	0.1011	-0.001
Mof_C 	C 	0.0654	0.7206	0.11166	-0.103
Mof_H 	H 	0.0545	0.7231	0.1019	0.068
Mof_C 	C 	0.0636	0.7047	0.12667	0.009
Mof_H 	H 	0.0516	0.6959	0.1271	0.037
Mof_C 	C 	0.07984	0.70217	0.14076	-0.052
Mof_C 	C 	0.09731	0.71498	0.13915	0.042
Mof_H 	H 	0.1085	0.713	0.1487	0.011
Mof_C 	C 	0.07908	0.68559	0.15698	0.135
Mof_C 	C 	0.12611	0.74941	0.17522	0.108
Mof_N 	N 	0.11692	0.84096	0.01475	-0.223
Mof_N 	N 	0.02446	0.86285	0.14301	-0.261
Mof_N 	N 	0.01551	0.87503	0.09758	-0.224
Mof_N 	N 	0.06091	0.8296	0.09418	-0.151
Mof_N 	N 	0.07025	0.83966	0.05971	-0.15
Mof_N 	N 	0.08763	0.81113	0.07613	-0.151
Mof_N 	N 	0.10075	0.77568	0.12815	-0.229
Mof_N 	N 	0.12676	0.75119	0.15762	-0.264
Mof_N 	N 	0.09897	0.72991	0.12476	-0.229
Mof_N 	N 	0.06397	0.67169	0.15572	-0.152
Mof_S 	S 	0.04463	0.83696	0.17188	-0.059
Mof_S 	S 	0.12346	0.74784	0.20072	-0.062
Mof_C 	C 	0.10258	0.34028	0.53011	0.033
Mof_H 	H 	0.0944	0.3524	0.5327	0.014
Mof_C 	C 	0.09914	0.32258	0.5425	-0.046
Mof_C 	C 	0.11072	0.30477	0.53862	0.006
Mof_H 	H 	0.1092	0.2926	0.547	0.038
Mof_C 	C 	0.12482	0.30514	0.5219	-0.1
Mof_H 	H 	0.1324	0.2929	0.5182	0.066
Mof_C 	C 	0.12758	0.32314	0.51093	0.061
Mof_H 	H 	0.1376	0.3232	0.4999	-0
Mof_C 	C 	0.03338	0.35226	0.65467	0.098
Mof_C 	C 	0.01321	0.38852	0.58157	0.057
Mof_H 	H 	0.0032	0.3994	0.5829	-0
Mof_C 	C 	0.02462	0.3874	0.56334	-0.096
Mof_H 	H 	0.022	0.3969	0.5522	0.063
Mof_C 	C 	0.04007	0.37221	0.56142	0.004
Mof_H 	H 	0.0487	0.3716	0.5493	0.038
Mof_C 	C 	0.04249	0.3579	0.57774	-0.045
Mof_C 	C 	0.03001	0.35974	0.59528	0.031
Mof_H 	H 	0.0317	0.3498	0.6062	0.017
Mof_C 	C 	0.05877	0.34132	0.57718	0.134
Mof_C 	C 	0.08461	0.32433	0.5603	0.133
Mof_C 	C 	0.07589	0.31489	0.59316	0.133
Mof_C 	C 	0.09601	0.28768	0.61178	0.039
Mof_H 	H 	0.1042	0.2863	0.5994	0.012
Mof_C 	C 	0.07952	0.30221	0.61185	-0.051
Mof_C 	C 	0.06735	0.30411	0.6296	0.009
Mof_H 	H 	0.0562	0.314	0.6303	0.037
Mof_C 	C 	0.07192	0.29109	0.64642	-0.1
Mof_H 	H 	0.0636	0.2916	0.6587	0.067
Mof_C 	C 	0.0886	0.27746	0.64511	0.061
Mof_H 	H 	0.0916	0.2689	0.6569	0.001
Mof_C 	C 	0.08301	0.23237	0.61138	0.063
Mof_H 	H 	0.0841	0.243	0.6011	-0.001
Mof_C 	C 	0.0654	0.2206	0.61166	-0.103
Mof_H 	H 	0.0545	0.2231	0.6019	0.068
Mof_C 	C 	0.0636	0.2047	0.62667	0.009
Mof_H 	H 	0.0516	0.1959	0.6271	0.037
Mof_C 	C 	0.07984	0.20217	0.64076	-0.052
Mof_C 	C 	0.09731	0.21498	0.63915	0.042
Mof_H 	H 	0.1085	0.213	0.6487	0.011
Mof_C 	C 	0.07908	0.18559	0.65698	0.135
Mof_C 	C 	0.12611	0.24941	0.67522	0.108
Mof_N 	N 	0.11692	0.34096	0.51475	-0.223
Mof_N 	N 	0.02446	0.36285	0.64301	-0.261
Mof_N 	N 	0.01551	0.37503	0.59758	-0.224
Mof_N 	N 	0.06091	0.3296	0.59418	-0.151
Mof_N 	N 	0.07025	0.33966	0.55971	-0.15
Mof_N 	N 	0.08763	0.31113	0.57613	-0.151
Mof_N 	N 	0.10075	0.27568	0.62815	-0.229
Mof_N 	N 	0.12676	0.25119	0.65762	-0.264
Mof_N 	N 	0.09897	0.22991	0.62476	-0.229
Mof_N 	N 	0.06397	0.17169	0.65572	-0.152
Mof_S 	S 	0.04463	0.33696	0.67188	-0.059
Mof_S 	S 	0.12346	0.24784	0.70072	-0.062
Mof_C 	C 	0.84028	0.53011	0.60258	0.033
Mof_H 	H 	0.8524	0.5327	0.5944	0.014
Mof_C 	C 	0.82258	0.5425	0.59914	-0.046
Mof_C 	C 	0.80477	0.53862	0.61072	0.006
Mof_H 	H 	0.7926	0.547	0.6092	0.038
Mof_C 	C 	0.80514	0.5219	0.62482	-0.1
Mof_H 	H 	0.7929	0.5182	0.6324	0.066
Mof_C 	C 	0.82314	0.51093	0.62758	0.061
Mof_H 	H 	0.8232	0.4999	0.6376	-0
Mof_C 	C 	0.85226	0.65467	0.53338	0.098
Mof_C 	C 	0.88852	0.58157	0.51321	0.057
Mof_H 	H 	0.8994	0.5829	0.5032	-0
Mof_C 	C 	0.8874	0.56334	0.52462	-0.096
Mof_H 	H 	0.8969	0.5522	0.522	0.063
Mof_C 	C 	0.87221	0.56142	0.54007	0.004
Mof_H 	H 	0.8716	0.5493	0.5487	0.038
Mof_C 	C 	0.8579	0.57774	0.54249	-0.045
Mof_C 	C 	0.85974	0.59528	0.53001	0.031
Mof_H 	H 	0.8498	0.6062	0.5317	0.017
Mof_C 	C 	0.84132	0.57718	0.55877	0.134
Mof_C 	C 	0.82433	0.5603	0.58461	0.133
Mof_C 	C 	0.81489	0.59316	0.57589	0.133
Mof_C 	C 	0.78768	0.61178	0.59601	0.039
Mof_H 	H 	0.7863	0.5994	0.6042	0.012
Mof_C 	C 	0.80221	0.61185	0.57952	-0.051
Mof_C 	C 	0.80411	0.6296	0.56735	0.009
Mof_H 	H 	0.814	0.6303	0.5562	0.037
Mof_C 	C 	0.79109	0.64642	0.57192	-0.1
Mof_H 	H 	0.7916	0.6587	0.5636	0.067
Mof_C 	C 	0.77746	0.64511	0.5886	0.061
Mof_H 	H 	0.7689	0.6569	0.5916	0.001
Mof_C 	C 	0.73237	0.61138	0.58301	0.063
Mof_H 	H 	0.743	0.6011	0.5841	-0.001
Mof_C 	C 	0.7206	0.61166	0.5654	-0.103
Mof_H 	H 	0.7231	0.6019	0.5545	0.068
Mof_C 	C 	0.7047	0.62667	0.5636	0.009
Mof_H 	H 	0.6959	0.6271	0.5516	0.037
Mof_C 	C 	0.70217	0.64076	0.57984	-0.052
Mof_C 	C 	0.71498	0.63915	0.59731	0.042
Mof_H 	H 	0.713	0.6487	0.6085	0.011
Mof_C 	C 	0.68559	0.65698	0.57908	0.135
Mof_C 	C 	0.74941	0.67522	0.62611	0.108
Mof_N 	N 	0.84096	0.51475	0.61692	-0.223
Mof_N 	N 	0.86285	0.64301	0.52446	-0.261
Mof_N 	N 	0.87503	0.59758	0.51551	-0.224
Mof_N 	N 	0.8296	0.59418	0.56091	-0.151
Mof_N 	N 	0.83966	0.55971	0.57025	-0.15
Mof_N 	N 	0.81113	0.57613	0.58763	-0.151
Mof_N 	N 	0.77568	0.62815	0.60075	-0.229
Mof_N 	N 	0.75119	0.65762	0.62676	-0.264
Mof_N 	N 	0.72991	0.62476	0.59897	-0.229
Mof_N 	N 	0.67169	0.65572	0.56397	-0.152
Mof_S 	S 	0.83696	0.67188	0.54463	-0.059
Mof_S 	S 	0.74784	0.70072	0.62346	-0.062
Mof_C 	C 	0.84028	0.03011	0.10258	0.033
Mof_H 	H 	0.8524	0.0327	0.0944	0.014
Mof_C 	C 	0.82258	0.0425	0.09914	-0.046
Mof_C 	C 	0.80477	0.03862	0.11072	0.006
Mof_H 	H 	0.7926	0.047	0.1092	0.038
Mof_C 	C 	0.80514	0.0219	0.12482	-0.1
Mof_H 	H 	0.7929	0.0182	0.1324	0.066
Mof_C 	C 	0.82314	0.01093	0.12758	0.061
Mof_H 	H 	0.8232	0.9999	0.1376	-0
Mof_C 	C 	0.85226	0.15467	0.03338	0.098
Mof_C 	C 	0.88852	0.08157	0.01321	0.057
Mof_H 	H 	0.8994	0.0829	0.0032	-0
Mof_C 	C 	0.8874	0.06334	0.02462	-0.096
Mof_H 	H 	0.8969	0.0522	0.022	0.063
Mof_C 	C 	0.87221	0.06142	0.04007	0.004
Mof_H 	H 	0.8716	0.0493	0.0487	0.038
Mof_C 	C 	0.8579	0.07774	0.04249	-0.045
Mof_C 	C 	0.85974	0.09528	0.03001	0.031
Mof_H 	H 	0.8498	0.1062	0.0317	0.017
Mof_C 	C 	0.84132	0.07718	0.05877	0.134
Mof_C 	C 	0.82433	0.0603	0.08461	0.133
Mof_C 	C 	0.81489	0.09316	0.07589	0.133
Mof_C 	C 	0.78768	0.11178	0.09601	0.039
Mof_H 	H 	0.7863	0.0994	0.1042	0.012
Mof_C 	C 	0.80221	0.11185	0.07952	-0.051
Mof_C 	C 	0.80411	0.1296	0.06735	0.009
Mof_H 	H 	0.814	0.1303	0.0562	0.037
Mof_C 	C 	0.79109	0.14642	0.07192	-0.1
Mof_H 	H 	0.7916	0.1587	0.0636	0.067
Mof_C 	C 	0.77746	0.14511	0.0886	0.061
Mof_H 	H 	0.7689	0.1569	0.0916	0.001
Mof_C 	C 	0.73237	0.11138	0.08301	0.063
Mof_H 	H 	0.743	0.1011	0.0841	-0.001
Mof_C 	C 	0.7206	0.11166	0.0654	-0.103
Mof_H 	H 	0.7231	0.1019	0.0545	0.068
Mof_C 	C 	0.7047	0.12667	0.0636	0.009
Mof_H 	H 	0.6959	0.1271	0.0516	0.037
Mof_C 	C 	0.70217	0.14076	0.07984	-0.052
Mof_C 	C 	0.71498	0.13915	0.09731	0.042
Mof_H 	H 	0.713	0.1487	0.1085	0.011
Mof_C 	C 	0.68559	0.15698	0.07908	0.135
Mof_C 	C 	0.74941	0.17522	0.12611	0.108
Mof_N 	N 	0.84096	0.01475	0.11692	-0.223
Mof_N 	N 	0.86285	0.14301	0.02446	-0.261
Mof_N 	N 	0.87503	0.09758	0.01551	-0.224
Mof_N 	N 	0.8296	0.09418	0.06091	-0.151
Mof_N 	N 	0.83966	0.05971	0.07025	-0.15
Mof_N 	N 	0.81113	0.07613	0.08763	-0.151
Mof_N 	N 	0.77568	0.12815	0.10075	-0.229
Mof_N 	N 	0.75119	0.15762	0.12676	-0.264
Mof_N 	N 	0.72991	0.12476	0.09897	-0.229
Mof_N 	N 	0.67169	0.15572	0.06397	-0.152
Mof_S 	S 	0.83696	0.17188	0.04463	-0.059
Mof_S 	S 	0.74784	0.20072	0.12346	-0.062
Mof_C 	C 	0.34028	0.53011	0.10258	0.033
Mof_H 	H 	0.3524	0.5327	0.0944	0.014
Mof_C 	C 	0.32258	0.5425	0.09914	-0.046
Mof_C 	C 	0.30477	0.53862	0.11072	0.006
Mof_H 	H 	0.2926	0.547	0.1092	0.038
Mof_C 	C 	0.30514	0.5219	0.12482	-0.1
Mof_H 	H 	0.2929	0.5182	0.1324	0.066
Mof_C 	C 	0.32314	0.51093	0.12758	0.061
Mof_H 	H 	0.3232	0.4999	0.1376	-0
Mof_C 	C 	0.35226	0.65467	0.03338	0.098
Mof_C 	C 	0.38852	0.58157	0.01321	0.057
Mof_H 	H 	0.3994	0.5829	0.0032	-0
Mof_C 	C 	0.3874	0.56334	0.02462	-0.096
Mof_H 	H 	0.3969	0.5522	0.022	0.063
Mof_C 	C 	0.37221	0.56142	0.04007	0.004
Mof_H 	H 	0.3716	0.5493	0.0487	0.038
Mof_C 	C 	0.3579	0.57774	0.04249	-0.045
Mof_C 	C 	0.35974	0.59528	0.03001	0.031
Mof_H 	H 	0.3498	0.6062	0.0317	0.017
Mof_C 	C 	0.34132	0.57718	0.05877	0.134
Mof_C 	C 	0.32433	0.5603	0.08461	0.133
Mof_C 	C 	0.31489	0.59316	0.07589	0.133
Mof_C 	C 	0.28768	0.61178	0.09601	0.039
Mof_H 	H 	0.2863	0.5994	0.1042	0.012
Mof_C 	C 	0.30221	0.61185	0.07952	-0.051
Mof_C 	C 	0.30411	0.6296	0.06735	0.009
Mof_H 	H 	0.314	0.6303	0.0562	0.037
Mof_C 	C 	0.29109	0.64642	0.07192	-0.1
Mof_H 	H 	0.2916	0.6587	0.0636	0.067
Mof_C 	C 	0.27746	0.64511	0.0886	0.061
Mof_H 	H 	0.2689	0.6569	0.0916	0.001
Mof_C 	C 	0.23237	0.61138	0.08301	0.063
Mof_H 	H 	0.243	0.6011	0.0841	-0.001
Mof_C 	C 	0.2206	0.61166	0.0654	-0.103
Mof_H 	H 	0.2231	0.6019	0.0545	0.068
Mof_C 	C 	0.2047	0.62667	0.0636	0.009
Mof_H 	H 	0.1959	0.6271	0.0516	0.037
Mof_C 	C 	0.20217	0.64076	0.07984	-0.052
Mof_C 	C 	0.21498	0.63915	0.09731	0.042
Mof_H 	H 	0.213	0.6487	0.1085	0.011
Mof_C 	C 	0.18559	0.65698	0.07908	0.135
Mof_C 	C 	0.24941	0.67522	0.12611	0.108
Mof_N 	N 	0.34096	0.51475	0.11692	-0.223
Mof_N 	N 	0.36285	0.64301	0.02446	-0.261
Mof_N 	N 	0.37503	0.59758	0.01551	-0.224
Mof_N 	N 	0.3296	0.59418	0.06091	-0.151
Mof_N 	N 	0.33966	0.55971	0.07025	-0.15
Mof_N 	N 	0.31113	0.57613	0.08763	-0.151
Mof_N 	N 	0.27568	0.62815	0.10075	-0.229
Mof_N 	N 	0.25119	0.65762	0.12676	-0.264
Mof_N 	N 	0.22991	0.62476	0.09897	-0.229
Mof_N 	N 	0.17169	0.65572	0.06397	-0.152
Mof_S 	S 	0.33696	0.67188	0.04463	-0.059
Mof_S 	S 	0.24784	0.70072	0.12346	-0.062
Mof_C 	C 	0.34028	0.03011	0.60258	0.033
Mof_H 	H 	0.3524	0.0327	0.5944	0.014
Mof_C 	C 	0.32258	0.0425	0.59914	-0.046
Mof_C 	C 	0.30477	0.03862	0.61072	0.006
Mof_H 	H 	0.2926	0.047	0.6092	0.038
Mof_C 	C 	0.30514	0.0219	0.62482	-0.1
Mof_H 	H 	0.2929	0.0182	0.6324	0.066
Mof_C 	C 	0.32314	0.01093	0.62758	0.061
Mof_H 	H 	0.3232	0.9999	0.6376	-0
Mof_C 	C 	0.35226	0.15467	0.53338	0.098
Mof_C 	C 	0.38852	0.08157	0.51321	0.057
Mof_H 	H 	0.3994	0.0829	0.5032	-0
Mof_C 	C 	0.3874	0.06334	0.52462	-0.096
Mof_H 	H 	0.3969	0.0522	0.522	0.063
Mof_C 	C 	0.37221	0.06142	0.54007	0.004
Mof_H 	H 	0.3716	0.0493	0.5487	0.038
Mof_C 	C 	0.3579	0.07774	0.54249	-0.045
Mof_C 	C 	0.35974	0.09528	0.53001	0.031
Mof_H 	H 	0.3498	0.1062	0.5317	0.017
Mof_C 	C 	0.34132	0.07718	0.55877	0.134
Mof_C 	C 	0.32433	0.0603	0.58461	0.133
Mof_C 	C 	0.31489	0.09316	0.57589	0.133
Mof_C 	C 	0.28768	0.11178	0.59601	0.039
Mof_H 	H 	0.2863	0.0994	0.6042	0.012
Mof_C 	C 	0.30221	0.11185	0.57952	-0.051
Mof_C 	C 	0.30411	0.1296	0.56735	0.009
Mof_H 	H 	0.314	0.1303	0.5562	0.037
Mof_C 	C 	0.29109	0.14642	0.57192	-0.1
Mof_H 	H 	0.2916	0.1587	0.5636	0.067
Mof_C 	C 	0.27746	0.14511	0.5886	0.061
Mof_H 	H 	0.2689	0.1569	0.5916	0.001
Mof_C 	C 	0.23237	0.11138	0.58301	0.063
Mof_H 	H 	0.243	0.1011	0.5841	-0.001
Mof_C 	C 	0.2206	0.11166	0.5654	-0.103
Mof_H 	H 	0.2231	0.1019	0.5545	0.068
Mof_C 	C 	0.2047	0.12667	0.5636	0.009
Mof_H 	H 	0.1959	0.1271	0.5516	0.037
Mof_C 	C 	0.20217	0.14076	0.57984	-0.052
Mof_C 	C 	0.21498	0.13915	0.59731	0.042
Mof_H 	H 	0.213	0.1487	0.6085	0.011
Mof_C 	C 	0.18559	0.15698	0.57908	0.135
Mof_C 	C 	0.24941	0.17522	0.62611	0.108
Mof_N 	N 	0.34096	0.01475	0.61692	-0.223
Mof_N 	N 	0.36285	0.14301	0.52446	-0.261
Mof_N 	N 	0.37503	0.09758	0.51551	-0.224
Mof_N 	N 	0.3296	0.09418	0.56091	-0.151
Mof_N 	N 	0.33966	0.05971	0.57025	-0.15
Mof_N 	N 	0.31113	0.07613	0.58763	-0.151
Mof_N 	N 	0.27568	0.12815	0.60075	-0.229
Mof_N 	N 	0.25119	0.15762	0.62676	-0.264
Mof_N 	N 	0.22991	0.12476	0.59897	-0.229
Mof_N 	N 	0.17169	0.15572	0.56397	-0.152
Mof_S 	S 	0.33696	0.17188	0.54463	-0.059
Mof_S 	S 	0.24784	0.20072	0.62346	-0.062
Mof_C 	C 	0.40972	0.03011	0.14742	0.033
Mof_H 	H 	0.3976	0.0327	0.1556	0.014
Mof_C 	C 	0.42742	0.0425	0.15086	-0.046
Mof_C 	C 	0.44523	0.03862	0.13928	0.006
Mof_H 	H 	0.4574	0.047	0.1408	0.038
Mof_C 	C 	0.44486	0.0219	0.12518	-0.1
Mof_H 	H 	0.4571	0.0182	0.1176	0.066
Mof_C 	C 	0.42686	0.01093	0.12242	0.061
Mof_H 	H 	0.4268	0.9999	0.1124	-0
Mof_C 	C 	0.39774	0.15467	0.21662	0.098
Mof_C 	C 	0.36148	0.08157	0.23679	0.057
Mof_H 	H 	0.3506	0.0829	0.2468	-0
Mof_C 	C 	0.3626	0.06334	0.22538	-0.096
Mof_H 	H 	0.3531	0.0522	0.228	0.063
Mof_C 	C 	0.37779	0.06142	0.20993	0.004
Mof_H 	H 	0.3784	0.0493	0.2013	0.038
Mof_C 	C 	0.3921	0.07774	0.20751	-0.045
Mof_C 	C 	0.39026	0.09528	0.21999	0.031
Mof_H 	H 	0.4002	0.1062	0.2183	0.017
Mof_C 	C 	0.40868	0.07718	0.19123	0.134
Mof_C 	C 	0.42567	0.0603	0.16539	0.133
Mof_C 	C 	0.43511	0.09316	0.17411	0.133
Mof_C 	C 	0.46232	0.11178	0.15399	0.039
Mof_H 	H 	0.4637	0.0994	0.1458	0.012
Mof_C 	C 	0.44779	0.11185	0.17048	-0.051
Mof_C 	C 	0.44589	0.1296	0.18265	0.009
Mof_H 	H 	0.436	0.1303	0.1938	0.037
Mof_C 	C 	0.45891	0.14642	0.17808	-0.1
Mof_H 	H 	0.4584	0.1587	0.1864	0.067
Mof_C 	C 	0.47254	0.14511	0.1614	0.061
Mof_H 	H 	0.4811	0.1569	0.1584	0.001
Mof_C 	C 	0.51763	0.11138	0.16699	0.063
Mof_H 	H 	0.507	0.1011	0.1659	-0.001
Mof_C 	C 	0.5294	0.11166	0.1846	-0.103
Mof_H 	H 	0.5269	0.1019	0.1955	0.068
Mof_C 	C 	0.5453	0.12667	0.1864	0.009
Mof_H 	H 	0.5541	0.1271	0.1984	0.037
Mof_C 	C 	0.54783	0.14076	0.17016	-0.052
Mof_C 	C 	0.53502	0.13915	0.15269	0.042
Mof_H 	H 	0.537	0.1487	0.1415	0.011
Mof_C 	C 	0.56441	0.15698	0.17092	0.135
Mof_C 	C 	0.50059	0.17522	0.12389	0.108
Mof_N 	N 	0.40904	0.01475	0.13308	-0.223
Mof_N 	N 	0.38715	0.14301	0.22554	-0.261
Mof_N 	N 	0.37497	0.09758	0.23449	-0.224
Mof_N 	N 	0.4204	0.09418	0.18909	-0.151
Mof_N 	N 	0.41034	0.05971	0.17975	-0.15
Mof_N 	N 	0.43887	0.07613	0.16237	-0.151
Mof_N 	N 	0.47432	0.12815	0.14925	-0.229
Mof_N 	N 	0.49881	0.15762	0.12324	-0.264
Mof_N 	N 	0.52009	0.12476	0.15103	-0.229
Mof_N 	N 	0.57831	0.15572	0.18603	-0.152
Mof_S 	S 	0.41304	0.17188	0.20537	-0.059
Mof_S 	S 	0.50216	0.20072	0.12654	-0.062
Mof_C 	C 	0.40972	0.53011	0.64742	0.033
Mof_H 	H 	0.3976	0.5327	0.6556	0.014
Mof_C 	C 	0.42742	0.5425	0.65086	-0.046
Mof_C 	C 	0.44523	0.53862	0.63928	0.006
Mof_H 	H 	0.4574	0.547	0.6408	0.038
Mof_C 	C 	0.44486	0.5219	0.62518	-0.1
Mof_H 	H 	0.4571	0.5182	0.6176	0.066
Mof_C 	C 	0.42686	0.51093	0.62242	0.061
Mof_H 	H 	0.4268	0.4999	0.6124	-0
Mof_C 	C 	0.39774	0.65467	0.71662	0.098
Mof_C 	C 	0.36148	0.58157	0.73679	0.057
Mof_H 	H 	0.3506	0.5829	0.7468	-0
Mof_C 	C 	0.3626	0.56334	0.72538	-0.096
Mof_H 	H 	0.3531	0.5522	0.728	0.063
Mof_C 	C 	0.37779	0.56142	0.70993	0.004
Mof_H 	H 	0.3784	0.5493	0.7013	0.038
Mof_C 	C 	0.3921	0.57774	0.70751	-0.045
Mof_C 	C 	0.39026	0.59528	0.71999	0.031
Mof_H 	H 	0.4002	0.6062	0.7183	0.017
Mof_C 	C 	0.40868	0.57718	0.69123	0.134
Mof_C 	C 	0.42567	0.5603	0.66539	0.133
Mof_C 	C 	0.43511	0.59316	0.67411	0.133
Mof_C 	C 	0.46232	0.61178	0.65399	0.039
Mof_H 	H 	0.4637	0.5994	0.6458	0.012
Mof_C 	C 	0.44779	0.61185	0.67048	-0.051
Mof_C 	C 	0.44589	0.6296	0.68265	0.009
Mof_H 	H 	0.436	0.6303	0.6938	0.037
Mof_C 	C 	0.45891	0.64642	0.67808	-0.1
Mof_H 	H 	0.4584	0.6587	0.6864	0.067
Mof_C 	C 	0.47254	0.64511	0.6614	0.061
Mof_H 	H 	0.4811	0.6569	0.6584	0.001
Mof_C 	C 	0.51763	0.61138	0.66699	0.063
Mof_H 	H 	0.507	0.6011	0.6659	-0.001
Mof_C 	C 	0.5294	0.61166	0.6846	-0.103
Mof_H 	H 	0.5269	0.6019	0.6955	0.068
Mof_C 	C 	0.5453	0.62667	0.6864	0.009
Mof_H 	H 	0.5541	0.6271	0.6984	0.037
Mof_C 	C 	0.54783	0.64076	0.67016	-0.052
Mof_C 	C 	0.53502	0.63915	0.65269	0.042
Mof_H 	H 	0.537	0.6487	0.6415	0.011
Mof_C 	C 	0.56441	0.65698	0.67092	0.135
Mof_C 	C 	0.50059	0.67522	0.62389	0.108
Mof_N 	N 	0.40904	0.51475	0.63308	-0.223
Mof_N 	N 	0.38715	0.64301	0.72554	-0.261
Mof_N 	N 	0.37497	0.59758	0.73449	-0.224
Mof_N 	N 	0.4204	0.59418	0.68909	-0.151
Mof_N 	N 	0.41034	0.55971	0.67975	-0.15
Mof_N 	N 	0.43887	0.57613	0.66237	-0.151
Mof_N 	N 	0.47432	0.62815	0.64925	-0.229
Mof_N 	N 	0.49881	0.65762	0.62324	-0.264
Mof_N 	N 	0.52009	0.62476	0.65103	-0.229
Mof_N 	N 	0.57831	0.65572	0.68603	-0.152
Mof_S 	S 	0.41304	0.67188	0.70537	-0.059
Mof_S 	S 	0.50216	0.70072	0.62654	-0.062
Mof_C 	C 	0.90972	0.03011	0.64742	0.033
Mof_H 	H 	0.8976	0.0327	0.6556	0.014
Mof_C 	C 	0.92742	0.0425	0.65086	-0.046
Mof_C 	C 	0.94523	0.03862	0.63928	0.006
Mof_H 	H 	0.9574	0.047	0.6408	0.038
Mof_C 	C 	0.94486	0.0219	0.62518	-0.1
Mof_H 	H 	0.9571	0.0182	0.6176	0.066
Mof_C 	C 	0.92686	0.01093	0.62242	0.061
Mof_H 	H 	0.9268	0.9999	0.6124	-0
Mof_C 	C 	0.89774	0.15467	0.71662	0.098
Mof_C 	C 	0.86148	0.08157	0.73679	0.057
Mof_H 	H 	0.8506	0.0829	0.7468	-0
Mof_C 	C 	0.8626	0.06334	0.72538	-0.096
Mof_H 	H 	0.8531	0.0522	0.728	0.063
Mof_C 	C 	0.87779	0.06142	0.70993	0.004
Mof_H 	H 	0.8784	0.0493	0.7013	0.038
Mof_C 	C 	0.8921	0.07774	0.70751	-0.045
Mof_C 	C 	0.89026	0.09528	0.71999	0.031
Mof_H 	H 	0.9002	0.1062	0.7183	0.017
Mof_C 	C 	0.90868	0.07718	0.69123	0.134
Mof_C 	C 	0.92567	0.0603	0.66539	0.133
Mof_C 	C 	0.93511	0.09316	0.67411	0.133
Mof_C 	C 	0.96232	0.11178	0.65399	0.039
Mof_H 	H 	0.9637	0.0994	0.6458	0.012
Mof_C 	C 	0.94779	0.11185	0.67048	-0.051
Mof_C 	C 	0.94589	0.1296	0.68265	0.009
Mof_H 	H 	0.936	0.1303	0.6938	0.037
Mof_C 	C 	0.95891	0.14642	0.67808	-0.1
Mof_H 	H 	0.9584	0.1587	0.6864	0.067
Mof_C 	C 	0.97254	0.14511	0.6614	0.061
Mof_H 	H 	0.9811	0.1569	0.6584	0.001
Mof_C 	C 	0.01763	0.11138	0.66699	0.063
Mof_H 	H 	0.007	0.1011	0.6659	-0.001
Mof_C 	C 	0.0294	0.11166	0.6846	-0.103
Mof_H 	H 	0.0269	0.1019	0.6955	0.068
Mof_C 	C 	0.0453	0.12667	0.6864	0.009
Mof_H 	H 	0.0541	0.1271	0.6984	0.037
Mof_C 	C 	0.04783	0.14076	0.67016	-0.052
Mof_C 	C 	0.03502	0.13915	0.65269	0.042
Mof_H 	H 	0.037	0.1487	0.6415	0.011
Mof_C 	C 	0.06441	0.15698	0.67092	0.135
Mof_C 	C 	0.00059	0.17522	0.62389	0.108
Mof_N 	N 	0.90904	0.01475	0.63308	-0.223
Mof_N 	N 	0.88715	0.14301	0.72554	-0.261
Mof_N 	N 	0.87497	0.09758	0.73449	-0.224
Mof_N 	N 	0.9204	0.09418	0.68909	-0.151
Mof_N 	N 	0.91034	0.05971	0.67975	-0.15
Mof_N 	N 	0.93887	0.07613	0.66237	-0.151
Mof_N 	N 	0.97432	0.12815	0.64925	-0.229
Mof_N 	N 	0.99881	0.15762	0.62324	-0.264
Mof_N 	N 	0.02009	0.12476	0.65103	-0.229
Mof_N 	N 	0.07831	0.15572	0.68603	-0.152
Mof_S 	S 	0.91304	0.17188	0.70537	-0.059
Mof_S 	S 	0.00216	0.20072	0.62654	-0.062
Mof_C 	C 	0.90972	0.53011	0.14742	0.033
Mof_H 	H 	0.8976	0.5327	0.1556	0.014
Mof_C 	C 	0.92742	0.5425	0.15086	-0.046
Mof_C 	C 	0.94523	0.53862	0.13928	0.006
Mof_H 	H 	0.9574	0.547	0.1408	0.038
Mof_C 	C 	0.94486	0.5219	0.12518	-0.1
Mof_H 	H 	0.9571	0.5182	0.1176	0.066
Mof_C 	C 	0.92686	0.51093	0.12242	0.061
Mof_H 	H 	0.9268	0.4999	0.1124	-0
Mof_C 	C 	0.89774	0.65467	0.21662	0.098
Mof_C 	C 	0.86148	0.58157	0.23679	0.057
Mof_H 	H 	0.8506	0.5829	0.2468	-0
Mof_C 	C 	0.8626	0.56334	0.22538	-0.096
Mof_H 	H 	0.8531	0.5522	0.228	0.063
Mof_C 	C 	0.87779	0.56142	0.20993	0.004
Mof_H 	H 	0.8784	0.5493	0.2013	0.038
Mof_C 	C 	0.8921	0.57774	0.20751	-0.045
Mof_C 	C 	0.89026	0.59528	0.21999	0.031
Mof_H 	H 	0.9002	0.6062	0.2183	0.017
Mof_C 	C 	0.90868	0.57718	0.19123	0.134
Mof_C 	C 	0.92567	0.5603	0.16539	0.133
Mof_C 	C 	0.93511	0.59316	0.17411	0.133
Mof_C 	C 	0.96232	0.61178	0.15399	0.039
Mof_H 	H 	0.9637	0.5994	0.1458	0.012
Mof_C 	C 	0.94779	0.61185	0.17048	-0.051
Mof_C 	C 	0.94589	0.6296	0.18265	0.009
Mof_H 	H 	0.936	0.6303	0.1938	0.037
Mof_C 	C 	0.95891	0.64642	0.17808	-0.1
Mof_H 	H 	0.9584	0.6587	0.1864	0.067
Mof_C 	C 	0.97254	0.64511	0.1614	0.061
Mof_H 	H 	0.9811	0.6569	0.1584	0.001
Mof_C 	C 	0.01763	0.61138	0.16699	0.063
Mof_H 	H 	0.007	0.6011	0.1659	-0.001
Mof_C 	C 	0.0294	0.61166	0.1846	-0.103
Mof_H 	H 	0.0269	0.6019	0.1955	0.068
Mof_C 	C 	0.0453	0.62667	0.1864	0.009
Mof_H 	H 	0.0541	0.6271	0.1984	0.037
Mof_C 	C 	0.04783	0.64076	0.17016	-0.052
Mof_C 	C 	0.03502	0.63915	0.15269	0.042
Mof_H 	H 	0.037	0.6487	0.1415	0.011
Mof_C 	C 	0.06441	0.65698	0.17092	0.135
Mof_C 	C 	0.00059	0.67522	0.12389	0.108
Mof_N 	N 	0.90904	0.51475	0.13308	-0.223
Mof_N 	N 	0.88715	0.64301	0.22554	-0.261
Mof_N 	N 	0.87497	0.59758	0.23449	-0.224
Mof_N 	N 	0.9204	0.59418	0.18909	-0.151
Mof_N 	N 	0.91034	0.55971	0.17975	-0.15
Mof_N 	N 	0.93887	0.57613	0.16237	-0.151
Mof_N 	N 	0.97432	0.62815	0.14925	-0.229
Mof_N 	N 	0.99881	0.65762	0.12324	-0.264
Mof_N 	N 	0.02009	0.62476	0.15103	-0.229
Mof_N 	N 	0.07831	0.65572	0.18603	-0.152
Mof_S 	S 	0.91304	0.67188	0.20537	-0.059
Mof_S 	S 	0.00216	0.70072	0.12654	-0.062
Mof_C 	C 	0.90972	0.71989	0.10258	0.033
Mof_H 	H 	0.8976	0.7173	0.0944	0.014
Mof_C 	C 	0.92742	0.7075	0.09914	-0.046
Mof_C 	C 	0.94523	0.71138	0.11072	0.006
Mof_H 	H 	0.9574	0.703	0.1092	0.038
Mof_C 	C 	0.94486	0.7281	0.12482	-0.1
Mof_H 	H 	0.9571	0.7318	0.1324	0.066
Mof_C 	C 	0.92686	0.73907	0.12758	0.061
Mof_H 	H 	0.9268	0.7501	0.1376	-0
Mof_C 	C 	0.89774	0.59533	0.03338	0.098
Mof_C 	C 	0.86148	0.66843	0.01321	0.057
Mof_H 	H 	0.8506	0.6671	0.0032	-0
Mof_C 	C 	0.8626	0.68666	0.02462	-0.096
Mof_H 	H 	0.8531	0.6978	0.022	0.063
Mof_C 	C 	0.87779	0.68858	0.04007	0.004
Mof_H 	H 	0.8784	0.7007	0.0487	0.038
Mof_C 	C 	0.8921	0.67226	0.04249	-0.045
Mof_C 	C 	0.89026	0.65472	0.03001	0.031
Mof_H 	H 	0.9002	0.6438	0.0317	0.017
Mof_C 	C 	0.90868	0.67282	0.05877	0.134
Mof_C 	C 	0.92567	0.6897	0.08461	0.133
Mof_C 	C 	0.93511	0.65684	0.07589	0.133
Mof_C 	C 	0.96232	0.63822	0.09601	0.039
Mof_H 	H 	0.9637	0.6506	0.1042	0.012
Mof_C 	C 	0.94779	0.63815	0.07952	-0.051
Mof_C 	C 	0.94589	0.6204	0.06735	0.009
Mof_H 	H 	0.936	0.6197	0.0562	0.037
Mof_C 	C 	0.95891	0.60358	0.07192	-0.1
Mof_H 	H 	0.9584	0.5913	0.0636	0.067
Mof_C 	C 	0.97254	0.60489	0.0886	0.061
Mof_H 	H 	0.9811	0.5931	0.0916	0.001
Mof_C 	C 	0.01763	0.63862	0.08301	0.063
Mof_H 	H 	0.007	0.6489	0.0841	-0.001
Mof_C 	C 	0.0294	0.63834	0.0654	-0.103
Mof_H 	H 	0.0269	0.6481	0.0545	0.068
Mof_C 	C 	0.0453	0.62333	0.0636	0.009
Mof_H 	H 	0.0541	0.6229	0.0516	0.037
Mof_C 	C 	0.04783	0.60924	0.07984	-0.052
Mof_C 	C 	0.03502	0.61085	0.09731	0.042
Mof_H 	H 	0.037	0.6013	0.1085	0.011
Mof_C 	C 	0.06441	0.59302	0.07908	0.135
Mof_C 	C 	0.00059	0.57478	0.12611	0.108
Mof_N 	N 	0.90904	0.73525	0.11692	-0.223
Mof_N 	N 	0.88715	0.60699	0.02446	-0.261
Mof_N 	N 	0.87497	0.65242	0.01551	-0.224
Mof_N 	N 	0.9204	0.65582	0.06091	-0.151
Mof_N 	N 	0.91034	0.69029	0.07025	-0.15
Mof_N 	N 	0.93887	0.67387	0.08763	-0.151
Mof_N 	N 	0.97432	0.62185	0.10075	-0.229
Mof_N 	N 	0.99881	0.59238	0.12676	-0.264
Mof_N 	N 	0.02009	0.62524	0.09897	-0.229
Mof_N 	N 	0.07831	0.59428	0.06397	-0.152
Mof_S 	S 	0.91304	0.57812	0.04463	-0.059
Mof_S 	S 	0.00216	0.54928	0.12346	-0.062
Mof_C 	C 	0.90972	0.21989	0.60258	0.033
Mof_H 	H 	0.8976	0.2173	0.5944	0.014
Mof_C 	C 	0.92742	0.2075	0.59914	-0.046
Mof_C 	C 	0.94523	0.21138	0.61072	0.006
Mof_H 	H 	0.9574	0.203	0.6092	0.038
Mof_C 	C 	0.94486	0.2281	0.62482	-0.1
Mof_H 	H 	0.9571	0.2318	0.6324	0.066
Mof_C 	C 	0.92686	0.23907	0.62758	0.061
Mof_H 	H 	0.9268	0.2501	0.6376	-0
Mof_C 	C 	0.89774	0.09533	0.53338	0.098
Mof_C 	C 	0.86148	0.16843	0.51321	0.057
Mof_H 	H 	0.8506	0.1671	0.5032	-0
Mof_C 	C 	0.8626	0.18666	0.52462	-0.096
Mof_H 	H 	0.8531	0.1978	0.522	0.063
Mof_C 	C 	0.87779	0.18858	0.54007	0.004
Mof_H 	H 	0.8784	0.2007	0.5487	0.038
Mof_C 	C 	0.8921	0.17226	0.54249	-0.045
Mof_C 	C 	0.89026	0.15472	0.53001	0.031
Mof_H 	H 	0.9002	0.1438	0.5317	0.017
Mof_C 	C 	0.90868	0.17282	0.55877	0.134
Mof_C 	C 	0.92567	0.1897	0.58461	0.133
Mof_C 	C 	0.93511	0.15684	0.57589	0.133
Mof_C 	C 	0.96232	0.13822	0.59601	0.039
Mof_H 	H 	0.9637	0.1506	0.6042	0.012
Mof_C 	C 	0.94779	0.13815	0.57952	-0.051
Mof_C 	C 	0.94589	0.1204	0.56735	0.009
Mof_H 	H 	0.936	0.1197	0.5562	0.037
Mof_C 	C 	0.95891	0.10358	0.57192	-0.1
Mof_H 	H 	0.9584	0.0913	0.5636	0.067
Mof_C 	C 	0.97254	0.10489	0.5886	0.061
Mof_H 	H 	0.9811	0.0931	0.5916	0.001
Mof_C 	C 	0.01763	0.13862	0.58301	0.063
Mof_H 	H 	0.007	0.1489	0.5841	-0.001
Mof_C 	C 	0.0294	0.13834	0.5654	-0.103
Mof_H 	H 	0.0269	0.1481	0.5545	0.068
Mof_C 	C 	0.0453	0.12333	0.5636	0.009
Mof_H 	H 	0.0541	0.1229	0.5516	0.037
Mof_C 	C 	0.04783	0.10924	0.57984	-0.052
Mof_C 	C 	0.03502	0.11085	0.59731	0.042
Mof_H 	H 	0.037	0.1013	0.6085	0.011
Mof_C 	C 	0.06441	0.09302	0.57908	0.135
Mof_C 	C 	0.00059	0.07478	0.62611	0.108
Mof_N 	N 	0.90904	0.23525	0.61692	-0.223
Mof_N 	N 	0.88715	0.10699	0.52446	-0.261
Mof_N 	N 	0.87497	0.15242	0.51551	-0.224
Mof_N 	N 	0.9204	0.15582	0.56091	-0.151
Mof_N 	N 	0.91034	0.19029	0.57025	-0.15
Mof_N 	N 	0.93887	0.17387	0.58763	-0.151
Mof_N 	N 	0.97432	0.12185	0.60075	-0.229
Mof_N 	N 	0.99881	0.09238	0.62676	-0.264
Mof_N 	N 	0.02009	0.12524	0.59897	-0.229
Mof_N 	N 	0.07831	0.09428	0.56397	-0.152
Mof_S 	S 	0.91304	0.07812	0.54463	-0.059
Mof_S 	S 	0.00216	0.04928	0.62346	-0.062
Mof_C 	C 	0.40972	0.71989	0.60258	0.033
Mof_H 	H 	0.3976	0.7173	0.5944	0.014
Mof_C 	C 	0.42742	0.7075	0.59914	-0.046
Mof_C 	C 	0.44523	0.71138	0.61072	0.006
Mof_H 	H 	0.4574	0.703	0.6092	0.038
Mof_C 	C 	0.44486	0.7281	0.62482	-0.1
Mof_H 	H 	0.4571	0.7318	0.6324	0.066
Mof_C 	C 	0.42686	0.73907	0.62758	0.061
Mof_H 	H 	0.4268	0.7501	0.6376	-0
Mof_C 	C 	0.39774	0.59533	0.53338	0.098
Mof_C 	C 	0.36148	0.66843	0.51321	0.057
Mof_H 	H 	0.3506	0.6671	0.5032	-0
Mof_C 	C 	0.3626	0.68666	0.52462	-0.096
Mof_H 	H 	0.3531	0.6978	0.522	0.063
Mof_C 	C 	0.37779	0.68858	0.54007	0.004
Mof_H 	H 	0.3784	0.7007	0.5487	0.038
Mof_C 	C 	0.3921	0.67226	0.54249	-0.045
Mof_C 	C 	0.39026	0.65472	0.53001	0.031
Mof_H 	H 	0.4002	0.6438	0.5317	0.017
Mof_C 	C 	0.40868	0.67282	0.55877	0.134
Mof_C 	C 	0.42567	0.6897	0.58461	0.133
Mof_C 	C 	0.43511	0.65684	0.57589	0.133
Mof_C 	C 	0.46232	0.63822	0.59601	0.039
Mof_H 	H 	0.4637	0.6506	0.6042	0.012
Mof_C 	C 	0.44779	0.63815	0.57952	-0.051
Mof_C 	C 	0.44589	0.6204	0.56735	0.009
Mof_H 	H 	0.436	0.6197	0.5562	0.037
Mof_C 	C 	0.45891	0.60358	0.57192	-0.1
Mof_H 	H 	0.4584	0.5913	0.5636	0.067
Mof_C 	C 	0.47254	0.60489	0.5886	0.061
Mof_H 	H 	0.4811	0.5931	0.5916	0.001
Mof_C 	C 	0.51763	0.63862	0.58301	0.063
Mof_H 	H 	0.507	0.6489	0.5841	-0.001
Mof_C 	C 	0.5294	0.63834	0.5654	-0.103
Mof_H 	H 	0.5269	0.6481	0.5545	0.068
Mof_C 	C 	0.5453	0.62333	0.5636	0.009
Mof_H 	H 	0.5541	0.6229	0.5516	0.037
Mof_C 	C 	0.54783	0.60924	0.57984	-0.052
Mof_C 	C 	0.53502	0.61085	0.59731	0.042
Mof_H 	H 	0.537	0.6013	0.6085	0.011
Mof_C 	C 	0.56441	0.59302	0.57908	0.135
Mof_C 	C 	0.50059	0.57478	0.62611	0.108
Mof_N 	N 	0.40904	0.73525	0.61692	-0.223
Mof_N 	N 	0.38715	0.60699	0.52446	-0.261
Mof_N 	N 	0.37497	0.65242	0.51551	-0.224
Mof_N 	N 	0.4204	0.65582	0.56091	-0.151
Mof_N 	N 	0.41034	0.69029	0.57025	-0.15
Mof_N 	N 	0.43887	0.67387	0.58763	-0.151
Mof_N 	N 	0.47432	0.62185	0.60075	-0.229
Mof_N 	N 	0.49881	0.59238	0.62676	-0.264
Mof_N 	N 	0.52009	0.62524	0.59897	-0.229
Mof_N 	N 	0.57831	0.59428	0.56397	-0.152
Mof_S 	S 	0.41304	0.57812	0.54463	-0.059
Mof_S 	S 	0.50216	0.54928	0.62346	-0.062
Mof_C 	C 	0.40972	0.21989	0.10258	0.033
Mof_H 	H 	0.3976	0.2173	0.0944	0.014
Mof_C 	C 	0.42742	0.2075	0.09914	-0.046
Mof_C 	C 	0.44523	0.21138	0.11072	0.006
Mof_H 	H 	0.4574	0.203	0.1092	0.038
Mof_C 	C 	0.44486	0.2281	0.12482	-0.1
Mof_H 	H 	0.4571	0.2318	0.1324	0.066
Mof_C 	C 	0.42686	0.23907	0.12758	0.061
Mof_H 	H 	0.4268	0.2501	0.1376	-0
Mof_C 	C 	0.39774	0.09533	0.03338	0.098
Mof_C 	C 	0.36148	0.16843	0.01321	0.057
Mof_H 	H 	0.3506	0.1671	0.0032	-0
Mof_C 	C 	0.3626	0.18666	0.02462	-0.096
Mof_H 	H 	0.3531	0.1978	0.022	0.063
Mof_C 	C 	0.37779	0.18858	0.04007	0.004
Mof_H 	H 	0.3784	0.2007	0.0487	0.038
Mof_C 	C 	0.3921	0.17226	0.04249	-0.045
Mof_C 	C 	0.39026	0.15472	0.03001	0.031
Mof_H 	H 	0.4002	0.1438	0.0317	0.017
Mof_C 	C 	0.40868	0.17282	0.05877	0.134
Mof_C 	C 	0.42567	0.1897	0.08461	0.133
Mof_C 	C 	0.43511	0.15684	0.07589	0.133
Mof_C 	C 	0.46232	0.13822	0.09601	0.039
Mof_H 	H 	0.4637	0.1506	0.1042	0.012
Mof_C 	C 	0.44779	0.13815	0.07952	-0.051
Mof_C 	C 	0.44589	0.1204	0.06735	0.009
Mof_H 	H 	0.436	0.1197	0.0562	0.037
Mof_C 	C 	0.45891	0.10358	0.07192	-0.1
Mof_H 	H 	0.4584	0.0913	0.0636	0.067
Mof_C 	C 	0.47254	0.10489	0.0886	0.061
Mof_H 	H 	0.4811	0.0931	0.0916	0.001
Mof_C 	C 	0.51763	0.13862	0.08301	0.063
Mof_H 	H 	0.507	0.1489	0.0841	-0.001
Mof_C 	C 	0.5294	0.13834	0.0654	-0.103
Mof_H 	H 	0.5269	0.1481	0.0545	0.068
Mof_C 	C 	0.5453	0.12333	0.0636	0.009
Mof_H 	H 	0.5541	0.1229	0.0516	0.037
Mof_C 	C 	0.54783	0.10924	0.07984	-0.052
Mof_C 	C 	0.53502	0.11085	0.09731	0.042
Mof_H 	H 	0.537	0.1013	0.1085	0.011
Mof_C 	C 	0.56441	0.09302	0.07908	0.135
Mof_C 	C 	0.50059	0.07478	0.12611	0.108
Mof_N 	N 	0.40904	0.23525	0.11692	-0.223
Mof_N 	N 	0.38715	0.10699	0.02446	-0.261
Mof_N 	N 	0.37497	0.15242	0.01551	-0.224
Mof_N 	N 	0.4204	0.15582	0.06091	-0.151
Mof_N 	N 	0.41034	0.19029	0.07025	-0.15
Mof_N 	N 	0.43887	0.17387	0.08763	-0.151
Mof_N 	N 	0.47432	0.12185	0.10075	-0.229
Mof_N 	N 	0.49881	0.09238	0.12676	-0.264
Mof_N 	N 	0.52009	0.12524	0.09897	-0.229
Mof_N 	N 	0.57831	0.09428	0.06397	-0.152
Mof_S 	S 	0.41304	0.07812	0.04463	-0.059
Mof_S 	S 	0.50216	0.04928	0.12346	-0.062
Mof_C 	C 	0.34028	0.21989	0.64742	0.033
Mof_H 	H 	0.3524	0.2173	0.6556	0.014
Mof_C 	C 	0.32258	0.2075	0.65086	-0.046
Mof_C 	C 	0.30477	0.21138	0.63928	0.006
Mof_H 	H 	0.2926	0.203	0.6408	0.038
Mof_C 	C 	0.30514	0.2281	0.62518	-0.1
Mof_H 	H 	0.2929	0.2318	0.6176	0.066
Mof_C 	C 	0.32314	0.23907	0.62242	0.061
Mof_H 	H 	0.3232	0.2501	0.6124	-0
Mof_C 	C 	0.35226	0.09533	0.71662	0.098
Mof_C 	C 	0.38852	0.16843	0.73679	0.057
Mof_H 	H 	0.3994	0.1671	0.7468	-0
Mof_C 	C 	0.3874	0.18666	0.72538	-0.096
Mof_H 	H 	0.3969	0.1978	0.728	0.063
Mof_C 	C 	0.37221	0.18858	0.70993	0.004
Mof_H 	H 	0.3716	0.2007	0.7013	0.038
Mof_C 	C 	0.3579	0.17226	0.70751	-0.045
Mof_C 	C 	0.35974	0.15472	0.71999	0.031
Mof_H 	H 	0.3498	0.1438	0.7183	0.017
Mof_C 	C 	0.34132	0.17282	0.69123	0.134
Mof_C 	C 	0.32433	0.1897	0.66539	0.133
Mof_C 	C 	0.31489	0.15684	0.67411	0.133
Mof_C 	C 	0.28768	0.13822	0.65399	0.039
Mof_H 	H 	0.2863	0.1506	0.6458	0.012
Mof_C 	C 	0.30221	0.13815	0.67048	-0.051
Mof_C 	C 	0.30411	0.1204	0.68265	0.009
Mof_H 	H 	0.314	0.1197	0.6938	0.037
Mof_C 	C 	0.29109	0.10358	0.67808	-0.1
Mof_H 	H 	0.2916	0.0913	0.6864	0.067
Mof_C 	C 	0.27746	0.10489	0.6614	0.061
Mof_H 	H 	0.2689	0.0931	0.6584	0.001
Mof_C 	C 	0.23237	0.13862	0.66699	0.063
Mof_H 	H 	0.243	0.1489	0.6659	-0.001
Mof_C 	C 	0.2206	0.13834	0.6846	-0.103
Mof_H 	H 	0.2231	0.1481	0.6955	0.068
Mof_C 	C 	0.2047	0.12333	0.6864	0.009
Mof_H 	H 	0.1959	0.1229	0.6984	0.037
Mof_C 	C 	0.20217	0.10924	0.67016	-0.052
Mof_C 	C 	0.21498	0.11085	0.65269	0.042
Mof_H 	H 	0.213	0.1013	0.6415	0.011
Mof_C 	C 	0.18559	0.09302	0.67092	0.135
Mof_C 	C 	0.24941	0.07478	0.62389	0.108
Mof_N 	N 	0.34096	0.23525	0.63308	-0.223
Mof_N 	N 	0.36285	0.10699	0.72554	-0.261
Mof_N 	N 	0.37503	0.15242	0.73449	-0.224
Mof_N 	N 	0.3296	0.15582	0.68909	-0.151
Mof_N 	N 	0.33966	0.19029	0.67975	-0.15
Mof_N 	N 	0.31113	0.17387	0.66237	-0.151
Mof_N 	N 	0.27568	0.12185	0.64925	-0.229
Mof_N 	N 	0.25119	0.09238	0.62324	-0.264
Mof_N 	N 	0.22991	0.12524	0.65103	-0.229
Mof_N 	N 	0.17169	0.09428	0.68603	-0.152
Mof_S 	S 	0.33696	0.07812	0.70537	-0.059
Mof_S 	S 	0.24784	0.04928	0.62654	-0.062
Mof_C 	C 	0.34028	0.71989	0.14742	0.033
Mof_H 	H 	0.3524	0.7173	0.1556	0.014
Mof_C 	C 	0.32258	0.7075	0.15086	-0.046
Mof_C 	C 	0.30477	0.71138	0.13928	0.006
Mof_H 	H 	0.2926	0.703	0.1408	0.038
Mof_C 	C 	0.30514	0.7281	0.12518	-0.1
Mof_H 	H 	0.2929	0.7318	0.1176	0.066
Mof_C 	C 	0.32314	0.73907	0.12242	0.061
Mof_H 	H 	0.3232	0.7501	0.1124	-0
Mof_C 	C 	0.35226	0.59533	0.21662	0.098
Mof_C 	C 	0.38852	0.66843	0.23679	0.057
Mof_H 	H 	0.3994	0.6671	0.2468	-0
Mof_C 	C 	0.3874	0.68666	0.22538	-0.096
Mof_H 	H 	0.3969	0.6978	0.228	0.063
Mof_C 	C 	0.37221	0.68858	0.20993	0.004
Mof_H 	H 	0.3716	0.7007	0.2013	0.038
Mof_C 	C 	0.3579	0.67226	0.20751	-0.045
Mof_C 	C 	0.35974	0.65472	0.21999	0.031
Mof_H 	H 	0.3498	0.6438	0.2183	0.017
Mof_C 	C 	0.34132	0.67282	0.19123	0.134
Mof_C 	C 	0.32433	0.6897	0.16539	0.133
Mof_C 	C 	0.31489	0.65684	0.17411	0.133
Mof_C 	C 	0.28768	0.63822	0.15399	0.039
Mof_H 	H 	0.2863	0.6506	0.1458	0.012
Mof_C 	C 	0.30221	0.63815	0.17048	-0.051
Mof_C 	C 	0.30411	0.6204	0.18265	0.009
Mof_H 	H 	0.314	0.6197	0.1938	0.037
Mof_C 	C 	0.29109	0.60358	0.17808	-0.1
Mof_H 	H 	0.2916	0.5913	0.1864	0.067
Mof_C 	C 	0.27746	0.60489	0.1614	0.061
Mof_H 	H 	0.2689	0.5931	0.1584	0.001
Mof_C 	C 	0.23237	0.63862	0.16699	0.063
Mof_H 	H 	0.243	0.6489	0.1659	-0.001
Mof_C 	C 	0.2206	0.63834	0.1846	-0.103
Mof_H 	H 	0.2231	0.6481	0.1955	0.068
Mof_C 	C 	0.2047	0.62333	0.1864	0.009
Mof_H 	H 	0.1959	0.6229	0.1984	0.037
Mof_C 	C 	0.20217	0.60924	0.17016	-0.052
Mof_C 	C 	0.21498	0.61085	0.15269	0.042
Mof_H 	H 	0.213	0.6013	0.1415	0.011
Mof_C 	C 	0.18559	0.59302	0.17092	0.135
Mof_C 	C 	0.24941	0.57478	0.12389	0.108
Mof_N 	N 	0.34096	0.73525	0.13308	-0.223
Mof_N 	N 	0.36285	0.60699	0.22554	-0.261
Mof_N 	N 	0.37503	0.65242	0.23449	-0.224
Mof_N 	N 	0.3296	0.65582	0.18909	-0.151
Mof_N 	N 	0.33966	0.69029	0.17975	-0.15
Mof_N 	N 	0.31113	0.67387	0.16237	-0.151
Mof_N 	N 	0.27568	0.62185	0.14925	-0.229
Mof_N 	N 	0.25119	0.59238	0.12324	-0.264
Mof_N 	N 	0.22991	0.62524	0.15103	-0.229
Mof_N 	N 	0.17169	0.59428	0.18603	-0.152
Mof_S 	S 	0.33696	0.57812	0.20537	-0.059
Mof_S 	S 	0.24784	0.54928	0.12654	-0.062
Mof_C 	C 	0.84028	0.21989	0.14742	0.033
Mof_H 	H 	0.8524	0.2173	0.1556	0.014
Mof_C 	C 	0.82258	0.2075	0.15086	-0.046
Mof_C 	C 	0.80477	0.21138	0.13928	0.006
Mof_H 	H 	0.7926	0.203	0.1408	0.038
Mof_C 	C 	0.80514	0.2281	0.12518	-0.1
Mof_H 	H 	0.7929	0.2318	0.1176	0.066
Mof_C 	C 	0.82314	0.23907	0.12242	0.061
Mof_H 	H 	0.8232	0.2501	0.1124	-0
Mof_C 	C 	0.85226	0.09533	0.21662	0.098
Mof_C 	C 	0.88852	0.16843	0.23679	0.057
Mof_H 	H 	0.8994	0.1671	0.2468	-0
Mof_C 	C 	0.8874	0.18666	0.22538	-0.096
Mof_H 	H 	0.8969	0.1978	0.228	0.063
Mof_C 	C 	0.87221	0.18858	0.20993	0.004
Mof_H 	H 	0.8716	0.2007	0.2013	0.038
Mof_C 	C 	0.8579	0.17226	0.20751	-0.045
Mof_C 	C 	0.85974	0.15472	0.21999	0.031
Mof_H 	H 	0.8498	0.1438	0.2183	0.017
Mof_C 	C 	0.84132	0.17282	0.19123	0.134
Mof_C 	C 	0.82433	0.1897	0.16539	0.133
Mof_C 	C 	0.81489	0.15684	0.17411	0.133
Mof_C 	C 	0.78768	0.13822	0.15399	0.039
Mof_H 	H 	0.7863	0.1506	0.1458	0.012
Mof_C 	C 	0.80221	0.13815	0.17048	-0.051
Mof_C 	C 	0.80411	0.1204	0.18265	0.009
Mof_H 	H 	0.814	0.1197	0.1938	0.037
Mof_C 	C 	0.79109	0.10358	0.17808	-0.1
Mof_H 	H 	0.7916	0.0913	0.1864	0.067
Mof_C 	C 	0.77746	0.10489	0.1614	0.061
Mof_H 	H 	0.7689	0.0931	0.1584	0.001
Mof_C 	C 	0.73237	0.13862	0.16699	0.063
Mof_H 	H 	0.743	0.1489	0.1659	-0.001
Mof_C 	C 	0.7206	0.13834	0.1846	-0.103
Mof_H 	H 	0.7231	0.1481	0.1955	0.068
Mof_C 	C 	0.7047	0.12333	0.1864	0.009
Mof_H 	H 	0.6959	0.1229	0.1984	0.037
Mof_C 	C 	0.70217	0.10924	0.17016	-0.052
Mof_C 	C 	0.71498	0.11085	0.15269	0.042
Mof_H 	H 	0.713	0.1013	0.1415	0.011
Mof_C 	C 	0.68559	0.09302	0.17092	0.135
Mof_C 	C 	0.74941	0.07478	0.12389	0.108
Mof_N 	N 	0.84096	0.23525	0.13308	-0.223
Mof_N 	N 	0.86285	0.10699	0.22554	-0.261
Mof_N 	N 	0.87503	0.15242	0.23449	-0.224
Mof_N 	N 	0.8296	0.15582	0.18909	-0.151
Mof_N 	N 	0.83966	0.19029	0.17975	-0.15
Mof_N 	N 	0.81113	0.17387	0.16237	-0.151
Mof_N 	N 	0.77568	0.12185	0.14925	-0.229
Mof_N 	N 	0.75119	0.09238	0.12324	-0.264
Mof_N 	N 	0.72991	0.12524	0.15103	-0.229
Mof_N 	N 	0.67169	0.09428	0.18603	-0.152
Mof_S 	S 	0.83696	0.07812	0.20537	-0.059
Mof_S 	S 	0.74784	0.04928	0.12654	-0.062
Mof_C 	C 	0.84028	0.71989	0.64742	0.033
Mof_H 	H 	0.8524	0.7173	0.6556	0.014
Mof_C 	C 	0.82258	0.7075	0.65086	-0.046
Mof_C 	C 	0.80477	0.71138	0.63928	0.006
Mof_H 	H 	0.7926	0.703	0.6408	0.038
Mof_C 	C 	0.80514	0.7281	0.62518	-0.1
Mof_H 	H 	0.7929	0.7318	0.6176	0.066
Mof_C 	C 	0.82314	0.73907	0.62242	0.061
Mof_H 	H 	0.8232	0.7501	0.6124	-0
Mof_C 	C 	0.85226	0.59533	0.71662	0.098
Mof_C 	C 	0.88852	0.66843	0.73679	0.057
Mof_H 	H 	0.8994	0.6671	0.7468	-0
Mof_C 	C 	0.8874	0.68666	0.72538	-0.096
Mof_H 	H 	0.8969	0.6978	0.728	0.063
Mof_C 	C 	0.87221	0.68858	0.70993	0.004
Mof_H 	H 	0.8716	0.7007	0.7013	0.038
Mof_C 	C 	0.8579	0.67226	0.70751	-0.045
Mof_C 	C 	0.85974	0.65472	0.71999	0.031
Mof_H 	H 	0.8498	0.6438	0.7183	0.017
Mof_C 	C 	0.84132	0.67282	0.69123	0.134
Mof_C 	C 	0.82433	0.6897	0.66539	0.133
Mof_C 	C 	0.81489	0.65684	0.67411	0.133
Mof_C 	C 	0.78768	0.63822	0.65399	0.039
Mof_H 	H 	0.7863	0.6506	0.6458	0.012
Mof_C 	C 	0.80221	0.63815	0.67048	-0.051
Mof_C 	C 	0.80411	0.6204	0.68265	0.009
Mof_H 	H 	0.814	0.6197	0.6938	0.037
Mof_C 	C 	0.79109	0.60358	0.67808	-0.1
Mof_H 	H 	0.7916	0.5913	0.6864	0.067
Mof_C 	C 	0.77746	0.60489	0.6614	0.061
Mof_H 	H 	0.7689	0.5931	0.6584	0.001
Mof_C 	C 	0.73237	0.63862	0.66699	0.063
Mof_H 	H 	0.743	0.6489	0.6659	-0.001
Mof_C 	C 	0.7206	0.63834	0.6846	-0.103
Mof_H 	H 	0.7231	0.6481	0.6955	0.068
Mof_C 	C 	0.7047	0.62333	0.6864	0.009
Mof_H 	H 	0.6959	0.6229	0.6984	0.037
Mof_C 	C 	0.70217	0.60924	0.67016	-0.052
Mof_C 	C 	0.71498	0.61085	0.65269	0.042
Mof_H 	H 	0.713	0.6013	0.6415	0.011
Mof_C 	C 	0.68559	0.59302	0.67092	0.135
Mof_C 	C 	0.74941	0.57478	0.62389	0.108
Mof_N 	N 	0.84096	0.73525	0.63308	-0.223
Mof_N 	N 	0.86285	0.60699	0.72554	-0.261
Mof_N 	N 	0.87503	0.65242	0.73449	-0.224
Mof_N 	N 	0.8296	0.65582	0.68909	-0.151
Mof_N 	N 	0.83966	0.69029	0.67975	-0.15
Mof_N 	N 	0.81113	0.67387	0.66237	-0.151
Mof_N 	N 	0.77568	0.62185	0.64925	-0.229
Mof_N 	N 	0.75119	0.59238	0.62324	-0.264
Mof_N 	N 	0.72991	0.62524	0.65103	-0.229
Mof_N 	N 	0.67169	0.59428	0.68603	-0.152
Mof_S 	S 	0.83696	0.57812	0.70537	-0.059
Mof_S 	S 	0.74784	0.54928	0.62654	-0.062
Mof_C 	C 	0.03011	0.14742	0.40972	0.033
Mof_H 	H 	0.0327	0.1556	0.3976	0.014
Mof_C 	C 	0.0425	0.15086	0.42742	-0.046
Mof_C 	C 	0.03862	0.13928	0.44523	0.006
Mof_H 	H 	0.047	0.1408	0.4574	0.038
Mof_C 	C 	0.0219	0.12518	0.44486	-0.1
Mof_H 	H 	0.0182	0.1176	0.4571	0.066
Mof_C 	C 	0.01093	0.12242	0.42686	0.061
Mof_H 	H 	0.9999	0.1124	0.4268	-0
Mof_C 	C 	0.15467	0.21662	0.39774	0.098
Mof_C 	C 	0.08157	0.23679	0.36148	0.057
Mof_H 	H 	0.0829	0.2468	0.3506	-0
Mof_C 	C 	0.06334	0.22538	0.3626	-0.096
Mof_H 	H 	0.0522	0.228	0.3531	0.063
Mof_C 	C 	0.06142	0.20993	0.37779	0.004
Mof_H 	H 	0.0493	0.2013	0.3784	0.038
Mof_C 	C 	0.07774	0.20751	0.3921	-0.045
Mof_C 	C 	0.09528	0.21999	0.39026	0.031
Mof_H 	H 	0.1062	0.2183	0.4002	0.017
Mof_C 	C 	0.07718	0.19123	0.40868	0.134
Mof_C 	C 	0.0603	0.16539	0.42567	0.133
Mof_C 	C 	0.09316	0.17411	0.43511	0.133
Mof_C 	C 	0.11178	0.15399	0.46232	0.039
Mof_H 	H 	0.0994	0.1458	0.4637	0.012
Mof_C 	C 	0.11185	0.17048	0.44779	-0.051
Mof_C 	C 	0.1296	0.18265	0.44589	0.009
Mof_H 	H 	0.1303	0.1938	0.436	0.037
Mof_C 	C 	0.14642	0.17808	0.45891	-0.1
Mof_H 	H 	0.1587	0.1864	0.4584	0.067
Mof_C 	C 	0.14511	0.1614	0.47254	0.061
Mof_H 	H 	0.1569	0.1584	0.4811	0.001
Mof_C 	C 	0.11138	0.16699	0.51763	0.063
Mof_H 	H 	0.1011	0.1659	0.507	-0.001
Mof_C 	C 	0.11166	0.1846	0.5294	-0.103
Mof_H 	H 	0.1019	0.1955	0.5269	0.068
Mof_C 	C 	0.12667	0.1864	0.5453	0.009
Mof_H 	H 	0.1271	0.1984	0.5541	0.037
Mof_C 	C 	0.14076	0.17016	0.54783	-0.052
Mof_C 	C 	0.13915	0.15269	0.53502	0.042
Mof_H 	H 	0.1487	0.1415	0.537	0.011
Mof_C 	C 	0.15698	0.17092	0.56441	0.135
Mof_C 	C 	0.17522	0.12389	0.50059	0.108
Mof_N 	N 	0.01475	0.13308	0.40904	-0.223
Mof_N 	N 	0.14301	0.22554	0.38715	-0.261
Mof_N 	N 	0.09758	0.23449	0.37497	-0.224
Mof_N 	N 	0.09418	0.18909	0.4204	-0.151
Mof_N 	N 	0.05971	0.17975	0.41034	-0.15
Mof_N 	N 	0.07613	0.16237	0.43887	-0.151
Mof_N 	N 	0.12815	0.14925	0.47432	-0.229
Mof_N 	N 	0.15762	0.12324	0.49881	-0.264
Mof_N 	N 	0.12476	0.15103	0.52009	-0.229
Mof_N 	N 	0.15572	0.18603	0.57831	-0.152
Mof_S 	S 	0.17188	0.20537	0.41304	-0.059
Mof_S 	S 	0.20072	0.12654	0.50216	-0.062
Mof_C 	C 	0.03011	0.64742	0.90972	0.033
Mof_H 	H 	0.0327	0.6556	0.8976	0.014
Mof_C 	C 	0.0425	0.65086	0.92742	-0.046
Mof_C 	C 	0.03862	0.63928	0.94523	0.006
Mof_H 	H 	0.047	0.6408	0.9574	0.038
Mof_C 	C 	0.0219	0.62518	0.94486	-0.1
Mof_H 	H 	0.0182	0.6176	0.9571	0.066
Mof_C 	C 	0.01093	0.62242	0.92686	0.061
Mof_H 	H 	0.9999	0.6124	0.9268	-0
Mof_C 	C 	0.15467	0.71662	0.89774	0.098
Mof_C 	C 	0.08157	0.73679	0.86148	0.057
Mof_H 	H 	0.0829	0.7468	0.8506	-0
Mof_C 	C 	0.06334	0.72538	0.8626	-0.096
Mof_H 	H 	0.0522	0.728	0.8531	0.063
Mof_C 	C 	0.06142	0.70993	0.87779	0.004
Mof_H 	H 	0.0493	0.7013	0.8784	0.038
Mof_C 	C 	0.07774	0.70751	0.8921	-0.045
Mof_C 	C 	0.09528	0.71999	0.89026	0.031
Mof_H 	H 	0.1062	0.7183	0.9002	0.017
Mof_C 	C 	0.07718	0.69123	0.90868	0.134
Mof_C 	C 	0.0603	0.66539	0.92567	0.133
Mof_C 	C 	0.09316	0.67411	0.93511	0.133
Mof_C 	C 	0.11178	0.65399	0.96232	0.039
Mof_H 	H 	0.0994	0.6458	0.9637	0.012
Mof_C 	C 	0.11185	0.67048	0.94779	-0.051
Mof_C 	C 	0.1296	0.68265	0.94589	0.009
Mof_H 	H 	0.1303	0.6938	0.936	0.037
Mof_C 	C 	0.14642	0.67808	0.95891	-0.1
Mof_H 	H 	0.1587	0.6864	0.9584	0.067
Mof_C 	C 	0.14511	0.6614	0.97254	0.061
Mof_H 	H 	0.1569	0.6584	0.9811	0.001
Mof_C 	C 	0.11138	0.66699	0.01763	0.063
Mof_H 	H 	0.1011	0.6659	0.007	-0.001
Mof_C 	C 	0.11166	0.6846	0.0294	-0.103
Mof_H 	H 	0.1019	0.6955	0.0269	0.068
Mof_C 	C 	0.12667	0.6864	0.0453	0.009
Mof_H 	H 	0.1271	0.6984	0.0541	0.037
Mof_C 	C 	0.14076	0.67016	0.04783	-0.052
Mof_C 	C 	0.13915	0.65269	0.03502	0.042
Mof_H 	H 	0.1487	0.6415	0.037	0.011
Mof_C 	C 	0.15698	0.67092	0.06441	0.135
Mof_C 	C 	0.17522	0.62389	0.00059	0.108
Mof_N 	N 	0.01475	0.63308	0.90904	-0.223
Mof_N 	N 	0.14301	0.72554	0.88715	-0.261
Mof_N 	N 	0.09758	0.73449	0.87497	-0.224
Mof_N 	N 	0.09418	0.68909	0.9204	-0.151
Mof_N 	N 	0.05971	0.67975	0.91034	-0.15
Mof_N 	N 	0.07613	0.66237	0.93887	-0.151
Mof_N 	N 	0.12815	0.64925	0.97432	-0.229
Mof_N 	N 	0.15762	0.62324	0.99881	-0.264
Mof_N 	N 	0.12476	0.65103	0.02009	-0.229
Mof_N 	N 	0.15572	0.68603	0.07831	-0.152
Mof_S 	S 	0.17188	0.70537	0.91304	-0.059
Mof_S 	S 	0.20072	0.62654	0.00216	-0.062
Mof_C 	C 	0.53011	0.14742	0.90972	0.033
Mof_H 	H 	0.5327	0.1556	0.8976	0.014
Mof_C 	C 	0.5425	0.15086	0.92742	-0.046
Mof_C 	C 	0.53862	0.13928	0.94523	0.006
Mof_H 	H 	0.547	0.1408	0.9574	0.038
Mof_C 	C 	0.5219	0.12518	0.94486	-0.1
Mof_H 	H 	0.5182	0.1176	0.9571	0.066
Mof_C 	C 	0.51093	0.12242	0.92686	0.061
Mof_H 	H 	0.4999	0.1124	0.9268	-0
Mof_C 	C 	0.65467	0.21662	0.89774	0.098
Mof_C 	C 	0.58157	0.23679	0.86148	0.057
Mof_H 	H 	0.5829	0.2468	0.8506	-0
Mof_C 	C 	0.56334	0.22538	0.8626	-0.096
Mof_H 	H 	0.5522	0.228	0.8531	0.063
Mof_C 	C 	0.56142	0.20993	0.87779	0.004
Mof_H 	H 	0.5493	0.2013	0.8784	0.038
Mof_C 	C 	0.57774	0.20751	0.8921	-0.045
Mof_C 	C 	0.59528	0.21999	0.89026	0.031
Mof_H 	H 	0.6062	0.2183	0.9002	0.017
Mof_C 	C 	0.57718	0.19123	0.90868	0.134
Mof_C 	C 	0.5603	0.16539	0.92567	0.133
Mof_C 	C 	0.59316	0.17411	0.93511	0.133
Mof_C 	C 	0.61178	0.15399	0.96232	0.039
Mof_H 	H 	0.5994	0.1458	0.9637	0.012
Mof_C 	C 	0.61185	0.17048	0.94779	-0.051
Mof_C 	C 	0.6296	0.18265	0.94589	0.009
Mof_H 	H 	0.6303	0.1938	0.936	0.037
Mof_C 	C 	0.64642	0.17808	0.95891	-0.1
Mof_H 	H 	0.6587	0.1864	0.9584	0.067
Mof_C 	C 	0.64511	0.1614	0.97254	0.061
Mof_H 	H 	0.6569	0.1584	0.9811	0.001
Mof_C 	C 	0.61138	0.16699	0.01763	0.063
Mof_H 	H 	0.6011	0.1659	0.007	-0.001
Mof_C 	C 	0.61166	0.1846	0.0294	-0.103
Mof_H 	H 	0.6019	0.1955	0.0269	0.068
Mof_C 	C 	0.62667	0.1864	0.0453	0.009
Mof_H 	H 	0.6271	0.1984	0.0541	0.037
Mof_C 	C 	0.64076	0.17016	0.04783	-0.052
Mof_C 	C 	0.63915	0.15269	0.03502	0.042
Mof_H 	H 	0.6487	0.1415	0.037	0.011
Mof_C 	C 	0.65698	0.17092	0.06441	0.135
Mof_C 	C 	0.67522	0.12389	0.00059	0.108
Mof_N 	N 	0.51475	0.13308	0.90904	-0.223
Mof_N 	N 	0.64301	0.22554	0.88715	-0.261
Mof_N 	N 	0.59758	0.23449	0.87497	-0.224
Mof_N 	N 	0.59418	0.18909	0.9204	-0.151
Mof_N 	N 	0.55971	0.17975	0.91034	-0.15
Mof_N 	N 	0.57613	0.16237	0.93887	-0.151
Mof_N 	N 	0.62815	0.14925	0.97432	-0.229
Mof_N 	N 	0.65762	0.12324	0.99881	-0.264
Mof_N 	N 	0.62476	0.15103	0.02009	-0.229
Mof_N 	N 	0.65572	0.18603	0.07831	-0.152
Mof_S 	S 	0.67188	0.20537	0.91304	-0.059
Mof_S 	S 	0.70072	0.12654	0.00216	-0.062
Mof_C 	C 	0.53011	0.64742	0.40972	0.033
Mof_H 	H 	0.5327	0.6556	0.3976	0.014
Mof_C 	C 	0.5425	0.65086	0.42742	-0.046
Mof_C 	C 	0.53862	0.63928	0.44523	0.006
Mof_H 	H 	0.547	0.6408	0.4574	0.038
Mof_C 	C 	0.5219	0.62518	0.44486	-0.1
Mof_H 	H 	0.5182	0.6176	0.4571	0.066
Mof_C 	C 	0.51093	0.62242	0.42686	0.061
Mof_H 	H 	0.4999	0.6124	0.4268	-0
Mof_C 	C 	0.65467	0.71662	0.39774	0.098
Mof_C 	C 	0.58157	0.73679	0.36148	0.057
Mof_H 	H 	0.5829	0.7468	0.3506	-0
Mof_C 	C 	0.56334	0.72538	0.3626	-0.096
Mof_H 	H 	0.5522	0.728	0.3531	0.063
Mof_C 	C 	0.56142	0.70993	0.37779	0.004
Mof_H 	H 	0.5493	0.7013	0.3784	0.038
Mof_C 	C 	0.57774	0.70751	0.3921	-0.045
Mof_C 	C 	0.59528	0.71999	0.39026	0.031
Mof_H 	H 	0.6062	0.7183	0.4002	0.017
Mof_C 	C 	0.57718	0.69123	0.40868	0.134
Mof_C 	C 	0.5603	0.66539	0.42567	0.133
Mof_C 	C 	0.59316	0.67411	0.43511	0.133
Mof_C 	C 	0.61178	0.65399	0.46232	0.039
Mof_H 	H 	0.5994	0.6458	0.4637	0.012
Mof_C 	C 	0.61185	0.67048	0.44779	-0.051
Mof_C 	C 	0.6296	0.68265	0.44589	0.009
Mof_H 	H 	0.6303	0.6938	0.436	0.037
Mof_C 	C 	0.64642	0.67808	0.45891	-0.1
Mof_H 	H 	0.6587	0.6864	0.4584	0.067
Mof_C 	C 	0.64511	0.6614	0.47254	0.061
Mof_H 	H 	0.6569	0.6584	0.4811	0.001
Mof_C 	C 	0.61138	0.66699	0.51763	0.063
Mof_H 	H 	0.6011	0.6659	0.507	-0.001
Mof_C 	C 	0.61166	0.6846	0.5294	-0.103
Mof_H 	H 	0.6019	0.6955	0.5269	0.068
Mof_C 	C 	0.62667	0.6864	0.5453	0.009
Mof_H 	H 	0.6271	0.6984	0.5541	0.037
Mof_C 	C 	0.64076	0.67016	0.54783	-0.052
Mof_C 	C 	0.63915	0.65269	0.53502	0.042
Mof_H 	H 	0.6487	0.6415	0.537	0.011
Mof_C 	C 	0.65698	0.67092	0.56441	0.135
Mof_C 	C 	0.67522	0.62389	0.50059	0.108
Mof_N 	N 	0.51475	0.63308	0.40904	-0.223
Mof_N 	N 	0.64301	0.72554	0.38715	-0.261
Mof_N 	N 	0.59758	0.73449	0.37497	-0.224
Mof_N 	N 	0.59418	0.68909	0.4204	-0.151
Mof_N 	N 	0.55971	0.67975	0.41034	-0.15
Mof_N 	N 	0.57613	0.66237	0.43887	-0.151
Mof_N 	N 	0.62815	0.64925	0.47432	-0.229
Mof_N 	N 	0.65762	0.62324	0.49881	-0.264
Mof_N 	N 	0.62476	0.65103	0.52009	-0.229
Mof_N 	N 	0.65572	0.68603	0.57831	-0.152
Mof_S 	S 	0.67188	0.70537	0.41304	-0.059
Mof_S 	S 	0.70072	0.62654	0.50216	-0.062
Mof_C 	C 	0.53011	0.60258	0.84028	0.033
Mof_H 	H 	0.5327	0.5944	0.8524	0.014
Mof_C 	C 	0.5425	0.59914	0.82258	-0.046
Mof_C 	C 	0.53862	0.61072	0.80477	0.006
Mof_H 	H 	0.547	0.6092	0.7926	0.038
Mof_C 	C 	0.5219	0.62482	0.80514	-0.1
Mof_H 	H 	0.5182	0.6324	0.7929	0.066
Mof_C 	C 	0.51093	0.62758	0.82314	0.061
Mof_H 	H 	0.4999	0.6376	0.8232	-0
Mof_C 	C 	0.65467	0.53338	0.85226	0.098
Mof_C 	C 	0.58157	0.51321	0.88852	0.057
Mof_H 	H 	0.5829	0.5032	0.8994	-0
Mof_C 	C 	0.56334	0.52462	0.8874	-0.096
Mof_H 	H 	0.5522	0.522	0.8969	0.063
Mof_C 	C 	0.56142	0.54007	0.87221	0.004
Mof_H 	H 	0.5493	0.5487	0.8716	0.038
Mof_C 	C 	0.57774	0.54249	0.8579	-0.045
Mof_C 	C 	0.59528	0.53001	0.85974	0.031
Mof_H 	H 	0.6062	0.5317	0.8498	0.017
Mof_C 	C 	0.57718	0.55877	0.84132	0.134
Mof_C 	C 	0.5603	0.58461	0.82433	0.133
Mof_C 	C 	0.59316	0.57589	0.81489	0.133
Mof_C 	C 	0.61178	0.59601	0.78768	0.039
Mof_H 	H 	0.5994	0.6042	0.7863	0.012
Mof_C 	C 	0.61185	0.57952	0.80221	-0.051
Mof_C 	C 	0.6296	0.56735	0.80411	0.009
Mof_H 	H 	0.6303	0.5562	0.814	0.037
Mof_C 	C 	0.64642	0.57192	0.79109	-0.1
Mof_H 	H 	0.6587	0.5636	0.7916	0.067
Mof_C 	C 	0.64511	0.5886	0.77746	0.061
Mof_H 	H 	0.6569	0.5916	0.7689	0.001
Mof_C 	C 	0.61138	0.58301	0.73237	0.063
Mof_H 	H 	0.6011	0.5841	0.743	-0.001
Mof_C 	C 	0.61166	0.5654	0.7206	-0.103
Mof_H 	H 	0.6019	0.5545	0.7231	0.068
Mof_C 	C 	0.62667	0.5636	0.7047	0.009
Mof_H 	H 	0.6271	0.5516	0.6959	0.037
Mof_C 	C 	0.64076	0.57984	0.70217	-0.052
Mof_C 	C 	0.63915	0.59731	0.71498	0.042
Mof_H 	H 	0.6487	0.6085	0.713	0.011
Mof_C 	C 	0.65698	0.57908	0.68559	0.135
Mof_C 	C 	0.67522	0.62611	0.74941	0.108
Mof_N 	N 	0.51475	0.61692	0.84096	-0.223
Mof_N 	N 	0.64301	0.52446	0.86285	-0.261
Mof_N 	N 	0.59758	0.51551	0.87503	-0.224
Mof_N 	N 	0.59418	0.56091	0.8296	-0.151
Mof_N 	N 	0.55971	0.57025	0.83966	-0.15
Mof_N 	N 	0.57613	0.58763	0.81113	-0.151
Mof_N 	N 	0.62815	0.60075	0.77568	-0.229
Mof_N 	N 	0.65762	0.62676	0.75119	-0.264
Mof_N 	N 	0.62476	0.59897	0.72991	-0.229
Mof_N 	N 	0.65572	0.56397	0.67169	-0.152
Mof_S 	S 	0.67188	0.54463	0.83696	-0.059
Mof_S 	S 	0.70072	0.62346	0.74784	-0.062
Mof_C 	C 	0.53011	0.10258	0.34028	0.033
Mof_H 	H 	0.5327	0.0944	0.3524	0.014
Mof_C 	C 	0.5425	0.09914	0.32258	-0.046
Mof_C 	C 	0.53862	0.11072	0.30477	0.006
Mof_H 	H 	0.547	0.1092	0.2926	0.038
Mof_C 	C 	0.5219	0.12482	0.30514	-0.1
Mof_H 	H 	0.5182	0.1324	0.2929	0.066
Mof_C 	C 	0.51093	0.12758	0.32314	0.061
Mof_H 	H 	0.4999	0.1376	0.3232	-0
Mof_C 	C 	0.65467	0.03338	0.35226	0.098
Mof_C 	C 	0.58157	0.01321	0.38852	0.057
Mof_H 	H 	0.5829	0.0032	0.3994	-0
Mof_C 	C 	0.56334	0.02462	0.3874	-0.096
Mof_H 	H 	0.5522	0.022	0.3969	0.063
Mof_C 	C 	0.56142	0.04007	0.37221	0.004
Mof_H 	H 	0.5493	0.0487	0.3716	0.038
Mof_C 	C 	0.57774	0.04249	0.3579	-0.045
Mof_C 	C 	0.59528	0.03001	0.35974	0.031
Mof_H 	H 	0.6062	0.0317	0.3498	0.017
Mof_C 	C 	0.57718	0.05877	0.34132	0.134
Mof_C 	C 	0.5603	0.08461	0.32433	0.133
Mof_C 	C 	0.59316	0.07589	0.31489	0.133
Mof_C 	C 	0.61178	0.09601	0.28768	0.039
Mof_H 	H 	0.5994	0.1042	0.2863	0.012
Mof_C 	C 	0.61185	0.07952	0.30221	-0.051
Mof_C 	C 	0.6296	0.06735	0.30411	0.009
Mof_H 	H 	0.6303	0.0562	0.314	0.037
Mof_C 	C 	0.64642	0.07192	0.29109	-0.1
Mof_H 	H 	0.6587	0.0636	0.2916	0.067
Mof_C 	C 	0.64511	0.0886	0.27746	0.061
Mof_H 	H 	0.6569	0.0916	0.2689	0.001
Mof_C 	C 	0.61138	0.08301	0.23237	0.063
Mof_H 	H 	0.6011	0.0841	0.243	-0.001
Mof_C 	C 	0.61166	0.0654	0.2206	-0.103
Mof_H 	H 	0.6019	0.0545	0.2231	0.068
Mof_C 	C 	0.62667	0.0636	0.2047	0.009
Mof_H 	H 	0.6271	0.0516	0.1959	0.037
Mof_C 	C 	0.64076	0.07984	0.20217	-0.052
Mof_C 	C 	0.63915	0.09731	0.21498	0.042
Mof_H 	H 	0.6487	0.1085	0.213	0.011
Mof_C 	C 	0.65698	0.07908	0.18559	0.135
Mof_C 	C 	0.67522	0.12611	0.24941	0.108
Mof_N 	N 	0.51475	0.11692	0.34096	-0.223
Mof_N 	N 	0.64301	0.02446	0.36285	-0.261
Mof_N 	N 	0.59758	0.01551	0.37503	-0.224
Mof_N 	N 	0.59418	0.06091	0.3296	-0.151
Mof_N 	N 	0.55971	0.07025	0.33966	-0.15
Mof_N 	N 	0.57613	0.08763	0.31113	-0.151
Mof_N 	N 	0.62815	0.10075	0.27568	-0.229
Mof_N 	N 	0.65762	0.12676	0.25119	-0.264
Mof_N 	N 	0.62476	0.09897	0.22991	-0.229
Mof_N 	N 	0.65572	0.06397	0.17169	-0.152
Mof_S 	S 	0.67188	0.04463	0.33696	-0.059
Mof_S 	S 	0.70072	0.12346	0.24784	-0.062
Mof_C 	C 	0.03011	0.60258	0.34028	0.033
Mof_H 	H 	0.0327	0.5944	0.3524	0.014
Mof_C 	C 	0.0425	0.59914	0.32258	-0.046
Mof_C 	C 	0.03862	0.61072	0.30477	0.006
Mof_H 	H 	0.047	0.6092	0.2926	0.038
Mof_C 	C 	0.0219	0.62482	0.30514	-0.1
Mof_H 	H 	0.0182	0.6324	0.2929	0.066
Mof_C 	C 	0.01093	0.62758	0.32314	0.061
Mof_H 	H 	0.9999	0.6376	0.3232	-0
Mof_C 	C 	0.15467	0.53338	0.35226	0.098
Mof_C 	C 	0.08157	0.51321	0.38852	0.057
Mof_H 	H 	0.0829	0.5032	0.3994	-0
Mof_C 	C 	0.06334	0.52462	0.3874	-0.096
Mof_H 	H 	0.0522	0.522	0.3969	0.063
Mof_C 	C 	0.06142	0.54007	0.37221	0.004
Mof_H 	H 	0.0493	0.5487	0.3716	0.038
Mof_C 	C 	0.07774	0.54249	0.3579	-0.045
Mof_C 	C 	0.09528	0.53001	0.35974	0.031
Mof_H 	H 	0.1062	0.5317	0.3498	0.017
Mof_C 	C 	0.07718	0.55877	0.34132	0.134
Mof_C 	C 	0.0603	0.58461	0.32433	0.133
Mof_C 	C 	0.09316	0.57589	0.31489	0.133
Mof_C 	C 	0.11178	0.59601	0.28768	0.039
Mof_H 	H 	0.0994	0.6042	0.2863	0.012
Mof_C 	C 	0.11185	0.57952	0.30221	-0.051
Mof_C 	C 	0.1296	0.56735	0.30411	0.009
Mof_H 	H 	0.1303	0.5562	0.314	0.037
Mof_C 	C 	0.14642	0.57192	0.29109	-0.1
Mof_H 	H 	0.1587	0.5636	0.2916	0.067
Mof_C 	C 	0.14511	0.5886	0.27746	0.061
Mof_H 	H 	0.1569	0.5916	0.2689	0.001
Mof_C 	C 	0.11138	0.58301	0.23237	0.063
Mof_H 	H 	0.1011	0.5841	0.243	-0.001
Mof_C 	C 	0.11166	0.5654	0.2206	-0.103
Mof_H 	H 	0.1019	0.5545	0.2231	0.068
Mof_C 	C 	0.12667	0.5636	0.2047	0.009
Mof_H 	H 	0.1271	0.5516	0.1959	0.037
Mof_C 	C 	0.14076	0.57984	0.20217	-0.052
Mof_C 	C 	0.13915	0.59731	0.21498	0.042
Mof_H 	H 	0.1487	0.6085	0.213	0.011
Mof_C 	C 	0.15698	0.57908	0.18559	0.135
Mof_C 	C 	0.17522	0.62611	0.24941	0.108
Mof_N 	N 	0.01475	0.61692	0.34096	-0.223
Mof_N 	N 	0.14301	0.52446	0.36285	-0.261
Mof_N 	N 	0.09758	0.51551	0.37503	-0.224
Mof_N 	N 	0.09418	0.56091	0.3296	-0.151
Mof_N 	N 	0.05971	0.57025	0.33966	-0.15
Mof_N 	N 	0.07613	0.58763	0.31113	-0.151
Mof_N 	N 	0.12815	0.60075	0.27568	-0.229
Mof_N 	N 	0.15762	0.62676	0.25119	-0.264
Mof_N 	N 	0.12476	0.59897	0.22991	-0.229
Mof_N 	N 	0.15572	0.56397	0.17169	-0.152
Mof_S 	S 	0.17188	0.54463	0.33696	-0.059
Mof_S 	S 	0.20072	0.62346	0.24784	-0.062
Mof_C 	C 	0.03011	0.10258	0.84028	0.033
Mof_H 	H 	0.0327	0.0944	0.8524	0.014
Mof_C 	C 	0.0425	0.09914	0.82258	-0.046
Mof_C 	C 	0.03862	0.11072	0.80477	0.006
Mof_H 	H 	0.047	0.1092	0.7926	0.038
Mof_C 	C 	0.0219	0.12482	0.80514	-0.1
Mof_H 	H 	0.0182	0.1324	0.7929	0.066
Mof_C 	C 	0.01093	0.12758	0.82314	0.061
Mof_H 	H 	0.9999	0.1376	0.8232	-0
Mof_C 	C 	0.15467	0.03338	0.85226	0.098
Mof_C 	C 	0.08157	0.01321	0.88852	0.057
Mof_H 	H 	0.0829	0.0032	0.8994	-0
Mof_C 	C 	0.06334	0.02462	0.8874	-0.096
Mof_H 	H 	0.0522	0.022	0.8969	0.063
Mof_C 	C 	0.06142	0.04007	0.87221	0.004
Mof_H 	H 	0.0493	0.0487	0.8716	0.038
Mof_C 	C 	0.07774	0.04249	0.8579	-0.045
Mof_C 	C 	0.09528	0.03001	0.85974	0.031
Mof_H 	H 	0.1062	0.0317	0.8498	0.017
Mof_C 	C 	0.07718	0.05877	0.84132	0.134
Mof_C 	C 	0.0603	0.08461	0.82433	0.133
Mof_C 	C 	0.09316	0.07589	0.81489	0.133
Mof_C 	C 	0.11178	0.09601	0.78768	0.039
Mof_H 	H 	0.0994	0.1042	0.7863	0.012
Mof_C 	C 	0.11185	0.07952	0.80221	-0.051
Mof_C 	C 	0.1296	0.06735	0.80411	0.009
Mof_H 	H 	0.1303	0.0562	0.814	0.037
Mof_C 	C 	0.14642	0.07192	0.79109	-0.1
Mof_H 	H 	0.1587	0.0636	0.7916	0.067
Mof_C 	C 	0.14511	0.0886	0.77746	0.061
Mof_H 	H 	0.1569	0.0916	0.7689	0.001
Mof_C 	C 	0.11138	0.08301	0.73237	0.063
Mof_H 	H 	0.1011	0.0841	0.743	-0.001
Mof_C 	C 	0.11166	0.0654	0.7206	-0.103
Mof_H 	H 	0.1019	0.0545	0.7231	0.068
Mof_C 	C 	0.12667	0.0636	0.7047	0.009
Mof_H 	H 	0.1271	0.0516	0.6959	0.037
Mof_C 	C 	0.14076	0.07984	0.70217	-0.052
Mof_C 	C 	0.13915	0.09731	0.71498	0.042
Mof_H 	H 	0.1487	0.1085	0.713	0.011
Mof_C 	C 	0.15698	0.07908	0.68559	0.135
Mof_C 	C 	0.17522	0.12611	0.74941	0.108
Mof_N 	N 	0.01475	0.11692	0.84096	-0.223
Mof_N 	N 	0.14301	0.02446	0.86285	-0.261
Mof_N 	N 	0.09758	0.01551	0.87503	-0.224
Mof_N 	N 	0.09418	0.06091	0.8296	-0.151
Mof_N 	N 	0.05971	0.07025	0.83966	-0.15
Mof_N 	N 	0.07613	0.08763	0.81113	-0.151
Mof_N 	N 	0.12815	0.10075	0.77568	-0.229
Mof_N 	N 	0.15762	0.12676	0.75119	-0.264
Mof_N 	N 	0.12476	0.09897	0.72991	-0.229
Mof_N 	N 	0.15572	0.06397	0.67169	-0.152
Mof_S 	S 	0.17188	0.04463	0.83696	-0.059
Mof_S 	S 	0.20072	0.12346	0.74784	-0.062
Mof_C 	C 	0.21989	0.64742	0.34028	0.033
Mof_H 	H 	0.2173	0.6556	0.3524	0.014
Mof_C 	C 	0.2075	0.65086	0.32258	-0.046
Mof_C 	C 	0.21138	0.63928	0.30477	0.006
Mof_H 	H 	0.203	0.6408	0.2926	0.038
Mof_C 	C 	0.2281	0.62518	0.30514	-0.1
Mof_H 	H 	0.2318	0.6176	0.2929	0.066
Mof_C 	C 	0.23907	0.62242	0.32314	0.061
Mof_H 	H 	0.2501	0.6124	0.3232	-0
Mof_C 	C 	0.09533	0.71662	0.35226	0.098
Mof_C 	C 	0.16843	0.73679	0.38852	0.057
Mof_H 	H 	0.1671	0.7468	0.3994	-0
Mof_C 	C 	0.18666	0.72538	0.3874	-0.096
Mof_H 	H 	0.1978	0.728	0.3969	0.063
Mof_C 	C 	0.18858	0.70993	0.37221	0.004
Mof_H 	H 	0.2007	0.7013	0.3716	0.038
Mof_C 	C 	0.17226	0.70751	0.3579	-0.045
Mof_C 	C 	0.15472	0.71999	0.35974	0.031
Mof_H 	H 	0.1438	0.7183	0.3498	0.017
Mof_C 	C 	0.17282	0.69123	0.34132	0.134
Mof_C 	C 	0.1897	0.66539	0.32433	0.133
Mof_C 	C 	0.15684	0.67411	0.31489	0.133
Mof_C 	C 	0.13822	0.65399	0.28768	0.039
Mof_H 	H 	0.1506	0.6458	0.2863	0.012
Mof_C 	C 	0.13815	0.67048	0.30221	-0.051
Mof_C 	C 	0.1204	0.68265	0.30411	0.009
Mof_H 	H 	0.1197	0.6938	0.314	0.037
Mof_C 	C 	0.10358	0.67808	0.29109	-0.1
Mof_H 	H 	0.0913	0.6864	0.2916	0.067
Mof_C 	C 	0.10489	0.6614	0.27746	0.061
Mof_H 	H 	0.0931	0.6584	0.2689	0.001
Mof_C 	C 	0.13862	0.66699	0.23237	0.063
Mof_H 	H 	0.1489	0.6659	0.243	-0.001
Mof_C 	C 	0.13834	0.6846	0.2206	-0.103
Mof_H 	H 	0.1481	0.6955	0.2231	0.068
Mof_C 	C 	0.12333	0.6864	0.2047	0.009
Mof_H 	H 	0.1229	0.6984	0.1959	0.037
Mof_C 	C 	0.10924	0.67016	0.20217	-0.052
Mof_C 	C 	0.11085	0.65269	0.21498	0.042
Mof_H 	H 	0.1013	0.6415	0.213	0.011
Mof_C 	C 	0.09302	0.67092	0.18559	0.135
Mof_C 	C 	0.07478	0.62389	0.24941	0.108
Mof_N 	N 	0.23525	0.63308	0.34096	-0.223
Mof_N 	N 	0.10699	0.72554	0.36285	-0.261
Mof_N 	N 	0.15242	0.73449	0.37503	-0.224
Mof_N 	N 	0.15582	0.68909	0.3296	-0.151
Mof_N 	N 	0.19029	0.67975	0.33966	-0.15
Mof_N 	N 	0.17387	0.66237	0.31113	-0.151
Mof_N 	N 	0.12185	0.64925	0.27568	-0.229
Mof_N 	N 	0.09238	0.62324	0.25119	-0.264
Mof_N 	N 	0.12524	0.65103	0.22991	-0.229
Mof_N 	N 	0.09428	0.68603	0.17169	-0.152
Mof_S 	S 	0.07812	0.70537	0.33696	-0.059
Mof_S 	S 	0.04928	0.62654	0.24784	-0.062
Mof_C 	C 	0.21989	0.14742	0.84028	0.033
Mof_H 	H 	0.2173	0.1556	0.8524	0.014
Mof_C 	C 	0.2075	0.15086	0.82258	-0.046
Mof_C 	C 	0.21138	0.13928	0.80477	0.006
Mof_H 	H 	0.203	0.1408	0.7926	0.038
Mof_C 	C 	0.2281	0.12518	0.80514	-0.1
Mof_H 	H 	0.2318	0.1176	0.7929	0.066
Mof_C 	C 	0.23907	0.12242	0.82314	0.061
Mof_H 	H 	0.2501	0.1124	0.8232	-0
Mof_C 	C 	0.09533	0.21662	0.85226	0.098
Mof_C 	C 	0.16843	0.23679	0.88852	0.057
Mof_H 	H 	0.1671	0.2468	0.8994	-0
Mof_C 	C 	0.18666	0.22538	0.8874	-0.096
Mof_H 	H 	0.1978	0.228	0.8969	0.063
Mof_C 	C 	0.18858	0.20993	0.87221	0.004
Mof_H 	H 	0.2007	0.2013	0.8716	0.038
Mof_C 	C 	0.17226	0.20751	0.8579	-0.045
Mof_C 	C 	0.15472	0.21999	0.85974	0.031
Mof_H 	H 	0.1438	0.2183	0.8498	0.017
Mof_C 	C 	0.17282	0.19123	0.84132	0.134
Mof_C 	C 	0.1897	0.16539	0.82433	0.133
Mof_C 	C 	0.15684	0.17411	0.81489	0.133
Mof_C 	C 	0.13822	0.15399	0.78768	0.039
Mof_H 	H 	0.1506	0.1458	0.7863	0.012
Mof_C 	C 	0.13815	0.17048	0.80221	-0.051
Mof_C 	C 	0.1204	0.18265	0.80411	0.009
Mof_H 	H 	0.1197	0.1938	0.814	0.037
Mof_C 	C 	0.10358	0.17808	0.79109	-0.1
Mof_H 	H 	0.0913	0.1864	0.7916	0.067
Mof_C 	C 	0.10489	0.1614	0.77746	0.061
Mof_H 	H 	0.0931	0.1584	0.7689	0.001
Mof_C 	C 	0.13862	0.16699	0.73237	0.063
Mof_H 	H 	0.1489	0.1659	0.743	-0.001
Mof_C 	C 	0.13834	0.1846	0.7206	-0.103
Mof_H 	H 	0.1481	0.1955	0.7231	0.068
Mof_C 	C 	0.12333	0.1864	0.7047	0.009
Mof_H 	H 	0.1229	0.1984	0.6959	0.037
Mof_C 	C 	0.10924	0.17016	0.70217	-0.052
Mof_C 	C 	0.11085	0.15269	0.71498	0.042
Mof_H 	H 	0.1013	0.1415	0.713	0.011
Mof_C 	C 	0.09302	0.17092	0.68559	0.135
Mof_C 	C 	0.07478	0.12389	0.74941	0.108
Mof_N 	N 	0.23525	0.13308	0.84096	-0.223
Mof_N 	N 	0.10699	0.22554	0.86285	-0.261
Mof_N 	N 	0.15242	0.23449	0.87503	-0.224
Mof_N 	N 	0.15582	0.18909	0.8296	-0.151
Mof_N 	N 	0.19029	0.17975	0.83966	-0.15
Mof_N 	N 	0.17387	0.16237	0.81113	-0.151
Mof_N 	N 	0.12185	0.14925	0.77568	-0.229
Mof_N 	N 	0.09238	0.12324	0.75119	-0.264
Mof_N 	N 	0.12524	0.15103	0.72991	-0.229
Mof_N 	N 	0.09428	0.18603	0.67169	-0.152
Mof_S 	S 	0.07812	0.20537	0.83696	-0.059
Mof_S 	S 	0.04928	0.12654	0.74784	-0.062
Mof_C 	C 	0.71989	0.64742	0.84028	0.033
Mof_H 	H 	0.7173	0.6556	0.8524	0.014
Mof_C 	C 	0.7075	0.65086	0.82258	-0.046
Mof_C 	C 	0.71138	0.63928	0.80477	0.006
Mof_H 	H 	0.703	0.6408	0.7926	0.038
Mof_C 	C 	0.7281	0.62518	0.80514	-0.1
Mof_H 	H 	0.7318	0.6176	0.7929	0.066
Mof_C 	C 	0.73907	0.62242	0.82314	0.061
Mof_H 	H 	0.7501	0.6124	0.8232	-0
Mof_C 	C 	0.59533	0.71662	0.85226	0.098
Mof_C 	C 	0.66843	0.73679	0.88852	0.057
Mof_H 	H 	0.6671	0.7468	0.8994	-0
Mof_C 	C 	0.68666	0.72538	0.8874	-0.096
Mof_H 	H 	0.6978	0.728	0.8969	0.063
Mof_C 	C 	0.68858	0.70993	0.87221	0.004
Mof_H 	H 	0.7007	0.7013	0.8716	0.038
Mof_C 	C 	0.67226	0.70751	0.8579	-0.045
Mof_C 	C 	0.65472	0.71999	0.85974	0.031
Mof_H 	H 	0.6438	0.7183	0.8498	0.017
Mof_C 	C 	0.67282	0.69123	0.84132	0.134
Mof_C 	C 	0.6897	0.66539	0.82433	0.133
Mof_C 	C 	0.65684	0.67411	0.81489	0.133
Mof_C 	C 	0.63822	0.65399	0.78768	0.039
Mof_H 	H 	0.6506	0.6458	0.7863	0.012
Mof_C 	C 	0.63815	0.67048	0.80221	-0.051
Mof_C 	C 	0.6204	0.68265	0.80411	0.009
Mof_H 	H 	0.6197	0.6938	0.814	0.037
Mof_C 	C 	0.60358	0.67808	0.79109	-0.1
Mof_H 	H 	0.5913	0.6864	0.7916	0.067
Mof_C 	C 	0.60489	0.6614	0.77746	0.061
Mof_H 	H 	0.5931	0.6584	0.7689	0.001
Mof_C 	C 	0.63862	0.66699	0.73237	0.063
Mof_H 	H 	0.6489	0.6659	0.743	-0.001
Mof_C 	C 	0.63834	0.6846	0.7206	-0.103
Mof_H 	H 	0.6481	0.6955	0.7231	0.068
Mof_C 	C 	0.62333	0.6864	0.7047	0.009
Mof_H 	H 	0.6229	0.6984	0.6959	0.037
Mof_C 	C 	0.60924	0.67016	0.70217	-0.052
Mof_C 	C 	0.61085	0.65269	0.71498	0.042
Mof_H 	H 	0.6013	0.6415	0.713	0.011
Mof_C 	C 	0.59302	0.67092	0.68559	0.135
Mof_C 	C 	0.57478	0.62389	0.74941	0.108
Mof_N 	N 	0.73525	0.63308	0.84096	-0.223
Mof_N 	N 	0.60699	0.72554	0.86285	-0.261
Mof_N 	N 	0.65242	0.73449	0.87503	-0.224
Mof_N 	N 	0.65582	0.68909	0.8296	-0.151
Mof_N 	N 	0.69029	0.67975	0.83966	-0.15
Mof_N 	N 	0.67387	0.66237	0.81113	-0.151
Mof_N 	N 	0.62185	0.64925	0.77568	-0.229
Mof_N 	N 	0.59238	0.62324	0.75119	-0.264
Mof_N 	N 	0.62524	0.65103	0.72991	-0.229
Mof_N 	N 	0.59428	0.68603	0.67169	-0.152
Mof_S 	S 	0.57812	0.70537	0.83696	-0.059
Mof_S 	S 	0.54928	0.62654	0.74784	-0.062
Mof_C 	C 	0.71989	0.14742	0.34028	0.033
Mof_H 	H 	0.7173	0.1556	0.3524	0.014
Mof_C 	C 	0.7075	0.15086	0.32258	-0.046
Mof_C 	C 	0.71138	0.13928	0.30477	0.006
Mof_H 	H 	0.703	0.1408	0.2926	0.038
Mof_C 	C 	0.7281	0.12518	0.30514	-0.1
Mof_H 	H 	0.7318	0.1176	0.2929	0.066
Mof_C 	C 	0.73907	0.12242	0.32314	0.061
Mof_H 	H 	0.7501	0.1124	0.3232	-0
Mof_C 	C 	0.59533	0.21662	0.35226	0.098
Mof_C 	C 	0.66843	0.23679	0.38852	0.057
Mof_H 	H 	0.6671	0.2468	0.3994	-0
Mof_C 	C 	0.68666	0.22538	0.3874	-0.096
Mof_H 	H 	0.6978	0.228	0.3969	0.063
Mof_C 	C 	0.68858	0.20993	0.37221	0.004
Mof_H 	H 	0.7007	0.2013	0.3716	0.038
Mof_C 	C 	0.67226	0.20751	0.3579	-0.045
Mof_C 	C 	0.65472	0.21999	0.35974	0.031
Mof_H 	H 	0.6438	0.2183	0.3498	0.017
Mof_C 	C 	0.67282	0.19123	0.34132	0.134
Mof_C 	C 	0.6897	0.16539	0.32433	0.133
Mof_C 	C 	0.65684	0.17411	0.31489	0.133
Mof_C 	C 	0.63822	0.15399	0.28768	0.039
Mof_H 	H 	0.6506	0.1458	0.2863	0.012
Mof_C 	C 	0.63815	0.17048	0.30221	-0.051
Mof_C 	C 	0.6204	0.18265	0.30411	0.009
Mof_H 	H 	0.6197	0.1938	0.314	0.037
Mof_C 	C 	0.60358	0.17808	0.29109	-0.1
Mof_H 	H 	0.5913	0.1864	0.2916	0.067
Mof_C 	C 	0.60489	0.1614	0.27746	0.061
Mof_H 	H 	0.5931	0.1584	0.2689	0.001
Mof_C 	C 	0.63862	0.16699	0.23237	0.063
Mof_H 	H 	0.6489	0.1659	0.243	-0.001
Mof_C 	C 	0.63834	0.1846	0.2206	-0.103
Mof_H 	H 	0.6481	0.1955	0.2231	0.068
Mof_C 	C 	0.62333	0.1864	0.2047	0.009
Mof_H 	H 	0.6229	0.1984	0.1959	0.037
Mof_C 	C 	0.60924	0.17016	0.20217	-0.052
Mof_C 	C 	0.61085	0.15269	0.21498	0.042
Mof_H 	H 	0.6013	0.1415	0.213	0.011
Mof_C 	C 	0.59302	0.17092	0.18559	0.135
Mof_C 	C 	0.57478	0.12389	0.24941	0.108
Mof_N 	N 	0.73525	0.13308	0.34096	-0.223
Mof_N 	N 	0.60699	0.22554	0.36285	-0.261
Mof_N 	N 	0.65242	0.23449	0.37503	-0.224
Mof_N 	N 	0.65582	0.18909	0.3296	-0.151
Mof_N 	N 	0.69029	0.17975	0.33966	-0.15
Mof_N 	N 	0.67387	0.16237	0.31113	-0.151
Mof_N 	N 	0.62185	0.14925	0.27568	-0.229
Mof_N 	N 	0.59238	0.12324	0.25119	-0.264
Mof_N 	N 	0.62524	0.15103	0.22991	-0.229
Mof_N 	N 	0.59428	0.18603	0.17169	-0.152
Mof_S 	S 	0.57812	0.20537	0.33696	-0.059
Mof_S 	S 	0.54928	0.12654	0.24784	-0.062
Mof_C 	C 	0.71989	0.10258	0.90972	0.033
Mof_H 	H 	0.7173	0.0944	0.8976	0.014
Mof_C 	C 	0.7075	0.09914	0.92742	-0.046
Mof_C 	C 	0.71138	0.11072	0.94523	0.006
Mof_H 	H 	0.703	0.1092	0.9574	0.038
Mof_C 	C 	0.7281	0.12482	0.94486	-0.1
Mof_H 	H 	0.7318	0.1324	0.9571	0.066
Mof_C 	C 	0.73907	0.12758	0.92686	0.061
Mof_H 	H 	0.7501	0.1376	0.9268	-0
Mof_C 	C 	0.59533	0.03338	0.89774	0.098
Mof_C 	C 	0.66843	0.01321	0.86148	0.057
Mof_H 	H 	0.6671	0.0032	0.8506	-0
Mof_C 	C 	0.68666	0.02462	0.8626	-0.096
Mof_H 	H 	0.6978	0.022	0.8531	0.063
Mof_C 	C 	0.68858	0.04007	0.87779	0.004
Mof_H 	H 	0.7007	0.0487	0.8784	0.038
Mof_C 	C 	0.67226	0.04249	0.8921	-0.045
Mof_C 	C 	0.65472	0.03001	0.89026	0.031
Mof_H 	H 	0.6438	0.0317	0.9002	0.017
Mof_C 	C 	0.67282	0.05877	0.90868	0.134
Mof_C 	C 	0.6897	0.08461	0.92567	0.133
Mof_C 	C 	0.65684	0.07589	0.93511	0.133
Mof_C 	C 	0.63822	0.09601	0.96232	0.039
Mof_H 	H 	0.6506	0.1042	0.9637	0.012
Mof_C 	C 	0.63815	0.07952	0.94779	-0.051
Mof_C 	C 	0.6204	0.06735	0.94589	0.009
Mof_H 	H 	0.6197	0.0562	0.936	0.037
Mof_C 	C 	0.60358	0.07192	0.95891	-0.1
Mof_H 	H 	0.5913	0.0636	0.9584	0.067
Mof_C 	C 	0.60489	0.0886	0.97254	0.061
Mof_H 	H 	0.5931	0.0916	0.9811	0.001
Mof_C 	C 	0.63862	0.08301	0.01763	0.063
Mof_H 	H 	0.6489	0.0841	0.007	-0.001
Mof_C 	C 	0.63834	0.0654	0.0294	-0.103
Mof_H 	H 	0.6481	0.0545	0.0269	0.068
Mof_C 	C 	0.62333	0.0636	0.0453	0.009
Mof_H 	H 	0.6229	0.0516	0.0541	0.037
Mof_C 	C 	0.60924	0.07984	0.04783	-0.052
Mof_C 	C 	0.61085	0.09731	0.03502	0.042
Mof_H 	H 	0.6013	0.1085	0.037	0.011
Mof_C 	C 	0.59302	0.07908	0.06441	0.135
Mof_C 	C 	0.57478	0.12611	0.00059	0.108
Mof_N 	N 	0.73525	0.11692	0.90904	-0.223
Mof_N 	N 	0.60699	0.02446	0.88715	-0.261
Mof_N 	N 	0.65242	0.01551	0.87497	-0.224
Mof_N 	N 	0.65582	0.06091	0.9204	-0.151
Mof_N 	N 	0.69029	0.07025	0.91034	-0.15
Mof_N 	N 	0.67387	0.08763	0.93887	-0.151
Mof_N 	N 	0.62185	0.10075	0.97432	-0.229
Mof_N 	N 	0.59238	0.12676	0.99881	-0.264
Mof_N 	N 	0.62524	0.09897	0.02009	-0.229
Mof_N 	N 	0.59428	0.06397	0.07831	-0.152
Mof_S 	S 	0.57812	0.04463	0.91304	-0.059
Mof_S 	S 	0.54928	0.12346	0.00216	-0.062
Mof_C 	C 	0.71989	0.60258	0.40972	0.033
Mof_H 	H 	0.7173	0.5944	0.3976	0.014
Mof_C 	C 	0.7075	0.59914	0.42742	-0.046
Mof_C 	C 	0.71138	0.61072	0.44523	0.006
Mof_H 	H 	0.703	0.6092	0.4574	0.038
Mof_C 	C 	0.7281	0.62482	0.44486	-0.1
Mof_H 	H 	0.7318	0.6324	0.4571	0.066
Mof_C 	C 	0.73907	0.62758	0.42686	0.061
Mof_H 	H 	0.7501	0.6376	0.4268	-0
Mof_C 	C 	0.59533	0.53338	0.39774	0.098
Mof_C 	C 	0.66843	0.51321	0.36148	0.057
Mof_H 	H 	0.6671	0.5032	0.3506	-0
Mof_C 	C 	0.68666	0.52462	0.3626	-0.096
Mof_H 	H 	0.6978	0.522	0.3531	0.063
Mof_C 	C 	0.68858	0.54007	0.37779	0.004
Mof_H 	H 	0.7007	0.5487	0.3784	0.038
Mof_C 	C 	0.67226	0.54249	0.3921	-0.045
Mof_C 	C 	0.65472	0.53001	0.39026	0.031
Mof_H 	H 	0.6438	0.5317	0.4002	0.017
Mof_C 	C 	0.67282	0.55877	0.40868	0.134
Mof_C 	C 	0.6897	0.58461	0.42567	0.133
Mof_C 	C 	0.65684	0.57589	0.43511	0.133
Mof_C 	C 	0.63822	0.59601	0.46232	0.039
Mof_H 	H 	0.6506	0.6042	0.4637	0.012
Mof_C 	C 	0.63815	0.57952	0.44779	-0.051
Mof_C 	C 	0.6204	0.56735	0.44589	0.009
Mof_H 	H 	0.6197	0.5562	0.436	0.037
Mof_C 	C 	0.60358	0.57192	0.45891	-0.1
Mof_H 	H 	0.5913	0.5636	0.4584	0.067
Mof_C 	C 	0.60489	0.5886	0.47254	0.061
Mof_H 	H 	0.5931	0.5916	0.4811	0.001
Mof_C 	C 	0.63862	0.58301	0.51763	0.063
Mof_H 	H 	0.6489	0.5841	0.507	-0.001
Mof_C 	C 	0.63834	0.5654	0.5294	-0.103
Mof_H 	H 	0.6481	0.5545	0.5269	0.068
Mof_C 	C 	0.62333	0.5636	0.5453	0.009
Mof_H 	H 	0.6229	0.5516	0.5541	0.037
Mof_C 	C 	0.60924	0.57984	0.54783	-0.052
Mof_C 	C 	0.61085	0.59731	0.53502	0.042
Mof_H 	H 	0.6013	0.6085	0.537	0.011
Mof_C 	C 	0.59302	0.57908	0.56441	0.135
Mof_C 	C 	0.57478	0.62611	0.50059	0.108
Mof_N 	N 	0.73525	0.61692	0.40904	-0.223
Mof_N 	N 	0.60699	0.52446	0.38715	-0.261
Mof_N 	N 	0.65242	0.51551	0.37497	-0.224
Mof_N 	N 	0.65582	0.56091	0.4204	-0.151
Mof_N 	N 	0.69029	0.57025	0.41034	-0.15
Mof_N 	N 	0.67387	0.58763	0.43887	-0.151
Mof_N 	N 	0.62185	0.60075	0.47432	-0.229
Mof_N 	N 	0.59238	0.62676	0.49881	-0.264
Mof_N 	N 	0.62524	0.59897	0.52009	-0.229
Mof_N 	N 	0.59428	0.56397	0.57831	-0.152
Mof_S 	S 	0.57812	0.54463	0.41304	-0.059
Mof_S 	S 	0.54928	0.62346	0.50216	-0.062
Mof_C 	C 	0.21989	0.10258	0.40972	0.033
Mof_H 	H 	0.2173	0.0944	0.3976	0.014
Mof_C 	C 	0.2075	0.09914	0.42742	-0.046
Mof_C 	C 	0.21138	0.11072	0.44523	0.006
Mof_H 	H 	0.203	0.1092	0.4574	0.038
Mof_C 	C 	0.2281	0.12482	0.44486	-0.1
Mof_H 	H 	0.2318	0.1324	0.4571	0.066
Mof_C 	C 	0.23907	0.12758	0.42686	0.061
Mof_H 	H 	0.2501	0.1376	0.4268	-0
Mof_C 	C 	0.09533	0.03338	0.39774	0.098
Mof_C 	C 	0.16843	0.01321	0.36148	0.057
Mof_H 	H 	0.1671	0.0032	0.3506	-0
Mof_C 	C 	0.18666	0.02462	0.3626	-0.096
Mof_H 	H 	0.1978	0.022	0.3531	0.063
Mof_C 	C 	0.18858	0.04007	0.37779	0.004
Mof_H 	H 	0.2007	0.0487	0.3784	0.038
Mof_C 	C 	0.17226	0.04249	0.3921	-0.045
Mof_C 	C 	0.15472	0.03001	0.39026	0.031
Mof_H 	H 	0.1438	0.0317	0.4002	0.017
Mof_C 	C 	0.17282	0.05877	0.40868	0.134
Mof_C 	C 	0.1897	0.08461	0.42567	0.133
Mof_C 	C 	0.15684	0.07589	0.43511	0.133
Mof_C 	C 	0.13822	0.09601	0.46232	0.039
Mof_H 	H 	0.1506	0.1042	0.4637	0.012
Mof_C 	C 	0.13815	0.07952	0.44779	-0.051
Mof_C 	C 	0.1204	0.06735	0.44589	0.009
Mof_H 	H 	0.1197	0.0562	0.436	0.037
Mof_C 	C 	0.10358	0.07192	0.45891	-0.1
Mof_H 	H 	0.0913	0.0636	0.4584	0.067
Mof_C 	C 	0.10489	0.0886	0.47254	0.061
Mof_H 	H 	0.0931	0.0916	0.4811	0.001
Mof_C 	C 	0.13862	0.08301	0.51763	0.063
Mof_H 	H 	0.1489	0.0841	0.507	-0.001
Mof_C 	C 	0.13834	0.0654	0.5294	-0.103
Mof_H 	H 	0.1481	0.0545	0.5269	0.068
Mof_C 	C 	0.12333	0.0636	0.5453	0.009
Mof_H 	H 	0.1229	0.0516	0.5541	0.037
Mof_C 	C 	0.10924	0.07984	0.54783	-0.052
Mof_C 	C 	0.11085	0.09731	0.53502	0.042
Mof_H 	H 	0.1013	0.1085	0.537	0.011
Mof_C 	C 	0.09302	0.07908	0.56441	0.135
Mof_C 	C 	0.07478	0.12611	0.50059	0.108
Mof_N 	N 	0.23525	0.11692	0.40904	-0.223
Mof_N 	N 	0.10699	0.02446	0.38715	-0.261
Mof_N 	N 	0.15242	0.01551	0.37497	-0.224
Mof_N 	N 	0.15582	0.06091	0.4204	-0.151
Mof_N 	N 	0.19029	0.07025	0.41034	-0.15
Mof_N 	N 	0.17387	0.08763	0.43887	-0.151
Mof_N 	N 	0.12185	0.10075	0.47432	-0.229
Mof_N 	N 	0.09238	0.12676	0.49881	-0.264
Mof_N 	N 	0.12524	0.09897	0.52009	-0.229
Mof_N 	N 	0.09428	0.06397	0.57831	-0.152
Mof_S 	S 	0.07812	0.04463	0.41304	-0.059
Mof_S 	S 	0.04928	0.12346	0.50216	-0.062
Mof_C 	C 	0.21989	0.60258	0.90972	0.033
Mof_H 	H 	0.2173	0.5944	0.8976	0.014
Mof_C 	C 	0.2075	0.59914	0.92742	-0.046
Mof_C 	C 	0.21138	0.61072	0.94523	0.006
Mof_H 	H 	0.203	0.6092	0.9574	0.038
Mof_C 	C 	0.2281	0.62482	0.94486	-0.1
Mof_H 	H 	0.2318	0.6324	0.9571	0.066
Mof_C 	C 	0.23907	0.62758	0.92686	0.061
Mof_H 	H 	0.2501	0.6376	0.9268	-0
Mof_C 	C 	0.09533	0.53338	0.89774	0.098
Mof_C 	C 	0.16843	0.51321	0.86148	0.057
Mof_H 	H 	0.1671	0.5032	0.8506	-0
Mof_C 	C 	0.18666	0.52462	0.8626	-0.096
Mof_H 	H 	0.1978	0.522	0.8531	0.063
Mof_C 	C 	0.18858	0.54007	0.87779	0.004
Mof_H 	H 	0.2007	0.5487	0.8784	0.038
Mof_C 	C 	0.17226	0.54249	0.8921	-0.045
Mof_C 	C 	0.15472	0.53001	0.89026	0.031
Mof_H 	H 	0.1438	0.5317	0.9002	0.017
Mof_C 	C 	0.17282	0.55877	0.90868	0.134
Mof_C 	C 	0.1897	0.58461	0.92567	0.133
Mof_C 	C 	0.15684	0.57589	0.93511	0.133
Mof_C 	C 	0.13822	0.59601	0.96232	0.039
Mof_H 	H 	0.1506	0.6042	0.9637	0.012
Mof_C 	C 	0.13815	0.57952	0.94779	-0.051
Mof_C 	C 	0.1204	0.56735	0.94589	0.009
Mof_H 	H 	0.1197	0.5562	0.936	0.037
Mof_C 	C 	0.10358	0.57192	0.95891	-0.1
Mof_H 	H 	0.0913	0.5636	0.9584	0.067
Mof_C 	C 	0.10489	0.5886	0.97254	0.061
Mof_H 	H 	0.0931	0.5916	0.9811	0.001
Mof_C 	C 	0.13862	0.58301	0.01763	0.063
Mof_H 	H 	0.1489	0.5841	0.007	-0.001
Mof_C 	C 	0.13834	0.5654	0.0294	-0.103
Mof_H 	H 	0.1481	0.5545	0.0269	0.068
Mof_C 	C 	0.12333	0.5636	0.0453	0.009
Mof_H 	H 	0.1229	0.5516	0.0541	0.037
Mof_C 	C 	0.10924	0.57984	0.04783	-0.052
Mof_C 	C 	0.11085	0.59731	0.03502	0.042
Mof_H 	H 	0.1013	0.6085	0.037	0.011
Mof_C 	C 	0.09302	0.57908	0.06441	0.135
Mof_C 	C 	0.07478	0.62611	0.00059	0.108
Mof_N 	N 	0.23525	0.61692	0.90904	-0.223
Mof_N 	N 	0.10699	0.52446	0.88715	-0.261
Mof_N 	N 	0.15242	0.51551	0.87497	-0.224
Mof_N 	N 	0.15582	0.56091	0.9204	-0.151
Mof_N 	N 	0.19029	0.57025	0.91034	-0.15
Mof_N 	N 	0.17387	0.58763	0.93887	-0.151
Mof_N 	N 	0.12185	0.60075	0.97432	-0.229
Mof_N 	N 	0.09238	0.62676	0.99881	-0.264
Mof_N 	N 	0.12524	0.59897	0.02009	-0.229
Mof_N 	N 	0.09428	0.56397	0.07831	-0.152
Mof_S 	S 	0.07812	0.54463	0.91304	-0.059
Mof_S 	S 	0.04928	0.62346	0.00216	-0.062
Mof_Co	Co	0.37182	0.5	0.12182	1.12
Mof_Co	Co	0.37182	0	0.62182	1.119
Mof_Co	Co	0.87182	0.5	0.62182	1.12
Mof_Co	Co	0.87182	0	0.12182	1.119
Mof_Co	Co	0.87818	0.25	0.62182	1.12
Mof_Co	Co	0.87818	0.75	0.12182	1.12
Mof_Co	Co	0.37818	0.25	0.12182	1.12
Mof_Co	Co	0.37818	0.75	0.62182	1.12
Mof_Co	Co	0.37818	0	0.12818	1.119
Mof_Co	Co	0.37818	0.5	0.62818	1.12
Mof_Co	Co	0.87818	0	0.62818	1.119
Mof_Co	Co	0.87818	0.5	0.12818	1.12
Mof_Co	Co	0.87182	0.75	0.62818	1.12
Mof_Co	Co	0.87182	0.25	0.12818	1.12
Mof_Co	Co	0.37182	0.75	0.12818	1.12
Mof_Co	Co	0.37182	0.25	0.62818	1.12
Mof_Co	Co	0.12182	0.37182	0.5	1.12
Mof_Co	Co	0.12182	0.87182	-0	1.119
Mof_Co	Co	0.62182	0.37182	-0	1.119
Mof_Co	Co	0.62182	0.87182	0.5	1.12
Mof_Co	Co	0.62182	0.87818	0.25	1.12
Mof_Co	Co	0.62182	0.37818	0.75	1.12
Mof_Co	Co	0.12182	0.87818	0.75	1.12
Mof_Co	Co	0.12182	0.37818	0.25	1.12
Mof_Co	Co	0.12818	0.37818	-0	1.119
Mof_Co	Co	0.12818	0.87818	0.5	1.12
Mof_Co	Co	0.62818	0.37818	0.5	1.12
Mof_Co	Co	0.62818	0.87818	-0	1.119
Mof_Co	Co	0.62818	0.87182	0.75	1.12
Mof_Co	Co	0.62818	0.37182	0.25	1.12
Mof_Co	Co	0.12818	0.87182	0.25	1.12
Mof_Co	Co	0.12818	0.37182	0.75	1.12
Mof_Co	Co	0.5	0.12182	0.37182	1.12
Mof_Co	Co	0.5	0.62182	0.87182	1.12
Mof_Co	Co	3.2688e-33	0.12182	0.87182	1.119
Mof_Co	Co	1.3941e-33	0.62182	0.37182	1.119
Mof_Co	Co	0.25	0.62182	0.87818	1.12
Mof_Co	Co	0.25	0.12182	0.37818	1.12
Mof_Co	Co	0.75	0.62182	0.37818	1.12
Mof_Co	Co	0.75	0.12182	0.87818	1.12
Mof_Co	Co	-1.67871e-33	0.12818	0.37818	1.119
Mof_Co	Co	9.48597e-33	0.62818	0.87818	1.119
Mof_Co	Co	0.5	0.12818	0.87818	1.12
Mof_Co	Co	0.5	0.62818	0.37818	1.12
Mof_Co	Co	0.75	0.62818	0.87182	1.12
Mof_Co	Co	0.75	0.12818	0.37182	1.12
Mof_Co	Co	0.25	0.62818	0.37182	1.12
Mof_Co	Co	0.25	0.12818	0.87182	1.12
Mof_Co	Co	0.62818	0.5	0.87818	1.12
Mof_Co	Co	0.62818	-3.09666e-33	0.37818	1.119
Mof_Co	Co	0.12818	0.5	0.37818	1.12
Mof_Co	Co	0.12818	6.19332e-33	0.87818	1.119
Mof_Co	Co	0.12182	0.75	0.37818	1.12
Mof_Co	Co	0.12182	0.25	0.87818	1.12
Mof_Co	Co	0.62182	0.75	0.87818	1.12
Mof_Co	Co	0.62182	0.25	0.37818	1.12
Mof_Co	Co	0.62182	0	0.87182	1.119
Mof_Co	Co	0.62182	0.5	0.37182	1.12
Mof_Co	Co	0.12182	0	0.37182	1.119
Mof_Co	Co	0.12182	0.5	0.87182	1.12
Mof_Co	Co	0.12818	0.25	0.37182	1.12
Mof_Co	Co	0.12818	0.75	0.87182	1.12
Mof_Co	Co	0.62818	0.25	0.87182	1.12
Mof_Co	Co	0.62818	0.75	0.37182	1.12
Mof_Co	Co	0.87818	0.62818	0.5	1.12
Mof_Co	Co	0.87818	0.12818	-0	1.119
Mof_Co	Co	0.37818	0.62818	-0	1.119
Mof_Co	Co	0.37818	0.12818	0.5	1.12
Mof_Co	Co	0.37818	0.12182	0.75	1.12
Mof_Co	Co	0.37818	0.62182	0.25	1.12
Mof_Co	Co	0.87818	0.12182	0.25	1.12
Mof_Co	Co	0.87818	0.62182	0.75	1.12
Mof_Co	Co	0.87182	0.62182	-0	1.119
Mof_Co	Co	0.87182	0.12182	0.5	1.12
Mof_Co	Co	0.37182	0.62182	0.5	1.12
Mof_Co	Co	0.37182	0.12182	-0	1.119
Mof_Co	Co	0.37182	0.12818	0.25	1.12
Mof_Co	Co	0.37182	0.62818	0.75	1.12
Mof_Co	Co	0.87182	0.12818	0.75	1.12
Mof_Co	Co	0.87182	0.62818	0.25	1.12
Mof_Co	Co	0.5	0.87818	0.62818	1.12
Mof_Co	Co	0.5	0.37818	0.12818	1.12
Mof_Co	Co	3.57726e-33	0.87818	0.12818	1.119
Mof_Co	Co	-3.83802e-33	0.37818	0.62818	1.119
Mof_Co	Co	0.75	0.37818	0.12182	1.12
Mof_Co	Co	0.75	0.87818	0.62182	1.12
Mof_Co	Co	0.25	0.37818	0.62182	1.12
Mof_Co	Co	0.25	0.87818	0.12182	1.12
Mof_Co	Co	-3.86187e-33	0.87182	0.62182	1.119
Mof_Co	Co	-1.09158e-33	0.37182	0.12182	1.119
Mof_Co	Co	0.5	0.87182	0.12182	1.12
Mof_Co	Co	0.5	0.37182	0.62182	1.12
Mof_Co	Co	0.25	0.37182	0.12818	1.12
Mof_Co	Co	0.25	0.87182	0.62818	1.12
Mof_Co	Co	0.75	0.37182	0.62818	1.12
Mof_Co	Co	0.75	0.87182	0.12818	1.12
Mof_Co	Co	0.49791	0.625	0.125	1.122
Mof_Co	Co	0.49791	0.125	0.625	1.122
Mof_Co	Co	0.75209	0.125	0.625	1.122
Mof_Co	Co	0.75209	0.625	0.125	1.122
Mof_Co	Co	0.25209	0.125	0.125	1.122
Mof_Co	Co	0.25209	0.625	0.625	1.122
Mof_Co	Co	0.99791	0.625	0.625	1.122
Mof_Co	Co	0.99791	0.125	0.125	1.122
Mof_Co	Co	0.125	0.49791	0.625	1.122
Mof_Co	Co	0.125	0.99791	0.125	1.122
Mof_Co	Co	0.625	0.75209	0.125	1.122
Mof_Co	Co	0.625	0.25209	0.625	1.122
Mof_Co	Co	0.125	0.25209	0.125	1.122
Mof_Co	Co	0.125	0.75209	0.625	1.122
Mof_Co	Co	0.625	0.99791	0.625	1.122
Mof_Co	Co	0.625	0.49791	0.125	1.122
Mof_Co	Co	0.625	0.125	0.49791	1.122
Mof_Co	Co	0.125	0.125	0.99791	1.122
Mof_Co	Co	0.125	0.625	0.75209	1.122
Mof_Co	Co	0.625	0.625	0.25209	1.122
Mof_Co	Co	0.125	0.125	0.25209	1.122
Mof_Co	Co	0.625	0.125	0.75209	1.122
Mof_Co	Co	0.625	0.625	0.99791	1.122
Mof_Co	Co	0.125	0.625	0.49791	1.122
Mof_Co	Co	0.375	0.74791	0.875	1.122
Mof_Co	Co	0.875	0.74791	0.375	1.122
Mof_Co	Co	0.875	0.00209	0.375	1.122
Mof_Co	Co	0.375	0.00209	0.875	1.122
Mof_Co	Co	0.875	0.50209	0.875	1.122
Mof_Co	Co	0.375	0.50209	0.375	1.122
Mof_Co	Co	0.375	0.24791	0.375	1.122
Mof_Co	Co	0.875	0.24791	0.875	1.122
Mof_Co	Co	0.24791	0.375	0.375	1.122
Mof_Co	Co	0.24791	0.875	0.875	1.122
Mof_Co	Co	0.50209	0.875	0.875	1.122
Mof_Co	Co	0.50209	0.375	0.375	1.122
Mof_Co	Co	0.00209	0.375	0.875	1.122
Mof_Co	Co	0.00209	0.875	0.375	1.122
Mof_Co	Co	0.74791	0.875	0.375	1.122
Mof_Co	Co	0.74791	0.375	0.875	1.122
Mof_Co	Co	0.875	0.875	0.50209	1.122
Mof_Co	Co	0.875	0.375	0.00209	1.122
Mof_Co	Co	0.375	0.375	0.24791	1.122
Mof_Co	Co	0.375	0.875	0.74791	1.122
Mof_Co	Co	0.875	0.375	0.74791	1.122
Mof_Co	Co	0.875	0.875	0.24791	1.122
Mof_Co	Co	0.375	0.875	0.00209	1.122
Mof_Co	Co	0.375	0.375	0.50209	1.122
Mof_Co	Co	0.50209	0.375	0.875	1.122
Mof_Co	Co	0.50209	0.875	0.375	1.122
Mof_Co	Co	0.24791	0.875	0.375	1.122
Mof_Co	Co	0.24791	0.375	0.875	1.122
Mof_Co	Co	0.74791	0.875	0.875	1.122
Mof_Co	Co	0.74791	0.375	0.375	1.122
Mof_Co	Co	0.00209	0.375	0.375	1.122
Mof_Co	Co	0.00209	0.875	0.875	1.122
Mof_Co	Co	0.875	0.50209	0.375	1.122
Mof_Co	Co	0.875	0.00209	0.875	1.122
Mof_Co	Co	0.375	0.24791	0.875	1.122
Mof_Co	Co	0.375	0.74791	0.375	1.122
Mof_Co	Co	0.875	0.74791	0.875	1.122
Mof_Co	Co	0.875	0.24791	0.375	1.122
Mof_Co	Co	0.375	0.00209	0.375	1.122
Mof_Co	Co	0.375	0.50209	0.875	1.122
Mof_Co	Co	0.375	0.875	0.50209	1.122
Mof_Co	Co	0.875	0.875	0.00209	1.122
Mof_Co	Co	0.875	0.375	0.24791	1.122
Mof_Co	Co	0.375	0.375	0.74791	1.122
Mof_Co	Co	0.875	0.875	0.74791	1.122
Mof_Co	Co	0.375	0.875	0.24791	1.122
Mof_Co	Co	0.375	0.375	0.00209	1.122
Mof_Co	Co	0.875	0.375	0.50209	1.122
Mof_Co	Co	0.625	0.25209	0.125	1.122
Mof_Co	Co	0.125	0.25209	0.625	1.122
Mof_Co	Co	0.125	0.99791	0.625	1.122
Mof_Co	Co	0.625	0.99791	0.125	1.122
Mof_Co	Co	0.125	0.49791	0.125	1.122
Mof_Co	Co	0.625	0.49791	0.625	1.122
Mof_Co	Co	0.625	0.75209	0.625	1.122
Mof_Co	Co	0.125	0.75209	0.125	1.122
Mof_Co	Co	0.75209	0.625	0.625	1.122
Mof_Co	Co	0.75209	0.125	0.125	1.122
Mof_Co	Co	0.49791	0.125	0.125	1.122
Mof_Co	Co	0.49791	0.625	0.625	1.122
Mof_Co	Co	0.99791	0.625	0.125	1.122
Mof_Co	Co	0.99791	0.125	0.625	1.122
Mof_Co	Co	0.25209	0.125	0.625	1.122
Mof_Co	Co	0.25209	0.625	0.125	1.122
Mof_Co	Co	0.125	0.125	0.49791	1.122
Mof_Co	Co	0.125	0.625	0.99791	1.122
Mof_Co	Co	0.625	0.625	0.75209	1.122
Mof_Co	Co	0.625	0.125	0.25209	1.122
Mof_Co	Co	0.125	0.625	0.25209	1.122
Mof_Co	Co	0.125	0.125	0.75209	1.122
Mof_Co	Co	0.625	0.125	0.99791	1.122
Mof_Co	Co	0.625	0.625	0.49791	1.122
_end
