# CIF file generated by openbabel 3.1.0, see https://openbabel.org
data_I
_chemical_name_common 'DAPXID_ion_b'
_cell_length_a 36.351
_cell_length_b 36.351
_cell_length_c 14.943
_cell_angle_alpha 90
_cell_angle_beta 90
_cell_angle_gamma 90
_space_group_name_H-M_alt 'P 1'
_space_group_name_Hall 'P 1'
loop_
    _symmetry_equiv_pos_as_xyz
    x,y,z
loop_
    _atom_site_label
    _atom_site_type_symbol
    _atom_site_fract_x
    _atom_site_fract_y
    _atom_site_fract_z
    _atom_site_occupancy
    C1       C        0.33725    0.03848    0.28940    1.000
    C2       C        0.31588    0.03992    0.20060    1.000
    C3       C        0.29072    0.00775    0.08000    1.000
    C4       C        0.25290    0.00862    0.08150    1.000
    H5       H        0.24010    0.00890    0.13540    1.000
    C6       C        0.26896    0.17037    0.21260    1.000
    C7       C        0.25802    0.15298    0.30230    1.000
    C8       C        0.21607    0.15085    0.41980    1.000
    C9       C        0.19236    0.12150    0.41950    1.000
    H10      H        0.18380    0.11190    0.36580    1.000
    C11      C        0.40266    0.13430    0.21490    1.000
    C12      C        0.39408    0.15451    0.30280    1.000
    C13      C        0.41731    0.19127    0.41870    1.000
    C14      C        0.41344    0.22891    0.41830    1.000
    H15      H        0.41170    0.24190    0.36480    1.000
    Cu16     Cu       0.33538    0.96779    0.23322    1.000
    Mn17     Mn       0.32614    0.11688    0.25393    1.000
    Na18     Na       0.46720    0.12480    0.93770    1.000
    N19      N        0.31029    0.00807    0.16380    1.000
    N20      N        0.22811    0.16666    0.33697    1.000
    N21      N        0.42212    0.17229    0.33660    1.000
    O22      O        0.34254    0.06814    0.32894    1.000
    O23      O        0.30650    0.07150    0.17042    1.000
    O24      O        0.34875    0.00781    0.31660    1.000
    O25      O        0.29689    0.15833    0.17459    1.000
    O26      O        0.27835    0.12761    0.33232    1.000
    O27      O        0.24911    0.19580    0.18337    1.000
    O28      O        0.37718    0.11742    0.17840    1.000
    O29      O        0.36152    0.15247    0.33329    1.000
    O30      O        0.43497    0.13661    0.18540    1.000
    C34      C        0.66275    0.96152    0.28940    1.000
    C35      C        0.68412    0.96008    0.20060    1.000
    C36      C        0.70928    0.99225    0.08000    1.000
    C37      C        0.74710    0.99138    0.08150    1.000
    H38      H        0.75990    0.99110    0.13540    1.000
    C39      C        0.73104    0.82963    0.21260    1.000
    C40      C        0.74198    0.84702    0.30230    1.000
    C41      C        0.78393    0.84915    0.41980    1.000
    C42      C        0.80764    0.87850    0.41950    1.000
    H43      H        0.81620    0.88810    0.36580    1.000
    C44      C        0.59734    0.86570    0.21490    1.000
    C45      C        0.60592    0.84549    0.30280    1.000
    C46      C        0.58269    0.80873    0.41870    1.000
    C47      C        0.58656    0.77109    0.41830    1.000
    H48      H        0.58830    0.75810    0.36480    1.000
    Cu49     Cu       0.66462    0.03221    0.23322    1.000
    Mn50     Mn       0.67386    0.88312    0.25393    1.000
    Na51     Na       0.53280    0.87520    0.93770    1.000
    N52      N        0.68971    0.99193    0.16380    1.000
    N53      N        0.77189    0.83334    0.33697    1.000
    N54      N        0.57788    0.82771    0.33660    1.000
    O55      O        0.65746    0.93186    0.32894    1.000
    O56      O        0.69350    0.92850    0.17042    1.000
    O57      O        0.65125    0.99219    0.31660    1.000
    O58      O        0.70311    0.84167    0.17459    1.000
    O59      O        0.72165    0.87239    0.33232    1.000
    O60      O        0.75089    0.80420    0.18337    1.000
    O61      O        0.62282    0.88258    0.17840    1.000
    O62      O        0.63848    0.84753    0.33329    1.000
    O63      O        0.56503    0.86339    0.18540    1.000
    C67      C        0.46152    0.83725    0.78940    1.000
    C68      C        0.46008    0.81588    0.70060    1.000
    C69      C        0.49225    0.79072    0.58000    1.000
    C70      C        0.49138    0.75290    0.58150    1.000
    H71      H        0.49110    0.74010    0.63540    1.000
    C72      C        0.32963    0.76896    0.71260    1.000
    C73      C        0.34702    0.75802    0.80230    1.000
    C74      C        0.34915    0.71607    0.91980    1.000
    C75      C        0.37850    0.69236    0.91950    1.000
    H76      H        0.38810    0.68380    0.86580    1.000
    C77      C        0.36570    0.90266    0.71490    1.000
    C78      C        0.34549    0.89408    0.80280    1.000
    C79      C        0.30873    0.91731    0.91870    1.000
    C80      C        0.27109    0.91344    0.91830    1.000
    H81      H        0.25810    0.91170    0.86480    1.000
    Cu82     Cu       0.53221    0.83538    0.73322    1.000
    Mn83     Mn       0.38312    0.82614    0.75393    1.000
    Na84     Na       0.37520    0.96720    0.43770    1.000
    N85      N        0.49193    0.81029    0.66380    1.000
    N86      N        0.33334    0.72811    0.83697    1.000
    N87      N        0.32771    0.92212    0.83660    1.000
    O88      O        0.43186    0.84254    0.82894    1.000
    O89      O        0.42850    0.80650    0.67042    1.000
    O90      O        0.49219    0.84875    0.81660    1.000
    O91      O        0.34167    0.79689    0.67459    1.000
    O92      O        0.37239    0.77835    0.83232    1.000
    O93      O        0.30420    0.74911    0.68337    1.000
    O94      O        0.38258    0.87718    0.67840    1.000
    O95      O        0.34753    0.86152    0.83329    1.000
    O96      O        0.36339    0.93497    0.68540    1.000
    C100     C        0.53848    0.16275    0.78940    1.000
    C101     C        0.53992    0.18412    0.70060    1.000
    C102     C        0.50775    0.20928    0.58000    1.000
    C103     C        0.50862    0.24710    0.58150    1.000
    H104     H        0.50890    0.25990    0.63540    1.000
    C105     C        0.67037    0.23104    0.71260    1.000
    C106     C        0.65298    0.24198    0.80230    1.000
    C107     C        0.65085    0.28393    0.91980    1.000
    C108     C        0.62150    0.30764    0.91950    1.000
    H109     H        0.61190    0.31620    0.86580    1.000
    C110     C        0.63430    0.09734    0.71490    1.000
    C111     C        0.65451    0.10592    0.80280    1.000
    C112     C        0.69127    0.08269    0.91870    1.000
    C113     C        0.72891    0.08656    0.91830    1.000
    H114     H        0.74190    0.08830    0.86480    1.000
    Cu115    Cu       0.46779    0.16462    0.73322    1.000
    Mn116    Mn       0.61688    0.17386    0.75393    1.000
    Na117    Na       0.62480    0.03280    0.43770    1.000
    N118     N        0.50807    0.18971    0.66380    1.000
    N119     N        0.66666    0.27189    0.83697    1.000
    N120     N        0.67229    0.07788    0.83660    1.000
    O121     O        0.56814    0.15746    0.82894    1.000
    O122     O        0.57150    0.19350    0.67042    1.000
    O123     O        0.50781    0.15125    0.81660    1.000
    O124     O        0.65833    0.20311    0.67459    1.000
    O125     O        0.62761    0.22165    0.83232    1.000
    O126     O        0.69580    0.25089    0.68337    1.000
    O127     O        0.61742    0.12282    0.67840    1.000
    O128     O        0.65247    0.13848    0.83329    1.000
    O129     O        0.63661    0.06503    0.68540    1.000
    C133     C        0.16275    0.53848    0.21060    1.000
    C134     C        0.18412    0.53992    0.29940    1.000
    C135     C        0.20928    0.50775    0.42000    1.000
    C136     C        0.24710    0.50862    0.41850    1.000
    H137     H        0.25990    0.50890    0.36460    1.000
    C138     C        0.23104    0.67037    0.28740    1.000
    C139     C        0.24198    0.65298    0.19770    1.000
    C140     C        0.28393    0.65085    0.08020    1.000
    C141     C        0.30764    0.62150    0.08050    1.000
    H142     H        0.31620    0.61190    0.13420    1.000
    C143     C        0.09734    0.63430    0.28510    1.000
    C144     C        0.10592    0.65451    0.19720    1.000
    C145     C        0.08269    0.69127    0.08130    1.000
    C146     C        0.08656    0.72891    0.08170    1.000
    H147     H        0.08830    0.74190    0.13520    1.000
    Cu148    Cu       0.16462    0.46779    0.26678    1.000
    Mn149    Mn       0.17386    0.61688    0.24607    1.000
    Na150    Na       0.03280    0.62480    0.56230    1.000
    N151     N        0.18971    0.50807    0.33620    1.000
    N152     N        0.27189    0.66666    0.16303    1.000
    N153     N        0.07788    0.67229    0.16340    1.000
    O154     O        0.15746    0.56814    0.17106    1.000
    O155     O        0.19350    0.57150    0.32958    1.000
    O156     O        0.15125    0.50781    0.18340    1.000
    O157     O        0.20311    0.65833    0.32541    1.000
    O158     O        0.22165    0.62761    0.16768    1.000
    O159     O        0.25089    0.69580    0.31663    1.000
    O160     O        0.12282    0.61742    0.32160    1.000
    O161     O        0.13848    0.65247    0.16671    1.000
    O162     O        0.06503    0.63661    0.31460    1.000
    C166     C        0.83725    0.46152    0.21060    1.000
    C167     C        0.81588    0.46008    0.29940    1.000
    C168     C        0.79072    0.49225    0.42000    1.000
    C169     C        0.75290    0.49138    0.41850    1.000
    H170     H        0.74010    0.49110    0.36460    1.000
    C171     C        0.76896    0.32963    0.28740    1.000
    C172     C        0.75802    0.34702    0.19770    1.000
    C173     C        0.71607    0.34915    0.08020    1.000
    C174     C        0.69236    0.37850    0.08050    1.000
    H175     H        0.68380    0.38810    0.13420    1.000
    C176     C        0.90266    0.36570    0.28510    1.000
    C177     C        0.89408    0.34549    0.19720    1.000
    C178     C        0.91731    0.30873    0.08130    1.000
    C179     C        0.91344    0.27109    0.08170    1.000
    H180     H        0.91170    0.25810    0.13520    1.000
    Cu181    Cu       0.83538    0.53221    0.26678    1.000
    Mn182    Mn       0.82614    0.38312    0.24607    1.000
    Na183    Na       0.96720    0.37520    0.56230    1.000
    N184     N        0.81029    0.49193    0.33620    1.000
    N185     N        0.72811    0.33334    0.16303    1.000
    N186     N        0.92212    0.32771    0.16340    1.000
    O187     O        0.84254    0.43186    0.17106    1.000
    O188     O        0.80650    0.42850    0.32958    1.000
    O189     O        0.84875    0.49219    0.18340    1.000
    O190     O        0.79689    0.34167    0.32541    1.000
    O191     O        0.77835    0.37239    0.16768    1.000
    O192     O        0.74911    0.30420    0.31663    1.000
    O193     O        0.87718    0.38258    0.32160    1.000
    O194     O        0.86152    0.34753    0.16671    1.000
    O195     O        0.93497    0.36339    0.31460    1.000
    C199     C        0.03848    0.33725    0.71060    1.000
    C200     C        0.03992    0.31588    0.79940    1.000
    C201     C        0.00775    0.29072    0.92000    1.000
    C202     C        0.00862    0.25290    0.91850    1.000
    H203     H        0.00890    0.24010    0.86460    1.000
    C204     C        0.17037    0.26896    0.78740    1.000
    C205     C        0.15298    0.25802    0.69770    1.000
    C206     C        0.15085    0.21607    0.58020    1.000
    C207     C        0.12150    0.19236    0.58050    1.000
    H208     H        0.11190    0.18380    0.63420    1.000
    C209     C        0.13430    0.40266    0.78510    1.000
    C210     C        0.15451    0.39408    0.69720    1.000
    C211     C        0.19127    0.41731    0.58130    1.000
    C212     C        0.22891    0.41344    0.58170    1.000
    H213     H        0.24190    0.41170    0.63520    1.000
    Cu214    Cu       0.96779    0.33538    0.76678    1.000
    Mn215    Mn       0.11688    0.32614    0.74607    1.000
    Na216    Na       0.12480    0.46720    0.06230    1.000
    N217     N        0.00807    0.31029    0.83620    1.000
    N218     N        0.16666    0.22811    0.66303    1.000
    N219     N        0.17229    0.42212    0.66340    1.000
    O220     O        0.06814    0.34254    0.67106    1.000
    O221     O        0.07150    0.30650    0.82958    1.000
    O222     O        0.00781    0.34875    0.68340    1.000
    O223     O        0.15833    0.29689    0.82541    1.000
    O224     O        0.12761    0.27835    0.66768    1.000
    O225     O        0.19580    0.24911    0.81663    1.000
    O226     O        0.11742    0.37718    0.82160    1.000
    O227     O        0.15247    0.36152    0.66671    1.000
    O228     O        0.13661    0.43497    0.81460    1.000
    C232     C        0.96152    0.66275    0.71060    1.000
    C233     C        0.96008    0.68412    0.79940    1.000
    C234     C        0.99225    0.70928    0.92000    1.000
    C235     C        0.99138    0.74710    0.91850    1.000
    H236     H        0.99110    0.75990    0.86460    1.000
    C237     C        0.82963    0.73104    0.78740    1.000
    C238     C        0.84702    0.74198    0.69770    1.000
    C239     C        0.84915    0.78393    0.58020    1.000
    C240     C        0.87850    0.80764    0.58050    1.000
    H241     H        0.88810    0.81620    0.63420    1.000
    C242     C        0.86570    0.59734    0.78510    1.000
    C243     C        0.84549    0.60592    0.69720    1.000
    C244     C        0.80873    0.58269    0.58130    1.000
    C245     C        0.77109    0.58656    0.58170    1.000
    H246     H        0.75810    0.58830    0.63520    1.000
    Cu247    Cu       0.03221    0.66462    0.76678    1.000
    Mn248    Mn       0.88312    0.67386    0.74607    1.000
    Na249    Na       0.87520    0.53280    0.06230    1.000
    N250     N        0.99193    0.68971    0.83620    1.000
    N251     N        0.83334    0.77189    0.66303    1.000
    N252     N        0.82771    0.57788    0.66340    1.000
    O253     O        0.93186    0.65746    0.67106    1.000
    O254     O        0.92850    0.69350    0.82958    1.000
    O255     O        0.99219    0.65125    0.68340    1.000
    O256     O        0.84167    0.70311    0.82541    1.000
    O257     O        0.87239    0.72165    0.66768    1.000
    O258     O        0.80420    0.75089    0.81663    1.000
    O259     O        0.88258    0.62282    0.82160    1.000
    O260     O        0.84753    0.63848    0.66671    1.000
    O261     O        0.86339    0.56503    0.81460    1.000
    C265     C        0.66275    0.96152    0.71060    1.000
    C266     C        0.68412    0.96008    0.79940    1.000
    C267     C        0.70928    0.99225    0.92000    1.000
    C268     C        0.74710    0.99138    0.91850    1.000
    H269     H        0.75990    0.99110    0.86460    1.000
    C270     C        0.73104    0.82963    0.78740    1.000
    C271     C        0.74198    0.84702    0.69770    1.000
    C272     C        0.78393    0.84915    0.58020    1.000
    C273     C        0.80764    0.87850    0.58050    1.000
    H274     H        0.81620    0.88810    0.63420    1.000
    C275     C        0.59734    0.86570    0.78510    1.000
    C276     C        0.60592    0.84549    0.69720    1.000
    C277     C        0.58269    0.80873    0.58130    1.000
    C278     C        0.58656    0.77109    0.58170    1.000
    H279     H        0.58830    0.75810    0.63520    1.000
    Cu280    Cu       0.66462    0.03221    0.76678    1.000
    Mn281    Mn       0.67386    0.88312    0.74607    1.000
    Na282    Na       0.53280    0.87520    0.06230    1.000
    N283     N        0.68971    0.99193    0.83620    1.000
    N284     N        0.77189    0.83334    0.66303    1.000
    N285     N        0.57788    0.82771    0.66340    1.000
    O286     O        0.65746    0.93186    0.67106    1.000
    O287     O        0.69350    0.92850    0.82958    1.000
    O288     O        0.65125    0.99219    0.68340    1.000
    O289     O        0.70311    0.84167    0.82541    1.000
    O290     O        0.72165    0.87239    0.66768    1.000
    O291     O        0.75089    0.80420    0.81663    1.000
    O292     O        0.62282    0.88258    0.82160    1.000
    O293     O        0.63848    0.84753    0.66671    1.000
    O294     O        0.56503    0.86339    0.81460    1.000
    C298     C        0.33725    0.03848    0.71060    1.000
    C299     C        0.31588    0.03992    0.79940    1.000
    C300     C        0.29072    0.00775    0.92000    1.000
    C301     C        0.25290    0.00862    0.91850    1.000
    H302     H        0.24010    0.00890    0.86460    1.000
    C303     C        0.26896    0.17037    0.78740    1.000
    C304     C        0.25802    0.15298    0.69770    1.000
    C305     C        0.21607    0.15085    0.58020    1.000
    C306     C        0.19236    0.12150    0.58050    1.000
    H307     H        0.18380    0.11190    0.63420    1.000
    C308     C        0.40266    0.13430    0.78510    1.000
    C309     C        0.39408    0.15451    0.69720    1.000
    C310     C        0.41731    0.19127    0.58130    1.000
    C311     C        0.41344    0.22891    0.58170    1.000
    H312     H        0.41170    0.24190    0.63520    1.000
    Cu313    Cu       0.33538    0.96779    0.76678    1.000
    Mn314    Mn       0.32614    0.11688    0.74607    1.000
    Na315    Na       0.46720    0.12480    0.06230    1.000
    N316     N        0.31029    0.00807    0.83620    1.000
    N317     N        0.22811    0.16666    0.66303    1.000
    N318     N        0.42212    0.17229    0.66340    1.000
    O319     O        0.34254    0.06814    0.67106    1.000
    O320     O        0.30650    0.07150    0.82958    1.000
    O321     O        0.34875    0.00781    0.68340    1.000
    O322     O        0.29689    0.15833    0.82541    1.000
    O323     O        0.27835    0.12761    0.66768    1.000
    O324     O        0.24911    0.19580    0.81663    1.000
    O325     O        0.37718    0.11742    0.82160    1.000
    O326     O        0.36152    0.15247    0.66671    1.000
    O327     O        0.43497    0.13661    0.81460    1.000
    C331     C        0.53848    0.16275    0.21060    1.000
    C332     C        0.53992    0.18412    0.29940    1.000
    C333     C        0.50775    0.20928    0.42000    1.000
    C334     C        0.50862    0.24710    0.41850    1.000
    H335     H        0.50890    0.25990    0.36460    1.000
    C336     C        0.67037    0.23104    0.28740    1.000
    C337     C        0.65298    0.24198    0.19770    1.000
    C338     C        0.65085    0.28393    0.08020    1.000
    C339     C        0.62150    0.30764    0.08050    1.000
    H340     H        0.61190    0.31620    0.13420    1.000
    C341     C        0.63430    0.09734    0.28510    1.000
    C342     C        0.65451    0.10592    0.19720    1.000
    C343     C        0.69127    0.08269    0.08130    1.000
    C344     C        0.72891    0.08656    0.08170    1.000
    H345     H        0.74190    0.08830    0.13520    1.000
    Cu346    Cu       0.46779    0.16462    0.26678    1.000
    Mn347    Mn       0.61688    0.17386    0.24607    1.000
    Na348    Na       0.62480    0.03280    0.56230    1.000
    N349     N        0.50807    0.18971    0.33620    1.000
    N350     N        0.66666    0.27189    0.16303    1.000
    N351     N        0.67229    0.07788    0.16340    1.000
    O352     O        0.56814    0.15746    0.17106    1.000
    O353     O        0.57150    0.19350    0.32958    1.000
    O354     O        0.50781    0.15125    0.18340    1.000
    O355     O        0.65833    0.20311    0.32541    1.000
    O356     O        0.62761    0.22165    0.16768    1.000
    O357     O        0.69580    0.25089    0.31663    1.000
    O358     O        0.61742    0.12282    0.32160    1.000
    O359     O        0.65247    0.13848    0.16671    1.000
    O360     O        0.63661    0.06503    0.31460    1.000
    C364     C        0.46152    0.83725    0.21060    1.000
    C365     C        0.46008    0.81588    0.29940    1.000
    C366     C        0.49225    0.79072    0.42000    1.000
    C367     C        0.49138    0.75290    0.41850    1.000
    H368     H        0.49110    0.74010    0.36460    1.000
    C369     C        0.32963    0.76896    0.28740    1.000
    C370     C        0.34702    0.75802    0.19770    1.000
    C371     C        0.34915    0.71607    0.08020    1.000
    C372     C        0.37850    0.69236    0.08050    1.000
    H373     H        0.38810    0.68380    0.13420    1.000
    C374     C        0.36570    0.90266    0.28510    1.000
    C375     C        0.34549    0.89408    0.19720    1.000
    C376     C        0.30873    0.91731    0.08130    1.000
    C377     C        0.27109    0.91344    0.08170    1.000
    H378     H        0.25810    0.91170    0.13520    1.000
    Cu379    Cu       0.53221    0.83538    0.26678    1.000
    Mn380    Mn       0.38312    0.82614    0.24607    1.000
    Na381    Na       0.37520    0.96720    0.56230    1.000
    N382     N        0.49193    0.81029    0.33620    1.000
    N383     N        0.33334    0.72811    0.16303    1.000
    N384     N        0.32771    0.92212    0.16340    1.000
    O385     O        0.43186    0.84254    0.17106    1.000
    O386     O        0.42850    0.80650    0.32958    1.000
    O387     O        0.49219    0.84875    0.18340    1.000
    O388     O        0.34167    0.79689    0.32541    1.000
    O389     O        0.37239    0.77835    0.16768    1.000
    O390     O        0.30420    0.74911    0.31663    1.000
    O391     O        0.38258    0.87718    0.32160    1.000
    O392     O        0.34753    0.86152    0.16671    1.000
    O393     O        0.36339    0.93497    0.31460    1.000
    C397     C        0.83725    0.46152    0.78940    1.000
    C398     C        0.81588    0.46008    0.70060    1.000
    C399     C        0.79072    0.49225    0.58000    1.000
    C400     C        0.75290    0.49138    0.58150    1.000
    H401     H        0.74010    0.49110    0.63540    1.000
    C402     C        0.76896    0.32963    0.71260    1.000
    C403     C        0.75802    0.34702    0.80230    1.000
    C404     C        0.71607    0.34915    0.91980    1.000
    C405     C        0.69236    0.37850    0.91950    1.000
    H406     H        0.68380    0.38810    0.86580    1.000
    C407     C        0.90266    0.36570    0.71490    1.000
    C408     C        0.89408    0.34549    0.80280    1.000
    C409     C        0.91731    0.30873    0.91870    1.000
    C410     C        0.91344    0.27109    0.91830    1.000
    H411     H        0.91170    0.25810    0.86480    1.000
    Cu412    Cu       0.83538    0.53221    0.73322    1.000
    Mn413    Mn       0.82614    0.38312    0.75393    1.000
    Na414    Na       0.96720    0.37520    0.43770    1.000
    N415     N        0.81029    0.49193    0.66380    1.000
    N416     N        0.72811    0.33334    0.83697    1.000
    N417     N        0.92212    0.32771    0.83660    1.000
    O418     O        0.84254    0.43186    0.82894    1.000
    O419     O        0.80650    0.42850    0.67042    1.000
    O420     O        0.84875    0.49219    0.81660    1.000
    O421     O        0.79689    0.34167    0.67459    1.000
    O422     O        0.77835    0.37239    0.83232    1.000
    O423     O        0.74911    0.30420    0.68337    1.000
    O424     O        0.87718    0.38258    0.67840    1.000
    O425     O        0.86152    0.34753    0.83329    1.000
    O426     O        0.93497    0.36339    0.68540    1.000
    C430     C        0.16275    0.53848    0.78940    1.000
    C431     C        0.18412    0.53992    0.70060    1.000
    C432     C        0.20928    0.50775    0.58000    1.000
    C433     C        0.24710    0.50862    0.58150    1.000
    H434     H        0.25990    0.50890    0.63540    1.000
    C435     C        0.23104    0.67037    0.71260    1.000
    C436     C        0.24198    0.65298    0.80230    1.000
    C437     C        0.28393    0.65085    0.91980    1.000
    C438     C        0.30764    0.62150    0.91950    1.000
    H439     H        0.31620    0.61190    0.86580    1.000
    C440     C        0.09734    0.63430    0.71490    1.000
    C441     C        0.10592    0.65451    0.80280    1.000
    C442     C        0.08269    0.69127    0.91870    1.000
    C443     C        0.08656    0.72891    0.91830    1.000
    H444     H        0.08830    0.74190    0.86480    1.000
    Cu445    Cu       0.16462    0.46779    0.73322    1.000
    Mn446    Mn       0.17386    0.61688    0.75393    1.000
    Na447    Na       0.03280    0.62480    0.43770    1.000
    N448     N        0.18971    0.50807    0.66380    1.000
    N449     N        0.27189    0.66666    0.83697    1.000
    N450     N        0.07788    0.67229    0.83660    1.000
    O451     O        0.15746    0.56814    0.82894    1.000
    O452     O        0.19350    0.57150    0.67042    1.000
    O453     O        0.15125    0.50781    0.81660    1.000
    O454     O        0.20311    0.65833    0.67459    1.000
    O455     O        0.22165    0.62761    0.83232    1.000
    O456     O        0.25089    0.69580    0.68337    1.000
    O457     O        0.12282    0.61742    0.67840    1.000
    O458     O        0.13848    0.65247    0.83329    1.000
    O459     O        0.06503    0.63661    0.68540    1.000
    C463     C        0.96152    0.66275    0.28940    1.000
    C464     C        0.96008    0.68412    0.20060    1.000
    C465     C        0.99225    0.70928    0.08000    1.000
    C466     C        0.99138    0.74710    0.08150    1.000
    H467     H        0.99110    0.75990    0.13540    1.000
    C468     C        0.82963    0.73104    0.21260    1.000
    C469     C        0.84702    0.74198    0.30230    1.000
    C470     C        0.84915    0.78393    0.41980    1.000
    C471     C        0.87850    0.80764    0.41950    1.000
    H472     H        0.88810    0.81620    0.36580    1.000
    C473     C        0.86570    0.59734    0.21490    1.000
    C474     C        0.84549    0.60592    0.30280    1.000
    C475     C        0.80873    0.58269    0.41870    1.000
    C476     C        0.77109    0.58656    0.41830    1.000
    H477     H        0.75810    0.58830    0.36480    1.000
    Cu478    Cu       0.03221    0.66462    0.23322    1.000
    Mn479    Mn       0.88312    0.67386    0.25393    1.000
    Na480    Na       0.87520    0.53280    0.93770    1.000
    N481     N        0.99193    0.68971    0.16380    1.000
    N482     N        0.83334    0.77189    0.33697    1.000
    N483     N        0.82771    0.57788    0.33660    1.000
    O484     O        0.93186    0.65746    0.32894    1.000
    O485     O        0.92850    0.69350    0.17042    1.000
    O486     O        0.99219    0.65125    0.31660    1.000
    O487     O        0.84167    0.70311    0.17459    1.000
    O488     O        0.87239    0.72165    0.33232    1.000
    O489     O        0.80420    0.75089    0.18337    1.000
    O490     O        0.88258    0.62282    0.17840    1.000
    O491     O        0.84753    0.63848    0.33329    1.000
    O492     O        0.86339    0.56503    0.18540    1.000
    C496     C        0.03848    0.33725    0.28940    1.000
    C497     C        0.03992    0.31588    0.20060    1.000
    C498     C        0.00775    0.29072    0.08000    1.000
    C499     C        0.00862    0.25290    0.08150    1.000
    H500     H        0.00890    0.24010    0.13540    1.000
    C501     C        0.17037    0.26896    0.21260    1.000
    C502     C        0.15298    0.25802    0.30230    1.000
    C503     C        0.15085    0.21607    0.41980    1.000
    C504     C        0.12150    0.19236    0.41950    1.000
    H505     H        0.11190    0.18380    0.36580    1.000
    C506     C        0.13430    0.40266    0.21490    1.000
    C507     C        0.15451    0.39408    0.30280    1.000
    C508     C        0.19127    0.41731    0.41870    1.000
    C509     C        0.22891    0.41344    0.41830    1.000
    H510     H        0.24190    0.41170    0.36480    1.000
    Cu511    Cu       0.96779    0.33538    0.23322    1.000
    Mn512    Mn       0.11688    0.32614    0.25393    1.000
    Na513    Na       0.12480    0.46720    0.93770    1.000
    N514     N        0.00807    0.31029    0.16380    1.000
    N515     N        0.16666    0.22811    0.33697    1.000
    N516     N        0.17229    0.42212    0.33660    1.000
    O517     O        0.06814    0.34254    0.32894    1.000
    O518     O        0.07150    0.30650    0.17042    1.000
    O519     O        0.00781    0.34875    0.31660    1.000
    O520     O        0.15833    0.29689    0.17459    1.000
    O521     O        0.12761    0.27835    0.33232    1.000
    O522     O        0.19580    0.24911    0.18337    1.000
    O523     O        0.11742    0.37718    0.17840    1.000
    O524     O        0.15247    0.36152    0.33329    1.000
    O525     O        0.13661    0.43497    0.18540    1.000
    C529     C        0.23429    0.00910    0.00000    1.000
    H530     H        0.20870    0.00980    0.00000    1.000
    C531     C        0.30995    0.00736    0.00000    1.000
    H532     H        0.33550    0.00690    0.00000    1.000
    Na533    Na       0.29973    0.16348    0.00000    1.000
    C535     C        0.76571    0.99090    0.00000    1.000
    H536     H        0.79130    0.99020    0.00000    1.000
    C537     C        0.69005    0.99264    0.00000    1.000
    H538     H        0.66450    0.99310    0.00000    1.000
    Na539    Na       0.70027    0.83652    0.00000    1.000
    C541     C        0.49090    0.73429    0.50000    1.000
    H542     H        0.49020    0.70870    0.50000    1.000
    C543     C        0.49264    0.80995    0.50000    1.000
    H544     H        0.49310    0.83550    0.50000    1.000
    Na545    Na       0.33652    0.79973    0.50000    1.000
    C547     C        0.50910    0.26571    0.50000    1.000
    H548     H        0.50980    0.29130    0.50000    1.000
    C549     C        0.50736    0.19005    0.50000    1.000
    H550     H        0.50690    0.16450    0.50000    1.000
    Na551    Na       0.66348    0.20027    0.50000    1.000
    C553     C        0.26571    0.50910    0.50000    1.000
    H554     H        0.29130    0.50980    0.50000    1.000
    C555     C        0.19005    0.50736    0.50000    1.000
    H556     H        0.16450    0.50690    0.50000    1.000
    Na557    Na       0.20027    0.66348    0.50000    1.000
    C559     C        0.73429    0.49090    0.50000    1.000
    H560     H        0.70870    0.49020    0.50000    1.000
    C561     C        0.80995    0.49264    0.50000    1.000
    H562     H        0.83550    0.49310    0.50000    1.000
    Na563    Na       0.79973    0.33652    0.50000    1.000
    C565     C        0.00910    0.23429    0.00000    1.000
    H566     H        0.00980    0.20870    0.00000    1.000
    C567     C        0.00736    0.30995    0.00000    1.000
    H568     H        0.00690    0.33550    0.00000    1.000
    Na569    Na       0.16348    0.29973    0.00000    1.000
    C571     C        0.99090    0.76571    0.00000    1.000
    H572     H        0.99020    0.79130    0.00000    1.000
    C573     C        0.99264    0.69005    0.00000    1.000
    H574     H        0.99310    0.66450    0.00000    1.000
    Na575    Na       0.83652    0.70027    0.00000    1.000
    C577     C        0.18140    0.10650    0.50000    1.000
    H578     H        0.16630    0.08580    0.50000    1.000
    C579     C        0.22854    0.16579    0.50000    1.000
    H580     H        0.24490    0.18540    0.50000    1.000
    C581     C        0.41220    0.24690    0.50000    1.000
    H582     H        0.41050    0.27240    0.50000    1.000
    C583     C        0.41912    0.17256    0.50000    1.000
    H584     H        0.42160    0.14710    0.50000    1.000
    C588     C        0.81860    0.89350    0.50000    1.000
    H589     H        0.83370    0.91420    0.50000    1.000
    C590     C        0.77146    0.83421    0.50000    1.000
    H591     H        0.75510    0.81460    0.50000    1.000
    C592     C        0.58780    0.75310    0.50000    1.000
    H593     H        0.58950    0.72760    0.50000    1.000
    C594     C        0.58088    0.82744    0.50000    1.000
    H595     H        0.57840    0.85290    0.50000    1.000
    C599     C        0.39350    0.68140    0.00000    1.000
    H600     H        0.41420    0.66630    0.00000    1.000
    C601     C        0.33421    0.72854    0.00000    1.000
    H602     H        0.31460    0.74490    0.00000    1.000
    C603     C        0.25310    0.91220    0.00000    1.000
    H604     H        0.22760    0.91050    0.00000    1.000
    C605     C        0.32744    0.91912    0.00000    1.000
    H606     H        0.35290    0.92160    0.00000    1.000
    C610     C        0.60650    0.31860    0.00000    1.000
    H611     H        0.58580    0.33370    0.00000    1.000
    C612     C        0.66579    0.27146    0.00000    1.000
    H613     H        0.68540    0.25510    0.00000    1.000
    C614     C        0.74690    0.08780    0.00000    1.000
    H615     H        0.77240    0.08950    0.00000    1.000
    C616     C        0.67256    0.08088    0.00000    1.000
    H617     H        0.64710    0.07840    0.00000    1.000
    C621     C        0.31860    0.60650    0.00000    1.000
    H622     H        0.33370    0.58580    0.00000    1.000
    C623     C        0.27146    0.66579    0.00000    1.000
    H624     H        0.25510    0.68540    0.00000    1.000
    C625     C        0.08780    0.74690    0.00000    1.000
    H626     H        0.08950    0.77240    0.00000    1.000
    C627     C        0.08088    0.67256    0.00000    1.000
    H628     H        0.07840    0.64710    0.00000    1.000
    C632     C        0.68140    0.39350    0.00000    1.000
    H633     H        0.66630    0.41420    0.00000    1.000
    C634     C        0.72854    0.33421    0.00000    1.000
    H635     H        0.74490    0.31460    0.00000    1.000
    C636     C        0.91220    0.25310    0.00000    1.000
    H637     H        0.91050    0.22760    0.00000    1.000
    C638     C        0.91912    0.32744    0.00000    1.000
    H639     H        0.92160    0.35290    0.00000    1.000
    C643     C        0.10650    0.18140    0.50000    1.000
    H644     H        0.08580    0.16630    0.50000    1.000
    C645     C        0.16579    0.22854    0.50000    1.000
    H646     H        0.18540    0.24490    0.50000    1.000
    C647     C        0.24690    0.41220    0.50000    1.000
    H648     H        0.27240    0.41050    0.50000    1.000
    C649     C        0.17256    0.41912    0.50000    1.000
    H650     H        0.14710    0.42160    0.50000    1.000
    C654     C        0.89350    0.81860    0.50000    1.000
    H655     H        0.91420    0.83370    0.50000    1.000
    C656     C        0.83421    0.77146    0.50000    1.000
    H657     H        0.81460    0.75510    0.50000    1.000
    C658     C        0.75310    0.58780    0.50000    1.000
    H659     H        0.72760    0.58950    0.50000    1.000
    C660     C        0.82744    0.58088    0.50000    1.000
    H661     H        0.85290    0.57840    0.50000    1.000
    Cu665    Cu       0.20803    0.20803    0.26671    1.000
    Na666    Na       0.24174    0.24174    0.07140    1.000
    Cu668    Cu       0.79197    0.79197    0.26671    1.000
    Na669    Na       0.75826    0.75826    0.07140    1.000
    Cu671    Cu       0.29197    0.70803    0.76671    1.000
    Na672    Na       0.25826    0.74174    0.57140    1.000
    Cu674    Cu       0.70803    0.29197    0.76671    1.000
    Na675    Na       0.74174    0.25826    0.57140    1.000
    Cu677    Cu       0.29197    0.70803    0.23329    1.000
    Na678    Na       0.25826    0.74174    0.42860    1.000
    Cu680    Cu       0.70803    0.29197    0.23329    1.000
    Na681    Na       0.74174    0.25826    0.42860    1.000
    Cu683    Cu       0.20803    0.20803    0.73329    1.000
    Na684    Na       0.24174    0.24174    0.92860    1.000
    Cu686    Cu       0.79197    0.79197    0.73329    1.000
    Na687    Na       0.75826    0.75826    0.92860    1.000
