data_functionalizedCrystal
_audit_creation_method	'EQeq! by Chris Wilmer'
_symmetry_space_group_name_H-M	'P1'
_symmetry_Int_Tables_number	1
_symmetry_cell_setting	triclinic
loop_
_symmetry_equiv_pos_as_xyz
  x,y,z
_cell_length_a	9.366
_cell_length_b	9.366
_cell_length_c	6.947
_cell_angle_alpha	90
_cell_angle_beta	90
_cell_angle_gamma	90
loop_
_atom_site_label
_atom_site_type_symbol
_atom_site_fract_x
_atom_site_fract_y
_atom_site_fract_z
_atom_site_charge
Mof_Ca	Ca	0.25	0.25	0.9071	1.212
Mof_N 	N 	0.25	0.25	0.242	-0.187
Mof_N 	N 	0.25	0.25	0.4042	-0.017
Mof_N 	N 	0.25	0.25	0.5699	-0.194
Mof_Ca	Ca	0.75	0.75	0.0929	1.221
Mof_N 	N 	0.75	0.75	0.758	-0.195
Mof_N 	N 	0.75	0.75	0.5958	-0.019
Mof_N 	N 	0.75	0.75	0.4301	-0.197
Mof_N 	N 	0.0721	0.0721	0.9109	-0.196
Mof_N 	N 	0.4279	0.4279	0.9109	-0.195
Mof_N 	N 	0.4279	0.0721	0.9109	-0.196
Mof_N 	N 	0.0721	0.4279	0.9109	-0.196
Mof_N 	N 	0.9279	0.5721	0.0891	-0.194
Mof_N 	N 	0.5721	0.9279	0.0891	-0.194
Mof_N 	N 	0.5721	0.5721	0.0891	-0.19
Mof_N 	N 	0.9279	0.9279	0.0891	-0.198
Mof_N 	N 	-0	0	-0	-0.012
Mof_N 	N 	0.5	0.5	-0	-0.021
Mof_N 	N 	0.5	0	-0	-0.016
Mof_N 	N 	-0	0.5	-0	-0.016
_end
