data_functionalizedCrystal
_audit_creation_method	'EQeq! by Chris Wilmer'
_symmetry_space_group_name_H-M	'P1'
_symmetry_Int_Tables_number	1
_symmetry_cell_setting	triclinic
loop_
_symmetry_equiv_pos_as_xyz
  x,y,z
_cell_length_a	25.865
_cell_length_b	25.865
_cell_length_c	6.911
_cell_angle_alpha	90
_cell_angle_beta	90
_cell_angle_gamma	120
loop_
_atom_site_label
_atom_site_type_symbol
_atom_site_fract_x
_atom_site_fract_y
_atom_site_fract_z
_atom_site_charge
Mof_Mg	Mg	0.36753	0.05163	0.02431	1.468
Mof_O 	O 	0.36014	0.98994	0.8153	-0.69
Mof_O 	O 	0.58446	0.978	0.8295	-0.653
Mof_O 	O 	0.40422	0.96886	0.5782	-0.546
Mof_C 	C 	0.40271	0.98371	0.75	0.46
Mof_C 	C 	0.45271	0.99399	0.8846	-0.216
Mof_C 	C 	0.49744	0.98501	0.8097	-0.101
Mof_H 	H 	0.4954	0.9751	0.6765	0.073
Mof_C 	C 	0.54503	0.98953	0.9173	0.213
Mof_Mg	Mg	0.0342	0.38496	0.35764	1.468
Mof_O 	O 	0.02681	0.32327	0.14863	-0.69
Mof_O 	O 	0.25113	0.31133	0.16283	-0.652
Mof_O 	O 	0.07089	0.30219	0.91153	-0.547
Mof_C 	C 	0.06938	0.31704	0.08333	0.46
Mof_C 	C 	0.11938	0.32732	0.21793	-0.217
Mof_C 	C 	0.16411	0.31834	0.14303	-0.102
Mof_H 	H 	0.16207	0.30843	0.00983	0.072
Mof_C 	C 	0.2117	0.32286	0.25063	0.212
Mof_Mg	Mg	0.70086	0.7183	0.69098	1.467
Mof_O 	O 	0.69347	0.65661	0.48197	-0.691
Mof_O 	O 	0.91779	0.64467	0.49617	-0.654
Mof_O 	O 	0.73755	0.63553	0.24487	-0.547
Mof_C 	C 	0.73604	0.65038	0.41667	0.46
Mof_C 	C 	0.78604	0.66066	0.55127	-0.217
Mof_C 	C 	0.83077	0.65168	0.47637	-0.102
Mof_H 	H 	0.82873	0.64177	0.34317	0.071
Mof_C 	C 	0.87836	0.6562	0.58397	0.212
Mof_Mg	Mg	0.94837	0.3159	0.02431	1.467
Mof_O 	O 	0.01006	0.3702	0.8153	-0.691
Mof_O 	O 	0.022	0.60646	0.8295	-0.654
Mof_O 	O 	0.03114	0.43536	0.5782	-0.547
Mof_C 	C 	0.01629	0.419	0.75	0.459
Mof_C 	C 	0.00601	0.45872	0.8846	-0.217
Mof_C 	C 	0.01499	0.51243	0.8097	-0.102
Mof_H 	H 	0.0249	0.5203	0.6765	0.072
Mof_C 	C 	0.01047	0.5555	0.9173	0.212
Mof_Mg	Mg	0.61504	0.64923	0.35764	1.467
Mof_O 	O 	0.67673	0.70353	0.14863	-0.691
Mof_O 	O 	0.68867	0.93979	0.16283	-0.653
Mof_O 	O 	0.69781	0.76869	0.91153	-0.547
Mof_C 	C 	0.68296	0.75233	0.08333	0.459
Mof_C 	C 	0.67268	0.79205	0.21793	-0.217
Mof_C 	C 	0.68166	0.84576	0.14303	-0.102
Mof_H 	H 	0.69157	0.85363	0.00983	0.072
Mof_C 	C 	0.67714	0.88883	0.25063	0.212
Mof_Mg	Mg	0.2817	0.98257	0.69098	1.467
Mof_O 	O 	0.34339	0.03687	0.48197	-0.691
Mof_O 	O 	0.35533	0.27313	0.49617	-0.654
Mof_O 	O 	0.36447	0.10203	0.24487	-0.547
Mof_C 	C 	0.34962	0.08567	0.41667	0.459
Mof_C 	C 	0.33934	0.12539	0.55127	-0.217
Mof_C 	C 	0.34832	0.1791	0.47637	-0.102
Mof_H 	H 	0.35823	0.18697	0.34317	0.071
Mof_C 	C 	0.3438	0.22217	0.58397	0.212
Mof_Mg	Mg	0.6841	0.63247	0.02431	1.467
Mof_O 	O 	0.6298	0.63986	0.8153	-0.69
Mof_O 	O 	0.39354	0.41554	0.8295	-0.654
Mof_O 	O 	0.56464	0.59578	0.5782	-0.547
Mof_C 	C 	0.581	0.59729	0.75	0.459
Mof_C 	C 	0.54128	0.54729	0.8846	-0.217
Mof_C 	C 	0.48757	0.50256	0.8097	-0.102
Mof_H 	H 	0.4797	0.5046	0.6765	0.071
Mof_C 	C 	0.4445	0.45497	0.9173	0.212
Mof_Mg	Mg	0.35077	0.9658	0.35764	1.467
Mof_O 	O 	0.29647	0.97319	0.14863	-0.691
Mof_O 	O 	0.06021	0.74887	0.16283	-0.653
Mof_O 	O 	0.23131	0.92911	0.91153	-0.548
Mof_C 	C 	0.24767	0.93062	0.08333	0.46
Mof_C 	C 	0.20795	0.88062	0.21793	-0.217
Mof_C 	C 	0.15424	0.83589	0.14303	-0.102
Mof_H 	H 	0.14637	0.83793	0.00983	0.072
Mof_C 	C 	0.11117	0.7883	0.25063	0.212
Mof_Mg	Mg	0.01743	0.29914	0.69098	1.467
Mof_O 	O 	0.96313	0.30653	0.48197	-0.691
Mof_O 	O 	0.72687	0.08221	0.49617	-0.654
Mof_O 	O 	0.89797	0.26245	0.24487	-0.547
Mof_C 	C 	0.91433	0.26396	0.41667	0.46
Mof_C 	C 	0.87461	0.21396	0.55127	-0.217
Mof_C 	C 	0.8209	0.16923	0.47637	-0.102
Mof_H 	H 	0.81303	0.17127	0.34317	0.071
Mof_C 	C 	0.77783	0.12164	0.58397	0.212
Mof_Mg	Mg	0.63247	0.94837	0.97569	1.467
Mof_O 	O 	0.63986	0.01006	0.1847	-0.691
Mof_O 	O 	0.41554	0.022	0.1705	-0.654
Mof_O 	O 	0.59578	0.03114	0.4218	-0.547
Mof_C 	C 	0.59729	0.01629	0.25	0.459
Mof_C 	C 	0.54729	0.00601	0.1154	-0.217
Mof_C 	C 	0.50256	0.01499	0.1903	-0.102
Mof_H 	H 	0.5046	0.0249	0.3235	0.072
Mof_C 	C 	0.45497	0.01047	0.0827	0.212
Mof_Mg	Mg	0.29914	0.2817	0.30902	1.467
Mof_O 	O 	0.30653	0.34339	0.51803	-0.691
Mof_O 	O 	0.08221	0.35533	0.50383	-0.654
Mof_O 	O 	0.26245	0.36447	0.75513	-0.547
Mof_C 	C 	0.26396	0.34962	0.58333	0.46
Mof_C 	C 	0.21396	0.33934	0.44873	-0.217
Mof_C 	C 	0.16923	0.34832	0.52363	-0.102
Mof_H 	H 	0.17127	0.35823	0.65683	0.071
Mof_C 	C 	0.12164	0.3438	0.41603	0.212
Mof_Mg	Mg	0.9658	0.61504	0.64236	1.467
Mof_O 	O 	0.97319	0.67673	0.85137	-0.691
Mof_O 	O 	0.74887	0.68867	0.83717	-0.653
Mof_O 	O 	0.92911	0.69781	0.08847	-0.547
Mof_C 	C 	0.93062	0.68296	0.91667	0.46
Mof_C 	C 	0.88062	0.67268	0.78207	-0.217
Mof_C 	C 	0.83589	0.68166	0.85697	-0.102
Mof_H 	H 	0.83793	0.69157	0.99017	0.072
Mof_C 	C 	0.7883	0.67714	0.74937	0.212
Mof_Mg	Mg	0.05163	0.6841	0.97569	1.467
Mof_O 	O 	0.98994	0.6298	0.1847	-0.691
Mof_O 	O 	0.978	0.39354	0.1705	-0.654
Mof_O 	O 	0.96886	0.56464	0.4218	-0.547
Mof_C 	C 	0.98371	0.581	0.25	0.459
Mof_C 	C 	0.99399	0.54128	0.1154	-0.217
Mof_C 	C 	0.98501	0.48757	0.1903	-0.102
Mof_H 	H 	0.9751	0.4797	0.3235	0.072
Mof_C 	C 	0.98953	0.4445	0.0827	0.212
Mof_Mg	Mg	0.7183	0.01743	0.30902	1.467
Mof_O 	O 	0.65661	0.96313	0.51803	-0.691
Mof_O 	O 	0.64467	0.72687	0.50383	-0.654
Mof_O 	O 	0.63553	0.89797	0.75513	-0.547
Mof_C 	C 	0.65038	0.91433	0.58333	0.459
Mof_C 	C 	0.66066	0.87461	0.44873	-0.217
Mof_C 	C 	0.65168	0.8209	0.52363	-0.102
Mof_H 	H 	0.64177	0.81303	0.65683	0.071
Mof_C 	C 	0.6562	0.77783	0.41603	0.212
Mof_Mg	Mg	0.38496	0.35077	0.64236	1.467
Mof_O 	O 	0.32327	0.29647	0.85137	-0.691
Mof_O 	O 	0.31133	0.06021	0.83717	-0.653
Mof_O 	O 	0.30219	0.23131	0.08847	-0.547
Mof_C 	C 	0.31704	0.24767	0.91667	0.459
Mof_C 	C 	0.32732	0.20795	0.78207	-0.217
Mof_C 	C 	0.31834	0.15424	0.85697	-0.102
Mof_H 	H 	0.30843	0.14637	0.99017	0.072
Mof_C 	C 	0.32286	0.11117	0.74937	0.212
Mof_Mg	Mg	0.3159	0.36753	0.97569	1.467
Mof_O 	O 	0.3702	0.36014	0.1847	-0.69
Mof_O 	O 	0.60646	0.58446	0.1705	-0.654
Mof_O 	O 	0.43536	0.40422	0.4218	-0.547
Mof_C 	C 	0.419	0.40271	0.25	0.459
Mof_C 	C 	0.45872	0.45271	0.1154	-0.217
Mof_C 	C 	0.51243	0.49744	0.1903	-0.102
Mof_H 	H 	0.5203	0.4954	0.3235	0.071
Mof_C 	C 	0.5555	0.54503	0.0827	0.212
Mof_Mg	Mg	0.98257	0.70086	0.30902	1.467
Mof_O 	O 	0.03687	0.69347	0.51803	-0.691
Mof_O 	O 	0.27313	0.91779	0.50383	-0.654
Mof_O 	O 	0.10203	0.73755	0.75513	-0.547
Mof_C 	C 	0.08567	0.73604	0.58333	0.46
Mof_C 	C 	0.12539	0.78604	0.44873	-0.217
Mof_C 	C 	0.1791	0.83077	0.52363	-0.102
Mof_H 	H 	0.18697	0.82873	0.65683	0.071
Mof_C 	C 	0.22217	0.87836	0.41603	0.212
Mof_Mg	Mg	0.64923	0.0342	0.64236	1.467
Mof_O 	O 	0.70353	0.02681	0.85137	-0.691
Mof_O 	O 	0.93979	0.25113	0.83717	-0.653
Mof_O 	O 	0.76869	0.07089	0.08847	-0.548
Mof_C 	C 	0.75233	0.06938	0.91667	0.46
Mof_C 	C 	0.79205	0.11938	0.78207	-0.217
Mof_C 	C 	0.84576	0.16411	0.85697	-0.102
Mof_H 	H 	0.85363	0.16207	0.99017	0.072
Mof_C 	C 	0.88883	0.2117	0.74937	0.212
_end
