# CIF file generated by openbabel 3.1.0, see https://openbabel.org
data_I
_chemical_name_common 'image0'
_cell_length_a 14.8825
_cell_length_b 23.3281
_cell_length_c 9.1087
_cell_angle_alpha 90
_cell_angle_beta 90
_cell_angle_gamma 90
_space_group_name_H-M_alt 'P 1'
_space_group_name_Hall 'P 1'
loop_
    _symmetry_equiv_pos_as_xyz
    x,y,z
loop_
    _atom_site_label
    _atom_site_type_symbol
    _atom_site_fract_x
    _atom_site_fract_y
    _atom_site_fract_z
    _atom_site_occupancy
    Fe1      Fe       0.57784    0.05464    0.26258    1.000
    Cl1      Cl       0.68191    0.99408    0.16597    1.000
    O1       O        0.66363    0.12498    0.20788    1.000
    O2       O        0.63440    0.07199    0.46158    1.000
    C1       C        0.70883    0.14183    0.31480    1.000
    C2       C        0.69113    0.11189    0.46190    1.000
    O3       O        0.73414    0.13020    0.56996    1.000
    O4       O        0.76842    0.18048    0.31479    1.000
    Fe2      Fe       0.57784    0.55464    0.76258    1.000
    Cl2      Cl       0.68191    0.49408    0.66597    1.000
    O5       O        0.66363    0.62498    0.70788    1.000
    O6       O        0.63440    0.57199    0.96158    1.000
    C3       C        0.70883    0.64183    0.81480    1.000
    C4       C        0.69113    0.61189    0.96190    1.000
    O7       O        0.73414    0.63020    0.06996    1.000
    O8       O        0.76842    0.68048    0.81479    1.000
    Fe3      Fe       0.07784    0.05464    0.76258    1.000
    Cl3      Cl       0.18191    0.99408    0.66597    1.000
    O9       O        0.16363    0.12498    0.70788    1.000
    O10      O        0.13440    0.07199    0.96158    1.000
    C5       C        0.20883    0.14183    0.81480    1.000
    C6       C        0.19113    0.11189    0.96190    1.000
    O11      O        0.23414    0.13020    0.06996    1.000
    O12      O        0.26842    0.18048    0.81479    1.000
    Fe4      Fe       0.07784    0.55464    0.26258    1.000
    Cl4      Cl       0.18191    0.49408    0.16597    1.000
    O13      O        0.16363    0.62498    0.20788    1.000
    O14      O        0.13440    0.57199    0.46158    1.000
    C7       C        0.20883    0.64183    0.31480    1.000
    C8       C        0.19113    0.61189    0.46190    1.000
    O15      O        0.23414    0.63020    0.56996    1.000
    O16      O        0.26842    0.68048    0.31479    1.000
    Fe5      Fe       0.42216    0.94536    0.26258    1.000
    Cl5      Cl       0.31809    0.00592    0.16597    1.000
    O17      O        0.33637    0.87502    0.20788    1.000
    O18      O        0.36560    0.92801    0.46158    1.000
    C9       C        0.29117    0.85817    0.31480    1.000
    C10      C        0.30887    0.88811    0.46190    1.000
    O19      O        0.26586    0.86980    0.56996    1.000
    O20      O        0.23158    0.81952    0.31479    1.000
    Fe6      Fe       0.42216    0.44536    0.76258    1.000
    Cl6      Cl       0.31809    0.50592    0.66597    1.000
    O21      O        0.33637    0.37502    0.70788    1.000
    O22      O        0.36560    0.42801    0.96158    1.000
    C11      C        0.29117    0.35817    0.81480    1.000
    C12      C        0.30887    0.38811    0.96190    1.000
    O23      O        0.26586    0.36980    0.06996    1.000
    O24      O        0.23158    0.31952    0.81479    1.000
    Fe7      Fe       0.92216    0.94536    0.76258    1.000
    Cl7      Cl       0.81809    0.00592    0.66597    1.000
    O25      O        0.83637    0.87502    0.70788    1.000
    O26      O        0.86560    0.92801    0.96158    1.000
    C13      C        0.79117    0.85817    0.81480    1.000
    C14      C        0.80887    0.88811    0.96190    1.000
    O27      O        0.76586    0.86980    0.06996    1.000
    O28      O        0.73158    0.81952    0.81479    1.000
    Fe8      Fe       0.92216    0.44536    0.26258    1.000
    Cl8      Cl       0.81809    0.50592    0.16597    1.000
    O29      O        0.83637    0.37502    0.20788    1.000
    O30      O        0.86560    0.42801    0.46158    1.000
    C15      C        0.79117    0.35817    0.31480    1.000
    C16      C        0.80887    0.38811    0.46190    1.000
    O31      O        0.76586    0.36980    0.56996    1.000
    O32      O        0.73158    0.31952    0.31479    1.000
    Fe9      Fe       0.82784    0.19536    0.51258    1.000
    Cl9      Cl       0.93191    0.25592    0.41597    1.000
    O33      O        0.91363    0.12502    0.45788    1.000
    O34      O        0.88440    0.17801    0.71158    1.000
    C17      C        0.95883    0.10817    0.56480    1.000
    C18      C        0.94113    0.13811    0.71190    1.000
    O35      O        0.98414    0.11980    0.81996    1.000
    O36      O        0.01842    0.06952    0.56479    1.000
    Fe10     Fe       0.82784    0.69536    0.01258    1.000
    Cl10     Cl       0.93191    0.75592    0.91597    1.000
    O37      O        0.91363    0.62502    0.95788    1.000
    O38      O        0.88440    0.67801    0.21158    1.000
    C19      C        0.95883    0.60817    0.06480    1.000
    C20      C        0.94113    0.63811    0.21190    1.000
    O39      O        0.98414    0.61980    0.31996    1.000
    O40      O        0.01842    0.56952    0.06479    1.000
    Fe11     Fe       0.32784    0.19536    0.01258    1.000
    Cl11     Cl       0.43191    0.25592    0.91597    1.000
    O41      O        0.41363    0.12502    0.95788    1.000
    O42      O        0.38440    0.17801    0.21158    1.000
    C21      C        0.45883    0.10817    0.06480    1.000
    C22      C        0.44113    0.13811    0.21190    1.000
    O43      O        0.48414    0.11980    0.31996    1.000
    O44      O        0.51842    0.06952    0.06479    1.000
    Fe12     Fe       0.32784    0.69536    0.51258    1.000
    Cl12     Cl       0.43191    0.75592    0.41597    1.000
    O45      O        0.41363    0.62502    0.45788    1.000
    O46      O        0.38440    0.67801    0.71158    1.000
    C23      C        0.45883    0.60817    0.56480    1.000
    C24      C        0.44113    0.63811    0.71190    1.000
    O47      O        0.48414    0.61980    0.81996    1.000
    O48      O        0.51842    0.56952    0.56479    1.000
    Fe13     Fe       0.67216    0.30464    0.51258    1.000
    Cl13     Cl       0.56809    0.24408    0.41597    1.000
    O49      O        0.58637    0.37498    0.45788    1.000
    O50      O        0.61560    0.32199    0.71158    1.000
    C25      C        0.54117    0.39183    0.56480    1.000
    C26      C        0.55887    0.36189    0.71190    1.000
    O51      O        0.51586    0.38020    0.81996    1.000
    O52      O        0.48158    0.43048    0.56479    1.000
    Fe14     Fe       0.67216    0.80464    0.01258    1.000
    Cl14     Cl       0.56809    0.74408    0.91597    1.000
    O53      O        0.58637    0.87498    0.95788    1.000
    O54      O        0.61560    0.82199    0.21158    1.000
    C27      C        0.54117    0.89183    0.06480    1.000
    C28      C        0.55887    0.86189    0.21190    1.000
    O55      O        0.51586    0.88020    0.31996    1.000
    O56      O        0.48158    0.93048    0.06479    1.000
    Fe15     Fe       0.17216    0.30464    0.01258    1.000
    Cl15     Cl       0.06809    0.24408    0.91597    1.000
    O57      O        0.08637    0.37498    0.95788    1.000
    O58      O        0.11560    0.32199    0.21158    1.000
    C29      C        0.04117    0.39183    0.06480    1.000
    C30      C        0.05887    0.36189    0.21190    1.000
    O59      O        0.01586    0.38020    0.31996    1.000
    O60      O        0.98158    0.43048    0.06479    1.000
    Fe16     Fe       0.17216    0.80464    0.51258    1.000
    Cl16     Cl       0.06809    0.74408    0.41597    1.000
    O61      O        0.08637    0.87498    0.45788    1.000
    O62      O        0.11560    0.82199    0.71158    1.000
    C31      C        0.04117    0.89183    0.56480    1.000
    C32      C        0.05887    0.86189    0.71190    1.000
    O63      O        0.01586    0.88020    0.81996    1.000
    O64      O        0.98158    0.93048    0.56479    1.000
    O65      O        0.50000    0.00000    0.34370    1.000
    O66      O        0.50000    0.50000    0.84370    1.000
    O67      O        0.00000    0.00000    0.84370    1.000
    O68      O        0.00000    0.50000    0.34370    1.000
    O69      O        0.75000    0.25000    0.59370    1.000
    O70      O        0.75000    0.75000    0.09370    1.000
    O71      O        0.25000    0.25000    0.09370    1.000
    O72      O        0.25000    0.75000    0.59370    1.000
