data_functionalizedCrystal
_audit_creation_method	'EQeq! by Chris Wilmer'
_symmetry_space_group_name_H-M	'P1'
_symmetry_Int_Tables_number	1
_symmetry_cell_setting	triclinic
loop_
_symmetry_equiv_pos_as_xyz
  x,y,z
_cell_length_a	18.204
_cell_length_b	12.3884
_cell_length_c	11.0014
_cell_angle_alpha	90
_cell_angle_beta	102.366
_cell_angle_gamma	90
loop_
_atom_site_label
_atom_site_type_symbol
_atom_site_fract_x
_atom_site_fract_y
_atom_site_fract_z
_atom_site_charge
Mof_N 	N 	0.8164	0.5678	0.3899	-0.201
Mof_Mg	Mg	0.91703	0.46405	0.46041	1.482
Mof_O 	O 	0.9247	0.5144	0.2805	-0.605
Mof_O 	O 	0.86949	0.5912	0.1018	-0.484
Mof_O 	O 	0.64534	0.8328	0.1283	-0.473
Mof_O 	O 	0.58117	0.7821	0.2712	-0.501
Mof_O 	O 	0.021	0.4103	0.4454	-1.469
Mof_H 	H 	0.035	0.366	0.48	0.716
Mof_C 	C 	0.8119	0.607	0.2743	-0.085
Mof_C 	C 	0.7549	0.6745	0.2157	0.026
Mof_H 	H 	0.758	0.702	0.143	0.053
Mof_C 	C 	0.6996	0.7012	0.2777	-0.094
Mof_C 	C 	0.7024	0.66	0.3937	-0.012
Mof_H 	H 	0.661	0.671	0.44	0.036
Mof_C 	C 	0.762	0.5952	0.4474	0.017
Mof_H 	H 	0.765	0.571	0.523	0.02
Mof_C 	C 	0.8742	0.5682	0.2124	0.439
Mof_C 	C 	0.6363	0.7781	0.2194	0.401
Mof_N 	N 	0.3164	0.0678	0.3899	-0.2
Mof_Mg	Mg	0.41703	0.96405	0.46041	1.478
Mof_O 	O 	0.4247	0.0144	0.2805	-0.658
Mof_O 	O 	0.36949	0.0912	0.1018	-0.508
Mof_O 	O 	0.14534	0.3328	0.1283	-0.494
Mof_O 	O 	0.08117	0.2821	0.2712	-0.548
Mof_O 	O 	0.521	0.9103	0.4454	-1.371
Mof_H 	H 	0.535	0.866	0.48	0.701
Mof_C 	C 	0.3119	0.107	0.2743	-0.101
Mof_C 	C 	0.2549	0.1745	0.2157	0.035
Mof_H 	H 	0.258	0.202	0.143	0.043
Mof_C 	C 	0.1996	0.2012	0.2777	-0.113
Mof_C 	C 	0.2024	0.16	0.3937	-0.005
Mof_H 	H 	0.161	0.171	0.44	0.02
Mof_C 	C 	0.262	0.0952	0.4474	0.005
Mof_H 	H 	0.265	0.071	0.523	0.018
Mof_C 	C 	0.3742	0.0682	0.2124	0.45
Mof_C 	C 	0.1363	0.2781	0.2194	0.406
Mof_N 	N 	0.1836	0.5678	0.1101	-0.2
Mof_Mg	Mg	0.08297	0.46405	0.03959	1.472
Mof_O 	O 	0.0753	0.5144	0.2195	-0.712
Mof_O 	O 	0.13051	0.5912	0.3982	-0.535
Mof_O 	O 	0.35466	0.8328	0.3717	-0.476
Mof_O 	O 	0.41883	0.7821	0.2288	-0.502
Mof_O 	O 	0.979	0.4103	0.0546	-1.263
Mof_H 	H 	0.965	0.366	0.02	0.684
Mof_C 	C 	0.1881	0.607	0.2257	-0.113
Mof_C 	C 	0.2451	0.6745	0.2843	0.04
Mof_H 	H 	0.242	0.702	0.357	0.039
Mof_C 	C 	0.3004	0.7012	0.2223	-0.108
Mof_C 	C 	0.2976	0.66	0.1063	-0.001
Mof_H 	H 	0.339	0.671	0.06	0.032
Mof_C 	C 	0.238	0.5952	0.0526	-0.004
Mof_H 	H 	0.235	0.571	0.977	0.031
Mof_C 	C 	0.1258	0.5682	0.2876	0.458
Mof_C 	C 	0.3637	0.7781	0.2806	0.404
Mof_N 	N 	0.6836	0.0678	0.1101	-0.206
Mof_Mg	Mg	0.58297	0.96405	0.03959	1.477
Mof_O 	O 	0.5753	0.0144	0.2195	-0.655
Mof_O 	O 	0.63051	0.0912	0.3982	-0.508
Mof_O 	O 	0.85466	0.3328	0.3717	-0.45
Mof_O 	O 	0.91883	0.2821	0.2288	-0.447
Mof_O 	O 	0.479	0.9103	0.0546	-1.373
Mof_H 	H 	0.465	0.866	0.02	0.7
Mof_C 	C 	0.6881	0.107	0.2257	-0.089
Mof_C 	C 	0.7451	0.1745	0.2843	0.02
Mof_H 	H 	0.742	0.202	0.357	0.055
Mof_C 	C 	0.8004	0.2012	0.2223	-0.074
Mof_C 	C 	0.7976	0.16	0.1063	-0.031
Mof_H 	H 	0.839	0.171	0.06	0.059
Mof_C 	C 	0.738	0.0952	0.0526	0.055
Mof_H 	H 	0.735	0.071	0.977	0.002
Mof_C 	C 	0.6258	0.0682	0.2876	0.447
Mof_C 	C 	0.8637	0.2781	0.2806	0.393
Mof_N 	N 	0.1836	0.4322	0.6101	-0.201
Mof_Mg	Mg	0.08297	0.53595	0.53959	1.473
Mof_O 	O 	0.0753	0.4856	0.7195	-0.71
Mof_O 	O 	0.13051	0.4088	0.8982	-0.534
Mof_O 	O 	0.35466	0.1672	0.8717	-0.477
Mof_O 	O 	0.41883	0.2179	0.7288	-0.502
Mof_O 	O 	0.979	0.5897	0.5546	-1.265
Mof_H 	H 	0.965	0.634	0.52	0.683
Mof_C 	C 	0.1881	0.393	0.7257	-0.111
Mof_C 	C 	0.2451	0.3255	0.7843	0.037
Mof_H 	H 	0.242	0.298	0.857	0.04
Mof_C 	C 	0.3004	0.2988	0.7223	-0.105
Mof_C 	C 	0.2976	0.34	0.6063	-0.006
Mof_H 	H 	0.339	0.329	0.56	0.035
Mof_C 	C 	0.238	0.4048	0.5526	0.009
Mof_H 	H 	0.235	0.429	0.477	0.023
Mof_C 	C 	0.1258	0.4318	0.7876	0.457
Mof_C 	C 	0.3637	0.2219	0.7806	0.403
Mof_N 	N 	0.6836	0.9322	0.6101	-0.202
Mof_Mg	Mg	0.58297	0.03595	0.53959	1.478
Mof_O 	O 	0.5753	0.9856	0.7195	-0.657
Mof_O 	O 	0.63051	0.9088	0.8982	-0.505
Mof_O 	O 	0.85466	0.6672	0.8717	-0.451
Mof_O 	O 	0.91883	0.7179	0.7288	-0.45
Mof_O 	O 	0.479	0.0897	0.5546	-1.371
Mof_H 	H 	0.465	0.134	0.52	0.701
Mof_C 	C 	0.6881	0.893	0.7257	-0.092
Mof_C 	C 	0.7451	0.8255	0.7843	0.027
Mof_H 	H 	0.742	0.798	0.857	0.053
Mof_C 	C 	0.8004	0.7988	0.7223	-0.083
Mof_C 	C 	0.7976	0.84	0.6063	-0.015
Mof_H 	H 	0.839	0.829	0.56	0.051
Mof_C 	C 	0.738	0.9048	0.5526	0.022
Mof_H 	H 	0.735	0.929	0.477	0.022
Mof_C 	C 	0.6258	0.9318	0.7876	0.448
Mof_C 	C 	0.8637	0.7219	0.7806	0.396
Mof_N 	N 	0.8164	0.4322	0.8899	-0.199
Mof_Mg	Mg	0.91703	0.53595	0.96041	1.483
Mof_O 	O 	0.9247	0.4856	0.7805	-0.607
Mof_O 	O 	0.86949	0.4088	0.6018	-0.485
Mof_O 	O 	0.64534	0.1672	0.6283	-0.471
Mof_O 	O 	0.58117	0.2179	0.7712	-0.502
Mof_O 	O 	0.021	0.5897	0.9454	-1.466
Mof_H 	H 	0.035	0.634	0.98	0.718
Mof_C 	C 	0.8119	0.393	0.7743	-0.087
Mof_C 	C 	0.7549	0.3255	0.7157	0.028
Mof_H 	H 	0.758	0.298	0.643	0.052
Mof_C 	C 	0.6996	0.2988	0.7777	-0.097
Mof_C 	C 	0.7024	0.34	0.8937	-0.006
Mof_H 	H 	0.661	0.329	0.94	0.033
Mof_C 	C 	0.762	0.4048	0.9474	0.003
Mof_H 	H 	0.765	0.429	0.023	0.028
Mof_C 	C 	0.8742	0.4318	0.7124	0.44
Mof_C 	C 	0.6363	0.2219	0.7194	0.401
Mof_N 	N 	0.3164	0.9322	0.8899	-0.204
Mof_Mg	Mg	0.41703	0.03595	0.96041	1.477
Mof_O 	O 	0.4247	0.9856	0.7805	-0.656
Mof_O 	O 	0.36949	0.9088	0.6018	-0.511
Mof_O 	O 	0.14534	0.6672	0.6283	-0.493
Mof_O 	O 	0.08117	0.7179	0.7712	-0.546
Mof_O 	O 	0.521	0.0897	0.9454	-1.373
Mof_H 	H 	0.535	0.134	0.98	0.7
Mof_C 	C 	0.3119	0.893	0.7743	-0.098
Mof_C 	C 	0.2549	0.8255	0.7157	0.028
Mof_H 	H 	0.258	0.798	0.643	0.045
Mof_C 	C 	0.1996	0.7988	0.7777	-0.104
Mof_C 	C 	0.2024	0.84	0.8937	-0.022
Mof_H 	H 	0.161	0.829	0.94	0.028
Mof_C 	C 	0.262	0.9048	0.9474	0.038
Mof_H 	H 	0.265	0.929	0.023	-0.001
Mof_C 	C 	0.3742	0.9318	0.7124	0.448
Mof_C 	C 	0.1363	0.7219	0.7194	0.402
Mof_Mg	Mg	6.87792e-34	0.39659	0.25	1.471
Mof_Mg	Mg	0.5	0.89659	0.25	1.484
Mof_Mg	Mg	-2.34555e-17	0.60341	0.75	1.471
Mof_Mg	Mg	0.5	0.10341	0.75	1.484
_end
