# CIF file generated by openbabel 3.1.0, see https://openbabel.org
data_I
_chemical_name_common 'image0'
_cell_length_a 37.726
_cell_length_b 37.726
_cell_length_c 37.726
_cell_angle_alpha 90
_cell_angle_beta 90
_cell_angle_gamma 90
_space_group_name_H-M_alt 'P 1'
_space_group_name_Hall 'P 1'
loop_
    _symmetry_equiv_pos_as_xyz
    x,y,z
loop_
    _atom_site_label
    _atom_site_type_symbol
    _atom_site_fract_x
    _atom_site_fract_y
    _atom_site_fract_z
    _atom_site_occupancy
    C1       C        0.35731    0.19494    0.33185    1.000
    C2       C        0.38382    0.22484    0.33887    1.000
    C3       C        0.43700    0.31480    0.38500    1.000
    C4       C        0.41850    0.28400    0.36710    1.000
    C5       C        0.42840    0.26800    0.33780    1.000
    C6       C        0.47290    0.31950    0.38130    1.000
    C7       C        0.48980    0.34220    0.40000    1.000
    C8       C        0.41260    0.24020    0.32550    1.000
    O1       O        0.52410    0.39880    0.43320    1.000
    C9       C        0.49470    0.38860    0.43700    1.000
    C10      C        0.47510    0.36810    0.42100    1.000
    C11      C        0.38650    0.25290    0.30720    1.000
    C12      C        0.42240    0.20950    0.34310    1.000
    C13      C        0.35190    0.29710    0.26890    1.000
    C14      C        0.42440    0.18050    0.37280    1.000
    C15      C        0.35731    0.69494    0.83185    1.000
    C16      C        0.38382    0.72484    0.83887    1.000
    C17      C        0.43700    0.81480    0.88500    1.000
    C18      C        0.41850    0.78400    0.86710    1.000
    C19      C        0.42840    0.76800    0.83780    1.000
    C20      C        0.47290    0.81950    0.88130    1.000
    C21      C        0.48980    0.84220    0.90000    1.000
    C22      C        0.41260    0.74020    0.82550    1.000
    O2       O        0.52410    0.89880    0.93320    1.000
    C23      C        0.49470    0.88860    0.93700    1.000
    C24      C        0.47510    0.86810    0.92100    1.000
    C25      C        0.38650    0.75290    0.80720    1.000
    C26      C        0.42240    0.70950    0.84310    1.000
    C27      C        0.35190    0.79710    0.76890    1.000
    C28      C        0.42440    0.68050    0.87280    1.000
    C29      C        0.85731    0.19494    0.83185    1.000
    C30      C        0.88382    0.22484    0.83887    1.000
    C31      C        0.93700    0.31480    0.88500    1.000
    C32      C        0.91850    0.28400    0.86710    1.000
    C33      C        0.92840    0.26800    0.83780    1.000
    C34      C        0.97290    0.31950    0.88130    1.000
    C35      C        0.98980    0.34220    0.90000    1.000
    C36      C        0.91260    0.24020    0.82550    1.000
    O3       O        0.02410    0.39880    0.93320    1.000
    C37      C        0.99470    0.38860    0.93700    1.000
    C38      C        0.97510    0.36810    0.92100    1.000
    C39      C        0.88650    0.25290    0.80720    1.000
    C40      C        0.92240    0.20950    0.84310    1.000
    C41      C        0.85190    0.29710    0.76890    1.000
    C42      C        0.92440    0.18050    0.87280    1.000
    C43      C        0.85731    0.69494    0.33185    1.000
    C44      C        0.88382    0.72484    0.33887    1.000
    C45      C        0.93700    0.81480    0.38500    1.000
    C46      C        0.91850    0.78400    0.36710    1.000
    C47      C        0.92840    0.76800    0.33780    1.000
    C48      C        0.97290    0.81950    0.38130    1.000
    C49      C        0.98980    0.84220    0.40000    1.000
    C50      C        0.91260    0.74020    0.32550    1.000
    O4       O        0.02410    0.89880    0.43320    1.000
    C51      C        0.99470    0.88860    0.43700    1.000
    C52      C        0.97510    0.86810    0.42100    1.000
    C53      C        0.88650    0.75290    0.30720    1.000
    C54      C        0.92240    0.70950    0.34310    1.000
    C55      C        0.85190    0.79710    0.26890    1.000
    C56      C        0.92440    0.68050    0.37280    1.000
    C57      C        0.64269    0.80506    0.33185    1.000
    C58      C        0.61618    0.77516    0.33887    1.000
    C59      C        0.56300    0.68520    0.38500    1.000
    C60      C        0.58150    0.71600    0.36710    1.000
    C61      C        0.57160    0.73200    0.33780    1.000
    C62      C        0.52710    0.68050    0.38130    1.000
    C63      C        0.51020    0.65780    0.40000    1.000
    C64      C        0.58740    0.75980    0.32550    1.000
    O5       O        0.47590    0.60120    0.43320    1.000
    C65      C        0.50530    0.61140    0.43700    1.000
    C66      C        0.52490    0.63190    0.42100    1.000
    C67      C        0.61350    0.74710    0.30720    1.000
    C68      C        0.57760    0.79050    0.34310    1.000
    C69      C        0.64810    0.70290    0.26890    1.000
    C70      C        0.57560    0.81950    0.37280    1.000
    C71      C        0.64269    0.30506    0.83185    1.000
    C72      C        0.61618    0.27516    0.83887    1.000
    C73      C        0.56300    0.18520    0.88500    1.000
    C74      C        0.58150    0.21600    0.86710    1.000
    C75      C        0.57160    0.23200    0.83780    1.000
    C76      C        0.52710    0.18050    0.88130    1.000
    C77      C        0.51020    0.15780    0.90000    1.000
    C78      C        0.58740    0.25980    0.82550    1.000
    O6       O        0.47590    0.10120    0.93320    1.000
    C79      C        0.50530    0.11140    0.93700    1.000
    C80      C        0.52490    0.13190    0.92100    1.000
    C81      C        0.61350    0.24710    0.80720    1.000
    C82      C        0.57760    0.29050    0.84310    1.000
    C83      C        0.64810    0.20290    0.76890    1.000
    C84      C        0.57560    0.31950    0.87280    1.000
    C85      C        0.14269    0.80506    0.83185    1.000
    C86      C        0.11618    0.77516    0.83887    1.000
    C87      C        0.06300    0.68520    0.88500    1.000
    C88      C        0.08150    0.71600    0.86710    1.000
    C89      C        0.07160    0.73200    0.83780    1.000
    C90      C        0.02710    0.68050    0.88130    1.000
    C91      C        0.01020    0.65780    0.90000    1.000
    C92      C        0.08740    0.75980    0.82550    1.000
    O7       O        0.97590    0.60120    0.93320    1.000
    C93      C        0.00530    0.61140    0.93700    1.000
    C94      C        0.02490    0.63190    0.92100    1.000
    C95      C        0.11350    0.74710    0.80720    1.000
    C96      C        0.07760    0.79050    0.84310    1.000
    C97      C        0.14810    0.70290    0.76890    1.000
    C98      C        0.07560    0.81950    0.87280    1.000
    C99      C        0.14269    0.30506    0.33185    1.000
    C100     C        0.11618    0.27516    0.33887    1.000
    C101     C        0.06300    0.18520    0.38500    1.000
    C102     C        0.08150    0.21600    0.36710    1.000
    C103     C        0.07160    0.23200    0.33780    1.000
    C104     C        0.02710    0.18050    0.38130    1.000
    C105     C        0.01020    0.15780    0.40000    1.000
    C106     C        0.08740    0.25980    0.32550    1.000
    O8       O        0.97590    0.10120    0.43320    1.000
    C107     C        0.00530    0.11140    0.43700    1.000
    C108     C        0.02490    0.13190    0.42100    1.000
    C109     C        0.11350    0.24710    0.30720    1.000
    C110     C        0.07760    0.29050    0.34310    1.000
    C111     C        0.14810    0.20290    0.26890    1.000
    C112     C        0.07560    0.31950    0.37280    1.000
    C113     C        0.64269    0.19494    0.66815    1.000
    C114     C        0.61618    0.22484    0.66113    1.000
    C115     C        0.56300    0.31480    0.61500    1.000
    C116     C        0.58150    0.28400    0.63290    1.000
    C117     C        0.57160    0.26800    0.66220    1.000
    C118     C        0.52710    0.31950    0.61870    1.000
    C119     C        0.51020    0.34220    0.60000    1.000
    C120     C        0.58740    0.24020    0.67450    1.000
    O9       O        0.47590    0.39880    0.56680    1.000
    C121     C        0.50530    0.38860    0.56300    1.000
    C122     C        0.52490    0.36810    0.57900    1.000
    C123     C        0.61350    0.25290    0.69280    1.000
    C124     C        0.57760    0.20950    0.65690    1.000
    C125     C        0.64810    0.29710    0.73110    1.000
    C126     C        0.57560    0.18050    0.62720    1.000
    C127     C        0.64269    0.69494    0.16815    1.000
    C128     C        0.61618    0.72484    0.16113    1.000
    C129     C        0.56300    0.81480    0.11500    1.000
    C130     C        0.58150    0.78400    0.13290    1.000
    C131     C        0.57160    0.76800    0.16220    1.000
    C132     C        0.52710    0.81950    0.11870    1.000
    C133     C        0.51020    0.84220    0.10000    1.000
    C134     C        0.58740    0.74020    0.17450    1.000
    O10      O        0.47590    0.89880    0.06680    1.000
    C135     C        0.50530    0.88860    0.06300    1.000
    C136     C        0.52490    0.86810    0.07900    1.000
    C137     C        0.61350    0.75290    0.19280    1.000
    C138     C        0.57760    0.70950    0.15690    1.000
    C139     C        0.64810    0.79710    0.23110    1.000
    C140     C        0.57560    0.68050    0.12720    1.000
    C141     C        0.14269    0.19494    0.16815    1.000
    C142     C        0.11618    0.22484    0.16113    1.000
    C143     C        0.06300    0.31480    0.11500    1.000
    C144     C        0.08150    0.28400    0.13290    1.000
    C145     C        0.07160    0.26800    0.16220    1.000
    C146     C        0.02710    0.31950    0.11870    1.000
    C147     C        0.01020    0.34220    0.10000    1.000
    C148     C        0.08740    0.24020    0.17450    1.000
    O11      O        0.97590    0.39880    0.06680    1.000
    C149     C        0.00530    0.38860    0.06300    1.000
    C150     C        0.02490    0.36810    0.07900    1.000
    C151     C        0.11350    0.25290    0.19280    1.000
    C152     C        0.07760    0.20950    0.15690    1.000
    C153     C        0.14810    0.29710    0.23110    1.000
    C154     C        0.07560    0.18050    0.12720    1.000
    C155     C        0.14269    0.69494    0.66815    1.000
    C156     C        0.11618    0.72484    0.66113    1.000
    C157     C        0.06300    0.81480    0.61500    1.000
    C158     C        0.08150    0.78400    0.63290    1.000
    C159     C        0.07160    0.76800    0.66220    1.000
    C160     C        0.02710    0.81950    0.61870    1.000
    C161     C        0.01020    0.84220    0.60000    1.000
    C162     C        0.08740    0.74020    0.67450    1.000
    O12      O        0.97590    0.89880    0.56680    1.000
    C163     C        0.00530    0.88860    0.56300    1.000
    C164     C        0.02490    0.86810    0.57900    1.000
    C165     C        0.11350    0.75290    0.69280    1.000
    C166     C        0.07760    0.70950    0.65690    1.000
    C167     C        0.14810    0.79710    0.73110    1.000
    C168     C        0.07560    0.68050    0.62720    1.000
    C169     C        0.35731    0.80506    0.66815    1.000
    C170     C        0.38382    0.77516    0.66113    1.000
    C171     C        0.43700    0.68520    0.61500    1.000
    C172     C        0.41850    0.71600    0.63290    1.000
    C173     C        0.42840    0.73200    0.66220    1.000
    C174     C        0.47290    0.68050    0.61870    1.000
    C175     C        0.48980    0.65780    0.60000    1.000
    C176     C        0.41260    0.75980    0.67450    1.000
    O13      O        0.52410    0.60120    0.56680    1.000
    C177     C        0.49470    0.61140    0.56300    1.000
    C178     C        0.47510    0.63190    0.57900    1.000
    C179     C        0.38650    0.74710    0.69280    1.000
    C180     C        0.42240    0.79050    0.65690    1.000
    C181     C        0.35190    0.70290    0.73110    1.000
    C182     C        0.42440    0.81950    0.62720    1.000
    C183     C        0.35731    0.30506    0.16815    1.000
    C184     C        0.38382    0.27516    0.16113    1.000
    C185     C        0.43700    0.18520    0.11500    1.000
    C186     C        0.41850    0.21600    0.13290    1.000
    C187     C        0.42840    0.23200    0.16220    1.000
    C188     C        0.47290    0.18050    0.11870    1.000
    C189     C        0.48980    0.15780    0.10000    1.000
    C190     C        0.41260    0.25980    0.17450    1.000
    O14      O        0.52410    0.10120    0.06680    1.000
    C191     C        0.49470    0.11140    0.06300    1.000
    C192     C        0.47510    0.13190    0.07900    1.000
    C193     C        0.38650    0.24710    0.19280    1.000
    C194     C        0.42240    0.29050    0.15690    1.000
    C195     C        0.35190    0.20290    0.23110    1.000
    C196     C        0.42440    0.31950    0.12720    1.000
    C197     C        0.85731    0.80506    0.16815    1.000
    C198     C        0.88382    0.77516    0.16113    1.000
    C199     C        0.93700    0.68520    0.11500    1.000
    C200     C        0.91850    0.71600    0.13290    1.000
    C201     C        0.92840    0.73200    0.16220    1.000
    C202     C        0.97290    0.68050    0.11870    1.000
    C203     C        0.98980    0.65780    0.10000    1.000
    C204     C        0.91260    0.75980    0.17450    1.000
    O15      O        0.02410    0.60120    0.06680    1.000
    C205     C        0.99470    0.61140    0.06300    1.000
    C206     C        0.97510    0.63190    0.07900    1.000
    C207     C        0.88650    0.74710    0.19280    1.000
    C208     C        0.92240    0.79050    0.15690    1.000
    C209     C        0.85190    0.70290    0.23110    1.000
    C210     C        0.92440    0.81950    0.12720    1.000
    C211     C        0.85731    0.30506    0.66815    1.000
    C212     C        0.88382    0.27516    0.66113    1.000
    C213     C        0.93700    0.18520    0.61500    1.000
    C214     C        0.91850    0.21600    0.63290    1.000
    C215     C        0.92840    0.23200    0.66220    1.000
    C216     C        0.97290    0.18050    0.61870    1.000
    C217     C        0.98980    0.15780    0.60000    1.000
    C218     C        0.91260    0.25980    0.67450    1.000
    O16      O        0.02410    0.10120    0.56680    1.000
    C219     C        0.99470    0.11140    0.56300    1.000
    C220     C        0.97510    0.13190    0.57900    1.000
    C221     C        0.88650    0.24710    0.69280    1.000
    C222     C        0.92240    0.29050    0.65690    1.000
    C223     C        0.85190    0.20290    0.73110    1.000
    C224     C        0.92440    0.31950    0.62720    1.000
    C225     C        0.33185    0.35731    0.19494    1.000
    C226     C        0.33887    0.38382    0.22484    1.000
    C227     C        0.38500    0.43700    0.31480    1.000
    C228     C        0.36710    0.41850    0.28400    1.000
    C229     C        0.33780    0.42840    0.26800    1.000
    C230     C        0.38130    0.47290    0.31950    1.000
    C231     C        0.40000    0.48980    0.34220    1.000
    C232     C        0.32550    0.41260    0.24020    1.000
    O17      O        0.43320    0.52410    0.39880    1.000
    C233     C        0.43700    0.49470    0.38860    1.000
    C234     C        0.42100    0.47510    0.36810    1.000
    C235     C        0.30720    0.38650    0.25290    1.000
    C236     C        0.34310    0.42240    0.20950    1.000
    C237     C        0.26890    0.35190    0.29710    1.000
    C238     C        0.37280    0.42440    0.18050    1.000
    C239     C        0.33185    0.85731    0.69494    1.000
    C240     C        0.33887    0.88382    0.72484    1.000
    C241     C        0.38500    0.93700    0.81480    1.000
    C242     C        0.36710    0.91850    0.78400    1.000
    C243     C        0.33780    0.92840    0.76800    1.000
    C244     C        0.38130    0.97290    0.81950    1.000
    C245     C        0.40000    0.98980    0.84220    1.000
    C246     C        0.32550    0.91260    0.74020    1.000
    O18      O        0.43320    0.02410    0.89880    1.000
    C247     C        0.43700    0.99470    0.88860    1.000
    C248     C        0.42100    0.97510    0.86810    1.000
    C249     C        0.30720    0.88650    0.75290    1.000
    C250     C        0.34310    0.92240    0.70950    1.000
    C251     C        0.26890    0.85190    0.79710    1.000
    C252     C        0.37280    0.92440    0.68050    1.000
    C253     C        0.83185    0.35731    0.69494    1.000
    C254     C        0.83887    0.38382    0.72484    1.000
    C255     C        0.88500    0.43700    0.81480    1.000
    C256     C        0.86710    0.41850    0.78400    1.000
    C257     C        0.83780    0.42840    0.76800    1.000
    C258     C        0.88130    0.47290    0.81950    1.000
    C259     C        0.90000    0.48980    0.84220    1.000
    C260     C        0.82550    0.41260    0.74020    1.000
    O19      O        0.93320    0.52410    0.89880    1.000
    C261     C        0.93700    0.49470    0.88860    1.000
    C262     C        0.92100    0.47510    0.86810    1.000
    C263     C        0.80720    0.38650    0.75290    1.000
    C264     C        0.84310    0.42240    0.70950    1.000
    C265     C        0.76890    0.35190    0.79710    1.000
    C266     C        0.87280    0.42440    0.68050    1.000
    C267     C        0.83185    0.85731    0.19494    1.000
    C268     C        0.83887    0.88382    0.22484    1.000
    C269     C        0.88500    0.93700    0.31480    1.000
    C270     C        0.86710    0.91850    0.28400    1.000
    C271     C        0.83780    0.92840    0.26800    1.000
    C272     C        0.88130    0.97290    0.31950    1.000
    C273     C        0.90000    0.98980    0.34220    1.000
    C274     C        0.82550    0.91260    0.24020    1.000
    O20      O        0.93320    0.02410    0.39880    1.000
    C275     C        0.93700    0.99470    0.38860    1.000
    C276     C        0.92100    0.97510    0.36810    1.000
    C277     C        0.80720    0.88650    0.25290    1.000
    C278     C        0.84310    0.92240    0.20950    1.000
    C279     C        0.76890    0.85190    0.29710    1.000
    C280     C        0.87280    0.92440    0.18050    1.000
    C281     C        0.33185    0.64269    0.80506    1.000
    C282     C        0.33887    0.61618    0.77516    1.000
    C283     C        0.38500    0.56300    0.68520    1.000
    C284     C        0.36710    0.58150    0.71600    1.000
    C285     C        0.33780    0.57160    0.73200    1.000
    C286     C        0.38130    0.52710    0.68050    1.000
    C287     C        0.40000    0.51020    0.65780    1.000
    C288     C        0.32550    0.58740    0.75980    1.000
    O21      O        0.43320    0.47590    0.60120    1.000
    C289     C        0.43700    0.50530    0.61140    1.000
    C290     C        0.42100    0.52490    0.63190    1.000
    C291     C        0.30720    0.61350    0.74710    1.000
    C292     C        0.34310    0.57760    0.79050    1.000
    C293     C        0.26890    0.64810    0.70290    1.000
    C294     C        0.37280    0.57560    0.81950    1.000
    C295     C        0.33185    0.14269    0.30506    1.000
    C296     C        0.33887    0.11618    0.27516    1.000
    C297     C        0.38500    0.06300    0.18520    1.000
    C298     C        0.36710    0.08150    0.21600    1.000
    C299     C        0.33780    0.07160    0.23200    1.000
    C300     C        0.38130    0.02710    0.18050    1.000
    C301     C        0.40000    0.01020    0.15780    1.000
    C302     C        0.32550    0.08740    0.25980    1.000
    O22      O        0.43320    0.97590    0.10120    1.000
    C303     C        0.43700    0.00530    0.11140    1.000
    C304     C        0.42100    0.02490    0.13190    1.000
    C305     C        0.30720    0.11350    0.24710    1.000
    C306     C        0.34310    0.07760    0.29050    1.000
    C307     C        0.26890    0.14810    0.20290    1.000
    C308     C        0.37280    0.07560    0.31950    1.000
    C309     C        0.83185    0.64269    0.30506    1.000
    C310     C        0.83887    0.61618    0.27516    1.000
    C311     C        0.88500    0.56300    0.18520    1.000
    C312     C        0.86710    0.58150    0.21600    1.000
    C313     C        0.83780    0.57160    0.23200    1.000
    C314     C        0.88130    0.52710    0.18050    1.000
    C315     C        0.90000    0.51020    0.15780    1.000
    C316     C        0.82550    0.58740    0.25980    1.000
    O23      O        0.93320    0.47590    0.10120    1.000
    C317     C        0.93700    0.50530    0.11140    1.000
    C318     C        0.92100    0.52490    0.13190    1.000
    C319     C        0.80720    0.61350    0.24710    1.000
    C320     C        0.84310    0.57760    0.29050    1.000
    C321     C        0.76890    0.64810    0.20290    1.000
    C322     C        0.87280    0.57560    0.31950    1.000
    C323     C        0.83185    0.14269    0.80506    1.000
    C324     C        0.83887    0.11618    0.77516    1.000
    C325     C        0.88500    0.06300    0.68520    1.000
    C326     C        0.86710    0.08150    0.71600    1.000
    C327     C        0.83780    0.07160    0.73200    1.000
    C328     C        0.88130    0.02710    0.68050    1.000
    C329     C        0.90000    0.01020    0.65780    1.000
    C330     C        0.82550    0.08740    0.75980    1.000
    O24      O        0.93320    0.97590    0.60120    1.000
    C331     C        0.93700    0.00530    0.61140    1.000
    C332     C        0.92100    0.02490    0.63190    1.000
    C333     C        0.80720    0.11350    0.74710    1.000
    C334     C        0.84310    0.07760    0.79050    1.000
    C335     C        0.76890    0.14810    0.70290    1.000
    C336     C        0.87280    0.07560    0.81950    1.000
    C337     C        0.66815    0.64269    0.19494    1.000
    C338     C        0.66113    0.61618    0.22484    1.000
    C339     C        0.61500    0.56300    0.31480    1.000
    C340     C        0.63290    0.58150    0.28400    1.000
    C341     C        0.66220    0.57160    0.26800    1.000
    C342     C        0.61870    0.52710    0.31950    1.000
    C343     C        0.60000    0.51020    0.34220    1.000
    C344     C        0.67450    0.58740    0.24020    1.000
    O25      O        0.56680    0.47590    0.39880    1.000
    C345     C        0.56300    0.50530    0.38860    1.000
    C346     C        0.57900    0.52490    0.36810    1.000
    C347     C        0.69280    0.61350    0.25290    1.000
    C348     C        0.65690    0.57760    0.20950    1.000
    C349     C        0.73110    0.64810    0.29710    1.000
    C350     C        0.62720    0.57560    0.18050    1.000
    C351     C        0.66815    0.14269    0.69494    1.000
    C352     C        0.66113    0.11618    0.72484    1.000
    C353     C        0.61500    0.06300    0.81480    1.000
    C354     C        0.63290    0.08150    0.78400    1.000
    C355     C        0.66220    0.07160    0.76800    1.000
    C356     C        0.61870    0.02710    0.81950    1.000
    C357     C        0.60000    0.01020    0.84220    1.000
    C358     C        0.67450    0.08740    0.74020    1.000
    O26      O        0.56680    0.97590    0.89880    1.000
    C359     C        0.56300    0.00530    0.88860    1.000
    C360     C        0.57900    0.02490    0.86810    1.000
    C361     C        0.69280    0.11350    0.75290    1.000
    C362     C        0.65690    0.07760    0.70950    1.000
    C363     C        0.73110    0.14810    0.79710    1.000
    C364     C        0.62720    0.07560    0.68050    1.000
    C365     C        0.16815    0.64269    0.69494    1.000
    C366     C        0.16113    0.61618    0.72484    1.000
    C367     C        0.11500    0.56300    0.81480    1.000
    C368     C        0.13290    0.58150    0.78400    1.000
    C369     C        0.16220    0.57160    0.76800    1.000
    C370     C        0.11870    0.52710    0.81950    1.000
    C371     C        0.10000    0.51020    0.84220    1.000
    C372     C        0.17450    0.58740    0.74020    1.000
    O27      O        0.06680    0.47590    0.89880    1.000
    C373     C        0.06300    0.50530    0.88860    1.000
    C374     C        0.07900    0.52490    0.86810    1.000
    C375     C        0.19280    0.61350    0.75290    1.000
    C376     C        0.15690    0.57760    0.70950    1.000
    C377     C        0.23110    0.64810    0.79710    1.000
    C378     C        0.12720    0.57560    0.68050    1.000
    C379     C        0.16815    0.14269    0.19494    1.000
    C380     C        0.16113    0.11618    0.22484    1.000
    C381     C        0.11500    0.06300    0.31480    1.000
    C382     C        0.13290    0.08150    0.28400    1.000
    C383     C        0.16220    0.07160    0.26800    1.000
    C384     C        0.11870    0.02710    0.31950    1.000
    C385     C        0.10000    0.01020    0.34220    1.000
    C386     C        0.17450    0.08740    0.24020    1.000
    O28      O        0.06680    0.97590    0.39880    1.000
    C387     C        0.06300    0.00530    0.38860    1.000
    C388     C        0.07900    0.02490    0.36810    1.000
    C389     C        0.19280    0.11350    0.25290    1.000
    C390     C        0.15690    0.07760    0.20950    1.000
    C391     C        0.23110    0.14810    0.29710    1.000
    C392     C        0.12720    0.07560    0.18050    1.000
    C393     C        0.66815    0.35731    0.80506    1.000
    C394     C        0.66113    0.38382    0.77516    1.000
    C395     C        0.61500    0.43700    0.68520    1.000
    C396     C        0.63290    0.41850    0.71600    1.000
    C397     C        0.66220    0.42840    0.73200    1.000
    C398     C        0.61870    0.47290    0.68050    1.000
    C399     C        0.60000    0.48980    0.65780    1.000
    C400     C        0.67450    0.41260    0.75980    1.000
    O29      O        0.56680    0.52410    0.60120    1.000
    C401     C        0.56300    0.49470    0.61140    1.000
    C402     C        0.57900    0.47510    0.63190    1.000
    C403     C        0.69280    0.38650    0.74710    1.000
    C404     C        0.65690    0.42240    0.79050    1.000
    C405     C        0.73110    0.35190    0.70290    1.000
    C406     C        0.62720    0.42440    0.81950    1.000
    C407     C        0.66815    0.85731    0.30506    1.000
    C408     C        0.66113    0.88382    0.27516    1.000
    C409     C        0.61500    0.93700    0.18520    1.000
    C410     C        0.63290    0.91850    0.21600    1.000
    C411     C        0.66220    0.92840    0.23200    1.000
    C412     C        0.61870    0.97290    0.18050    1.000
    C413     C        0.60000    0.98980    0.15780    1.000
    C414     C        0.67450    0.91260    0.25980    1.000
    O30      O        0.56680    0.02410    0.10120    1.000
    C415     C        0.56300    0.99470    0.11140    1.000
    C416     C        0.57900    0.97510    0.13190    1.000
    C417     C        0.69280    0.88650    0.24710    1.000
    C418     C        0.65690    0.92240    0.29050    1.000
    C419     C        0.73110    0.85190    0.20290    1.000
    C420     C        0.62720    0.92440    0.31950    1.000
    C421     C        0.16815    0.35731    0.30506    1.000
    C422     C        0.16113    0.38382    0.27516    1.000
    C423     C        0.11500    0.43700    0.18520    1.000
    C424     C        0.13290    0.41850    0.21600    1.000
    C425     C        0.16220    0.42840    0.23200    1.000
    C426     C        0.11870    0.47290    0.18050    1.000
    C427     C        0.10000    0.48980    0.15780    1.000
    C428     C        0.17450    0.41260    0.25980    1.000
    O31      O        0.06680    0.52410    0.10120    1.000
    C429     C        0.06300    0.49470    0.11140    1.000
    C430     C        0.07900    0.47510    0.13190    1.000
    C431     C        0.19280    0.38650    0.24710    1.000
    C432     C        0.15690    0.42240    0.29050    1.000
    C433     C        0.23110    0.35190    0.20290    1.000
    C434     C        0.12720    0.42440    0.31950    1.000
    C435     C        0.16815    0.85731    0.80506    1.000
    C436     C        0.16113    0.88382    0.77516    1.000
    C437     C        0.11500    0.93700    0.68520    1.000
    C438     C        0.13290    0.91850    0.71600    1.000
    C439     C        0.16220    0.92840    0.73200    1.000
    C440     C        0.11870    0.97290    0.68050    1.000
    C441     C        0.10000    0.98980    0.65780    1.000
    C442     C        0.17450    0.91260    0.75980    1.000
    O32      O        0.06680    0.02410    0.60120    1.000
    C443     C        0.06300    0.99470    0.61140    1.000
    C444     C        0.07900    0.97510    0.63190    1.000
    C445     C        0.19280    0.88650    0.74710    1.000
    C446     C        0.15690    0.92240    0.79050    1.000
    C447     C        0.23110    0.85190    0.70290    1.000
    C448     C        0.12720    0.92440    0.81950    1.000
    C449     C        0.19494    0.33185    0.35731    1.000
    C450     C        0.22484    0.33887    0.38382    1.000
    C451     C        0.31480    0.38500    0.43700    1.000
    C452     C        0.28400    0.36710    0.41850    1.000
    C453     C        0.26800    0.33780    0.42840    1.000
    C454     C        0.31950    0.38130    0.47290    1.000
    C455     C        0.34220    0.40000    0.48980    1.000
    C456     C        0.24020    0.32550    0.41260    1.000
    O33      O        0.39880    0.43320    0.52410    1.000
    C457     C        0.38860    0.43700    0.49470    1.000
    C458     C        0.36810    0.42100    0.47510    1.000
    C459     C        0.25290    0.30720    0.38650    1.000
    C460     C        0.20950    0.34310    0.42240    1.000
    C461     C        0.29710    0.26890    0.35190    1.000
    C462     C        0.18050    0.37280    0.42440    1.000
    C463     C        0.19494    0.83185    0.85731    1.000
    C464     C        0.22484    0.83887    0.88382    1.000
    C465     C        0.31480    0.88500    0.93700    1.000
    C466     C        0.28400    0.86710    0.91850    1.000
    C467     C        0.26800    0.83780    0.92840    1.000
    C468     C        0.31950    0.88130    0.97290    1.000
    C469     C        0.34220    0.90000    0.98980    1.000
    C470     C        0.24020    0.82550    0.91260    1.000
    O34      O        0.39880    0.93320    0.02410    1.000
    C471     C        0.38860    0.93700    0.99470    1.000
    C472     C        0.36810    0.92100    0.97510    1.000
    C473     C        0.25290    0.80720    0.88650    1.000
    C474     C        0.20950    0.84310    0.92240    1.000
    C475     C        0.29710    0.76890    0.85190    1.000
    C476     C        0.18050    0.87280    0.92440    1.000
    C477     C        0.69494    0.33185    0.85731    1.000
    C478     C        0.72484    0.33887    0.88382    1.000
    C479     C        0.81480    0.38500    0.93700    1.000
    C480     C        0.78400    0.36710    0.91850    1.000
    C481     C        0.76800    0.33780    0.92840    1.000
    C482     C        0.81950    0.38130    0.97290    1.000
    C483     C        0.84220    0.40000    0.98980    1.000
    C484     C        0.74020    0.32550    0.91260    1.000
    O35      O        0.89880    0.43320    0.02410    1.000
    C485     C        0.88860    0.43700    0.99470    1.000
    C486     C        0.86810    0.42100    0.97510    1.000
    C487     C        0.75290    0.30720    0.88650    1.000
    C488     C        0.70950    0.34310    0.92240    1.000
    C489     C        0.79710    0.26890    0.85190    1.000
    C490     C        0.68050    0.37280    0.92440    1.000
    C491     C        0.69494    0.83185    0.35731    1.000
    C492     C        0.72484    0.83887    0.38382    1.000
    C493     C        0.81480    0.88500    0.43700    1.000
    C494     C        0.78400    0.86710    0.41850    1.000
    C495     C        0.76800    0.83780    0.42840    1.000
    C496     C        0.81950    0.88130    0.47290    1.000
    C497     C        0.84220    0.90000    0.48980    1.000
    C498     C        0.74020    0.82550    0.41260    1.000
    O36      O        0.89880    0.93320    0.52410    1.000
    C499     C        0.88860    0.93700    0.49470    1.000
    C500     C        0.86810    0.92100    0.47510    1.000
    C501     C        0.75290    0.80720    0.38650    1.000
    C502     C        0.70950    0.84310    0.42240    1.000
    C503     C        0.79710    0.76890    0.35190    1.000
    C504     C        0.68050    0.87280    0.42440    1.000
    C505     C        0.80506    0.33185    0.64269    1.000
    C506     C        0.77516    0.33887    0.61618    1.000
    C507     C        0.68520    0.38500    0.56300    1.000
    C508     C        0.71600    0.36710    0.58150    1.000
    C509     C        0.73200    0.33780    0.57160    1.000
    C510     C        0.68050    0.38130    0.52710    1.000
    C511     C        0.65780    0.40000    0.51020    1.000
    C512     C        0.75980    0.32550    0.58740    1.000
    O37      O        0.60120    0.43320    0.47590    1.000
    C513     C        0.61140    0.43700    0.50530    1.000
    C514     C        0.63190    0.42100    0.52490    1.000
    C515     C        0.74710    0.30720    0.61350    1.000
    C516     C        0.79050    0.34310    0.57760    1.000
    C517     C        0.70290    0.26890    0.64810    1.000
    C518     C        0.81950    0.37280    0.57560    1.000
    C519     C        0.80506    0.83185    0.14269    1.000
    C520     C        0.77516    0.83887    0.11618    1.000
    C521     C        0.68520    0.88500    0.06300    1.000
    C522     C        0.71600    0.86710    0.08150    1.000
    C523     C        0.73200    0.83780    0.07160    1.000
    C524     C        0.68050    0.88130    0.02710    1.000
    C525     C        0.65780    0.90000    0.01020    1.000
    C526     C        0.75980    0.82550    0.08740    1.000
    O38      O        0.60120    0.93320    0.97590    1.000
    C527     C        0.61140    0.93700    0.00530    1.000
    C528     C        0.63190    0.92100    0.02490    1.000
    C529     C        0.74710    0.80720    0.11350    1.000
    C530     C        0.79050    0.84310    0.07760    1.000
    C531     C        0.70290    0.76890    0.14810    1.000
    C532     C        0.81950    0.87280    0.07560    1.000
    C533     C        0.30506    0.33185    0.14269    1.000
    C534     C        0.27516    0.33887    0.11618    1.000
    C535     C        0.18520    0.38500    0.06300    1.000
    C536     C        0.21600    0.36710    0.08150    1.000
    C537     C        0.23200    0.33780    0.07160    1.000
    C538     C        0.18050    0.38130    0.02710    1.000
    C539     C        0.15780    0.40000    0.01020    1.000
    C540     C        0.25980    0.32550    0.08740    1.000
    O39      O        0.10120    0.43320    0.97590    1.000
    C541     C        0.11140    0.43700    0.00530    1.000
    C542     C        0.13190    0.42100    0.02490    1.000
    C543     C        0.24710    0.30720    0.11350    1.000
    C544     C        0.29050    0.34310    0.07760    1.000
    C545     C        0.20290    0.26890    0.14810    1.000
    C546     C        0.31950    0.37280    0.07560    1.000
    C547     C        0.30506    0.83185    0.64269    1.000
    C548     C        0.27516    0.83887    0.61618    1.000
    C549     C        0.18520    0.88500    0.56300    1.000
    C550     C        0.21600    0.86710    0.58150    1.000
    C551     C        0.23200    0.83780    0.57160    1.000
    C552     C        0.18050    0.88130    0.52710    1.000
    C553     C        0.15780    0.90000    0.51020    1.000
    C554     C        0.25980    0.82550    0.58740    1.000
    O40      O        0.10120    0.93320    0.47590    1.000
    C555     C        0.11140    0.93700    0.50530    1.000
    C556     C        0.13190    0.92100    0.52490    1.000
    C557     C        0.24710    0.80720    0.61350    1.000
    C558     C        0.29050    0.84310    0.57760    1.000
    C559     C        0.20290    0.76890    0.64810    1.000
    C560     C        0.31950    0.87280    0.57560    1.000
    C561     C        0.19494    0.66815    0.64269    1.000
    C562     C        0.22484    0.66113    0.61618    1.000
    C563     C        0.31480    0.61500    0.56300    1.000
    C564     C        0.28400    0.63290    0.58150    1.000
    C565     C        0.26800    0.66220    0.57160    1.000
    C566     C        0.31950    0.61870    0.52710    1.000
    C567     C        0.34220    0.60000    0.51020    1.000
    C568     C        0.24020    0.67450    0.58740    1.000
    O41      O        0.39880    0.56680    0.47590    1.000
    C569     C        0.38860    0.56300    0.50530    1.000
    C570     C        0.36810    0.57900    0.52490    1.000
    C571     C        0.25290    0.69280    0.61350    1.000
    C572     C        0.20950    0.65690    0.57760    1.000
    C573     C        0.29710    0.73110    0.64810    1.000
    C574     C        0.18050    0.62720    0.57560    1.000
    C575     C        0.19494    0.16815    0.14269    1.000
    C576     C        0.22484    0.16113    0.11618    1.000
    C577     C        0.31480    0.11500    0.06300    1.000
    C578     C        0.28400    0.13290    0.08150    1.000
    C579     C        0.26800    0.16220    0.07160    1.000
    C580     C        0.31950    0.11870    0.02710    1.000
    C581     C        0.34220    0.10000    0.01020    1.000
    C582     C        0.24020    0.17450    0.08740    1.000
    O42      O        0.39880    0.06680    0.97590    1.000
    C583     C        0.38860    0.06300    0.00530    1.000
    C584     C        0.36810    0.07900    0.02490    1.000
    C585     C        0.25290    0.19280    0.11350    1.000
    C586     C        0.20950    0.15690    0.07760    1.000
    C587     C        0.29710    0.23110    0.14810    1.000
    C588     C        0.18050    0.12720    0.07560    1.000
    C589     C        0.69494    0.66815    0.14269    1.000
    C590     C        0.72484    0.66113    0.11618    1.000
    C591     C        0.81480    0.61500    0.06300    1.000
    C592     C        0.78400    0.63290    0.08150    1.000
    C593     C        0.76800    0.66220    0.07160    1.000
    C594     C        0.81950    0.61870    0.02710    1.000
    C595     C        0.84220    0.60000    0.01020    1.000
    C596     C        0.74020    0.67450    0.08740    1.000
    O43      O        0.89880    0.56680    0.97590    1.000
    C597     C        0.88860    0.56300    0.00530    1.000
    C598     C        0.86810    0.57900    0.02490    1.000
    C599     C        0.75290    0.69280    0.11350    1.000
    C600     C        0.70950    0.65690    0.07760    1.000
    C601     C        0.79710    0.73110    0.14810    1.000
    C602     C        0.68050    0.62720    0.07560    1.000
    C603     C        0.69494    0.16815    0.64269    1.000
    C604     C        0.72484    0.16113    0.61618    1.000
    C605     C        0.81480    0.11500    0.56300    1.000
    C606     C        0.78400    0.13290    0.58150    1.000
    C607     C        0.76800    0.16220    0.57160    1.000
    C608     C        0.81950    0.11870    0.52710    1.000
    C609     C        0.84220    0.10000    0.51020    1.000
    C610     C        0.74020    0.17450    0.58740    1.000
    O44      O        0.89880    0.06680    0.47590    1.000
    C611     C        0.88860    0.06300    0.50530    1.000
    C612     C        0.86810    0.07900    0.52490    1.000
    C613     C        0.75290    0.19280    0.61350    1.000
    C614     C        0.70950    0.15690    0.57760    1.000
    C615     C        0.79710    0.23110    0.64810    1.000
    C616     C        0.68050    0.12720    0.57560    1.000
    C617     C        0.80506    0.66815    0.35731    1.000
    C618     C        0.77516    0.66113    0.38382    1.000
    C619     C        0.68520    0.61500    0.43700    1.000
    C620     C        0.71600    0.63290    0.41850    1.000
    C621     C        0.73200    0.66220    0.42840    1.000
    C622     C        0.68050    0.61870    0.47290    1.000
    C623     C        0.65780    0.60000    0.48980    1.000
    C624     C        0.75980    0.67450    0.41260    1.000
    O45      O        0.60120    0.56680    0.52410    1.000
    C625     C        0.61140    0.56300    0.49470    1.000
    C626     C        0.63190    0.57900    0.47510    1.000
    C627     C        0.74710    0.69280    0.38650    1.000
    C628     C        0.79050    0.65690    0.42240    1.000
    C629     C        0.70290    0.73110    0.35190    1.000
    C630     C        0.81950    0.62720    0.42440    1.000
    C631     C        0.80506    0.16815    0.85731    1.000
    C632     C        0.77516    0.16113    0.88382    1.000
    C633     C        0.68520    0.11500    0.93700    1.000
    C634     C        0.71600    0.13290    0.91850    1.000
    C635     C        0.73200    0.16220    0.92840    1.000
    C636     C        0.68050    0.11870    0.97290    1.000
    C637     C        0.65780    0.10000    0.98980    1.000
    C638     C        0.75980    0.17450    0.91260    1.000
    O46      O        0.60120    0.06680    0.02410    1.000
    C639     C        0.61140    0.06300    0.99470    1.000
    C640     C        0.63190    0.07900    0.97510    1.000
    C641     C        0.74710    0.19280    0.88650    1.000
    C642     C        0.79050    0.15690    0.92240    1.000
    C643     C        0.70290    0.23110    0.85190    1.000
    C644     C        0.81950    0.12720    0.92440    1.000
    C645     C        0.30506    0.66815    0.85731    1.000
    C646     C        0.27516    0.66113    0.88382    1.000
    C647     C        0.18520    0.61500    0.93700    1.000
    C648     C        0.21600    0.63290    0.91850    1.000
    C649     C        0.23200    0.66220    0.92840    1.000
    C650     C        0.18050    0.61870    0.97290    1.000
    C651     C        0.15780    0.60000    0.98980    1.000
    C652     C        0.25980    0.67450    0.91260    1.000
    O47      O        0.10120    0.56680    0.02410    1.000
    C653     C        0.11140    0.56300    0.99470    1.000
    C654     C        0.13190    0.57900    0.97510    1.000
    C655     C        0.24710    0.69280    0.88650    1.000
    C656     C        0.29050    0.65690    0.92240    1.000
    C657     C        0.20290    0.73110    0.85190    1.000
    C658     C        0.31950    0.62720    0.92440    1.000
    C659     C        0.30506    0.16815    0.35731    1.000
    C660     C        0.27516    0.16113    0.38382    1.000
    C661     C        0.18520    0.11500    0.43700    1.000
    C662     C        0.21600    0.13290    0.41850    1.000
    C663     C        0.23200    0.16220    0.42840    1.000
    C664     C        0.18050    0.11870    0.47290    1.000
    C665     C        0.15780    0.10000    0.48980    1.000
    C666     C        0.25980    0.17450    0.41260    1.000
    O48      O        0.10120    0.06680    0.52410    1.000
    C667     C        0.11140    0.06300    0.49470    1.000
    C668     C        0.13190    0.07900    0.47510    1.000
    C669     C        0.24710    0.19280    0.38650    1.000
    C670     C        0.29050    0.15690    0.42240    1.000
    C671     C        0.20290    0.23110    0.35190    1.000
    C672     C        0.31950    0.12720    0.42440    1.000
    C673     C        0.19494    0.35731    0.33185    1.000
    C674     C        0.22484    0.38382    0.33887    1.000
    C675     C        0.31480    0.43700    0.38500    1.000
    C676     C        0.28400    0.41850    0.36710    1.000
    C677     C        0.26800    0.42840    0.33780    1.000
    C678     C        0.31950    0.47290    0.38130    1.000
    C679     C        0.34220    0.48980    0.40000    1.000
    C680     C        0.24020    0.41260    0.32550    1.000
    O49      O        0.39880    0.52410    0.43320    1.000
    C681     C        0.38860    0.49470    0.43700    1.000
    C682     C        0.36810    0.47510    0.42100    1.000
    C683     C        0.25290    0.38650    0.30720    1.000
    C684     C        0.20950    0.42240    0.34310    1.000
    C685     C        0.29710    0.35190    0.26890    1.000
    C686     C        0.18050    0.42440    0.37280    1.000
    C687     C        0.19494    0.85731    0.83185    1.000
    C688     C        0.22484    0.88382    0.83887    1.000
    C689     C        0.31480    0.93700    0.88500    1.000
    C690     C        0.28400    0.91850    0.86710    1.000
    C691     C        0.26800    0.92840    0.83780    1.000
    C692     C        0.31950    0.97290    0.88130    1.000
    C693     C        0.34220    0.98980    0.90000    1.000
    C694     C        0.24020    0.91260    0.82550    1.000
    O50      O        0.39880    0.02410    0.93320    1.000
    C695     C        0.38860    0.99470    0.93700    1.000
    C696     C        0.36810    0.97510    0.92100    1.000
    C697     C        0.25290    0.88650    0.80720    1.000
    C698     C        0.20950    0.92240    0.84310    1.000
    C699     C        0.29710    0.85190    0.76890    1.000
    C700     C        0.18050    0.92440    0.87280    1.000
    C701     C        0.69494    0.35731    0.83185    1.000
    C702     C        0.72484    0.38382    0.83887    1.000
    C703     C        0.81480    0.43700    0.88500    1.000
    C704     C        0.78400    0.41850    0.86710    1.000
    C705     C        0.76800    0.42840    0.83780    1.000
    C706     C        0.81950    0.47290    0.88130    1.000
    C707     C        0.84220    0.48980    0.90000    1.000
    C708     C        0.74020    0.41260    0.82550    1.000
    O51      O        0.89880    0.52410    0.93320    1.000
    C709     C        0.88860    0.49470    0.93700    1.000
    C710     C        0.86810    0.47510    0.92100    1.000
    C711     C        0.75290    0.38650    0.80720    1.000
    C712     C        0.70950    0.42240    0.84310    1.000
    C713     C        0.79710    0.35190    0.76890    1.000
    C714     C        0.68050    0.42440    0.87280    1.000
    C715     C        0.69494    0.85731    0.33185    1.000
    C716     C        0.72484    0.88382    0.33887    1.000
    C717     C        0.81480    0.93700    0.38500    1.000
    C718     C        0.78400    0.91850    0.36710    1.000
    C719     C        0.76800    0.92840    0.33780    1.000
    C720     C        0.81950    0.97290    0.38130    1.000
    C721     C        0.84220    0.98980    0.40000    1.000
    C722     C        0.74020    0.91260    0.32550    1.000
    O52      O        0.89880    0.02410    0.43320    1.000
    C723     C        0.88860    0.99470    0.43700    1.000
    C724     C        0.86810    0.97510    0.42100    1.000
    C725     C        0.75290    0.88650    0.30720    1.000
    C726     C        0.70950    0.92240    0.34310    1.000
    C727     C        0.79710    0.85190    0.26890    1.000
    C728     C        0.68050    0.92440    0.37280    1.000
    C729     C        0.80506    0.64269    0.33185    1.000
    C730     C        0.77516    0.61618    0.33887    1.000
    C731     C        0.68520    0.56300    0.38500    1.000
    C732     C        0.71600    0.58150    0.36710    1.000
    C733     C        0.73200    0.57160    0.33780    1.000
    C734     C        0.68050    0.52710    0.38130    1.000
    C735     C        0.65780    0.51020    0.40000    1.000
    C736     C        0.75980    0.58740    0.32550    1.000
    O53      O        0.60120    0.47590    0.43320    1.000
    C737     C        0.61140    0.50530    0.43700    1.000
    C738     C        0.63190    0.52490    0.42100    1.000
    C739     C        0.74710    0.61350    0.30720    1.000
    C740     C        0.79050    0.57760    0.34310    1.000
    C741     C        0.70290    0.64810    0.26890    1.000
    C742     C        0.81950    0.57560    0.37280    1.000
    C743     C        0.80506    0.14269    0.83185    1.000
    C744     C        0.77516    0.11618    0.83887    1.000
    C745     C        0.68520    0.06300    0.88500    1.000
    C746     C        0.71600    0.08150    0.86710    1.000
    C747     C        0.73200    0.07160    0.83780    1.000
    C748     C        0.68050    0.02710    0.88130    1.000
    C749     C        0.65780    0.01020    0.90000    1.000
    C750     C        0.75980    0.08740    0.82550    1.000
    O54      O        0.60120    0.97590    0.93320    1.000
    C751     C        0.61140    0.00530    0.93700    1.000
    C752     C        0.63190    0.02490    0.92100    1.000
    C753     C        0.74710    0.11350    0.80720    1.000
    C754     C        0.79050    0.07760    0.84310    1.000
    C755     C        0.70290    0.14810    0.76890    1.000
    C756     C        0.81950    0.07560    0.87280    1.000
    C757     C        0.30506    0.64269    0.83185    1.000
    C758     C        0.27516    0.61618    0.83887    1.000
    C759     C        0.18520    0.56300    0.88500    1.000
    C760     C        0.21600    0.58150    0.86710    1.000
    C761     C        0.23200    0.57160    0.83780    1.000
    C762     C        0.18050    0.52710    0.88130    1.000
    C763     C        0.15780    0.51020    0.90000    1.000
    C764     C        0.25980    0.58740    0.82550    1.000
    O55      O        0.10120    0.47590    0.93320    1.000
    C765     C        0.11140    0.50530    0.93700    1.000
    C766     C        0.13190    0.52490    0.92100    1.000
    C767     C        0.24710    0.61350    0.80720    1.000
    C768     C        0.29050    0.57760    0.84310    1.000
    C769     C        0.20290    0.64810    0.76890    1.000
    C770     C        0.31950    0.57560    0.87280    1.000
    C771     C        0.30506    0.14269    0.33185    1.000
    C772     C        0.27516    0.11618    0.33887    1.000
    C773     C        0.18520    0.06300    0.38500    1.000
    C774     C        0.21600    0.08150    0.36710    1.000
    C775     C        0.23200    0.07160    0.33780    1.000
    C776     C        0.18050    0.02710    0.38130    1.000
    C777     C        0.15780    0.01020    0.40000    1.000
    C778     C        0.25980    0.08740    0.32550    1.000
    O56      O        0.10120    0.97590    0.43320    1.000
    C779     C        0.11140    0.00530    0.43700    1.000
    C780     C        0.13190    0.02490    0.42100    1.000
    C781     C        0.24710    0.11350    0.30720    1.000
    C782     C        0.29050    0.07760    0.34310    1.000
    C783     C        0.20290    0.14810    0.26890    1.000
    C784     C        0.31950    0.07560    0.37280    1.000
    C785     C        0.19494    0.64269    0.66815    1.000
    C786     C        0.22484    0.61618    0.66113    1.000
    C787     C        0.31480    0.56300    0.61500    1.000
    C788     C        0.28400    0.58150    0.63290    1.000
    C789     C        0.26800    0.57160    0.66220    1.000
    C790     C        0.31950    0.52710    0.61870    1.000
    C791     C        0.34220    0.51020    0.60000    1.000
    C792     C        0.24020    0.58740    0.67450    1.000
    O57      O        0.39880    0.47590    0.56680    1.000
    C793     C        0.38860    0.50530    0.56300    1.000
    C794     C        0.36810    0.52490    0.57900    1.000
    C795     C        0.25290    0.61350    0.69280    1.000
    C796     C        0.20950    0.57760    0.65690    1.000
    C797     C        0.29710    0.64810    0.73110    1.000
    C798     C        0.18050    0.57560    0.62720    1.000
    C799     C        0.19494    0.14269    0.16815    1.000
    C800     C        0.22484    0.11618    0.16113    1.000
    C801     C        0.31480    0.06300    0.11500    1.000
    C802     C        0.28400    0.08150    0.13290    1.000
    C803     C        0.26800    0.07160    0.16220    1.000
    C804     C        0.31950    0.02710    0.11870    1.000
    C805     C        0.34220    0.01020    0.10000    1.000
    C806     C        0.24020    0.08740    0.17450    1.000
    O58      O        0.39880    0.97590    0.06680    1.000
    C807     C        0.38860    0.00530    0.06300    1.000
    C808     C        0.36810    0.02490    0.07900    1.000
    C809     C        0.25290    0.11350    0.19280    1.000
    C810     C        0.20950    0.07760    0.15690    1.000
    C811     C        0.29710    0.14810    0.23110    1.000
    C812     C        0.18050    0.07560    0.12720    1.000
    C813     C        0.69494    0.64269    0.16815    1.000
    C814     C        0.72484    0.61618    0.16113    1.000
    C815     C        0.81480    0.56300    0.11500    1.000
    C816     C        0.78400    0.58150    0.13290    1.000
    C817     C        0.76800    0.57160    0.16220    1.000
    C818     C        0.81950    0.52710    0.11870    1.000
    C819     C        0.84220    0.51020    0.10000    1.000
    C820     C        0.74020    0.58740    0.17450    1.000
    O59      O        0.89880    0.47590    0.06680    1.000
    C821     C        0.88860    0.50530    0.06300    1.000
    C822     C        0.86810    0.52490    0.07900    1.000
    C823     C        0.75290    0.61350    0.19280    1.000
    C824     C        0.70950    0.57760    0.15690    1.000
    C825     C        0.79710    0.64810    0.23110    1.000
    C826     C        0.68050    0.57560    0.12720    1.000
    C827     C        0.69494    0.14269    0.66815    1.000
    C828     C        0.72484    0.11618    0.66113    1.000
    C829     C        0.81480    0.06300    0.61500    1.000
    C830     C        0.78400    0.08150    0.63290    1.000
    C831     C        0.76800    0.07160    0.66220    1.000
    C832     C        0.81950    0.02710    0.61870    1.000
    C833     C        0.84220    0.01020    0.60000    1.000
    C834     C        0.74020    0.08740    0.67450    1.000
    O60      O        0.89880    0.97590    0.56680    1.000
    C835     C        0.88860    0.00530    0.56300    1.000
    C836     C        0.86810    0.02490    0.57900    1.000
    C837     C        0.75290    0.11350    0.69280    1.000
    C838     C        0.70950    0.07760    0.65690    1.000
    C839     C        0.79710    0.14810    0.73110    1.000
    C840     C        0.68050    0.07560    0.62720    1.000
    C841     C        0.80506    0.35731    0.66815    1.000
    C842     C        0.77516    0.38382    0.66113    1.000
    C843     C        0.68520    0.43700    0.61500    1.000
    C844     C        0.71600    0.41850    0.63290    1.000
    C845     C        0.73200    0.42840    0.66220    1.000
    C846     C        0.68050    0.47290    0.61870    1.000
    C847     C        0.65780    0.48980    0.60000    1.000
    C848     C        0.75980    0.41260    0.67450    1.000
    O61      O        0.60120    0.52410    0.56680    1.000
    C849     C        0.61140    0.49470    0.56300    1.000
    C850     C        0.63190    0.47510    0.57900    1.000
    C851     C        0.74710    0.38650    0.69280    1.000
    C852     C        0.79050    0.42240    0.65690    1.000
    C853     C        0.70290    0.35190    0.73110    1.000
    C854     C        0.81950    0.42440    0.62720    1.000
    C855     C        0.80506    0.85731    0.16815    1.000
    C856     C        0.77516    0.88382    0.16113    1.000
    C857     C        0.68520    0.93700    0.11500    1.000
    C858     C        0.71600    0.91850    0.13290    1.000
    C859     C        0.73200    0.92840    0.16220    1.000
    C860     C        0.68050    0.97290    0.11870    1.000
    C861     C        0.65780    0.98980    0.10000    1.000
    C862     C        0.75980    0.91260    0.17450    1.000
    O62      O        0.60120    0.02410    0.06680    1.000
    C863     C        0.61140    0.99470    0.06300    1.000
    C864     C        0.63190    0.97510    0.07900    1.000
    C865     C        0.74710    0.88650    0.19280    1.000
    C866     C        0.79050    0.92240    0.15690    1.000
    C867     C        0.70290    0.85190    0.23110    1.000
    C868     C        0.81950    0.92440    0.12720    1.000
    C869     C        0.30506    0.35731    0.16815    1.000
    C870     C        0.27516    0.38382    0.16113    1.000
    C871     C        0.18520    0.43700    0.11500    1.000
    C872     C        0.21600    0.41850    0.13290    1.000
    C873     C        0.23200    0.42840    0.16220    1.000
    C874     C        0.18050    0.47290    0.11870    1.000
    C875     C        0.15780    0.48980    0.10000    1.000
    C876     C        0.25980    0.41260    0.17450    1.000
    O63      O        0.10120    0.52410    0.06680    1.000
    C877     C        0.11140    0.49470    0.06300    1.000
    C878     C        0.13190    0.47510    0.07900    1.000
    C879     C        0.24710    0.38650    0.19280    1.000
    C880     C        0.29050    0.42240    0.15690    1.000
    C881     C        0.20290    0.35190    0.23110    1.000
    C882     C        0.31950    0.42440    0.12720    1.000
    C883     C        0.30506    0.85731    0.66815    1.000
    C884     C        0.27516    0.88382    0.66113    1.000
    C885     C        0.18520    0.93700    0.61500    1.000
    C886     C        0.21600    0.91850    0.63290    1.000
    C887     C        0.23200    0.92840    0.66220    1.000
    C888     C        0.18050    0.97290    0.61870    1.000
    C889     C        0.15780    0.98980    0.60000    1.000
    C890     C        0.25980    0.91260    0.67450    1.000
    O64      O        0.10120    0.02410    0.56680    1.000
    C891     C        0.11140    0.99470    0.56300    1.000
    C892     C        0.13190    0.97510    0.57900    1.000
    C893     C        0.24710    0.88650    0.69280    1.000
    C894     C        0.29050    0.92240    0.65690    1.000
    C895     C        0.20290    0.85190    0.73110    1.000
    C896     C        0.31950    0.92440    0.62720    1.000
    C897     C        0.35731    0.33185    0.19494    1.000
    C898     C        0.38382    0.33887    0.22484    1.000
    C899     C        0.43700    0.38500    0.31480    1.000
    C900     C        0.41850    0.36710    0.28400    1.000
    C901     C        0.42840    0.33780    0.26800    1.000
    C902     C        0.47290    0.38130    0.31950    1.000
    C903     C        0.48980    0.40000    0.34220    1.000
    C904     C        0.41260    0.32550    0.24020    1.000
    O65      O        0.52410    0.43320    0.39880    1.000
    C905     C        0.49470    0.43700    0.38860    1.000
    C906     C        0.47510    0.42100    0.36810    1.000
    C907     C        0.38650    0.30720    0.25290    1.000
    C908     C        0.42240    0.34310    0.20950    1.000
    C909     C        0.35190    0.26890    0.29710    1.000
    C910     C        0.42440    0.37280    0.18050    1.000
    C911     C        0.35731    0.83185    0.69494    1.000
    C912     C        0.38382    0.83887    0.72484    1.000
    C913     C        0.43700    0.88500    0.81480    1.000
    C914     C        0.41850    0.86710    0.78400    1.000
    C915     C        0.42840    0.83780    0.76800    1.000
    C916     C        0.47290    0.88130    0.81950    1.000
    C917     C        0.48980    0.90000    0.84220    1.000
    C918     C        0.41260    0.82550    0.74020    1.000
    O66      O        0.52410    0.93320    0.89880    1.000
    C919     C        0.49470    0.93700    0.88860    1.000
    C920     C        0.47510    0.92100    0.86810    1.000
    C921     C        0.38650    0.80720    0.75290    1.000
    C922     C        0.42240    0.84310    0.70950    1.000
    C923     C        0.35190    0.76890    0.79710    1.000
    C924     C        0.42440    0.87280    0.68050    1.000
    C925     C        0.85731    0.33185    0.69494    1.000
    C926     C        0.88382    0.33887    0.72484    1.000
    C927     C        0.93700    0.38500    0.81480    1.000
    C928     C        0.91850    0.36710    0.78400    1.000
    C929     C        0.92840    0.33780    0.76800    1.000
    C930     C        0.97290    0.38130    0.81950    1.000
    C931     C        0.98980    0.40000    0.84220    1.000
    C932     C        0.91260    0.32550    0.74020    1.000
    O67      O        0.02410    0.43320    0.89880    1.000
    C933     C        0.99470    0.43700    0.88860    1.000
    C934     C        0.97510    0.42100    0.86810    1.000
    C935     C        0.88650    0.30720    0.75290    1.000
    C936     C        0.92240    0.34310    0.70950    1.000
    C937     C        0.85190    0.26890    0.79710    1.000
    C938     C        0.92440    0.37280    0.68050    1.000
    C939     C        0.85731    0.83185    0.19494    1.000
    C940     C        0.88382    0.83887    0.22484    1.000
    C941     C        0.93700    0.88500    0.31480    1.000
    C942     C        0.91850    0.86710    0.28400    1.000
    C943     C        0.92840    0.83780    0.26800    1.000
    C944     C        0.97290    0.88130    0.31950    1.000
    C945     C        0.98980    0.90000    0.34220    1.000
    C946     C        0.91260    0.82550    0.24020    1.000
    O68      O        0.02410    0.93320    0.39880    1.000
    C947     C        0.99470    0.93700    0.38860    1.000
    C948     C        0.97510    0.92100    0.36810    1.000
    C949     C        0.88650    0.80720    0.25290    1.000
    C950     C        0.92240    0.84310    0.20950    1.000
    C951     C        0.85190    0.76890    0.29710    1.000
    C952     C        0.92440    0.87280    0.18050    1.000
    C953     C        0.64269    0.33185    0.80506    1.000
    C954     C        0.61618    0.33887    0.77516    1.000
    C955     C        0.56300    0.38500    0.68520    1.000
    C956     C        0.58150    0.36710    0.71600    1.000
    C957     C        0.57160    0.33780    0.73200    1.000
    C958     C        0.52710    0.38130    0.68050    1.000
    C959     C        0.51020    0.40000    0.65780    1.000
    C960     C        0.58740    0.32550    0.75980    1.000
    O69      O        0.47590    0.43320    0.60120    1.000
    C961     C        0.50530    0.43700    0.61140    1.000
    C962     C        0.52490    0.42100    0.63190    1.000
    C963     C        0.61350    0.30720    0.74710    1.000
    C964     C        0.57760    0.34310    0.79050    1.000
    C965     C        0.64810    0.26890    0.70290    1.000
    C966     C        0.57560    0.37280    0.81950    1.000
    C967     C        0.64269    0.83185    0.30506    1.000
    C968     C        0.61618    0.83887    0.27516    1.000
    C969     C        0.56300    0.88500    0.18520    1.000
    C970     C        0.58150    0.86710    0.21600    1.000
    C971     C        0.57160    0.83780    0.23200    1.000
    C972     C        0.52710    0.88130    0.18050    1.000
    C973     C        0.51020    0.90000    0.15780    1.000
    C974     C        0.58740    0.82550    0.25980    1.000
    O70      O        0.47590    0.93320    0.10120    1.000
    C975     C        0.50530    0.93700    0.11140    1.000
    C976     C        0.52490    0.92100    0.13190    1.000
    C977     C        0.61350    0.80720    0.24710    1.000
    C978     C        0.57760    0.84310    0.29050    1.000
    C979     C        0.64810    0.76890    0.20290    1.000
    C980     C        0.57560    0.87280    0.31950    1.000
    C981     C        0.14269    0.33185    0.30506    1.000
    C982     C        0.11618    0.33887    0.27516    1.000
    C983     C        0.06300    0.38500    0.18520    1.000
    C984     C        0.08150    0.36710    0.21600    1.000
    C985     C        0.07160    0.33780    0.23200    1.000
    C986     C        0.02710    0.38130    0.18050    1.000
    C987     C        0.01020    0.40000    0.15780    1.000
    C988     C        0.08740    0.32550    0.25980    1.000
    O71      O        0.97590    0.43320    0.10120    1.000
    C989     C        0.00530    0.43700    0.11140    1.000
    C990     C        0.02490    0.42100    0.13190    1.000
    C991     C        0.11350    0.30720    0.24710    1.000
    C992     C        0.07760    0.34310    0.29050    1.000
    C993     C        0.14810    0.26890    0.20290    1.000
    C994     C        0.07560    0.37280    0.31950    1.000
    C995     C        0.14269    0.83185    0.80506    1.000
    C996     C        0.11618    0.83887    0.77516    1.000
    C997     C        0.06300    0.88500    0.68520    1.000
    C998     C        0.08150    0.86710    0.71600    1.000
    C999     C        0.07160    0.83780    0.73200    1.000
    C1000    C        0.02710    0.88130    0.68050    1.000
    C1001    C        0.01020    0.90000    0.65780    1.000
    C1002    C        0.08740    0.82550    0.75980    1.000
    O72      O        0.97590    0.93320    0.60120    1.000
    C1003    C        0.00530    0.93700    0.61140    1.000
    C1004    C        0.02490    0.92100    0.63190    1.000
    C1005    C        0.11350    0.80720    0.74710    1.000
    C1006    C        0.07760    0.84310    0.79050    1.000
    C1007    C        0.14810    0.76890    0.70290    1.000
    C1008    C        0.07560    0.87280    0.81950    1.000
    C1009    C        0.64269    0.66815    0.19494    1.000
    C1010    C        0.61618    0.66113    0.22484    1.000
    C1011    C        0.56300    0.61500    0.31480    1.000
    C1012    C        0.58150    0.63290    0.28400    1.000
    C1013    C        0.57160    0.66220    0.26800    1.000
    C1014    C        0.52710    0.61870    0.31950    1.000
    C1015    C        0.51020    0.60000    0.34220    1.000
    C1016    C        0.58740    0.67450    0.24020    1.000
    O73      O        0.47590    0.56680    0.39880    1.000
    C1017    C        0.50530    0.56300    0.38860    1.000
    C1018    C        0.52490    0.57900    0.36810    1.000
    C1019    C        0.61350    0.69280    0.25290    1.000
    C1020    C        0.57760    0.65690    0.20950    1.000
    C1021    C        0.64810    0.73110    0.29710    1.000
    C1022    C        0.57560    0.62720    0.18050    1.000
    C1023    C        0.64269    0.16815    0.69494    1.000
    C1024    C        0.61618    0.16113    0.72484    1.000
    C1025    C        0.56300    0.11500    0.81480    1.000
    C1026    C        0.58150    0.13290    0.78400    1.000
    C1027    C        0.57160    0.16220    0.76800    1.000
    C1028    C        0.52710    0.11870    0.81950    1.000
    C1029    C        0.51020    0.10000    0.84220    1.000
    C1030    C        0.58740    0.17450    0.74020    1.000
    O74      O        0.47590    0.06680    0.89880    1.000
    C1031    C        0.50530    0.06300    0.88860    1.000
    C1032    C        0.52490    0.07900    0.86810    1.000
    C1033    C        0.61350    0.19280    0.75290    1.000
    C1034    C        0.57760    0.15690    0.70950    1.000
    C1035    C        0.64810    0.23110    0.79710    1.000
    C1036    C        0.57560    0.12720    0.68050    1.000
    C1037    C        0.14269    0.66815    0.69494    1.000
    C1038    C        0.11618    0.66113    0.72484    1.000
    C1039    C        0.06300    0.61500    0.81480    1.000
    C1040    C        0.08150    0.63290    0.78400    1.000
    C1041    C        0.07160    0.66220    0.76800    1.000
    C1042    C        0.02710    0.61870    0.81950    1.000
    C1043    C        0.01020    0.60000    0.84220    1.000
    C1044    C        0.08740    0.67450    0.74020    1.000
    O75      O        0.97590    0.56680    0.89880    1.000
    C1045    C        0.00530    0.56300    0.88860    1.000
    C1046    C        0.02490    0.57900    0.86810    1.000
    C1047    C        0.11350    0.69280    0.75290    1.000
    C1048    C        0.07760    0.65690    0.70950    1.000
    C1049    C        0.14810    0.73110    0.79710    1.000
    C1050    C        0.07560    0.62720    0.68050    1.000
    C1051    C        0.14269    0.16815    0.19494    1.000
    C1052    C        0.11618    0.16113    0.22484    1.000
    C1053    C        0.06300    0.11500    0.31480    1.000
    C1054    C        0.08150    0.13290    0.28400    1.000
    C1055    C        0.07160    0.16220    0.26800    1.000
    C1056    C        0.02710    0.11870    0.31950    1.000
    C1057    C        0.01020    0.10000    0.34220    1.000
    C1058    C        0.08740    0.17450    0.24020    1.000
    O76      O        0.97590    0.06680    0.39880    1.000
    C1059    C        0.00530    0.06300    0.38860    1.000
    C1060    C        0.02490    0.07900    0.36810    1.000
    C1061    C        0.11350    0.19280    0.25290    1.000
    C1062    C        0.07760    0.15690    0.20950    1.000
    C1063    C        0.14810    0.23110    0.29710    1.000
    C1064    C        0.07560    0.12720    0.18050    1.000
    C1065    C        0.35731    0.66815    0.80506    1.000
    C1066    C        0.38382    0.66113    0.77516    1.000
    C1067    C        0.43700    0.61500    0.68520    1.000
    C1068    C        0.41850    0.63290    0.71600    1.000
    C1069    C        0.42840    0.66220    0.73200    1.000
    C1070    C        0.47290    0.61870    0.68050    1.000
    C1071    C        0.48980    0.60000    0.65780    1.000
    C1072    C        0.41260    0.67450    0.75980    1.000
    O77      O        0.52410    0.56680    0.60120    1.000
    C1073    C        0.49470    0.56300    0.61140    1.000
    C1074    C        0.47510    0.57900    0.63190    1.000
    C1075    C        0.38650    0.69280    0.74710    1.000
    C1076    C        0.42240    0.65690    0.79050    1.000
    C1077    C        0.35190    0.73110    0.70290    1.000
    C1078    C        0.42440    0.62720    0.81950    1.000
    C1079    C        0.35731    0.16815    0.30506    1.000
    C1080    C        0.38382    0.16113    0.27516    1.000
    C1081    C        0.43700    0.11500    0.18520    1.000
    C1082    C        0.41850    0.13290    0.21600    1.000
    C1083    C        0.42840    0.16220    0.23200    1.000
    C1084    C        0.47290    0.11870    0.18050    1.000
    C1085    C        0.48980    0.10000    0.15780    1.000
    C1086    C        0.41260    0.17450    0.25980    1.000
    O78      O        0.52410    0.06680    0.10120    1.000
    C1087    C        0.49470    0.06300    0.11140    1.000
    C1088    C        0.47510    0.07900    0.13190    1.000
    C1089    C        0.38650    0.19280    0.24710    1.000
    C1090    C        0.42240    0.15690    0.29050    1.000
    C1091    C        0.35190    0.23110    0.20290    1.000
    C1092    C        0.42440    0.12720    0.31950    1.000
    C1093    C        0.85731    0.66815    0.30506    1.000
    C1094    C        0.88382    0.66113    0.27516    1.000
    C1095    C        0.93700    0.61500    0.18520    1.000
    C1096    C        0.91850    0.63290    0.21600    1.000
    C1097    C        0.92840    0.66220    0.23200    1.000
    C1098    C        0.97290    0.61870    0.18050    1.000
    C1099    C        0.98980    0.60000    0.15780    1.000
    C1100    C        0.91260    0.67450    0.25980    1.000
    O79      O        0.02410    0.56680    0.10120    1.000
    C1101    C        0.99470    0.56300    0.11140    1.000
    C1102    C        0.97510    0.57900    0.13190    1.000
    C1103    C        0.88650    0.69280    0.24710    1.000
    C1104    C        0.92240    0.65690    0.29050    1.000
    C1105    C        0.85190    0.73110    0.20290    1.000
    C1106    C        0.92440    0.62720    0.31950    1.000
    C1107    C        0.85731    0.16815    0.80506    1.000
    C1108    C        0.88382    0.16113    0.77516    1.000
    C1109    C        0.93700    0.11500    0.68520    1.000
    C1110    C        0.91850    0.13290    0.71600    1.000
    C1111    C        0.92840    0.16220    0.73200    1.000
    C1112    C        0.97290    0.11870    0.68050    1.000
    C1113    C        0.98980    0.10000    0.65780    1.000
    C1114    C        0.91260    0.17450    0.75980    1.000
    O80      O        0.02410    0.06680    0.60120    1.000
    C1115    C        0.99470    0.06300    0.61140    1.000
    C1116    C        0.97510    0.07900    0.63190    1.000
    C1117    C        0.88650    0.19280    0.74710    1.000
    C1118    C        0.92240    0.15690    0.79050    1.000
    C1119    C        0.85190    0.23110    0.70290    1.000
    C1120    C        0.92440    0.12720    0.81950    1.000
    C1121    C        0.33185    0.19494    0.35731    1.000
    C1122    C        0.33887    0.22484    0.38382    1.000
    C1123    C        0.38500    0.31480    0.43700    1.000
    C1124    C        0.36710    0.28400    0.41850    1.000
    C1125    C        0.33780    0.26800    0.42840    1.000
    C1126    C        0.38130    0.31950    0.47290    1.000
    C1127    C        0.40000    0.34220    0.48980    1.000
    C1128    C        0.32550    0.24020    0.41260    1.000
    O81      O        0.43320    0.39880    0.52410    1.000
    C1129    C        0.43700    0.38860    0.49470    1.000
    C1130    C        0.42100    0.36810    0.47510    1.000
    C1131    C        0.30720    0.25290    0.38650    1.000
    C1132    C        0.34310    0.20950    0.42240    1.000
    C1133    C        0.26890    0.29710    0.35190    1.000
    C1134    C        0.37280    0.18050    0.42440    1.000
    C1135    C        0.33185    0.69494    0.85731    1.000
    C1136    C        0.33887    0.72484    0.88382    1.000
    C1137    C        0.38500    0.81480    0.93700    1.000
    C1138    C        0.36710    0.78400    0.91850    1.000
    C1139    C        0.33780    0.76800    0.92840    1.000
    C1140    C        0.38130    0.81950    0.97290    1.000
    C1141    C        0.40000    0.84220    0.98980    1.000
    C1142    C        0.32550    0.74020    0.91260    1.000
    O82      O        0.43320    0.89880    0.02410    1.000
    C1143    C        0.43700    0.88860    0.99470    1.000
    C1144    C        0.42100    0.86810    0.97510    1.000
    C1145    C        0.30720    0.75290    0.88650    1.000
    C1146    C        0.34310    0.70950    0.92240    1.000
    C1147    C        0.26890    0.79710    0.85190    1.000
    C1148    C        0.37280    0.68050    0.92440    1.000
    C1149    C        0.83185    0.19494    0.85731    1.000
    C1150    C        0.83887    0.22484    0.88382    1.000
    C1151    C        0.88500    0.31480    0.93700    1.000
    C1152    C        0.86710    0.28400    0.91850    1.000
    C1153    C        0.83780    0.26800    0.92840    1.000
    C1154    C        0.88130    0.31950    0.97290    1.000
    C1155    C        0.90000    0.34220    0.98980    1.000
    C1156    C        0.82550    0.24020    0.91260    1.000
    O83      O        0.93320    0.39880    0.02410    1.000
    C1157    C        0.93700    0.38860    0.99470    1.000
    C1158    C        0.92100    0.36810    0.97510    1.000
    C1159    C        0.80720    0.25290    0.88650    1.000
    C1160    C        0.84310    0.20950    0.92240    1.000
    C1161    C        0.76890    0.29710    0.85190    1.000
    C1162    C        0.87280    0.18050    0.92440    1.000
    C1163    C        0.83185    0.69494    0.35731    1.000
    C1164    C        0.83887    0.72484    0.38382    1.000
    C1165    C        0.88500    0.81480    0.43700    1.000
    C1166    C        0.86710    0.78400    0.41850    1.000
    C1167    C        0.83780    0.76800    0.42840    1.000
    C1168    C        0.88130    0.81950    0.47290    1.000
    C1169    C        0.90000    0.84220    0.48980    1.000
    C1170    C        0.82550    0.74020    0.41260    1.000
    O84      O        0.93320    0.89880    0.52410    1.000
    C1171    C        0.93700    0.88860    0.49470    1.000
    C1172    C        0.92100    0.86810    0.47510    1.000
    C1173    C        0.80720    0.75290    0.38650    1.000
    C1174    C        0.84310    0.70950    0.42240    1.000
    C1175    C        0.76890    0.79710    0.35190    1.000
    C1176    C        0.87280    0.68050    0.42440    1.000
    C1177    C        0.33185    0.80506    0.64269    1.000
    C1178    C        0.33887    0.77516    0.61618    1.000
    C1179    C        0.38500    0.68520    0.56300    1.000
    C1180    C        0.36710    0.71600    0.58150    1.000
    C1181    C        0.33780    0.73200    0.57160    1.000
    C1182    C        0.38130    0.68050    0.52710    1.000
    C1183    C        0.40000    0.65780    0.51020    1.000
    C1184    C        0.32550    0.75980    0.58740    1.000
    O85      O        0.43320    0.60120    0.47590    1.000
    C1185    C        0.43700    0.61140    0.50530    1.000
    C1186    C        0.42100    0.63190    0.52490    1.000
    C1187    C        0.30720    0.74710    0.61350    1.000
    C1188    C        0.34310    0.79050    0.57760    1.000
    C1189    C        0.26890    0.70290    0.64810    1.000
    C1190    C        0.37280    0.81950    0.57560    1.000
    C1191    C        0.33185    0.30506    0.14269    1.000
    C1192    C        0.33887    0.27516    0.11618    1.000
    C1193    C        0.38500    0.18520    0.06300    1.000
    C1194    C        0.36710    0.21600    0.08150    1.000
    C1195    C        0.33780    0.23200    0.07160    1.000
    C1196    C        0.38130    0.18050    0.02710    1.000
    C1197    C        0.40000    0.15780    0.01020    1.000
    C1198    C        0.32550    0.25980    0.08740    1.000
    O86      O        0.43320    0.10120    0.97590    1.000
    C1199    C        0.43700    0.11140    0.00530    1.000
    C1200    C        0.42100    0.13190    0.02490    1.000
    C1201    C        0.30720    0.24710    0.11350    1.000
    C1202    C        0.34310    0.29050    0.07760    1.000
    C1203    C        0.26890    0.20290    0.14810    1.000
    C1204    C        0.37280    0.31950    0.07560    1.000
    C1205    C        0.83185    0.80506    0.14269    1.000
    C1206    C        0.83887    0.77516    0.11618    1.000
    C1207    C        0.88500    0.68520    0.06300    1.000
    C1208    C        0.86710    0.71600    0.08150    1.000
    C1209    C        0.83780    0.73200    0.07160    1.000
    C1210    C        0.88130    0.68050    0.02710    1.000
    C1211    C        0.90000    0.65780    0.01020    1.000
    C1212    C        0.82550    0.75980    0.08740    1.000
    O87      O        0.93320    0.60120    0.97590    1.000
    C1213    C        0.93700    0.61140    0.00530    1.000
    C1214    C        0.92100    0.63190    0.02490    1.000
    C1215    C        0.80720    0.74710    0.11350    1.000
    C1216    C        0.84310    0.79050    0.07760    1.000
    C1217    C        0.76890    0.70290    0.14810    1.000
    C1218    C        0.87280    0.81950    0.07560    1.000
    C1219    C        0.83185    0.30506    0.64269    1.000
    C1220    C        0.83887    0.27516    0.61618    1.000
    C1221    C        0.88500    0.18520    0.56300    1.000
    C1222    C        0.86710    0.21600    0.58150    1.000
    C1223    C        0.83780    0.23200    0.57160    1.000
    C1224    C        0.88130    0.18050    0.52710    1.000
    C1225    C        0.90000    0.15780    0.51020    1.000
    C1226    C        0.82550    0.25980    0.58740    1.000
    O88      O        0.93320    0.10120    0.47590    1.000
    C1227    C        0.93700    0.11140    0.50530    1.000
    C1228    C        0.92100    0.13190    0.52490    1.000
    C1229    C        0.80720    0.24710    0.61350    1.000
    C1230    C        0.84310    0.29050    0.57760    1.000
    C1231    C        0.76890    0.20290    0.64810    1.000
    C1232    C        0.87280    0.31950    0.57560    1.000
    C1233    C        0.66815    0.19494    0.64269    1.000
    C1234    C        0.66113    0.22484    0.61618    1.000
    C1235    C        0.61500    0.31480    0.56300    1.000
    C1236    C        0.63290    0.28400    0.58150    1.000
    C1237    C        0.66220    0.26800    0.57160    1.000
    C1238    C        0.61870    0.31950    0.52710    1.000
    C1239    C        0.60000    0.34220    0.51020    1.000
    C1240    C        0.67450    0.24020    0.58740    1.000
    O89      O        0.56680    0.39880    0.47590    1.000
    C1241    C        0.56300    0.38860    0.50530    1.000
    C1242    C        0.57900    0.36810    0.52490    1.000
    C1243    C        0.69280    0.25290    0.61350    1.000
    C1244    C        0.65690    0.20950    0.57760    1.000
    C1245    C        0.73110    0.29710    0.64810    1.000
    C1246    C        0.62720    0.18050    0.57560    1.000
    C1247    C        0.66815    0.69494    0.14269    1.000
    C1248    C        0.66113    0.72484    0.11618    1.000
    C1249    C        0.61500    0.81480    0.06300    1.000
    C1250    C        0.63290    0.78400    0.08150    1.000
    C1251    C        0.66220    0.76800    0.07160    1.000
    C1252    C        0.61870    0.81950    0.02710    1.000
    C1253    C        0.60000    0.84220    0.01020    1.000
    C1254    C        0.67450    0.74020    0.08740    1.000
    O90      O        0.56680    0.89880    0.97590    1.000
    C1255    C        0.56300    0.88860    0.00530    1.000
    C1256    C        0.57900    0.86810    0.02490    1.000
    C1257    C        0.69280    0.75290    0.11350    1.000
    C1258    C        0.65690    0.70950    0.07760    1.000
    C1259    C        0.73110    0.79710    0.14810    1.000
    C1260    C        0.62720    0.68050    0.07560    1.000
    C1261    C        0.16815    0.19494    0.14269    1.000
    C1262    C        0.16113    0.22484    0.11618    1.000
    C1263    C        0.11500    0.31480    0.06300    1.000
    C1264    C        0.13290    0.28400    0.08150    1.000
    C1265    C        0.16220    0.26800    0.07160    1.000
    C1266    C        0.11870    0.31950    0.02710    1.000
    C1267    C        0.10000    0.34220    0.01020    1.000
    C1268    C        0.17450    0.24020    0.08740    1.000
    O91      O        0.06680    0.39880    0.97590    1.000
    C1269    C        0.06300    0.38860    0.00530    1.000
    C1270    C        0.07900    0.36810    0.02490    1.000
    C1271    C        0.19280    0.25290    0.11350    1.000
    C1272    C        0.15690    0.20950    0.07760    1.000
    C1273    C        0.23110    0.29710    0.14810    1.000
    C1274    C        0.12720    0.18050    0.07560    1.000
    C1275    C        0.16815    0.69494    0.64269    1.000
    C1276    C        0.16113    0.72484    0.61618    1.000
    C1277    C        0.11500    0.81480    0.56300    1.000
    C1278    C        0.13290    0.78400    0.58150    1.000
    C1279    C        0.16220    0.76800    0.57160    1.000
    C1280    C        0.11870    0.81950    0.52710    1.000
    C1281    C        0.10000    0.84220    0.51020    1.000
    C1282    C        0.17450    0.74020    0.58740    1.000
    O92      O        0.06680    0.89880    0.47590    1.000
    C1283    C        0.06300    0.88860    0.50530    1.000
    C1284    C        0.07900    0.86810    0.52490    1.000
    C1285    C        0.19280    0.75290    0.61350    1.000
    C1286    C        0.15690    0.70950    0.57760    1.000
    C1287    C        0.23110    0.79710    0.64810    1.000
    C1288    C        0.12720    0.68050    0.57560    1.000
    C1289    C        0.66815    0.80506    0.35731    1.000
    C1290    C        0.66113    0.77516    0.38382    1.000
    C1291    C        0.61500    0.68520    0.43700    1.000
    C1292    C        0.63290    0.71600    0.41850    1.000
    C1293    C        0.66220    0.73200    0.42840    1.000
    C1294    C        0.61870    0.68050    0.47290    1.000
    C1295    C        0.60000    0.65780    0.48980    1.000
    C1296    C        0.67450    0.75980    0.41260    1.000
    O93      O        0.56680    0.60120    0.52410    1.000
    C1297    C        0.56300    0.61140    0.49470    1.000
    C1298    C        0.57900    0.63190    0.47510    1.000
    C1299    C        0.69280    0.74710    0.38650    1.000
    C1300    C        0.65690    0.79050    0.42240    1.000
    C1301    C        0.73110    0.70290    0.35190    1.000
    C1302    C        0.62720    0.81950    0.42440    1.000
    C1303    C        0.66815    0.30506    0.85731    1.000
    C1304    C        0.66113    0.27516    0.88382    1.000
    C1305    C        0.61500    0.18520    0.93700    1.000
    C1306    C        0.63290    0.21600    0.91850    1.000
    C1307    C        0.66220    0.23200    0.92840    1.000
    C1308    C        0.61870    0.18050    0.97290    1.000
    C1309    C        0.60000    0.15780    0.98980    1.000
    C1310    C        0.67450    0.25980    0.91260    1.000
    O94      O        0.56680    0.10120    0.02410    1.000
    C1311    C        0.56300    0.11140    0.99470    1.000
    C1312    C        0.57900    0.13190    0.97510    1.000
    C1313    C        0.69280    0.24710    0.88650    1.000
    C1314    C        0.65690    0.29050    0.92240    1.000
    C1315    C        0.73110    0.20290    0.85190    1.000
    C1316    C        0.62720    0.31950    0.92440    1.000
    C1317    C        0.16815    0.80506    0.85731    1.000
    C1318    C        0.16113    0.77516    0.88382    1.000
    C1319    C        0.11500    0.68520    0.93700    1.000
    C1320    C        0.13290    0.71600    0.91850    1.000
    C1321    C        0.16220    0.73200    0.92840    1.000
    C1322    C        0.11870    0.68050    0.97290    1.000
    C1323    C        0.10000    0.65780    0.98980    1.000
    C1324    C        0.17450    0.75980    0.91260    1.000
    O95      O        0.06680    0.60120    0.02410    1.000
    C1325    C        0.06300    0.61140    0.99470    1.000
    C1326    C        0.07900    0.63190    0.97510    1.000
    C1327    C        0.19280    0.74710    0.88650    1.000
    C1328    C        0.15690    0.79050    0.92240    1.000
    C1329    C        0.23110    0.70290    0.85190    1.000
    C1330    C        0.12720    0.81950    0.92440    1.000
    C1331    C        0.16815    0.30506    0.35731    1.000
    C1332    C        0.16113    0.27516    0.38382    1.000
    C1333    C        0.11500    0.18520    0.43700    1.000
    C1334    C        0.13290    0.21600    0.41850    1.000
    C1335    C        0.16220    0.23200    0.42840    1.000
    C1336    C        0.11870    0.18050    0.47290    1.000
    C1337    C        0.10000    0.15780    0.48980    1.000
    C1338    C        0.17450    0.25980    0.41260    1.000
    O96      O        0.06680    0.10120    0.52410    1.000
    C1339    C        0.06300    0.11140    0.49470    1.000
    C1340    C        0.07900    0.13190    0.47510    1.000
    C1341    C        0.19280    0.24710    0.38650    1.000
    C1342    C        0.15690    0.29050    0.42240    1.000
    C1343    C        0.23110    0.20290    0.35190    1.000
    C1344    C        0.12720    0.31950    0.42440    1.000
    Zn1      Zn       0.55983    0.44017    0.44017    1.000
    O97      O        0.53050    0.46950    0.46950    1.000
    Zn2      Zn       0.55983    0.94017    0.94017    1.000
    O98      O        0.53050    0.96950    0.96950    1.000
    Zn3      Zn       0.05983    0.44017    0.94017    1.000
    O99      O        0.03050    0.46950    0.96950    1.000
    Zn4      Zn       0.05983    0.94017    0.44017    1.000
    O100     O        0.03050    0.96950    0.46950    1.000
    Zn5      Zn       0.44017    0.55983    0.44017    1.000
    O101     O        0.46950    0.53050    0.46950    1.000
    Zn6      Zn       0.44017    0.05983    0.94017    1.000
    O102     O        0.46950    0.03050    0.96950    1.000
    Zn7      Zn       0.94017    0.55983    0.94017    1.000
    O103     O        0.96950    0.53050    0.96950    1.000
    Zn8      Zn       0.94017    0.05983    0.44017    1.000
    O104     O        0.96950    0.03050    0.46950    1.000
    Zn9      Zn       0.44017    0.44017    0.55983    1.000
    O105     O        0.46950    0.46950    0.53050    1.000
    Zn10     Zn       0.44017    0.94017    0.05983    1.000
    O106     O        0.46950    0.96950    0.03050    1.000
    Zn11     Zn       0.94017    0.44017    0.05983    1.000
    O107     O        0.96950    0.46950    0.03050    1.000
    Zn12     Zn       0.94017    0.94017    0.55983    1.000
    O108     O        0.96950    0.96950    0.53050    1.000
    Zn13     Zn       0.55983    0.55983    0.55983    1.000
    O109     O        0.53050    0.53050    0.53050    1.000
    Zn14     Zn       0.55983    0.05983    0.05983    1.000
    O110     O        0.53050    0.03050    0.03050    1.000
    Zn15     Zn       0.05983    0.55983    0.05983    1.000
    O111     O        0.03050    0.53050    0.03050    1.000
    Zn16     Zn       0.05983    0.05983    0.55983    1.000
    O112     O        0.03050    0.03050    0.53050    1.000
    Zn17     Zn       0.55937    0.50000    0.50000    1.000
    Zn18     Zn       0.55937    0.00000    0.00000    1.000
    Zn19     Zn       0.05937    0.50000    0.00000    1.000
    Zn20     Zn       0.05937    0.00000    0.50000    1.000
    Zn21     Zn       0.44063    0.50000    0.50000    1.000
    Zn22     Zn       0.44063    0.00000    0.00000    1.000
    Zn23     Zn       0.94063    0.50000    0.00000    1.000
    Zn24     Zn       0.94063    0.00000    0.50000    1.000
    Zn25     Zn       0.50000    0.55937    0.50000    1.000
    Zn26     Zn       0.50000    0.05937    0.00000    1.000
    Zn27     Zn       0.00000    0.55937    0.00000    1.000
    Zn28     Zn       0.00000    0.05937    0.50000    1.000
    Zn29     Zn       0.50000    0.44063    0.50000    1.000
    Zn30     Zn       0.50000    0.94063    0.00000    1.000
    Zn31     Zn       0.00000    0.44063    0.00000    1.000
    Zn32     Zn       0.00000    0.94063    0.50000    1.000
    Zn33     Zn       0.50000    0.50000    0.55937    1.000
    Zn34     Zn       0.50000    0.00000    0.05937    1.000
    Zn35     Zn       0.00000    0.50000    0.05937    1.000
    Zn36     Zn       0.00000    0.00000    0.55937    1.000
    Zn37     Zn       0.50000    0.50000    0.44063    1.000
    Zn38     Zn       0.50000    0.00000    0.94063    1.000
    Zn39     Zn       0.00000    0.50000    0.94063    1.000
    Zn40     Zn       0.00000    0.00000    0.44063    1.000
    C1345    C        0.38634    0.26970    0.38634    1.000
    C1346    C        0.37038    0.24130    0.37038    1.000
    C1347    C        0.41420    0.33920    0.41420    1.000
    C1348    C        0.43190    0.36220    0.43190    1.000
    C1349    C        0.38634    0.76970    0.88634    1.000
    C1350    C        0.37038    0.74130    0.87038    1.000
    C1351    C        0.41420    0.83920    0.91420    1.000
    C1352    C        0.43190    0.86220    0.93190    1.000
    C1353    C        0.88634    0.26970    0.88634    1.000
    C1354    C        0.87038    0.24130    0.87038    1.000
    C1355    C        0.91420    0.33920    0.91420    1.000
    C1356    C        0.93190    0.36220    0.93190    1.000
    C1357    C        0.88634    0.76970    0.38634    1.000
    C1358    C        0.87038    0.74130    0.37038    1.000
    C1359    C        0.91420    0.83920    0.41420    1.000
    C1360    C        0.93190    0.86220    0.43190    1.000
    C1361    C        0.61366    0.73030    0.38634    1.000
    C1362    C        0.62962    0.75870    0.37038    1.000
    C1363    C        0.58580    0.66080    0.41420    1.000
    C1364    C        0.56810    0.63780    0.43190    1.000
    C1365    C        0.61366    0.23030    0.88634    1.000
    C1366    C        0.62962    0.25870    0.87038    1.000
    C1367    C        0.58580    0.16080    0.91420    1.000
    C1368    C        0.56810    0.13780    0.93190    1.000
    C1369    C        0.11366    0.73030    0.88634    1.000
    C1370    C        0.12962    0.75870    0.87038    1.000
    C1371    C        0.08580    0.66080    0.91420    1.000
    C1372    C        0.06810    0.63780    0.93190    1.000
    C1373    C        0.11366    0.23030    0.38634    1.000
    C1374    C        0.12962    0.25870    0.37038    1.000
    C1375    C        0.08580    0.16080    0.41420    1.000
    C1376    C        0.06810    0.13780    0.43190    1.000
    C1377    C        0.61366    0.26970    0.61366    1.000
    C1378    C        0.62962    0.24130    0.62962    1.000
    C1379    C        0.58580    0.33920    0.58580    1.000
    C1380    C        0.56810    0.36220    0.56810    1.000
    C1381    C        0.61366    0.76970    0.11366    1.000
    C1382    C        0.62962    0.74130    0.12962    1.000
    C1383    C        0.58580    0.83920    0.08580    1.000
    C1384    C        0.56810    0.86220    0.06810    1.000
    C1385    C        0.11366    0.26970    0.11366    1.000
    C1386    C        0.12962    0.24130    0.12962    1.000
    C1387    C        0.08580    0.33920    0.08580    1.000
    C1388    C        0.06810    0.36220    0.06810    1.000
    C1389    C        0.11366    0.76970    0.61366    1.000
    C1390    C        0.12962    0.74130    0.62962    1.000
    C1391    C        0.08580    0.83920    0.58580    1.000
    C1392    C        0.06810    0.86220    0.56810    1.000
    C1393    C        0.38634    0.73030    0.61366    1.000
    C1394    C        0.37038    0.75870    0.62962    1.000
    C1395    C        0.41420    0.66080    0.58580    1.000
    C1396    C        0.43190    0.63780    0.56810    1.000
    C1397    C        0.38634    0.23030    0.11366    1.000
    C1398    C        0.37038    0.25870    0.12962    1.000
    C1399    C        0.41420    0.16080    0.08580    1.000
    C1400    C        0.43190    0.13780    0.06810    1.000
    C1401    C        0.88634    0.73030    0.11366    1.000
    C1402    C        0.87038    0.75870    0.12962    1.000
    C1403    C        0.91420    0.66080    0.08580    1.000
    C1404    C        0.93190    0.63780    0.06810    1.000
    C1405    C        0.88634    0.23030    0.61366    1.000
    C1406    C        0.87038    0.25870    0.62962    1.000
    C1407    C        0.91420    0.16080    0.58580    1.000
    C1408    C        0.93190    0.13780    0.56810    1.000
    C1409    C        0.38634    0.38634    0.26970    1.000
    C1410    C        0.37038    0.37038    0.24130    1.000
    C1411    C        0.41420    0.41420    0.33920    1.000
    C1412    C        0.43190    0.43190    0.36220    1.000
    C1413    C        0.38634    0.88634    0.76970    1.000
    C1414    C        0.37038    0.87038    0.74130    1.000
    C1415    C        0.41420    0.91420    0.83920    1.000
    C1416    C        0.43190    0.93190    0.86220    1.000
    C1417    C        0.88634    0.38634    0.76970    1.000
    C1418    C        0.87038    0.37038    0.74130    1.000
    C1419    C        0.91420    0.41420    0.83920    1.000
    C1420    C        0.93190    0.43190    0.86220    1.000
    C1421    C        0.88634    0.88634    0.26970    1.000
    C1422    C        0.87038    0.87038    0.24130    1.000
    C1423    C        0.91420    0.91420    0.33920    1.000
    C1424    C        0.93190    0.93190    0.36220    1.000
    C1425    C        0.38634    0.61366    0.73030    1.000
    C1426    C        0.37038    0.62962    0.75870    1.000
    C1427    C        0.41420    0.58580    0.66080    1.000
    C1428    C        0.43190    0.56810    0.63780    1.000
    C1429    C        0.38634    0.11366    0.23030    1.000
    C1430    C        0.37038    0.12962    0.25870    1.000
    C1431    C        0.41420    0.08580    0.16080    1.000
    C1432    C        0.43190    0.06810    0.13780    1.000
    C1433    C        0.88634    0.61366    0.23030    1.000
    C1434    C        0.87038    0.62962    0.25870    1.000
    C1435    C        0.91420    0.58580    0.16080    1.000
    C1436    C        0.93190    0.56810    0.13780    1.000
    C1437    C        0.88634    0.11366    0.73030    1.000
    C1438    C        0.87038    0.12962    0.75870    1.000
    C1439    C        0.91420    0.08580    0.66080    1.000
    C1440    C        0.93190    0.06810    0.63780    1.000
    C1441    C        0.61366    0.61366    0.26970    1.000
    C1442    C        0.62962    0.62962    0.24130    1.000
    C1443    C        0.58580    0.58580    0.33920    1.000
    C1444    C        0.56810    0.56810    0.36220    1.000
    C1445    C        0.61366    0.11366    0.76970    1.000
    C1446    C        0.62962    0.12962    0.74130    1.000
    C1447    C        0.58580    0.08580    0.83920    1.000
    C1448    C        0.56810    0.06810    0.86220    1.000
    C1449    C        0.11366    0.61366    0.76970    1.000
    C1450    C        0.12962    0.62962    0.74130    1.000
    C1451    C        0.08580    0.58580    0.83920    1.000
    C1452    C        0.06810    0.56810    0.86220    1.000
    C1453    C        0.11366    0.11366    0.26970    1.000
    C1454    C        0.12962    0.12962    0.24130    1.000
    C1455    C        0.08580    0.08580    0.33920    1.000
    C1456    C        0.06810    0.06810    0.36220    1.000
    C1457    C        0.61366    0.38634    0.73030    1.000
    C1458    C        0.62962    0.37038    0.75870    1.000
    C1459    C        0.58580    0.41420    0.66080    1.000
    C1460    C        0.56810    0.43190    0.63780    1.000
    C1461    C        0.61366    0.88634    0.23030    1.000
    C1462    C        0.62962    0.87038    0.25870    1.000
    C1463    C        0.58580    0.91420    0.16080    1.000
    C1464    C        0.56810    0.93190    0.13780    1.000
    C1465    C        0.11366    0.38634    0.23030    1.000
    C1466    C        0.12962    0.37038    0.25870    1.000
    C1467    C        0.08580    0.41420    0.16080    1.000
    C1468    C        0.06810    0.43190    0.13780    1.000
    C1469    C        0.11366    0.88634    0.73030    1.000
    C1470    C        0.12962    0.87038    0.75870    1.000
    C1471    C        0.08580    0.91420    0.66080    1.000
    C1472    C        0.06810    0.93190    0.63780    1.000
    C1473    C        0.26970    0.38634    0.38634    1.000
    C1474    C        0.24130    0.37038    0.37038    1.000
    C1475    C        0.33920    0.41420    0.41420    1.000
    C1476    C        0.36220    0.43190    0.43190    1.000
    C1477    C        0.26970    0.88634    0.88634    1.000
    C1478    C        0.24130    0.87038    0.87038    1.000
    C1479    C        0.33920    0.91420    0.91420    1.000
    C1480    C        0.36220    0.93190    0.93190    1.000
    C1481    C        0.76970    0.38634    0.88634    1.000
    C1482    C        0.74130    0.37038    0.87038    1.000
    C1483    C        0.83920    0.41420    0.91420    1.000
    C1484    C        0.86220    0.43190    0.93190    1.000
    C1485    C        0.76970    0.88634    0.38634    1.000
    C1486    C        0.74130    0.87038    0.37038    1.000
    C1487    C        0.83920    0.91420    0.41420    1.000
    C1488    C        0.86220    0.93190    0.43190    1.000
    C1489    C        0.73030    0.38634    0.61366    1.000
    C1490    C        0.75870    0.37038    0.62962    1.000
    C1491    C        0.66080    0.41420    0.58580    1.000
    C1492    C        0.63780    0.43190    0.56810    1.000
    C1493    C        0.73030    0.88634    0.11366    1.000
    C1494    C        0.75870    0.87038    0.12962    1.000
    C1495    C        0.66080    0.91420    0.08580    1.000
    C1496    C        0.63780    0.93190    0.06810    1.000
    C1497    C        0.23030    0.38634    0.11366    1.000
    C1498    C        0.25870    0.37038    0.12962    1.000
    C1499    C        0.16080    0.41420    0.08580    1.000
    C1500    C        0.13780    0.43190    0.06810    1.000
    C1501    C        0.23030    0.88634    0.61366    1.000
    C1502    C        0.25870    0.87038    0.62962    1.000
    C1503    C        0.16080    0.91420    0.58580    1.000
    C1504    C        0.13780    0.93190    0.56810    1.000
    C1505    C        0.26970    0.61366    0.61366    1.000
    C1506    C        0.24130    0.62962    0.62962    1.000
    C1507    C        0.33920    0.58580    0.58580    1.000
    C1508    C        0.36220    0.56810    0.56810    1.000
    C1509    C        0.26970    0.11366    0.11366    1.000
    C1510    C        0.24130    0.12962    0.12962    1.000
    C1511    C        0.33920    0.08580    0.08580    1.000
    C1512    C        0.36220    0.06810    0.06810    1.000
    C1513    C        0.76970    0.61366    0.11366    1.000
    C1514    C        0.74130    0.62962    0.12962    1.000
    C1515    C        0.83920    0.58580    0.08580    1.000
    C1516    C        0.86220    0.56810    0.06810    1.000
    C1517    C        0.76970    0.11366    0.61366    1.000
    C1518    C        0.74130    0.12962    0.62962    1.000
    C1519    C        0.83920    0.08580    0.58580    1.000
    C1520    C        0.86220    0.06810    0.56810    1.000
    C1521    C        0.73030    0.61366    0.38634    1.000
    C1522    C        0.75870    0.62962    0.37038    1.000
    C1523    C        0.66080    0.58580    0.41420    1.000
    C1524    C        0.63780    0.56810    0.43190    1.000
    C1525    C        0.73030    0.11366    0.88634    1.000
    C1526    C        0.75870    0.12962    0.87038    1.000
    C1527    C        0.66080    0.08580    0.91420    1.000
    C1528    C        0.63780    0.06810    0.93190    1.000
    C1529    C        0.23030    0.61366    0.88634    1.000
    C1530    C        0.25870    0.62962    0.87038    1.000
    C1531    C        0.16080    0.58580    0.91420    1.000
    C1532    C        0.13780    0.56810    0.93190    1.000
    C1533    C        0.23030    0.11366    0.38634    1.000
    C1534    C        0.25870    0.12962    0.37038    1.000
    C1535    C        0.16080    0.08580    0.41420    1.000
    C1536    C        0.13780    0.06810    0.43190    1.000
