# CIF file generated by openbabel 3.1.0, see https://openbabel.org
data_I
_chemical_name_common 'image0'
_cell_length_a 10.3923
_cell_length_b 11.2942
_cell_length_c 12.3282
_cell_angle_alpha 98.464
_cell_angle_beta 109.478
_cell_angle_gamma 102.788
_space_group_name_H-M_alt 'P 1'
_space_group_name_Hall 'P 1'
loop_
    _symmetry_equiv_pos_as_xyz
    x,y,z
loop_
    _atom_site_label
    _atom_site_type_symbol
    _atom_site_fract_x
    _atom_site_fract_y
    _atom_site_fract_z
    _atom_site_occupancy
    Eu1      Eu       0.39329    0.45384    0.82555    1.000
    O1       O        0.16790    0.28110    0.74610    1.000
    O2       O        0.30990    0.27920    0.65070    1.000
    O3       O        0.62020    0.43460    0.81590    1.000
    O4       O        0.65070    0.51700    0.99840    1.000
    O5       O        0.43650    0.27880    0.90370    1.000
    O6       O        0.52020    0.32490    0.10120    1.000
    C1       C        0.19530    0.23070    0.66480    1.000
    C2       C        0.09590    0.11000    0.58000    1.000
    C3       C        0.12690    0.05160    0.49160    1.000
    H1       H        0.21290    0.08620    0.48460    1.000
    C4       C        0.96650    0.05870    0.58890    1.000
    C5       C        0.70110    0.48150    0.92230    1.000
    C6       C        0.85370    0.48940    0.96090    1.000
    C7       C        0.90600    0.42070    0.89050    1.000
    C8       C        0.94800    0.56700    0.06980    1.000
    H2       H        0.91320    0.61190    0.11730    1.000
    C9       C        0.48070    0.25190    0.00060    1.000
    C10      C        0.49000    0.12100    0.99740    1.000
    C11      C        0.52770    0.08220    0.10280    1.000
    H3       H        0.54660    0.13850    0.17320    1.000
    C12      C        0.46190    0.03670    0.89370    1.000
    C13      C        0.43650    0.49200    0.56050    1.000
    C14      C        0.54100    0.66400    0.57830    1.000
    N1       N        0.90700    0.14900    0.63600    1.000
    N2       N        0.44200    0.06900    0.78060    1.000
    N3       N        0.82500    0.34100    0.78900    1.000
    N4       N        0.42950    0.54080    0.66490    1.000
    N5       N        0.50260    0.65830    0.67230    1.000
    N6       N        0.50000    0.55500    0.49700    1.000
    N7       N        0.66100    0.75000    0.57000    1.000
    Eu2      Eu       0.60671    0.54616    0.17445    1.000
    O7       O        0.83210    0.71890    0.25390    1.000
    O8       O        0.69010    0.72080    0.34930    1.000
    O9       O        0.37980    0.56540    0.18410    1.000
    O10      O        0.34930    0.48300    0.00160    1.000
    O11      O        0.56350    0.72120    0.09630    1.000
    O12      O        0.47980    0.67510    0.89880    1.000
    C15      C        0.80470    0.76930    0.33520    1.000
    C16      C        0.90410    0.89000    0.42000    1.000
    C17      C        0.87310    0.94840    0.50840    1.000
    H4       H        0.78710    0.91380    0.51540    1.000
    C18      C        0.03350    0.94130    0.41110    1.000
    C19      C        0.29890    0.51850    0.07770    1.000
    C20      C        0.14630    0.51060    0.03910    1.000
    C21      C        0.09400    0.57930    0.10950    1.000
    C22      C        0.05200    0.43300    0.93020    1.000
    H5       H        0.08680    0.38810    0.88270    1.000
    C23      C        0.51930    0.74810    0.99940    1.000
    C24      C        0.51000    0.87900    0.00260    1.000
    C25      C        0.47230    0.91780    0.89720    1.000
    H6       H        0.45340    0.86150    0.82680    1.000
    C26      C        0.53810    0.96330    0.10630    1.000
    C27      C        0.56350    0.50800    0.43950    1.000
    C28      C        0.45900    0.33600    0.42170    1.000
    N8       N        0.09300    0.85100    0.36400    1.000
    N9       N        0.55800    0.93100    0.21940    1.000
    N10      N        0.17500    0.65900    0.21100    1.000
    N11      N        0.57050    0.45920    0.33510    1.000
    N12      N        0.49740    0.34170    0.32770    1.000
    N13      N        0.50000    0.44500    0.50300    1.000
    N14      N        0.33900    0.25000    0.43000    1.000
