# CIF file generated by openbabel 3.1.0, see https://openbabel.org
data_I
_chemical_name_common 'image0'
_cell_length_a 9.6084
_cell_length_b 15.803
_cell_length_c 7.9309
_cell_angle_alpha 90
_cell_angle_beta 96.84
_cell_angle_gamma 90
_space_group_name_H-M_alt 'P 1'
_space_group_name_Hall 'P 1'
loop_
    _symmetry_equiv_pos_as_xyz
    x,y,z
loop_
    _atom_site_label
    _atom_site_type_symbol
    _atom_site_fract_x
    _atom_site_fract_y
    _atom_site_fract_z
    _atom_site_occupancy
    Y1       Y        0.86694    0.67263    0.07257    1.000
    O1       O        0.70870    0.57060    0.94850    1.000
    O2       O        0.10860    0.68972    0.14420    1.000
    O3       O        0.94330    0.53800    0.18650    1.000
    O4       O        0.18720    0.76250    0.37570    1.000
    O5       O        0.02350    0.41004    0.12690    1.000
    N1       N        0.62590    0.67300    0.18290    1.000
    N2       N        0.45200    0.73550    0.33050    1.000
    C1       C        0.52680    0.63230    0.08080    1.000
    C2       C        0.20330    0.71740    0.25150    1.000
    C3       C        0.38540    0.64120    0.10050    1.000
    C4       C        0.35320    0.69530    0.22470    1.000
    O6       O        0.48800    0.55551    0.82510    1.000
    C5       C        0.57680    0.58130    0.94040    1.000
    C6       C        0.58360    0.72230    0.30370    1.000
    C7       C        0.99020    0.48500    0.09070    1.000
    H1       H        0.31393    0.61083    0.03017    1.000
    H2       H        0.65510    0.75070    0.37757    1.000
    Y2       Y        0.63306    0.17263    0.42743    1.000
    O7       O        0.79130    0.07060    0.55150    1.000
    O8       O        0.39140    0.18972    0.35580    1.000
    O9       O        0.55670    0.03800    0.31350    1.000
    O10      O        0.31280    0.26250    0.12430    1.000
    O11      O        0.47650    0.91004    0.37310    1.000
    N3       N        0.87410    0.17300    0.31710    1.000
    N4       N        0.04800    0.23550    0.16950    1.000
    C8       C        0.97320    0.13230    0.41920    1.000
    C9       C        0.29670    0.21740    0.24850    1.000
    C10      C        0.11460    0.14120    0.39950    1.000
    C11      C        0.14680    0.19530    0.27530    1.000
    O12      O        0.01200    0.05551    0.67490    1.000
    C12      C        0.92320    0.08130    0.55960    1.000
    C13      C        0.91640    0.22230    0.19630    1.000
    C14      C        0.50980    0.98500    0.40930    1.000
    H3       H        0.18607    0.11083    0.46983    1.000
    H4       H        0.84490    0.25070    0.12243    1.000
    Y3       Y        0.13306    0.32737    0.92743    1.000
    O13      O        0.29130    0.42940    0.05150    1.000
    O14      O        0.89140    0.31028    0.85580    1.000
    O15      O        0.05670    0.46200    0.81350    1.000
    O16      O        0.81280    0.23750    0.62430    1.000
    O17      O        0.97650    0.58996    0.87310    1.000
    N5       N        0.37410    0.32700    0.81710    1.000
    N6       N        0.54800    0.26450    0.66950    1.000
    C15      C        0.47320    0.36770    0.91920    1.000
    C16      C        0.79670    0.28260    0.74850    1.000
    C17      C        0.61460    0.35880    0.89950    1.000
    C18      C        0.64680    0.30470    0.77530    1.000
    O18      O        0.51200    0.44449    0.17490    1.000
    C19      C        0.42320    0.41870    0.05960    1.000
    C20      C        0.41640    0.27770    0.69630    1.000
    C21      C        0.00980    0.51500    0.90930    1.000
    H5       H        0.68607    0.38917    0.96983    1.000
    H6       H        0.34490    0.24930    0.62243    1.000
    Y4       Y        0.36694    0.82737    0.57257    1.000
    O19      O        0.20870    0.92940    0.44850    1.000
    O20      O        0.60860    0.81028    0.64420    1.000
    O21      O        0.44330    0.96200    0.68650    1.000
    O22      O        0.68720    0.73750    0.87570    1.000
    O23      O        0.52350    0.08996    0.62690    1.000
    N7       N        0.12590    0.82700    0.68290    1.000
    N8       N        0.95200    0.76450    0.83050    1.000
    C22      C        0.02680    0.86770    0.58080    1.000
    C23      C        0.70330    0.78260    0.75150    1.000
    C24      C        0.88540    0.85880    0.60050    1.000
    C25      C        0.85320    0.80470    0.72470    1.000
    O24      O        0.98800    0.94449    0.32510    1.000
    C26      C        0.07680    0.91870    0.44040    1.000
    C27      C        0.08360    0.77770    0.80370    1.000
    C28      C        0.49020    0.01500    0.59070    1.000
    H7       H        0.81393    0.88917    0.53017    1.000
    H8       H        0.15510    0.74930    0.87757    1.000
