data_functionalizedCrystal
_audit_creation_method	'EQeq! by Chris Wilmer'
_symmetry_space_group_name_H-M	'P1'
_symmetry_Int_Tables_number	1
_symmetry_cell_setting	triclinic
loop_
_symmetry_equiv_pos_as_xyz
  x,y,z
_cell_length_a	7.07
_cell_length_b	12.356
_cell_length_c	17.12
_cell_angle_alpha	75.698
_cell_angle_beta	85.651
_cell_angle_gamma	78.331
loop_
_atom_site_label
_atom_site_type_symbol
_atom_site_fract_x
_atom_site_fract_y
_atom_site_fract_z
_atom_site_charge
Mof_Mn	Mn	0.25068	0.75016	0.74994	0.738
Mof_V 	V 	0.46908	0.70373	0.57271	1.737
Mof_V 	V 	0.03136	0.79622	0.92755	1.737
Mof_V 	V 	0.2665	0.24707	0.75288	1.811
Mof_V 	V 	0.76552	0.25317	0.74768	1.813
Mof_P 	P 	0.06603	0.01489	0.78355	0.563
Mof_O 	O 	0.1304	0.9308	0.7304	-0.37
Mof_O 	O 	0.2145	0.0897	0.7827	-0.48
Mof_O 	O 	0.0314	0.95	0.8723	-0.523
Mof_O 	O 	0.8712	0.0901	0.7528	-0.469
Mof_P 	P 	0.48633	0.73958	0.41183	0.514
Mof_P 	P 	0.43458	0.48505	0.71645	0.566
Mof_P 	P 	0.0149	0.76094	0.08847	0.512
Mof_O 	O 	0.6546	0.7744	0.3573	-0.472
Mof_O 	O 	0.3207	0.7304	0.3639	-0.467
Mof_O 	O 	0.5443	0.628	0.4775	-0.439
Mof_O 	O 	0.4107	0.8207	0.4686	-0.478
Mof_O 	O 	0.2862	0.4096	0.7181	-0.473
Mof_O 	O 	0.6294	0.4102	0.7471	-0.479
Mof_O 	O 	0.4653	0.5495	0.6279	-0.521
Mof_O 	O 	0.3689	0.5697	0.7692	-0.37
Mof_O 	O 	0.1821	0.7693	0.1378	-0.462
Mof_O 	O 	0.0944	0.6793	0.0319	-0.471
Mof_O 	O 	0.957	0.8715	0.02248	-0.443
Mof_O 	O 	0.8467	0.7252	0.1417	-0.48
Mof_O 	O 	0.5124	0.205	0.7874	-0.637
Mof_O 	O 	0.2845	0.7633	0.6227	-0.661
Mof_O 	O 	0.9937	0.2954	0.7133	-0.638
Mof_O 	O 	0.217	0.7374	0.8773	-0.659
Mof_Mn	Mn	0.74932	0.24984	0.25006	0.739
Mof_V 	V 	0.53092	0.29627	0.42729	1.738
Mof_V 	V 	0.96864	0.20378	0.07245	1.737
Mof_V 	V 	0.7335	0.75293	0.24712	1.811
Mof_V 	V 	0.23448	0.74683	0.25232	1.813
Mof_P 	P 	0.93397	0.98511	0.21645	0.563
Mof_O 	O 	0.8696	0.0692	0.2696	-0.37
Mof_O 	O 	0.7855	0.9103	0.2173	-0.48
Mof_O 	O 	0.9686	0.05	0.1277	-0.523
Mof_O 	O 	0.1288	0.9099	0.2472	-0.469
Mof_P 	P 	0.51367	0.26042	0.58817	0.514
Mof_P 	P 	0.56542	0.51495	0.28355	0.566
Mof_P 	P 	0.9851	0.23906	0.91153	0.512
Mof_O 	O 	0.3454	0.2256	0.6427	-0.472
Mof_O 	O 	0.6793	0.2696	0.6361	-0.467
Mof_O 	O 	0.4557	0.372	0.5225	-0.439
Mof_O 	O 	0.5893	0.1793	0.5314	-0.478
Mof_O 	O 	0.7138	0.5904	0.2819	-0.473
Mof_O 	O 	0.3706	0.5898	0.2529	-0.479
Mof_O 	O 	0.5347	0.4505	0.3721	-0.521
Mof_O 	O 	0.6311	0.4303	0.2308	-0.37
Mof_O 	O 	0.8179	0.2307	0.8622	-0.462
Mof_O 	O 	0.9056	0.3207	0.9681	-0.471
Mof_O 	O 	0.043	0.1285	0.97752	-0.443
Mof_O 	O 	0.1533	0.2748	0.8583	-0.48
Mof_O 	O 	0.4876	0.795	0.2126	-0.637
Mof_O 	O 	0.7155	0.2367	0.3773	-0.661
Mof_O 	O 	0.0063	0.7046	0.2867	-0.638
Mof_O 	O 	0.783	0.2626	0.1227	-0.659
_end
