# CIF file generated by openbabel 3.1.0, see https://openbabel.org
data_I
_chemical_name_common 'image0'
_cell_length_a 15.9742
_cell_length_b 15.9742
_cell_length_c 19.4383
_cell_angle_alpha 90
_cell_angle_beta 90
_cell_angle_gamma 120
_space_group_name_H-M_alt 'P 1'
_space_group_name_Hall 'P 1'
loop_
    _symmetry_equiv_pos_as_xyz
    x,y,z
loop_
    _atom_site_label
    _atom_site_type_symbol
    _atom_site_fract_x
    _atom_site_fract_y
    _atom_site_fract_z
    _atom_site_occupancy
    C1       C        0.17260    0.42740    0.32140    1.000
    C2       C        0.12380    0.35740    0.27050    1.000
    C3       C        0.16330    0.30630    0.24220    1.000
    H1       H        0.13120    0.26210    0.20710    1.000
    C4       C        0.25230    0.32140    0.26660    1.000
    H2       H        0.27870    0.28650    0.24720    1.000
    C5       C        0.29990    0.38360    0.31640    1.000
    H3       H        0.35810    0.39080    0.33210    1.000
    C6       C        0.26250    0.43980    0.34630    1.000
    C7       C        0.31720    0.51120    0.39680    1.000
    H4       H        0.37510    0.51620    0.41130    1.000
    C8       C        0.35390    0.65090    0.46740    1.000
    H5       H        0.40970    0.64550    0.48200    1.000
    C9       C        0.38980    0.74360    0.42700    1.000
    H6       H        0.43020    0.74380    0.38970    1.000
    H7       H        0.33460    0.74420    0.40680    1.000
    C10      C        0.44650    0.83430    0.46850    1.000
    H8       H        0.46230    0.89010    0.43990    1.000
    H9       H        0.50650    0.83900    0.48370    1.000
    C11      C        0.97840    0.27520    0.20380    1.000
    H10      H        0.01940    0.26870    0.17070    1.000
    H11      H        0.93640    0.29300    0.18070    1.000
    H12      H        0.94020    0.21480    0.22720    1.000
    N1       N        0.29270    0.56850    0.42360    1.000
    O1       O        0.14100    0.48230    0.34262    1.000
    O2       O        0.03700    0.34890    0.25310    1.000
    O3       O        0.92350    0.47000    0.46000    1.000
    H13      H        0.24500    0.55600    0.41500    1.000
    C12      C        0.57260    0.74520    0.65473    1.000
    C13      C        0.64260    0.76640    0.60383    1.000
    C14      C        0.69370    0.85700    0.57553    1.000
    H14      H        0.73790    0.86910    0.54043    1.000
    C15      C        0.67860    0.93090    0.59993    1.000
    H15      H        0.71350    0.99220    0.58053    1.000
    C16      C        0.61640    0.91630    0.64973    1.000
    H16      H        0.60920    0.96730    0.66543    1.000
    C17      C        0.56020    0.82270    0.67963    1.000
    C18      C        0.48880    0.80600    0.73013    1.000
    H17      H        0.48380    0.85890    0.74463    1.000
    C19      C        0.34910    0.70300    0.80073    1.000
    H18      H        0.35450    0.76420    0.81533    1.000
    C20      C        0.25640    0.64620    0.76033    1.000
    H19      H        0.25620    0.68640    0.72303    1.000
    H20      H        0.25580    0.59040    0.74013    1.000
    C21      C        0.16570    0.61220    0.80183    1.000
    H21      H        0.10990    0.57220    0.77323    1.000
    H22      H        0.16100    0.66750    0.81703    1.000
    C22      C        0.72480    0.70320    0.53713    1.000
    H23      H        0.73130    0.75070    0.50403    1.000
    H24      H        0.70700    0.64340    0.51403    1.000
    H25      H        0.78520    0.72540    0.56053    1.000
    N2       N        0.43150    0.72420    0.75693    1.000
    O4       O        0.51770    0.65870    0.67595    1.000
    O5       O        0.65110    0.68810    0.58643    1.000
    O6       O        0.53000    0.45350    0.79333    1.000
    H26      H        0.44400    0.68900    0.74833    1.000
    C23      C        0.25480    0.82740    0.98807    1.000
    C24      C        0.23360    0.87620    0.93717    1.000
    C25      C        0.14300    0.83670    0.90887    1.000
    H27      H        0.13090    0.86880    0.87377    1.000
    C26      C        0.06910    0.74770    0.93327    1.000
    H28      H        0.00780    0.72130    0.91387    1.000
    C27      C        0.08370    0.70010    0.98307    1.000
    H29      H        0.03270    0.64190    0.99877    1.000
    C28      C        0.17730    0.73750    0.01297    1.000
    C29      C        0.19400    0.68280    0.06347    1.000
    H30      H        0.14110    0.62490    0.07797    1.000
    C30      C        0.29700    0.64610    0.13407    1.000
    H31      H        0.23580    0.59030    0.14867    1.000
    C31      C        0.35380    0.61020    0.09367    1.000
    H32      H        0.31360    0.56980    0.05637    1.000
    H33      H        0.40960    0.66540    0.07347    1.000
    C32      C        0.38780    0.55350    0.13517    1.000
    H34      H        0.42780    0.53770    0.10657    1.000
    H35      H        0.33250    0.49350    0.15037    1.000
    C33      C        0.29680    0.02160    0.87047    1.000
    H36      H        0.24930    0.98060    0.83737    1.000
    H37      H        0.35660    0.06360    0.84737    1.000
    H38      H        0.27460    0.05980    0.89387    1.000
    N3       N        0.27580    0.70730    0.09027    1.000
    O7       O        0.34130    0.85900    0.00929    1.000
    O8       O        0.31190    0.96300    0.91977    1.000
    O9       O        0.54650    0.07650    0.12667    1.000
    H39      H        0.31100    0.75500    0.08167    1.000
    C34      C        0.82740    0.57260    0.32140    1.000
    C35      C        0.87620    0.64260    0.27050    1.000
    C36      C        0.83670    0.69370    0.24220    1.000
    H40      H        0.86880    0.73790    0.20710    1.000
    C37      C        0.74770    0.67860    0.26660    1.000
    H41      H        0.72130    0.71350    0.24720    1.000
    C38      C        0.70010    0.61640    0.31640    1.000
    H42      H        0.64190    0.60920    0.33210    1.000
    C39      C        0.73750    0.56020    0.34630    1.000
    C40      C        0.68280    0.48880    0.39680    1.000
    H43      H        0.62490    0.48380    0.41130    1.000
    C41      C        0.64610    0.34910    0.46740    1.000
    H44      H        0.59030    0.35450    0.48200    1.000
    C42      C        0.61020    0.25640    0.42700    1.000
    H45      H        0.56980    0.25620    0.38970    1.000
    H46      H        0.66540    0.25580    0.40680    1.000
    C43      C        0.55350    0.16570    0.46850    1.000
    H47      H        0.53770    0.10990    0.43990    1.000
    H48      H        0.49350    0.16100    0.48370    1.000
    C44      C        0.02160    0.72480    0.20380    1.000
    H49      H        0.98060    0.73130    0.17070    1.000
    H50      H        0.06360    0.70700    0.18070    1.000
    H51      H        0.05980    0.78520    0.22720    1.000
    N4       N        0.70730    0.43150    0.42360    1.000
    O10      O        0.85900    0.51770    0.34262    1.000
    O11      O        0.96300    0.65110    0.25310    1.000
    O12      O        0.07650    0.53000    0.46000    1.000
    H52      H        0.75500    0.44400    0.41500    1.000
    C45      C        0.42740    0.25480    0.65473    1.000
    C46      C        0.35740    0.23360    0.60383    1.000
    C47      C        0.30630    0.14300    0.57553    1.000
    H53      H        0.26210    0.13090    0.54043    1.000
    C48      C        0.32140    0.06910    0.59993    1.000
    H54      H        0.28650    0.00780    0.58053    1.000
    C49      C        0.38360    0.08370    0.64973    1.000
    H55      H        0.39080    0.03270    0.66543    1.000
    C50      C        0.43980    0.17730    0.67963    1.000
    C51      C        0.51120    0.19400    0.73013    1.000
    H56      H        0.51620    0.14110    0.74463    1.000
    C52      C        0.65090    0.29700    0.80073    1.000
    H57      H        0.64550    0.23580    0.81533    1.000
    C53      C        0.74360    0.35380    0.76033    1.000
    H58      H        0.74380    0.31360    0.72303    1.000
    H59      H        0.74420    0.40960    0.74013    1.000
    C54      C        0.83430    0.38780    0.80183    1.000
    H60      H        0.89010    0.42780    0.77323    1.000
    H61      H        0.83900    0.33250    0.81703    1.000
    C55      C        0.27520    0.29680    0.53713    1.000
    H62      H        0.26870    0.24930    0.50403    1.000
    H63      H        0.29300    0.35660    0.51403    1.000
    H64      H        0.21480    0.27460    0.56053    1.000
    N5       N        0.56850    0.27580    0.75693    1.000
    O13      O        0.48230    0.34130    0.67595    1.000
    O14      O        0.34890    0.31190    0.58643    1.000
    O15      O        0.47000    0.54650    0.79333    1.000
    H65      H        0.55600    0.31100    0.74833    1.000
    C56      C        0.74520    0.17260    0.98807    1.000
    C57      C        0.76640    0.12380    0.93717    1.000
    C58      C        0.85700    0.16330    0.90887    1.000
    H66      H        0.86910    0.13120    0.87377    1.000
    C59      C        0.93090    0.25230    0.93327    1.000
    H67      H        0.99220    0.27870    0.91387    1.000
    C60      C        0.91630    0.29990    0.98307    1.000
    H68      H        0.96730    0.35810    0.99877    1.000
    C61      C        0.82270    0.26250    0.01297    1.000
    C62      C        0.80600    0.31720    0.06347    1.000
    H69      H        0.85890    0.37510    0.07797    1.000
    C63      C        0.70300    0.35390    0.13407    1.000
    H70      H        0.76420    0.40970    0.14867    1.000
    C64      C        0.64620    0.38980    0.09367    1.000
    H71      H        0.68640    0.43020    0.05637    1.000
    H72      H        0.59040    0.33460    0.07347    1.000
    C65      C        0.61220    0.44650    0.13517    1.000
    H73      H        0.57220    0.46230    0.10657    1.000
    H74      H        0.66750    0.50650    0.15037    1.000
    C66      C        0.70320    0.97840    0.87047    1.000
    H75      H        0.75070    0.01940    0.83737    1.000
    H76      H        0.64340    0.93640    0.84737    1.000
    H77      H        0.72540    0.94020    0.89387    1.000
    N6       N        0.72420    0.29270    0.09027    1.000
    O16      O        0.65870    0.14100    0.00929    1.000
    O17      O        0.68810    0.03700    0.91977    1.000
    O18      O        0.45350    0.92350    0.12667    1.000
    H78      H        0.68900    0.24500    0.08167    1.000
    C67      C        0.42740    0.17260    0.01193    1.000
    C68      C        0.35740    0.12380    0.06283    1.000
    C69      C        0.30630    0.16330    0.09113    1.000
    H79      H        0.26210    0.13120    0.12623    1.000
    C70      C        0.32140    0.25230    0.06673    1.000
    H80      H        0.28650    0.27870    0.08613    1.000
    C71      C        0.38360    0.29990    0.01693    1.000
    H81      H        0.39080    0.35810    0.00123    1.000
    C72      C        0.43980    0.26250    0.98703    1.000
    C73      C        0.51120    0.31720    0.93653    1.000
    H82      H        0.51620    0.37510    0.92203    1.000
    C74      C        0.65090    0.35390    0.86593    1.000
    H83      H        0.64550    0.40970    0.85133    1.000
    C75      C        0.74360    0.38980    0.90633    1.000
    H84      H        0.74380    0.43020    0.94363    1.000
    H85      H        0.74420    0.33460    0.92653    1.000
    C76      C        0.83430    0.44650    0.86483    1.000
    H86      H        0.89010    0.46230    0.89343    1.000
    H87      H        0.83900    0.50650    0.84963    1.000
    C77      C        0.27520    0.97840    0.12953    1.000
    H88      H        0.26870    0.01940    0.16263    1.000
    H89      H        0.29300    0.93640    0.15263    1.000
    H90      H        0.21480    0.94020    0.10613    1.000
    N7       N        0.56850    0.29270    0.90973    1.000
    O19      O        0.48230    0.14100    0.99071    1.000
    O20      O        0.34890    0.03700    0.08023    1.000
    O21      O        0.47000    0.92350    0.87333    1.000
    H91      H        0.55600    0.24500    0.91833    1.000
    C78      C        0.74520    0.57260    0.67860    1.000
    C79      C        0.76640    0.64260    0.72950    1.000
    C80      C        0.85700    0.69370    0.75780    1.000
    H92      H        0.86910    0.73790    0.79290    1.000
    C81      C        0.93090    0.67860    0.73340    1.000
    H93      H        0.99220    0.71350    0.75280    1.000
    C82      C        0.91630    0.61640    0.68360    1.000
    H94      H        0.96730    0.60920    0.66790    1.000
    C83      C        0.82270    0.56020    0.65370    1.000
    C84      C        0.80600    0.48880    0.60320    1.000
    H95      H        0.85890    0.48380    0.58870    1.000
    C85      C        0.70300    0.34910    0.53260    1.000
    H96      H        0.76420    0.35450    0.51800    1.000
    C86      C        0.64620    0.25640    0.57300    1.000
    H97      H        0.68640    0.25620    0.61030    1.000
    H98      H        0.59040    0.25580    0.59320    1.000
    C87      C        0.61220    0.16570    0.53150    1.000
    H99      H        0.57220    0.10990    0.56010    1.000
    H100     H        0.66750    0.16100    0.51630    1.000
    C88      C        0.70320    0.72480    0.79620    1.000
    H101     H        0.75070    0.73130    0.82930    1.000
    H102     H        0.64340    0.70700    0.81930    1.000
    H103     H        0.72540    0.78520    0.77280    1.000
    N8       N        0.72420    0.43150    0.57640    1.000
    O22      O        0.65870    0.51770    0.65738    1.000
    O23      O        0.68810    0.65110    0.74690    1.000
    O24      O        0.45350    0.53000    0.54000    1.000
    H104     H        0.68900    0.44400    0.58500    1.000
    C89      C        0.82740    0.25480    0.34527    1.000
    C90      C        0.87620    0.23360    0.39617    1.000
    C91      C        0.83670    0.14300    0.42447    1.000
    H105     H        0.86880    0.13090    0.45957    1.000
    C92      C        0.74770    0.06910    0.40007    1.000
    H106     H        0.72130    0.00780    0.41947    1.000
    C93      C        0.70010    0.08370    0.35027    1.000
    H107     H        0.64190    0.03270    0.33457    1.000
    C94      C        0.73750    0.17730    0.32037    1.000
    C95      C        0.68280    0.19400    0.26987    1.000
    H108     H        0.62490    0.14110    0.25537    1.000
    C96      C        0.64610    0.29700    0.19927    1.000
    H109     H        0.59030    0.23580    0.18467    1.000
    C97      C        0.61020    0.35380    0.23967    1.000
    H110     H        0.56980    0.31360    0.27697    1.000
    H111     H        0.66540    0.40960    0.25987    1.000
    C98      C        0.55350    0.38780    0.19817    1.000
    H112     H        0.53770    0.42780    0.22677    1.000
    H113     H        0.49350    0.33250    0.18297    1.000
    C99      C        0.02160    0.29680    0.46287    1.000
    H114     H        0.98060    0.24930    0.49597    1.000
    H115     H        0.06360    0.35660    0.48597    1.000
    H116     H        0.05980    0.27460    0.43947    1.000
    N9       N        0.70730    0.27580    0.24307    1.000
    O25      O        0.85900    0.34130    0.32405    1.000
    O26      O        0.96300    0.31190    0.41357    1.000
    O27      O        0.07650    0.54650    0.20667    1.000
    H117     H        0.75500    0.31100    0.25167    1.000
    C100     C        0.57260    0.82740    0.01193    1.000
    C101     C        0.64260    0.87620    0.06283    1.000
    C102     C        0.69370    0.83670    0.09113    1.000
    H118     H        0.73790    0.86880    0.12623    1.000
    C103     C        0.67860    0.74770    0.06673    1.000
    H119     H        0.71350    0.72130    0.08613    1.000
    C104     C        0.61640    0.70010    0.01693    1.000
    H120     H        0.60920    0.64190    0.00123    1.000
    C105     C        0.56020    0.73750    0.98703    1.000
    C106     C        0.48880    0.68280    0.93653    1.000
    H121     H        0.48380    0.62490    0.92203    1.000
    C107     C        0.34910    0.64610    0.86593    1.000
    H122     H        0.35450    0.59030    0.85133    1.000
    C108     C        0.25640    0.61020    0.90633    1.000
    H123     H        0.25620    0.56980    0.94363    1.000
    H124     H        0.25580    0.66540    0.92653    1.000
    C109     C        0.16570    0.55350    0.86483    1.000
    H125     H        0.10990    0.53770    0.89343    1.000
    H126     H        0.16100    0.49350    0.84963    1.000
    C110     C        0.72480    0.02160    0.12953    1.000
    H127     H        0.73130    0.98060    0.16263    1.000
    H128     H        0.70700    0.06360    0.15263    1.000
    H129     H        0.78520    0.05980    0.10613    1.000
    N10      N        0.43150    0.70730    0.90973    1.000
    O28      O        0.51770    0.85900    0.99071    1.000
    O29      O        0.65110    0.96300    0.08023    1.000
    O30      O        0.53000    0.07650    0.87333    1.000
    H130     H        0.44400    0.75500    0.91833    1.000
    C111     C        0.25480    0.42740    0.67860    1.000
    C112     C        0.23360    0.35740    0.72950    1.000
    C113     C        0.14300    0.30630    0.75780    1.000
    H131     H        0.13090    0.26210    0.79290    1.000
    C114     C        0.06910    0.32140    0.73340    1.000
    H132     H        0.00780    0.28650    0.75280    1.000
    C115     C        0.08370    0.38360    0.68360    1.000
    H133     H        0.03270    0.39080    0.66790    1.000
    C116     C        0.17730    0.43980    0.65370    1.000
    C117     C        0.19400    0.51120    0.60320    1.000
    H134     H        0.14110    0.51620    0.58870    1.000
    C118     C        0.29700    0.65090    0.53260    1.000
    H135     H        0.23580    0.64550    0.51800    1.000
    C119     C        0.35380    0.74360    0.57300    1.000
    H136     H        0.31360    0.74380    0.61030    1.000
    H137     H        0.40960    0.74420    0.59320    1.000
    C120     C        0.38780    0.83430    0.53150    1.000
    H138     H        0.42780    0.89010    0.56010    1.000
    H139     H        0.33250    0.83900    0.51630    1.000
    C121     C        0.29680    0.27520    0.79620    1.000
    H140     H        0.24930    0.26870    0.82930    1.000
    H141     H        0.35660    0.29300    0.81930    1.000
    H142     H        0.27460    0.21480    0.77280    1.000
    N11      N        0.27580    0.56850    0.57640    1.000
    O31      O        0.34130    0.48230    0.65738    1.000
    O32      O        0.31190    0.34890    0.74690    1.000
    O33      O        0.54650    0.47000    0.54000    1.000
    H143     H        0.31100    0.55600    0.58500    1.000
    C122     C        0.17260    0.74520    0.34527    1.000
    C123     C        0.12380    0.76640    0.39617    1.000
    C124     C        0.16330    0.85700    0.42447    1.000
    H144     H        0.13120    0.86910    0.45957    1.000
    C125     C        0.25230    0.93090    0.40007    1.000
    H145     H        0.27870    0.99220    0.41947    1.000
    C126     C        0.29990    0.91630    0.35027    1.000
    H146     H        0.35810    0.96730    0.33457    1.000
    C127     C        0.26250    0.82270    0.32037    1.000
    C128     C        0.31720    0.80600    0.26987    1.000
    H147     H        0.37510    0.85890    0.25537    1.000
    C129     C        0.35390    0.70300    0.19927    1.000
    H148     H        0.40970    0.76420    0.18467    1.000
    C130     C        0.38980    0.64620    0.23967    1.000
    H149     H        0.43020    0.68640    0.27697    1.000
    H150     H        0.33460    0.59040    0.25987    1.000
    C131     C        0.44650    0.61220    0.19817    1.000
    H151     H        0.46230    0.57220    0.22677    1.000
    H152     H        0.50650    0.66750    0.18297    1.000
    C132     C        0.97840    0.70320    0.46287    1.000
    H153     H        0.01940    0.75070    0.49597    1.000
    H154     H        0.93640    0.64340    0.48597    1.000
    H155     H        0.94020    0.72540    0.43947    1.000
    N12      N        0.29270    0.72420    0.24307    1.000
    O34      O        0.14100    0.65870    0.32405    1.000
    O35      O        0.03700    0.68810    0.41357    1.000
    O36      O        0.92350    0.45350    0.20667    1.000
    H156     H        0.24500    0.68900    0.25167    1.000
    Ce1      Ce       0.00000    0.50000    0.33333    1.000
    Ce2      Ce       0.50000    0.50000    0.66667    1.000
    Ce3      Ce       0.50000    0.00000    0.00000    1.000
    N13      N        0.00000    0.50000    0.49270    1.000
    O37      O        0.00000    0.50000    0.55590    1.000
    N14      N        0.50000    0.50000    0.82603    1.000
    O38      O        0.50000    0.50000    0.88923    1.000
    N15      N        0.50000    0.00000    0.15937    1.000
    O39      O        0.50000    0.00000    0.22257    1.000
    N16      N        0.50000    0.00000    0.84063    1.000
    O40      O        0.50000    0.00000    0.77743    1.000
    N17      N        0.50000    0.50000    0.50730    1.000
    O41      O        0.50000    0.50000    0.44410    1.000
    N18      N        0.00000    0.50000    0.17397    1.000
    O42      O        0.00000    0.50000    0.11077    1.000
