data_functionalizedCrystal
_audit_creation_method	'EQeq! by Chris Wilmer'
_symmetry_space_group_name_H-M	'P1'
_symmetry_Int_Tables_number	1
_symmetry_cell_setting	triclinic
loop_
_symmetry_equiv_pos_as_xyz
  x,y,z
_cell_length_a	10.8984
_cell_length_b	11.426
_cell_length_c	15.059
_cell_angle_alpha	90
_cell_angle_beta	90
_cell_angle_gamma	90
loop_
_atom_site_label
_atom_site_type_symbol
_atom_site_fract_x
_atom_site_fract_y
_atom_site_fract_z
_atom_site_charge
Mof_O 	O 	0.3328	0.2513	0.2077	-0.183
Mof_O 	O 	0.3754	0.0837	0.4132	-0.285
Mof_O 	O 	0.1703	0.9811	0.3394	-0.178
Mof_O 	O 	0.1694	0.9823	0.1398	-0.133
Mof_O 	O 	0.317	0.295	0.0241	-0.329
Mof_C 	C 	0.3166	0.1303	0.3357	0.044
Mof_C 	C 	0.2889	0.1618	0.1475	0.007
Mof_C 	C 	0.2011	0.0788	0.1959	0.02
Mof_C 	C 	0.2596	0.0335	0.2814	-0.107
Mof_C 	C 	0.2291	0.2253	0.0708	0.072
Mof_C 	C 	0.4005	0.2063	0.2803	0.162
Mof_H 	H 	0.2519	0.179	0.3561	0.023
Mof_H 	H 	0.3566	0.118	0.1256	0.05
Mof_H 	H 	0.1278	0.1208	0.2106	0.038
Mof_H 	H 	0.321	0.9772	0.2667	0.14
Mof_H 	H 	0.4304	0.2695	0.3155	0.029
Mof_H 	H 	0.1651	0.2747	0.0931	0.003
Mof_H 	H 	0.1936	0.1697	0.0312	-0.012
Mof_O 	O 	0.8328	0.7513	0.2077	-0.188
Mof_O 	O 	0.8754	0.5837	0.4132	-0.266
Mof_O 	O 	0.6703	0.4811	0.3394	-0.271
Mof_O 	O 	0.6694	0.4823	0.1398	-0.186
Mof_O 	O 	0.817	0.795	0.0241	-0.302
Mof_C 	C 	0.8166	0.6303	0.3357	-0.011
Mof_C 	C 	0.7889	0.6618	0.1475	0.018
Mof_C 	C 	0.7011	0.5788	0.1959	0.024
Mof_C 	C 	0.7596	0.5335	0.2814	0.067
Mof_C 	C 	0.7291	0.7253	0.0708	0.053
Mof_C 	C 	0.9005	0.7063	0.2803	0.166
Mof_H 	H 	0.7519	0.679	0.3561	0.04
Mof_H 	H 	0.8566	0.618	0.1256	0.054
Mof_H 	H 	0.6278	0.6208	0.2106	0.044
Mof_H 	H 	0.821	0.4772	0.2667	0.039
Mof_H 	H 	0.9304	0.7695	0.3155	0.024
Mof_H 	H 	0.6651	0.7747	0.0931	0.016
Mof_H 	H 	0.6936	0.6697	0.0312	0.001
Mof_O 	O 	0.6672	0.7487	0.7077	-0.198
Mof_O 	O 	0.6246	0.9163	0.9132	-0.136
Mof_O 	O 	0.8297	0.0189	0.8394	-0.285
Mof_O 	O 	0.8306	0.0177	0.6398	-0.204
Mof_O 	O 	0.683	0.705	0.5241	-0.292
Mof_C 	C 	0.6834	0.8697	0.8357	-0.089
Mof_C 	C 	0.7111	0.8382	0.6475	0.027
Mof_C 	C 	0.7989	0.9212	0.6959	0.028
Mof_C 	C 	0.7404	0.9665	0.7814	0.228
Mof_C 	C 	0.7709	0.7747	0.5708	0.046
Mof_C 	C 	0.5995	0.7937	0.7803	0.219
Mof_H 	H 	0.7481	0.821	0.8561	0.096
Mof_H 	H 	0.6434	0.882	0.6256	0.081
Mof_H 	H 	0.8722	0.8792	0.7106	0.055
Mof_H 	H 	0.679	0.0228	0.7667	-0.037
Mof_H 	H 	0.5696	0.7305	0.8155	0.02
Mof_H 	H 	0.8349	0.7253	0.5931	0.02
Mof_H 	H 	0.8064	0.8303	0.5312	0.045
Mof_O 	O 	0.1672	0.2487	0.7077	-0.187
Mof_O 	O 	0.1246	0.4163	0.9132	-0.18
Mof_O 	O 	0.3297	0.5189	0.8394	-0.227
Mof_O 	O 	0.3306	0.5177	0.6398	-0.16
Mof_O 	O 	0.183	0.205	0.5241	-0.283
Mof_C 	C 	0.1834	0.3697	0.8357	-0.029
Mof_C 	C 	0.2111	0.3382	0.6475	0.022
Mof_C 	C 	0.2989	0.4212	0.6959	0.021
Mof_C 	C 	0.2404	0.4665	0.7814	0.069
Mof_C 	C 	0.2709	0.2747	0.5708	0.046
Mof_C 	C 	0.0995	0.2937	0.7803	0.189
Mof_H 	H 	0.2481	0.321	0.8561	0.072
Mof_H 	H 	0.1434	0.382	0.6256	0.074
Mof_H 	H 	0.3722	0.3792	0.7106	0.049
Mof_H 	H 	0.179	0.5228	0.7667	0.052
Mof_H 	H 	0.0696	0.2305	0.8155	0.035
Mof_H 	H 	0.3349	0.2253	0.5931	0.02
Mof_H 	H 	0.3064	0.3303	0.5312	0.037
Mof_O 	O 	0.6672	0.2513	0.2923	-0.183
Mof_O 	O 	0.6246	0.0837	0.0868	-0.307
Mof_O 	O 	0.8297	0.9811	0.1606	-0.172
Mof_O 	O 	0.8306	0.9823	0.3602	-0.122
Mof_O 	O 	0.683	0.295	0.4759	-0.299
Mof_C 	C 	0.6834	0.1303	0.1643	0.059
Mof_C 	C 	0.7111	0.1618	0.3525	0.009
Mof_C 	C 	0.7989	0.0788	0.3041	0.026
Mof_C 	C 	0.7404	0.0335	0.2186	-0.12
Mof_C 	C 	0.7709	0.2253	0.4292	0.059
Mof_C 	C 	0.5995	0.2063	0.2197	0.156
Mof_H 	H 	0.7481	0.179	0.1439	0.002
Mof_H 	H 	0.6434	0.118	0.3744	0.062
Mof_H 	H 	0.8722	0.1208	0.2894	0.029
Mof_H 	H 	0.679	0.9772	0.2333	0.148
Mof_H 	H 	0.5696	0.2695	0.1845	0.023
Mof_H 	H 	0.8349	0.2747	0.4069	0.011
Mof_H 	H 	0.8064	0.1697	0.4688	0.021
Mof_O 	O 	0.1672	0.7513	0.2923	-0.186
Mof_O 	O 	0.1246	0.5837	0.0868	-0.277
Mof_O 	O 	0.3297	0.4811	0.1606	-0.259
Mof_O 	O 	0.3306	0.4823	0.3602	-0.161
Mof_O 	O 	0.183	0.795	0.4759	-0.266
Mof_C 	C 	0.1834	0.6303	0.1643	-0.002
Mof_C 	C 	0.2111	0.6618	0.3525	0.024
Mof_C 	C 	0.2989	0.5788	0.3041	0.024
Mof_C 	C 	0.2404	0.5335	0.2186	0.06
Mof_C 	C 	0.2709	0.7253	0.4292	0.034
Mof_C 	C 	0.0995	0.7063	0.2197	0.176
Mof_H 	H 	0.2481	0.679	0.1439	0.024
Mof_H 	H 	0.1434	0.618	0.3744	0.073
Mof_H 	H 	0.3722	0.6208	0.2894	0.045
Mof_H 	H 	0.179	0.4772	0.2333	0.05
Mof_H 	H 	0.0696	0.7695	0.1845	0.026
Mof_H 	H 	0.3349	0.7747	0.4069	0.03
Mof_H 	H 	0.3064	0.6697	0.4688	0.041
Mof_O 	O 	0.3328	0.7487	0.7923	-0.202
Mof_O 	O 	0.3754	0.9163	0.5868	-0.209
Mof_O 	O 	0.1703	0.0189	0.6606	-0.325
Mof_O 	O 	0.1694	0.0177	0.8602	-0.158
Mof_O 	O 	0.317	0.705	0.9759	-0.189
Mof_C 	C 	0.3166	0.8697	0.6643	-0.081
Mof_C 	C 	0.2889	0.8382	0.8525	0.07
Mof_C 	C 	0.2011	0.9212	0.8041	0
Mof_C 	C 	0.2596	0.9665	0.7186	0.242
Mof_C 	C 	0.2291	0.7747	0.9292	-0.036
Mof_C 	C 	0.4005	0.7937	0.7197	0.218
Mof_H 	H 	0.2519	0.821	0.6439	0.069
Mof_H 	H 	0.3566	0.882	0.8744	0.08
Mof_H 	H 	0.1278	0.8792	0.7894	0.074
Mof_H 	H 	0.321	0.0228	0.7333	-0.042
Mof_H 	H 	0.4304	0.7305	0.6845	0.011
Mof_H 	H 	0.1651	0.7253	0.9069	0.074
Mof_H 	H 	0.1936	0.8303	0.9688	0.114
Mof_O 	O 	0.8328	0.2487	0.7923	-0.194
Mof_O 	O 	0.8754	0.4163	0.5868	-0.266
Mof_O 	O 	0.6703	0.5189	0.6606	-0.271
Mof_O 	O 	0.6694	0.5177	0.8602	-0.126
Mof_O 	O 	0.817	0.205	0.9759	-0.187
Mof_C 	C 	0.8166	0.3697	0.6643	-0.015
Mof_C 	C 	0.7889	0.3382	0.8525	0.061
Mof_C 	C 	0.7011	0.4212	0.8041	0.001
Mof_C 	C 	0.7596	0.4665	0.7186	0.075
Mof_C 	C 	0.7291	0.2747	0.9292	-0.031
Mof_C 	C 	0.9005	0.2937	0.7197	0.171
Mof_H 	H 	0.7519	0.321	0.6439	0.039
Mof_H 	H 	0.8566	0.382	0.8744	0.066
Mof_H 	H 	0.6278	0.3792	0.7894	0.058
Mof_H 	H 	0.821	0.5228	0.7333	0.044
Mof_H 	H 	0.9304	0.2305	0.6845	0.019
Mof_H 	H 	0.6651	0.2253	0.9069	0.068
Mof_H 	H 	0.6936	0.3303	0.9688	0.101
Mof_Ca	Ca	0.20585	0	0.5	1.252
Mof_Ca	Ca	0.70585	0.5	0.5	1.357
Mof_Ca	Ca	0.79415	0	-0	1.001
Mof_Ca	Ca	0.29415	0.5	-0	1.132
Mof_O 	O 	0.5	0.1382	0.25	-0.228
Mof_O 	O 	-5.43561e-33	0.6382	0.25	-0.203
Mof_O 	O 	0.5	0.8618	0.75	-0.217
Mof_O 	O 	-9.57604e-33	0.3618	0.75	-0.202
_end
