# CIF file generated by openbabel 3.1.0, see https://openbabel.org
data_I
_chemical_name_common 'image0'
_cell_length_a 12.746
_cell_length_b 12.746
_cell_length_c 9.14
_cell_angle_alpha 90
_cell_angle_beta 90
_cell_angle_gamma 120
_space_group_name_H-M_alt 'P 1'
_space_group_name_Hall 'P 1'
loop_
    _symmetry_equiv_pos_as_xyz
    x,y,z
loop_
    _atom_site_label
    _atom_site_type_symbol
    _atom_site_fract_x
    _atom_site_fract_y
    _atom_site_fract_z
    _atom_site_occupancy
    Al1      Al       0.67320    0.53040    0.41720    1.000
    P1       P        0.45530    0.32170    0.61760    1.000
    O1       O        0.55970    0.42140    0.53020    1.000
    O2       O        0.39980    0.20780    0.52290    1.000
    O3       O        0.36030    0.35930    0.64170    1.000
    O4       O        0.68090    0.45250    0.26000    1.000
    O5       O        0.50050    0.30510    0.76170    1.000
    Al2      Al       0.46960    0.14280    0.41720    1.000
    P2       P        0.67830    0.13360    0.61760    1.000
    O6       O        0.57860    0.13830    0.53020    1.000
    O7       O        0.79220    0.19200    0.52290    1.000
    O8       O        0.64070    0.00100    0.64170    1.000
    O9       O        0.54750    0.22840    0.26000    1.000
    O10      O        0.69490    0.19540    0.76170    1.000
    Al3      Al       0.85720    0.32680    0.41720    1.000
    P3       P        0.86640    0.54470    0.61760    1.000
    O11      O        0.86170    0.44030    0.53020    1.000
    O12      O        0.80800    0.60020    0.52290    1.000
    O13      O        0.99900    0.63970    0.64170    1.000
    O14      O        0.77160    0.31910    0.26000    1.000
    O15      O        0.80460    0.49950    0.76170    1.000
    Al4      Al       0.32680    0.46960    0.58280    1.000
    P4       P        0.54470    0.67830    0.38240    1.000
    O16      O        0.44030    0.57860    0.46980    1.000
    O17      O        0.60020    0.79220    0.47710    1.000
    O18      O        0.63970    0.64070    0.35830    1.000
    O19      O        0.31910    0.54750    0.74000    1.000
    O20      O        0.49950    0.69490    0.23830    1.000
    Al5      Al       0.53040    0.85720    0.58280    1.000
    P5       P        0.32170    0.86640    0.38240    1.000
    O21      O        0.42140    0.86170    0.46980    1.000
    O22      O        0.20780    0.80800    0.47710    1.000
    O23      O        0.35930    0.99900    0.35830    1.000
    O24      O        0.45250    0.77160    0.74000    1.000
    O25      O        0.30510    0.80460    0.23830    1.000
    Al6      Al       0.14280    0.67320    0.58280    1.000
    P6       P        0.13360    0.45530    0.38240    1.000
    O26      O        0.13830    0.55970    0.46980    1.000
    O27      O        0.19200    0.39980    0.47710    1.000
    O28      O        0.00100    0.36030    0.35830    1.000
    O29      O        0.22840    0.68090    0.74000    1.000
    O30      O        0.19540    0.50050    0.23830    1.000
    Mn1      Mn       0.66667    0.33333    0.82170    1.000
    P7       P        0.66667    0.33333    0.20190    1.000
    O31      O        0.66667    0.33333    0.04090    1.000
    Mn2      Mn       0.33333    0.66667    0.17830    1.000
    P8       P        0.33333    0.66667    0.79810    1.000
    O32      O        0.33333    0.66667    0.95910    1.000
