data_functionalizedCrystal
_audit_creation_method	'EQeq! by Chris Wilmer'
_symmetry_space_group_name_H-M	'P1'
_symmetry_Int_Tables_number	1
_symmetry_cell_setting	triclinic
loop_
_symmetry_equiv_pos_as_xyz
  x,y,z
_cell_length_a	7.1622
_cell_length_b	9.094
_cell_length_c	9.749
_cell_angle_alpha	105.663
_cell_angle_beta	103.181
_cell_angle_gamma	98.248
loop_
_atom_site_label
_atom_site_type_symbol
_atom_site_fract_x
_atom_site_fract_y
_atom_site_fract_z
_atom_site_charge
Mof_In	In	-0	0.5	-0	1.564
Mof_In	In	0.5	0.5	-0	1.869
Mof_H 	H 	0.508	0.013	0.709	0.09
Mof_H 	H 	0.7671	0.1141	0.5487	0.074
Mof_H 	H 	0.8129	0.0079	0.6496	0.089
Mof_H 	H 	0.0792	0.2825	0.3503	0.1
Mof_H 	H 	0.0565	0.3032	0.5102	0.113
Mof_H 	H 	0.2065	0.5477	0.4118	-0.058
Mof_H 	H 	0.3307	0.4831	0.5277	-0.044
Mof_H 	H 	0.2916	0.1451	0.6037	0.038
Mof_H 	H 	0.4356	0.2001	0.5188	0.043
Mof_H 	H 	0.759	0.277	0.346	-0.023
Mof_H 	H 	0.492	0.987	0.291	0.059
Mof_H 	H 	0.2329	0.8859	0.4513	0.021
Mof_H 	H 	0.1871	0.9921	0.3504	-0.013
Mof_H 	H 	0.9208	0.7175	0.6497	-0.023
Mof_H 	H 	0.9435	0.6968	0.4898	-0.042
Mof_H 	H 	0.7935	0.4523	0.5882	0.157
Mof_H 	H 	0.6693	0.5169	0.4723	0.132
Mof_H 	H 	0.7084	0.8549	0.3963	0.036
Mof_H 	H 	0.5644	0.7999	0.4812	0.036
Mof_H 	H 	0.241	0.723	0.654	0.186
Mof_C 	C 	0.7088	0.0313	0.5813	-0.088
Mof_C 	C 	0.0498	0.3526	0.4331	-0.387
Mof_C 	C 	0.8418	0.377	0.3824	0.117
Mof_C 	C 	0.2025	0.504	0.4918	0.241
Mof_C 	C 	0.801	0.4197	0.2404	0.382
Mof_C 	C 	0.6463	0.2315	0.7927	0.448
Mof_C 	C 	0.5592	0.0868	0.6605	-0.141
Mof_C 	C 	0.3884	0.1147	0.5527	-0.075
Mof_C 	C 	0.2912	0.9687	0.4187	-0.016
Mof_C 	C 	0.9502	0.6474	0.5669	0.312
Mof_C 	C 	0.1582	0.623	0.6176	-0.489
Mof_C 	C 	0.7975	0.496	0.5082	-0.331
Mof_C 	C 	0.199	0.5803	0.7596	0.549
Mof_C 	C 	0.3537	0.7685	0.2073	0.488
Mof_C 	C 	0.4408	0.9132	0.3395	-0.208
Mof_C 	C 	0.6116	0.8853	0.4473	-0.022
Mof_O 	O 	0.7664	0.6146	0.9855	-0.353
Mof_O 	O 	0.5327	0.2762	0.8699	-0.455
Mof_O 	O 	0.6436	0.4644	0.2036	-0.59
Mof_O 	O 	0.8213	0.2988	0.8188	-0.397
Mof_O 	O 	0.9221	0.4041	0.1644	-0.513
Mof_O 	O 	0.2336	0.3854	0.0145	-1.092
Mof_O 	O 	0.4673	0.7238	0.1301	-0.641
Mof_O 	O 	0.3564	0.5356	0.7964	-0.495
Mof_O 	O 	0.1787	0.7012	0.1812	-0.606
Mof_O 	O 	0.0779	0.5959	0.8356	-0.476
Mof_H 	H 	0.7664	0.7288	0.01426	-0.043
Mof_H 	H 	0.2336	0.2712	0.98574	0.477
_end
