data_functionalizedCrystal
_audit_creation_method	'EQeq! by Chris Wilmer'
_symmetry_space_group_name_H-M	'P1'
_symmetry_Int_Tables_number	1
_symmetry_cell_setting	triclinic
loop_
_symmetry_equiv_pos_as_xyz
  x,y,z
_cell_length_a	10.86
_cell_length_b	13.232
_cell_length_c	14.312
_cell_angle_alpha	90
_cell_angle_beta	90
_cell_angle_gamma	90.521
loop_
_atom_site_label
_atom_site_type_symbol
_atom_site_fract_x
_atom_site_fract_y
_atom_site_fract_z
_atom_site_charge
Mof_Eu	Eu	0.25585	0.71487	0.78223	2.608
Mof_Eu	Eu	0.00413	0.86791	0.63842	2.158
Mof_Eu	Eu	0.24415	0.78513	0.28223	2.602
Mof_Eu	Eu	0.49587	0.63209	0.13842	2.19
Mof_Eu	Eu	0.74415	0.28513	0.21777	2.607
Mof_Eu	Eu	0.99587	0.13209	0.36158	2.157
Mof_Eu	Eu	0.75585	0.21487	0.71777	2.602
Mof_Eu	Eu	0.50413	0.36791	0.86158	2.19
Mof_H 	H 	0.122	0.8673	0.0439	0.021
Mof_H 	H 	0.0608	0.4161	0.867	0.019
Mof_H 	H 	0.0327	0.4358	0.6472	0.026
Mof_H 	H 	0.378	0.6327	0.5439	0.02
Mof_H 	H 	0.4392	0.0839	0.367	0.018
Mof_H 	H 	0.4673	0.0642	0.1472	0.024
Mof_H 	H 	0.878	0.1327	0.9561	0.021
Mof_H 	H 	0.9392	0.5839	0.133	0.019
Mof_H 	H 	0.9673	0.5642	0.3528	0.026
Mof_H 	H 	0.622	0.3673	0.4561	0.02
Mof_H 	H 	0.5608	0.9161	0.633	0.018
Mof_H 	H 	0.5327	0.9358	0.8528	0.024
Mof_C 	C 	0.073	0.9212	0.0259	0.035
Mof_C 	C 	0.0354	0.9282	0.9336	-0.072
Mof_C 	C 	0.0392	0.9932	0.093	-0.137
Mof_C 	C 	0.0863	0.8479	0.87	0.361
Mof_C 	C 	0.0904	0.9798	0.1882	0.501
Mof_C 	C 	0.1221	0.5027	0.9716	-0.117
Mof_C 	C 	0.0361	0.4496	0.9209	0.044
Mof_C 	C 	0.0873	0.5556	0.0521	-0.097
Mof_C 	C 	0.2536	0.5074	0.9332	0.517
Mof_C 	C 	0.1807	0.6114	0.1113	0.485
Mof_C 	C 	0.0201	0.4621	0.5877	0.04
Mof_C 	C 	0.9792	0.3979	0.5178	-0.156
Mof_C 	C 	0.0425	0.5622	0.5731	-0.079
Mof_C 	C 	0.0963	0.6211	0.6526	0.348
Mof_C 	C 	0.96	0.2903	0.5468	0.569
Mof_C 	C 	0.427	0.5788	0.5259	0.037
Mof_C 	C 	0.4646	0.5718	0.4336	-0.068
Mof_C 	C 	0.4608	0.5068	0.593	-0.138
Mof_C 	C 	0.4137	0.6521	0.37	0.362
Mof_C 	C 	0.4096	0.5202	0.6882	0.52
Mof_C 	C 	0.3779	0.9973	0.4716	-0.113
Mof_C 	C 	0.4639	0.0504	0.4209	0.048
Mof_C 	C 	0.4127	0.9444	0.5521	-0.103
Mof_C 	C 	0.2464	0.9926	0.4332	0.504
Mof_C 	C 	0.3193	0.8886	0.6113	0.486
Mof_C 	C 	0.4799	0.0379	0.0877	0.044
Mof_C 	C 	0.5208	0.1021	0.0178	-0.156
Mof_C 	C 	0.4575	0.9378	0.0731	-0.084
Mof_C 	C 	0.4037	0.8789	0.1526	0.351
Mof_C 	C 	0.54	0.2097	0.0468	0.58
Mof_C 	C 	0.927	0.0788	0.9741	0.035
Mof_C 	C 	0.9646	0.0718	0.0664	-0.072
Mof_C 	C 	0.9608	0.0068	0.907	-0.137
Mof_C 	C 	0.9137	0.1521	0.13	0.361
Mof_C 	C 	0.9096	0.0202	0.8118	0.501
Mof_C 	C 	0.8779	0.4973	0.0284	-0.117
Mof_C 	C 	0.9639	0.5504	0.0791	0.044
Mof_C 	C 	0.9127	0.4444	0.9479	-0.097
Mof_C 	C 	0.7464	0.4926	0.0668	0.517
Mof_C 	C 	0.8193	0.3886	0.8887	0.485
Mof_C 	C 	0.9799	0.5379	0.4123	0.04
Mof_C 	C 	0.0208	0.6021	0.4822	-0.156
Mof_C 	C 	0.9575	0.4378	0.4269	-0.079
Mof_C 	C 	0.9037	0.3789	0.3474	0.348
Mof_C 	C 	0.04	0.7097	0.4532	0.569
Mof_C 	C 	0.573	0.4212	0.4741	0.037
Mof_C 	C 	0.5354	0.4282	0.5664	-0.068
Mof_C 	C 	0.5392	0.4932	0.407	-0.138
Mof_C 	C 	0.5863	0.3479	0.63	0.362
Mof_C 	C 	0.5904	0.4798	0.3118	0.52
Mof_C 	C 	0.6221	0.0027	0.5284	-0.113
Mof_C 	C 	0.5361	0.9496	0.5791	0.048
Mof_C 	C 	0.5873	0.0556	0.4479	-0.103
Mof_C 	C 	0.7536	0.0074	0.5668	0.504
Mof_C 	C 	0.6807	0.1114	0.3887	0.486
Mof_C 	C 	0.5201	0.9621	0.9123	0.044
Mof_C 	C 	0.4792	0.8979	0.9822	-0.156
Mof_C 	C 	0.5425	0.0622	0.9269	-0.084
Mof_C 	C 	0.5963	0.1211	0.8474	0.351
Mof_C 	C 	0.46	0.7903	0.9532	0.58
Mof_O 	O 	0.1062	0.762	0.9025	-0.516
Mof_O 	O 	0.1189	0.8676	0.7859	-0.682
Mof_O 	O 	0.1077	0.8891	0.2113	-0.624
Mof_O 	O 	0.108	0.0552	0.2398	-0.566
Mof_O 	O 	0.3178	0.4277	0.9411	-0.547
Mof_O 	O 	0.2857	0.584	0.8919	-0.609
Mof_O 	O 	0.1422	0.6689	0.1744	-0.548
Mof_O 	O 	0.2926	0.5929	0.0946	-0.581
Mof_O 	O 	0.1114	0.5805	0.7293	-0.507
Mof_O 	O 	0.1317	0.712	0.6386	-0.676
Mof_O 	O 	0.902	0.2789	0.6195	-0.65
Mof_O 	O 	0.0121	0.2199	0.5026	-0.579
Mof_O 	O 	0.3938	0.738	0.4025	-0.514
Mof_O 	O 	0.3811	0.6324	0.2859	-0.683
Mof_O 	O 	0.3923	0.6109	0.7113	-0.628
Mof_O 	O 	0.392	0.4448	0.7398	-0.588
Mof_O 	O 	0.1822	0.0723	0.4411	-0.532
Mof_O 	O 	0.2143	0.916	0.3919	-0.606
Mof_O 	O 	0.3578	0.8311	0.6744	-0.548
Mof_O 	O 	0.2074	0.9071	0.5946	-0.579
Mof_O 	O 	0.3886	0.9195	0.2293	-0.509
Mof_O 	O 	0.3683	0.788	0.1386	-0.678
Mof_O 	O 	0.598	0.2211	0.1195	-0.653
Mof_O 	O 	0.4879	0.2801	0.0026	-0.594
Mof_O 	O 	0.8938	0.238	0.0975	-0.516
Mof_O 	O 	0.8811	0.1324	0.2141	-0.682
Mof_O 	O 	0.8923	0.1109	0.7887	-0.624
Mof_O 	O 	0.892	0.9448	0.7602	-0.566
Mof_O 	O 	0.6822	0.5723	0.0589	-0.547
Mof_O 	O 	0.7143	0.416	0.1081	-0.609
Mof_O 	O 	0.8578	0.3311	0.8256	-0.548
Mof_O 	O 	0.7074	0.4071	0.9054	-0.581
Mof_O 	O 	0.8886	0.4195	0.2707	-0.507
Mof_O 	O 	0.8683	0.288	0.3614	-0.676
Mof_O 	O 	0.098	0.7211	0.3805	-0.65
Mof_O 	O 	0.9879	0.7801	0.4974	-0.579
Mof_O 	O 	0.6062	0.262	0.5975	-0.514
Mof_O 	O 	0.6189	0.3676	0.7141	-0.683
Mof_O 	O 	0.6077	0.3891	0.2887	-0.628
Mof_O 	O 	0.608	0.5552	0.2602	-0.588
Mof_O 	O 	0.8178	0.9277	0.5589	-0.532
Mof_O 	O 	0.7857	0.084	0.6081	-0.606
Mof_O 	O 	0.6422	0.1689	0.3256	-0.548
Mof_O 	O 	0.7926	0.0929	0.4054	-0.579
Mof_O 	O 	0.6114	0.0805	0.7707	-0.509
Mof_O 	O 	0.6317	0.212	0.8614	-0.678
Mof_O 	O 	0.402	0.7789	0.8805	-0.653
Mof_O 	O 	0.5121	0.7199	0.9974	-0.594
_end
