# CIF file generated by openbabel 3.1.0, see https://openbabel.org
data_I
_chemical_name_common 'image0'
_cell_length_a 14.444
_cell_length_b 12.5254
_cell_length_c 13.3074
_cell_angle_alpha 90
_cell_angle_beta 90
_cell_angle_gamma 90
_space_group_name_H-M_alt 'P 1'
_space_group_name_Hall 'P 1'
loop_
    _symmetry_equiv_pos_as_xyz
    x,y,z
loop_
    _atom_site_label
    _atom_site_type_symbol
    _atom_site_fract_x
    _atom_site_fract_y
    _atom_site_fract_z
    _atom_site_occupancy
    Cu1      Cu       0.44843    0.53144    0.06814    1.000
    Cu2      Cu       0.38202    0.14404    0.02119    1.000
    N1       N        0.42930    0.28810    0.01940    1.000
    N2       N        0.32230    0.58740    0.05000    1.000
    C1       C        0.45740    0.37350    0.01350    1.000
    C2       C        0.24600    0.61210    0.04040    1.000
    C3       C        0.47340    0.03440    0.00300    1.000
    N3       N        0.02660    0.53440    0.00300    1.000
    C4       C        0.48810    0.53490    0.20970    1.000
    Cu3      Cu       0.05157    0.96856    0.56814    1.000
    Cu4      Cu       0.11798    0.35596    0.52119    1.000
    N4       N        0.07070    0.21190    0.51940    1.000
    N5       N        0.17770    0.91260    0.55000    1.000
    C5       C        0.04260    0.12650    0.51350    1.000
    C6       C        0.25400    0.88790    0.54040    1.000
    C7       C        0.02660    0.46560    0.50300    1.000
    N6       N        0.47340    0.96560    0.50300    1.000
    C8       C        0.01190    0.96510    0.70970    1.000
    Cu5      Cu       0.55157    0.53144    0.43186    1.000
    Cu6      Cu       0.61798    0.14404    0.47881    1.000
    N7       N        0.57070    0.28810    0.48060    1.000
    N8       N        0.67770    0.58740    0.45000    1.000
    C9       C        0.54260    0.37350    0.48650    1.000
    C10      C        0.75400    0.61210    0.45960    1.000
    C11      C        0.52660    0.03440    0.49700    1.000
    N9       N        0.97340    0.53440    0.49700    1.000
    C12      C        0.51190    0.53490    0.29030    1.000
    Cu7      Cu       0.94843    0.96856    0.93186    1.000
    Cu8      Cu       0.88202    0.35596    0.97881    1.000
    N10      N        0.92930    0.21190    0.98060    1.000
    N11      N        0.82230    0.91260    0.95000    1.000
    C13      C        0.95740    0.12650    0.98650    1.000
    C14      C        0.74600    0.88790    0.95960    1.000
    C15      C        0.97340    0.46560    0.99700    1.000
    N12      N        0.52660    0.96560    0.99700    1.000
    C16      C        0.98810    0.96510    0.79030    1.000
    Cu9      Cu       0.55157    0.46856    0.93186    1.000
    Cu10     Cu       0.61798    0.85596    0.97881    1.000
    N13      N        0.57070    0.71190    0.98060    1.000
    N14      N        0.67770    0.41260    0.95000    1.000
    C17      C        0.54260    0.62650    0.98650    1.000
    C18      C        0.75400    0.38790    0.95960    1.000
    C19      C        0.51190    0.46510    0.79030    1.000
    Cu11     Cu       0.94843    0.03144    0.43186    1.000
    Cu12     Cu       0.88202    0.64404    0.47881    1.000
    N15      N        0.92930    0.78810    0.48060    1.000
    N16      N        0.82230    0.08740    0.45000    1.000
    C20      C        0.95740    0.87350    0.48650    1.000
    C21      C        0.74600    0.11210    0.45960    1.000
    C22      C        0.98810    0.03490    0.29030    1.000
    Cu13     Cu       0.44843    0.46856    0.56814    1.000
    Cu14     Cu       0.38202    0.85596    0.52119    1.000
    N17      N        0.42930    0.71190    0.51940    1.000
    N18      N        0.32230    0.41260    0.55000    1.000
    C23      C        0.45740    0.62650    0.51350    1.000
    C24      C        0.24600    0.38790    0.54040    1.000
    C25      C        0.48810    0.46510    0.70970    1.000
    Cu15     Cu       0.05157    0.03144    0.06814    1.000
    Cu16     Cu       0.11798    0.64404    0.02119    1.000
    N19      N        0.07070    0.78810    0.01940    1.000
    N20      N        0.17770    0.08740    0.05000    1.000
    C26      C        0.04260    0.87350    0.01350    1.000
    C27      C        0.25400    0.11210    0.04040    1.000
    C28      C        0.01190    0.03490    0.20970    1.000
