data_functionalizedCrystal
_audit_creation_method	'EQeq! by Chris Wilmer'
_symmetry_space_group_name_H-M	'P1'
_symmetry_Int_Tables_number	1
_symmetry_cell_setting	triclinic
loop_
_symmetry_equiv_pos_as_xyz
  x,y,z
_cell_length_a	19.791
_cell_length_b	22.674
_cell_length_c	12.877
_cell_angle_alpha	90
_cell_angle_beta	113.271
_cell_angle_gamma	90
loop_
_atom_site_label
_atom_site_type_symbol
_atom_site_fract_x
_atom_site_fract_y
_atom_site_fract_z
_atom_site_charge
Mof_Cu	Cu	0.49556	0.76115	0.54798	0.901
Mof_O 	O 	0.57769	0.74239	0.68852	-0.443
Mof_O 	O 	0.57671	0.8048	0.8235	-0.467
Mof_O 	O 	0.51219	0.84678	0.55999	-0.445
Mof_O 	O 	0.62719	0.84826	0.5672	-0.294
Mof_N 	N 	0.40429	0.76683	0.4079	-0.223
Mof_N 	N 	0.46563	0.67583	0.53259	-0.218
Mof_N 	N 	0.57098	0.92887	0.79993	-0.215
Mof_C 	C 	0.375	0.81625	0.3509	0.071
Mof_H 	H 	0.3968	0.8527	0.3802	0.005
Mof_C 	C 	0.31381	0.8152	0.2504	-0.132
Mof_H 	H 	0.2937	0.8506	0.2129	0.073
Mof_C 	C 	0.283	0.7629	0.2063	0.051
Mof_H 	H 	0.2419	0.7614	0.1371	0.021
Mof_C 	C 	0.3125	0.7117	0.2638	-0.117
Mof_H 	H 	0.2917	0.675	0.234	0.077
Mof_C 	C 	0.37286	0.71451	0.3656	0.051
Mof_C 	C 	0.40732	0.66316	0.4363	0.048
Mof_C 	C 	0.3835	0.60575	0.4097	-0.115
Mof_H 	H 	0.343	0.5974	0.3421	0.066
Mof_C 	C 	0.4192	0.56084	0.4826	0.039
Mof_H 	H 	0.4033	0.5216	0.4657	0.011
Mof_C 	C 	0.4784	0.57399	0.5803	-0.126
Mof_H 	H 	0.5036	0.544	0.6313	0.069
Mof_C 	C 	0.50056	0.63184	0.6027	0.068
Mof_H 	H 	0.5415	0.6408	0.6693	0.01
Mof_C 	C 	0.64426	0.92379	0.8483	0.072
Mof_H 	H 	0.6654	0.886	0.8652	0.011
Mof_C 	C 	0.68973	0.97286	0.8741	-0.129
Mof_H 	H 	0.7411	0.9684	0.9079	0.071
Mof_C 	C 	0.6591	0.02738	0.8501	0.044
Mof_H 	H 	0.6893	0.061	0.8672	0.012
Mof_C 	C 	0.5834	0.03325	0.8003	-0.115
Mof_H 	H 	0.5616	0.0708	0.7829	0.069
Mof_C 	C 	0.54023	0.98282	0.7764	0.056
Mof_C 	C 	0.60351	0.7633	0.7859	0.431
Mof_C 	C 	0.67324	0.73675	0.8655	-0.253
Mof_H 	H 	0.6884	0.7005	0.8464	0.127
Mof_C 	C 	0.71499	0.76198	0.9622	0.034
Mof_H 	H 	0.6984	0.7972	0.9829	0.029
Mof_C 	C 	0.5692	0.873	0.5588	0.364
Mof_C 	C 	0.56483	0.93821	0.5463	-0.225
Mof_H 	H 	0.609	0.9594	0.5668	0.118
Mof_C 	C 	0.50203	0.9683	0.5078	0.023
Mof_H 	H 	0.4579	0.9473	0.4898	0.031
Mof_Cu	Cu	0.99556	0.26115	0.54798	0.91
Mof_O 	O 	0.07769	0.24239	0.68852	-0.449
Mof_O 	O 	0.07671	0.3048	0.8235	-0.47
Mof_O 	O 	0.01219	0.34678	0.55999	-0.449
Mof_O 	O 	0.12719	0.34826	0.5672	-0.29
Mof_N 	N 	0.90429	0.26683	0.4079	-0.223
Mof_N 	N 	0.96563	0.17583	0.53259	-0.194
Mof_N 	N 	0.07098	0.42887	0.79993	-0.213
Mof_C 	C 	0.875	0.31625	0.3509	0.074
Mof_H 	H 	0.8968	0.3527	0.3802	0.005
Mof_C 	C 	0.81381	0.3152	0.2504	-0.135
Mof_H 	H 	0.7937	0.3506	0.2129	0.075
Mof_C 	C 	0.783	0.2629	0.2063	0.056
Mof_H 	H 	0.7419	0.2614	0.1371	0.02
Mof_C 	C 	0.8125	0.2117	0.2638	-0.123
Mof_H 	H 	0.7917	0.175	0.234	0.08
Mof_C 	C 	0.87286	0.21451	0.3656	0.06
Mof_C 	C 	0.90732	0.16316	0.4363	0.03
Mof_C 	C 	0.8835	0.10575	0.4097	-0.072
Mof_H 	H 	0.843	0.0974	0.3421	0.052
Mof_C 	C 	0.9192	0.06084	0.4826	-0.028
Mof_H 	H 	0.9033	0.0216	0.4657	0.037
Mof_C 	C 	0.9784	0.07399	0.5803	-0.02
Mof_H 	H 	0.0036	0.044	0.6313	0.022
Mof_C 	C 	0.00056	0.13184	0.6027	-0.013
Mof_H 	H 	0.0415	0.1408	0.6693	0.034
Mof_C 	C 	0.14426	0.42379	0.8483	0.068
Mof_H 	H 	0.1654	0.386	0.8652	0.012
Mof_C 	C 	0.18973	0.47286	0.8741	-0.122
Mof_H 	H 	0.2411	0.4684	0.9079	0.069
Mof_C 	C 	0.1591	0.52738	0.8501	0.035
Mof_H 	H 	0.1893	0.561	0.8672	0.015
Mof_C 	C 	0.0834	0.53325	0.8003	-0.101
Mof_H 	H 	0.0616	0.5708	0.7829	0.06
Mof_C 	C 	0.04023	0.48282	0.7764	0.034
Mof_C 	C 	0.10351	0.2633	0.7859	0.431
Mof_C 	C 	0.17324	0.23675	0.8655	-0.252
Mof_H 	H 	0.1884	0.2005	0.8464	0.126
Mof_C 	C 	0.21499	0.26198	0.9622	0.03
Mof_H 	H 	0.1984	0.2972	0.9829	0.03
Mof_C 	C 	0.0692	0.373	0.5588	0.342
Mof_C 	C 	0.06483	0.43821	0.5463	-0.167
Mof_H 	H 	0.109	0.4594	0.5668	0.099
Mof_C 	C 	0.00203	0.4683	0.5078	-0.085
Mof_H 	H 	0.9579	0.4473	0.4898	0.076
Mof_Cu	Cu	0.50444	0.76115	0.95202	0.902
Mof_O 	O 	0.42231	0.74239	0.81148	-0.443
Mof_O 	O 	0.42329	0.8048	0.6765	-0.467
Mof_O 	O 	0.48781	0.84678	0.94001	-0.445
Mof_O 	O 	0.37281	0.84826	0.9328	-0.295
Mof_N 	N 	0.59571	0.76683	0.0921	-0.222
Mof_N 	N 	0.53437	0.67583	0.96741	-0.22
Mof_N 	N 	0.42902	0.92887	0.70007	-0.215
Mof_C 	C 	0.625	0.81625	0.1491	0.071
Mof_H 	H 	0.6032	0.8527	0.1198	0.005
Mof_C 	C 	0.68619	0.8152	0.2496	-0.131
Mof_H 	H 	0.7063	0.8506	0.2871	0.073
Mof_C 	C 	0.717	0.7629	0.2937	0.05
Mof_H 	H 	0.7581	0.7614	0.3629	0.022
Mof_C 	C 	0.6875	0.7117	0.2362	-0.116
Mof_H 	H 	0.7083	0.675	0.266	0.077
Mof_C 	C 	0.62714	0.71451	0.1344	0.05
Mof_C 	C 	0.59268	0.66316	0.0637	0.051
Mof_C 	C 	0.6165	0.60575	0.0903	-0.119
Mof_H 	H 	0.657	0.5974	0.1579	0.067
Mof_C 	C 	0.5808	0.56084	0.0174	0.045
Mof_H 	H 	0.5967	0.5216	0.0343	0.009
Mof_C 	C 	0.5216	0.57399	0.9197	-0.132
Mof_H 	H 	0.4964	0.544	0.8687	0.071
Mof_C 	C 	0.49944	0.63184	0.8973	0.07
Mof_H 	H 	0.4585	0.6408	0.8307	0.009
Mof_C 	C 	0.35574	0.92379	0.6517	0.072
Mof_H 	H 	0.3346	0.886	0.6348	0.011
Mof_C 	C 	0.31027	0.97286	0.6259	-0.129
Mof_H 	H 	0.2589	0.9684	0.5921	0.071
Mof_C 	C 	0.3409	0.02738	0.6499	0.045
Mof_H 	H 	0.3107	0.061	0.6328	0.012
Mof_C 	C 	0.4166	0.03325	0.6997	-0.115
Mof_H 	H 	0.4384	0.0708	0.7171	0.069
Mof_C 	C 	0.45977	0.98282	0.7236	0.056
Mof_C 	C 	0.39649	0.7633	0.7141	0.432
Mof_C 	C 	0.32676	0.73675	0.6345	-0.254
Mof_H 	H 	0.3116	0.7005	0.6536	0.128
Mof_C 	C 	0.28501	0.76198	0.5378	0.036
Mof_H 	H 	0.3016	0.7972	0.5171	0.029
Mof_C 	C 	0.4308	0.873	0.9412	0.361
Mof_C 	C 	0.43517	0.93821	0.9537	-0.218
Mof_H 	H 	0.391	0.9594	0.9332	0.115
Mof_C 	C 	0.49797	0.9683	0.9922	0.009
Mof_H 	H 	0.5421	0.9473	0.0102	0.037
Mof_Cu	Cu	0.00444	0.26115	0.95202	0.895
Mof_O 	O 	0.92231	0.24239	0.81148	-0.436
Mof_O 	O 	0.92329	0.3048	0.6765	-0.46
Mof_O 	O 	0.98781	0.34678	0.94001	-0.439
Mof_O 	O 	0.87281	0.34826	0.9328	-0.298
Mof_N 	N 	0.09571	0.26683	0.0921	-0.22
Mof_N 	N 	0.03437	0.17583	0.96741	-0.247
Mof_N 	N 	0.92902	0.42887	0.70007	-0.216
Mof_C 	C 	0.125	0.31625	0.1491	0.068
Mof_H 	H 	0.1032	0.3527	0.1198	0.005
Mof_C 	C 	0.18619	0.3152	0.2496	-0.128
Mof_H 	H 	0.2063	0.3506	0.2871	0.072
Mof_C 	C 	0.217	0.2629	0.2937	0.045
Mof_H 	H 	0.2581	0.2614	0.3629	0.023
Mof_C 	C 	0.1875	0.2117	0.2362	-0.109
Mof_H 	H 	0.2083	0.175	0.266	0.073
Mof_C 	C 	0.12714	0.21451	0.1344	0.04
Mof_C 	C 	0.09268	0.16316	0.0637	0.074
Mof_C 	C 	0.1165	0.10575	0.0903	-0.169
Mof_H 	H 	0.157	0.0974	0.1579	0.083
Mof_C 	C 	0.0808	0.06084	0.0174	0.121
Mof_H 	H 	0.0967	0.0216	0.0343	-0.019
Mof_C 	C 	0.0216	0.07399	0.9197	-0.25
Mof_H 	H 	0.9964	0.044	0.8687	0.123
Mof_C 	C 	0.99944	0.13184	0.8973	0.16
Mof_H 	H 	0.9585	0.1408	0.8307	-0.018
Mof_C 	C 	0.85574	0.42379	0.6517	0.076
Mof_H 	H 	0.8346	0.386	0.6348	0.01
Mof_C 	C 	0.81027	0.47286	0.6259	-0.136
Mof_H 	H 	0.7589	0.4684	0.5921	0.074
Mof_C 	C 	0.8409	0.52738	0.6499	0.055
Mof_H 	H 	0.8107	0.561	0.6328	0.009
Mof_C 	C 	0.9166	0.53325	0.6997	-0.129
Mof_H 	H 	0.9384	0.5708	0.7171	0.079
Mof_C 	C 	0.95977	0.48282	0.7236	0.079
Mof_C 	C 	0.89649	0.2633	0.7141	0.43
Mof_C 	C 	0.82676	0.23675	0.6345	-0.252
Mof_H 	H 	0.8116	0.2005	0.6536	0.128
Mof_C 	C 	0.78501	0.26198	0.5378	0.036
Mof_H 	H 	0.8016	0.2972	0.5171	0.029
Mof_C 	C 	0.9308	0.373	0.9412	0.382
Mof_C 	C 	0.93517	0.43821	0.9537	-0.273
Mof_H 	H 	0.891	0.4594	0.9332	0.134
Mof_C 	C 	0.99797	0.4683	0.9922	0.114
Mof_H 	H 	0.0421	0.4473	0.0102	-0.005
Mof_Cu	Cu	0.50444	0.23885	0.45202	0.902
Mof_O 	O 	0.42231	0.25761	0.31148	-0.443
Mof_O 	O 	0.42329	0.1952	0.1765	-0.467
Mof_O 	O 	0.48781	0.15322	0.44001	-0.445
Mof_O 	O 	0.37281	0.15174	0.4328	-0.295
Mof_N 	N 	0.59571	0.23317	0.5921	-0.223
Mof_N 	N 	0.53437	0.32417	0.46741	-0.218
Mof_N 	N 	0.42902	0.07113	0.20007	-0.215
Mof_C 	C 	0.625	0.18375	0.6491	0.071
Mof_H 	H 	0.6032	0.1473	0.6198	0.005
Mof_C 	C 	0.68619	0.1848	0.7496	-0.132
Mof_H 	H 	0.7063	0.1494	0.7871	0.073
Mof_C 	C 	0.717	0.2371	0.7937	0.051
Mof_H 	H 	0.7581	0.2386	0.8629	0.021
Mof_C 	C 	0.6875	0.2883	0.7362	-0.117
Mof_H 	H 	0.7083	0.325	0.766	0.077
Mof_C 	C 	0.62714	0.28549	0.6344	0.051
Mof_C 	C 	0.59268	0.33684	0.5637	0.048
Mof_C 	C 	0.6165	0.39425	0.5903	-0.115
Mof_H 	H 	0.657	0.4026	0.6579	0.066
Mof_C 	C 	0.5808	0.43916	0.5174	0.039
Mof_H 	H 	0.5967	0.4784	0.5343	0.011
Mof_C 	C 	0.5216	0.42601	0.4197	-0.126
Mof_H 	H 	0.4964	0.456	0.3687	0.069
Mof_C 	C 	0.49944	0.36816	0.3973	0.068
Mof_H 	H 	0.4585	0.3592	0.3307	0.01
Mof_C 	C 	0.35574	0.07621	0.1517	0.072
Mof_H 	H 	0.3346	0.114	0.1348	0.011
Mof_C 	C 	0.31027	0.02714	0.1259	-0.13
Mof_H 	H 	0.2589	0.0316	0.0921	0.071
Mof_C 	C 	0.3409	0.97262	0.1499	0.046
Mof_H 	H 	0.3107	0.939	0.1328	0.012
Mof_C 	C 	0.4166	0.96675	0.1997	-0.115
Mof_H 	H 	0.4384	0.9292	0.2171	0.07
Mof_C 	C 	0.45977	0.01718	0.2236	0.056
Mof_C 	C 	0.39649	0.2367	0.2141	0.433
Mof_C 	C 	0.32676	0.26325	0.1345	-0.258
Mof_H 	H 	0.3116	0.2995	0.1536	0.129
Mof_C 	C 	0.28501	0.23802	0.0378	0.043
Mof_H 	H 	0.3016	0.2028	0.0171	0.027
Mof_C 	C 	0.4308	0.127	0.4412	0.364
Mof_C 	C 	0.43517	0.06179	0.4537	-0.225
Mof_H 	H 	0.391	0.0406	0.4332	0.118
Mof_C 	C 	0.49797	0.0317	0.4922	0.022
Mof_H 	H 	0.5421	0.0527	0.5102	0.032
Mof_Cu	Cu	0.00444	0.73885	0.45202	0.896
Mof_O 	O 	0.92231	0.75761	0.31148	-0.437
Mof_O 	O 	0.92329	0.6952	0.1765	-0.461
Mof_O 	O 	0.98781	0.65322	0.44001	-0.44
Mof_O 	O 	0.87281	0.65174	0.4328	-0.299
Mof_N 	N 	0.09571	0.73317	0.5921	-0.222
Mof_N 	N 	0.03437	0.82417	0.46741	-0.242
Mof_N 	N 	0.92902	0.57113	0.20007	-0.215
Mof_C 	C 	0.125	0.68375	0.6491	0.068
Mof_H 	H 	0.1032	0.6473	0.6198	0.005
Mof_C 	C 	0.18619	0.6848	0.7496	-0.129
Mof_H 	H 	0.2063	0.6494	0.7871	0.072
Mof_C 	C 	0.217	0.7371	0.7937	0.046
Mof_H 	H 	0.2581	0.7386	0.8629	0.022
Mof_C 	C 	0.1875	0.7883	0.7362	-0.111
Mof_H 	H 	0.2083	0.825	0.766	0.074
Mof_C 	C 	0.12714	0.78549	0.6344	0.042
Mof_C 	C 	0.09268	0.83684	0.5637	0.066
Mof_C 	C 	0.1165	0.89425	0.5903	-0.158
Mof_H 	H 	0.157	0.9026	0.6579	0.079
Mof_C 	C 	0.0808	0.93916	0.5174	0.104
Mof_H 	H 	0.0967	0.9784	0.5343	-0.014
Mof_C 	C 	0.0216	0.92601	0.4197	-0.23
Mof_H 	H 	0.9964	0.956	0.3687	0.115
Mof_C 	C 	0.99944	0.86816	0.3973	0.148
Mof_H 	H 	0.9585	0.8592	0.3307	-0.014
Mof_C 	C 	0.85574	0.57621	0.1517	0.075
Mof_H 	H 	0.8346	0.614	0.1348	0.01
Mof_C 	C 	0.81027	0.52714	0.1259	-0.136
Mof_H 	H 	0.7589	0.5316	0.0921	0.074
Mof_C 	C 	0.8409	0.47262	0.1499	0.054
Mof_H 	H 	0.8107	0.439	0.1328	0.009
Mof_C 	C 	0.9166	0.46675	0.1997	-0.128
Mof_H 	H 	0.9384	0.4292	0.2171	0.078
Mof_C 	C 	0.95977	0.51718	0.2236	0.077
Mof_C 	C 	0.89649	0.7367	0.2141	0.431
Mof_C 	C 	0.82676	0.76325	0.1345	-0.254
Mof_H 	H 	0.8116	0.7995	0.1536	0.129
Mof_C 	C 	0.78501	0.73802	0.0378	0.039
Mof_H 	H 	0.8016	0.7028	0.0171	0.028
Mof_C 	C 	0.9308	0.627	0.4412	0.386
Mof_C 	C 	0.93517	0.56179	0.4537	-0.283
Mof_H 	H 	0.891	0.5406	0.4332	0.138
Mof_C 	C 	0.99797	0.5317	0.4922	0.132
Mof_H 	H 	0.0421	0.5527	0.5102	-0.013
Mof_Cu	Cu	0.49556	0.23885	0.04798	0.903
Mof_O 	O 	0.57769	0.25761	0.18852	-0.443
Mof_O 	O 	0.57671	0.1952	0.3235	-0.467
Mof_O 	O 	0.51219	0.15322	0.05999	-0.446
Mof_O 	O 	0.62719	0.15174	0.0672	-0.295
Mof_N 	N 	0.40429	0.23317	0.9079	-0.224
Mof_N 	N 	0.46563	0.32417	0.03259	-0.216
Mof_N 	N 	0.57098	0.07113	0.29993	-0.215
Mof_C 	C 	0.375	0.18375	0.8509	0.071
Mof_H 	H 	0.3968	0.1473	0.8802	0.004
Mof_C 	C 	0.31381	0.1848	0.7504	-0.133
Mof_H 	H 	0.2937	0.1494	0.7129	0.073
Mof_C 	C 	0.283	0.2371	0.7063	0.052
Mof_H 	H 	0.2419	0.2386	0.6371	0.02
Mof_C 	C 	0.3125	0.2883	0.7638	-0.118
Mof_H 	H 	0.2917	0.325	0.734	0.077
Mof_C 	C 	0.37286	0.28549	0.8656	0.052
Mof_C 	C 	0.40732	0.33684	0.9363	0.044
Mof_C 	C 	0.3835	0.39425	0.9097	-0.111
Mof_H 	H 	0.343	0.4026	0.8421	0.064
Mof_C 	C 	0.4192	0.43916	0.9826	0.031
Mof_H 	H 	0.4033	0.4784	0.9657	0.013
Mof_C 	C 	0.4784	0.42601	0.0803	-0.119
Mof_H 	H 	0.5036	0.456	0.1313	0.067
Mof_C 	C 	0.50056	0.36816	0.1027	0.065
Mof_H 	H 	0.5415	0.3592	0.1693	0.011
Mof_C 	C 	0.64426	0.07621	0.3483	0.072
Mof_H 	H 	0.6654	0.114	0.3652	0.011
Mof_C 	C 	0.68973	0.02714	0.3741	-0.13
Mof_H 	H 	0.7411	0.0316	0.4079	0.072
Mof_C 	C 	0.6591	0.97262	0.3501	0.046
Mof_H 	H 	0.6893	0.939	0.3672	0.012
Mof_C 	C 	0.5834	0.96675	0.3003	-0.115
Mof_H 	H 	0.5616	0.9292	0.2829	0.07
Mof_C 	C 	0.54023	0.01718	0.2764	0.056
Mof_C 	C 	0.60351	0.2367	0.2859	0.432
Mof_C 	C 	0.67324	0.26325	0.3655	-0.255
Mof_H 	H 	0.6884	0.2995	0.3464	0.128
Mof_C 	C 	0.71499	0.23802	0.4622	0.037
Mof_H 	H 	0.6984	0.2028	0.4829	0.029
Mof_C 	C 	0.5692	0.127	0.0588	0.367
Mof_C 	C 	0.56483	0.06179	0.0463	-0.232
Mof_H 	H 	0.609	0.0406	0.0668	0.121
Mof_C 	C 	0.50203	0.0317	0.0078	0.036
Mof_H 	H 	0.4579	0.0527	0.9898	0.026
Mof_Cu	Cu	0.99556	0.73885	0.04798	0.909
Mof_O 	O 	0.07769	0.75761	0.18852	-0.448
Mof_O 	O 	0.07671	0.6952	0.3235	-0.47
Mof_O 	O 	0.01219	0.65322	0.05999	-0.449
Mof_O 	O 	0.12719	0.65174	0.0672	-0.29
Mof_N 	N 	0.90429	0.73317	0.9079	-0.223
Mof_N 	N 	0.96563	0.82417	0.03259	-0.196
Mof_N 	N 	0.07098	0.57113	0.29993	-0.213
Mof_C 	C 	0.875	0.68375	0.8509	0.074
Mof_H 	H 	0.8968	0.6473	0.8802	0.005
Mof_C 	C 	0.81381	0.6848	0.7504	-0.135
Mof_H 	H 	0.7937	0.6494	0.7129	0.074
Mof_C 	C 	0.783	0.7371	0.7063	0.056
Mof_H 	H 	0.7419	0.7386	0.6371	0.019
Mof_C 	C 	0.8125	0.7883	0.7638	-0.122
Mof_H 	H 	0.7917	0.825	0.734	0.08
Mof_C 	C 	0.87286	0.78549	0.8656	0.06
Mof_C 	C 	0.90732	0.83684	0.9363	0.031
Mof_C 	C 	0.8835	0.89425	0.9097	-0.075
Mof_H 	H 	0.843	0.9026	0.8421	0.053
Mof_C 	C 	0.9192	0.93916	0.9826	-0.023
Mof_H 	H 	0.9033	0.9784	0.9657	0.035
Mof_C 	C 	0.9784	0.92601	0.0803	-0.029
Mof_H 	H 	0.0036	0.956	0.1313	0.027
Mof_C 	C 	0.00056	0.86816	0.1027	-0.005
Mof_H 	H 	0.0415	0.8592	0.1693	0.031
Mof_C 	C 	0.14426	0.57621	0.3483	0.069
Mof_H 	H 	0.1654	0.614	0.3652	0.012
Mof_C 	C 	0.18973	0.52714	0.3741	-0.123
Mof_H 	H 	0.2411	0.5316	0.4079	0.069
Mof_C 	C 	0.1591	0.47262	0.3501	0.037
Mof_H 	H 	0.1893	0.439	0.3672	0.015
Mof_C 	C 	0.0834	0.46675	0.3003	-0.103
Mof_H 	H 	0.0616	0.4292	0.2829	0.062
Mof_C 	C 	0.04023	0.51718	0.2764	0.036
Mof_C 	C 	0.10351	0.7367	0.2859	0.432
Mof_C 	C 	0.17324	0.76325	0.3655	-0.256
Mof_H 	H 	0.1884	0.7995	0.3464	0.127
Mof_C 	C 	0.21499	0.73802	0.4622	0.037
Mof_H 	H 	0.1984	0.7028	0.4829	0.029
Mof_C 	C 	0.0692	0.627	0.0588	0.346
Mof_C 	C 	0.06483	0.56179	0.0463	-0.176
Mof_H 	H 	0.109	0.5406	0.0668	0.102
Mof_C 	C 	0.00203	0.5317	0.0078	-0.067
Mof_H 	H 	0.9579	0.5527	0.9898	0.068
Mof_Cu	Cu	0.5	0.86212	0.75	0.916
Mof_Cu	Cu	2.55252e-33	0.36212	0.75	0.909
Mof_Cu	Cu	0.5	0.13788	0.25	0.916
Mof_Cu	Cu	8.5084e-34	0.63788	0.25	0.91
_end
