data_functionalizedCrystal
_audit_creation_method	'EQeq! by Chris Wilmer'
_symmetry_space_group_name_H-M	'P1'
_symmetry_Int_Tables_number	1
_symmetry_cell_setting	triclinic
loop_
_symmetry_equiv_pos_as_xyz
  x,y,z
_cell_length_a	11.436
_cell_length_b	13.3717
_cell_length_c	18.386
_cell_angle_alpha	100.389
_cell_angle_beta	90
_cell_angle_gamma	115.317
loop_
_atom_site_label
_atom_site_type_symbol
_atom_site_fract_x
_atom_site_fract_y
_atom_site_fract_z
_atom_site_charge
Mof_Zn	Zn	0.97375	0.39302	0.40319	1.22
Mof_Zn	Zn	0.58073	0.60698	0.09681	1.22
Mof_Zn	Zn	0.02625	0.60698	0.59681	1.22
Mof_Zn	Zn	0.41927	0.39302	0.90319	1.22
Mof_H 	H 	0.1551	0.6516	0.3048	0.004
Mof_H 	H 	0.2335	0.793	0.2374	0.118
Mof_H 	H 	0.2509	0.0188	0.4184	0.112
Mof_H 	H 	0.1679	0.8758	0.4856	0.004
Mof_H 	H 	0.8144	0.3286	0.1305	0.004
Mof_H 	H 	0.659	0.2042	0.0368	0.11
Mof_H 	H 	0.5833	0.957	0.1474	0.117
Mof_H 	H 	0.7335	0.0832	0.2424	0.009
Mof_H 	H 	0.1397	0.2956	0.4775	0.006
Mof_H 	H 	0.3392	0.2936	0.4744	0.078
Mof_H 	H 	0.4141	0.4684	0.3113	0.101
Mof_H 	H 	0.2127	0.4646	0.3179	0.003
Mof_H 	H 	0.491	0.2384	0.4219	0.079
Mof_H 	H 	0.6973	0.255	0.4288	-0.002
Mof_H 	H 	0.8319	0.5456	0.3707	-0.003
Mof_H 	H 	0.6289	0.5384	0.3612	0.095
Mof_H 	H 	0.5035	0.3484	0.1952	0.004
Mof_H 	H 	0.4405	0.207	0.2626	0.118
Mof_H 	H 	0.2321	0.9812	0.0816	0.111
Mof_H 	H 	0.2921	0.1242	0.0144	0.004
Mof_H 	H 	0.4858	0.6714	0.3695	0.005
Mof_H 	H 	0.4548	0.7958	0.4632	0.109
Mof_H 	H 	0.6263	0.043	0.3526	0.116
Mof_H 	H 	0.6503	0.9168	0.2576	0.01
Mof_H 	H 	0.8441	0.7044	0.0225	0.007
Mof_H 	H 	0.0456	0.7064	0.0256	0.075
Mof_H 	H 	0.9457	0.5316	0.1887	0.1
Mof_H 	H 	0.7481	0.5354	0.1821	0.003
Mof_H 	H 	0.2526	0.7616	0.0781	0.079
Mof_H 	H 	0.4423	0.745	0.0712	-0.003
Mof_H 	H 	0.2863	0.4544	0.1293	-0.004
Mof_H 	H 	0.0905	0.4616	0.1388	0.095
Mof_H 	H 	0.8449	0.3484	0.6952	0.004
Mof_H 	H 	0.7665	0.207	0.7626	0.118
Mof_H 	H 	0.7491	0.9812	0.5816	0.112
Mof_H 	H 	0.8321	0.1242	0.5144	0.004
Mof_H 	H 	0.1856	0.6714	0.8695	0.004
Mof_H 	H 	0.341	0.7958	0.9632	0.11
Mof_H 	H 	0.4167	0.043	0.8526	0.117
Mof_H 	H 	0.2665	0.9168	0.7576	0.009
Mof_H 	H 	0.8603	0.7044	0.5225	0.006
Mof_H 	H 	0.6608	0.7064	0.5256	0.078
Mof_H 	H 	0.5859	0.5316	0.6887	0.101
Mof_H 	H 	0.7873	0.5354	0.6821	0.003
Mof_H 	H 	0.509	0.7616	0.5781	0.079
Mof_H 	H 	0.3027	0.745	0.5712	-0.002
Mof_H 	H 	0.1681	0.4544	0.6293	-0.003
Mof_H 	H 	0.3711	0.4616	0.6388	0.095
Mof_H 	H 	0.4965	0.6516	0.8048	0.004
Mof_H 	H 	0.5595	0.793	0.7374	0.118
Mof_H 	H 	0.7679	0.0188	0.9184	0.111
Mof_H 	H 	0.7079	0.8758	0.9856	0.004
Mof_H 	H 	0.5142	0.3286	0.6305	0.005
Mof_H 	H 	0.5452	0.2042	0.5368	0.109
Mof_H 	H 	0.3737	0.957	0.6474	0.116
Mof_H 	H 	0.3497	0.0832	0.7424	0.01
Mof_H 	H 	0.1559	0.2956	0.9775	0.007
Mof_H 	H 	0.9544	0.2936	0.9744	0.075
Mof_H 	H 	0.0543	0.4684	0.8113	0.1
Mof_H 	H 	0.2519	0.4646	0.8179	0.003
Mof_H 	H 	0.7474	0.2384	0.9219	0.079
Mof_H 	H 	0.5577	0.255	0.9288	-0.003
Mof_H 	H 	0.7137	0.5456	0.8707	-0.004
Mof_H 	H 	0.9095	0.5384	0.8612	0.095
Mof_C 	C 	0.09285	0.6555	0.44393	0.447
Mof_C 	C 	0.15006	0.74872	0.40124	-0.193
Mof_C 	C 	0.17258	0.72516	0.32734	0.128
Mof_C 	C 	0.22048	0.80956	0.28722	-0.206
Mof_C 	C 	0.24948	0.92016	0.3216	0.184
Mof_C 	C 	0.23039	0.94478	0.39543	-0.205
Mof_C 	C 	0.1807	0.8592	0.43571	0.127
Mof_C 	C 	0.88545	0.2999	0.26088	0.345
Mof_C 	C 	0.78943	0.21846	0.19682	-0.155
Mof_C 	C 	0.76703	0.25366	0.1346	0.105
Mof_C 	C 	0.67468	0.17896	0.0781	-0.201
Mof_C 	C 	0.60615	0.0677	0.08287	0.183
Mof_C 	C 	0.62882	0.03224	0.1438	-0.208
Mof_C 	C 	0.71986	0.10832	0.2006	0.114
Mof_C 	C 	0.19574	0.33108	0.44381	0.08
Mof_C 	C 	0.31598	0.32996	0.4425	-0.133
Mof_C 	C 	0.40216	0.38332	0.39323	0.062
Mof_C 	C 	0.36029	0.43318	0.34592	-0.145
Mof_C 	C 	0.23898	0.43056	0.35017	0.087
Mof_C 	C 	0.53462	0.38904	0.39356	0.061
Mof_C 	C 	0.55917	0.30314	0.4122	-0.141
Mof_C 	C 	0.68369	0.31378	0.4163	0.081
Mof_C 	C 	0.76224	0.48368	0.3822	0.09
Mof_C 	C 	0.64021	0.48022	0.3764	-0.145
Mof_C 	C 	0.43735	0.3445	0.05607	0.447
Mof_C 	C 	0.40134	0.25128	0.09876	-0.192
Mof_C 	C 	0.44742	0.27484	0.17266	0.128
Mof_C 	C 	0.41092	0.19044	0.21278	-0.205
Mof_C 	C 	0.32932	0.07984	0.1784	0.183
Mof_C 	C 	0.28561	0.05522	0.10457	-0.203
Mof_C 	C 	0.3215	0.1408	0.06429	0.126
Mof_C 	C 	0.58555	0.7001	0.23912	0.345
Mof_C 	C 	0.57097	0.78154	0.30318	-0.155
Mof_C 	C 	0.51337	0.74634	0.3654	0.104
Mof_C 	C 	0.49572	0.82104	0.4219	-0.2
Mof_C 	C 	0.53845	0.9323	0.41713	0.182
Mof_C 	C 	0.59658	0.96776	0.3562	-0.206
Mof_C 	C 	0.61154	0.89168	0.2994	0.113
Mof_C 	C 	0.86466	0.66892	0.05619	0.077
Mof_C 	C 	0.98602	0.67004	0.0575	-0.127
Mof_C 	C 	0.01884	0.61668	0.10677	0.057
Mof_C 	C 	0.92711	0.56682	0.15408	-0.141
Mof_C 	C 	0.80842	0.56944	0.14983	0.086
Mof_C 	C 	0.14558	0.61096	0.10644	0.063
Mof_C 	C 	0.25603	0.69686	0.0878	-0.143
Mof_C 	C 	0.36991	0.68622	0.0837	0.082
Mof_C 	C 	0.27856	0.51632	0.1178	0.091
Mof_C 	C 	0.15999	0.51978	0.1236	-0.147
Mof_C 	C 	0.90715	0.3445	0.55607	0.447
Mof_C 	C 	0.84994	0.25128	0.59876	-0.193
Mof_C 	C 	0.82742	0.27484	0.67266	0.128
Mof_C 	C 	0.77952	0.19044	0.71278	-0.206
Mof_C 	C 	0.75052	0.07984	0.6784	0.184
Mof_C 	C 	0.76961	0.05522	0.60457	-0.205
Mof_C 	C 	0.8193	0.1408	0.56429	0.127
Mof_C 	C 	0.11455	0.7001	0.73912	0.345
Mof_C 	C 	0.21057	0.78154	0.80318	-0.155
Mof_C 	C 	0.23297	0.74634	0.8654	0.105
Mof_C 	C 	0.32532	0.82104	0.9219	-0.201
Mof_C 	C 	0.39385	0.9323	0.91713	0.183
Mof_C 	C 	0.37118	0.96776	0.8562	-0.208
Mof_C 	C 	0.28014	0.89168	0.7994	0.114
Mof_C 	C 	0.80426	0.66892	0.55619	0.08
Mof_C 	C 	0.68402	0.67004	0.5575	-0.133
Mof_C 	C 	0.59784	0.61668	0.60677	0.062
Mof_C 	C 	0.63971	0.56682	0.65408	-0.145
Mof_C 	C 	0.76102	0.56944	0.64983	0.087
Mof_C 	C 	0.46538	0.61096	0.60644	0.061
Mof_C 	C 	0.44083	0.69686	0.5878	-0.141
Mof_C 	C 	0.31631	0.68622	0.5837	0.081
Mof_C 	C 	0.23776	0.51632	0.6178	0.09
Mof_C 	C 	0.35979	0.51978	0.6236	-0.145
Mof_C 	C 	0.56265	0.6555	0.94393	0.447
Mof_C 	C 	0.59866	0.74872	0.90124	-0.192
Mof_C 	C 	0.55258	0.72516	0.82734	0.128
Mof_C 	C 	0.58908	0.80956	0.78722	-0.205
Mof_C 	C 	0.67068	0.92016	0.8216	0.183
Mof_C 	C 	0.71439	0.94478	0.89543	-0.203
Mof_C 	C 	0.6785	0.8592	0.93571	0.126
Mof_C 	C 	0.41445	0.2999	0.76088	0.345
Mof_C 	C 	0.42903	0.21846	0.69682	-0.155
Mof_C 	C 	0.48663	0.25366	0.6346	0.104
Mof_C 	C 	0.50428	0.17896	0.5781	-0.2
Mof_C 	C 	0.46155	0.0677	0.58287	0.182
Mof_C 	C 	0.40342	0.03224	0.6438	-0.206
Mof_C 	C 	0.38846	0.10832	0.7006	0.113
Mof_C 	C 	0.13534	0.33108	0.94381	0.077
Mof_C 	C 	0.01398	0.32996	0.9425	-0.127
Mof_C 	C 	0.98116	0.38332	0.89323	0.057
Mof_C 	C 	0.07289	0.43318	0.84592	-0.141
Mof_C 	C 	0.19158	0.43056	0.85017	0.086
Mof_C 	C 	0.85442	0.38904	0.89356	0.063
Mof_C 	C 	0.74397	0.30314	0.9122	-0.143
Mof_C 	C 	0.63009	0.31378	0.9163	0.082
Mof_C 	C 	0.72144	0.48368	0.8822	0.091
Mof_C 	C 	0.84001	0.48022	0.8764	-0.147
Mof_N 	N 	0.15665	0.3811	0.39873	-0.23
Mof_N 	N 	0.78642	0.40384	0.40328	-0.235
Mof_N 	N 	0.29675	0.0141	0.28461	-0.101
Mof_N 	N 	0.50714	0.98188	0.02741	-0.102
Mof_N 	N 	0.77555	0.6189	0.10127	-0.229
Mof_N 	N 	0.38258	0.59616	0.09672	-0.235
Mof_N 	N 	0.28265	0.9859	0.21539	-0.102
Mof_N 	N 	0.52526	0.01812	0.47259	-0.102
Mof_N 	N 	0.84335	0.6189	0.60127	-0.23
Mof_N 	N 	0.21358	0.59616	0.59672	-0.235
Mof_N 	N 	0.70325	0.9859	0.71539	-0.101
Mof_N 	N 	0.49286	0.01812	0.97259	-0.102
Mof_N 	N 	0.22445	0.3811	0.89873	-0.229
Mof_N 	N 	0.61742	0.40384	0.90328	-0.235
Mof_N 	N 	0.71735	0.0141	0.78461	-0.102
Mof_N 	N 	0.47474	0.98188	0.52741	-0.102
Mof_O 	O 	0.07663	0.55946	0.41201	-0.502
Mof_O 	O 	0.95442	0.39764	0.2552	-0.33
Mof_O 	O 	0.88515	0.26084	0.31911	-0.429
Mof_O 	O 	0.06548	0.6814	0.50884	-0.487
Mof_O 	O 	0.51717	0.44054	0.08799	-0.502
Mof_O 	O 	0.55678	0.60236	0.2448	-0.33
Mof_O 	O 	0.62431	0.73916	0.18089	-0.428
Mof_O 	O 	0.38408	0.3186	0.99116	-0.487
Mof_O 	O 	0.92337	0.44054	0.58799	-0.502
Mof_O 	O 	0.04558	0.60236	0.7448	-0.33
Mof_O 	O 	0.11485	0.73916	0.68089	-0.429
Mof_O 	O 	0.93452	0.3186	0.49116	-0.487
Mof_O 	O 	0.48283	0.55946	0.91201	-0.502
Mof_O 	O 	0.44322	0.39764	0.7552	-0.33
Mof_O 	O 	0.37569	0.26084	0.81911	-0.428
Mof_O 	O 	0.61592	0.6814	0.00884	-0.487
_end
