# CIF file generated by openbabel 3.1.0, see https://openbabel.org
data_I
_chemical_name_common 'image0'
_cell_length_a 15.433
_cell_length_b 28.552
_cell_length_c 36.861
_cell_angle_alpha 90
_cell_angle_beta 90
_cell_angle_gamma 90
_space_group_name_H-M_alt 'P 1'
_space_group_name_Hall 'P 1'
loop_
    _symmetry_equiv_pos_as_xyz
    x,y,z
loop_
    _atom_site_label
    _atom_site_type_symbol
    _atom_site_fract_x
    _atom_site_fract_y
    _atom_site_fract_z
    _atom_site_occupancy
    Cd1      Cd       0.46136    0.25813    0.55228    1.000
    O1       O        0.36990    0.31558    0.52055    1.000
    O2       O        0.50877    0.31618    0.50995    1.000
    C1       C        0.43314    0.32963    0.50299    1.000
    C2       C        0.41839    0.36324    0.47207    1.000
    C3       C        0.48200    0.36670    0.44927    1.000
    H1       H        0.47710    0.38630    0.42920    1.000
    H2       H        0.53260    0.34960    0.45300    1.000
    N1       N        0.32496    0.23934    0.57774    1.000
    C4       C        0.32055    0.22564    0.61231    1.000
    H3       H        0.37190    0.21750    0.62390    1.000
    C5       C        0.24499    0.22283    0.63172    1.000
    H4       H        0.24590    0.21360    0.65590    1.000
    C6       C        0.16671    0.23394    0.61486    1.000
    C7       C        0.17080    0.24658    0.57870    1.000
    H5       H        0.12030    0.25300    0.56590    1.000
    C8       C        0.25049    0.24963    0.56177    1.000
    H6       H        0.25190    0.25950    0.53770    1.000
    N2       N        0.45916    0.20879    0.50120    1.000
    N3       N        0.50844    0.05852    0.35054    1.000
    C9       C        0.53398    0.18502    0.44787    1.000
    H7       H        0.57990    0.18970    0.43190    1.000
    C10      C        0.52353    0.21380    0.47724    1.000
    H8       H        0.56310    0.23800    0.48070    1.000
    C11      C        0.40402    0.17357    0.49574    1.000
    H9       H        0.35910    0.16950    0.51230    1.000
    C12      C        0.40978    0.14291    0.46699    1.000
    H10      H        0.37000    0.11870    0.46440    1.000
    C13      C        0.47586    0.14879    0.44197    1.000
    C14      C        0.48486    0.11767    0.40994    1.000
    C15      C        0.50980    0.13485    0.37649    1.000
    H11      H        0.51900    0.16680    0.37340    1.000
    C16      C        0.52107    0.10439    0.34768    1.000
    H12      H        0.53820    0.11650    0.32540    1.000
    C17      C        0.48248    0.04229    0.38247    1.000
    H13      H        0.47250    0.01030    0.38460    1.000
    C18      C        0.46943    0.06989    0.41256    1.000
    H14      H        0.45060    0.05680    0.43430    1.000
    Cd2      Cd       0.46136    0.75813    0.05228    1.000
    O3       O        0.36990    0.81558    0.02055    1.000
    O4       O        0.50877    0.81618    0.00995    1.000
    C19      C        0.43314    0.82963    0.00299    1.000
    C20      C        0.41839    0.86324    0.97207    1.000
    C21      C        0.48200    0.86670    0.94927    1.000
    H15      H        0.47710    0.88630    0.92920    1.000
    H16      H        0.53260    0.84960    0.95300    1.000
    N4       N        0.32496    0.73934    0.07774    1.000
    C22      C        0.32055    0.72564    0.11231    1.000
    H17      H        0.37190    0.71750    0.12390    1.000
    C23      C        0.24499    0.72283    0.13172    1.000
    H18      H        0.24590    0.71360    0.15590    1.000
    C24      C        0.16671    0.73394    0.11486    1.000
    C25      C        0.17080    0.74658    0.07870    1.000
    H19      H        0.12030    0.75300    0.06590    1.000
    C26      C        0.25049    0.74963    0.06177    1.000
    H20      H        0.25190    0.75950    0.03770    1.000
    N5       N        0.45916    0.70879    0.00120    1.000
    N6       N        0.50844    0.55852    0.85054    1.000
    C27      C        0.53398    0.68502    0.94787    1.000
    H21      H        0.57990    0.68970    0.93190    1.000
    C28      C        0.52353    0.71380    0.97724    1.000
    H22      H        0.56310    0.73800    0.98070    1.000
    C29      C        0.40402    0.67357    0.99574    1.000
    H23      H        0.35910    0.66950    0.01230    1.000
    C30      C        0.40978    0.64291    0.96699    1.000
    H24      H        0.37000    0.61870    0.96440    1.000
    C31      C        0.47586    0.64879    0.94197    1.000
    C32      C        0.48486    0.61767    0.90994    1.000
    C33      C        0.50980    0.63485    0.87649    1.000
    H25      H        0.51900    0.66680    0.87340    1.000
    C34      C        0.52107    0.60439    0.84768    1.000
    H26      H        0.53820    0.61650    0.82540    1.000
    C35      C        0.48248    0.54229    0.88247    1.000
    H27      H        0.47250    0.51030    0.88460    1.000
    C36      C        0.46943    0.56989    0.91256    1.000
    H28      H        0.45060    0.55680    0.93430    1.000
    Cd3      Cd       0.96136    0.25813    0.05228    1.000
    O5       O        0.86990    0.31558    0.02055    1.000
    O6       O        0.00877    0.31618    0.00995    1.000
    C37      C        0.93314    0.32963    0.00299    1.000
    C38      C        0.91839    0.36324    0.97207    1.000
    C39      C        0.98200    0.36670    0.94927    1.000
    H29      H        0.97710    0.38630    0.92920    1.000
    H30      H        0.03260    0.34960    0.95300    1.000
    N7       N        0.82496    0.23934    0.07774    1.000
    C40      C        0.82055    0.22564    0.11231    1.000
    H31      H        0.87190    0.21750    0.12390    1.000
    C41      C        0.74499    0.22283    0.13172    1.000
    H32      H        0.74590    0.21360    0.15590    1.000
    C42      C        0.66671    0.23394    0.11486    1.000
    C43      C        0.67080    0.24658    0.07870    1.000
    H33      H        0.62030    0.25300    0.06590    1.000
    C44      C        0.75049    0.24963    0.06177    1.000
    H34      H        0.75190    0.25950    0.03770    1.000
    N8       N        0.95916    0.20879    0.00120    1.000
    N9       N        0.00844    0.05852    0.85054    1.000
    C45      C        0.03398    0.18502    0.94787    1.000
    H35      H        0.07990    0.18970    0.93190    1.000
    C46      C        0.02353    0.21380    0.97724    1.000
    H36      H        0.06310    0.23800    0.98070    1.000
    C47      C        0.90402    0.17357    0.99574    1.000
    H37      H        0.85910    0.16950    0.01230    1.000
    C48      C        0.90978    0.14291    0.96699    1.000
    H38      H        0.87000    0.11870    0.96440    1.000
    C49      C        0.97586    0.14879    0.94197    1.000
    C50      C        0.98486    0.11767    0.90994    1.000
    C51      C        0.00980    0.13485    0.87649    1.000
    H39      H        0.01900    0.16680    0.87340    1.000
    C52      C        0.02107    0.10439    0.84768    1.000
    H40      H        0.03820    0.11650    0.82540    1.000
    C53      C        0.98248    0.04229    0.88247    1.000
    H41      H        0.97250    0.01030    0.88460    1.000
    C54      C        0.96943    0.06989    0.91256    1.000
    H42      H        0.95060    0.05680    0.93430    1.000
    Cd4      Cd       0.96136    0.75813    0.55228    1.000
    O7       O        0.86990    0.81558    0.52055    1.000
    O8       O        0.00877    0.81618    0.50995    1.000
    C55      C        0.93314    0.82963    0.50299    1.000
    C56      C        0.91839    0.86324    0.47207    1.000
    C57      C        0.98200    0.86670    0.44927    1.000
    H43      H        0.97710    0.88630    0.42920    1.000
    H44      H        0.03260    0.84960    0.45300    1.000
    N10      N        0.82496    0.73934    0.57774    1.000
    C58      C        0.82055    0.72564    0.61231    1.000
    H45      H        0.87190    0.71750    0.62390    1.000
    C59      C        0.74499    0.72283    0.63172    1.000
    H46      H        0.74590    0.71360    0.65590    1.000
    C60      C        0.66671    0.73394    0.61486    1.000
    C61      C        0.67080    0.74658    0.57870    1.000
    H47      H        0.62030    0.75300    0.56590    1.000
    C62      C        0.75049    0.74963    0.56177    1.000
    H48      H        0.75190    0.75950    0.53770    1.000
    N11      N        0.95916    0.70879    0.50120    1.000
    N12      N        0.00844    0.55852    0.35054    1.000
    C63      C        0.03398    0.68502    0.44787    1.000
    H49      H        0.07990    0.68970    0.43190    1.000
    C64      C        0.02353    0.71380    0.47724    1.000
    H50      H        0.06310    0.73800    0.48070    1.000
    C65      C        0.90402    0.67357    0.49574    1.000
    H51      H        0.85910    0.66950    0.51230    1.000
    C66      C        0.90978    0.64291    0.46699    1.000
    H52      H        0.87000    0.61870    0.46440    1.000
    C67      C        0.97586    0.64879    0.44197    1.000
    C68      C        0.98486    0.61767    0.40994    1.000
    C69      C        0.00980    0.63485    0.37649    1.000
    H53      H        0.01900    0.66680    0.37340    1.000
    C70      C        0.02107    0.60439    0.34768    1.000
    H54      H        0.03820    0.61650    0.32540    1.000
    C71      C        0.98248    0.54229    0.38247    1.000
    H55      H        0.97250    0.51030    0.38460    1.000
    C72      C        0.96943    0.56989    0.41256    1.000
    H56      H        0.95060    0.55680    0.43430    1.000
    Cd5      Cd       0.28864    0.49187    0.55228    1.000
    O9       O        0.38010    0.43442    0.52055    1.000
    O10      O        0.24123    0.43382    0.50995    1.000
    C73      C        0.31686    0.42037    0.50299    1.000
    C74      C        0.33161    0.38676    0.47207    1.000
    C75      C        0.26800    0.38330    0.44927    1.000
    H57      H        0.27290    0.36370    0.42920    1.000
    H58      H        0.21740    0.40040    0.45300    1.000
    N13      N        0.42504    0.51066    0.57774    1.000
    C76      C        0.42945    0.52436    0.61231    1.000
    H59      H        0.37810    0.53250    0.62390    1.000
    C77      C        0.50501    0.52717    0.63172    1.000
    H60      H        0.50410    0.53640    0.65590    1.000
    C78      C        0.58329    0.51606    0.61486    1.000
    C79      C        0.57920    0.50342    0.57870    1.000
    H61      H        0.62970    0.49700    0.56590    1.000
    C80      C        0.49951    0.50037    0.56177    1.000
    H62      H        0.49810    0.49050    0.53770    1.000
    N14      N        0.29084    0.54121    0.50120    1.000
    N15      N        0.24156    0.69148    0.35054    1.000
    C81      C        0.21602    0.56498    0.44787    1.000
    H63      H        0.17010    0.56030    0.43190    1.000
    C82      C        0.22647    0.53620    0.47724    1.000
    H64      H        0.18690    0.51200    0.48070    1.000
    C83      C        0.34598    0.57643    0.49574    1.000
    H65      H        0.39090    0.58050    0.51230    1.000
    C84      C        0.34022    0.60709    0.46699    1.000
    H66      H        0.38000    0.63130    0.46440    1.000
    C85      C        0.27414    0.60121    0.44197    1.000
    C86      C        0.26514    0.63233    0.40994    1.000
    C87      C        0.24020    0.61515    0.37649    1.000
    H67      H        0.23100    0.58320    0.37340    1.000
    C88      C        0.22893    0.64561    0.34768    1.000
    H68      H        0.21180    0.63350    0.32540    1.000
    C89      C        0.26752    0.70771    0.38247    1.000
    H69      H        0.27750    0.73970    0.38460    1.000
    C90      C        0.28057    0.68011    0.41256    1.000
    H70      H        0.29940    0.69320    0.43430    1.000
    Cd6      Cd       0.28864    0.99187    0.05228    1.000
    O11      O        0.38010    0.93442    0.02055    1.000
    O12      O        0.24123    0.93382    0.00995    1.000
    C91      C        0.31686    0.92037    0.00299    1.000
    C92      C        0.33161    0.88676    0.97207    1.000
    C93      C        0.26800    0.88330    0.94927    1.000
    H71      H        0.27290    0.86370    0.92920    1.000
    H72      H        0.21740    0.90040    0.95300    1.000
    N16      N        0.42504    0.01066    0.07774    1.000
    C94      C        0.42945    0.02436    0.11231    1.000
    H73      H        0.37810    0.03250    0.12390    1.000
    C95      C        0.50501    0.02717    0.13172    1.000
    H74      H        0.50410    0.03640    0.15590    1.000
    C96      C        0.58329    0.01606    0.11486    1.000
    C97      C        0.57920    0.00342    0.07870    1.000
    H75      H        0.62970    0.99700    0.06590    1.000
    C98      C        0.49951    0.00037    0.06177    1.000
    H76      H        0.49810    0.99050    0.03770    1.000
    N17      N        0.29084    0.04121    0.00120    1.000
    N18      N        0.24156    0.19148    0.85054    1.000
    C99      C        0.21602    0.06498    0.94787    1.000
    H77      H        0.17010    0.06030    0.93190    1.000
    C100     C        0.22647    0.03620    0.97724    1.000
    H78      H        0.18690    0.01200    0.98070    1.000
    C101     C        0.34598    0.07643    0.99574    1.000
    H79      H        0.39090    0.08050    0.01230    1.000
    C102     C        0.34022    0.10709    0.96699    1.000
    H80      H        0.38000    0.13130    0.96440    1.000
    C103     C        0.27414    0.10121    0.94197    1.000
    C104     C        0.26514    0.13233    0.90994    1.000
    C105     C        0.24020    0.11515    0.87649    1.000
    H81      H        0.23100    0.08320    0.87340    1.000
    C106     C        0.22893    0.14561    0.84768    1.000
    H82      H        0.21180    0.13350    0.82540    1.000
    C107     C        0.26752    0.20771    0.88247    1.000
    H83      H        0.27750    0.23970    0.88460    1.000
    C108     C        0.28057    0.18011    0.91256    1.000
    H84      H        0.29940    0.19320    0.93430    1.000
    Cd7      Cd       0.78864    0.49187    0.05228    1.000
    O13      O        0.88010    0.43442    0.02055    1.000
    O14      O        0.74123    0.43382    0.00995    1.000
    C109     C        0.81686    0.42037    0.00299    1.000
    C110     C        0.83161    0.38676    0.97207    1.000
    C111     C        0.76800    0.38330    0.94927    1.000
    H85      H        0.77290    0.36370    0.92920    1.000
    H86      H        0.71740    0.40040    0.95300    1.000
    N19      N        0.92504    0.51066    0.07774    1.000
    C112     C        0.92945    0.52436    0.11231    1.000
    H87      H        0.87810    0.53250    0.12390    1.000
    C113     C        0.00501    0.52717    0.13172    1.000
    H88      H        0.00410    0.53640    0.15590    1.000
    C114     C        0.08329    0.51606    0.11486    1.000
    C115     C        0.07920    0.50342    0.07870    1.000
    H89      H        0.12970    0.49700    0.06590    1.000
    C116     C        0.99951    0.50037    0.06177    1.000
    H90      H        0.99810    0.49050    0.03770    1.000
    N20      N        0.79084    0.54121    0.00120    1.000
    N21      N        0.74156    0.69148    0.85054    1.000
    C117     C        0.71602    0.56498    0.94787    1.000
    H91      H        0.67010    0.56030    0.93190    1.000
    C118     C        0.72647    0.53620    0.97724    1.000
    H92      H        0.68690    0.51200    0.98070    1.000
    C119     C        0.84598    0.57643    0.99574    1.000
    H93      H        0.89090    0.58050    0.01230    1.000
    C120     C        0.84022    0.60709    0.96699    1.000
    H94      H        0.88000    0.63130    0.96440    1.000
    C121     C        0.77414    0.60121    0.94197    1.000
    C122     C        0.76514    0.63233    0.90994    1.000
    C123     C        0.74020    0.61515    0.87649    1.000
    H95      H        0.73100    0.58320    0.87340    1.000
    C124     C        0.72893    0.64561    0.84768    1.000
    H96      H        0.71180    0.63350    0.82540    1.000
    C125     C        0.76752    0.70771    0.88247    1.000
    H97      H        0.77750    0.73970    0.88460    1.000
    C126     C        0.78057    0.68011    0.91256    1.000
    H98      H        0.79940    0.69320    0.93430    1.000
    Cd8      Cd       0.78864    0.99187    0.55228    1.000
    O15      O        0.88010    0.93442    0.52055    1.000
    O16      O        0.74123    0.93382    0.50995    1.000
    C127     C        0.81686    0.92037    0.50299    1.000
    C128     C        0.83161    0.88676    0.47207    1.000
    C129     C        0.76800    0.88330    0.44927    1.000
    H99      H        0.77290    0.86370    0.42920    1.000
    H100     H        0.71740    0.90040    0.45300    1.000
    N22      N        0.92504    0.01066    0.57774    1.000
    C130     C        0.92945    0.02436    0.61231    1.000
    H101     H        0.87810    0.03250    0.62390    1.000
    C131     C        0.00501    0.02717    0.63172    1.000
    H102     H        0.00410    0.03640    0.65590    1.000
    C132     C        0.08329    0.01606    0.61486    1.000
    C133     C        0.07920    0.00342    0.57870    1.000
    H103     H        0.12970    0.99700    0.56590    1.000
    C134     C        0.99951    0.00037    0.56177    1.000
    H104     H        0.99810    0.99050    0.53770    1.000
    N23      N        0.79084    0.04121    0.50120    1.000
    N24      N        0.74156    0.19148    0.35054    1.000
    C135     C        0.71602    0.06498    0.44787    1.000
    H105     H        0.67010    0.06030    0.43190    1.000
    C136     C        0.72647    0.03620    0.47724    1.000
    H106     H        0.68690    0.01200    0.48070    1.000
    C137     C        0.84598    0.07643    0.49574    1.000
    H107     H        0.89090    0.08050    0.51230    1.000
    C138     C        0.84022    0.10709    0.46699    1.000
    H108     H        0.88000    0.13130    0.46440    1.000
    C139     C        0.77414    0.10121    0.44197    1.000
    C140     C        0.76514    0.13233    0.40994    1.000
    C141     C        0.74020    0.11515    0.37649    1.000
    H109     H        0.73100    0.08320    0.37340    1.000
    C142     C        0.72893    0.14561    0.34768    1.000
    H110     H        0.71180    0.13350    0.32540    1.000
    C143     C        0.76752    0.20771    0.38247    1.000
    H111     H        0.77750    0.23970    0.38460    1.000
    C144     C        0.78057    0.18011    0.41256    1.000
    H112     H        0.79940    0.19320    0.43430    1.000
    Cd9      Cd       0.28864    0.25813    0.19772    1.000
    O17      O        0.38010    0.31558    0.22945    1.000
    O18      O        0.24123    0.31618    0.24005    1.000
    C145     C        0.31686    0.32963    0.24701    1.000
    C146     C        0.33161    0.36324    0.27793    1.000
    C147     C        0.26800    0.36670    0.30073    1.000
    H113     H        0.27290    0.38630    0.32080    1.000
    H114     H        0.21740    0.34960    0.29700    1.000
    N25      N        0.42504    0.23934    0.17226    1.000
    C148     C        0.42945    0.22564    0.13769    1.000
    H115     H        0.37810    0.21750    0.12610    1.000
    C149     C        0.50501    0.22283    0.11828    1.000
    H116     H        0.50410    0.21360    0.09410    1.000
    C150     C        0.58329    0.23394    0.13514    1.000
    C151     C        0.57920    0.24658    0.17130    1.000
    H117     H        0.62970    0.25300    0.18410    1.000
    C152     C        0.49951    0.24963    0.18823    1.000
    H118     H        0.49810    0.25950    0.21230    1.000
    N26      N        0.29084    0.20879    0.24880    1.000
    N27      N        0.24156    0.05852    0.39946    1.000
    C153     C        0.21602    0.18502    0.30213    1.000
    H119     H        0.17010    0.18970    0.31810    1.000
    C154     C        0.22647    0.21380    0.27276    1.000
    H120     H        0.18690    0.23800    0.26930    1.000
    C155     C        0.34598    0.17357    0.25426    1.000
    H121     H        0.39090    0.16950    0.23770    1.000
    C156     C        0.34022    0.14291    0.28301    1.000
    H122     H        0.38000    0.11870    0.28560    1.000
    C157     C        0.27414    0.14879    0.30803    1.000
    C158     C        0.26514    0.11767    0.34006    1.000
    C159     C        0.24020    0.13485    0.37351    1.000
    H123     H        0.23100    0.16680    0.37660    1.000
    C160     C        0.22893    0.10439    0.40232    1.000
    H124     H        0.21180    0.11650    0.42460    1.000
    C161     C        0.26752    0.04229    0.36753    1.000
    H125     H        0.27750    0.01030    0.36540    1.000
    C162     C        0.28057    0.06989    0.33744    1.000
    H126     H        0.29940    0.05680    0.31570    1.000
    Cd10     Cd       0.28864    0.75813    0.69772    1.000
    O19      O        0.38010    0.81558    0.72945    1.000
    O20      O        0.24123    0.81618    0.74005    1.000
    C163     C        0.31686    0.82963    0.74701    1.000
    C164     C        0.33161    0.86324    0.77793    1.000
    C165     C        0.26800    0.86670    0.80073    1.000
    H127     H        0.27290    0.88630    0.82080    1.000
    H128     H        0.21740    0.84960    0.79700    1.000
    N28      N        0.42504    0.73934    0.67226    1.000
    C166     C        0.42945    0.72564    0.63769    1.000
    H129     H        0.37810    0.71750    0.62610    1.000
    C167     C        0.50501    0.72283    0.61828    1.000
    H130     H        0.50410    0.71360    0.59410    1.000
    C168     C        0.58329    0.73394    0.63514    1.000
    C169     C        0.57920    0.74658    0.67130    1.000
    H131     H        0.62970    0.75300    0.68410    1.000
    C170     C        0.49951    0.74963    0.68823    1.000
    H132     H        0.49810    0.75950    0.71230    1.000
    N29      N        0.29084    0.70879    0.74880    1.000
    N30      N        0.24156    0.55852    0.89946    1.000
    C171     C        0.21602    0.68502    0.80213    1.000
    H133     H        0.17010    0.68970    0.81810    1.000
    C172     C        0.22647    0.71380    0.77276    1.000
    H134     H        0.18690    0.73800    0.76930    1.000
    C173     C        0.34598    0.67357    0.75426    1.000
    H135     H        0.39090    0.66950    0.73770    1.000
    C174     C        0.34022    0.64291    0.78301    1.000
    H136     H        0.38000    0.61870    0.78560    1.000
    C175     C        0.27414    0.64879    0.80803    1.000
    C176     C        0.26514    0.61767    0.84006    1.000
    C177     C        0.24020    0.63485    0.87351    1.000
    H137     H        0.23100    0.66680    0.87660    1.000
    C178     C        0.22893    0.60439    0.90232    1.000
    H138     H        0.21180    0.61650    0.92460    1.000
    C179     C        0.26752    0.54229    0.86753    1.000
    H139     H        0.27750    0.51030    0.86540    1.000
    C180     C        0.28057    0.56989    0.83744    1.000
    H140     H        0.29940    0.55680    0.81570    1.000
    Cd11     Cd       0.78864    0.25813    0.69772    1.000
    O21      O        0.88010    0.31558    0.72945    1.000
    O22      O        0.74123    0.31618    0.74005    1.000
    C181     C        0.81686    0.32963    0.74701    1.000
    C182     C        0.83161    0.36324    0.77793    1.000
    C183     C        0.76800    0.36670    0.80073    1.000
    H141     H        0.77290    0.38630    0.82080    1.000
    H142     H        0.71740    0.34960    0.79700    1.000
    N31      N        0.92504    0.23934    0.67226    1.000
    C184     C        0.92945    0.22564    0.63769    1.000
    H143     H        0.87810    0.21750    0.62610    1.000
    C185     C        0.00501    0.22283    0.61828    1.000
    H144     H        0.00410    0.21360    0.59410    1.000
    C186     C        0.08329    0.23394    0.63514    1.000
    C187     C        0.07920    0.24658    0.67130    1.000
    H145     H        0.12970    0.25300    0.68410    1.000
    C188     C        0.99951    0.24963    0.68823    1.000
    H146     H        0.99810    0.25950    0.71230    1.000
    N32      N        0.79084    0.20879    0.74880    1.000
    N33      N        0.74156    0.05852    0.89946    1.000
    C189     C        0.71602    0.18502    0.80213    1.000
    H147     H        0.67010    0.18970    0.81810    1.000
    C190     C        0.72647    0.21380    0.77276    1.000
    H148     H        0.68690    0.23800    0.76930    1.000
    C191     C        0.84598    0.17357    0.75426    1.000
    H149     H        0.89090    0.16950    0.73770    1.000
    C192     C        0.84022    0.14291    0.78301    1.000
    H150     H        0.88000    0.11870    0.78560    1.000
    C193     C        0.77414    0.14879    0.80803    1.000
    C194     C        0.76514    0.11767    0.84006    1.000
    C195     C        0.74020    0.13485    0.87351    1.000
    H151     H        0.73100    0.16680    0.87660    1.000
    C196     C        0.72893    0.10439    0.90232    1.000
    H152     H        0.71180    0.11650    0.92460    1.000
    C197     C        0.76752    0.04229    0.86753    1.000
    H153     H        0.77750    0.01030    0.86540    1.000
    C198     C        0.78057    0.06989    0.83744    1.000
    H154     H        0.79940    0.05680    0.81570    1.000
    Cd12     Cd       0.78864    0.75813    0.19772    1.000
    O23      O        0.88010    0.81558    0.22945    1.000
    O24      O        0.74123    0.81618    0.24005    1.000
    C199     C        0.81686    0.82963    0.24701    1.000
    C200     C        0.83161    0.86324    0.27793    1.000
    C201     C        0.76800    0.86670    0.30073    1.000
    H155     H        0.77290    0.88630    0.32080    1.000
    H156     H        0.71740    0.84960    0.29700    1.000
    N34      N        0.92504    0.73934    0.17226    1.000
    C202     C        0.92945    0.72564    0.13769    1.000
    H157     H        0.87810    0.71750    0.12610    1.000
    C203     C        0.00501    0.72283    0.11828    1.000
    H158     H        0.00410    0.71360    0.09410    1.000
    C204     C        0.08329    0.73394    0.13514    1.000
    C205     C        0.07920    0.74658    0.17130    1.000
    H159     H        0.12970    0.75300    0.18410    1.000
    C206     C        0.99951    0.74963    0.18823    1.000
    H160     H        0.99810    0.75950    0.21230    1.000
    N35      N        0.79084    0.70879    0.24880    1.000
    N36      N        0.74156    0.55852    0.39946    1.000
    C207     C        0.71602    0.68502    0.30213    1.000
    H161     H        0.67010    0.68970    0.31810    1.000
    C208     C        0.72647    0.71380    0.27276    1.000
    H162     H        0.68690    0.73800    0.26930    1.000
    C209     C        0.84598    0.67357    0.25426    1.000
    H163     H        0.89090    0.66950    0.23770    1.000
    C210     C        0.84022    0.64291    0.28301    1.000
    H164     H        0.88000    0.61870    0.28560    1.000
    C211     C        0.77414    0.64879    0.30803    1.000
    C212     C        0.76514    0.61767    0.34006    1.000
    C213     C        0.74020    0.63485    0.37351    1.000
    H165     H        0.73100    0.66680    0.37660    1.000
    C214     C        0.72893    0.60439    0.40232    1.000
    H166     H        0.71180    0.61650    0.42460    1.000
    C215     C        0.76752    0.54229    0.36753    1.000
    H167     H        0.77750    0.51030    0.36540    1.000
    C216     C        0.78057    0.56989    0.33744    1.000
    H168     H        0.79940    0.55680    0.31570    1.000
    Cd13     Cd       0.46136    0.49187    0.19772    1.000
    O25      O        0.36990    0.43442    0.22945    1.000
    O26      O        0.50877    0.43382    0.24005    1.000
    C217     C        0.43314    0.42037    0.24701    1.000
    C218     C        0.41839    0.38676    0.27793    1.000
    C219     C        0.48200    0.38330    0.30073    1.000
    H169     H        0.47710    0.36370    0.32080    1.000
    H170     H        0.53260    0.40040    0.29700    1.000
    N37      N        0.32496    0.51066    0.17226    1.000
    C220     C        0.32055    0.52436    0.13769    1.000
    H171     H        0.37190    0.53250    0.12610    1.000
    C221     C        0.24499    0.52717    0.11828    1.000
    H172     H        0.24590    0.53640    0.09410    1.000
    C222     C        0.16671    0.51606    0.13514    1.000
    C223     C        0.17080    0.50342    0.17130    1.000
    H173     H        0.12030    0.49700    0.18410    1.000
    C224     C        0.25049    0.50037    0.18823    1.000
    H174     H        0.25190    0.49050    0.21230    1.000
    N38      N        0.45916    0.54121    0.24880    1.000
    N39      N        0.50844    0.69148    0.39946    1.000
    C225     C        0.53398    0.56498    0.30213    1.000
    H175     H        0.57990    0.56030    0.31810    1.000
    C226     C        0.52353    0.53620    0.27276    1.000
    H176     H        0.56310    0.51200    0.26930    1.000
    C227     C        0.40402    0.57643    0.25426    1.000
    H177     H        0.35910    0.58050    0.23770    1.000
    C228     C        0.40978    0.60709    0.28301    1.000
    H178     H        0.37000    0.63130    0.28560    1.000
    C229     C        0.47586    0.60121    0.30803    1.000
    C230     C        0.48486    0.63233    0.34006    1.000
    C231     C        0.50980    0.61515    0.37351    1.000
    H179     H        0.51900    0.58320    0.37660    1.000
    C232     C        0.52107    0.64561    0.40232    1.000
    H180     H        0.53820    0.63350    0.42460    1.000
    C233     C        0.48248    0.70771    0.36753    1.000
    H181     H        0.47250    0.73970    0.36540    1.000
    C234     C        0.46943    0.68011    0.33744    1.000
    H182     H        0.45060    0.69320    0.31570    1.000
    Cd14     Cd       0.46136    0.99187    0.69772    1.000
    O27      O        0.36990    0.93442    0.72945    1.000
    O28      O        0.50877    0.93382    0.74005    1.000
    C235     C        0.43314    0.92037    0.74701    1.000
    C236     C        0.41839    0.88676    0.77793    1.000
    C237     C        0.48200    0.88330    0.80073    1.000
    H183     H        0.47710    0.86370    0.82080    1.000
    H184     H        0.53260    0.90040    0.79700    1.000
    N40      N        0.32496    0.01066    0.67226    1.000
    C238     C        0.32055    0.02436    0.63769    1.000
    H185     H        0.37190    0.03250    0.62610    1.000
    C239     C        0.24499    0.02717    0.61828    1.000
    H186     H        0.24590    0.03640    0.59410    1.000
    C240     C        0.16671    0.01606    0.63514    1.000
    C241     C        0.17080    0.00342    0.67130    1.000
    H187     H        0.12030    0.99700    0.68410    1.000
    C242     C        0.25049    0.00037    0.68823    1.000
    H188     H        0.25190    0.99050    0.71230    1.000
    N41      N        0.45916    0.04121    0.74880    1.000
    N42      N        0.50844    0.19148    0.89946    1.000
    C243     C        0.53398    0.06498    0.80213    1.000
    H189     H        0.57990    0.06030    0.81810    1.000
    C244     C        0.52353    0.03620    0.77276    1.000
    H190     H        0.56310    0.01200    0.76930    1.000
    C245     C        0.40402    0.07643    0.75426    1.000
    H191     H        0.35910    0.08050    0.73770    1.000
    C246     C        0.40978    0.10709    0.78301    1.000
    H192     H        0.37000    0.13130    0.78560    1.000
    C247     C        0.47586    0.10121    0.80803    1.000
    C248     C        0.48486    0.13233    0.84006    1.000
    C249     C        0.50980    0.11515    0.87351    1.000
    H193     H        0.51900    0.08320    0.87660    1.000
    C250     C        0.52107    0.14561    0.90232    1.000
    H194     H        0.53820    0.13350    0.92460    1.000
    C251     C        0.48248    0.20771    0.86753    1.000
    H195     H        0.47250    0.23970    0.86540    1.000
    C252     C        0.46943    0.18011    0.83744    1.000
    H196     H        0.45060    0.19320    0.81570    1.000
    Cd15     Cd       0.96136    0.49187    0.69772    1.000
    O29      O        0.86990    0.43442    0.72945    1.000
    O30      O        0.00877    0.43382    0.74005    1.000
    C253     C        0.93314    0.42037    0.74701    1.000
    C254     C        0.91839    0.38676    0.77793    1.000
    C255     C        0.98200    0.38330    0.80073    1.000
    H197     H        0.97710    0.36370    0.82080    1.000
    H198     H        0.03260    0.40040    0.79700    1.000
    N43      N        0.82496    0.51066    0.67226    1.000
    C256     C        0.82055    0.52436    0.63769    1.000
    H199     H        0.87190    0.53250    0.62610    1.000
    C257     C        0.74499    0.52717    0.61828    1.000
    H200     H        0.74590    0.53640    0.59410    1.000
    C258     C        0.66671    0.51606    0.63514    1.000
    C259     C        0.67080    0.50342    0.67130    1.000
    H201     H        0.62030    0.49700    0.68410    1.000
    C260     C        0.75049    0.50037    0.68823    1.000
    H202     H        0.75190    0.49050    0.71230    1.000
    N44      N        0.95916    0.54121    0.74880    1.000
    N45      N        0.00844    0.69148    0.89946    1.000
    C261     C        0.03398    0.56498    0.80213    1.000
    H203     H        0.07990    0.56030    0.81810    1.000
    C262     C        0.02353    0.53620    0.77276    1.000
    H204     H        0.06310    0.51200    0.76930    1.000
    C263     C        0.90402    0.57643    0.75426    1.000
    H205     H        0.85910    0.58050    0.73770    1.000
    C264     C        0.90978    0.60709    0.78301    1.000
    H206     H        0.87000    0.63130    0.78560    1.000
    C265     C        0.97586    0.60121    0.80803    1.000
    C266     C        0.98486    0.63233    0.84006    1.000
    C267     C        0.00980    0.61515    0.87351    1.000
    H207     H        0.01900    0.58320    0.87660    1.000
    C268     C        0.02107    0.64561    0.90232    1.000
    H208     H        0.03820    0.63350    0.92460    1.000
    C269     C        0.98248    0.70771    0.86753    1.000
    H209     H        0.97250    0.73970    0.86540    1.000
    C270     C        0.96943    0.68011    0.83744    1.000
    H210     H        0.95060    0.69320    0.81570    1.000
    Cd16     Cd       0.96136    0.99187    0.19772    1.000
    O31      O        0.86990    0.93442    0.22945    1.000
    O32      O        0.00877    0.93382    0.24005    1.000
    C271     C        0.93314    0.92037    0.24701    1.000
    C272     C        0.91839    0.88676    0.27793    1.000
    C273     C        0.98200    0.88330    0.30073    1.000
    H211     H        0.97710    0.86370    0.32080    1.000
    H212     H        0.03260    0.90040    0.29700    1.000
    N46      N        0.82496    0.01066    0.17226    1.000
    C274     C        0.82055    0.02436    0.13769    1.000
    H213     H        0.87190    0.03250    0.12610    1.000
    C275     C        0.74499    0.02717    0.11828    1.000
    H214     H        0.74590    0.03640    0.09410    1.000
    C276     C        0.66671    0.01606    0.13514    1.000
    C277     C        0.67080    0.00342    0.17130    1.000
    H215     H        0.62030    0.99700    0.18410    1.000
    C278     C        0.75049    0.00037    0.18823    1.000
    H216     H        0.75190    0.99050    0.21230    1.000
    N47      N        0.95916    0.04121    0.24880    1.000
    N48      N        0.00844    0.19148    0.39946    1.000
    C279     C        0.03398    0.06498    0.30213    1.000
    H217     H        0.07990    0.06030    0.31810    1.000
    C280     C        0.02353    0.03620    0.27276    1.000
    H218     H        0.06310    0.01200    0.26930    1.000
    C281     C        0.90402    0.07643    0.25426    1.000
    H219     H        0.85910    0.08050    0.23770    1.000
    C282     C        0.90978    0.10709    0.28301    1.000
    H220     H        0.87000    0.13130    0.28560    1.000
    C283     C        0.97586    0.10121    0.30803    1.000
    C284     C        0.98486    0.13233    0.34006    1.000
    C285     C        0.00980    0.11515    0.37351    1.000
    H221     H        0.01900    0.08320    0.37660    1.000
    C286     C        0.02107    0.14561    0.40232    1.000
    H222     H        0.03820    0.13350    0.42460    1.000
    C287     C        0.98248    0.20771    0.36753    1.000
    H223     H        0.97250    0.23970    0.36540    1.000
    C288     C        0.96943    0.18011    0.33744    1.000
    H224     H        0.95060    0.19320    0.31570    1.000
    Cd17     Cd       0.53864    0.74187    0.44772    1.000
    O33      O        0.63010    0.68442    0.47945    1.000
    O34      O        0.49123    0.68382    0.49005    1.000
    C289     C        0.56686    0.67037    0.49701    1.000
    C290     C        0.58161    0.63676    0.52793    1.000
    C291     C        0.51800    0.63330    0.55073    1.000
    H225     H        0.52290    0.61370    0.57080    1.000
    H226     H        0.46740    0.65040    0.54700    1.000
    N49      N        0.67504    0.76066    0.42226    1.000
    C292     C        0.67945    0.77436    0.38769    1.000
    H227     H        0.62810    0.78250    0.37610    1.000
    C293     C        0.75501    0.77717    0.36828    1.000
    H228     H        0.75410    0.78640    0.34410    1.000
    C294     C        0.83329    0.76606    0.38514    1.000
    C295     C        0.82920    0.75342    0.42130    1.000
    H229     H        0.87970    0.74700    0.43410    1.000
    C296     C        0.74951    0.75037    0.43823    1.000
    H230     H        0.74810    0.74050    0.46230    1.000
    N50      N        0.54084    0.79121    0.49880    1.000
    N51      N        0.49156    0.94148    0.64946    1.000
    C297     C        0.46602    0.81498    0.55213    1.000
    H231     H        0.42010    0.81030    0.56810    1.000
    C298     C        0.47647    0.78620    0.52276    1.000
    H232     H        0.43690    0.76200    0.51930    1.000
    C299     C        0.59598    0.82643    0.50426    1.000
    H233     H        0.64090    0.83050    0.48770    1.000
    C300     C        0.59022    0.85709    0.53301    1.000
    H234     H        0.63000    0.88130    0.53560    1.000
    C301     C        0.52414    0.85121    0.55803    1.000
    C302     C        0.51514    0.88233    0.59006    1.000
    C303     C        0.49020    0.86515    0.62351    1.000
    H235     H        0.48100    0.83320    0.62660    1.000
    C304     C        0.47893    0.89561    0.65232    1.000
    H236     H        0.46180    0.88350    0.67460    1.000
    C305     C        0.51752    0.95771    0.61753    1.000
    H237     H        0.52750    0.98970    0.61540    1.000
    C306     C        0.53057    0.93011    0.58744    1.000
    H238     H        0.54940    0.94320    0.56570    1.000
    Cd18     Cd       0.53864    0.24187    0.94772    1.000
    O35      O        0.63010    0.18442    0.97945    1.000
    O36      O        0.49123    0.18382    0.99005    1.000
    C307     C        0.56686    0.17037    0.99701    1.000
    C308     C        0.58161    0.13676    0.02793    1.000
    C309     C        0.51800    0.13330    0.05073    1.000
    H239     H        0.52290    0.11370    0.07080    1.000
    H240     H        0.46740    0.15040    0.04700    1.000
    N52      N        0.67504    0.26066    0.92226    1.000
    C310     C        0.67945    0.27436    0.88769    1.000
    H241     H        0.62810    0.28250    0.87610    1.000
    C311     C        0.75501    0.27717    0.86828    1.000
    H242     H        0.75410    0.28640    0.84410    1.000
    C312     C        0.83329    0.26606    0.88514    1.000
    C313     C        0.82920    0.25342    0.92130    1.000
    H243     H        0.87970    0.24700    0.93410    1.000
    C314     C        0.74951    0.25037    0.93823    1.000
    H244     H        0.74810    0.24050    0.96230    1.000
    N53      N        0.54084    0.29121    0.99880    1.000
    N54      N        0.49156    0.44148    0.14946    1.000
    C315     C        0.46602    0.31498    0.05213    1.000
    H245     H        0.42010    0.31030    0.06810    1.000
    C316     C        0.47647    0.28620    0.02276    1.000
    H246     H        0.43690    0.26200    0.01930    1.000
    C317     C        0.59598    0.32643    0.00426    1.000
    H247     H        0.64090    0.33050    0.98770    1.000
    C318     C        0.59022    0.35709    0.03301    1.000
    H248     H        0.63000    0.38130    0.03560    1.000
    C319     C        0.52414    0.35121    0.05803    1.000
    C320     C        0.51514    0.38233    0.09006    1.000
    C321     C        0.49020    0.36515    0.12351    1.000
    H249     H        0.48100    0.33320    0.12660    1.000
    C322     C        0.47893    0.39561    0.15232    1.000
    H250     H        0.46180    0.38350    0.17460    1.000
    C323     C        0.51752    0.45771    0.11753    1.000
    H251     H        0.52750    0.48970    0.11540    1.000
    C324     C        0.53057    0.43011    0.08744    1.000
    H252     H        0.54940    0.44320    0.06570    1.000
    Cd19     Cd       0.03864    0.74187    0.94772    1.000
    O37      O        0.13010    0.68442    0.97945    1.000
    O38      O        0.99123    0.68382    0.99005    1.000
    C325     C        0.06686    0.67037    0.99701    1.000
    C326     C        0.08161    0.63676    0.02793    1.000
    C327     C        0.01800    0.63330    0.05073    1.000
    H253     H        0.02290    0.61370    0.07080    1.000
    H254     H        0.96740    0.65040    0.04700    1.000
    N55      N        0.17504    0.76066    0.92226    1.000
    C328     C        0.17945    0.77436    0.88769    1.000
    H255     H        0.12810    0.78250    0.87610    1.000
    C329     C        0.25501    0.77717    0.86828    1.000
    H256     H        0.25410    0.78640    0.84410    1.000
    C330     C        0.33329    0.76606    0.88514    1.000
    C331     C        0.32920    0.75342    0.92130    1.000
    H257     H        0.37970    0.74700    0.93410    1.000
    C332     C        0.24951    0.75037    0.93823    1.000
    H258     H        0.24810    0.74050    0.96230    1.000
    N56      N        0.04084    0.79121    0.99880    1.000
    N57      N        0.99156    0.94148    0.14946    1.000
    C333     C        0.96602    0.81498    0.05213    1.000
    H259     H        0.92010    0.81030    0.06810    1.000
    C334     C        0.97647    0.78620    0.02276    1.000
    H260     H        0.93690    0.76200    0.01930    1.000
    C335     C        0.09598    0.82643    0.00426    1.000
    H261     H        0.14090    0.83050    0.98770    1.000
    C336     C        0.09022    0.85709    0.03301    1.000
    H262     H        0.13000    0.88130    0.03560    1.000
    C337     C        0.02414    0.85121    0.05803    1.000
    C338     C        0.01514    0.88233    0.09006    1.000
    C339     C        0.99020    0.86515    0.12351    1.000
    H263     H        0.98100    0.83320    0.12660    1.000
    C340     C        0.97893    0.89561    0.15232    1.000
    H264     H        0.96180    0.88350    0.17460    1.000
    C341     C        0.01752    0.95771    0.11753    1.000
    H265     H        0.02750    0.98970    0.11540    1.000
    C342     C        0.03057    0.93011    0.08744    1.000
    H266     H        0.04940    0.94320    0.06570    1.000
    Cd20     Cd       0.03864    0.24187    0.44772    1.000
    O39      O        0.13010    0.18442    0.47945    1.000
    O40      O        0.99123    0.18382    0.49005    1.000
    C343     C        0.06686    0.17037    0.49701    1.000
    C344     C        0.08161    0.13676    0.52793    1.000
    C345     C        0.01800    0.13330    0.55073    1.000
    H267     H        0.02290    0.11370    0.57080    1.000
    H268     H        0.96740    0.15040    0.54700    1.000
    N58      N        0.17504    0.26066    0.42226    1.000
    C346     C        0.17945    0.27436    0.38769    1.000
    H269     H        0.12810    0.28250    0.37610    1.000
    C347     C        0.25501    0.27717    0.36828    1.000
    H270     H        0.25410    0.28640    0.34410    1.000
    C348     C        0.33329    0.26606    0.38514    1.000
    C349     C        0.32920    0.25342    0.42130    1.000
    H271     H        0.37970    0.24700    0.43410    1.000
    C350     C        0.24951    0.25037    0.43823    1.000
    H272     H        0.24810    0.24050    0.46230    1.000
    N59      N        0.04084    0.29121    0.49880    1.000
    N60      N        0.99156    0.44148    0.64946    1.000
    C351     C        0.96602    0.31498    0.55213    1.000
    H273     H        0.92010    0.31030    0.56810    1.000
    C352     C        0.97647    0.28620    0.52276    1.000
    H274     H        0.93690    0.26200    0.51930    1.000
    C353     C        0.09598    0.32643    0.50426    1.000
    H275     H        0.14090    0.33050    0.48770    1.000
    C354     C        0.09022    0.35709    0.53301    1.000
    H276     H        0.13000    0.38130    0.53560    1.000
    C355     C        0.02414    0.35121    0.55803    1.000
    C356     C        0.01514    0.38233    0.59006    1.000
    C357     C        0.99020    0.36515    0.62351    1.000
    H277     H        0.98100    0.33320    0.62660    1.000
    C358     C        0.97893    0.39561    0.65232    1.000
    H278     H        0.96180    0.38350    0.67460    1.000
    C359     C        0.01752    0.45771    0.61753    1.000
    H279     H        0.02750    0.48970    0.61540    1.000
    C360     C        0.03057    0.43011    0.58744    1.000
    H280     H        0.04940    0.44320    0.56570    1.000
    Cd21     Cd       0.71136    0.50813    0.44772    1.000
    O41      O        0.61990    0.56558    0.47945    1.000
    O42      O        0.75877    0.56618    0.49005    1.000
    C361     C        0.68314    0.57963    0.49701    1.000
    C362     C        0.66839    0.61324    0.52793    1.000
    C363     C        0.73200    0.61670    0.55073    1.000
    H281     H        0.72710    0.63630    0.57080    1.000
    H282     H        0.78260    0.59960    0.54700    1.000
    N61      N        0.57496    0.48934    0.42226    1.000
    C364     C        0.57055    0.47564    0.38769    1.000
    H283     H        0.62190    0.46750    0.37610    1.000
    C365     C        0.49499    0.47283    0.36828    1.000
    H284     H        0.49590    0.46360    0.34410    1.000
    C366     C        0.41671    0.48394    0.38514    1.000
    C367     C        0.42080    0.49658    0.42130    1.000
    H285     H        0.37030    0.50300    0.43410    1.000
    C368     C        0.50049    0.49963    0.43823    1.000
    H286     H        0.50190    0.50950    0.46230    1.000
    N62      N        0.70916    0.45879    0.49880    1.000
    N63      N        0.75844    0.30852    0.64946    1.000
    C369     C        0.78398    0.43502    0.55213    1.000
    H287     H        0.82990    0.43970    0.56810    1.000
    C370     C        0.77353    0.46380    0.52276    1.000
    H288     H        0.81310    0.48800    0.51930    1.000
    C371     C        0.65402    0.42357    0.50426    1.000
    H289     H        0.60910    0.41950    0.48770    1.000
    C372     C        0.65978    0.39291    0.53301    1.000
    H290     H        0.62000    0.36870    0.53560    1.000
    C373     C        0.72586    0.39879    0.55803    1.000
    C374     C        0.73486    0.36767    0.59006    1.000
    C375     C        0.75980    0.38485    0.62351    1.000
    H291     H        0.76900    0.41680    0.62660    1.000
    C376     C        0.77107    0.35439    0.65232    1.000
    H292     H        0.78820    0.36650    0.67460    1.000
    C377     C        0.73248    0.29229    0.61753    1.000
    H293     H        0.72250    0.26030    0.61540    1.000
    C378     C        0.71943    0.31989    0.58744    1.000
    H294     H        0.70060    0.30680    0.56570    1.000
    Cd22     Cd       0.71136    0.00813    0.94772    1.000
    O43      O        0.61990    0.06558    0.97945    1.000
    O44      O        0.75877    0.06618    0.99005    1.000
    C379     C        0.68314    0.07963    0.99701    1.000
    C380     C        0.66839    0.11324    0.02793    1.000
    C381     C        0.73200    0.11670    0.05073    1.000
    H295     H        0.72710    0.13630    0.07080    1.000
    H296     H        0.78260    0.09960    0.04700    1.000
    N64      N        0.57496    0.98934    0.92226    1.000
    C382     C        0.57055    0.97564    0.88769    1.000
    H297     H        0.62190    0.96750    0.87610    1.000
    C383     C        0.49499    0.97283    0.86828    1.000
    H298     H        0.49590    0.96360    0.84410    1.000
    C384     C        0.41671    0.98394    0.88514    1.000
    C385     C        0.42080    0.99658    0.92130    1.000
    H299     H        0.37030    0.00300    0.93410    1.000
    C386     C        0.50049    0.99963    0.93823    1.000
    H300     H        0.50190    0.00950    0.96230    1.000
    N65      N        0.70916    0.95879    0.99880    1.000
    N66      N        0.75844    0.80852    0.14946    1.000
    C387     C        0.78398    0.93502    0.05213    1.000
    H301     H        0.82990    0.93970    0.06810    1.000
    C388     C        0.77353    0.96380    0.02276    1.000
    H302     H        0.81310    0.98800    0.01930    1.000
    C389     C        0.65402    0.92357    0.00426    1.000
    H303     H        0.60910    0.91950    0.98770    1.000
    C390     C        0.65978    0.89291    0.03301    1.000
    H304     H        0.62000    0.86870    0.03560    1.000
    C391     C        0.72586    0.89879    0.05803    1.000
    C392     C        0.73486    0.86767    0.09006    1.000
    C393     C        0.75980    0.88485    0.12351    1.000
    H305     H        0.76900    0.91680    0.12660    1.000
    C394     C        0.77107    0.85439    0.15232    1.000
    H306     H        0.78820    0.86650    0.17460    1.000
    C395     C        0.73248    0.79229    0.11753    1.000
    H307     H        0.72250    0.76030    0.11540    1.000
    C396     C        0.71943    0.81989    0.08744    1.000
    H308     H        0.70060    0.80680    0.06570    1.000
    Cd23     Cd       0.21136    0.50813    0.94772    1.000
    O45      O        0.11990    0.56558    0.97945    1.000
    O46      O        0.25877    0.56618    0.99005    1.000
    C397     C        0.18314    0.57963    0.99701    1.000
    C398     C        0.16839    0.61324    0.02793    1.000
    C399     C        0.23200    0.61670    0.05073    1.000
    H309     H        0.22710    0.63630    0.07080    1.000
    H310     H        0.28260    0.59960    0.04700    1.000
    N67      N        0.07496    0.48934    0.92226    1.000
    C400     C        0.07055    0.47564    0.88769    1.000
    H311     H        0.12190    0.46750    0.87610    1.000
    C401     C        0.99499    0.47283    0.86828    1.000
    H312     H        0.99590    0.46360    0.84410    1.000
    C402     C        0.91671    0.48394    0.88514    1.000
    C403     C        0.92080    0.49658    0.92130    1.000
    H313     H        0.87030    0.50300    0.93410    1.000
    C404     C        0.00049    0.49963    0.93823    1.000
    H314     H        0.00190    0.50950    0.96230    1.000
    N68      N        0.20916    0.45879    0.99880    1.000
    N69      N        0.25844    0.30852    0.14946    1.000
    C405     C        0.28398    0.43502    0.05213    1.000
    H315     H        0.32990    0.43970    0.06810    1.000
    C406     C        0.27353    0.46380    0.02276    1.000
    H316     H        0.31310    0.48800    0.01930    1.000
    C407     C        0.15402    0.42357    0.00426    1.000
    H317     H        0.10910    0.41950    0.98770    1.000
    C408     C        0.15978    0.39291    0.03301    1.000
    H318     H        0.12000    0.36870    0.03560    1.000
    C409     C        0.22586    0.39879    0.05803    1.000
    C410     C        0.23486    0.36767    0.09006    1.000
    C411     C        0.25980    0.38485    0.12351    1.000
    H319     H        0.26900    0.41680    0.12660    1.000
    C412     C        0.27107    0.35439    0.15232    1.000
    H320     H        0.28820    0.36650    0.17460    1.000
    C413     C        0.23248    0.29229    0.11753    1.000
    H321     H        0.22250    0.26030    0.11540    1.000
    C414     C        0.21943    0.31989    0.08744    1.000
    H322     H        0.20060    0.30680    0.06570    1.000
    Cd24     Cd       0.21136    0.00813    0.44772    1.000
    O47      O        0.11990    0.06558    0.47945    1.000
    O48      O        0.25877    0.06618    0.49005    1.000
    C415     C        0.18314    0.07963    0.49701    1.000
    C416     C        0.16839    0.11324    0.52793    1.000
    C417     C        0.23200    0.11670    0.55073    1.000
    H323     H        0.22710    0.13630    0.57080    1.000
    H324     H        0.28260    0.09960    0.54700    1.000
    N70      N        0.07496    0.98934    0.42226    1.000
    C418     C        0.07055    0.97564    0.38769    1.000
    H325     H        0.12190    0.96750    0.37610    1.000
    C419     C        0.99499    0.97283    0.36828    1.000
    H326     H        0.99590    0.96360    0.34410    1.000
    C420     C        0.91671    0.98394    0.38514    1.000
    C421     C        0.92080    0.99658    0.42130    1.000
    H327     H        0.87030    0.00300    0.43410    1.000
    C422     C        0.00049    0.99963    0.43823    1.000
    H328     H        0.00190    0.00950    0.46230    1.000
    N71      N        0.20916    0.95879    0.49880    1.000
    N72      N        0.25844    0.80852    0.64946    1.000
    C423     C        0.28398    0.93502    0.55213    1.000
    H329     H        0.32990    0.93970    0.56810    1.000
    C424     C        0.27353    0.96380    0.52276    1.000
    H330     H        0.31310    0.98800    0.51930    1.000
    C425     C        0.15402    0.92357    0.50426    1.000
    H331     H        0.10910    0.91950    0.48770    1.000
    C426     C        0.15978    0.89291    0.53301    1.000
    H332     H        0.12000    0.86870    0.53560    1.000
    C427     C        0.22586    0.89879    0.55803    1.000
    C428     C        0.23486    0.86767    0.59006    1.000
    C429     C        0.25980    0.88485    0.62351    1.000
    H333     H        0.26900    0.91680    0.62660    1.000
    C430     C        0.27107    0.85439    0.65232    1.000
    H334     H        0.28820    0.86650    0.67460    1.000
    C431     C        0.23248    0.79229    0.61753    1.000
    H335     H        0.22250    0.76030    0.61540    1.000
    C432     C        0.21943    0.81989    0.58744    1.000
    H336     H        0.20060    0.80680    0.56570    1.000
    Cd25     Cd       0.71136    0.74187    0.80228    1.000
    O49      O        0.61990    0.68442    0.77055    1.000
    O50      O        0.75877    0.68382    0.75995    1.000
    C433     C        0.68314    0.67037    0.75299    1.000
    C434     C        0.66839    0.63676    0.72207    1.000
    C435     C        0.73200    0.63330    0.69927    1.000
    H337     H        0.72710    0.61370    0.67920    1.000
    H338     H        0.78260    0.65040    0.70300    1.000
    N73      N        0.57496    0.76066    0.82774    1.000
    C436     C        0.57055    0.77436    0.86231    1.000
    H339     H        0.62190    0.78250    0.87390    1.000
    C437     C        0.49499    0.77717    0.88172    1.000
    H340     H        0.49590    0.78640    0.90590    1.000
    C438     C        0.41671    0.76606    0.86486    1.000
    C439     C        0.42080    0.75342    0.82870    1.000
    H341     H        0.37030    0.74700    0.81590    1.000
    C440     C        0.50049    0.75037    0.81177    1.000
    H342     H        0.50190    0.74050    0.78770    1.000
    N74      N        0.70916    0.79121    0.75120    1.000
    N75      N        0.75844    0.94148    0.60054    1.000
    C441     C        0.78398    0.81498    0.69787    1.000
    H343     H        0.82990    0.81030    0.68190    1.000
    C442     C        0.77353    0.78620    0.72724    1.000
    H344     H        0.81310    0.76200    0.73070    1.000
    C443     C        0.65402    0.82643    0.74574    1.000
    H345     H        0.60910    0.83050    0.76230    1.000
    C444     C        0.65978    0.85709    0.71699    1.000
    H346     H        0.62000    0.88130    0.71440    1.000
    C445     C        0.72586    0.85121    0.69197    1.000
    C446     C        0.73486    0.88233    0.65994    1.000
    C447     C        0.75980    0.86515    0.62649    1.000
    H347     H        0.76900    0.83320    0.62340    1.000
    C448     C        0.77107    0.89561    0.59768    1.000
    H348     H        0.78820    0.88350    0.57540    1.000
    C449     C        0.73248    0.95771    0.63247    1.000
    H349     H        0.72250    0.98970    0.63460    1.000
    C450     C        0.71943    0.93011    0.66256    1.000
    H350     H        0.70060    0.94320    0.68430    1.000
    Cd26     Cd       0.71136    0.24187    0.30228    1.000
    O51      O        0.61990    0.18442    0.27055    1.000
    O52      O        0.75877    0.18382    0.25995    1.000
    C451     C        0.68314    0.17037    0.25299    1.000
    C452     C        0.66839    0.13676    0.22207    1.000
    C453     C        0.73200    0.13330    0.19927    1.000
    H351     H        0.72710    0.11370    0.17920    1.000
    H352     H        0.78260    0.15040    0.20300    1.000
    N76      N        0.57496    0.26066    0.32774    1.000
    C454     C        0.57055    0.27436    0.36231    1.000
    H353     H        0.62190    0.28250    0.37390    1.000
    C455     C        0.49499    0.27717    0.38172    1.000
    H354     H        0.49590    0.28640    0.40590    1.000
    C456     C        0.41671    0.26606    0.36486    1.000
    C457     C        0.42080    0.25342    0.32870    1.000
    H355     H        0.37030    0.24700    0.31590    1.000
    C458     C        0.50049    0.25037    0.31177    1.000
    H356     H        0.50190    0.24050    0.28770    1.000
    N77      N        0.70916    0.29121    0.25120    1.000
    N78      N        0.75844    0.44148    0.10054    1.000
    C459     C        0.78398    0.31498    0.19787    1.000
    H357     H        0.82990    0.31030    0.18190    1.000
    C460     C        0.77353    0.28620    0.22724    1.000
    H358     H        0.81310    0.26200    0.23070    1.000
    C461     C        0.65402    0.32643    0.24574    1.000
    H359     H        0.60910    0.33050    0.26230    1.000
    C462     C        0.65978    0.35709    0.21699    1.000
    H360     H        0.62000    0.38130    0.21440    1.000
    C463     C        0.72586    0.35121    0.19197    1.000
    C464     C        0.73486    0.38233    0.15994    1.000
    C465     C        0.75980    0.36515    0.12649    1.000
    H361     H        0.76900    0.33320    0.12340    1.000
    C466     C        0.77107    0.39561    0.09768    1.000
    H362     H        0.78820    0.38350    0.07540    1.000
    C467     C        0.73248    0.45771    0.13247    1.000
    H363     H        0.72250    0.48970    0.13460    1.000
    C468     C        0.71943    0.43011    0.16256    1.000
    H364     H        0.70060    0.44320    0.18430    1.000
    Cd27     Cd       0.21136    0.74187    0.30228    1.000
    O53      O        0.11990    0.68442    0.27055    1.000
    O54      O        0.25877    0.68382    0.25995    1.000
    C469     C        0.18314    0.67037    0.25299    1.000
    C470     C        0.16839    0.63676    0.22207    1.000
    C471     C        0.23200    0.63330    0.19927    1.000
    H365     H        0.22710    0.61370    0.17920    1.000
    H366     H        0.28260    0.65040    0.20300    1.000
    N79      N        0.07496    0.76066    0.32774    1.000
    C472     C        0.07055    0.77436    0.36231    1.000
    H367     H        0.12190    0.78250    0.37390    1.000
    C473     C        0.99499    0.77717    0.38172    1.000
    H368     H        0.99590    0.78640    0.40590    1.000
    C474     C        0.91671    0.76606    0.36486    1.000
    C475     C        0.92080    0.75342    0.32870    1.000
    H369     H        0.87030    0.74700    0.31590    1.000
    C476     C        0.00049    0.75037    0.31177    1.000
    H370     H        0.00190    0.74050    0.28770    1.000
    N80      N        0.20916    0.79121    0.25120    1.000
    N81      N        0.25844    0.94148    0.10054    1.000
    C477     C        0.28398    0.81498    0.19787    1.000
    H371     H        0.32990    0.81030    0.18190    1.000
    C478     C        0.27353    0.78620    0.22724    1.000
    H372     H        0.31310    0.76200    0.23070    1.000
    C479     C        0.15402    0.82643    0.24574    1.000
    H373     H        0.10910    0.83050    0.26230    1.000
    C480     C        0.15978    0.85709    0.21699    1.000
    H374     H        0.12000    0.88130    0.21440    1.000
    C481     C        0.22586    0.85121    0.19197    1.000
    C482     C        0.23486    0.88233    0.15994    1.000
    C483     C        0.25980    0.86515    0.12649    1.000
    H375     H        0.26900    0.83320    0.12340    1.000
    C484     C        0.27107    0.89561    0.09768    1.000
    H376     H        0.28820    0.88350    0.07540    1.000
    C485     C        0.23248    0.95771    0.13247    1.000
    H377     H        0.22250    0.98970    0.13460    1.000
    C486     C        0.21943    0.93011    0.16256    1.000
    H378     H        0.20060    0.94320    0.18430    1.000
    Cd28     Cd       0.21136    0.24187    0.80228    1.000
    O55      O        0.11990    0.18442    0.77055    1.000
    O56      O        0.25877    0.18382    0.75995    1.000
    C487     C        0.18314    0.17037    0.75299    1.000
    C488     C        0.16839    0.13676    0.72207    1.000
    C489     C        0.23200    0.13330    0.69927    1.000
    H379     H        0.22710    0.11370    0.67920    1.000
    H380     H        0.28260    0.15040    0.70300    1.000
    N82      N        0.07496    0.26066    0.82774    1.000
    C490     C        0.07055    0.27436    0.86231    1.000
    H381     H        0.12190    0.28250    0.87390    1.000
    C491     C        0.99499    0.27717    0.88172    1.000
    H382     H        0.99590    0.28640    0.90590    1.000
    C492     C        0.91671    0.26606    0.86486    1.000
    C493     C        0.92080    0.25342    0.82870    1.000
    H383     H        0.87030    0.24700    0.81590    1.000
    C494     C        0.00049    0.25037    0.81177    1.000
    H384     H        0.00190    0.24050    0.78770    1.000
    N83      N        0.20916    0.29121    0.75120    1.000
    N84      N        0.25844    0.44148    0.60054    1.000
    C495     C        0.28398    0.31498    0.69787    1.000
    H385     H        0.32990    0.31030    0.68190    1.000
    C496     C        0.27353    0.28620    0.72724    1.000
    H386     H        0.31310    0.26200    0.73070    1.000
    C497     C        0.15402    0.32643    0.74574    1.000
    H387     H        0.10910    0.33050    0.76230    1.000
    C498     C        0.15978    0.35709    0.71699    1.000
    H388     H        0.12000    0.38130    0.71440    1.000
    C499     C        0.22586    0.35121    0.69197    1.000
    C500     C        0.23486    0.38233    0.65994    1.000
    C501     C        0.25980    0.36515    0.62649    1.000
    H389     H        0.26900    0.33320    0.62340    1.000
    C502     C        0.27107    0.39561    0.59768    1.000
    H390     H        0.28820    0.38350    0.57540    1.000
    C503     C        0.23248    0.45771    0.63247    1.000
    H391     H        0.22250    0.48970    0.63460    1.000
    C504     C        0.21943    0.43011    0.66256    1.000
    H392     H        0.20060    0.44320    0.68430    1.000
    Cd29     Cd       0.53864    0.50813    0.80228    1.000
    O57      O        0.63010    0.56558    0.77055    1.000
    O58      O        0.49123    0.56618    0.75995    1.000
    C505     C        0.56686    0.57963    0.75299    1.000
    C506     C        0.58161    0.61324    0.72207    1.000
    C507     C        0.51800    0.61670    0.69927    1.000
    H393     H        0.52290    0.63630    0.67920    1.000
    H394     H        0.46740    0.59960    0.70300    1.000
    N85      N        0.67504    0.48934    0.82774    1.000
    C508     C        0.67945    0.47564    0.86231    1.000
    H395     H        0.62810    0.46750    0.87390    1.000
    C509     C        0.75501    0.47283    0.88172    1.000
    H396     H        0.75410    0.46360    0.90590    1.000
    C510     C        0.83329    0.48394    0.86486    1.000
    C511     C        0.82920    0.49658    0.82870    1.000
    H397     H        0.87970    0.50300    0.81590    1.000
    C512     C        0.74951    0.49963    0.81177    1.000
    H398     H        0.74810    0.50950    0.78770    1.000
    N86      N        0.54084    0.45879    0.75120    1.000
    N87      N        0.49156    0.30852    0.60054    1.000
    C513     C        0.46602    0.43502    0.69787    1.000
    H399     H        0.42010    0.43970    0.68190    1.000
    C514     C        0.47647    0.46380    0.72724    1.000
    H400     H        0.43690    0.48800    0.73070    1.000
    C515     C        0.59598    0.42357    0.74574    1.000
    H401     H        0.64090    0.41950    0.76230    1.000
    C516     C        0.59022    0.39291    0.71699    1.000
    H402     H        0.63000    0.36870    0.71440    1.000
    C517     C        0.52414    0.39879    0.69197    1.000
    C518     C        0.51514    0.36767    0.65994    1.000
    C519     C        0.49020    0.38485    0.62649    1.000
    H403     H        0.48100    0.41680    0.62340    1.000
    C520     C        0.47893    0.35439    0.59768    1.000
    H404     H        0.46180    0.36650    0.57540    1.000
    C521     C        0.51752    0.29229    0.63247    1.000
    H405     H        0.52750    0.26030    0.63460    1.000
    C522     C        0.53057    0.31989    0.66256    1.000
    H406     H        0.54940    0.30680    0.68430    1.000
    Cd30     Cd       0.53864    0.00813    0.30228    1.000
    O59      O        0.63010    0.06558    0.27055    1.000
    O60      O        0.49123    0.06618    0.25995    1.000
    C523     C        0.56686    0.07963    0.25299    1.000
    C524     C        0.58161    0.11324    0.22207    1.000
    C525     C        0.51800    0.11670    0.19927    1.000
    H407     H        0.52290    0.13630    0.17920    1.000
    H408     H        0.46740    0.09960    0.20300    1.000
    N88      N        0.67504    0.98934    0.32774    1.000
    C526     C        0.67945    0.97564    0.36231    1.000
    H409     H        0.62810    0.96750    0.37390    1.000
    C527     C        0.75501    0.97283    0.38172    1.000
    H410     H        0.75410    0.96360    0.40590    1.000
    C528     C        0.83329    0.98394    0.36486    1.000
    C529     C        0.82920    0.99658    0.32870    1.000
    H411     H        0.87970    0.00300    0.31590    1.000
    C530     C        0.74951    0.99963    0.31177    1.000
    H412     H        0.74810    0.00950    0.28770    1.000
    N89      N        0.54084    0.95879    0.25120    1.000
    N90      N        0.49156    0.80852    0.10054    1.000
    C531     C        0.46602    0.93502    0.19787    1.000
    H413     H        0.42010    0.93970    0.18190    1.000
    C532     C        0.47647    0.96380    0.22724    1.000
    H414     H        0.43690    0.98800    0.23070    1.000
    C533     C        0.59598    0.92357    0.24574    1.000
    H415     H        0.64090    0.91950    0.26230    1.000
    C534     C        0.59022    0.89291    0.21699    1.000
    H416     H        0.63000    0.86870    0.21440    1.000
    C535     C        0.52414    0.89879    0.19197    1.000
    C536     C        0.51514    0.86767    0.15994    1.000
    C537     C        0.49020    0.88485    0.12649    1.000
    H417     H        0.48100    0.91680    0.12340    1.000
    C538     C        0.47893    0.85439    0.09768    1.000
    H418     H        0.46180    0.86650    0.07540    1.000
    C539     C        0.51752    0.79229    0.13247    1.000
    H419     H        0.52750    0.76030    0.13460    1.000
    C540     C        0.53057    0.81989    0.16256    1.000
    H420     H        0.54940    0.80680    0.18430    1.000
    Cd31     Cd       0.03864    0.50813    0.30228    1.000
    O61      O        0.13010    0.56558    0.27055    1.000
    O62      O        0.99123    0.56618    0.25995    1.000
    C541     C        0.06686    0.57963    0.25299    1.000
    C542     C        0.08161    0.61324    0.22207    1.000
    C543     C        0.01800    0.61670    0.19927    1.000
    H421     H        0.02290    0.63630    0.17920    1.000
    H422     H        0.96740    0.59960    0.20300    1.000
    N91      N        0.17504    0.48934    0.32774    1.000
    C544     C        0.17945    0.47564    0.36231    1.000
    H423     H        0.12810    0.46750    0.37390    1.000
    C545     C        0.25501    0.47283    0.38172    1.000
    H424     H        0.25410    0.46360    0.40590    1.000
    C546     C        0.33329    0.48394    0.36486    1.000
    C547     C        0.32920    0.49658    0.32870    1.000
    H425     H        0.37970    0.50300    0.31590    1.000
    C548     C        0.24951    0.49963    0.31177    1.000
    H426     H        0.24810    0.50950    0.28770    1.000
    N92      N        0.04084    0.45879    0.25120    1.000
    N93      N        0.99156    0.30852    0.10054    1.000
    C549     C        0.96602    0.43502    0.19787    1.000
    H427     H        0.92010    0.43970    0.18190    1.000
    C550     C        0.97647    0.46380    0.22724    1.000
    H428     H        0.93690    0.48800    0.23070    1.000
    C551     C        0.09598    0.42357    0.24574    1.000
    H429     H        0.14090    0.41950    0.26230    1.000
    C552     C        0.09022    0.39291    0.21699    1.000
    H430     H        0.13000    0.36870    0.21440    1.000
    C553     C        0.02414    0.39879    0.19197    1.000
    C554     C        0.01514    0.36767    0.15994    1.000
    C555     C        0.99020    0.38485    0.12649    1.000
    H431     H        0.98100    0.41680    0.12340    1.000
    C556     C        0.97893    0.35439    0.09768    1.000
    H432     H        0.96180    0.36650    0.07540    1.000
    C557     C        0.01752    0.29229    0.13247    1.000
    H433     H        0.02750    0.26030    0.13460    1.000
    C558     C        0.03057    0.31989    0.16256    1.000
    H434     H        0.04940    0.30680    0.18430    1.000
    Cd32     Cd       0.03864    0.00813    0.80228    1.000
    O63      O        0.13010    0.06558    0.77055    1.000
    O64      O        0.99123    0.06618    0.75995    1.000
    C559     C        0.06686    0.07963    0.75299    1.000
    C560     C        0.08161    0.11324    0.72207    1.000
    C561     C        0.01800    0.11670    0.69927    1.000
    H435     H        0.02290    0.13630    0.67920    1.000
    H436     H        0.96740    0.09960    0.70300    1.000
    N94      N        0.17504    0.98934    0.82774    1.000
    C562     C        0.17945    0.97564    0.86231    1.000
    H437     H        0.12810    0.96750    0.87390    1.000
    C563     C        0.25501    0.97283    0.88172    1.000
    H438     H        0.25410    0.96360    0.90590    1.000
    C564     C        0.33329    0.98394    0.86486    1.000
    C565     C        0.32920    0.99658    0.82870    1.000
    H439     H        0.37970    0.00300    0.81590    1.000
    C566     C        0.24951    0.99963    0.81177    1.000
    H440     H        0.24810    0.00950    0.78770    1.000
    N95      N        0.04084    0.95879    0.75120    1.000
    N96      N        0.99156    0.80852    0.60054    1.000
    C567     C        0.96602    0.93502    0.69787    1.000
    H441     H        0.92010    0.93970    0.68190    1.000
    C568     C        0.97647    0.96380    0.72724    1.000
    H442     H        0.93690    0.98800    0.73070    1.000
    C569     C        0.09598    0.92357    0.74574    1.000
    H443     H        0.14090    0.91950    0.76230    1.000
    C570     C        0.09022    0.89291    0.71699    1.000
    H444     H        0.13000    0.86870    0.71440    1.000
    C571     C        0.02414    0.89879    0.69197    1.000
    C572     C        0.01514    0.86767    0.65994    1.000
    C573     C        0.99020    0.88485    0.62649    1.000
    H445     H        0.98100    0.91680    0.62340    1.000
    C574     C        0.97893    0.85439    0.59768    1.000
    H446     H        0.96180    0.86650    0.57540    1.000
    C575     C        0.01752    0.79229    0.63247    1.000
    H447     H        0.02750    0.76030    0.63460    1.000
    C576     C        0.03057    0.81989    0.66256    1.000
    H448     H        0.04940    0.80680    0.68430    1.000
