data_functionalizedCrystal
_audit_creation_method	'EQeq! by Chris Wilmer'
_symmetry_space_group_name_H-M	'P1'
_symmetry_Int_Tables_number	1
_symmetry_cell_setting	triclinic
loop_
_symmetry_equiv_pos_as_xyz
  x,y,z
_cell_length_a	13.0973
_cell_length_b	13.0973
_cell_length_c	13.0973
_cell_angle_alpha	90
_cell_angle_beta	90
_cell_angle_gamma	90
loop_
_atom_site_label
_atom_site_type_symbol
_atom_site_fract_x
_atom_site_fract_y
_atom_site_fract_z
_atom_site_charge
Mof_N 	N 	0.43631	0.45599	0.1352	-0.264
Mof_N 	N 	0.48052	0.46111	0.21404	-0.054
Mof_N 	N 	0.5201	0.4645	0.29246	-0.363
Mof_N 	N 	0.06369	0.54401	0.6352	-0.213
Mof_N 	N 	0.01948	0.53889	0.71404	-0.163
Mof_N 	N 	0.9799	0.5355	0.79246	-0.02
Mof_N 	N 	0.56369	0.95599	0.3648	-0.127
Mof_N 	N 	0.51948	0.96111	0.28596	-0.018
Mof_N 	N 	0.4799	0.9645	0.20754	-0.188
Mof_N 	N 	0.93631	0.04401	0.8648	-0.023
Mof_N 	N 	0.98052	0.03889	0.78596	0.084
Mof_N 	N 	0.0201	0.0355	0.70754	-0.386
Mof_N 	N 	0.1352	0.43631	0.45599	-0.265
Mof_N 	N 	0.21404	0.48052	0.46111	-0.055
Mof_N 	N 	0.29246	0.5201	0.4645	-0.364
Mof_N 	N 	0.6352	0.06369	0.54401	-0.213
Mof_N 	N 	0.71404	0.01948	0.53889	-0.163
Mof_N 	N 	0.79246	0.9799	0.5355	-0.02
Mof_N 	N 	0.3648	0.56369	0.95599	-0.127
Mof_N 	N 	0.28596	0.51948	0.96111	-0.018
Mof_N 	N 	0.20754	0.4799	0.9645	-0.188
Mof_N 	N 	0.8648	0.93631	0.04401	-0.023
Mof_N 	N 	0.78596	0.98052	0.03889	0.084
Mof_N 	N 	0.70754	0.0201	0.0355	-0.386
Mof_N 	N 	0.45599	0.1352	0.43631	-0.265
Mof_N 	N 	0.46111	0.21404	0.48052	-0.055
Mof_N 	N 	0.4645	0.29246	0.5201	-0.364
Mof_N 	N 	0.54401	0.6352	0.06369	-0.213
Mof_N 	N 	0.53889	0.71404	0.01948	-0.163
Mof_N 	N 	0.5355	0.79246	0.9799	-0.02
Mof_N 	N 	0.95599	0.3648	0.56369	-0.127
Mof_N 	N 	0.96111	0.28596	0.51948	-0.018
Mof_N 	N 	0.9645	0.20754	0.4799	-0.188
Mof_N 	N 	0.04401	0.8648	0.93631	-0.023
Mof_N 	N 	0.03889	0.78596	0.98052	0.084
Mof_N 	N 	0.0355	0.70754	0.0201	-0.386
Mof_N 	N 	0.56369	0.54401	0.8648	-0.125
Mof_N 	N 	0.51948	0.53889	0.78596	-0.029
Mof_N 	N 	0.4799	0.5355	0.70754	-0.338
Mof_N 	N 	0.93631	0.45599	0.3648	-0.163
Mof_N 	N 	0.98052	0.46111	0.28596	0.089
Mof_N 	N 	0.0201	0.4645	0.20754	-0.397
Mof_N 	N 	0.43631	0.04401	0.6352	-0.243
Mof_N 	N 	0.48052	0.03889	0.71404	-0.063
Mof_N 	N 	0.5201	0.0355	0.79246	-0.221
Mof_N 	N 	0.06369	0.95599	0.1352	-0.094
Mof_N 	N 	0.01948	0.96111	0.21404	-0.144
Mof_N 	N 	0.9799	0.9645	0.29246	-0.006
Mof_N 	N 	0.8648	0.56369	0.54401	-0.125
Mof_N 	N 	0.78596	0.51948	0.53889	-0.029
Mof_N 	N 	0.70754	0.4799	0.5355	-0.338
Mof_N 	N 	0.3648	0.93631	0.45599	-0.163
Mof_N 	N 	0.28596	0.98052	0.46111	0.089
Mof_N 	N 	0.20754	0.0201	0.4645	-0.397
Mof_N 	N 	0.6352	0.43631	0.04401	-0.243
Mof_N 	N 	0.71404	0.48052	0.03889	-0.063
Mof_N 	N 	0.79246	0.5201	0.0355	-0.221
Mof_N 	N 	0.1352	0.06369	0.95599	-0.094
Mof_N 	N 	0.21404	0.01948	0.96111	-0.144
Mof_N 	N 	0.29246	0.9799	0.9645	-0.006
Mof_N 	N 	0.54401	0.8648	0.56369	-0.125
Mof_N 	N 	0.53889	0.78596	0.51948	-0.029
Mof_N 	N 	0.5355	0.70754	0.4799	-0.338
Mof_N 	N 	0.45599	0.3648	0.93631	-0.163
Mof_N 	N 	0.46111	0.28596	0.98052	0.089
Mof_N 	N 	0.4645	0.20754	0.0201	-0.397
Mof_N 	N 	0.04401	0.6352	0.43631	-0.243
Mof_N 	N 	0.03889	0.71404	0.48052	-0.063
Mof_N 	N 	0.0355	0.79246	0.5201	-0.221
Mof_N 	N 	0.95599	0.1352	0.06369	-0.094
Mof_N 	N 	0.96111	0.21404	0.01948	-0.144
Mof_N 	N 	0.9645	0.29246	0.9799	-0.006
Mof_Cr	Cr	0.5	0.5	-0	0.921
Mof_Cr	Cr	1.8747e-33	0.5	0.5	0.921
Mof_Cr	Cr	0.5	0	0.5	0.921
Mof_Cr	Cr	-0	0	-0	0.002
Mof_K 	K 	0.5	0.5	0.5	3.067
Mof_K 	K 	-0	0.5	-0	1.527
Mof_K 	K 	0.5	0	-0	1.527
Mof_K 	K 	1.8747e-33	0	0.5	1.527
_end
