data_functionalizedCrystal
_audit_creation_method	'EQeq! by Chris Wilmer'
_symmetry_space_group_name_H-M	'P1'
_symmetry_Int_Tables_number	1
_symmetry_cell_setting	triclinic
loop_
_symmetry_equiv_pos_as_xyz
  x,y,z
_cell_length_a	22.1162
_cell_length_b	16.2831
_cell_length_c	25.6433
_cell_angle_alpha	90
_cell_angle_beta	115.366
_cell_angle_gamma	90
loop_
_atom_site_label
_atom_site_type_symbol
_atom_site_fract_x
_atom_site_fract_y
_atom_site_fract_z
_atom_site_charge
Mof_Ag	Ag	0.34378	0.04313	0.36771	0.522
Mof_Ag	Ag	0.82279	0.24829	0.86718	0.535
Mof_N 	N 	0.1226	0.0376	0.0592	-0.138
Mof_N 	N 	0.28	0.8133	0.9214	-0.209
Mof_N 	N 	0.4389	0.1157	0.4122	-0.215
Mof_N 	N 	0.7384	0.3226	0.5631	-0.138
Mof_N 	N 	0.9128	0.1582	0.9074	-0.189
Mof_C 	C 	0.7354	0.4347	0.3881	0.078
Mof_H 	H 	0.7139	0.4405	0.3482	-0.009
Mof_C 	C 	0.2194	0.8486	0.8921	0.061
Mof_H 	H 	0.1993	0.8444	0.8521	-0.025
Mof_N 	N 	0.2112	0.9507	0.0648	-0.15
Mof_C 	C 	0.5331	0.1872	0.411	-0.141
Mof_H 	H 	0.5552	0.2071	0.3899	0.081
Mof_N 	N 	0.7959	0.4697	0.4168	-0.191
Mof_N 	N 	0.6479	0.2897	0.4726	-0.137
Mof_N 	N 	0.8	0.2471	0.7714	-0.2
Mof_C 	C 	0.6239	0.2431	0.5025	0.098
Mof_C 	C 	0.0976	0.0298	0.0013	0.098
Mof_C 	C 	0.2778	0.8618	0.0092	-0.132
Mof_H 	H 	0.2987	0.8654	0.0493	0.073
Mof_N 	N 	0.1263	0.9889	0.9733	-0.14
Mof_C 	C 	0.7983	0.4163	0.505	-0.128
Mof_H 	H 	0.8205	0.4123	0.5449	0.083
Mof_N 	N 	0.276	0.0291	0.2718	-0.197
Mof_C 	C 	0.5596	0.1984	0.4702	0.059
Mof_C 	C 	0.0031	0.116	0.9964	-0.131
Mof_H 	H 	0.0226	0.1171	0.0365	0.084
Mof_C 	C 	0.9431	0.1167	0.8796	0.081
Mof_H 	H 	0.9233	0.1177	0.8394	-0.006
Mof_C 	C 	0.7095	0.2736	0.5877	0.102
Mof_C 	C 	0.5253	0.1651	0.5002	-0.143
Mof_H 	H 	0.5424	0.17	0.5401	0.074
Mof_N 	N 	0.653	0.2317	0.5596	-0.142
Mof_C 	C 	0.3077	0.9955	0.243	0.071
Mof_H 	H 	0.352	0.9793	0.2637	-0.023
Mof_C 	C 	0.7429	0.263	0.6514	0.057
Mof_C 	C 	0.1787	0.0441	0.1814	-0.131
Mof_H 	H 	0.1346	0.0616	0.1613	0.079
Mof_C 	C 	0.943	0.1569	0.9649	0.084
Mof_H 	H 	0.9229	0.1846	0.985	-0.012
Mof_C 	C 	0.4732	0.1459	0.3841	0.071
Mof_H 	H 	0.4555	0.1386	0.3444	-0.02
Mof_C 	C 	0.2125	0.0082	0.1521	0.051
Mof_C 	C 	0.8264	0.4598	0.474	0.084
Mof_H 	H 	0.8685	0.483	0.4942	-0.012
Mof_C 	C 	0.0017	0.0732	0.9071	-0.136
Mof_H 	H 	0.0199	0.044	0.886	0.079
Mof_C 	C 	0.8284	0.2927	0.7451	0.083
Mof_H 	H 	0.8683	0.3192	0.7679	-0.021
Mof_C 	C 	0.0331	0.0739	0.9671	0.066
Mof_C 	C 	0.2153	0.8984	0.9776	0.053
Mof_C 	C 	0.1858	0.8908	0.9185	-0.132
Mof_H 	H 	0.1439	0.9137	0.8966	0.077
Mof_C 	C 	0.704	0.3904	0.4156	-0.129
Mof_H 	H 	0.6616	0.3686	0.3943	0.083
Mof_C 	C 	0.7061	0.3278	0.5053	0.102
Mof_C 	C 	0.2116	0.0535	0.2409	0.072
Mof_H 	H 	0.1888	0.0773	0.2603	-0.013
Mof_C 	C 	0.1801	0.9972	0.0882	0.098
Mof_C 	C 	0.1825	0.948	0.0071	0.094
Mof_C 	C 	0.7356	0.3785	0.4745	0.065
Mof_C 	C 	0.308	0.8199	0.9791	0.072
Mof_H 	H 	0.3494	0.7955	-0	-0.011
Mof_C 	C 	0.8019	0.3035	0.6853	-0.138
Mof_H 	H 	0.8232	0.3367	0.6688	0.083
Mof_C 	C 	0.4663	0.1253	0.4697	0.072
Mof_H 	H 	0.4437	0.1036	0.49	-0.019
Mof_C 	C 	0.7148	0.2113	0.6779	-0.132
Mof_H 	H 	0.6765	0.1811	0.6561	0.068
Mof_C 	C 	0.7446	0.2053	0.7374	0.068
Mof_H 	H 	0.7254	0.1706	0.7549	-0.016
Mof_C 	C 	0.278	0.9835	0.1835	-0.138
Mof_H 	H 	0.3019	0.9593	0.1652	0.071
Mof_Ag	Ag	0.84378	0.54313	0.36771	0.523
Mof_Ag	Ag	0.32279	0.74829	0.86718	0.536
Mof_N 	N 	0.6226	0.5376	0.0592	-0.137
Mof_N 	N 	0.78	0.3133	0.9214	-0.207
Mof_N 	N 	0.9389	0.6157	0.4122	-0.214
Mof_N 	N 	0.2384	0.8226	0.5631	-0.137
Mof_N 	N 	0.4128	0.6582	0.9074	-0.188
Mof_C 	C 	0.2354	0.9347	0.3881	0.079
Mof_H 	H 	0.2139	0.9405	0.3482	-0.008
Mof_C 	C 	0.7194	0.3486	0.8921	0.062
Mof_H 	H 	0.6993	0.3444	0.8521	-0.024
Mof_N 	N 	0.7112	0.4507	0.0648	-0.15
Mof_C 	C 	0.0331	0.6872	0.411	-0.142
Mof_H 	H 	0.0552	0.7071	0.3899	0.081
Mof_N 	N 	0.2959	0.9697	0.4168	-0.191
Mof_N 	N 	0.1479	0.7897	0.4726	-0.137
Mof_N 	N 	0.3	0.7471	0.7714	-0.2
Mof_C 	C 	0.1239	0.7431	0.5025	0.098
Mof_C 	C 	0.5976	0.5298	0.0013	0.099
Mof_C 	C 	0.7778	0.3618	0.0092	-0.129
Mof_H 	H 	0.7987	0.3654	0.0493	0.072
Mof_N 	N 	0.6263	0.4889	0.9733	-0.141
Mof_C 	C 	0.2983	0.9163	0.505	-0.128
Mof_H 	H 	0.3205	0.9123	0.5449	0.083
Mof_N 	N 	0.776	0.5291	0.2718	-0.197
Mof_C 	C 	0.0596	0.6984	0.4702	0.059
Mof_C 	C 	0.5031	0.616	0.9964	-0.136
Mof_H 	H 	0.5226	0.6171	0.0365	0.087
Mof_C 	C 	0.4431	0.6167	0.8796	0.083
Mof_H 	H 	0.4233	0.6177	0.8394	-0.007
Mof_C 	C 	0.2095	0.7736	0.5877	0.102
Mof_C 	C 	0.0253	0.6651	0.5002	-0.143
Mof_H 	H 	0.0424	0.67	0.5401	0.074
Mof_N 	N 	0.153	0.7317	0.5596	-0.142
Mof_C 	C 	0.8077	0.4955	0.243	0.071
Mof_H 	H 	0.852	0.4793	0.2637	-0.023
Mof_C 	C 	0.2429	0.763	0.6514	0.057
Mof_C 	C 	0.6787	0.5441	0.1814	-0.131
Mof_H 	H 	0.6346	0.5616	0.1613	0.079
Mof_C 	C 	0.443	0.6569	0.9649	0.087
Mof_H 	H 	0.4229	0.6846	0.985	-0.013
Mof_C 	C 	0.9732	0.6459	0.3841	0.071
Mof_H 	H 	0.9555	0.6386	0.3444	-0.02
Mof_C 	C 	0.7125	0.5082	0.1521	0.051
Mof_C 	C 	0.3264	0.9598	0.474	0.084
Mof_H 	H 	0.3685	0.983	0.4942	-0.012
Mof_C 	C 	0.5017	0.5732	0.9071	-0.138
Mof_H 	H 	0.5199	0.544	0.886	0.08
Mof_C 	C 	0.3284	0.7927	0.7451	0.083
Mof_H 	H 	0.3683	0.8192	0.7679	-0.021
Mof_C 	C 	0.5331	0.5739	0.9671	0.067
Mof_C 	C 	0.7153	0.3984	0.9776	0.051
Mof_C 	C 	0.6858	0.3908	0.9185	-0.13
Mof_H 	H 	0.6439	0.4137	0.8966	0.076
Mof_C 	C 	0.204	0.8904	0.4156	-0.129
Mof_H 	H 	0.1616	0.8686	0.3943	0.083
Mof_C 	C 	0.2061	0.8278	0.5053	0.102
Mof_C 	C 	0.7116	0.5535	0.2409	0.073
Mof_H 	H 	0.6888	0.5773	0.2603	-0.013
Mof_C 	C 	0.6801	0.4972	0.0882	0.098
Mof_C 	C 	0.6825	0.448	0.0071	0.095
Mof_C 	C 	0.2356	0.8785	0.4745	0.065
Mof_C 	C 	0.808	0.3199	0.9791	0.07
Mof_H 	H 	0.8494	0.2955	-0	-0.009
Mof_C 	C 	0.3019	0.8035	0.6853	-0.138
Mof_H 	H 	0.3232	0.8367	0.6688	0.083
Mof_C 	C 	0.9663	0.6253	0.4697	0.072
Mof_H 	H 	0.9437	0.6036	0.49	-0.02
Mof_C 	C 	0.2148	0.7113	0.6779	-0.132
Mof_H 	H 	0.1765	0.6811	0.6561	0.068
Mof_C 	C 	0.2446	0.7053	0.7374	0.068
Mof_H 	H 	0.2254	0.6706	0.7549	-0.016
Mof_C 	C 	0.778	0.4835	0.1835	-0.139
Mof_H 	H 	0.8019	0.4593	0.1652	0.072
Mof_Ag	Ag	0.65622	0.04313	0.13229	0.523
Mof_Ag	Ag	0.17721	0.24829	0.63282	0.536
Mof_N 	N 	0.8774	0.0376	0.4408	-0.137
Mof_N 	N 	0.72	0.8133	0.5786	-0.208
Mof_N 	N 	0.5611	0.1157	0.0878	-0.214
Mof_N 	N 	0.2616	0.3226	0.9369	-0.137
Mof_N 	N 	0.0872	0.1582	0.5926	-0.188
Mof_C 	C 	0.2646	0.4347	0.1119	0.078
Mof_H 	H 	0.2861	0.4405	0.1518	-0.008
Mof_C 	C 	0.7806	0.8486	0.6079	0.063
Mof_H 	H 	0.8007	0.8444	0.6479	-0.024
Mof_N 	N 	0.7888	0.9507	0.4352	-0.15
Mof_C 	C 	0.4669	0.1872	0.089	-0.141
Mof_H 	H 	0.4448	0.2071	0.1101	0.081
Mof_N 	N 	0.2041	0.4697	0.0832	-0.191
Mof_N 	N 	0.3521	0.2897	0.0274	-0.137
Mof_N 	N 	0.2	0.2471	0.7286	-0.2
Mof_C 	C 	0.3761	0.2431	0.9975	0.099
Mof_C 	C 	0.9024	0.0298	0.4987	0.099
Mof_C 	C 	0.7222	0.8618	0.4908	-0.132
Mof_H 	H 	0.7013	0.8654	0.4507	0.073
Mof_N 	N 	0.8737	0.9889	0.5267	-0.14
Mof_C 	C 	0.2017	0.4163	0.995	-0.127
Mof_H 	H 	0.1795	0.4123	0.9551	0.082
Mof_N 	N 	0.724	0.0291	0.2282	-0.197
Mof_C 	C 	0.4404	0.1984	0.0298	0.058
Mof_C 	C 	0.9969	0.116	0.5036	-0.135
Mof_H 	H 	0.9774	0.1171	0.4635	0.086
Mof_C 	C 	0.0569	0.1167	0.6204	0.083
Mof_H 	H 	0.0767	0.1177	0.6606	-0.007
Mof_C 	C 	0.2905	0.2736	0.9123	0.102
Mof_C 	C 	0.4747	0.1651	0.9998	-0.143
Mof_H 	H 	0.4576	0.17	0.9599	0.074
Mof_N 	N 	0.347	0.2317	0.9404	-0.142
Mof_C 	C 	0.6923	0.9955	0.257	0.071
Mof_H 	H 	0.648	0.9793	0.2363	-0.023
Mof_C 	C 	0.2571	0.263	0.8486	0.057
Mof_C 	C 	0.8213	0.0441	0.3186	-0.131
Mof_H 	H 	0.8654	0.0616	0.3387	0.079
Mof_C 	C 	0.057	0.1569	0.5351	0.087
Mof_H 	H 	0.0771	0.1846	0.515	-0.012
Mof_C 	C 	0.5268	0.1459	0.1159	0.07
Mof_H 	H 	0.5445	0.1386	0.1556	-0.02
Mof_C 	C 	0.7875	0.0082	0.3479	0.051
Mof_C 	C 	0.1736	0.4598	0.026	0.083
Mof_H 	H 	0.1315	0.483	0.0058	-0.012
Mof_C 	C 	0.9983	0.0732	0.5929	-0.138
Mof_H 	H 	0.9801	0.044	0.614	0.08
Mof_C 	C 	0.1716	0.2927	0.7549	0.083
Mof_H 	H 	0.1317	0.3192	0.7321	-0.021
Mof_C 	C 	0.9669	0.0739	0.5329	0.067
Mof_C 	C 	0.7847	0.8984	0.5224	0.053
Mof_C 	C 	0.8142	0.8908	0.5815	-0.132
Mof_H 	H 	0.8561	0.9137	0.6034	0.077
Mof_C 	C 	0.296	0.3904	0.0844	-0.128
Mof_H 	H 	0.3384	0.3686	0.1057	0.083
Mof_C 	C 	0.2939	0.3278	0.9947	0.102
Mof_C 	C 	0.7884	0.0535	0.2591	0.073
Mof_H 	H 	0.8112	0.0773	0.2397	-0.013
Mof_C 	C 	0.8199	0.9972	0.4118	0.098
Mof_C 	C 	0.8175	0.948	0.4929	0.094
Mof_C 	C 	0.2644	0.3785	0.0255	0.064
Mof_C 	C 	0.692	0.8199	0.5209	0.073
Mof_H 	H 	0.6506	0.7955	0.5	-0.011
Mof_C 	C 	0.1981	0.3035	0.8147	-0.138
Mof_H 	H 	0.1768	0.3367	0.8312	0.083
Mof_C 	C 	0.5337	0.1253	0.0303	0.072
Mof_H 	H 	0.5563	0.1036	0.01	-0.019
Mof_C 	C 	0.2852	0.2113	0.8221	-0.132
Mof_H 	H 	0.3235	0.1811	0.8439	0.068
Mof_C 	C 	0.2554	0.2053	0.7626	0.068
Mof_H 	H 	0.2746	0.1706	0.7451	-0.016
Mof_C 	C 	0.722	0.9835	0.3165	-0.138
Mof_H 	H 	0.6981	0.9593	0.3348	0.071
Mof_Ag	Ag	0.15622	0.54313	0.13229	0.523
Mof_Ag	Ag	0.67721	0.74829	0.63282	0.536
Mof_N 	N 	0.3774	0.5376	0.4408	-0.137
Mof_N 	N 	0.22	0.3133	0.5786	-0.208
Mof_N 	N 	0.0611	0.6157	0.0878	-0.214
Mof_N 	N 	0.7616	0.8226	0.9369	-0.136
Mof_N 	N 	0.5872	0.6582	0.5926	-0.188
Mof_C 	C 	0.7646	0.9347	0.1119	0.08
Mof_H 	H 	0.7861	0.9405	0.1518	-0.008
Mof_C 	C 	0.2806	0.3486	0.6079	0.063
Mof_H 	H 	0.3007	0.3444	0.6479	-0.024
Mof_N 	N 	0.2888	0.4507	0.4352	-0.15
Mof_C 	C 	0.9669	0.6872	0.089	-0.142
Mof_H 	H 	0.9448	0.7071	0.1101	0.082
Mof_N 	N 	0.7041	0.9697	0.0832	-0.192
Mof_N 	N 	0.8521	0.7897	0.0274	-0.135
Mof_N 	N 	0.7	0.7471	0.7286	-0.2
Mof_C 	C 	0.8761	0.7431	0.9975	0.096
Mof_C 	C 	0.4024	0.5298	0.4987	0.099
Mof_C 	C 	0.2222	0.3618	0.4908	-0.132
Mof_H 	H 	0.2013	0.3654	0.4507	0.073
Mof_N 	N 	0.3737	0.4889	0.5267	-0.14
Mof_C 	C 	0.7017	0.9163	0.995	-0.133
Mof_H 	H 	0.6795	0.9123	0.9551	0.084
Mof_N 	N 	0.224	0.5291	0.2282	-0.197
Mof_C 	C 	0.9404	0.6984	0.0298	0.062
Mof_C 	C 	0.4969	0.616	0.5036	-0.135
Mof_H 	H 	0.4774	0.6171	0.4635	0.086
Mof_C 	C 	0.5569	0.6167	0.6204	0.083
Mof_H 	H 	0.5767	0.6177	0.6606	-0.007
Mof_C 	C 	0.7905	0.7736	0.9123	0.101
Mof_C 	C 	0.9747	0.6651	0.9998	-0.147
Mof_H 	H 	0.9576	0.67	0.9599	0.075
Mof_N 	N 	0.847	0.7317	0.9404	-0.142
Mof_C 	C 	0.1923	0.4955	0.257	0.071
Mof_H 	H 	0.148	0.4793	0.2363	-0.023
Mof_C 	C 	0.7571	0.763	0.8486	0.057
Mof_C 	C 	0.3213	0.5441	0.3186	-0.131
Mof_H 	H 	0.3654	0.5616	0.3387	0.079
Mof_C 	C 	0.557	0.6569	0.5351	0.086
Mof_H 	H 	0.5771	0.6846	0.515	-0.012
Mof_C 	C 	0.0268	0.6459	0.1159	0.071
Mof_H 	H 	0.0445	0.6386	0.1556	-0.02
Mof_C 	C 	0.2875	0.5082	0.3479	0.051
Mof_C 	C 	0.6736	0.9598	0.026	0.087
Mof_H 	H 	0.6315	0.983	0.0058	-0.013
Mof_C 	C 	0.4983	0.5732	0.5929	-0.138
Mof_H 	H 	0.4801	0.544	0.614	0.08
Mof_C 	C 	0.6716	0.7927	0.7549	0.083
Mof_H 	H 	0.6317	0.8192	0.7321	-0.021
Mof_C 	C 	0.4669	0.5739	0.5329	0.067
Mof_C 	C 	0.2847	0.3984	0.5224	0.053
Mof_C 	C 	0.3142	0.3908	0.5815	-0.132
Mof_H 	H 	0.3561	0.4137	0.6034	0.077
Mof_C 	C 	0.796	0.8904	0.0844	-0.132
Mof_H 	H 	0.8384	0.8686	0.1057	0.084
Mof_C 	C 	0.7939	0.8278	0.9947	0.099
Mof_C 	C 	0.2884	0.5535	0.2591	0.073
Mof_H 	H 	0.3112	0.5773	0.2397	-0.013
Mof_C 	C 	0.3199	0.4972	0.4118	0.098
Mof_C 	C 	0.3175	0.448	0.4929	0.094
Mof_C 	C 	0.7644	0.8785	0.0255	0.069
Mof_C 	C 	0.192	0.3199	0.5209	0.073
Mof_H 	H 	0.1506	0.2955	0.5	-0.011
Mof_C 	C 	0.6981	0.8035	0.8147	-0.138
Mof_H 	H 	0.6768	0.8367	0.8312	0.083
Mof_C 	C 	0.0337	0.6253	0.0303	0.074
Mof_H 	H 	0.0563	0.6036	0.01	-0.02
Mof_C 	C 	0.7852	0.7113	0.8221	-0.132
Mof_H 	H 	0.8235	0.6811	0.8439	0.068
Mof_C 	C 	0.7554	0.7053	0.7626	0.068
Mof_H 	H 	0.7746	0.6706	0.7451	-0.016
Mof_C 	C 	0.222	0.4835	0.3165	-0.139
Mof_H 	H 	0.1981	0.4593	0.3348	0.071
Mof_Ag	Ag	0.65622	0.95687	0.63229	0.523
Mof_Ag	Ag	0.17721	0.75171	0.13282	0.536
Mof_N 	N 	0.8774	0.9624	0.9408	-0.137
Mof_N 	N 	0.72	0.1867	0.0786	-0.208
Mof_N 	N 	0.5611	0.8843	0.5878	-0.214
Mof_N 	N 	0.2616	0.6774	0.4369	-0.137
Mof_N 	N 	0.0872	0.8418	0.0926	-0.188
Mof_C 	C 	0.2646	0.5653	0.6119	0.079
Mof_H 	H 	0.2861	0.5595	0.6518	-0.008
Mof_C 	C 	0.7806	0.1514	0.1079	0.063
Mof_H 	H 	0.8007	0.1556	0.1479	-0.024
Mof_N 	N 	0.7888	0.0493	0.9352	-0.15
Mof_C 	C 	0.4669	0.8128	0.589	-0.141
Mof_H 	H 	0.4448	0.7929	0.6101	0.081
Mof_N 	N 	0.2041	0.5303	0.5832	-0.191
Mof_N 	N 	0.3521	0.7103	0.5274	-0.137
Mof_N 	N 	0.2	0.7529	0.2286	-0.2
Mof_C 	C 	0.3761	0.7569	0.4975	0.098
Mof_C 	C 	0.9024	0.9702	0.9987	0.098
Mof_C 	C 	0.7222	0.1382	0.9908	-0.134
Mof_H 	H 	0.7013	0.1346	0.9507	0.074
Mof_N 	N 	0.8737	0.0111	0.0267	-0.14
Mof_C 	C 	0.2017	0.5837	0.495	-0.128
Mof_H 	H 	0.1795	0.5877	0.4551	0.083
Mof_N 	N 	0.724	0.9709	0.7282	-0.197
Mof_C 	C 	0.4404	0.8016	0.5298	0.059
Mof_C 	C 	0.9969	0.884	0.0036	-0.13
Mof_H 	H 	0.9774	0.8829	0.9635	0.084
Mof_C 	C 	0.0569	0.8833	0.1204	0.081
Mof_H 	H 	0.0767	0.8823	0.1606	-0.006
Mof_C 	C 	0.2905	0.7264	0.4123	0.102
Mof_C 	C 	0.4747	0.8349	0.4998	-0.143
Mof_H 	H 	0.4576	0.83	0.4599	0.074
Mof_N 	N 	0.347	0.7683	0.4404	-0.142
Mof_C 	C 	0.6923	0.0045	0.757	0.071
Mof_H 	H 	0.648	0.0207	0.7363	-0.023
Mof_C 	C 	0.2571	0.737	0.3486	0.057
Mof_C 	C 	0.8213	0.9559	0.8186	-0.131
Mof_H 	H 	0.8654	0.9384	0.8387	0.079
Mof_C 	C 	0.057	0.8431	0.0351	0.083
Mof_H 	H 	0.0771	0.8154	0.015	-0.012
Mof_C 	C 	0.5268	0.8541	0.6159	0.071
Mof_H 	H 	0.5445	0.8614	0.6556	-0.02
Mof_C 	C 	0.7875	0.9918	0.8479	0.051
Mof_C 	C 	0.1736	0.5402	0.526	0.084
Mof_H 	H 	0.1315	0.517	0.5058	-0.012
Mof_C 	C 	0.9983	0.9268	0.0929	-0.136
Mof_H 	H 	0.9801	0.956	0.114	0.079
Mof_C 	C 	0.1716	0.7073	0.2549	0.083
Mof_H 	H 	0.1317	0.6808	0.2321	-0.021
Mof_C 	C 	0.9669	0.9261	0.0329	0.066
Mof_C 	C 	0.7847	0.1016	0.0224	0.054
Mof_C 	C 	0.8142	0.1092	0.0815	-0.133
Mof_H 	H 	0.8561	0.0863	0.1034	0.077
Mof_C 	C 	0.296	0.6096	0.5844	-0.129
Mof_H 	H 	0.3384	0.6314	0.6057	0.083
Mof_C 	C 	0.2939	0.6722	0.4947	0.102
Mof_C 	C 	0.7884	0.9465	0.7591	0.072
Mof_H 	H 	0.8112	0.9227	0.7397	-0.013
Mof_C 	C 	0.8199	0.0028	0.9118	0.098
Mof_C 	C 	0.8175	0.052	0.9929	0.093
Mof_C 	C 	0.2644	0.6215	0.5255	0.065
Mof_C 	C 	0.692	0.1801	0.0209	0.074
Mof_H 	H 	0.6506	0.2045	-0	-0.011
Mof_C 	C 	0.1981	0.6965	0.3147	-0.138
Mof_H 	H 	0.1768	0.6633	0.3312	0.083
Mof_C 	C 	0.5337	0.8747	0.5303	0.072
Mof_H 	H 	0.5563	0.8964	0.51	-0.019
Mof_C 	C 	0.2852	0.7887	0.3221	-0.132
Mof_H 	H 	0.3235	0.8189	0.3439	0.068
Mof_C 	C 	0.2554	0.7947	0.2626	0.068
Mof_H 	H 	0.2746	0.8294	0.2451	-0.016
Mof_C 	C 	0.722	0.0165	0.8165	-0.138
Mof_H 	H 	0.6981	0.0407	0.8348	0.071
Mof_Ag	Ag	0.15622	0.45687	0.63229	0.523
Mof_Ag	Ag	0.67721	0.25171	0.13282	0.536
Mof_N 	N 	0.3774	0.4624	0.9408	-0.137
Mof_N 	N 	0.22	0.6867	0.0786	-0.208
Mof_N 	N 	0.0611	0.3843	0.5878	-0.214
Mof_N 	N 	0.7616	0.1774	0.4369	-0.137
Mof_N 	N 	0.5872	0.3418	0.0926	-0.188
Mof_C 	C 	0.7646	0.0653	0.6119	0.079
Mof_H 	H 	0.7861	0.0595	0.6518	-0.008
Mof_C 	C 	0.2806	0.6514	0.1079	0.062
Mof_H 	H 	0.3007	0.6556	0.1479	-0.024
Mof_N 	N 	0.2888	0.5493	0.9352	-0.15
Mof_C 	C 	0.9669	0.3128	0.589	-0.142
Mof_H 	H 	0.9448	0.2929	0.6101	0.081
Mof_N 	N 	0.7041	0.0303	0.5832	-0.191
Mof_N 	N 	0.8521	0.2103	0.5274	-0.137
Mof_N 	N 	0.7	0.2529	0.2286	-0.2
Mof_C 	C 	0.8761	0.2569	0.4975	0.098
Mof_C 	C 	0.4024	0.4702	0.9987	0.099
Mof_C 	C 	0.2222	0.6382	0.9908	-0.132
Mof_H 	H 	0.2013	0.6346	0.9507	0.073
Mof_N 	N 	0.3737	0.5111	0.0267	-0.14
Mof_C 	C 	0.7017	0.0837	0.495	-0.128
Mof_H 	H 	0.6795	0.0877	0.4551	0.083
Mof_N 	N 	0.224	0.4709	0.7282	-0.197
Mof_C 	C 	0.9404	0.3016	0.5298	0.059
Mof_C 	C 	0.4969	0.384	0.0036	-0.135
Mof_H 	H 	0.4774	0.3829	0.9635	0.086
Mof_C 	C 	0.5569	0.3833	0.1204	0.083
Mof_H 	H 	0.5767	0.3823	0.1606	-0.007
Mof_C 	C 	0.7905	0.2264	0.4123	0.102
Mof_C 	C 	0.9747	0.3349	0.4998	-0.143
Mof_H 	H 	0.9576	0.33	0.4599	0.074
Mof_N 	N 	0.847	0.2683	0.4404	-0.142
Mof_C 	C 	0.1923	0.5045	0.757	0.071
Mof_H 	H 	0.148	0.5207	0.7363	-0.023
Mof_C 	C 	0.7571	0.237	0.3486	0.057
Mof_C 	C 	0.3213	0.4559	0.8186	-0.131
Mof_H 	H 	0.3654	0.4384	0.8387	0.079
Mof_C 	C 	0.557	0.3431	0.0351	0.086
Mof_H 	H 	0.5771	0.3154	0.015	-0.012
Mof_C 	C 	0.0268	0.3541	0.6159	0.071
Mof_H 	H 	0.0445	0.3614	0.6556	-0.02
Mof_C 	C 	0.2875	0.4918	0.8479	0.051
Mof_C 	C 	0.6736	0.0402	0.526	0.084
Mof_H 	H 	0.6315	0.017	0.5058	-0.012
Mof_C 	C 	0.4983	0.4268	0.0929	-0.138
Mof_H 	H 	0.4801	0.456	0.114	0.08
Mof_C 	C 	0.6716	0.2073	0.2549	0.083
Mof_H 	H 	0.6317	0.1808	0.2321	-0.021
Mof_C 	C 	0.4669	0.4261	0.0329	0.067
Mof_C 	C 	0.2847	0.6016	0.0224	0.053
Mof_C 	C 	0.3142	0.6092	0.0815	-0.132
Mof_H 	H 	0.3561	0.5863	0.1034	0.077
Mof_C 	C 	0.796	0.1096	0.5844	-0.129
Mof_H 	H 	0.8384	0.1314	0.6057	0.083
Mof_C 	C 	0.7939	0.1722	0.4947	0.102
Mof_C 	C 	0.2884	0.4465	0.7591	0.073
Mof_H 	H 	0.3112	0.4227	0.7397	-0.013
Mof_C 	C 	0.3199	0.5028	0.9118	0.098
Mof_C 	C 	0.3175	0.552	0.9929	0.094
Mof_C 	C 	0.7644	0.1215	0.5255	0.065
Mof_C 	C 	0.192	0.6801	0.0209	0.072
Mof_H 	H 	0.1506	0.7045	-0	-0.011
Mof_C 	C 	0.6981	0.1965	0.3147	-0.138
Mof_H 	H 	0.6768	0.1633	0.3312	0.083
Mof_C 	C 	0.0337	0.3747	0.5303	0.072
Mof_H 	H 	0.0563	0.3964	0.51	-0.019
Mof_C 	C 	0.7852	0.2887	0.3221	-0.132
Mof_H 	H 	0.8235	0.3189	0.3439	0.068
Mof_C 	C 	0.7554	0.2947	0.2626	0.068
Mof_H 	H 	0.7746	0.3294	0.2451	-0.016
Mof_C 	C 	0.222	0.5165	0.8165	-0.139
Mof_H 	H 	0.1981	0.5407	0.8348	0.072
Mof_Ag	Ag	0.34378	0.95687	0.86771	0.523
Mof_Ag	Ag	0.82279	0.75171	0.36718	0.536
Mof_N 	N 	0.1226	0.9624	0.5592	-0.137
Mof_N 	N 	0.28	0.1867	0.4214	-0.208
Mof_N 	N 	0.4389	0.8843	0.9122	-0.213
Mof_N 	N 	0.7384	0.6774	0.0631	-0.137
Mof_N 	N 	0.9128	0.8418	0.4074	-0.188
Mof_C 	C 	0.7354	0.5653	0.8881	0.078
Mof_H 	H 	0.7139	0.5595	0.8482	-0.008
Mof_C 	C 	0.2194	0.1514	0.3921	0.063
Mof_H 	H 	0.1993	0.1556	0.3521	-0.024
Mof_N 	N 	0.2112	0.0493	0.5648	-0.15
Mof_C 	C 	0.5331	0.8128	0.911	-0.14
Mof_H 	H 	0.5552	0.7929	0.8899	0.081
Mof_N 	N 	0.7959	0.5303	0.9168	-0.19
Mof_N 	N 	0.6479	0.7103	0.9726	-0.138
Mof_N 	N 	0.8	0.7529	0.2714	-0.2
Mof_C 	C 	0.6239	0.7569	0.0025	0.1
Mof_C 	C 	0.0976	0.9702	0.5013	0.099
Mof_C 	C 	0.2778	0.1382	0.5092	-0.132
Mof_H 	H 	0.2987	0.1346	0.5493	0.073
Mof_N 	N 	0.1263	0.0111	0.4733	-0.14
Mof_C 	C 	0.7983	0.5837	0.005	-0.125
Mof_H 	H 	0.8205	0.5877	0.0449	0.082
Mof_N 	N 	0.276	0.9709	0.7718	-0.197
Mof_C 	C 	0.5596	0.8016	0.9702	0.057
Mof_C 	C 	0.0031	0.884	0.4964	-0.135
Mof_H 	H 	0.0226	0.8829	0.5365	0.086
Mof_C 	C 	0.9431	0.8833	0.3796	0.083
Mof_H 	H 	0.9233	0.8823	0.3394	-0.007
Mof_C 	C 	0.7095	0.7264	0.0877	0.102
Mof_C 	C 	0.5253	0.8349	0.0002	-0.141
Mof_H 	H 	0.5424	0.83	0.0401	0.073
Mof_N 	N 	0.653	0.7683	0.0596	-0.143
Mof_C 	C 	0.3077	0.0045	0.743	0.071
Mof_H 	H 	0.352	0.0207	0.7637	-0.023
Mof_C 	C 	0.7429	0.737	0.1514	0.057
Mof_C 	C 	0.1787	0.9559	0.6814	-0.131
Mof_H 	H 	0.1346	0.9384	0.6613	0.079
Mof_C 	C 	0.943	0.8431	0.4649	0.087
Mof_H 	H 	0.9229	0.8154	0.485	-0.013
Mof_C 	C 	0.4732	0.8541	0.8841	0.07
Mof_H 	H 	0.4555	0.8614	0.8444	-0.02
Mof_C 	C 	0.2125	0.9918	0.6521	0.051
Mof_C 	C 	0.8264	0.5402	0.974	0.082
Mof_H 	H 	0.8685	0.517	0.9942	-0.011
Mof_C 	C 	0.0017	0.9268	0.4071	-0.138
Mof_H 	H 	0.0199	0.956	0.386	0.08
Mof_C 	C 	0.8284	0.7073	0.2451	0.083
Mof_H 	H 	0.8683	0.6808	0.2679	-0.021
Mof_C 	C 	0.0331	0.9261	0.4671	0.067
Mof_C 	C 	0.2153	0.1016	0.4776	0.053
Mof_C 	C 	0.1858	0.1092	0.4185	-0.132
Mof_H 	H 	0.1439	0.0863	0.3966	0.077
Mof_C 	C 	0.704	0.6096	0.9156	-0.127
Mof_H 	H 	0.6616	0.6314	0.8943	0.082
Mof_C 	C 	0.7061	0.6722	0.0053	0.103
Mof_C 	C 	0.2116	0.9465	0.7409	0.073
Mof_H 	H 	0.1888	0.9227	0.7603	-0.013
Mof_C 	C 	0.1801	0.0028	0.5882	0.098
Mof_C 	C 	0.1825	0.052	0.5071	0.094
Mof_C 	C 	0.7356	0.6215	0.9745	0.063
Mof_C 	C 	0.308	0.1801	0.4791	0.073
Mof_H 	H 	0.3494	0.2045	0.5	-0.011
Mof_C 	C 	0.8019	0.6965	0.1853	-0.138
Mof_H 	H 	0.8232	0.6633	0.1688	0.083
Mof_C 	C 	0.4663	0.8747	0.9697	0.07
Mof_H 	H 	0.4437	0.8964	0.99	-0.019
Mof_C 	C 	0.7148	0.7887	0.1779	-0.132
Mof_H 	H 	0.6765	0.8189	0.1561	0.068
Mof_C 	C 	0.7446	0.7947	0.2374	0.068
Mof_H 	H 	0.7254	0.8294	0.2549	-0.016
Mof_C 	C 	0.278	0.0165	0.6835	-0.138
Mof_H 	H 	0.3019	0.0407	0.6652	0.071
Mof_Ag	Ag	0.84378	0.45687	0.86771	0.523
Mof_Ag	Ag	0.32279	0.25171	0.36718	0.536
Mof_N 	N 	0.6226	0.4624	0.5592	-0.137
Mof_N 	N 	0.78	0.6867	0.4214	-0.208
Mof_N 	N 	0.9389	0.3843	0.9122	-0.214
Mof_N 	N 	0.2384	0.1774	0.0631	-0.136
Mof_N 	N 	0.4128	0.3418	0.4074	-0.188
Mof_C 	C 	0.2354	0.0653	0.8881	0.08
Mof_H 	H 	0.2139	0.0595	0.8482	-0.008
Mof_C 	C 	0.7194	0.6514	0.3921	0.063
Mof_H 	H 	0.6993	0.6556	0.3521	-0.024
Mof_N 	N 	0.7112	0.5493	0.5648	-0.15
Mof_C 	C 	0.0331	0.3128	0.911	-0.141
Mof_H 	H 	0.0552	0.2929	0.8899	0.081
Mof_N 	N 	0.2959	0.0303	0.9168	-0.191
Mof_N 	N 	0.1479	0.2103	0.9726	-0.136
Mof_N 	N 	0.3	0.2529	0.2714	-0.2
Mof_C 	C 	0.1239	0.2569	0.0025	0.097
Mof_C 	C 	0.5976	0.4702	0.5013	0.099
Mof_C 	C 	0.7778	0.6382	0.5092	-0.132
Mof_H 	H 	0.7987	0.6346	0.5493	0.073
Mof_N 	N 	0.6263	0.5111	0.4733	-0.14
Mof_C 	C 	0.2983	0.0837	0.005	-0.131
Mof_H 	H 	0.3205	0.0877	0.0449	0.084
Mof_N 	N 	0.776	0.4709	0.7718	-0.197
Mof_C 	C 	0.0596	0.3016	0.9702	0.061
Mof_C 	C 	0.5031	0.384	0.4964	-0.135
Mof_H 	H 	0.5226	0.3829	0.5365	0.086
Mof_C 	C 	0.4431	0.3833	0.3796	0.083
Mof_H 	H 	0.4233	0.3823	0.3394	-0.007
Mof_C 	C 	0.2095	0.2264	0.0877	0.101
Mof_C 	C 	0.0253	0.3349	0.0002	-0.145
Mof_H 	H 	0.0424	0.33	0.0401	0.075
Mof_N 	N 	0.153	0.2683	0.0596	-0.142
Mof_C 	C 	0.8077	0.5045	0.743	0.071
Mof_H 	H 	0.852	0.5207	0.7637	-0.023
Mof_C 	C 	0.2429	0.237	0.1514	0.057
Mof_C 	C 	0.6787	0.4559	0.6814	-0.131
Mof_H 	H 	0.6346	0.4384	0.6613	0.079
Mof_C 	C 	0.443	0.3431	0.4649	0.086
Mof_H 	H 	0.4229	0.3154	0.485	-0.012
Mof_C 	C 	0.9732	0.3541	0.8841	0.07
Mof_H 	H 	0.9555	0.3614	0.8444	-0.02
Mof_C 	C 	0.7125	0.4918	0.6521	0.051
Mof_C 	C 	0.3264	0.0402	0.974	0.086
Mof_H 	H 	0.3685	0.017	0.9942	-0.012
Mof_C 	C 	0.5017	0.4268	0.4071	-0.138
Mof_H 	H 	0.5199	0.456	0.386	0.08
Mof_C 	C 	0.3284	0.2073	0.2451	0.083
Mof_H 	H 	0.3683	0.1808	0.2679	-0.021
Mof_C 	C 	0.5331	0.4261	0.4671	0.067
Mof_C 	C 	0.7153	0.6016	0.4776	0.053
Mof_C 	C 	0.6858	0.6092	0.4185	-0.132
Mof_H 	H 	0.6439	0.5863	0.3966	0.077
Mof_C 	C 	0.204	0.1096	0.9156	-0.131
Mof_H 	H 	0.1616	0.1314	0.8943	0.083
Mof_C 	C 	0.2061	0.1722	0.0053	0.1
Mof_C 	C 	0.7116	0.4465	0.7409	0.073
Mof_H 	H 	0.6888	0.4227	0.7603	-0.013
Mof_C 	C 	0.6801	0.5028	0.5882	0.098
Mof_C 	C 	0.6825	0.552	0.5071	0.094
Mof_C 	C 	0.2356	0.1215	0.9745	0.068
Mof_C 	C 	0.808	0.6801	0.4791	0.073
Mof_H 	H 	0.8494	0.7045	0.5	-0.011
Mof_C 	C 	0.3019	0.1965	0.1853	-0.138
Mof_H 	H 	0.3232	0.1633	0.1688	0.083
Mof_C 	C 	0.9663	0.3747	0.9697	0.073
Mof_H 	H 	0.9437	0.3964	0.99	-0.02
Mof_C 	C 	0.2148	0.2887	0.1779	-0.132
Mof_H 	H 	0.1765	0.3189	0.1561	0.068
Mof_C 	C 	0.2446	0.2947	0.2374	0.068
Mof_H 	H 	0.2254	0.3294	0.2549	-0.016
Mof_C 	C 	0.778	0.5165	0.6835	-0.139
Mof_H 	H 	0.8019	0.5407	0.6652	0.071
_end
