data_functionalizedCrystal
_audit_creation_method	'EQeq! by Chris Wilmer'
_symmetry_space_group_name_H-M	'P1'
_symmetry_Int_Tables_number	1
_symmetry_cell_setting	triclinic
loop_
_symmetry_equiv_pos_as_xyz
  x,y,z
_cell_length_a	35.3116
_cell_length_b	35.3116
_cell_length_c	20.857
_cell_angle_alpha	90
_cell_angle_beta	90
_cell_angle_gamma	120
loop_
_atom_site_label
_atom_site_type_symbol
_atom_site_fract_x
_atom_site_fract_y
_atom_site_fract_z
_atom_site_charge
Mof_O 	O 	0.63597	0.77918	0.4044	-0.408
Mof_O 	O 	0.61174	0.76717	0.3029	-0.41
Mof_C 	C 	0.61123	0.7548	0.3594	0.367
Mof_C 	C 	0.57968	0.70885	0.3761	-0.133
Mof_C 	C 	0.55302	0.67906	0.329	0.071
Mof_H 	H 	0.5546	0.6883	0.2868	0.02
Mof_C 	C 	0.52475	0.63657	0.3448	-0.151
Mof_H 	H 	0.5064	0.6177	0.3132	0.095
Mof_C 	C 	0.52233	0.62055	0.4057	0.097
Mof_C 	C 	0.54942	0.65023	0.455	-0.142
Mof_H 	H 	0.5481	0.6406	0.4969	0.079
Mof_C 	C 	0.57792	0.69412	0.4384	0.06
Mof_H 	H 	0.5959	0.7136	0.4697	0.024
Mof_C 	C 	0.49512	0.57388	0.4265	-0.052
Mof_C 	C 	0.51298	0.55425	0.4621	-0.055
Mof_H 	H 	0.5418	0.5713	0.4755	0.048
Mof_H 	H 	0.4368	0.6076	0.4364	0.107
Mof_O 	O 	0.30264	0.11251	0.73773	-0.408
Mof_O 	O 	0.27841	0.1005	0.63623	-0.409
Mof_C 	C 	0.2779	0.08813	0.69273	0.368
Mof_C 	C 	0.24635	0.04218	0.70943	-0.132
Mof_C 	C 	0.21969	0.01239	0.66233	0.071
Mof_H 	H 	0.22127	0.02163	0.62013	0.022
Mof_C 	C 	0.19142	0.9699	0.67813	-0.15
Mof_H 	H 	0.17307	0.95103	0.64653	0.096
Mof_C 	C 	0.189	0.95388	0.73903	0.098
Mof_C 	C 	0.21609	0.98356	0.78833	-0.14
Mof_H 	H 	0.21477	0.97393	0.83023	0.08
Mof_C 	C 	0.24459	0.02745	0.77173	0.06
Mof_H 	H 	0.26257	0.04693	0.80303	0.025
Mof_C 	C 	0.16179	0.90721	0.75983	-0.051
Mof_C 	C 	0.17965	0.88758	0.79543	-0.054
Mof_H 	H 	0.20847	0.90463	0.80883	0.05
Mof_H 	H 	0.10347	0.94093	0.76973	0.108
Mof_O 	O 	0.9693	0.44585	0.07107	-0.407
Mof_O 	O 	0.94507	0.43384	0.96957	-0.409
Mof_C 	C 	0.94456	0.42147	0.02607	0.368
Mof_C 	C 	0.91301	0.37552	0.04277	-0.13
Mof_C 	C 	0.88635	0.34573	0.99567	0.069
Mof_H 	H 	0.88793	0.35497	0.95347	0.023
Mof_C 	C 	0.85808	0.30324	0.01147	-0.147
Mof_H 	H 	0.83973	0.28437	0.97987	0.094
Mof_C 	C 	0.85566	0.28722	0.07237	0.096
Mof_C 	C 	0.88275	0.3169	0.12167	-0.139
Mof_H 	H 	0.88143	0.30727	0.16357	0.08
Mof_C 	C 	0.91125	0.36079	0.10507	0.06
Mof_H 	H 	0.92923	0.38027	0.13637	0.026
Mof_C 	C 	0.82845	0.24055	0.09317	-0.05
Mof_C 	C 	0.84631	0.22092	0.12877	-0.054
Mof_H 	H 	0.87513	0.23797	0.14217	0.05
Mof_H 	H 	0.77013	0.27427	0.10307	0.108
Mof_O 	O 	0.22082	0.85679	0.4044	-0.407
Mof_O 	O 	0.23283	0.84457	0.3029	-0.409
Mof_C 	C 	0.2452	0.85643	0.3594	0.368
Mof_C 	C 	0.29115	0.87083	0.3761	-0.132
Mof_C 	C 	0.32094	0.87396	0.329	0.072
Mof_H 	H 	0.3117	0.8663	0.2868	0.021
Mof_C 	C 	0.36343	0.88818	0.3448	-0.15
Mof_H 	H 	0.3823	0.8887	0.3132	0.096
Mof_C 	C 	0.37945	0.90178	0.4057	0.098
Mof_C 	C 	0.34977	0.89919	0.455	-0.141
Mof_H 	H 	0.3594	0.9075	0.4969	0.08
Mof_C 	C 	0.30588	0.8838	0.4384	0.061
Mof_H 	H 	0.2864	0.8823	0.4697	0.025
Mof_C 	C 	0.42612	0.92124	0.4265	-0.051
Mof_C 	C 	0.44575	0.95873	0.4621	-0.054
Mof_H 	H 	0.4287	0.9705	0.4755	0.05
Mof_H 	H 	0.3924	0.8292	0.4364	0.108
Mof_O 	O 	0.88749	0.19012	0.73773	-0.407
Mof_O 	O 	0.8995	0.1779	0.63623	-0.409
Mof_C 	C 	0.91187	0.18976	0.69273	0.368
Mof_C 	C 	0.95782	0.20416	0.70943	-0.132
Mof_C 	C 	0.98761	0.20729	0.66233	0.071
Mof_H 	H 	0.97837	0.19963	0.62013	0.022
Mof_C 	C 	0.0301	0.22151	0.67813	-0.15
Mof_H 	H 	0.04897	0.22203	0.64653	0.096
Mof_C 	C 	0.04612	0.23511	0.73903	0.098
Mof_C 	C 	0.01644	0.23252	0.78833	-0.14
Mof_H 	H 	0.02607	0.24083	0.83023	0.08
Mof_C 	C 	0.97255	0.21713	0.77173	0.06
Mof_H 	H 	0.95307	0.21563	0.80303	0.025
Mof_C 	C 	0.09279	0.25457	0.75983	-0.051
Mof_C 	C 	0.11242	0.29206	0.79543	-0.054
Mof_H 	H 	0.09537	0.30383	0.80883	0.05
Mof_H 	H 	0.05907	0.16253	0.76973	0.108
Mof_O 	O 	0.55415	0.52346	0.07107	-0.407
Mof_O 	O 	0.56616	0.51124	0.96957	-0.409
Mof_C 	C 	0.57853	0.5231	0.02607	0.368
Mof_C 	C 	0.62448	0.5375	0.04277	-0.132
Mof_C 	C 	0.65427	0.54063	0.99567	0.071
Mof_H 	H 	0.64503	0.53297	0.95347	0.022
Mof_C 	C 	0.69676	0.55485	0.01147	-0.15
Mof_H 	H 	0.71563	0.55537	0.97987	0.095
Mof_C 	C 	0.71278	0.56845	0.07237	0.098
Mof_C 	C 	0.6831	0.56586	0.12167	-0.14
Mof_H 	H 	0.69273	0.57417	0.16357	0.08
Mof_C 	C 	0.63921	0.55047	0.10507	0.061
Mof_H 	H 	0.61973	0.54897	0.13637	0.025
Mof_C 	C 	0.75945	0.58791	0.09317	-0.051
Mof_C 	C 	0.77908	0.6254	0.12877	-0.054
Mof_H 	H 	0.76203	0.63717	0.14217	0.05
Mof_H 	H 	0.72573	0.49587	0.10307	0.108
Mof_O 	O 	0.14321	0.36403	0.4044	-0.407
Mof_O 	O 	0.15543	0.38826	0.3029	-0.409
Mof_C 	C 	0.14357	0.38877	0.3594	0.368
Mof_C 	C 	0.12917	0.42032	0.3761	-0.132
Mof_C 	C 	0.12604	0.44698	0.329	0.072
Mof_H 	H 	0.1337	0.4454	0.2868	0.021
Mof_C 	C 	0.11182	0.47525	0.3448	-0.15
Mof_H 	H 	0.1113	0.4936	0.3132	0.096
Mof_C 	C 	0.09822	0.47767	0.4057	0.098
Mof_C 	C 	0.10081	0.45058	0.455	-0.141
Mof_H 	H 	0.0925	0.4519	0.4969	0.08
Mof_C 	C 	0.1162	0.42208	0.4384	0.061
Mof_H 	H 	0.1177	0.4041	0.4697	0.025
Mof_C 	C 	0.07876	0.50488	0.4265	-0.051
Mof_C 	C 	0.04127	0.48702	0.4621	-0.054
Mof_H 	H 	0.0295	0.4582	0.4755	0.05
Mof_H 	H 	0.1708	0.5632	0.4364	0.108
Mof_O 	O 	0.80988	0.69736	0.73773	-0.407
Mof_O 	O 	0.8221	0.72159	0.63623	-0.409
Mof_C 	C 	0.81024	0.7221	0.69273	0.368
Mof_C 	C 	0.79584	0.75365	0.70943	-0.132
Mof_C 	C 	0.79271	0.78031	0.66233	0.072
Mof_H 	H 	0.80037	0.77873	0.62013	0.022
Mof_C 	C 	0.77849	0.80858	0.67813	-0.15
Mof_H 	H 	0.77797	0.82693	0.64653	0.096
Mof_C 	C 	0.76489	0.811	0.73903	0.098
Mof_C 	C 	0.76748	0.78391	0.78833	-0.141
Mof_H 	H 	0.75917	0.78523	0.83023	0.08
Mof_C 	C 	0.78287	0.75541	0.77173	0.061
Mof_H 	H 	0.78437	0.73743	0.80303	0.025
Mof_C 	C 	0.74543	0.83821	0.75983	-0.051
Mof_C 	C 	0.70794	0.82035	0.79543	-0.054
Mof_H 	H 	0.69617	0.79153	0.80883	0.049
Mof_H 	H 	0.83747	0.89653	0.76973	0.108
Mof_O 	O 	0.47654	0.0307	0.07107	-0.407
Mof_O 	O 	0.48876	0.05493	0.96957	-0.409
Mof_C 	C 	0.4769	0.05544	0.02607	0.368
Mof_C 	C 	0.4625	0.08699	0.04277	-0.131
Mof_C 	C 	0.45937	0.11365	0.99567	0.07
Mof_H 	H 	0.46703	0.11207	0.95347	0.022
Mof_C 	C 	0.44515	0.14192	0.01147	-0.148
Mof_H 	H 	0.44463	0.16027	0.97987	0.095
Mof_C 	C 	0.43155	0.14434	0.07237	0.097
Mof_C 	C 	0.43414	0.11725	0.12167	-0.14
Mof_H 	H 	0.42583	0.11857	0.16357	0.08
Mof_C 	C 	0.44953	0.08875	0.10507	0.06
Mof_H 	H 	0.45103	0.07077	0.13637	0.026
Mof_C 	C 	0.41209	0.17155	0.09317	-0.051
Mof_C 	C 	0.3746	0.15369	0.12877	-0.054
Mof_H 	H 	0.36283	0.12487	0.14217	0.05
Mof_H 	H 	0.50413	0.22987	0.10307	0.108
Mof_O 	O 	0.77918	0.63597	0.5956	-0.407
Mof_O 	O 	0.76717	0.61174	0.6971	-0.409
Mof_C 	C 	0.7548	0.61123	0.6406	0.368
Mof_C 	C 	0.70885	0.57968	0.6239	-0.132
Mof_C 	C 	0.67906	0.55302	0.671	0.072
Mof_H 	H 	0.6883	0.5546	0.7132	0.021
Mof_C 	C 	0.63657	0.52475	0.6552	-0.15
Mof_H 	H 	0.6177	0.5064	0.6868	0.096
Mof_C 	C 	0.62055	0.52233	0.5943	0.098
Mof_C 	C 	0.65023	0.54942	0.545	-0.141
Mof_H 	H 	0.6406	0.5481	0.5031	0.08
Mof_C 	C 	0.69412	0.57792	0.5616	0.061
Mof_H 	H 	0.7136	0.5959	0.5303	0.025
Mof_C 	C 	0.57388	0.49512	0.5735	-0.051
Mof_C 	C 	0.55425	0.51298	0.5379	-0.054
Mof_H 	H 	0.5713	0.5418	0.5245	0.049
Mof_H 	H 	0.6076	0.4368	0.5636	0.108
Mof_O 	O 	0.44585	0.9693	0.92893	-0.407
Mof_O 	O 	0.43384	0.94507	0.03043	-0.409
Mof_C 	C 	0.42147	0.94456	0.97393	0.368
Mof_C 	C 	0.37552	0.91301	0.95723	-0.13
Mof_C 	C 	0.34573	0.88635	0.00433	0.069
Mof_H 	H 	0.35497	0.88793	0.04653	0.023
Mof_C 	C 	0.30324	0.85808	0.98853	-0.147
Mof_H 	H 	0.28437	0.83973	0.02013	0.094
Mof_C 	C 	0.28722	0.85566	0.92763	0.096
Mof_C 	C 	0.3169	0.88275	0.87833	-0.139
Mof_H 	H 	0.30727	0.88143	0.83643	0.08
Mof_C 	C 	0.36079	0.91125	0.89493	0.06
Mof_H 	H 	0.38027	0.92923	0.86363	0.026
Mof_C 	C 	0.24055	0.82845	0.90683	-0.05
Mof_C 	C 	0.22092	0.84631	0.87123	-0.054
Mof_H 	H 	0.23797	0.87513	0.85783	0.05
Mof_H 	H 	0.27427	0.77013	0.89693	0.108
Mof_O 	O 	0.11251	0.30264	0.26227	-0.407
Mof_O 	O 	0.1005	0.27841	0.36377	-0.409
Mof_C 	C 	0.08813	0.2779	0.30727	0.368
Mof_C 	C 	0.04218	0.24635	0.29057	-0.132
Mof_C 	C 	0.01239	0.21969	0.33767	0.071
Mof_H 	H 	0.02163	0.22127	0.37987	0.022
Mof_C 	C 	0.9699	0.19142	0.32187	-0.15
Mof_H 	H 	0.95103	0.17307	0.35347	0.096
Mof_C 	C 	0.95388	0.189	0.26097	0.098
Mof_C 	C 	0.98356	0.21609	0.21167	-0.14
Mof_H 	H 	0.97393	0.21477	0.16977	0.08
Mof_C 	C 	0.02745	0.24459	0.22827	0.06
Mof_H 	H 	0.04693	0.26257	0.19697	0.025
Mof_C 	C 	0.90721	0.16179	0.24017	-0.051
Mof_C 	C 	0.88758	0.17965	0.20457	-0.054
Mof_H 	H 	0.90463	0.20847	0.19117	0.05
Mof_H 	H 	0.94093	0.10347	0.23027	0.108
Mof_O 	O 	0.85679	0.22082	0.5956	-0.407
Mof_O 	O 	0.84457	0.23283	0.6971	-0.409
Mof_C 	C 	0.85643	0.2452	0.6406	0.368
Mof_C 	C 	0.87083	0.29115	0.6239	-0.132
Mof_C 	C 	0.87396	0.32094	0.671	0.072
Mof_H 	H 	0.8663	0.3117	0.7132	0.021
Mof_C 	C 	0.88818	0.36343	0.6552	-0.15
Mof_H 	H 	0.8887	0.3823	0.6868	0.096
Mof_C 	C 	0.90178	0.37945	0.5943	0.098
Mof_C 	C 	0.89919	0.34977	0.545	-0.141
Mof_H 	H 	0.9075	0.3594	0.5031	0.08
Mof_C 	C 	0.8838	0.30588	0.5616	0.061
Mof_H 	H 	0.8823	0.2864	0.5303	0.025
Mof_C 	C 	0.92124	0.42612	0.5735	-0.051
Mof_C 	C 	0.95873	0.44575	0.5379	-0.054
Mof_H 	H 	0.9705	0.4287	0.5245	0.05
Mof_H 	H 	0.8292	0.3924	0.5636	0.108
Mof_O 	O 	0.52346	0.55415	0.92893	-0.407
Mof_O 	O 	0.51124	0.56616	0.03043	-0.409
Mof_C 	C 	0.5231	0.57853	0.97393	0.368
Mof_C 	C 	0.5375	0.62448	0.95723	-0.132
Mof_C 	C 	0.54063	0.65427	0.00433	0.071
Mof_H 	H 	0.53297	0.64503	0.04653	0.022
Mof_C 	C 	0.55485	0.69676	0.98853	-0.15
Mof_H 	H 	0.55537	0.71563	0.02013	0.095
Mof_C 	C 	0.56845	0.71278	0.92763	0.098
Mof_C 	C 	0.56586	0.6831	0.87833	-0.14
Mof_H 	H 	0.57417	0.69273	0.83643	0.08
Mof_C 	C 	0.55047	0.63921	0.89493	0.061
Mof_H 	H 	0.54897	0.61973	0.86363	0.025
Mof_C 	C 	0.58791	0.75945	0.90683	-0.051
Mof_C 	C 	0.6254	0.77908	0.87123	-0.054
Mof_H 	H 	0.63717	0.76203	0.85783	0.05
Mof_H 	H 	0.49587	0.72573	0.89693	0.108
Mof_O 	O 	0.19012	0.88749	0.26227	-0.407
Mof_O 	O 	0.1779	0.8995	0.36377	-0.409
Mof_C 	C 	0.18976	0.91187	0.30727	0.368
Mof_C 	C 	0.20416	0.95782	0.29057	-0.132
Mof_C 	C 	0.20729	0.98761	0.33767	0.071
Mof_H 	H 	0.19963	0.97837	0.37987	0.022
Mof_C 	C 	0.22151	0.0301	0.32187	-0.15
Mof_H 	H 	0.22203	0.04897	0.35347	0.096
Mof_C 	C 	0.23511	0.04612	0.26097	0.098
Mof_C 	C 	0.23252	0.01644	0.21167	-0.14
Mof_H 	H 	0.24083	0.02607	0.16977	0.08
Mof_C 	C 	0.21713	0.97255	0.22827	0.06
Mof_H 	H 	0.21563	0.95307	0.19697	0.025
Mof_C 	C 	0.25457	0.09279	0.24017	-0.051
Mof_C 	C 	0.29206	0.11242	0.20457	-0.054
Mof_H 	H 	0.30383	0.09537	0.19117	0.05
Mof_H 	H 	0.16253	0.05907	0.23027	0.108
Mof_O 	O 	0.36403	0.14321	0.5956	-0.407
Mof_O 	O 	0.38826	0.15543	0.6971	-0.409
Mof_C 	C 	0.38877	0.14357	0.6406	0.368
Mof_C 	C 	0.42032	0.12917	0.6239	-0.132
Mof_C 	C 	0.44698	0.12604	0.671	0.072
Mof_H 	H 	0.4454	0.1337	0.7132	0.021
Mof_C 	C 	0.47525	0.11182	0.6552	-0.15
Mof_H 	H 	0.4936	0.1113	0.6868	0.096
Mof_C 	C 	0.47767	0.09822	0.5943	0.098
Mof_C 	C 	0.45058	0.10081	0.545	-0.141
Mof_H 	H 	0.4519	0.0925	0.5031	0.08
Mof_C 	C 	0.42208	0.1162	0.5616	0.061
Mof_H 	H 	0.4041	0.1177	0.5303	0.025
Mof_C 	C 	0.50488	0.07876	0.5735	-0.051
Mof_C 	C 	0.48702	0.04127	0.5379	-0.054
Mof_H 	H 	0.4582	0.0295	0.5245	0.05
Mof_H 	H 	0.5632	0.1708	0.5636	0.108
Mof_O 	O 	0.0307	0.47654	0.92893	-0.407
Mof_O 	O 	0.05493	0.48876	0.03043	-0.409
Mof_C 	C 	0.05544	0.4769	0.97393	0.368
Mof_C 	C 	0.08699	0.4625	0.95723	-0.131
Mof_C 	C 	0.11365	0.45937	0.00433	0.07
Mof_H 	H 	0.11207	0.46703	0.04653	0.022
Mof_C 	C 	0.14192	0.44515	0.98853	-0.148
Mof_H 	H 	0.16027	0.44463	0.02013	0.095
Mof_C 	C 	0.14434	0.43155	0.92763	0.097
Mof_C 	C 	0.11725	0.43414	0.87833	-0.14
Mof_H 	H 	0.11857	0.42583	0.83643	0.08
Mof_C 	C 	0.08875	0.44953	0.89493	0.06
Mof_H 	H 	0.07077	0.45103	0.86363	0.026
Mof_C 	C 	0.17155	0.41209	0.90683	-0.051
Mof_C 	C 	0.15369	0.3746	0.87123	-0.054
Mof_H 	H 	0.12487	0.36283	0.85783	0.05
Mof_H 	H 	0.22987	0.50413	0.89693	0.108
Mof_O 	O 	0.69736	0.80988	0.26227	-0.407
Mof_O 	O 	0.72159	0.8221	0.36377	-0.409
Mof_C 	C 	0.7221	0.81024	0.30727	0.368
Mof_C 	C 	0.75365	0.79584	0.29057	-0.132
Mof_C 	C 	0.78031	0.79271	0.33767	0.072
Mof_H 	H 	0.77873	0.80037	0.37987	0.022
Mof_C 	C 	0.80858	0.77849	0.32187	-0.15
Mof_H 	H 	0.82693	0.77797	0.35347	0.096
Mof_C 	C 	0.811	0.76489	0.26097	0.098
Mof_C 	C 	0.78391	0.76748	0.21167	-0.141
Mof_H 	H 	0.78523	0.75917	0.16977	0.08
Mof_C 	C 	0.75541	0.78287	0.22827	0.061
Mof_H 	H 	0.73743	0.78437	0.19697	0.025
Mof_C 	C 	0.83821	0.74543	0.24017	-0.051
Mof_C 	C 	0.82035	0.70794	0.20457	-0.054
Mof_H 	H 	0.79153	0.69617	0.19117	0.049
Mof_H 	H 	0.89653	0.83747	0.23027	0.108
Mof_O 	O 	0.36403	0.22082	0.5956	-0.407
Mof_O 	O 	0.38826	0.23283	0.6971	-0.409
Mof_C 	C 	0.38877	0.2452	0.6406	0.368
Mof_C 	C 	0.42032	0.29115	0.6239	-0.132
Mof_C 	C 	0.44698	0.32094	0.671	0.072
Mof_H 	H 	0.4454	0.3117	0.7132	0.021
Mof_C 	C 	0.47525	0.36343	0.6552	-0.15
Mof_H 	H 	0.4936	0.3823	0.6868	0.096
Mof_C 	C 	0.47767	0.37945	0.5943	0.098
Mof_C 	C 	0.45058	0.34977	0.545	-0.141
Mof_H 	H 	0.4519	0.3594	0.5031	0.08
Mof_C 	C 	0.42208	0.30588	0.5616	0.061
Mof_H 	H 	0.4041	0.2864	0.5303	0.025
Mof_C 	C 	0.50488	0.42612	0.5735	-0.051
Mof_C 	C 	0.48702	0.44575	0.5379	-0.054
Mof_H 	H 	0.4582	0.4287	0.5245	0.049
Mof_H 	H 	0.5632	0.3924	0.5636	0.108
Mof_O 	O 	0.0307	0.55415	0.92893	-0.407
Mof_O 	O 	0.05493	0.56616	0.03043	-0.409
Mof_C 	C 	0.05544	0.57853	0.97393	0.368
Mof_C 	C 	0.08699	0.62448	0.95723	-0.13
Mof_C 	C 	0.11365	0.65427	0.00433	0.069
Mof_H 	H 	0.11207	0.64503	0.04653	0.023
Mof_C 	C 	0.14192	0.69676	0.98853	-0.147
Mof_H 	H 	0.16027	0.71563	0.02013	0.094
Mof_C 	C 	0.14434	0.71278	0.92763	0.096
Mof_C 	C 	0.11725	0.6831	0.87833	-0.139
Mof_H 	H 	0.11857	0.69273	0.83643	0.08
Mof_C 	C 	0.08875	0.63921	0.89493	0.06
Mof_H 	H 	0.07077	0.61973	0.86363	0.026
Mof_C 	C 	0.17155	0.75945	0.90683	-0.05
Mof_C 	C 	0.15369	0.77908	0.87123	-0.054
Mof_H 	H 	0.12487	0.76203	0.85783	0.05
Mof_H 	H 	0.22987	0.72573	0.89693	0.108
Mof_O 	O 	0.69736	0.88749	0.26227	-0.407
Mof_O 	O 	0.72159	0.8995	0.36377	-0.409
Mof_C 	C 	0.7221	0.91187	0.30727	0.368
Mof_C 	C 	0.75365	0.95782	0.29057	-0.132
Mof_C 	C 	0.78031	0.98761	0.33767	0.071
Mof_H 	H 	0.77873	0.97837	0.37987	0.022
Mof_C 	C 	0.80858	0.0301	0.32187	-0.15
Mof_H 	H 	0.82693	0.04897	0.35347	0.096
Mof_C 	C 	0.811	0.04612	0.26097	0.098
Mof_C 	C 	0.78391	0.01644	0.21167	-0.14
Mof_H 	H 	0.78523	0.02607	0.16977	0.08
Mof_C 	C 	0.75541	0.97255	0.22827	0.06
Mof_H 	H 	0.73743	0.95307	0.19697	0.025
Mof_C 	C 	0.83821	0.09279	0.24017	-0.051
Mof_C 	C 	0.82035	0.11242	0.20457	-0.054
Mof_H 	H 	0.79153	0.09537	0.19117	0.05
Mof_H 	H 	0.89653	0.05907	0.23027	0.108
Mof_O 	O 	0.77918	0.14321	0.5956	-0.407
Mof_O 	O 	0.76717	0.15543	0.6971	-0.409
Mof_C 	C 	0.7548	0.14357	0.6406	0.368
Mof_C 	C 	0.70885	0.12917	0.6239	-0.132
Mof_C 	C 	0.67906	0.12604	0.671	0.072
Mof_H 	H 	0.6883	0.1337	0.7132	0.021
Mof_C 	C 	0.63657	0.11182	0.6552	-0.15
Mof_H 	H 	0.6177	0.1113	0.6868	0.096
Mof_C 	C 	0.62055	0.09822	0.5943	0.098
Mof_C 	C 	0.65023	0.10081	0.545	-0.141
Mof_H 	H 	0.6406	0.0925	0.5031	0.08
Mof_C 	C 	0.69412	0.1162	0.5616	0.061
Mof_H 	H 	0.7136	0.1177	0.5303	0.025
Mof_C 	C 	0.57388	0.07876	0.5735	-0.051
Mof_C 	C 	0.55425	0.04127	0.5379	-0.054
Mof_H 	H 	0.5713	0.0295	0.5245	0.05
Mof_H 	H 	0.6076	0.1708	0.5636	0.108
Mof_O 	O 	0.44585	0.47654	0.92893	-0.407
Mof_O 	O 	0.43384	0.48876	0.03043	-0.409
Mof_C 	C 	0.42147	0.4769	0.97393	0.368
Mof_C 	C 	0.37552	0.4625	0.95723	-0.132
Mof_C 	C 	0.34573	0.45937	0.00433	0.071
Mof_H 	H 	0.35497	0.46703	0.04653	0.022
Mof_C 	C 	0.30324	0.44515	0.98853	-0.15
Mof_H 	H 	0.28437	0.44463	0.02013	0.095
Mof_C 	C 	0.28722	0.43155	0.92763	0.098
Mof_C 	C 	0.3169	0.43414	0.87833	-0.14
Mof_H 	H 	0.30727	0.42583	0.83643	0.08
Mof_C 	C 	0.36079	0.44953	0.89493	0.061
Mof_H 	H 	0.38027	0.45103	0.86363	0.025
Mof_C 	C 	0.24055	0.41209	0.90683	-0.051
Mof_C 	C 	0.22092	0.3746	0.87123	-0.054
Mof_H 	H 	0.23797	0.36283	0.85783	0.05
Mof_H 	H 	0.27427	0.50413	0.89693	0.108
Mof_O 	O 	0.11251	0.80988	0.26227	-0.407
Mof_O 	O 	0.1005	0.8221	0.36377	-0.409
Mof_C 	C 	0.08813	0.81024	0.30727	0.368
Mof_C 	C 	0.04218	0.79584	0.29057	-0.132
Mof_C 	C 	0.01239	0.79271	0.33767	0.071
Mof_H 	H 	0.02163	0.80037	0.37987	0.022
Mof_C 	C 	0.9699	0.77849	0.32187	-0.15
Mof_H 	H 	0.95103	0.77797	0.35347	0.096
Mof_C 	C 	0.95388	0.76489	0.26097	0.098
Mof_C 	C 	0.98356	0.76748	0.21167	-0.14
Mof_H 	H 	0.97393	0.75917	0.16977	0.08
Mof_C 	C 	0.02745	0.78287	0.22827	0.06
Mof_H 	H 	0.04693	0.78437	0.19697	0.025
Mof_C 	C 	0.90721	0.74543	0.24017	-0.051
Mof_C 	C 	0.88758	0.70794	0.20457	-0.054
Mof_H 	H 	0.90463	0.69617	0.19117	0.05
Mof_H 	H 	0.94093	0.83747	0.23027	0.108
Mof_O 	O 	0.85679	0.63597	0.5956	-0.407
Mof_O 	O 	0.84457	0.61174	0.6971	-0.409
Mof_C 	C 	0.85643	0.61123	0.6406	0.368
Mof_C 	C 	0.87083	0.57968	0.6239	-0.132
Mof_C 	C 	0.87396	0.55302	0.671	0.072
Mof_H 	H 	0.8663	0.5546	0.7132	0.021
Mof_C 	C 	0.88818	0.52475	0.6552	-0.15
Mof_H 	H 	0.8887	0.5064	0.6868	0.096
Mof_C 	C 	0.90178	0.52233	0.5943	0.098
Mof_C 	C 	0.89919	0.54942	0.545	-0.141
Mof_H 	H 	0.9075	0.5481	0.5031	0.08
Mof_C 	C 	0.8838	0.57792	0.5616	0.061
Mof_H 	H 	0.8823	0.5959	0.5303	0.025
Mof_C 	C 	0.92124	0.49512	0.5735	-0.051
Mof_C 	C 	0.95873	0.51298	0.5379	-0.054
Mof_H 	H 	0.9705	0.5418	0.5245	0.05
Mof_H 	H 	0.8292	0.4368	0.5636	0.108
Mof_O 	O 	0.52346	0.9693	0.92893	-0.407
Mof_O 	O 	0.51124	0.94507	0.03043	-0.409
Mof_C 	C 	0.5231	0.94456	0.97393	0.368
Mof_C 	C 	0.5375	0.91301	0.95723	-0.131
Mof_C 	C 	0.54063	0.88635	0.00433	0.07
Mof_H 	H 	0.53297	0.88793	0.04653	0.022
Mof_C 	C 	0.55485	0.85808	0.98853	-0.148
Mof_H 	H 	0.55537	0.83973	0.02013	0.095
Mof_C 	C 	0.56845	0.85566	0.92763	0.097
Mof_C 	C 	0.56586	0.88275	0.87833	-0.14
Mof_H 	H 	0.57417	0.88143	0.83643	0.08
Mof_C 	C 	0.55047	0.91125	0.89493	0.06
Mof_H 	H 	0.54897	0.92923	0.86363	0.026
Mof_C 	C 	0.58791	0.82845	0.90683	-0.051
Mof_C 	C 	0.6254	0.84631	0.87123	-0.054
Mof_H 	H 	0.63717	0.87513	0.85783	0.05
Mof_H 	H 	0.49587	0.77013	0.89693	0.108
Mof_O 	O 	0.19012	0.30264	0.26227	-0.407
Mof_O 	O 	0.1779	0.27841	0.36377	-0.409
Mof_C 	C 	0.18976	0.2779	0.30727	0.368
Mof_C 	C 	0.20416	0.24635	0.29057	-0.132
Mof_C 	C 	0.20729	0.21969	0.33767	0.072
Mof_H 	H 	0.19963	0.22127	0.37987	0.022
Mof_C 	C 	0.22151	0.19142	0.32187	-0.15
Mof_H 	H 	0.22203	0.17307	0.35347	0.096
Mof_C 	C 	0.23511	0.189	0.26097	0.098
Mof_C 	C 	0.23252	0.21609	0.21167	-0.141
Mof_H 	H 	0.24083	0.21477	0.16977	0.08
Mof_C 	C 	0.21713	0.24459	0.22827	0.061
Mof_H 	H 	0.21563	0.26257	0.19697	0.025
Mof_C 	C 	0.25457	0.16179	0.24017	-0.051
Mof_C 	C 	0.29206	0.17965	0.20457	-0.054
Mof_H 	H 	0.30383	0.20847	0.19117	0.049
Mof_H 	H 	0.16253	0.10347	0.23027	0.108
Mof_O 	O 	0.22082	0.36403	0.4044	-0.407
Mof_O 	O 	0.23283	0.38826	0.3029	-0.409
Mof_C 	C 	0.2452	0.38877	0.3594	0.368
Mof_C 	C 	0.29115	0.42032	0.3761	-0.132
Mof_C 	C 	0.32094	0.44698	0.329	0.072
Mof_H 	H 	0.3117	0.4454	0.2868	0.021
Mof_C 	C 	0.36343	0.47525	0.3448	-0.15
Mof_H 	H 	0.3823	0.4936	0.3132	0.096
Mof_C 	C 	0.37945	0.47767	0.4057	0.098
Mof_C 	C 	0.34977	0.45058	0.455	-0.141
Mof_H 	H 	0.3594	0.4519	0.4969	0.08
Mof_C 	C 	0.30588	0.42208	0.4384	0.061
Mof_H 	H 	0.2864	0.4041	0.4697	0.025
Mof_C 	C 	0.42612	0.50488	0.4265	-0.051
Mof_C 	C 	0.44575	0.48702	0.4621	-0.054
Mof_H 	H 	0.4287	0.4582	0.4755	0.049
Mof_H 	H 	0.3924	0.5632	0.4364	0.108
Mof_O 	O 	0.88749	0.69736	0.73773	-0.407
Mof_O 	O 	0.8995	0.72159	0.63623	-0.409
Mof_C 	C 	0.91187	0.7221	0.69273	0.368
Mof_C 	C 	0.95782	0.75365	0.70943	-0.132
Mof_C 	C 	0.98761	0.78031	0.66233	0.071
Mof_H 	H 	0.97837	0.77873	0.62013	0.022
Mof_C 	C 	0.0301	0.80858	0.67813	-0.15
Mof_H 	H 	0.04897	0.82693	0.64653	0.096
Mof_C 	C 	0.04612	0.811	0.73903	0.098
Mof_C 	C 	0.01644	0.78391	0.78833	-0.14
Mof_H 	H 	0.02607	0.78523	0.83023	0.08
Mof_C 	C 	0.97255	0.75541	0.77173	0.06
Mof_H 	H 	0.95307	0.73743	0.80303	0.025
Mof_C 	C 	0.09279	0.83821	0.75983	-0.051
Mof_C 	C 	0.11242	0.82035	0.79543	-0.054
Mof_H 	H 	0.09537	0.79153	0.80883	0.05
Mof_H 	H 	0.05907	0.89653	0.76973	0.108
Mof_O 	O 	0.55415	0.0307	0.07107	-0.407
Mof_O 	O 	0.56616	0.05493	0.96957	-0.409
Mof_C 	C 	0.57853	0.05544	0.02607	0.368
Mof_C 	C 	0.62448	0.08699	0.04277	-0.13
Mof_C 	C 	0.65427	0.11365	0.99567	0.069
Mof_H 	H 	0.64503	0.11207	0.95347	0.023
Mof_C 	C 	0.69676	0.14192	0.01147	-0.147
Mof_H 	H 	0.71563	0.16027	0.97987	0.094
Mof_C 	C 	0.71278	0.14434	0.07237	0.096
Mof_C 	C 	0.6831	0.11725	0.12167	-0.139
Mof_H 	H 	0.69273	0.11857	0.16357	0.08
Mof_C 	C 	0.63921	0.08875	0.10507	0.06
Mof_H 	H 	0.61973	0.07077	0.13637	0.026
Mof_C 	C 	0.75945	0.17155	0.09317	-0.05
Mof_C 	C 	0.77908	0.15369	0.12877	-0.054
Mof_H 	H 	0.76203	0.12487	0.14217	0.05
Mof_H 	H 	0.72573	0.22987	0.10307	0.108
Mof_O 	O 	0.14321	0.77918	0.4044	-0.407
Mof_O 	O 	0.15543	0.76717	0.3029	-0.409
Mof_C 	C 	0.14357	0.7548	0.3594	0.368
Mof_C 	C 	0.12917	0.70885	0.3761	-0.132
Mof_C 	C 	0.12604	0.67906	0.329	0.072
Mof_H 	H 	0.1337	0.6883	0.2868	0.021
Mof_C 	C 	0.11182	0.63657	0.3448	-0.15
Mof_H 	H 	0.1113	0.6177	0.3132	0.096
Mof_C 	C 	0.09822	0.62055	0.4057	0.098
Mof_C 	C 	0.10081	0.65023	0.455	-0.141
Mof_H 	H 	0.0925	0.6406	0.4969	0.08
Mof_C 	C 	0.1162	0.69412	0.4384	0.061
Mof_H 	H 	0.1177	0.7136	0.4697	0.025
Mof_C 	C 	0.07876	0.57388	0.4265	-0.051
Mof_C 	C 	0.04127	0.55425	0.4621	-0.054
Mof_H 	H 	0.0295	0.5713	0.4755	0.05
Mof_H 	H 	0.1708	0.6076	0.4364	0.108
Mof_O 	O 	0.80988	0.11251	0.73773	-0.407
Mof_O 	O 	0.8221	0.1005	0.63623	-0.409
Mof_C 	C 	0.81024	0.08813	0.69273	0.368
Mof_C 	C 	0.79584	0.04218	0.70943	-0.132
Mof_C 	C 	0.79271	0.01239	0.66233	0.071
Mof_H 	H 	0.80037	0.02163	0.62013	0.022
Mof_C 	C 	0.77849	0.9699	0.67813	-0.15
Mof_H 	H 	0.77797	0.95103	0.64653	0.096
Mof_C 	C 	0.76489	0.95388	0.73903	0.098
Mof_C 	C 	0.76748	0.98356	0.78833	-0.14
Mof_H 	H 	0.75917	0.97393	0.83023	0.08
Mof_C 	C 	0.78287	0.02745	0.77173	0.06
Mof_H 	H 	0.78437	0.04693	0.80303	0.025
Mof_C 	C 	0.74543	0.90721	0.75983	-0.051
Mof_C 	C 	0.70794	0.88758	0.79543	-0.054
Mof_H 	H 	0.69617	0.90463	0.80883	0.05
Mof_H 	H 	0.83747	0.94093	0.76973	0.108
Mof_O 	O 	0.47654	0.44585	0.07107	-0.407
Mof_O 	O 	0.48876	0.43384	0.96957	-0.409
Mof_C 	C 	0.4769	0.42147	0.02607	0.368
Mof_C 	C 	0.4625	0.37552	0.04277	-0.132
Mof_C 	C 	0.45937	0.34573	0.99567	0.071
Mof_H 	H 	0.46703	0.35497	0.95347	0.022
Mof_C 	C 	0.44515	0.30324	0.01147	-0.15
Mof_H 	H 	0.44463	0.28437	0.97987	0.095
Mof_C 	C 	0.43155	0.28722	0.07237	0.098
Mof_C 	C 	0.43414	0.3169	0.12167	-0.14
Mof_H 	H 	0.42583	0.30727	0.16357	0.08
Mof_C 	C 	0.44953	0.36079	0.10507	0.061
Mof_H 	H 	0.45103	0.38027	0.13637	0.025
Mof_C 	C 	0.41209	0.24055	0.09317	-0.051
Mof_C 	C 	0.3746	0.22092	0.12877	-0.054
Mof_H 	H 	0.36283	0.23797	0.14217	0.05
Mof_H 	H 	0.50413	0.27427	0.10307	0.108
Mof_O 	O 	0.63597	0.85679	0.4044	-0.407
Mof_O 	O 	0.61174	0.84457	0.3029	-0.409
Mof_C 	C 	0.61123	0.85643	0.3594	0.368
Mof_C 	C 	0.57968	0.87083	0.3761	-0.132
Mof_C 	C 	0.55302	0.87396	0.329	0.072
Mof_H 	H 	0.5546	0.8663	0.2868	0.021
Mof_C 	C 	0.52475	0.88818	0.3448	-0.15
Mof_H 	H 	0.5064	0.8887	0.3132	0.096
Mof_C 	C 	0.52233	0.90178	0.4057	0.098
Mof_C 	C 	0.54942	0.89919	0.455	-0.141
Mof_H 	H 	0.5481	0.9075	0.4969	0.08
Mof_C 	C 	0.57792	0.8838	0.4384	0.061
Mof_H 	H 	0.5959	0.8823	0.4697	0.025
Mof_C 	C 	0.49512	0.92124	0.4265	-0.051
Mof_C 	C 	0.51298	0.95873	0.4621	-0.054
Mof_H 	H 	0.5418	0.9705	0.4755	0.05
Mof_H 	H 	0.4368	0.8292	0.4364	0.108
Mof_O 	O 	0.30264	0.19012	0.73773	-0.407
Mof_O 	O 	0.27841	0.1779	0.63623	-0.409
Mof_C 	C 	0.2779	0.18976	0.69273	0.368
Mof_C 	C 	0.24635	0.20416	0.70943	-0.132
Mof_C 	C 	0.21969	0.20729	0.66233	0.072
Mof_H 	H 	0.22127	0.19963	0.62013	0.022
Mof_C 	C 	0.19142	0.22151	0.67813	-0.15
Mof_H 	H 	0.17307	0.22203	0.64653	0.096
Mof_C 	C 	0.189	0.23511	0.73903	0.098
Mof_C 	C 	0.21609	0.23252	0.78833	-0.141
Mof_H 	H 	0.21477	0.24083	0.83023	0.08
Mof_C 	C 	0.24459	0.21713	0.77173	0.061
Mof_H 	H 	0.26257	0.21563	0.80303	0.025
Mof_C 	C 	0.16179	0.25457	0.75983	-0.051
Mof_C 	C 	0.17965	0.29206	0.79543	-0.054
Mof_H 	H 	0.20847	0.30383	0.80883	0.049
Mof_H 	H 	0.10347	0.16253	0.76973	0.108
Mof_O 	O 	0.9693	0.52346	0.07107	-0.407
Mof_O 	O 	0.94507	0.51124	0.96957	-0.409
Mof_C 	C 	0.94456	0.5231	0.02607	0.368
Mof_C 	C 	0.91301	0.5375	0.04277	-0.131
Mof_C 	C 	0.88635	0.54063	0.99567	0.07
Mof_H 	H 	0.88793	0.53297	0.95347	0.022
Mof_C 	C 	0.85808	0.55485	0.01147	-0.148
Mof_H 	H 	0.83973	0.55537	0.97987	0.095
Mof_C 	C 	0.85566	0.56845	0.07237	0.097
Mof_C 	C 	0.88275	0.56586	0.12167	-0.14
Mof_H 	H 	0.88143	0.57417	0.16357	0.08
Mof_C 	C 	0.91125	0.55047	0.10507	0.06
Mof_H 	H 	0.92923	0.54897	0.13637	0.026
Mof_C 	C 	0.82845	0.58791	0.09317	-0.051
Mof_C 	C 	0.84631	0.6254	0.12877	-0.054
Mof_H 	H 	0.87513	0.63717	0.14217	0.05
Mof_H 	H 	0.77013	0.49587	0.10307	0.108
Mof_Cu	Cu	0.65265	0.82632	0.2733	0.907
Mof_Cu	Cu	0.31932	0.15966	0.60663	0.907
Mof_Cu	Cu	0.98598	0.49299	0.93997	0.907
Mof_Cu	Cu	0.17368	0.82632	0.2733	0.907
Mof_Cu	Cu	0.84034	0.15966	0.60663	0.907
Mof_Cu	Cu	0.50701	0.49299	0.93997	0.907
Mof_Cu	Cu	0.17367	0.34735	0.2733	0.907
Mof_Cu	Cu	0.84034	0.68068	0.60663	0.907
Mof_Cu	Cu	0.50701	0.01402	0.93997	0.907
Mof_Cu	Cu	0.82632	0.65265	0.7267	0.907
Mof_Cu	Cu	0.49299	0.98598	0.06003	0.907
Mof_Cu	Cu	0.15966	0.31932	0.39337	0.907
Mof_Cu	Cu	0.82632	0.17368	0.7267	0.907
Mof_Cu	Cu	0.49299	0.50701	0.06003	0.907
Mof_Cu	Cu	0.15966	0.84034	0.39337	0.907
Mof_Cu	Cu	0.34735	0.17368	0.7267	0.907
Mof_Cu	Cu	0.01402	0.50701	0.06003	0.907
Mof_Cu	Cu	0.68068	0.84034	0.39337	0.907
Mof_O 	O 	0.43242	0.56758	0.3671	-0.157
Mof_C 	C 	0.49031	0.50969	0.4796	0.011
Mof_C 	C 	0.45143	0.54857	0.4089	0.097
Mof_C 	C 	0.4141	0.5859	0.4099	-0.237
Mof_H 	H 	0.4008	0.5992	0.3855	0.11
Mof_O 	O 	0.09909	0.90091	0.70043	-0.157
Mof_C 	C 	0.15698	0.84302	0.81293	0.01
Mof_C 	C 	0.1181	0.8819	0.74223	0.097
Mof_C 	C 	0.08077	0.91923	0.74323	-0.238
Mof_H 	H 	0.06747	0.93253	0.71883	0.11
Mof_O 	O 	0.76575	0.23425	0.03377	-0.157
Mof_C 	C 	0.82364	0.17636	0.14627	0.011
Mof_C 	C 	0.78476	0.21524	0.07557	0.096
Mof_C 	C 	0.74743	0.25257	0.07657	-0.238
Mof_H 	H 	0.73413	0.26587	0.05217	0.11
Mof_O 	O 	0.43242	0.86484	0.3671	-0.157
Mof_C 	C 	0.49031	0.98062	0.4796	0.011
Mof_C 	C 	0.45143	0.90286	0.4089	0.097
Mof_C 	C 	0.4141	0.8282	0.4099	-0.237
Mof_H 	H 	0.4008	0.8016	0.3855	0.11
Mof_O 	O 	0.09909	0.19817	0.70043	-0.157
Mof_C 	C 	0.15698	0.31395	0.81293	0.011
Mof_C 	C 	0.1181	0.23619	0.74223	0.097
Mof_C 	C 	0.08077	0.16153	0.74323	-0.237
Mof_H 	H 	0.06747	0.13493	0.71883	0.11
Mof_O 	O 	0.76575	0.53151	0.03377	-0.157
Mof_C 	C 	0.82364	0.64729	0.14627	0.011
Mof_C 	C 	0.78476	0.56953	0.07557	0.096
Mof_C 	C 	0.74743	0.49487	0.07657	-0.237
Mof_H 	H 	0.73413	0.46827	0.05217	0.11
Mof_O 	O 	0.13516	0.56758	0.3671	-0.157
Mof_C 	C 	0.01938	0.50969	0.4796	0.011
Mof_C 	C 	0.09714	0.54857	0.4089	0.097
Mof_C 	C 	0.1718	0.5859	0.4099	-0.237
Mof_H 	H 	0.1984	0.5992	0.3855	0.11
Mof_O 	O 	0.80183	0.90091	0.70043	-0.157
Mof_C 	C 	0.68605	0.84302	0.81293	0.011
Mof_C 	C 	0.76381	0.8819	0.74223	0.097
Mof_C 	C 	0.83847	0.91923	0.74323	-0.237
Mof_H 	H 	0.86507	0.93253	0.71883	0.11
Mof_O 	O 	0.46849	0.23425	0.03377	-0.157
Mof_C 	C 	0.35271	0.17636	0.14627	0.011
Mof_C 	C 	0.43047	0.21524	0.07557	0.096
Mof_C 	C 	0.50513	0.25257	0.07657	-0.237
Mof_H 	H 	0.53173	0.26587	0.05217	0.11
Mof_O 	O 	0.56758	0.43242	0.6329	-0.157
Mof_C 	C 	0.50969	0.49031	0.5204	0.011
Mof_C 	C 	0.54857	0.45143	0.5911	0.097
Mof_C 	C 	0.5859	0.4141	0.5901	-0.237
Mof_H 	H 	0.5992	0.4008	0.6145	0.11
Mof_O 	O 	0.23425	0.76575	0.96623	-0.157
Mof_C 	C 	0.17636	0.82364	0.85373	0.011
Mof_C 	C 	0.21524	0.78476	0.92443	0.096
Mof_C 	C 	0.25257	0.74743	0.92343	-0.238
Mof_H 	H 	0.26587	0.73413	0.94783	0.11
Mof_O 	O 	0.90091	0.09909	0.29957	-0.157
Mof_C 	C 	0.84302	0.15698	0.18707	0.01
Mof_C 	C 	0.8819	0.1181	0.25777	0.097
Mof_C 	C 	0.91923	0.08077	0.25677	-0.238
Mof_H 	H 	0.93253	0.06747	0.28117	0.11
Mof_O 	O 	0.86484	0.43242	0.6329	-0.157
Mof_C 	C 	0.98062	0.49031	0.5204	0.011
Mof_C 	C 	0.90286	0.45143	0.5911	0.097
Mof_C 	C 	0.8282	0.4141	0.5901	-0.237
Mof_H 	H 	0.8016	0.4008	0.6145	0.11
Mof_O 	O 	0.53151	0.76575	0.96623	-0.157
Mof_C 	C 	0.64729	0.82364	0.85373	0.011
Mof_C 	C 	0.56953	0.78476	0.92443	0.096
Mof_C 	C 	0.49487	0.74743	0.92343	-0.237
Mof_H 	H 	0.46827	0.73413	0.94783	0.11
Mof_O 	O 	0.19817	0.09909	0.29957	-0.157
Mof_C 	C 	0.31395	0.15698	0.18707	0.011
Mof_C 	C 	0.23619	0.1181	0.25777	0.097
Mof_C 	C 	0.16153	0.08077	0.25677	-0.237
Mof_H 	H 	0.13493	0.06747	0.28117	0.11
Mof_O 	O 	0.56758	0.13516	0.6329	-0.157
Mof_C 	C 	0.50969	0.01938	0.5204	0.011
Mof_C 	C 	0.54857	0.09714	0.5911	0.097
Mof_C 	C 	0.5859	0.1718	0.5901	-0.237
Mof_H 	H 	0.5992	0.1984	0.6145	0.11
Mof_O 	O 	0.23425	0.46849	0.96623	-0.157
Mof_C 	C 	0.17636	0.35271	0.85373	0.011
Mof_C 	C 	0.21524	0.43047	0.92443	0.096
Mof_C 	C 	0.25257	0.50513	0.92343	-0.237
Mof_H 	H 	0.26587	0.53173	0.94783	0.11
Mof_O 	O 	0.90091	0.80183	0.29957	-0.157
Mof_C 	C 	0.84302	0.68605	0.18707	0.011
Mof_C 	C 	0.8819	0.76381	0.25777	0.097
Mof_C 	C 	0.91923	0.83847	0.25677	-0.237
Mof_H 	H 	0.93253	0.86507	0.28117	0.11
_end
