data_functionalizedCrystal
_audit_creation_method	'EQeq! by Chris Wilmer'
_symmetry_space_group_name_H-M	'P1'
_symmetry_Int_Tables_number	1
_symmetry_cell_setting	triclinic
loop_
_symmetry_equiv_pos_as_xyz
  x,y,z
_cell_length_a	23.3019
_cell_length_b	23.3019
_cell_length_c	23.3019
_cell_angle_alpha	90
_cell_angle_beta	90
_cell_angle_gamma	90
loop_
_atom_site_label
_atom_site_type_symbol
_atom_site_fract_x
_atom_site_fract_y
_atom_site_fract_z
_atom_site_charge
Mof_Cu	Cu	0.26791	0.14492	0.9355	0.889
Mof_O 	O 	0.2065	0.1042	0.9712	-0.46
Mof_N 	N 	0.3407	0.1736	0.9036	-0.211
Mof_N 	N 	0.284	0.0836	0.8807	-0.197
Mof_C 	C 	0.2571	0.0347	0.8771	0.04
Mof_H 	H 	0.2673	0.0096	0.8466	0.027
Mof_C 	C 	0.213	0.0159	0.9164	-0.132
Mof_C 	C 	0.1901	0.0505	0.9618	0.234
Mof_C 	C 	0.1468	0.0279	0.997	-0.212
Mof_H 	H 	0.1305	0.0507	0.0265	0.096
Mof_C 	C 	0.1275	0.9711	0.9883	0.076
Mof_H 	H 	0.0993	0.9556	0.0133	0.005
Mof_C 	C 	0.1487	0.9378	0.9446	-0.134
Mof_H 	H 	0.135	0.8998	0.939	0.074
Mof_C 	C 	0.1909	0.9607	0.9086	0.044
Mof_H 	H 	0.2049	0.938	0.8777	0.013
Mof_Cu	Cu	0.2173	0.15836	0.05151	0.886
Mof_Cl	Cl	0.3122	0.1339	0.0589	0.221
Mof_O 	O 	0.3113	0.1412	0.0473	-0.526
Mof_O 	O 	0.2914	0.0131	0.7398	-0.475
Mof_N 	N 	0.3883	0.8867	0.6833	-0.214
Mof_N 	N 	0.2977	0.9337	0.6471	-0.199
Mof_C 	C 	0.2542	0.9636	0.6283	0.051
Mof_H 	H 	0.4087	0.7397	0.5456	0.003
Mof_C 	C 	0.2266	0.0092	0.6592	-0.142
Mof_C 	C 	0.2456	0.0324	0.7126	0.238
Mof_C 	C 	0.2633	0.7141	0.4217	-0.237
Mof_H 	H 	0.2287	0.7271	0.4046	0.089
Mof_C 	C 	0.2889	0.665	0.4014	0.092
Mof_H 	H 	0.2704	0.6432	0.3724	-0.01
Mof_C 	C 	0.343	0.6466	0.4235	-0.147
Mof_H 	H 	0.3623	0.6143	0.4076	0.086
Mof_C 	C 	0.3663	0.6766	0.4682	0.055
Mof_H 	H 	0.4011	0.6632	0.4846	0.011
Mof_Cu	Cu	0.23209	0.85508	0.4355	0.89
Mof_O 	O 	0.2935	0.8958	0.4712	-0.461
Mof_N 	N 	0.1593	0.8264	0.4036	-0.21
Mof_N 	N 	0.216	0.9164	0.3807	-0.196
Mof_C 	C 	0.2429	0.9653	0.3771	0.041
Mof_H 	H 	0.2327	0.9904	0.3466	0.027
Mof_C 	C 	0.287	0.9841	0.4164	-0.132
Mof_C 	C 	0.3099	0.9495	0.4618	0.237
Mof_C 	C 	0.3532	0.9721	0.497	-0.218
Mof_H 	H 	0.3695	0.9493	0.5265	0.099
Mof_C 	C 	0.3725	0.0289	0.4883	0.08
Mof_H 	H 	0.4007	0.0444	0.5133	0.003
Mof_C 	C 	0.3513	0.0622	0.4446	-0.137
Mof_H 	H 	0.365	0.1002	0.439	0.075
Mof_C 	C 	0.3091	0.0393	0.4086	0.045
Mof_H 	H 	0.2951	0.062	0.3777	0.012
Mof_Cu	Cu	0.2827	0.84164	0.55151	0.886
Mof_Cl	Cl	0.1878	0.8661	0.5589	0.222
Mof_O 	O 	0.1887	0.8588	0.5473	-0.526
Mof_O 	O 	0.2086	0.9869	0.2398	-0.474
Mof_N 	N 	0.1117	0.1133	0.1833	-0.214
Mof_N 	N 	0.2023	0.0663	0.1471	-0.199
Mof_C 	C 	0.2458	0.0364	0.1283	0.048
Mof_H 	H 	0.0913	0.2603	0.0456	0.003
Mof_C 	C 	0.2734	0.9908	0.1592	-0.139
Mof_C 	C 	0.2544	0.9676	0.2126	0.236
Mof_C 	C 	0.2367	0.2859	0.9217	-0.236
Mof_H 	H 	0.2713	0.2729	0.9046	0.089
Mof_C 	C 	0.2111	0.335	0.9014	0.091
Mof_H 	H 	0.2296	0.3568	0.8724	-0.01
Mof_C 	C 	0.157	0.3534	0.9235	-0.146
Mof_H 	H 	0.1377	0.3857	0.9076	0.086
Mof_C 	C 	0.1337	0.3234	0.9682	0.054
Mof_H 	H 	0.0989	0.3368	0.9846	0.012
Mof_Cu	Cu	0.73209	0.64492	0.5645	0.89
Mof_O 	O 	0.7935	0.6042	0.5288	-0.461
Mof_N 	N 	0.6593	0.6736	0.5964	-0.21
Mof_N 	N 	0.716	0.5836	0.6193	-0.196
Mof_C 	C 	0.7429	0.5347	0.6229	0.041
Mof_H 	H 	0.7327	0.5096	0.6534	0.026
Mof_C 	C 	0.787	0.5159	0.5836	-0.134
Mof_C 	C 	0.8099	0.5505	0.5382	0.238
Mof_C 	C 	0.8532	0.5279	0.503	-0.219
Mof_H 	H 	0.8695	0.5507	0.4735	0.1
Mof_C 	C 	0.8725	0.4711	0.5117	0.082
Mof_H 	H 	0.9007	0.4556	0.4867	0.003
Mof_C 	C 	0.8513	0.4378	0.5554	-0.138
Mof_H 	H 	0.865	0.3998	0.561	0.075
Mof_C 	C 	0.8091	0.4607	0.5914	0.048
Mof_H 	H 	0.7951	0.438	0.6223	0.012
Mof_Cu	Cu	0.7827	0.65836	0.44849	0.886
Mof_Cl	Cl	0.6878	0.6339	0.4411	0.222
Mof_O 	O 	0.6887	0.6412	0.4527	-0.526
Mof_O 	O 	0.7086	0.5131	0.7602	-0.475
Mof_N 	N 	0.6117	0.3867	0.8167	-0.214
Mof_N 	N 	0.7023	0.4337	0.8529	-0.199
Mof_C 	C 	0.7458	0.4636	0.8717	0.051
Mof_H 	H 	0.5913	0.2397	0.9544	0.003
Mof_C 	C 	0.7734	0.5092	0.8408	-0.141
Mof_C 	C 	0.7544	0.5324	0.7874	0.237
Mof_C 	C 	0.7367	0.2141	0.0783	-0.237
Mof_H 	H 	0.7713	0.2271	0.0954	0.089
Mof_C 	C 	0.7111	0.165	0.0986	0.092
Mof_H 	H 	0.7296	0.1432	0.1276	-0.01
Mof_C 	C 	0.657	0.1466	0.0765	-0.148
Mof_H 	H 	0.6377	0.1143	0.0924	0.086
Mof_C 	C 	0.6337	0.1766	0.0318	0.056
Mof_H 	H 	0.5989	0.1632	0.0154	0.011
Mof_Cu	Cu	0.76791	0.35508	0.0645	0.89
Mof_O 	O 	0.7065	0.3958	0.0288	-0.461
Mof_N 	N 	0.8407	0.3264	0.0964	-0.21
Mof_N 	N 	0.784	0.4164	0.1193	-0.196
Mof_C 	C 	0.7571	0.4653	0.1229	0.041
Mof_H 	H 	0.7673	0.4904	0.1534	0.026
Mof_C 	C 	0.713	0.4841	0.0836	-0.134
Mof_C 	C 	0.6901	0.4495	0.0382	0.238
Mof_C 	C 	0.6468	0.4721	0.003	-0.22
Mof_H 	H 	0.6305	0.4493	0.9735	0.1
Mof_C 	C 	0.6275	0.5289	0.0117	0.083
Mof_H 	H 	0.5993	0.5444	0.9867	0.002
Mof_C 	C 	0.6487	0.5622	0.0554	-0.139
Mof_H 	H 	0.635	0.6002	0.061	0.076
Mof_C 	C 	0.6909	0.5393	0.0914	0.048
Mof_H 	H 	0.7049	0.562	0.1223	0.012
Mof_Cu	Cu	0.7173	0.34164	0.94849	0.886
Mof_Cl	Cl	0.8122	0.3661	0.9411	0.221
Mof_O 	O 	0.8113	0.3588	0.9527	-0.526
Mof_O 	O 	0.7914	0.4869	0.2602	-0.475
Mof_N 	N 	0.8883	0.6133	0.3167	-0.214
Mof_N 	N 	0.7977	0.5663	0.3529	-0.199
Mof_C 	C 	0.7542	0.5364	0.3717	0.051
Mof_H 	H 	0.9087	0.7603	0.4544	0.003
Mof_C 	C 	0.7266	0.4908	0.3408	-0.141
Mof_C 	C 	0.7456	0.4676	0.2874	0.237
Mof_C 	C 	0.7633	0.7859	0.5783	-0.237
Mof_H 	H 	0.7287	0.7729	0.5954	0.089
Mof_C 	C 	0.7889	0.835	0.5986	0.092
Mof_H 	H 	0.7704	0.8568	0.6276	-0.01
Mof_C 	C 	0.843	0.8534	0.5765	-0.147
Mof_H 	H 	0.8623	0.8857	0.5924	0.086
Mof_C 	C 	0.8663	0.8234	0.5318	0.055
Mof_H 	H 	0.9011	0.8368	0.5154	0.011
Mof_Cu	Cu	0.9355	0.26791	0.14492	0.89
Mof_O 	O 	0.9712	0.2065	0.1042	-0.459
Mof_N 	N 	0.9036	0.3407	0.1736	-0.21
Mof_N 	N 	0.8807	0.284	0.0836	-0.196
Mof_C 	C 	0.8771	0.2571	0.0347	0.04
Mof_H 	H 	0.8466	0.2673	0.0096	0.027
Mof_C 	C 	0.9164	0.213	0.0159	-0.132
Mof_C 	C 	0.9618	0.1901	0.0505	0.234
Mof_C 	C 	0.997	0.1468	0.0279	-0.212
Mof_H 	H 	0.0265	0.1305	0.0507	0.096
Mof_C 	C 	0.9883	0.1275	0.9711	0.076
Mof_H 	H 	0.0133	0.0993	0.9556	0.005
Mof_C 	C 	0.9446	0.1487	0.9378	-0.134
Mof_H 	H 	0.939	0.135	0.8998	0.074
Mof_C 	C 	0.9086	0.1909	0.9607	0.044
Mof_H 	H 	0.8777	0.2049	0.938	0.013
Mof_Cu	Cu	0.05151	0.2173	0.15836	0.886
Mof_Cl	Cl	0.0589	0.3122	0.1339	0.221
Mof_O 	O 	0.0473	0.3113	0.1412	-0.526
Mof_O 	O 	0.7398	0.2914	0.0131	-0.475
Mof_N 	N 	0.6833	0.3883	0.8867	-0.214
Mof_N 	N 	0.6471	0.2977	0.9337	-0.199
Mof_C 	C 	0.6283	0.2542	0.9636	0.051
Mof_H 	H 	0.5456	0.4087	0.7397	0.003
Mof_C 	C 	0.6592	0.2266	0.0092	-0.142
Mof_C 	C 	0.7126	0.2456	0.0324	0.238
Mof_C 	C 	0.4217	0.2633	0.7141	-0.237
Mof_H 	H 	0.4046	0.2287	0.7271	0.089
Mof_C 	C 	0.4014	0.2889	0.665	0.092
Mof_H 	H 	0.3724	0.2704	0.6432	-0.01
Mof_C 	C 	0.4235	0.343	0.6466	-0.147
Mof_H 	H 	0.4076	0.3623	0.6143	0.086
Mof_C 	C 	0.4682	0.3663	0.6766	0.055
Mof_H 	H 	0.4846	0.4011	0.6632	0.011
Mof_Cu	Cu	0.4355	0.23209	0.85508	0.89
Mof_O 	O 	0.4712	0.2935	0.8958	-0.461
Mof_N 	N 	0.4036	0.1593	0.8264	-0.21
Mof_N 	N 	0.3807	0.216	0.9164	-0.196
Mof_C 	C 	0.3771	0.2429	0.9653	0.041
Mof_H 	H 	0.3466	0.2327	0.9904	0.027
Mof_C 	C 	0.4164	0.287	0.9841	-0.132
Mof_C 	C 	0.4618	0.3099	0.9495	0.237
Mof_C 	C 	0.497	0.3532	0.9721	-0.218
Mof_H 	H 	0.5265	0.3695	0.9493	0.099
Mof_C 	C 	0.4883	0.3725	0.0289	0.08
Mof_H 	H 	0.5133	0.4007	0.0444	0.003
Mof_C 	C 	0.4446	0.3513	0.0622	-0.137
Mof_H 	H 	0.439	0.365	0.1002	0.075
Mof_C 	C 	0.4086	0.3091	0.0393	0.045
Mof_H 	H 	0.3777	0.2951	0.062	0.012
Mof_Cu	Cu	0.55151	0.2827	0.84164	0.886
Mof_Cl	Cl	0.5589	0.1878	0.8661	0.222
Mof_O 	O 	0.5473	0.1887	0.8588	-0.526
Mof_O 	O 	0.2398	0.2086	0.9869	-0.474
Mof_N 	N 	0.1833	0.1117	0.1133	-0.214
Mof_N 	N 	0.1471	0.2023	0.0663	-0.199
Mof_C 	C 	0.1283	0.2458	0.0364	0.048
Mof_H 	H 	0.0456	0.0913	0.2603	0.003
Mof_C 	C 	0.1592	0.2734	0.9908	-0.139
Mof_C 	C 	0.2126	0.2544	0.9676	0.236
Mof_C 	C 	0.9217	0.2367	0.2859	-0.236
Mof_H 	H 	0.9046	0.2713	0.2729	0.089
Mof_C 	C 	0.9014	0.2111	0.335	0.091
Mof_H 	H 	0.8724	0.2296	0.3568	-0.01
Mof_C 	C 	0.9235	0.157	0.3534	-0.146
Mof_H 	H 	0.9076	0.1377	0.3857	0.086
Mof_C 	C 	0.9682	0.1337	0.3234	0.054
Mof_H 	H 	0.9846	0.0989	0.3368	0.012
Mof_Cu	Cu	0.5645	0.73209	0.64492	0.89
Mof_O 	O 	0.5288	0.7935	0.6042	-0.461
Mof_N 	N 	0.5964	0.6593	0.6736	-0.21
Mof_N 	N 	0.6193	0.716	0.5836	-0.196
Mof_C 	C 	0.6229	0.7429	0.5347	0.041
Mof_H 	H 	0.6534	0.7327	0.5096	0.026
Mof_C 	C 	0.5836	0.787	0.5159	-0.134
Mof_C 	C 	0.5382	0.8099	0.5505	0.238
Mof_C 	C 	0.503	0.8532	0.5279	-0.219
Mof_H 	H 	0.4735	0.8695	0.5507	0.1
Mof_C 	C 	0.5117	0.8725	0.4711	0.082
Mof_H 	H 	0.4867	0.9007	0.4556	0.003
Mof_C 	C 	0.5554	0.8513	0.4378	-0.138
Mof_H 	H 	0.561	0.865	0.3998	0.075
Mof_C 	C 	0.5914	0.8091	0.4607	0.048
Mof_H 	H 	0.6223	0.7951	0.438	0.012
Mof_Cu	Cu	0.44849	0.7827	0.65836	0.886
Mof_Cl	Cl	0.4411	0.6878	0.6339	0.222
Mof_O 	O 	0.4527	0.6887	0.6412	-0.526
Mof_O 	O 	0.7602	0.7086	0.5131	-0.475
Mof_N 	N 	0.8167	0.6117	0.3867	-0.214
Mof_N 	N 	0.8529	0.7023	0.4337	-0.199
Mof_C 	C 	0.8717	0.7458	0.4636	0.051
Mof_H 	H 	0.9544	0.5913	0.2397	0.003
Mof_C 	C 	0.8408	0.7734	0.5092	-0.141
Mof_C 	C 	0.7874	0.7544	0.5324	0.237
Mof_C 	C 	0.0783	0.7367	0.2141	-0.237
Mof_H 	H 	0.0954	0.7713	0.2271	0.089
Mof_C 	C 	0.0986	0.7111	0.165	0.092
Mof_H 	H 	0.1276	0.7296	0.1432	-0.01
Mof_C 	C 	0.0765	0.657	0.1466	-0.148
Mof_H 	H 	0.0924	0.6377	0.1143	0.086
Mof_C 	C 	0.0318	0.6337	0.1766	0.056
Mof_H 	H 	0.0154	0.5989	0.1632	0.011
Mof_Cu	Cu	0.0645	0.76791	0.35508	0.89
Mof_O 	O 	0.0288	0.7065	0.3958	-0.461
Mof_N 	N 	0.0964	0.8407	0.3264	-0.21
Mof_N 	N 	0.1193	0.784	0.4164	-0.196
Mof_C 	C 	0.1229	0.7571	0.4653	0.041
Mof_H 	H 	0.1534	0.7673	0.4904	0.026
Mof_C 	C 	0.0836	0.713	0.4841	-0.134
Mof_C 	C 	0.0382	0.6901	0.4495	0.238
Mof_C 	C 	0.003	0.6468	0.4721	-0.22
Mof_H 	H 	0.9735	0.6305	0.4493	0.1
Mof_C 	C 	0.0117	0.6275	0.5289	0.083
Mof_H 	H 	0.9867	0.5993	0.5444	0.002
Mof_C 	C 	0.0554	0.6487	0.5622	-0.139
Mof_H 	H 	0.061	0.635	0.6002	0.076
Mof_C 	C 	0.0914	0.6909	0.5393	0.048
Mof_H 	H 	0.1223	0.7049	0.562	0.012
Mof_Cu	Cu	0.94849	0.7173	0.34164	0.886
Mof_Cl	Cl	0.9411	0.8122	0.3661	0.221
Mof_O 	O 	0.9527	0.8113	0.3588	-0.526
Mof_O 	O 	0.2602	0.7914	0.4869	-0.475
Mof_N 	N 	0.3167	0.8883	0.6133	-0.214
Mof_N 	N 	0.3529	0.7977	0.5663	-0.199
Mof_C 	C 	0.3717	0.7542	0.5364	0.051
Mof_H 	H 	0.4544	0.9087	0.7603	0.003
Mof_C 	C 	0.3408	0.7266	0.4908	-0.141
Mof_C 	C 	0.2874	0.7456	0.4676	0.237
Mof_C 	C 	0.5783	0.7633	0.7859	-0.237
Mof_H 	H 	0.5954	0.7287	0.7729	0.089
Mof_C 	C 	0.5986	0.7889	0.835	0.092
Mof_H 	H 	0.6276	0.7704	0.8568	-0.01
Mof_C 	C 	0.5765	0.843	0.8534	-0.147
Mof_H 	H 	0.5924	0.8623	0.8857	0.086
Mof_C 	C 	0.5318	0.8663	0.8234	0.055
Mof_H 	H 	0.5154	0.9011	0.8368	0.011
Mof_Cu	Cu	0.14492	0.9355	0.26791	0.89
Mof_O 	O 	0.1042	0.9712	0.2065	-0.459
Mof_N 	N 	0.1736	0.9036	0.3407	-0.21
Mof_N 	N 	0.0836	0.8807	0.284	-0.196
Mof_C 	C 	0.0347	0.8771	0.2571	0.04
Mof_H 	H 	0.0096	0.8466	0.2673	0.027
Mof_C 	C 	0.0159	0.9164	0.213	-0.132
Mof_C 	C 	0.0505	0.9618	0.1901	0.234
Mof_C 	C 	0.0279	0.997	0.1468	-0.212
Mof_H 	H 	0.0507	0.0265	0.1305	0.096
Mof_C 	C 	0.9711	0.9883	0.1275	0.076
Mof_H 	H 	0.9556	0.0133	0.0993	0.005
Mof_C 	C 	0.9378	0.9446	0.1487	-0.134
Mof_H 	H 	0.8998	0.939	0.135	0.074
Mof_C 	C 	0.9607	0.9086	0.1909	0.044
Mof_H 	H 	0.938	0.8777	0.2049	0.013
Mof_Cu	Cu	0.15836	0.05151	0.2173	0.886
Mof_Cl	Cl	0.1339	0.0589	0.3122	0.221
Mof_O 	O 	0.1412	0.0473	0.3113	-0.526
Mof_O 	O 	0.0131	0.7398	0.2914	-0.475
Mof_N 	N 	0.8867	0.6833	0.3883	-0.214
Mof_N 	N 	0.9337	0.6471	0.2977	-0.199
Mof_C 	C 	0.9636	0.6283	0.2542	0.051
Mof_H 	H 	0.7397	0.5456	0.4087	0.003
Mof_C 	C 	0.0092	0.6592	0.2266	-0.142
Mof_C 	C 	0.0324	0.7126	0.2456	0.238
Mof_C 	C 	0.7141	0.4217	0.2633	-0.237
Mof_H 	H 	0.7271	0.4046	0.2287	0.089
Mof_C 	C 	0.665	0.4014	0.2889	0.092
Mof_H 	H 	0.6432	0.3724	0.2704	-0.01
Mof_C 	C 	0.6466	0.4235	0.343	-0.147
Mof_H 	H 	0.6143	0.4076	0.3623	0.086
Mof_C 	C 	0.6766	0.4682	0.3663	0.055
Mof_H 	H 	0.6632	0.4846	0.4011	0.011
Mof_Cu	Cu	0.85508	0.4355	0.23209	0.89
Mof_O 	O 	0.8958	0.4712	0.2935	-0.461
Mof_N 	N 	0.8264	0.4036	0.1593	-0.21
Mof_N 	N 	0.9164	0.3807	0.216	-0.196
Mof_C 	C 	0.9653	0.3771	0.2429	0.041
Mof_H 	H 	0.9904	0.3466	0.2327	0.027
Mof_C 	C 	0.9841	0.4164	0.287	-0.132
Mof_C 	C 	0.9495	0.4618	0.3099	0.237
Mof_C 	C 	0.9721	0.497	0.3532	-0.218
Mof_H 	H 	0.9493	0.5265	0.3695	0.099
Mof_C 	C 	0.0289	0.4883	0.3725	0.08
Mof_H 	H 	0.0444	0.5133	0.4007	0.003
Mof_C 	C 	0.0622	0.4446	0.3513	-0.137
Mof_H 	H 	0.1002	0.439	0.365	0.075
Mof_C 	C 	0.0393	0.4086	0.3091	0.045
Mof_H 	H 	0.062	0.3777	0.2951	0.012
Mof_Cu	Cu	0.84164	0.55151	0.2827	0.886
Mof_Cl	Cl	0.8661	0.5589	0.1878	0.222
Mof_O 	O 	0.8588	0.5473	0.1887	-0.526
Mof_O 	O 	0.9869	0.2398	0.2086	-0.474
Mof_N 	N 	0.1133	0.1833	0.1117	-0.214
Mof_N 	N 	0.0663	0.1471	0.2023	-0.199
Mof_C 	C 	0.0364	0.1283	0.2458	0.048
Mof_H 	H 	0.2603	0.0456	0.0913	0.003
Mof_C 	C 	0.9908	0.1592	0.2734	-0.139
Mof_C 	C 	0.9676	0.2126	0.2544	0.236
Mof_C 	C 	0.2859	0.9217	0.2367	-0.236
Mof_H 	H 	0.2729	0.9046	0.2713	0.089
Mof_C 	C 	0.335	0.9014	0.2111	0.091
Mof_H 	H 	0.3568	0.8724	0.2296	-0.01
Mof_C 	C 	0.3534	0.9235	0.157	-0.146
Mof_H 	H 	0.3857	0.9076	0.1377	0.086
Mof_C 	C 	0.3234	0.9682	0.1337	0.054
Mof_H 	H 	0.3368	0.9846	0.0989	0.012
Mof_Cu	Cu	0.64492	0.5645	0.73209	0.89
Mof_O 	O 	0.6042	0.5288	0.7935	-0.461
Mof_N 	N 	0.6736	0.5964	0.6593	-0.21
Mof_N 	N 	0.5836	0.6193	0.716	-0.196
Mof_C 	C 	0.5347	0.6229	0.7429	0.041
Mof_H 	H 	0.5096	0.6534	0.7327	0.026
Mof_C 	C 	0.5159	0.5836	0.787	-0.134
Mof_C 	C 	0.5505	0.5382	0.8099	0.238
Mof_C 	C 	0.5279	0.503	0.8532	-0.219
Mof_H 	H 	0.5507	0.4735	0.8695	0.1
Mof_C 	C 	0.4711	0.5117	0.8725	0.082
Mof_H 	H 	0.4556	0.4867	0.9007	0.003
Mof_C 	C 	0.4378	0.5554	0.8513	-0.138
Mof_H 	H 	0.3998	0.561	0.865	0.075
Mof_C 	C 	0.4607	0.5914	0.8091	0.048
Mof_H 	H 	0.438	0.6223	0.7951	0.012
Mof_Cu	Cu	0.65836	0.44849	0.7827	0.886
Mof_Cl	Cl	0.6339	0.4411	0.6878	0.222
Mof_O 	O 	0.6412	0.4527	0.6887	-0.526
Mof_O 	O 	0.5131	0.7602	0.7086	-0.475
Mof_N 	N 	0.3867	0.8167	0.6117	-0.214
Mof_N 	N 	0.4337	0.8529	0.7023	-0.199
Mof_C 	C 	0.4636	0.8717	0.7458	0.051
Mof_H 	H 	0.2397	0.9544	0.5913	0.003
Mof_C 	C 	0.5092	0.8408	0.7734	-0.141
Mof_C 	C 	0.5324	0.7874	0.7544	0.237
Mof_C 	C 	0.2141	0.0783	0.7367	-0.237
Mof_H 	H 	0.2271	0.0954	0.7713	0.089
Mof_C 	C 	0.165	0.0986	0.7111	0.092
Mof_H 	H 	0.1432	0.1276	0.7296	-0.01
Mof_C 	C 	0.1466	0.0765	0.657	-0.148
Mof_H 	H 	0.1143	0.0924	0.6377	0.086
Mof_C 	C 	0.1766	0.0318	0.6337	0.056
Mof_H 	H 	0.1632	0.0154	0.5989	0.011
Mof_Cu	Cu	0.35508	0.0645	0.76791	0.89
Mof_O 	O 	0.3958	0.0288	0.7065	-0.461
Mof_N 	N 	0.3264	0.0964	0.8407	-0.21
Mof_N 	N 	0.4164	0.1193	0.784	-0.196
Mof_C 	C 	0.4653	0.1229	0.7571	0.041
Mof_H 	H 	0.4904	0.1534	0.7673	0.026
Mof_C 	C 	0.4841	0.0836	0.713	-0.134
Mof_C 	C 	0.4495	0.0382	0.6901	0.238
Mof_C 	C 	0.4721	0.003	0.6468	-0.22
Mof_H 	H 	0.4493	0.9735	0.6305	0.1
Mof_C 	C 	0.5289	0.0117	0.6275	0.083
Mof_H 	H 	0.5444	0.9867	0.5993	0.002
Mof_C 	C 	0.5622	0.0554	0.6487	-0.139
Mof_H 	H 	0.6002	0.061	0.635	0.076
Mof_C 	C 	0.5393	0.0914	0.6909	0.048
Mof_H 	H 	0.562	0.1223	0.7049	0.012
Mof_Cu	Cu	0.34164	0.94849	0.7173	0.886
Mof_Cl	Cl	0.3661	0.9411	0.8122	0.221
Mof_O 	O 	0.3588	0.9527	0.8113	-0.526
Mof_O 	O 	0.4869	0.2602	0.7914	-0.475
Mof_N 	N 	0.6133	0.3167	0.8883	-0.214
Mof_N 	N 	0.5663	0.3529	0.7977	-0.199
Mof_C 	C 	0.5364	0.3717	0.7542	0.051
Mof_H 	H 	0.7603	0.4544	0.9087	0.003
Mof_C 	C 	0.4908	0.3408	0.7266	-0.141
Mof_C 	C 	0.4676	0.2874	0.7456	0.237
Mof_C 	C 	0.7859	0.5783	0.7633	-0.237
Mof_H 	H 	0.7729	0.5954	0.7287	0.089
Mof_C 	C 	0.835	0.5986	0.7889	0.092
Mof_H 	H 	0.8568	0.6276	0.7704	-0.01
Mof_C 	C 	0.8534	0.5765	0.843	-0.147
Mof_H 	H 	0.8857	0.5924	0.8623	0.086
Mof_C 	C 	0.8234	0.5318	0.8663	0.055
Mof_H 	H 	0.8368	0.5154	0.9011	0.011
Mof_C 	C 	0.3565	0.1435	0.8565	0.089
Mof_C 	C 	0.1435	0.8565	0.3565	0.089
Mof_C 	C 	0.6435	0.6435	0.6435	0.089
Mof_C 	C 	0.8565	0.3565	0.1435	0.089
Mof_C 	C 	0.3634	0.8634	0.6366	0.096
Mof_C 	C 	0.1366	0.1366	0.1366	0.096
Mof_C 	C 	0.6366	0.3634	0.8634	0.096
Mof_C 	C 	0.8634	0.6366	0.3634	0.096
Mof_Cu	Cu	0.73209	0.85508	0.0645	0.89
Mof_O 	O 	0.7935	0.8958	0.0288	-0.459
Mof_N 	N 	0.6593	0.8264	0.0964	-0.21
Mof_N 	N 	0.716	0.9164	0.1193	-0.196
Mof_C 	C 	0.7429	0.9653	0.1229	0.04
Mof_H 	H 	0.7327	0.9904	0.1534	0.027
Mof_C 	C 	0.787	0.9841	0.0836	-0.132
Mof_C 	C 	0.8099	0.9495	0.0382	0.234
Mof_C 	C 	0.8532	0.9721	0.003	-0.212
Mof_H 	H 	0.8695	0.9493	0.9735	0.096
Mof_C 	C 	0.8725	0.0289	0.0117	0.076
Mof_H 	H 	0.9007	0.0444	0.9867	0.005
Mof_C 	C 	0.8513	0.0622	0.0554	-0.134
Mof_H 	H 	0.865	0.1002	0.061	0.074
Mof_C 	C 	0.8091	0.0393	0.0914	0.044
Mof_H 	H 	0.7951	0.062	0.1223	0.013
Mof_Cu	Cu	0.7827	0.84164	0.94849	0.886
Mof_Cl	Cl	0.6878	0.8661	0.9411	0.221
Mof_O 	O 	0.6887	0.8588	0.9527	-0.526
Mof_O 	O 	0.7086	0.9869	0.2602	-0.475
Mof_N 	N 	0.6117	0.1133	0.3167	-0.214
Mof_N 	N 	0.7023	0.0663	0.3529	-0.199
Mof_C 	C 	0.7458	0.0364	0.3717	0.051
Mof_H 	H 	0.5913	0.2603	0.4544	0.003
Mof_C 	C 	0.7734	0.9908	0.3408	-0.142
Mof_C 	C 	0.7544	0.9676	0.2874	0.238
Mof_C 	C 	0.7367	0.2859	0.5783	-0.237
Mof_H 	H 	0.7713	0.2729	0.5954	0.089
Mof_C 	C 	0.7111	0.335	0.5986	0.092
Mof_H 	H 	0.7296	0.3568	0.6276	-0.01
Mof_C 	C 	0.657	0.3534	0.5765	-0.147
Mof_H 	H 	0.6377	0.3857	0.5924	0.086
Mof_C 	C 	0.6337	0.3234	0.5318	0.055
Mof_H 	H 	0.5989	0.3368	0.5154	0.011
Mof_Cu	Cu	0.76791	0.14492	0.5645	0.89
Mof_O 	O 	0.7065	0.1042	0.5288	-0.461
Mof_N 	N 	0.8407	0.1736	0.5964	-0.21
Mof_N 	N 	0.784	0.0836	0.6193	-0.196
Mof_C 	C 	0.7571	0.0347	0.6229	0.041
Mof_H 	H 	0.7673	0.0096	0.6534	0.027
Mof_C 	C 	0.713	0.0159	0.5836	-0.132
Mof_C 	C 	0.6901	0.0505	0.5382	0.237
Mof_C 	C 	0.6468	0.0279	0.503	-0.218
Mof_H 	H 	0.6305	0.0507	0.4735	0.099
Mof_C 	C 	0.6275	0.9711	0.5117	0.08
Mof_H 	H 	0.5993	0.9556	0.4867	0.003
Mof_C 	C 	0.6487	0.9378	0.5554	-0.137
Mof_H 	H 	0.635	0.8998	0.561	0.075
Mof_C 	C 	0.6909	0.9607	0.5914	0.045
Mof_H 	H 	0.7049	0.938	0.6223	0.012
Mof_Cu	Cu	0.7173	0.15836	0.44849	0.886
Mof_Cl	Cl	0.8122	0.1339	0.4411	0.222
Mof_O 	O 	0.8113	0.1412	0.4527	-0.526
Mof_O 	O 	0.7914	0.0131	0.7602	-0.474
Mof_N 	N 	0.8883	0.8867	0.8167	-0.214
Mof_N 	N 	0.7977	0.9337	0.8529	-0.199
Mof_C 	C 	0.7542	0.9636	0.8717	0.048
Mof_H 	H 	0.9087	0.7397	0.9544	0.003
Mof_C 	C 	0.7266	0.0092	0.8408	-0.139
Mof_C 	C 	0.7456	0.0324	0.7874	0.236
Mof_C 	C 	0.7633	0.7141	0.0783	-0.236
Mof_H 	H 	0.7287	0.7271	0.0954	0.089
Mof_C 	C 	0.7889	0.665	0.0986	0.091
Mof_H 	H 	0.7704	0.6432	0.1276	-0.01
Mof_C 	C 	0.843	0.6466	0.0765	-0.146
Mof_H 	H 	0.8623	0.6143	0.0924	0.086
Mof_C 	C 	0.8663	0.6766	0.0318	0.054
Mof_H 	H 	0.9011	0.6632	0.0154	0.012
Mof_Cu	Cu	0.26791	0.35508	0.4355	0.89
Mof_O 	O 	0.2065	0.3958	0.4712	-0.461
Mof_N 	N 	0.3407	0.3264	0.4036	-0.21
Mof_N 	N 	0.284	0.4164	0.3807	-0.196
Mof_C 	C 	0.2571	0.4653	0.3771	0.041
Mof_H 	H 	0.2673	0.4904	0.3466	0.026
Mof_C 	C 	0.213	0.4841	0.4164	-0.134
Mof_C 	C 	0.1901	0.4495	0.4618	0.238
Mof_C 	C 	0.1468	0.4721	0.497	-0.219
Mof_H 	H 	0.1305	0.4493	0.5265	0.1
Mof_C 	C 	0.1275	0.5289	0.4883	0.082
Mof_H 	H 	0.0993	0.5444	0.5133	0.003
Mof_C 	C 	0.1487	0.5622	0.4446	-0.138
Mof_H 	H 	0.135	0.6002	0.439	0.075
Mof_C 	C 	0.1909	0.5393	0.4086	0.048
Mof_H 	H 	0.2049	0.562	0.3777	0.012
Mof_Cu	Cu	0.2173	0.34164	0.55151	0.886
Mof_Cl	Cl	0.3122	0.3661	0.5589	0.222
Mof_O 	O 	0.3113	0.3588	0.5473	-0.526
Mof_O 	O 	0.2914	0.4869	0.2398	-0.475
Mof_N 	N 	0.3883	0.6133	0.1833	-0.214
Mof_N 	N 	0.2977	0.5663	0.1471	-0.199
Mof_C 	C 	0.2542	0.5364	0.1283	0.051
Mof_H 	H 	0.4087	0.7603	0.0456	0.003
Mof_C 	C 	0.2266	0.4908	0.1592	-0.141
Mof_C 	C 	0.2456	0.4676	0.2126	0.237
Mof_C 	C 	0.2633	0.7859	0.9217	-0.237
Mof_H 	H 	0.2287	0.7729	0.9046	0.089
Mof_C 	C 	0.2889	0.835	0.9014	0.092
Mof_H 	H 	0.2704	0.8568	0.8724	-0.01
Mof_C 	C 	0.343	0.8534	0.9235	-0.148
Mof_H 	H 	0.3623	0.8857	0.9076	0.086
Mof_C 	C 	0.3663	0.8234	0.9682	0.056
Mof_H 	H 	0.4011	0.8368	0.9846	0.011
Mof_Cu	Cu	0.23209	0.64492	0.9355	0.89
Mof_O 	O 	0.2935	0.6042	0.9712	-0.461
Mof_N 	N 	0.1593	0.6736	0.9036	-0.21
Mof_N 	N 	0.216	0.5836	0.8807	-0.196
Mof_C 	C 	0.2429	0.5347	0.8771	0.041
Mof_H 	H 	0.2327	0.5096	0.8466	0.026
Mof_C 	C 	0.287	0.5159	0.9164	-0.134
Mof_C 	C 	0.3099	0.5505	0.9618	0.238
Mof_C 	C 	0.3532	0.5279	0.997	-0.22
Mof_H 	H 	0.3695	0.5507	0.0265	0.1
Mof_C 	C 	0.3725	0.4711	0.9883	0.083
Mof_H 	H 	0.4007	0.4556	0.0133	0.002
Mof_C 	C 	0.3513	0.4378	0.9446	-0.139
Mof_H 	H 	0.365	0.3998	0.939	0.076
Mof_C 	C 	0.3091	0.4607	0.9086	0.048
Mof_H 	H 	0.2951	0.438	0.8777	0.012
Mof_Cu	Cu	0.2827	0.65836	0.05151	0.886
Mof_Cl	Cl	0.1878	0.6339	0.0589	0.221
Mof_O 	O 	0.1887	0.6412	0.0473	-0.526
Mof_O 	O 	0.2086	0.5131	0.7398	-0.475
Mof_N 	N 	0.1117	0.3867	0.6833	-0.214
Mof_N 	N 	0.2023	0.4337	0.6471	-0.199
Mof_C 	C 	0.2458	0.4636	0.6283	0.051
Mof_H 	H 	0.0913	0.2397	0.5456	0.003
Mof_C 	C 	0.2734	0.5092	0.6592	-0.141
Mof_C 	C 	0.2544	0.5324	0.7126	0.237
Mof_C 	C 	0.2367	0.2141	0.4217	-0.237
Mof_H 	H 	0.2713	0.2271	0.4046	0.089
Mof_C 	C 	0.2111	0.165	0.4014	0.092
Mof_H 	H 	0.2296	0.1432	0.3724	-0.01
Mof_C 	C 	0.157	0.1466	0.4235	-0.147
Mof_H 	H 	0.1377	0.1143	0.4076	0.086
Mof_C 	C 	0.1337	0.1766	0.4682	0.055
Mof_H 	H 	0.0989	0.1632	0.4846	0.011
Mof_Cu	Cu	0.0645	0.73209	0.85508	0.89
Mof_O 	O 	0.0288	0.7935	0.8958	-0.459
Mof_N 	N 	0.0964	0.6593	0.8264	-0.21
Mof_N 	N 	0.1193	0.716	0.9164	-0.196
Mof_C 	C 	0.1229	0.7429	0.9653	0.04
Mof_H 	H 	0.1534	0.7327	0.9904	0.027
Mof_C 	C 	0.0836	0.787	0.9841	-0.132
Mof_C 	C 	0.0382	0.8099	0.9495	0.234
Mof_C 	C 	0.003	0.8532	0.9721	-0.212
Mof_H 	H 	0.9735	0.8695	0.9493	0.096
Mof_C 	C 	0.0117	0.8725	0.0289	0.076
Mof_H 	H 	0.9867	0.9007	0.0444	0.005
Mof_C 	C 	0.0554	0.8513	0.0622	-0.134
Mof_H 	H 	0.061	0.865	0.1002	0.074
Mof_C 	C 	0.0914	0.8091	0.0393	0.044
Mof_H 	H 	0.1223	0.7951	0.062	0.013
Mof_Cu	Cu	0.94849	0.7827	0.84164	0.886
Mof_Cl	Cl	0.9411	0.6878	0.8661	0.221
Mof_O 	O 	0.9527	0.6887	0.8588	-0.526
Mof_O 	O 	0.2602	0.7086	0.9869	-0.475
Mof_N 	N 	0.3167	0.6117	0.1133	-0.214
Mof_N 	N 	0.3529	0.7023	0.0663	-0.199
Mof_C 	C 	0.3717	0.7458	0.0364	0.051
Mof_H 	H 	0.4544	0.5913	0.2603	0.003
Mof_C 	C 	0.3408	0.7734	0.9908	-0.142
Mof_C 	C 	0.2874	0.7544	0.9676	0.238
Mof_C 	C 	0.5783	0.7367	0.2859	-0.237
Mof_H 	H 	0.5954	0.7713	0.2729	0.089
Mof_C 	C 	0.5986	0.7111	0.335	0.092
Mof_H 	H 	0.6276	0.7296	0.3568	-0.01
Mof_C 	C 	0.5765	0.657	0.3534	-0.147
Mof_H 	H 	0.5924	0.6377	0.3857	0.086
Mof_C 	C 	0.5318	0.6337	0.3234	0.055
Mof_H 	H 	0.5154	0.5989	0.3368	0.011
Mof_Cu	Cu	0.5645	0.76791	0.14492	0.89
Mof_O 	O 	0.5288	0.7065	0.1042	-0.461
Mof_N 	N 	0.5964	0.8407	0.1736	-0.21
Mof_N 	N 	0.6193	0.784	0.0836	-0.196
Mof_C 	C 	0.6229	0.7571	0.0347	0.041
Mof_H 	H 	0.6534	0.7673	0.0096	0.027
Mof_C 	C 	0.5836	0.713	0.0159	-0.132
Mof_C 	C 	0.5382	0.6901	0.0505	0.237
Mof_C 	C 	0.503	0.6468	0.0279	-0.218
Mof_H 	H 	0.4735	0.6305	0.0507	0.099
Mof_C 	C 	0.5117	0.6275	0.9711	0.08
Mof_H 	H 	0.4867	0.5993	0.9556	0.003
Mof_C 	C 	0.5554	0.6487	0.9378	-0.137
Mof_H 	H 	0.561	0.635	0.8998	0.075
Mof_C 	C 	0.5914	0.6909	0.9607	0.045
Mof_H 	H 	0.6223	0.7049	0.938	0.012
Mof_Cu	Cu	0.44849	0.7173	0.15836	0.886
Mof_Cl	Cl	0.4411	0.8122	0.1339	0.222
Mof_O 	O 	0.4527	0.8113	0.1412	-0.526
Mof_O 	O 	0.7602	0.7914	0.0131	-0.474
Mof_N 	N 	0.8167	0.8883	0.8867	-0.214
Mof_N 	N 	0.8529	0.7977	0.9337	-0.199
Mof_C 	C 	0.8717	0.7542	0.9636	0.048
Mof_H 	H 	0.9544	0.9087	0.7397	0.003
Mof_C 	C 	0.8408	0.7266	0.0092	-0.139
Mof_C 	C 	0.7874	0.7456	0.0324	0.236
Mof_C 	C 	0.0783	0.7633	0.7141	-0.236
Mof_H 	H 	0.0954	0.7287	0.7271	0.089
Mof_C 	C 	0.0986	0.7889	0.665	0.091
Mof_H 	H 	0.1276	0.7704	0.6432	-0.01
Mof_C 	C 	0.0765	0.843	0.6466	-0.146
Mof_H 	H 	0.0924	0.8623	0.6143	0.086
Mof_C 	C 	0.0318	0.8663	0.6766	0.054
Mof_H 	H 	0.0154	0.9011	0.6632	0.012
Mof_Cu	Cu	0.4355	0.26791	0.35508	0.89
Mof_O 	O 	0.4712	0.2065	0.3958	-0.461
Mof_N 	N 	0.4036	0.3407	0.3264	-0.21
Mof_N 	N 	0.3807	0.284	0.4164	-0.196
Mof_C 	C 	0.3771	0.2571	0.4653	0.041
Mof_H 	H 	0.3466	0.2673	0.4904	0.026
Mof_C 	C 	0.4164	0.213	0.4841	-0.134
Mof_C 	C 	0.4618	0.1901	0.4495	0.238
Mof_C 	C 	0.497	0.1468	0.4721	-0.219
Mof_H 	H 	0.5265	0.1305	0.4493	0.1
Mof_C 	C 	0.4883	0.1275	0.5289	0.082
Mof_H 	H 	0.5133	0.0993	0.5444	0.003
Mof_C 	C 	0.4446	0.1487	0.5622	-0.138
Mof_H 	H 	0.439	0.135	0.6002	0.075
Mof_C 	C 	0.4086	0.1909	0.5393	0.048
Mof_H 	H 	0.3777	0.2049	0.562	0.012
Mof_Cu	Cu	0.55151	0.2173	0.34164	0.886
Mof_Cl	Cl	0.5589	0.3122	0.3661	0.222
Mof_O 	O 	0.5473	0.3113	0.3588	-0.526
Mof_O 	O 	0.2398	0.2914	0.4869	-0.475
Mof_N 	N 	0.1833	0.3883	0.6133	-0.214
Mof_N 	N 	0.1471	0.2977	0.5663	-0.199
Mof_C 	C 	0.1283	0.2542	0.5364	0.051
Mof_H 	H 	0.0456	0.4087	0.7603	0.003
Mof_C 	C 	0.1592	0.2266	0.4908	-0.141
Mof_C 	C 	0.2126	0.2456	0.4676	0.237
Mof_C 	C 	0.9217	0.2633	0.7859	-0.237
Mof_H 	H 	0.9046	0.2287	0.7729	0.089
Mof_C 	C 	0.9014	0.2889	0.835	0.092
Mof_H 	H 	0.8724	0.2704	0.8568	-0.01
Mof_C 	C 	0.9235	0.343	0.8534	-0.148
Mof_H 	H 	0.9076	0.3623	0.8857	0.086
Mof_C 	C 	0.9682	0.3663	0.8234	0.056
Mof_H 	H 	0.9846	0.4011	0.8368	0.011
Mof_Cu	Cu	0.9355	0.23209	0.64492	0.89
Mof_O 	O 	0.9712	0.2935	0.6042	-0.461
Mof_N 	N 	0.9036	0.1593	0.6736	-0.21
Mof_N 	N 	0.8807	0.216	0.5836	-0.196
Mof_C 	C 	0.8771	0.2429	0.5347	0.041
Mof_H 	H 	0.8466	0.2327	0.5096	0.026
Mof_C 	C 	0.9164	0.287	0.5159	-0.134
Mof_C 	C 	0.9618	0.3099	0.5505	0.238
Mof_C 	C 	0.997	0.3532	0.5279	-0.22
Mof_H 	H 	0.0265	0.3695	0.5507	0.1
Mof_C 	C 	0.9883	0.3725	0.4711	0.083
Mof_H 	H 	0.0133	0.4007	0.4556	0.002
Mof_C 	C 	0.9446	0.3513	0.4378	-0.139
Mof_H 	H 	0.939	0.365	0.3998	0.076
Mof_C 	C 	0.9086	0.3091	0.4607	0.048
Mof_H 	H 	0.8777	0.2951	0.438	0.012
Mof_Cu	Cu	0.05151	0.2827	0.65836	0.886
Mof_Cl	Cl	0.0589	0.1878	0.6339	0.221
Mof_O 	O 	0.0473	0.1887	0.6412	-0.526
Mof_O 	O 	0.7398	0.2086	0.5131	-0.475
Mof_N 	N 	0.6833	0.1117	0.3867	-0.214
Mof_N 	N 	0.6471	0.2023	0.4337	-0.199
Mof_C 	C 	0.6283	0.2458	0.4636	0.051
Mof_H 	H 	0.5456	0.0913	0.2397	0.003
Mof_C 	C 	0.6592	0.2734	0.5092	-0.141
Mof_C 	C 	0.7126	0.2544	0.5324	0.237
Mof_C 	C 	0.4217	0.2367	0.2141	-0.237
Mof_H 	H 	0.4046	0.2713	0.2271	0.089
Mof_C 	C 	0.4014	0.2111	0.165	0.092
Mof_H 	H 	0.3724	0.2296	0.1432	-0.01
Mof_C 	C 	0.4235	0.157	0.1466	-0.147
Mof_H 	H 	0.4076	0.1377	0.1143	0.086
Mof_C 	C 	0.4682	0.1337	0.1766	0.055
Mof_H 	H 	0.4846	0.0989	0.1632	0.011
Mof_Cu	Cu	0.85508	0.0645	0.73209	0.89
Mof_O 	O 	0.8958	0.0288	0.7935	-0.459
Mof_N 	N 	0.8264	0.0964	0.6593	-0.21
Mof_N 	N 	0.9164	0.1193	0.716	-0.196
Mof_C 	C 	0.9653	0.1229	0.7429	0.04
Mof_H 	H 	0.9904	0.1534	0.7327	0.027
Mof_C 	C 	0.9841	0.0836	0.787	-0.132
Mof_C 	C 	0.9495	0.0382	0.8099	0.234
Mof_C 	C 	0.9721	0.003	0.8532	-0.212
Mof_H 	H 	0.9493	0.9735	0.8695	0.096
Mof_C 	C 	0.0289	0.0117	0.8725	0.076
Mof_H 	H 	0.0444	0.9867	0.9007	0.005
Mof_C 	C 	0.0622	0.0554	0.8513	-0.134
Mof_H 	H 	0.1002	0.061	0.865	0.074
Mof_C 	C 	0.0393	0.0914	0.8091	0.044
Mof_H 	H 	0.062	0.1223	0.7951	0.013
Mof_Cu	Cu	0.84164	0.94849	0.7827	0.886
Mof_Cl	Cl	0.8661	0.9411	0.6878	0.221
Mof_O 	O 	0.8588	0.9527	0.6887	-0.526
Mof_O 	O 	0.9869	0.2602	0.7086	-0.475
Mof_N 	N 	0.1133	0.3167	0.6117	-0.214
Mof_N 	N 	0.0663	0.3529	0.7023	-0.199
Mof_C 	C 	0.0364	0.3717	0.7458	0.051
Mof_H 	H 	0.2603	0.4544	0.5913	0.003
Mof_C 	C 	0.9908	0.3408	0.7734	-0.142
Mof_C 	C 	0.9676	0.2874	0.7544	0.238
Mof_C 	C 	0.2859	0.5783	0.7367	-0.237
Mof_H 	H 	0.2729	0.5954	0.7713	0.089
Mof_C 	C 	0.335	0.5986	0.7111	0.092
Mof_H 	H 	0.3568	0.6276	0.7296	-0.01
Mof_C 	C 	0.3534	0.5765	0.657	-0.147
Mof_H 	H 	0.3857	0.5924	0.6377	0.086
Mof_C 	C 	0.3234	0.5318	0.6337	0.055
Mof_H 	H 	0.3368	0.5154	0.5989	0.011
Mof_Cu	Cu	0.14492	0.5645	0.76791	0.89
Mof_O 	O 	0.1042	0.5288	0.7065	-0.461
Mof_N 	N 	0.1736	0.5964	0.8407	-0.21
Mof_N 	N 	0.0836	0.6193	0.784	-0.196
Mof_C 	C 	0.0347	0.6229	0.7571	0.041
Mof_H 	H 	0.0096	0.6534	0.7673	0.027
Mof_C 	C 	0.0159	0.5836	0.713	-0.132
Mof_C 	C 	0.0505	0.5382	0.6901	0.237
Mof_C 	C 	0.0279	0.503	0.6468	-0.218
Mof_H 	H 	0.0507	0.4735	0.6305	0.099
Mof_C 	C 	0.9711	0.5117	0.6275	0.08
Mof_H 	H 	0.9556	0.4867	0.5993	0.003
Mof_C 	C 	0.9378	0.5554	0.6487	-0.137
Mof_H 	H 	0.8998	0.561	0.635	0.075
Mof_C 	C 	0.9607	0.5914	0.6909	0.045
Mof_H 	H 	0.938	0.6223	0.7049	0.012
Mof_Cu	Cu	0.15836	0.44849	0.7173	0.886
Mof_Cl	Cl	0.1339	0.4411	0.8122	0.222
Mof_O 	O 	0.1412	0.4527	0.8113	-0.526
Mof_O 	O 	0.0131	0.7602	0.7914	-0.474
Mof_N 	N 	0.8867	0.8167	0.8883	-0.214
Mof_N 	N 	0.9337	0.8529	0.7977	-0.199
Mof_C 	C 	0.9636	0.8717	0.7542	0.048
Mof_H 	H 	0.7397	0.9544	0.9087	0.003
Mof_C 	C 	0.0092	0.8408	0.7266	-0.139
Mof_C 	C 	0.0324	0.7874	0.7456	0.236
Mof_C 	C 	0.7141	0.0783	0.7633	-0.236
Mof_H 	H 	0.7271	0.0954	0.7287	0.089
Mof_C 	C 	0.665	0.0986	0.7889	0.091
Mof_H 	H 	0.6432	0.1276	0.7704	-0.01
Mof_C 	C 	0.6466	0.0765	0.843	-0.146
Mof_H 	H 	0.6143	0.0924	0.8623	0.086
Mof_C 	C 	0.6766	0.0318	0.8663	0.054
Mof_H 	H 	0.6632	0.0154	0.9011	0.012
Mof_Cu	Cu	0.35508	0.4355	0.26791	0.89
Mof_O 	O 	0.3958	0.4712	0.2065	-0.461
Mof_N 	N 	0.3264	0.4036	0.3407	-0.21
Mof_N 	N 	0.4164	0.3807	0.284	-0.196
Mof_C 	C 	0.4653	0.3771	0.2571	0.041
Mof_H 	H 	0.4904	0.3466	0.2673	0.026
Mof_C 	C 	0.4841	0.4164	0.213	-0.134
Mof_C 	C 	0.4495	0.4618	0.1901	0.238
Mof_C 	C 	0.4721	0.497	0.1468	-0.219
Mof_H 	H 	0.4493	0.5265	0.1305	0.1
Mof_C 	C 	0.5289	0.4883	0.1275	0.082
Mof_H 	H 	0.5444	0.5133	0.0993	0.003
Mof_C 	C 	0.5622	0.4446	0.1487	-0.138
Mof_H 	H 	0.6002	0.439	0.135	0.075
Mof_C 	C 	0.5393	0.4086	0.1909	0.048
Mof_H 	H 	0.562	0.3777	0.2049	0.012
Mof_Cu	Cu	0.34164	0.55151	0.2173	0.886
Mof_Cl	Cl	0.3661	0.5589	0.3122	0.222
Mof_O 	O 	0.3588	0.5473	0.3113	-0.526
Mof_O 	O 	0.4869	0.2398	0.2914	-0.475
Mof_N 	N 	0.6133	0.1833	0.3883	-0.214
Mof_N 	N 	0.5663	0.1471	0.2977	-0.199
Mof_C 	C 	0.5364	0.1283	0.2542	0.051
Mof_H 	H 	0.7603	0.0456	0.4087	0.003
Mof_C 	C 	0.4908	0.1592	0.2266	-0.141
Mof_C 	C 	0.4676	0.2126	0.2456	0.237
Mof_C 	C 	0.7859	0.9217	0.2633	-0.237
Mof_H 	H 	0.7729	0.9046	0.2287	0.089
Mof_C 	C 	0.835	0.9014	0.2889	0.092
Mof_H 	H 	0.8568	0.8724	0.2704	-0.01
Mof_C 	C 	0.8534	0.9235	0.343	-0.148
Mof_H 	H 	0.8857	0.9076	0.3623	0.086
Mof_C 	C 	0.8234	0.9682	0.3663	0.056
Mof_H 	H 	0.8368	0.9846	0.4011	0.011
Mof_Cu	Cu	0.64492	0.9355	0.23209	0.89
Mof_O 	O 	0.6042	0.9712	0.2935	-0.461
Mof_N 	N 	0.6736	0.9036	0.1593	-0.21
Mof_N 	N 	0.5836	0.8807	0.216	-0.196
Mof_C 	C 	0.5347	0.8771	0.2429	0.041
Mof_H 	H 	0.5096	0.8466	0.2327	0.026
Mof_C 	C 	0.5159	0.9164	0.287	-0.134
Mof_C 	C 	0.5505	0.9618	0.3099	0.238
Mof_C 	C 	0.5279	0.997	0.3532	-0.22
Mof_H 	H 	0.5507	0.0265	0.3695	0.1
Mof_C 	C 	0.4711	0.9883	0.3725	0.083
Mof_H 	H 	0.4556	0.0133	0.4007	0.002
Mof_C 	C 	0.4378	0.9446	0.3513	-0.139
Mof_H 	H 	0.3998	0.939	0.365	0.076
Mof_C 	C 	0.4607	0.9086	0.3091	0.048
Mof_H 	H 	0.438	0.8777	0.2951	0.012
Mof_Cu	Cu	0.65836	0.05151	0.2827	0.886
Mof_Cl	Cl	0.6339	0.0589	0.1878	0.221
Mof_O 	O 	0.6412	0.0473	0.1887	-0.526
Mof_O 	O 	0.5131	0.7398	0.2086	-0.475
Mof_N 	N 	0.3867	0.6833	0.1117	-0.214
Mof_N 	N 	0.4337	0.6471	0.2023	-0.199
Mof_C 	C 	0.4636	0.6283	0.2458	0.051
Mof_H 	H 	0.2397	0.5456	0.0913	0.003
Mof_C 	C 	0.5092	0.6592	0.2734	-0.141
Mof_C 	C 	0.5324	0.7126	0.2544	0.237
Mof_C 	C 	0.2141	0.4217	0.2367	-0.237
Mof_H 	H 	0.2271	0.4046	0.2713	0.089
Mof_C 	C 	0.165	0.4014	0.2111	0.092
Mof_H 	H 	0.1432	0.3724	0.2296	-0.01
Mof_C 	C 	0.1466	0.4235	0.157	-0.147
Mof_H 	H 	0.1143	0.4076	0.1377	0.086
Mof_C 	C 	0.1766	0.4682	0.1337	0.055
Mof_H 	H 	0.1632	0.4846	0.0989	0.011
Mof_C 	C 	0.6435	0.8565	0.1435	0.089
Mof_C 	C 	0.8565	0.1435	0.6435	0.089
Mof_C 	C 	0.3565	0.3565	0.3565	0.089
Mof_C 	C 	0.1435	0.6435	0.8565	0.089
Mof_C 	C 	0.6366	0.1366	0.3634	0.096
Mof_C 	C 	0.8634	0.8634	0.8634	0.096
Mof_C 	C 	0.3634	0.6366	0.1366	0.096
Mof_C 	C 	0.1366	0.3634	0.6366	0.096
_end
