data_functionalizedCrystal
_audit_creation_method	'EQeq! by Chris Wilmer'
_symmetry_space_group_name_H-M	'P1'
_symmetry_Int_Tables_number	1
_symmetry_cell_setting	triclinic
loop_
_symmetry_equiv_pos_as_xyz
  x,y,z
_cell_length_a	32.8643
_cell_length_b	32.8643
_cell_length_c	32.8643
_cell_angle_alpha	90
_cell_angle_beta	90
_cell_angle_gamma	90
loop_
_atom_site_label
_atom_site_type_symbol
_atom_site_fract_x
_atom_site_fract_y
_atom_site_fract_z
_atom_site_charge
Mof_O 	O 	0.21607	0.79849	0.0287	-0.486
Mof_O 	O 	0.21549	0.7997	0.96038	-0.484
Mof_C 	C 	0.20583	0.81293	0.99474	0.407
Mof_C 	C 	0.17987	0.85059	0.99604	-0.119
Mof_C 	C 	0.16978	0.86765	0.03249	0.011
Mof_H 	H 	0.179	0.8553	0.057	0.037
Mof_C 	C 	0.14619	0.90287	0.03439	-0.031
Mof_C 	C 	0.13501	0.92109	0.07061	-0.022
Mof_H 	H 	0.1451	0.9105	0.0955	0.034
Mof_C 	C 	0.10931	0.95451	0.07115	-0.082
Mof_H 	H 	0.102	0.9664	0.0965	0.056
Mof_C 	C 	0.09426	0.9708	0.03561	0.039
Mof_C 	C 	0.10429	0.95316	0.99923	-0.13
Mof_H 	H 	0.0931	0.964	0.9749	0.078
Mof_C 	C 	0.13049	0.91963	0.9967	0.086
Mof_C 	C 	0.14229	0.90115	0.96022	-0.137
Mof_H 	H 	0.1338	0.913	0.9353	0.078
Mof_C 	C 	0.16523	0.8672	0.95905	0.057
Mof_H 	H 	0.1715	0.8546	0.9338	0.021
Mof_C 	C 	0.06463	0.00506	0.03571	0.046
Mof_C 	C 	0.06556	0.03488	0.00614	-0.109
Mof_H 	H 	0.0867	0.035	0.9865	0.068
Mof_O 	O 	0.28393	0.70151	0.0287	-0.486
Mof_O 	O 	0.28451	0.7003	0.96038	-0.484
Mof_C 	C 	0.29417	0.68707	0.99474	0.407
Mof_C 	C 	0.32013	0.64941	0.99604	-0.12
Mof_C 	C 	0.33022	0.63235	0.03249	0.011
Mof_H 	H 	0.321	0.6447	0.057	0.037
Mof_C 	C 	0.35381	0.59713	0.03439	-0.031
Mof_C 	C 	0.36499	0.57891	0.07061	-0.022
Mof_H 	H 	0.3549	0.5895	0.0955	0.034
Mof_C 	C 	0.39069	0.54549	0.07115	-0.082
Mof_H 	H 	0.398	0.5336	0.0965	0.056
Mof_C 	C 	0.40574	0.5292	0.03561	0.039
Mof_C 	C 	0.39571	0.54684	0.99923	-0.13
Mof_H 	H 	0.4069	0.536	0.9749	0.078
Mof_C 	C 	0.36951	0.58037	0.9967	0.086
Mof_C 	C 	0.35771	0.59885	0.96022	-0.137
Mof_H 	H 	0.3662	0.587	0.9353	0.078
Mof_C 	C 	0.33477	0.6328	0.95905	0.057
Mof_H 	H 	0.3285	0.6454	0.9338	0.021
Mof_C 	C 	0.43537	0.49494	0.03571	0.046
Mof_C 	C 	0.43444	0.46512	0.00614	-0.109
Mof_H 	H 	0.4133	0.465	0.9865	0.068
Mof_O 	O 	0.28393	0.79849	0.4713	-0.486
Mof_O 	O 	0.28451	0.7997	0.53962	-0.484
Mof_C 	C 	0.29417	0.81293	0.50526	0.407
Mof_C 	C 	0.32013	0.85059	0.50396	-0.119
Mof_C 	C 	0.33022	0.86765	0.46751	0.011
Mof_H 	H 	0.321	0.8553	0.443	0.037
Mof_C 	C 	0.35381	0.90287	0.46561	-0.031
Mof_C 	C 	0.36499	0.92109	0.42939	-0.022
Mof_H 	H 	0.3549	0.9105	0.4045	0.034
Mof_C 	C 	0.39069	0.95451	0.42885	-0.082
Mof_H 	H 	0.398	0.9664	0.4035	0.056
Mof_C 	C 	0.40574	0.9708	0.46439	0.039
Mof_C 	C 	0.39571	0.95316	0.50077	-0.13
Mof_H 	H 	0.4069	0.964	0.5251	0.078
Mof_C 	C 	0.36951	0.91963	0.5033	0.086
Mof_C 	C 	0.35771	0.90115	0.53978	-0.137
Mof_H 	H 	0.3662	0.913	0.5647	0.078
Mof_C 	C 	0.33477	0.8672	0.54095	0.057
Mof_H 	H 	0.3285	0.8546	0.5662	0.021
Mof_C 	C 	0.43537	0.00506	0.46429	0.046
Mof_C 	C 	0.43444	0.03488	0.49386	-0.109
Mof_H 	H 	0.4133	0.035	0.5135	0.068
Mof_O 	O 	0.21607	0.70151	0.4713	-0.486
Mof_O 	O 	0.21549	0.7003	0.53962	-0.484
Mof_C 	C 	0.20583	0.68707	0.50526	0.407
Mof_C 	C 	0.17987	0.64941	0.50396	-0.119
Mof_C 	C 	0.16978	0.63235	0.46751	0.011
Mof_H 	H 	0.179	0.6447	0.443	0.037
Mof_C 	C 	0.14619	0.59713	0.46561	-0.031
Mof_C 	C 	0.13501	0.57891	0.42939	-0.022
Mof_H 	H 	0.1451	0.5895	0.4045	0.034
Mof_C 	C 	0.10931	0.54549	0.42885	-0.082
Mof_H 	H 	0.102	0.5336	0.4035	0.056
Mof_C 	C 	0.09426	0.5292	0.46439	0.039
Mof_C 	C 	0.10429	0.54684	0.50077	-0.13
Mof_H 	H 	0.0931	0.536	0.5251	0.078
Mof_C 	C 	0.13049	0.58037	0.5033	0.086
Mof_C 	C 	0.14229	0.59885	0.53978	-0.137
Mof_H 	H 	0.1338	0.587	0.5647	0.078
Mof_C 	C 	0.16523	0.6328	0.54095	0.057
Mof_H 	H 	0.1715	0.6454	0.5662	0.021
Mof_C 	C 	0.06463	0.49494	0.46429	0.046
Mof_C 	C 	0.06556	0.46512	0.49386	-0.109
Mof_H 	H 	0.0867	0.465	0.5135	0.068
Mof_O 	O 	0.0287	0.21607	0.79849	-0.486
Mof_O 	O 	0.96038	0.21549	0.7997	-0.484
Mof_C 	C 	0.99474	0.20583	0.81293	0.407
Mof_C 	C 	0.99604	0.17987	0.85059	-0.119
Mof_C 	C 	0.03249	0.16978	0.86765	0.011
Mof_H 	H 	0.057	0.179	0.8553	0.037
Mof_C 	C 	0.03439	0.14619	0.90287	-0.031
Mof_C 	C 	0.07061	0.13501	0.92109	-0.022
Mof_H 	H 	0.0955	0.1451	0.9105	0.034
Mof_C 	C 	0.07115	0.10931	0.95451	-0.082
Mof_H 	H 	0.0965	0.102	0.9664	0.056
Mof_C 	C 	0.03561	0.09426	0.9708	0.039
Mof_C 	C 	0.99923	0.10429	0.95316	-0.13
Mof_H 	H 	0.9749	0.0931	0.964	0.078
Mof_C 	C 	0.9967	0.13049	0.91963	0.086
Mof_C 	C 	0.96022	0.14229	0.90115	-0.137
Mof_H 	H 	0.9353	0.1338	0.913	0.078
Mof_C 	C 	0.95905	0.16523	0.8672	0.057
Mof_H 	H 	0.9338	0.1715	0.8546	0.021
Mof_C 	C 	0.03571	0.06463	0.00506	0.046
Mof_C 	C 	0.00614	0.06556	0.03488	-0.109
Mof_H 	H 	0.9865	0.0867	0.035	0.068
Mof_O 	O 	0.0287	0.28393	0.70151	-0.486
Mof_O 	O 	0.96038	0.28451	0.7003	-0.484
Mof_C 	C 	0.99474	0.29417	0.68707	0.407
Mof_C 	C 	0.99604	0.32013	0.64941	-0.12
Mof_C 	C 	0.03249	0.33022	0.63235	0.011
Mof_H 	H 	0.057	0.321	0.6447	0.037
Mof_C 	C 	0.03439	0.35381	0.59713	-0.031
Mof_C 	C 	0.07061	0.36499	0.57891	-0.022
Mof_H 	H 	0.0955	0.3549	0.5895	0.034
Mof_C 	C 	0.07115	0.39069	0.54549	-0.082
Mof_H 	H 	0.0965	0.398	0.5336	0.056
Mof_C 	C 	0.03561	0.40574	0.5292	0.039
Mof_C 	C 	0.99923	0.39571	0.54684	-0.13
Mof_H 	H 	0.9749	0.4069	0.536	0.078
Mof_C 	C 	0.9967	0.36951	0.58037	0.086
Mof_C 	C 	0.96022	0.35771	0.59885	-0.137
Mof_H 	H 	0.9353	0.3662	0.587	0.078
Mof_C 	C 	0.95905	0.33477	0.6328	0.057
Mof_H 	H 	0.9338	0.3285	0.6454	0.021
Mof_C 	C 	0.03571	0.43537	0.49494	0.046
Mof_C 	C 	0.00614	0.43444	0.46512	-0.109
Mof_H 	H 	0.9865	0.4133	0.465	0.068
Mof_O 	O 	0.4713	0.28393	0.79849	-0.487
Mof_O 	O 	0.53962	0.28451	0.7997	-0.485
Mof_C 	C 	0.50526	0.29417	0.81293	0.406
Mof_C 	C 	0.50396	0.32013	0.85059	-0.12
Mof_C 	C 	0.46751	0.33022	0.86765	0.01
Mof_H 	H 	0.443	0.321	0.8553	0.036
Mof_C 	C 	0.46561	0.35381	0.90287	-0.032
Mof_C 	C 	0.42939	0.36499	0.92109	-0.023
Mof_H 	H 	0.4045	0.3549	0.9105	0.033
Mof_C 	C 	0.42885	0.39069	0.95451	-0.083
Mof_H 	H 	0.4035	0.398	0.9664	0.055
Mof_C 	C 	0.46439	0.40574	0.9708	0.038
Mof_C 	C 	0.50077	0.39571	0.95316	-0.131
Mof_H 	H 	0.5251	0.4069	0.964	0.077
Mof_C 	C 	0.5033	0.36951	0.91963	0.085
Mof_C 	C 	0.53978	0.35771	0.90115	-0.138
Mof_H 	H 	0.5647	0.3662	0.913	0.077
Mof_C 	C 	0.54095	0.33477	0.8672	0.056
Mof_H 	H 	0.5662	0.3285	0.8546	0.02
Mof_C 	C 	0.46429	0.43537	0.00506	0.045
Mof_C 	C 	0.49386	0.43444	0.03488	-0.11
Mof_H 	H 	0.5135	0.4133	0.035	0.067
Mof_O 	O 	0.4713	0.21607	0.70151	-0.487
Mof_O 	O 	0.53962	0.21549	0.7003	-0.485
Mof_C 	C 	0.50526	0.20583	0.68707	0.406
Mof_C 	C 	0.50396	0.17987	0.64941	-0.12
Mof_C 	C 	0.46751	0.16978	0.63235	0.01
Mof_H 	H 	0.443	0.179	0.6447	0.036
Mof_C 	C 	0.46561	0.14619	0.59713	-0.032
Mof_C 	C 	0.42939	0.13501	0.57891	-0.023
Mof_H 	H 	0.4045	0.1451	0.5895	0.033
Mof_C 	C 	0.42885	0.10931	0.54549	-0.083
Mof_H 	H 	0.4035	0.102	0.5336	0.055
Mof_C 	C 	0.46439	0.09426	0.5292	0.038
Mof_C 	C 	0.50077	0.10429	0.54684	-0.131
Mof_H 	H 	0.5251	0.0931	0.536	0.077
Mof_C 	C 	0.5033	0.13049	0.58037	0.085
Mof_C 	C 	0.53978	0.14229	0.59885	-0.138
Mof_H 	H 	0.5647	0.1338	0.587	0.077
Mof_C 	C 	0.54095	0.16523	0.6328	0.056
Mof_H 	H 	0.5662	0.1715	0.6454	0.02
Mof_C 	C 	0.46429	0.06463	0.49494	0.045
Mof_C 	C 	0.49386	0.06556	0.46512	-0.11
Mof_H 	H 	0.5135	0.0867	0.465	0.067
Mof_O 	O 	0.79849	0.0287	0.21607	-0.487
Mof_O 	O 	0.7997	0.96038	0.21549	-0.485
Mof_C 	C 	0.81293	0.99474	0.20583	0.406
Mof_C 	C 	0.85059	0.99604	0.17987	-0.12
Mof_C 	C 	0.86765	0.03249	0.16978	0.01
Mof_H 	H 	0.8553	0.057	0.179	0.036
Mof_C 	C 	0.90287	0.03439	0.14619	-0.032
Mof_C 	C 	0.92109	0.07061	0.13501	-0.023
Mof_H 	H 	0.9105	0.0955	0.1451	0.033
Mof_C 	C 	0.95451	0.07115	0.10931	-0.083
Mof_H 	H 	0.9664	0.0965	0.102	0.055
Mof_C 	C 	0.9708	0.03561	0.09426	0.038
Mof_C 	C 	0.95316	0.99923	0.10429	-0.131
Mof_H 	H 	0.964	0.9749	0.0931	0.077
Mof_C 	C 	0.91963	0.9967	0.13049	0.085
Mof_C 	C 	0.90115	0.96022	0.14229	-0.138
Mof_H 	H 	0.913	0.9353	0.1338	0.077
Mof_C 	C 	0.8672	0.95905	0.16523	0.056
Mof_H 	H 	0.8546	0.9338	0.1715	0.02
Mof_C 	C 	0.00506	0.03571	0.06463	0.045
Mof_C 	C 	0.03488	0.00614	0.06556	-0.11
Mof_H 	H 	0.035	0.9865	0.0867	0.067
Mof_O 	O 	0.70151	0.0287	0.28393	-0.487
Mof_O 	O 	0.7003	0.96038	0.28451	-0.485
Mof_C 	C 	0.68707	0.99474	0.29417	0.406
Mof_C 	C 	0.64941	0.99604	0.32013	-0.121
Mof_C 	C 	0.63235	0.03249	0.33022	0.01
Mof_H 	H 	0.6447	0.057	0.321	0.036
Mof_C 	C 	0.59713	0.03439	0.35381	-0.032
Mof_C 	C 	0.57891	0.07061	0.36499	-0.023
Mof_H 	H 	0.5895	0.0955	0.3549	0.033
Mof_C 	C 	0.54549	0.07115	0.39069	-0.083
Mof_H 	H 	0.5336	0.0965	0.398	0.055
Mof_C 	C 	0.5292	0.03561	0.40574	0.038
Mof_C 	C 	0.54684	0.99923	0.39571	-0.131
Mof_H 	H 	0.536	0.9749	0.4069	0.077
Mof_C 	C 	0.58037	0.9967	0.36951	0.085
Mof_C 	C 	0.59885	0.96022	0.35771	-0.138
Mof_H 	H 	0.587	0.9353	0.3662	0.077
Mof_C 	C 	0.6328	0.95905	0.33477	0.056
Mof_H 	H 	0.6454	0.9338	0.3285	0.02
Mof_C 	C 	0.49494	0.03571	0.43537	0.045
Mof_C 	C 	0.46512	0.00614	0.43444	-0.11
Mof_H 	H 	0.465	0.9865	0.4133	0.067
Mof_O 	O 	0.79849	0.4713	0.28393	-0.487
Mof_O 	O 	0.7997	0.53962	0.28451	-0.485
Mof_C 	C 	0.81293	0.50526	0.29417	0.406
Mof_C 	C 	0.85059	0.50396	0.32013	-0.12
Mof_C 	C 	0.86765	0.46751	0.33022	0.01
Mof_H 	H 	0.8553	0.443	0.321	0.036
Mof_C 	C 	0.90287	0.46561	0.35381	-0.032
Mof_C 	C 	0.92109	0.42939	0.36499	-0.023
Mof_H 	H 	0.9105	0.4045	0.3549	0.033
Mof_C 	C 	0.95451	0.42885	0.39069	-0.083
Mof_H 	H 	0.9664	0.4035	0.398	0.055
Mof_C 	C 	0.9708	0.46439	0.40574	0.038
Mof_C 	C 	0.95316	0.50077	0.39571	-0.131
Mof_H 	H 	0.964	0.5251	0.4069	0.077
Mof_C 	C 	0.91963	0.5033	0.36951	0.085
Mof_C 	C 	0.90115	0.53978	0.35771	-0.138
Mof_H 	H 	0.913	0.5647	0.3662	0.077
Mof_C 	C 	0.8672	0.54095	0.33477	0.056
Mof_H 	H 	0.8546	0.5662	0.3285	0.02
Mof_C 	C 	0.00506	0.46429	0.43537	0.045
Mof_C 	C 	0.03488	0.49386	0.43444	-0.11
Mof_H 	H 	0.035	0.5135	0.4133	0.067
Mof_O 	O 	0.70151	0.4713	0.21607	-0.487
Mof_O 	O 	0.7003	0.53962	0.21549	-0.485
Mof_C 	C 	0.68707	0.50526	0.20583	0.406
Mof_C 	C 	0.64941	0.50396	0.17987	-0.12
Mof_C 	C 	0.63235	0.46751	0.16978	0.01
Mof_H 	H 	0.6447	0.443	0.179	0.036
Mof_C 	C 	0.59713	0.46561	0.14619	-0.032
Mof_C 	C 	0.57891	0.42939	0.13501	-0.023
Mof_H 	H 	0.5895	0.4045	0.1451	0.033
Mof_C 	C 	0.54549	0.42885	0.10931	-0.083
Mof_H 	H 	0.5336	0.4035	0.102	0.055
Mof_C 	C 	0.5292	0.46439	0.09426	0.038
Mof_C 	C 	0.54684	0.50077	0.10429	-0.131
Mof_H 	H 	0.536	0.5251	0.0931	0.077
Mof_C 	C 	0.58037	0.5033	0.13049	0.085
Mof_C 	C 	0.59885	0.53978	0.14229	-0.138
Mof_H 	H 	0.587	0.5647	0.1338	0.077
Mof_C 	C 	0.6328	0.54095	0.16523	0.056
Mof_H 	H 	0.6454	0.5662	0.1715	0.02
Mof_C 	C 	0.49494	0.46429	0.06463	0.045
Mof_C 	C 	0.46512	0.49386	0.06556	-0.11
Mof_H 	H 	0.465	0.5135	0.0867	0.067
Mof_O 	O 	0.20151	0.78393	0.5287	-0.487
Mof_O 	O 	0.2003	0.78451	0.46038	-0.485
Mof_C 	C 	0.18707	0.79417	0.49474	0.406
Mof_C 	C 	0.14941	0.82013	0.49604	-0.12
Mof_C 	C 	0.13235	0.83022	0.53249	0.01
Mof_H 	H 	0.1447	0.821	0.557	0.036
Mof_C 	C 	0.09713	0.85381	0.53439	-0.032
Mof_C 	C 	0.07891	0.86499	0.57061	-0.023
Mof_H 	H 	0.0895	0.8549	0.5955	0.033
Mof_C 	C 	0.04549	0.89069	0.57115	-0.083
Mof_H 	H 	0.0336	0.898	0.5965	0.055
Mof_C 	C 	0.0292	0.90574	0.53561	0.038
Mof_C 	C 	0.04684	0.89571	0.49923	-0.131
Mof_H 	H 	0.036	0.9069	0.4749	0.077
Mof_C 	C 	0.08037	0.86951	0.4967	0.085
Mof_C 	C 	0.09885	0.85771	0.46022	-0.138
Mof_H 	H 	0.087	0.8662	0.4353	0.077
Mof_C 	C 	0.1328	0.83477	0.45905	0.056
Mof_H 	H 	0.1454	0.8285	0.4338	0.02
Mof_C 	C 	0.99494	0.93537	0.53571	0.045
Mof_C 	C 	0.96512	0.93444	0.50614	-0.11
Mof_H 	H 	0.965	0.9133	0.4865	0.067
Mof_O 	O 	0.29849	0.71607	0.5287	-0.487
Mof_O 	O 	0.2997	0.71549	0.46038	-0.485
Mof_C 	C 	0.31293	0.70583	0.49474	0.406
Mof_C 	C 	0.35059	0.67987	0.49604	-0.12
Mof_C 	C 	0.36765	0.66978	0.53249	0.01
Mof_H 	H 	0.3553	0.679	0.557	0.036
Mof_C 	C 	0.40287	0.64619	0.53439	-0.032
Mof_C 	C 	0.42109	0.63501	0.57061	-0.023
Mof_H 	H 	0.4105	0.6451	0.5955	0.033
Mof_C 	C 	0.45451	0.60931	0.57115	-0.083
Mof_H 	H 	0.4664	0.602	0.5965	0.055
Mof_C 	C 	0.4708	0.59426	0.53561	0.038
Mof_C 	C 	0.45316	0.60429	0.49923	-0.131
Mof_H 	H 	0.464	0.5931	0.4749	0.077
Mof_C 	C 	0.41963	0.63049	0.4967	0.085
Mof_C 	C 	0.40115	0.64229	0.46022	-0.138
Mof_H 	H 	0.413	0.6338	0.4353	0.077
Mof_C 	C 	0.3672	0.66523	0.45905	0.056
Mof_H 	H 	0.3546	0.6715	0.4338	0.02
Mof_C 	C 	0.50506	0.56463	0.53571	0.045
Mof_C 	C 	0.53488	0.56556	0.50614	-0.11
Mof_H 	H 	0.535	0.5867	0.4865	0.067
Mof_O 	O 	0.20151	0.71607	0.9713	-0.487
Mof_O 	O 	0.2003	0.71549	0.03962	-0.485
Mof_C 	C 	0.18707	0.70583	0.00526	0.406
Mof_C 	C 	0.14941	0.67987	0.00396	-0.12
Mof_C 	C 	0.13235	0.66978	0.96751	0.01
Mof_H 	H 	0.1447	0.679	0.943	0.036
Mof_C 	C 	0.09713	0.64619	0.96561	-0.032
Mof_C 	C 	0.07891	0.63501	0.92939	-0.023
Mof_H 	H 	0.0895	0.6451	0.9045	0.033
Mof_C 	C 	0.04549	0.60931	0.92885	-0.083
Mof_H 	H 	0.0336	0.602	0.9035	0.055
Mof_C 	C 	0.0292	0.59426	0.96439	0.038
Mof_C 	C 	0.04684	0.60429	0.00077	-0.131
Mof_H 	H 	0.036	0.5931	0.0251	0.077
Mof_C 	C 	0.08037	0.63049	0.0033	0.085
Mof_C 	C 	0.09885	0.64229	0.03978	-0.138
Mof_H 	H 	0.087	0.6338	0.0647	0.077
Mof_C 	C 	0.1328	0.66523	0.04095	0.056
Mof_H 	H 	0.1454	0.6715	0.0662	0.02
Mof_C 	C 	0.99494	0.56463	0.96429	0.045
Mof_C 	C 	0.96512	0.56556	0.99386	-0.11
Mof_H 	H 	0.965	0.5867	0.0135	0.067
Mof_O 	O 	0.29849	0.78393	0.9713	-0.487
Mof_O 	O 	0.2997	0.78451	0.03962	-0.485
Mof_C 	C 	0.31293	0.79417	0.00526	0.406
Mof_C 	C 	0.35059	0.82013	0.00396	-0.121
Mof_C 	C 	0.36765	0.83022	0.96751	0.01
Mof_H 	H 	0.3553	0.821	0.943	0.036
Mof_C 	C 	0.40287	0.85381	0.96561	-0.032
Mof_C 	C 	0.42109	0.86499	0.92939	-0.023
Mof_H 	H 	0.4105	0.8549	0.9045	0.033
Mof_C 	C 	0.45451	0.89069	0.92885	-0.083
Mof_H 	H 	0.4664	0.898	0.9035	0.055
Mof_C 	C 	0.4708	0.90574	0.96439	0.038
Mof_C 	C 	0.45316	0.89571	0.00077	-0.131
Mof_H 	H 	0.464	0.9069	0.0251	0.077
Mof_C 	C 	0.41963	0.86951	0.0033	0.085
Mof_C 	C 	0.40115	0.85771	0.03978	-0.138
Mof_H 	H 	0.413	0.8662	0.0647	0.077
Mof_C 	C 	0.3672	0.83477	0.04095	0.056
Mof_H 	H 	0.3546	0.8285	0.0662	0.02
Mof_C 	C 	0.50506	0.93537	0.96429	0.045
Mof_C 	C 	0.53488	0.93444	0.99386	-0.11
Mof_H 	H 	0.535	0.9133	0.0135	0.067
Mof_O 	O 	0.78393	0.9713	0.29849	-0.487
Mof_O 	O 	0.78451	0.03962	0.2997	-0.485
Mof_C 	C 	0.79417	0.00526	0.31293	0.406
Mof_C 	C 	0.82013	0.00396	0.35059	-0.121
Mof_C 	C 	0.83022	0.96751	0.36765	0.01
Mof_H 	H 	0.821	0.943	0.3553	0.036
Mof_C 	C 	0.85381	0.96561	0.40287	-0.032
Mof_C 	C 	0.86499	0.92939	0.42109	-0.023
Mof_H 	H 	0.8549	0.9045	0.4105	0.033
Mof_C 	C 	0.89069	0.92885	0.45451	-0.083
Mof_H 	H 	0.898	0.9035	0.4664	0.055
Mof_C 	C 	0.90574	0.96439	0.4708	0.038
Mof_C 	C 	0.89571	0.00077	0.45316	-0.131
Mof_H 	H 	0.9069	0.0251	0.464	0.077
Mof_C 	C 	0.86951	0.0033	0.41963	0.085
Mof_C 	C 	0.85771	0.03978	0.40115	-0.138
Mof_H 	H 	0.8662	0.0647	0.413	0.077
Mof_C 	C 	0.83477	0.04095	0.3672	0.056
Mof_H 	H 	0.8285	0.0662	0.3546	0.02
Mof_C 	C 	0.93537	0.96429	0.50506	0.045
Mof_C 	C 	0.93444	0.99386	0.53488	-0.11
Mof_H 	H 	0.9133	0.0135	0.535	0.067
Mof_O 	O 	0.71607	0.9713	0.20151	-0.487
Mof_O 	O 	0.71549	0.03962	0.2003	-0.485
Mof_C 	C 	0.70583	0.00526	0.18707	0.406
Mof_C 	C 	0.67987	0.00396	0.14941	-0.12
Mof_C 	C 	0.66978	0.96751	0.13235	0.01
Mof_H 	H 	0.679	0.943	0.1447	0.036
Mof_C 	C 	0.64619	0.96561	0.09713	-0.032
Mof_C 	C 	0.63501	0.92939	0.07891	-0.023
Mof_H 	H 	0.6451	0.9045	0.0895	0.033
Mof_C 	C 	0.60931	0.92885	0.04549	-0.083
Mof_H 	H 	0.602	0.9035	0.0336	0.055
Mof_C 	C 	0.59426	0.96439	0.0292	0.038
Mof_C 	C 	0.60429	0.00077	0.04684	-0.131
Mof_H 	H 	0.5931	0.0251	0.036	0.077
Mof_C 	C 	0.63049	0.0033	0.08037	0.085
Mof_C 	C 	0.64229	0.03978	0.09885	-0.138
Mof_H 	H 	0.6338	0.0647	0.087	0.077
Mof_C 	C 	0.66523	0.04095	0.1328	0.056
Mof_H 	H 	0.6715	0.0662	0.1454	0.02
Mof_C 	C 	0.56463	0.96429	0.99494	0.045
Mof_C 	C 	0.56556	0.99386	0.96512	-0.11
Mof_H 	H 	0.5867	0.0135	0.965	0.067
Mof_O 	O 	0.71607	0.5287	0.29849	-0.487
Mof_O 	O 	0.71549	0.46038	0.2997	-0.485
Mof_C 	C 	0.70583	0.49474	0.31293	0.406
Mof_C 	C 	0.67987	0.49604	0.35059	-0.12
Mof_C 	C 	0.66978	0.53249	0.36765	0.01
Mof_H 	H 	0.679	0.557	0.3553	0.036
Mof_C 	C 	0.64619	0.53439	0.40287	-0.032
Mof_C 	C 	0.63501	0.57061	0.42109	-0.023
Mof_H 	H 	0.6451	0.5955	0.4105	0.033
Mof_C 	C 	0.60931	0.57115	0.45451	-0.083
Mof_H 	H 	0.602	0.5965	0.4664	0.055
Mof_C 	C 	0.59426	0.53561	0.4708	0.038
Mof_C 	C 	0.60429	0.49923	0.45316	-0.131
Mof_H 	H 	0.5931	0.4749	0.464	0.077
Mof_C 	C 	0.63049	0.4967	0.41963	0.085
Mof_C 	C 	0.64229	0.46022	0.40115	-0.138
Mof_H 	H 	0.6338	0.4353	0.413	0.077
Mof_C 	C 	0.66523	0.45905	0.3672	0.056
Mof_H 	H 	0.6715	0.4338	0.3546	0.02
Mof_C 	C 	0.56463	0.53571	0.50506	0.045
Mof_C 	C 	0.56556	0.50614	0.53488	-0.11
Mof_H 	H 	0.5867	0.4865	0.535	0.067
Mof_O 	O 	0.78393	0.5287	0.20151	-0.487
Mof_O 	O 	0.78451	0.46038	0.2003	-0.485
Mof_C 	C 	0.79417	0.49474	0.18707	0.406
Mof_C 	C 	0.82013	0.49604	0.14941	-0.12
Mof_C 	C 	0.83022	0.53249	0.13235	0.01
Mof_H 	H 	0.821	0.557	0.1447	0.036
Mof_C 	C 	0.85381	0.53439	0.09713	-0.032
Mof_C 	C 	0.86499	0.57061	0.07891	-0.023
Mof_H 	H 	0.8549	0.5955	0.0895	0.033
Mof_C 	C 	0.89069	0.57115	0.04549	-0.083
Mof_H 	H 	0.898	0.5965	0.0336	0.055
Mof_C 	C 	0.90574	0.53561	0.0292	0.038
Mof_C 	C 	0.89571	0.49923	0.04684	-0.131
Mof_H 	H 	0.9069	0.4749	0.036	0.077
Mof_C 	C 	0.86951	0.4967	0.08037	0.085
Mof_C 	C 	0.85771	0.46022	0.09885	-0.138
Mof_H 	H 	0.8662	0.4353	0.087	0.077
Mof_C 	C 	0.83477	0.45905	0.1328	0.056
Mof_H 	H 	0.8285	0.4338	0.1454	0.02
Mof_C 	C 	0.93537	0.53571	0.99494	0.045
Mof_C 	C 	0.93444	0.50614	0.96512	-0.11
Mof_H 	H 	0.9133	0.4865	0.965	0.067
Mof_O 	O 	0.9713	0.20151	0.71607	-0.487
Mof_O 	O 	0.03962	0.2003	0.71549	-0.485
Mof_C 	C 	0.00526	0.18707	0.70583	0.406
Mof_C 	C 	0.00396	0.14941	0.67987	-0.12
Mof_C 	C 	0.96751	0.13235	0.66978	0.01
Mof_H 	H 	0.943	0.1447	0.679	0.036
Mof_C 	C 	0.96561	0.09713	0.64619	-0.032
Mof_C 	C 	0.92939	0.07891	0.63501	-0.023
Mof_H 	H 	0.9045	0.0895	0.6451	0.033
Mof_C 	C 	0.92885	0.04549	0.60931	-0.083
Mof_H 	H 	0.9035	0.0336	0.602	0.055
Mof_C 	C 	0.96439	0.0292	0.59426	0.038
Mof_C 	C 	0.00077	0.04684	0.60429	-0.131
Mof_H 	H 	0.0251	0.036	0.5931	0.077
Mof_C 	C 	0.0033	0.08037	0.63049	0.085
Mof_C 	C 	0.03978	0.09885	0.64229	-0.138
Mof_H 	H 	0.0647	0.087	0.6338	0.077
Mof_C 	C 	0.04095	0.1328	0.66523	0.056
Mof_H 	H 	0.0662	0.1454	0.6715	0.02
Mof_C 	C 	0.96429	0.99494	0.56463	0.045
Mof_C 	C 	0.99386	0.96512	0.56556	-0.11
Mof_H 	H 	0.0135	0.965	0.5867	0.067
Mof_O 	O 	0.9713	0.29849	0.78393	-0.487
Mof_O 	O 	0.03962	0.2997	0.78451	-0.485
Mof_C 	C 	0.00526	0.31293	0.79417	0.406
Mof_C 	C 	0.00396	0.35059	0.82013	-0.121
Mof_C 	C 	0.96751	0.36765	0.83022	0.01
Mof_H 	H 	0.943	0.3553	0.821	0.036
Mof_C 	C 	0.96561	0.40287	0.85381	-0.032
Mof_C 	C 	0.92939	0.42109	0.86499	-0.023
Mof_H 	H 	0.9045	0.4105	0.8549	0.033
Mof_C 	C 	0.92885	0.45451	0.89069	-0.083
Mof_H 	H 	0.9035	0.4664	0.898	0.055
Mof_C 	C 	0.96439	0.4708	0.90574	0.038
Mof_C 	C 	0.00077	0.45316	0.89571	-0.131
Mof_H 	H 	0.0251	0.464	0.9069	0.077
Mof_C 	C 	0.0033	0.41963	0.86951	0.085
Mof_C 	C 	0.03978	0.40115	0.85771	-0.138
Mof_H 	H 	0.0647	0.413	0.8662	0.077
Mof_C 	C 	0.04095	0.3672	0.83477	0.056
Mof_H 	H 	0.0662	0.3546	0.8285	0.02
Mof_C 	C 	0.96429	0.50506	0.93537	0.045
Mof_C 	C 	0.99386	0.53488	0.93444	-0.11
Mof_H 	H 	0.0135	0.535	0.9133	0.067
Mof_O 	O 	0.5287	0.20151	0.78393	-0.487
Mof_O 	O 	0.46038	0.2003	0.78451	-0.485
Mof_C 	C 	0.49474	0.18707	0.79417	0.406
Mof_C 	C 	0.49604	0.14941	0.82013	-0.12
Mof_C 	C 	0.53249	0.13235	0.83022	0.01
Mof_H 	H 	0.557	0.1447	0.821	0.036
Mof_C 	C 	0.53439	0.09713	0.85381	-0.032
Mof_C 	C 	0.57061	0.07891	0.86499	-0.023
Mof_H 	H 	0.5955	0.0895	0.8549	0.033
Mof_C 	C 	0.57115	0.04549	0.89069	-0.083
Mof_H 	H 	0.5965	0.0336	0.898	0.055
Mof_C 	C 	0.53561	0.0292	0.90574	0.038
Mof_C 	C 	0.49923	0.04684	0.89571	-0.131
Mof_H 	H 	0.4749	0.036	0.9069	0.077
Mof_C 	C 	0.4967	0.08037	0.86951	0.085
Mof_C 	C 	0.46022	0.09885	0.85771	-0.138
Mof_H 	H 	0.4353	0.087	0.8662	0.077
Mof_C 	C 	0.45905	0.1328	0.83477	0.056
Mof_H 	H 	0.4338	0.1454	0.8285	0.02
Mof_C 	C 	0.53571	0.99494	0.93537	0.045
Mof_C 	C 	0.50614	0.96512	0.93444	-0.11
Mof_H 	H 	0.4865	0.965	0.9133	0.067
Mof_O 	O 	0.5287	0.29849	0.71607	-0.487
Mof_O 	O 	0.46038	0.2997	0.71549	-0.485
Mof_C 	C 	0.49474	0.31293	0.70583	0.406
Mof_C 	C 	0.49604	0.35059	0.67987	-0.12
Mof_C 	C 	0.53249	0.36765	0.66978	0.01
Mof_H 	H 	0.557	0.3553	0.679	0.036
Mof_C 	C 	0.53439	0.40287	0.64619	-0.032
Mof_C 	C 	0.57061	0.42109	0.63501	-0.023
Mof_H 	H 	0.5955	0.4105	0.6451	0.033
Mof_C 	C 	0.57115	0.45451	0.60931	-0.083
Mof_H 	H 	0.5965	0.4664	0.602	0.055
Mof_C 	C 	0.53561	0.4708	0.59426	0.038
Mof_C 	C 	0.49923	0.45316	0.60429	-0.131
Mof_H 	H 	0.4749	0.464	0.5931	0.077
Mof_C 	C 	0.4967	0.41963	0.63049	0.085
Mof_C 	C 	0.46022	0.40115	0.64229	-0.138
Mof_H 	H 	0.4353	0.413	0.6338	0.077
Mof_C 	C 	0.45905	0.3672	0.66523	0.056
Mof_H 	H 	0.4338	0.3546	0.6715	0.02
Mof_C 	C 	0.53571	0.50506	0.56463	0.045
Mof_C 	C 	0.50614	0.53488	0.56556	-0.11
Mof_H 	H 	0.4865	0.535	0.5867	0.067
Mof_Zn	Zn	0.25	0.75	0.04588	1.203
Mof_Zn	Zn	0.25	0.75	0.45412	1.203
Mof_Zn	Zn	0.04588	0.25	0.75	1.203
Mof_Zn	Zn	0.45412	0.25	0.75	1.203
Mof_Zn	Zn	0.75	0.04588	0.25	1.203
Mof_Zn	Zn	0.75	0.45412	0.25	1.203
Mof_Zn	Zn	0.25	0.75	0.54588	1.203
Mof_Zn	Zn	0.25	0.75	0.95412	1.203
Mof_Zn	Zn	0.75	0.95412	0.25	1.203
Mof_Zn	Zn	0.75	0.54588	0.25	1.203
Mof_Zn	Zn	0.95412	0.25	0.75	1.203
Mof_Zn	Zn	0.54588	0.25	0.75	1.203
Mof_O 	O 	0.79849	0.21607	0.4713	-0.487
Mof_O 	O 	0.7997	0.21549	0.53962	-0.485
Mof_C 	C 	0.81293	0.20583	0.50526	0.406
Mof_C 	C 	0.85059	0.17987	0.50396	-0.12
Mof_C 	C 	0.86765	0.16978	0.46751	0.01
Mof_H 	H 	0.8553	0.179	0.443	0.036
Mof_C 	C 	0.90287	0.14619	0.46561	-0.032
Mof_C 	C 	0.92109	0.13501	0.42939	-0.023
Mof_H 	H 	0.9105	0.1451	0.4045	0.033
Mof_C 	C 	0.95451	0.10931	0.42885	-0.083
Mof_H 	H 	0.9664	0.102	0.4035	0.055
Mof_C 	C 	0.9708	0.09426	0.46439	0.038
Mof_C 	C 	0.95316	0.10429	0.50077	-0.131
Mof_H 	H 	0.964	0.0931	0.5251	0.077
Mof_C 	C 	0.91963	0.13049	0.5033	0.085
Mof_C 	C 	0.90115	0.14229	0.53978	-0.138
Mof_H 	H 	0.913	0.1338	0.5647	0.077
Mof_C 	C 	0.8672	0.16523	0.54095	0.056
Mof_H 	H 	0.8546	0.1715	0.5662	0.02
Mof_C 	C 	0.00506	0.06463	0.46429	0.045
Mof_C 	C 	0.03488	0.06556	0.49386	-0.11
Mof_H 	H 	0.035	0.0867	0.5135	0.067
Mof_O 	O 	0.70151	0.28393	0.4713	-0.487
Mof_O 	O 	0.7003	0.28451	0.53962	-0.485
Mof_C 	C 	0.68707	0.29417	0.50526	0.406
Mof_C 	C 	0.64941	0.32013	0.50396	-0.12
Mof_C 	C 	0.63235	0.33022	0.46751	0.01
Mof_H 	H 	0.6447	0.321	0.443	0.036
Mof_C 	C 	0.59713	0.35381	0.46561	-0.032
Mof_C 	C 	0.57891	0.36499	0.42939	-0.023
Mof_H 	H 	0.5895	0.3549	0.4045	0.033
Mof_C 	C 	0.54549	0.39069	0.42885	-0.083
Mof_H 	H 	0.5336	0.398	0.4035	0.055
Mof_C 	C 	0.5292	0.40574	0.46439	0.038
Mof_C 	C 	0.54684	0.39571	0.50077	-0.131
Mof_H 	H 	0.536	0.4069	0.5251	0.077
Mof_C 	C 	0.58037	0.36951	0.5033	0.085
Mof_C 	C 	0.59885	0.35771	0.53978	-0.138
Mof_H 	H 	0.587	0.3662	0.5647	0.077
Mof_C 	C 	0.6328	0.33477	0.54095	0.056
Mof_H 	H 	0.6454	0.3285	0.5662	0.02
Mof_C 	C 	0.49494	0.43537	0.46429	0.045
Mof_C 	C 	0.46512	0.43444	0.49386	-0.11
Mof_H 	H 	0.465	0.4133	0.5135	0.067
Mof_O 	O 	0.79849	0.28393	0.0287	-0.487
Mof_O 	O 	0.7997	0.28451	0.96038	-0.485
Mof_C 	C 	0.81293	0.29417	0.99474	0.406
Mof_C 	C 	0.85059	0.32013	0.99604	-0.12
Mof_C 	C 	0.86765	0.33022	0.03249	0.01
Mof_H 	H 	0.8553	0.321	0.057	0.036
Mof_C 	C 	0.90287	0.35381	0.03439	-0.032
Mof_C 	C 	0.92109	0.36499	0.07061	-0.023
Mof_H 	H 	0.9105	0.3549	0.0955	0.033
Mof_C 	C 	0.95451	0.39069	0.07115	-0.083
Mof_H 	H 	0.9664	0.398	0.0965	0.055
Mof_C 	C 	0.9708	0.40574	0.03561	0.038
Mof_C 	C 	0.95316	0.39571	0.99923	-0.131
Mof_H 	H 	0.964	0.4069	0.9749	0.077
Mof_C 	C 	0.91963	0.36951	0.9967	0.085
Mof_C 	C 	0.90115	0.35771	0.96022	-0.138
Mof_H 	H 	0.913	0.3662	0.9353	0.077
Mof_C 	C 	0.8672	0.33477	0.95905	0.056
Mof_H 	H 	0.8546	0.3285	0.9338	0.02
Mof_C 	C 	0.00506	0.43537	0.03571	0.045
Mof_C 	C 	0.03488	0.43444	0.00614	-0.11
Mof_H 	H 	0.035	0.4133	0.9865	0.067
Mof_O 	O 	0.70151	0.21607	0.0287	-0.487
Mof_O 	O 	0.7003	0.21549	0.96038	-0.485
Mof_C 	C 	0.68707	0.20583	0.99474	0.406
Mof_C 	C 	0.64941	0.17987	0.99604	-0.121
Mof_C 	C 	0.63235	0.16978	0.03249	0.01
Mof_H 	H 	0.6447	0.179	0.057	0.036
Mof_C 	C 	0.59713	0.14619	0.03439	-0.032
Mof_C 	C 	0.57891	0.13501	0.07061	-0.023
Mof_H 	H 	0.5895	0.1451	0.0955	0.033
Mof_C 	C 	0.54549	0.10931	0.07115	-0.083
Mof_H 	H 	0.5336	0.102	0.0965	0.055
Mof_C 	C 	0.5292	0.09426	0.03561	0.038
Mof_C 	C 	0.54684	0.10429	0.99923	-0.131
Mof_H 	H 	0.536	0.0931	0.9749	0.077
Mof_C 	C 	0.58037	0.13049	0.9967	0.085
Mof_C 	C 	0.59885	0.14229	0.96022	-0.138
Mof_H 	H 	0.587	0.1338	0.9353	0.077
Mof_C 	C 	0.6328	0.16523	0.95905	0.056
Mof_H 	H 	0.6454	0.1715	0.9338	0.02
Mof_C 	C 	0.49494	0.06463	0.03571	0.045
Mof_C 	C 	0.46512	0.06556	0.00614	-0.11
Mof_H 	H 	0.465	0.0867	0.9865	0.067
Mof_O 	O 	0.21607	0.0287	0.70151	-0.487
Mof_O 	O 	0.21549	0.96038	0.7003	-0.485
Mof_C 	C 	0.20583	0.99474	0.68707	0.406
Mof_C 	C 	0.17987	0.99604	0.64941	-0.121
Mof_C 	C 	0.16978	0.03249	0.63235	0.01
Mof_H 	H 	0.179	0.057	0.6447	0.036
Mof_C 	C 	0.14619	0.03439	0.59713	-0.032
Mof_C 	C 	0.13501	0.07061	0.57891	-0.023
Mof_H 	H 	0.1451	0.0955	0.5895	0.033
Mof_C 	C 	0.10931	0.07115	0.54549	-0.083
Mof_H 	H 	0.102	0.0965	0.5336	0.055
Mof_C 	C 	0.09426	0.03561	0.5292	0.038
Mof_C 	C 	0.10429	0.99923	0.54684	-0.131
Mof_H 	H 	0.0931	0.9749	0.536	0.077
Mof_C 	C 	0.13049	0.9967	0.58037	0.085
Mof_C 	C 	0.14229	0.96022	0.59885	-0.138
Mof_H 	H 	0.1338	0.9353	0.587	0.077
Mof_C 	C 	0.16523	0.95905	0.6328	0.056
Mof_H 	H 	0.1715	0.9338	0.6454	0.02
Mof_C 	C 	0.06463	0.03571	0.49494	0.045
Mof_C 	C 	0.06556	0.00614	0.46512	-0.11
Mof_H 	H 	0.0867	0.9865	0.465	0.067
Mof_O 	O 	0.28393	0.0287	0.79849	-0.487
Mof_O 	O 	0.28451	0.96038	0.7997	-0.485
Mof_C 	C 	0.29417	0.99474	0.81293	0.406
Mof_C 	C 	0.32013	0.99604	0.85059	-0.12
Mof_C 	C 	0.33022	0.03249	0.86765	0.01
Mof_H 	H 	0.321	0.057	0.8553	0.036
Mof_C 	C 	0.35381	0.03439	0.90287	-0.032
Mof_C 	C 	0.36499	0.07061	0.92109	-0.023
Mof_H 	H 	0.3549	0.0955	0.9105	0.033
Mof_C 	C 	0.39069	0.07115	0.95451	-0.083
Mof_H 	H 	0.398	0.0965	0.9664	0.055
Mof_C 	C 	0.40574	0.03561	0.9708	0.038
Mof_C 	C 	0.39571	0.99923	0.95316	-0.131
Mof_H 	H 	0.4069	0.9749	0.964	0.077
Mof_C 	C 	0.36951	0.9967	0.91963	0.085
Mof_C 	C 	0.35771	0.96022	0.90115	-0.138
Mof_H 	H 	0.3662	0.9353	0.913	0.077
Mof_C 	C 	0.33477	0.95905	0.8672	0.056
Mof_H 	H 	0.3285	0.9338	0.8546	0.02
Mof_C 	C 	0.43537	0.03571	0.00506	0.045
Mof_C 	C 	0.43444	0.00614	0.03488	-0.11
Mof_H 	H 	0.4133	0.9865	0.035	0.067
Mof_O 	O 	0.28393	0.4713	0.70151	-0.487
Mof_O 	O 	0.28451	0.53962	0.7003	-0.485
Mof_C 	C 	0.29417	0.50526	0.68707	0.406
Mof_C 	C 	0.32013	0.50396	0.64941	-0.12
Mof_C 	C 	0.33022	0.46751	0.63235	0.01
Mof_H 	H 	0.321	0.443	0.6447	0.036
Mof_C 	C 	0.35381	0.46561	0.59713	-0.032
Mof_C 	C 	0.36499	0.42939	0.57891	-0.023
Mof_H 	H 	0.3549	0.4045	0.5895	0.033
Mof_C 	C 	0.39069	0.42885	0.54549	-0.083
Mof_H 	H 	0.398	0.4035	0.5336	0.055
Mof_C 	C 	0.40574	0.46439	0.5292	0.038
Mof_C 	C 	0.39571	0.50077	0.54684	-0.131
Mof_H 	H 	0.4069	0.5251	0.536	0.077
Mof_C 	C 	0.36951	0.5033	0.58037	0.085
Mof_C 	C 	0.35771	0.53978	0.59885	-0.138
Mof_H 	H 	0.3662	0.5647	0.587	0.077
Mof_C 	C 	0.33477	0.54095	0.6328	0.056
Mof_H 	H 	0.3285	0.5662	0.6454	0.02
Mof_C 	C 	0.43537	0.46429	0.49494	0.045
Mof_C 	C 	0.43444	0.49386	0.46512	-0.11
Mof_H 	H 	0.4133	0.5135	0.465	0.067
Mof_O 	O 	0.21607	0.4713	0.79849	-0.487
Mof_O 	O 	0.21549	0.53962	0.7997	-0.485
Mof_C 	C 	0.20583	0.50526	0.81293	0.406
Mof_C 	C 	0.17987	0.50396	0.85059	-0.12
Mof_C 	C 	0.16978	0.46751	0.86765	0.01
Mof_H 	H 	0.179	0.443	0.8553	0.036
Mof_C 	C 	0.14619	0.46561	0.90287	-0.032
Mof_C 	C 	0.13501	0.42939	0.92109	-0.023
Mof_H 	H 	0.1451	0.4045	0.9105	0.033
Mof_C 	C 	0.10931	0.42885	0.95451	-0.083
Mof_H 	H 	0.102	0.4035	0.9664	0.055
Mof_C 	C 	0.09426	0.46439	0.9708	0.038
Mof_C 	C 	0.10429	0.50077	0.95316	-0.131
Mof_H 	H 	0.0931	0.5251	0.964	0.077
Mof_C 	C 	0.13049	0.5033	0.91963	0.085
Mof_C 	C 	0.14229	0.53978	0.90115	-0.138
Mof_H 	H 	0.1338	0.5647	0.913	0.077
Mof_C 	C 	0.16523	0.54095	0.8672	0.056
Mof_H 	H 	0.1715	0.5662	0.8546	0.02
Mof_C 	C 	0.06463	0.46429	0.00506	0.045
Mof_C 	C 	0.06556	0.49386	0.03488	-0.11
Mof_H 	H 	0.0867	0.5135	0.035	0.067
Mof_O 	O 	0.0287	0.79849	0.28393	-0.487
Mof_O 	O 	0.96038	0.7997	0.28451	-0.485
Mof_C 	C 	0.99474	0.81293	0.29417	0.406
Mof_C 	C 	0.99604	0.85059	0.32013	-0.12
Mof_C 	C 	0.03249	0.86765	0.33022	0.01
Mof_H 	H 	0.057	0.8553	0.321	0.036
Mof_C 	C 	0.03439	0.90287	0.35381	-0.032
Mof_C 	C 	0.07061	0.92109	0.36499	-0.023
Mof_H 	H 	0.0955	0.9105	0.3549	0.033
Mof_C 	C 	0.07115	0.95451	0.39069	-0.083
Mof_H 	H 	0.0965	0.9664	0.398	0.055
Mof_C 	C 	0.03561	0.9708	0.40574	0.038
Mof_C 	C 	0.99923	0.95316	0.39571	-0.131
Mof_H 	H 	0.9749	0.964	0.4069	0.077
Mof_C 	C 	0.9967	0.91963	0.36951	0.085
Mof_C 	C 	0.96022	0.90115	0.35771	-0.138
Mof_H 	H 	0.9353	0.913	0.3662	0.077
Mof_C 	C 	0.95905	0.8672	0.33477	0.056
Mof_H 	H 	0.9338	0.8546	0.3285	0.02
Mof_C 	C 	0.03571	0.00506	0.43537	0.045
Mof_C 	C 	0.00614	0.03488	0.43444	-0.11
Mof_H 	H 	0.9865	0.035	0.4133	0.067
Mof_O 	O 	0.0287	0.70151	0.21607	-0.487
Mof_O 	O 	0.96038	0.7003	0.21549	-0.485
Mof_C 	C 	0.99474	0.68707	0.20583	0.406
Mof_C 	C 	0.99604	0.64941	0.17987	-0.121
Mof_C 	C 	0.03249	0.63235	0.16978	0.01
Mof_H 	H 	0.057	0.6447	0.179	0.036
Mof_C 	C 	0.03439	0.59713	0.14619	-0.032
Mof_C 	C 	0.07061	0.57891	0.13501	-0.023
Mof_H 	H 	0.0955	0.5895	0.1451	0.033
Mof_C 	C 	0.07115	0.54549	0.10931	-0.083
Mof_H 	H 	0.0965	0.5336	0.102	0.055
Mof_C 	C 	0.03561	0.5292	0.09426	0.038
Mof_C 	C 	0.99923	0.54684	0.10429	-0.131
Mof_H 	H 	0.9749	0.536	0.0931	0.077
Mof_C 	C 	0.9967	0.58037	0.13049	0.085
Mof_C 	C 	0.96022	0.59885	0.14229	-0.138
Mof_H 	H 	0.9353	0.587	0.1338	0.077
Mof_C 	C 	0.95905	0.6328	0.16523	0.056
Mof_H 	H 	0.9338	0.6454	0.1715	0.02
Mof_C 	C 	0.03571	0.49494	0.06463	0.045
Mof_C 	C 	0.00614	0.46512	0.06556	-0.11
Mof_H 	H 	0.9865	0.465	0.0867	0.067
Mof_O 	O 	0.4713	0.79849	0.21607	-0.487
Mof_O 	O 	0.53962	0.7997	0.21549	-0.485
Mof_C 	C 	0.50526	0.81293	0.20583	0.406
Mof_C 	C 	0.50396	0.85059	0.17987	-0.12
Mof_C 	C 	0.46751	0.86765	0.16978	0.01
Mof_H 	H 	0.443	0.8553	0.179	0.036
Mof_C 	C 	0.46561	0.90287	0.14619	-0.032
Mof_C 	C 	0.42939	0.92109	0.13501	-0.023
Mof_H 	H 	0.4045	0.9105	0.1451	0.033
Mof_C 	C 	0.42885	0.95451	0.10931	-0.083
Mof_H 	H 	0.4035	0.9664	0.102	0.055
Mof_C 	C 	0.46439	0.9708	0.09426	0.038
Mof_C 	C 	0.50077	0.95316	0.10429	-0.131
Mof_H 	H 	0.5251	0.964	0.0931	0.077
Mof_C 	C 	0.5033	0.91963	0.13049	0.085
Mof_C 	C 	0.53978	0.90115	0.14229	-0.138
Mof_H 	H 	0.5647	0.913	0.1338	0.077
Mof_C 	C 	0.54095	0.8672	0.16523	0.056
Mof_H 	H 	0.5662	0.8546	0.1715	0.02
Mof_C 	C 	0.46429	0.00506	0.06463	0.045
Mof_C 	C 	0.49386	0.03488	0.06556	-0.11
Mof_H 	H 	0.5135	0.035	0.0867	0.067
Mof_O 	O 	0.4713	0.70151	0.28393	-0.487
Mof_O 	O 	0.53962	0.7003	0.28451	-0.485
Mof_C 	C 	0.50526	0.68707	0.29417	0.406
Mof_C 	C 	0.50396	0.64941	0.32013	-0.12
Mof_C 	C 	0.46751	0.63235	0.33022	0.01
Mof_H 	H 	0.443	0.6447	0.321	0.036
Mof_C 	C 	0.46561	0.59713	0.35381	-0.032
Mof_C 	C 	0.42939	0.57891	0.36499	-0.023
Mof_H 	H 	0.4045	0.5895	0.3549	0.033
Mof_C 	C 	0.42885	0.54549	0.39069	-0.083
Mof_H 	H 	0.4035	0.5336	0.398	0.055
Mof_C 	C 	0.46439	0.5292	0.40574	0.038
Mof_C 	C 	0.50077	0.54684	0.39571	-0.131
Mof_H 	H 	0.5251	0.536	0.4069	0.077
Mof_C 	C 	0.5033	0.58037	0.36951	0.085
Mof_C 	C 	0.53978	0.59885	0.35771	-0.138
Mof_H 	H 	0.5647	0.587	0.3662	0.077
Mof_C 	C 	0.54095	0.6328	0.33477	0.056
Mof_H 	H 	0.5662	0.6454	0.3285	0.02
Mof_C 	C 	0.46429	0.49494	0.43537	0.045
Mof_C 	C 	0.49386	0.46512	0.43444	-0.11
Mof_H 	H 	0.5135	0.465	0.4133	0.067
Mof_O 	O 	0.78393	0.20151	0.9713	-0.487
Mof_O 	O 	0.78451	0.2003	0.03962	-0.485
Mof_C 	C 	0.79417	0.18707	0.00526	0.406
Mof_C 	C 	0.82013	0.14941	0.00396	-0.12
Mof_C 	C 	0.83022	0.13235	0.96751	0.01
Mof_H 	H 	0.821	0.1447	0.943	0.036
Mof_C 	C 	0.85381	0.09713	0.96561	-0.032
Mof_C 	C 	0.86499	0.07891	0.92939	-0.023
Mof_H 	H 	0.8549	0.0895	0.9045	0.033
Mof_C 	C 	0.89069	0.04549	0.92885	-0.083
Mof_H 	H 	0.898	0.0336	0.9035	0.055
Mof_C 	C 	0.90574	0.0292	0.96439	0.038
Mof_C 	C 	0.89571	0.04684	0.00077	-0.131
Mof_H 	H 	0.9069	0.036	0.0251	0.077
Mof_C 	C 	0.86951	0.08037	0.0033	0.085
Mof_C 	C 	0.85771	0.09885	0.03978	-0.138
Mof_H 	H 	0.8662	0.087	0.0647	0.077
Mof_C 	C 	0.83477	0.1328	0.04095	0.056
Mof_H 	H 	0.8285	0.1454	0.0662	0.02
Mof_C 	C 	0.93537	0.99494	0.96429	0.045
Mof_C 	C 	0.93444	0.96512	0.99386	-0.11
Mof_H 	H 	0.9133	0.965	0.0135	0.067
Mof_O 	O 	0.71607	0.29849	0.9713	-0.487
Mof_O 	O 	0.71549	0.2997	0.03962	-0.485
Mof_C 	C 	0.70583	0.31293	0.00526	0.406
Mof_C 	C 	0.67987	0.35059	0.00396	-0.121
Mof_C 	C 	0.66978	0.36765	0.96751	0.01
Mof_H 	H 	0.679	0.3553	0.943	0.036
Mof_C 	C 	0.64619	0.40287	0.96561	-0.032
Mof_C 	C 	0.63501	0.42109	0.92939	-0.023
Mof_H 	H 	0.6451	0.4105	0.9045	0.033
Mof_C 	C 	0.60931	0.45451	0.92885	-0.083
Mof_H 	H 	0.602	0.4664	0.9035	0.055
Mof_C 	C 	0.59426	0.4708	0.96439	0.038
Mof_C 	C 	0.60429	0.45316	0.00077	-0.131
Mof_H 	H 	0.5931	0.464	0.0251	0.077
Mof_C 	C 	0.63049	0.41963	0.0033	0.085
Mof_C 	C 	0.64229	0.40115	0.03978	-0.138
Mof_H 	H 	0.6338	0.413	0.0647	0.077
Mof_C 	C 	0.66523	0.3672	0.04095	0.056
Mof_H 	H 	0.6715	0.3546	0.0662	0.02
Mof_C 	C 	0.56463	0.50506	0.96429	0.045
Mof_C 	C 	0.56556	0.53488	0.99386	-0.11
Mof_H 	H 	0.5867	0.535	0.0135	0.067
Mof_O 	O 	0.71607	0.20151	0.5287	-0.487
Mof_O 	O 	0.71549	0.2003	0.46038	-0.485
Mof_C 	C 	0.70583	0.18707	0.49474	0.406
Mof_C 	C 	0.67987	0.14941	0.49604	-0.12
Mof_C 	C 	0.66978	0.13235	0.53249	0.01
Mof_H 	H 	0.679	0.1447	0.557	0.036
Mof_C 	C 	0.64619	0.09713	0.53439	-0.032
Mof_C 	C 	0.63501	0.07891	0.57061	-0.023
Mof_H 	H 	0.6451	0.0895	0.5955	0.033
Mof_C 	C 	0.60931	0.04549	0.57115	-0.083
Mof_H 	H 	0.602	0.0336	0.5965	0.055
Mof_C 	C 	0.59426	0.0292	0.53561	0.038
Mof_C 	C 	0.60429	0.04684	0.49923	-0.131
Mof_H 	H 	0.5931	0.036	0.4749	0.077
Mof_C 	C 	0.63049	0.08037	0.4967	0.085
Mof_C 	C 	0.64229	0.09885	0.46022	-0.138
Mof_H 	H 	0.6338	0.087	0.4353	0.077
Mof_C 	C 	0.66523	0.1328	0.45905	0.056
Mof_H 	H 	0.6715	0.1454	0.4338	0.02
Mof_C 	C 	0.56463	0.99494	0.53571	0.045
Mof_C 	C 	0.56556	0.96512	0.50614	-0.11
Mof_H 	H 	0.5867	0.965	0.4865	0.067
Mof_O 	O 	0.78393	0.29849	0.5287	-0.487
Mof_O 	O 	0.78451	0.2997	0.46038	-0.485
Mof_C 	C 	0.79417	0.31293	0.49474	0.406
Mof_C 	C 	0.82013	0.35059	0.49604	-0.12
Mof_C 	C 	0.83022	0.36765	0.53249	0.01
Mof_H 	H 	0.821	0.3553	0.557	0.036
Mof_C 	C 	0.85381	0.40287	0.53439	-0.032
Mof_C 	C 	0.86499	0.42109	0.57061	-0.023
Mof_H 	H 	0.8549	0.4105	0.5955	0.033
Mof_C 	C 	0.89069	0.45451	0.57115	-0.083
Mof_H 	H 	0.898	0.4664	0.5965	0.055
Mof_C 	C 	0.90574	0.4708	0.53561	0.038
Mof_C 	C 	0.89571	0.45316	0.49923	-0.131
Mof_H 	H 	0.9069	0.464	0.4749	0.077
Mof_C 	C 	0.86951	0.41963	0.4967	0.085
Mof_C 	C 	0.85771	0.40115	0.46022	-0.138
Mof_H 	H 	0.8662	0.413	0.4353	0.077
Mof_C 	C 	0.83477	0.3672	0.45905	0.056
Mof_H 	H 	0.8285	0.3546	0.4338	0.02
Mof_C 	C 	0.93537	0.50506	0.53571	0.045
Mof_C 	C 	0.93444	0.53488	0.50614	-0.11
Mof_H 	H 	0.9133	0.535	0.4865	0.067
Mof_O 	O 	0.9713	0.78393	0.20151	-0.487
Mof_O 	O 	0.03962	0.78451	0.2003	-0.485
Mof_C 	C 	0.00526	0.79417	0.18707	0.406
Mof_C 	C 	0.00396	0.82013	0.14941	-0.12
Mof_C 	C 	0.96751	0.83022	0.13235	0.01
Mof_H 	H 	0.943	0.821	0.1447	0.036
Mof_C 	C 	0.96561	0.85381	0.09713	-0.032
Mof_C 	C 	0.92939	0.86499	0.07891	-0.023
Mof_H 	H 	0.9045	0.8549	0.0895	0.033
Mof_C 	C 	0.92885	0.89069	0.04549	-0.083
Mof_H 	H 	0.9035	0.898	0.0336	0.055
Mof_C 	C 	0.96439	0.90574	0.0292	0.038
Mof_C 	C 	0.00077	0.89571	0.04684	-0.131
Mof_H 	H 	0.0251	0.9069	0.036	0.077
Mof_C 	C 	0.0033	0.86951	0.08037	0.085
Mof_C 	C 	0.03978	0.85771	0.09885	-0.138
Mof_H 	H 	0.0647	0.8662	0.087	0.077
Mof_C 	C 	0.04095	0.83477	0.1328	0.056
Mof_H 	H 	0.0662	0.8285	0.1454	0.02
Mof_C 	C 	0.96429	0.93537	0.99494	0.045
Mof_C 	C 	0.99386	0.93444	0.96512	-0.11
Mof_H 	H 	0.0135	0.9133	0.965	0.067
Mof_O 	O 	0.9713	0.71607	0.29849	-0.487
Mof_O 	O 	0.03962	0.71549	0.2997	-0.485
Mof_C 	C 	0.00526	0.70583	0.31293	0.406
Mof_C 	C 	0.00396	0.67987	0.35059	-0.121
Mof_C 	C 	0.96751	0.66978	0.36765	0.01
Mof_H 	H 	0.943	0.679	0.3553	0.036
Mof_C 	C 	0.96561	0.64619	0.40287	-0.032
Mof_C 	C 	0.92939	0.63501	0.42109	-0.023
Mof_H 	H 	0.9045	0.6451	0.4105	0.033
Mof_C 	C 	0.92885	0.60931	0.45451	-0.083
Mof_H 	H 	0.9035	0.602	0.4664	0.055
Mof_C 	C 	0.96439	0.59426	0.4708	0.038
Mof_C 	C 	0.00077	0.60429	0.45316	-0.131
Mof_H 	H 	0.0251	0.5931	0.464	0.077
Mof_C 	C 	0.0033	0.63049	0.41963	0.085
Mof_C 	C 	0.03978	0.64229	0.40115	-0.138
Mof_H 	H 	0.0647	0.6338	0.413	0.077
Mof_C 	C 	0.04095	0.66523	0.3672	0.056
Mof_H 	H 	0.0662	0.6715	0.3546	0.02
Mof_C 	C 	0.96429	0.56463	0.50506	0.045
Mof_C 	C 	0.99386	0.56556	0.53488	-0.11
Mof_H 	H 	0.0135	0.5867	0.535	0.067
Mof_O 	O 	0.5287	0.71607	0.20151	-0.487
Mof_O 	O 	0.46038	0.71549	0.2003	-0.485
Mof_C 	C 	0.49474	0.70583	0.18707	0.406
Mof_C 	C 	0.49604	0.67987	0.14941	-0.12
Mof_C 	C 	0.53249	0.66978	0.13235	0.01
Mof_H 	H 	0.557	0.679	0.1447	0.036
Mof_C 	C 	0.53439	0.64619	0.09713	-0.032
Mof_C 	C 	0.57061	0.63501	0.07891	-0.023
Mof_H 	H 	0.5955	0.6451	0.0895	0.033
Mof_C 	C 	0.57115	0.60931	0.04549	-0.083
Mof_H 	H 	0.5965	0.602	0.0336	0.055
Mof_C 	C 	0.53561	0.59426	0.0292	0.038
Mof_C 	C 	0.49923	0.60429	0.04684	-0.131
Mof_H 	H 	0.4749	0.5931	0.036	0.077
Mof_C 	C 	0.4967	0.63049	0.08037	0.085
Mof_C 	C 	0.46022	0.64229	0.09885	-0.138
Mof_H 	H 	0.4353	0.6338	0.087	0.077
Mof_C 	C 	0.45905	0.66523	0.1328	0.056
Mof_H 	H 	0.4338	0.6715	0.1454	0.02
Mof_C 	C 	0.53571	0.56463	0.99494	0.045
Mof_C 	C 	0.50614	0.56556	0.96512	-0.11
Mof_H 	H 	0.4865	0.5867	0.965	0.067
Mof_O 	O 	0.5287	0.78393	0.29849	-0.487
Mof_O 	O 	0.46038	0.78451	0.2997	-0.485
Mof_C 	C 	0.49474	0.79417	0.31293	0.406
Mof_C 	C 	0.49604	0.82013	0.35059	-0.12
Mof_C 	C 	0.53249	0.83022	0.36765	0.01
Mof_H 	H 	0.557	0.821	0.3553	0.036
Mof_C 	C 	0.53439	0.85381	0.40287	-0.032
Mof_C 	C 	0.57061	0.86499	0.42109	-0.023
Mof_H 	H 	0.5955	0.8549	0.4105	0.033
Mof_C 	C 	0.57115	0.89069	0.45451	-0.083
Mof_H 	H 	0.5965	0.898	0.4664	0.055
Mof_C 	C 	0.53561	0.90574	0.4708	0.038
Mof_C 	C 	0.49923	0.89571	0.45316	-0.131
Mof_H 	H 	0.4749	0.9069	0.464	0.077
Mof_C 	C 	0.4967	0.86951	0.41963	0.085
Mof_C 	C 	0.46022	0.85771	0.40115	-0.138
Mof_H 	H 	0.4353	0.8662	0.413	0.077
Mof_C 	C 	0.45905	0.83477	0.3672	0.056
Mof_H 	H 	0.4338	0.8285	0.3546	0.02
Mof_C 	C 	0.53571	0.93537	0.50506	0.045
Mof_C 	C 	0.50614	0.93444	0.53488	-0.11
Mof_H 	H 	0.4865	0.9133	0.535	0.067
Mof_O 	O 	0.20151	0.9713	0.78393	-0.487
Mof_O 	O 	0.2003	0.03962	0.78451	-0.485
Mof_C 	C 	0.18707	0.00526	0.79417	0.406
Mof_C 	C 	0.14941	0.00396	0.82013	-0.12
Mof_C 	C 	0.13235	0.96751	0.83022	0.01
Mof_H 	H 	0.1447	0.943	0.821	0.036
Mof_C 	C 	0.09713	0.96561	0.85381	-0.032
Mof_C 	C 	0.07891	0.92939	0.86499	-0.023
Mof_H 	H 	0.0895	0.9045	0.8549	0.033
Mof_C 	C 	0.04549	0.92885	0.89069	-0.083
Mof_H 	H 	0.0336	0.9035	0.898	0.055
Mof_C 	C 	0.0292	0.96439	0.90574	0.038
Mof_C 	C 	0.04684	0.00077	0.89571	-0.131
Mof_H 	H 	0.036	0.0251	0.9069	0.077
Mof_C 	C 	0.08037	0.0033	0.86951	0.085
Mof_C 	C 	0.09885	0.03978	0.85771	-0.138
Mof_H 	H 	0.087	0.0647	0.8662	0.077
Mof_C 	C 	0.1328	0.04095	0.83477	0.056
Mof_H 	H 	0.1454	0.0662	0.8285	0.02
Mof_C 	C 	0.99494	0.96429	0.93537	0.045
Mof_C 	C 	0.96512	0.99386	0.93444	-0.11
Mof_H 	H 	0.965	0.0135	0.9133	0.067
Mof_O 	O 	0.29849	0.9713	0.71607	-0.487
Mof_O 	O 	0.2997	0.03962	0.71549	-0.485
Mof_C 	C 	0.31293	0.00526	0.70583	0.406
Mof_C 	C 	0.35059	0.00396	0.67987	-0.121
Mof_C 	C 	0.36765	0.96751	0.66978	0.01
Mof_H 	H 	0.3553	0.943	0.679	0.036
Mof_C 	C 	0.40287	0.96561	0.64619	-0.032
Mof_C 	C 	0.42109	0.92939	0.63501	-0.023
Mof_H 	H 	0.4105	0.9045	0.6451	0.033
Mof_C 	C 	0.45451	0.92885	0.60931	-0.083
Mof_H 	H 	0.4664	0.9035	0.602	0.055
Mof_C 	C 	0.4708	0.96439	0.59426	0.038
Mof_C 	C 	0.45316	0.00077	0.60429	-0.131
Mof_H 	H 	0.464	0.0251	0.5931	0.077
Mof_C 	C 	0.41963	0.0033	0.63049	0.085
Mof_C 	C 	0.40115	0.03978	0.64229	-0.138
Mof_H 	H 	0.413	0.0647	0.6338	0.077
Mof_C 	C 	0.3672	0.04095	0.66523	0.056
Mof_H 	H 	0.3546	0.0662	0.6715	0.02
Mof_C 	C 	0.50506	0.96429	0.56463	0.045
Mof_C 	C 	0.53488	0.99386	0.56556	-0.11
Mof_H 	H 	0.535	0.0135	0.5867	0.067
Mof_O 	O 	0.20151	0.5287	0.71607	-0.487
Mof_O 	O 	0.2003	0.46038	0.71549	-0.485
Mof_C 	C 	0.18707	0.49474	0.70583	0.406
Mof_C 	C 	0.14941	0.49604	0.67987	-0.12
Mof_C 	C 	0.13235	0.53249	0.66978	0.01
Mof_H 	H 	0.1447	0.557	0.679	0.036
Mof_C 	C 	0.09713	0.53439	0.64619	-0.032
Mof_C 	C 	0.07891	0.57061	0.63501	-0.023
Mof_H 	H 	0.0895	0.5955	0.6451	0.033
Mof_C 	C 	0.04549	0.57115	0.60931	-0.083
Mof_H 	H 	0.0336	0.5965	0.602	0.055
Mof_C 	C 	0.0292	0.53561	0.59426	0.038
Mof_C 	C 	0.04684	0.49923	0.60429	-0.131
Mof_H 	H 	0.036	0.4749	0.5931	0.077
Mof_C 	C 	0.08037	0.4967	0.63049	0.085
Mof_C 	C 	0.09885	0.46022	0.64229	-0.138
Mof_H 	H 	0.087	0.4353	0.6338	0.077
Mof_C 	C 	0.1328	0.45905	0.66523	0.056
Mof_H 	H 	0.1454	0.4338	0.6715	0.02
Mof_C 	C 	0.99494	0.53571	0.56463	0.045
Mof_C 	C 	0.96512	0.50614	0.56556	-0.11
Mof_H 	H 	0.965	0.4865	0.5867	0.067
Mof_O 	O 	0.29849	0.5287	0.78393	-0.487
Mof_O 	O 	0.2997	0.46038	0.78451	-0.485
Mof_C 	C 	0.31293	0.49474	0.79417	0.406
Mof_C 	C 	0.35059	0.49604	0.82013	-0.12
Mof_C 	C 	0.36765	0.53249	0.83022	0.01
Mof_H 	H 	0.3553	0.557	0.821	0.036
Mof_C 	C 	0.40287	0.53439	0.85381	-0.032
Mof_C 	C 	0.42109	0.57061	0.86499	-0.023
Mof_H 	H 	0.4105	0.5955	0.8549	0.033
Mof_C 	C 	0.45451	0.57115	0.89069	-0.083
Mof_H 	H 	0.4664	0.5965	0.898	0.055
Mof_C 	C 	0.4708	0.53561	0.90574	0.038
Mof_C 	C 	0.45316	0.49923	0.89571	-0.131
Mof_H 	H 	0.464	0.4749	0.9069	0.077
Mof_C 	C 	0.41963	0.4967	0.86951	0.085
Mof_C 	C 	0.40115	0.46022	0.85771	-0.138
Mof_H 	H 	0.413	0.4353	0.8662	0.077
Mof_C 	C 	0.3672	0.45905	0.83477	0.056
Mof_H 	H 	0.3546	0.4338	0.8285	0.02
Mof_C 	C 	0.50506	0.53571	0.93537	0.045
Mof_C 	C 	0.53488	0.50614	0.93444	-0.11
Mof_H 	H 	0.535	0.4865	0.9133	0.067
Mof_Zn	Zn	0.75	0.25	0.45412	1.203
Mof_Zn	Zn	0.75	0.25	0.04588	1.203
Mof_Zn	Zn	0.25	0.04588	0.75	1.203
Mof_Zn	Zn	0.25	0.45412	0.75	1.203
Mof_Zn	Zn	0.04588	0.75	0.25	1.203
Mof_Zn	Zn	0.45412	0.75	0.25	1.203
Mof_Zn	Zn	0.75	0.25	0.95412	1.203
Mof_Zn	Zn	0.75	0.25	0.54588	1.203
Mof_Zn	Zn	0.95412	0.75	0.25	1.203
Mof_Zn	Zn	0.54588	0.75	0.25	1.203
Mof_Zn	Zn	0.25	0.95412	0.75	1.203
Mof_Zn	Zn	0.25	0.54588	0.75	1.203
_end
