data_functionalizedCrystal
_audit_creation_method	'EQeq! by Chris Wilmer'
_symmetry_space_group_name_H-M	'P1'
_symmetry_Int_Tables_number	1
_symmetry_cell_setting	triclinic
loop_
_symmetry_equiv_pos_as_xyz
  x,y,z
_cell_length_a	18.7666
_cell_length_b	18.7666
_cell_length_c	18.7666
_cell_angle_alpha	60
_cell_angle_beta	60
_cell_angle_gamma	60
loop_
_atom_site_label
_atom_site_type_symbol
_atom_site_fract_x
_atom_site_fract_y
_atom_site_fract_z
_atom_site_charge
Mof_Zn	Zn	0.5	0.07916	0.5	1.199
Mof_Zn	Zn	0.07916	0.5	0.92084	1.199
Mof_Zn	Zn	0.5	0.92084	0.5	1.199
Mof_Zn	Zn	0.92084	0.5	0.07916	1.199
Mof_Zn	Zn	0.5	0.5	0.92084	1.199
Mof_Zn	Zn	0.07916	0.92084	0.5	1.199
Mof_Zn	Zn	0.5	0.5	0.07916	1.198
Mof_Zn	Zn	0.92084	0.07916	0.5	1.198
Mof_Zn	Zn	0.5	0.92084	0.07916	1.198
Mof_Zn	Zn	0.07916	0.5	0.5	1.198
Mof_Zn	Zn	0.5	0.07916	0.92084	1.198
Mof_Zn	Zn	0.92084	0.5	0.5	1.198
Mof_H 	H 	0.7707	0.9875	0.4711	0.017
Mof_H 	H 	0.9875	0.7707	0.7707	0.018
Mof_H 	H 	0.4711	0.7707	0.7707	0.019
Mof_H 	H 	0.7707	0.4711	0.9875	0.017
Mof_H 	H 	0.7707	0.4711	0.7707	0.019
Mof_H 	H 	0.9875	0.7707	0.4711	0.017
Mof_H 	H 	0.4711	0.7707	0.9875	0.017
Mof_H 	H 	0.7707	0.9875	0.7707	0.018
Mof_H 	H 	0.7707	0.7707	0.9875	0.018
Mof_H 	H 	0.9875	0.4711	0.7707	0.017
Mof_H 	H 	0.4711	0.9875	0.7707	0.017
Mof_H 	H 	0.7707	0.7707	0.4711	0.019
Mof_H 	H 	0.0125	0.2293	0.5289	0.017
Mof_H 	H 	0.2293	0.0125	0.2293	0.018
Mof_H 	H 	0.2293	0.5289	0.2293	0.019
Mof_H 	H 	0.5289	0.2293	0.0125	0.017
Mof_H 	H 	0.5289	0.2293	0.2293	0.019
Mof_H 	H 	0.2293	0.0125	0.5289	0.017
Mof_H 	H 	0.2293	0.5289	0.0125	0.017
Mof_H 	H 	0.0125	0.2293	0.2293	0.018
Mof_H 	H 	0.2293	0.2293	0.0125	0.018
Mof_H 	H 	0.5289	0.0125	0.2293	0.017
Mof_H 	H 	0.0125	0.5289	0.2293	0.017
Mof_H 	H 	0.2293	0.2293	0.5289	0.019
Mof_C 	C 	0.66372	0.9302	0.47588	0.425
Mof_C 	C 	0.75634	0.8857	0.47226	-0.167
Mof_C 	C 	0.9302	0.66372	0.9302	0.402
Mof_C 	C 	0.8857	0.75634	0.8857	-0.159
Mof_C 	C 	0.47588	0.9302	0.66372	0.425
Mof_C 	C 	0.47226	0.8857	0.75634	-0.167
Mof_C 	C 	0.9302	0.47588	0.9302	0.411
Mof_C 	C 	0.8857	0.47226	0.8857	-0.164
Mof_C 	C 	0.66372	0.47588	0.9302	0.425
Mof_C 	C 	0.75634	0.47226	0.8857	-0.167
Mof_C 	C 	0.9302	0.9302	0.47588	0.411
Mof_C 	C 	0.8857	0.8857	0.47226	-0.164
Mof_C 	C 	0.47588	0.66372	0.9302	0.425
Mof_C 	C 	0.47226	0.75634	0.8857	-0.167
Mof_C 	C 	0.9302	0.9302	0.66372	0.402
Mof_C 	C 	0.8857	0.8857	0.75634	-0.159
Mof_C 	C 	0.66372	0.9302	0.9302	0.402
Mof_C 	C 	0.75634	0.8857	0.8857	-0.159
Mof_C 	C 	0.9302	0.47588	0.66372	0.425
Mof_C 	C 	0.8857	0.47226	0.75634	-0.167
Mof_C 	C 	0.47588	0.9302	0.9302	0.411
Mof_C 	C 	0.47226	0.8857	0.8857	-0.164
Mof_C 	C 	0.9302	0.66372	0.47588	0.425
Mof_C 	C 	0.8857	0.75634	0.47226	-0.167
Mof_C 	C 	0.0698	0.33628	0.52412	0.425
Mof_C 	C 	0.1143	0.24366	0.52774	-0.167
Mof_C 	C 	0.33628	0.0698	0.0698	0.402
Mof_C 	C 	0.24366	0.1143	0.1143	-0.159
Mof_C 	C 	0.0698	0.52412	0.33628	0.425
Mof_C 	C 	0.1143	0.52774	0.24366	-0.167
Mof_C 	C 	0.52412	0.0698	0.0698	0.411
Mof_C 	C 	0.52774	0.1143	0.1143	-0.164
Mof_C 	C 	0.52412	0.33628	0.0698	0.425
Mof_C 	C 	0.52774	0.24366	0.1143	-0.167
Mof_C 	C 	0.0698	0.0698	0.52412	0.411
Mof_C 	C 	0.1143	0.1143	0.52774	-0.164
Mof_C 	C 	0.33628	0.52412	0.0698	0.425
Mof_C 	C 	0.24366	0.52774	0.1143	-0.167
Mof_C 	C 	0.0698	0.0698	0.33628	0.402
Mof_C 	C 	0.1143	0.1143	0.24366	-0.159
Mof_C 	C 	0.0698	0.33628	0.0698	0.402
Mof_C 	C 	0.1143	0.24366	0.1143	-0.159
Mof_C 	C 	0.52412	0.0698	0.33628	0.425
Mof_C 	C 	0.52774	0.1143	0.24366	-0.167
Mof_C 	C 	0.0698	0.52412	0.0698	0.411
Mof_C 	C 	0.1143	0.52774	0.1143	-0.164
Mof_C 	C 	0.33628	0.0698	0.52412	0.425
Mof_C 	C 	0.24366	0.1143	0.52774	-0.167
Mof_C 	C 	0.7997	0.92878	0.47182	0.1
Mof_C 	C 	0.92878	0.7997	0.7997	0.092
Mof_C 	C 	0.47182	0.7997	0.7997	0.102
Mof_C 	C 	0.7997	0.47182	0.92878	0.1
Mof_C 	C 	0.7997	0.47182	0.7997	0.102
Mof_C 	C 	0.92878	0.7997	0.47182	0.1
Mof_C 	C 	0.47182	0.7997	0.92878	0.1
Mof_C 	C 	0.7997	0.92878	0.7997	0.092
Mof_C 	C 	0.7997	0.7997	0.92878	0.092
Mof_C 	C 	0.92878	0.47182	0.7997	0.1
Mof_C 	C 	0.47182	0.92878	0.7997	0.1
Mof_C 	C 	0.7997	0.7997	0.47182	0.102
Mof_C 	C 	0.07122	0.2003	0.52818	0.1
Mof_C 	C 	0.2003	0.07122	0.2003	0.092
Mof_C 	C 	0.2003	0.52818	0.2003	0.102
Mof_C 	C 	0.52818	0.2003	0.07122	0.1
Mof_C 	C 	0.52818	0.2003	0.2003	0.102
Mof_C 	C 	0.2003	0.07122	0.52818	0.1
Mof_C 	C 	0.2003	0.52818	0.07122	0.1
Mof_C 	C 	0.07122	0.2003	0.2003	0.092
Mof_C 	C 	0.2003	0.2003	0.07122	0.092
Mof_C 	C 	0.52818	0.07122	0.2003	0.1
Mof_C 	C 	0.07122	0.52818	0.2003	0.1
Mof_C 	C 	0.2003	0.2003	0.52818	0.102
Mof_O 	O 	0.62795	0.00639	0.47841	-0.487
Mof_O 	O 	0.00639	0.62795	0.88725	-0.477
Mof_O 	O 	0.47841	0.88725	0.62795	-0.489
Mof_O 	O 	0.88725	0.47841	0.00639	-0.481
Mof_O 	O 	0.62795	0.47841	0.88725	-0.489
Mof_O 	O 	0.00639	0.88725	0.47841	-0.481
Mof_O 	O 	0.47841	0.62795	0.00639	-0.487
Mof_O 	O 	0.88725	0.00639	0.62795	-0.477
Mof_O 	O 	0.62795	0.88725	0.00639	-0.477
Mof_O 	O 	0.00639	0.47841	0.62795	-0.487
Mof_O 	O 	0.47841	0.00639	0.88725	-0.481
Mof_O 	O 	0.88725	0.62795	0.47841	-0.489
Mof_O 	O 	0.99361	0.37205	0.52159	-0.487
Mof_O 	O 	0.37205	0.99361	0.11275	-0.477
Mof_O 	O 	0.11275	0.52159	0.37205	-0.489
Mof_O 	O 	0.52159	0.11275	0.99361	-0.481
Mof_O 	O 	0.52159	0.37205	0.11275	-0.489
Mof_O 	O 	0.11275	0.99361	0.52159	-0.481
Mof_O 	O 	0.37205	0.52159	0.99361	-0.487
Mof_O 	O 	0.99361	0.11275	0.37205	-0.477
Mof_O 	O 	0.11275	0.37205	0.99361	-0.477
Mof_O 	O 	0.52159	0.99361	0.37205	-0.487
Mof_O 	O 	0.99361	0.52159	0.11275	-0.481
Mof_O 	O 	0.37205	0.11275	0.52159	-0.489
Mof_O 	O 	0.37205	0.99361	0.52159	-0.487
Mof_O 	O 	0.99361	0.37205	0.11275	-0.477
Mof_O 	O 	0.52159	0.11275	0.37205	-0.489
Mof_O 	O 	0.11275	0.52159	0.99361	-0.481
Mof_O 	O 	0.37205	0.52159	0.11275	-0.489
Mof_O 	O 	0.99361	0.11275	0.52159	-0.481
Mof_O 	O 	0.52159	0.37205	0.99361	-0.487
Mof_O 	O 	0.11275	0.99361	0.37205	-0.477
Mof_O 	O 	0.37205	0.11275	0.99361	-0.477
Mof_O 	O 	0.99361	0.52159	0.37205	-0.487
Mof_O 	O 	0.52159	0.99361	0.11275	-0.481
Mof_O 	O 	0.11275	0.37205	0.52159	-0.489
Mof_O 	O 	0.00639	0.62795	0.47841	-0.487
Mof_O 	O 	0.62795	0.00639	0.88725	-0.477
Mof_O 	O 	0.88725	0.47841	0.62795	-0.489
Mof_O 	O 	0.47841	0.88725	0.00639	-0.481
Mof_O 	O 	0.47841	0.62795	0.88725	-0.489
Mof_O 	O 	0.88725	0.00639	0.47841	-0.481
Mof_O 	O 	0.62795	0.47841	0.00639	-0.487
Mof_O 	O 	0.00639	0.88725	0.62795	-0.477
Mof_O 	O 	0.88725	0.62795	0.00639	-0.477
Mof_O 	O 	0.47841	0.00639	0.62795	-0.487
Mof_O 	O 	0.00639	0.47841	0.88725	-0.481
Mof_O 	O 	0.62795	0.88725	0.47841	-0.489
_end
