data_functionalizedCrystal
_audit_creation_method	'EQeq! by Chris Wilmer'
_symmetry_space_group_name_H-M	'P1'
_symmetry_Int_Tables_number	1
_symmetry_cell_setting	triclinic
loop_
_symmetry_equiv_pos_as_xyz
  x,y,z
_cell_length_a	28.1295
_cell_length_b	15.2305
_cell_length_c	8.7607
_cell_angle_alpha	90
_cell_angle_beta	98.835
_cell_angle_gamma	90
loop_
_atom_site_label
_atom_site_type_symbol
_atom_site_fract_x
_atom_site_fract_y
_atom_site_fract_z
_atom_site_charge
Mof_La	La	0.16754	0.01363	0.64202	1.998
Mof_O 	O 	0.28678	0.47302	0.602	-0.64
Mof_O 	O 	0.24528	0.4292	0.3828	-0.455
Mof_O 	O 	0.11821	0.9734	0.3895	-0.622
Mof_O 	O 	0.08153	0.9306	0.1629	-0.475
Mof_O 	O 	0.16061	0.17468	0.5375	-0.434
Mof_O 	O 	0.1806	0.16019	0.7881	-0.465
Mof_C 	C 	0.13347	0.3547	0.5612	0.078
Mof_C 	C 	0.0187	0.8223	0.3135	0.098
Mof_C 	C 	0.08236	0.9378	0.3059	0.474
Mof_C 	C 	0.15587	0.4267	0.5112	0.095
Mof_C 	C 	0.24689	0.452	0.5199	0.463
Mof_C 	C 	0.16613	0.2067	0.6716	0.415
Mof_C 	C 	0.04051	0.9055	0.381	-0.429
Mof_H 	H 	0.0515	0.8965	0.4904	0.13
Mof_H 	H 	0.0159	0.9506	0.3712	0.152
Mof_C 	C 	0.1323	0.4727	0.3842	-0.111
Mof_H 	H 	0.1464	0.5235	0.3529	0.06
Mof_C 	C 	0.20156	0.4646	0.5926	-0.417
Mof_H 	H 	0.2074	0.4396	0.6957	0.128
Mof_H 	H 	0.1967	0.5271	0.604	0.147
Mof_C 	C 	0.1539	0.3007	0.7018	-0.379
Mof_H 	H 	0.1828	0.3295	0.7526	0.124
Mof_H 	H 	0.1308	0.3011	0.7734	0.137
Mof_C 	C 	0.08975	0.329	0.483	-0.107
Mof_H 	H 	0.0746	0.28	0.5168	0.074
Mof_C 	C 	0.0166	0.6656	0.3121	-0.02
Mof_H 	H 	0.0272	0.6125	0.3574	0.031
Mof_C 	C 	0.0678	0.3741	0.3556	-0.023
Mof_H 	H 	0.0382	0.3554	0.3044	0.029
Mof_C 	C 	0.0357	0.7422	0.3751	-0.123
Mof_H 	H 	0.0601	0.7408	0.4597	0.056
Mof_C 	C 	0.0891	0.446	0.3038	-0.024
Mof_H 	H 	0.0748	0.476	0.2163	0.033
Mof_La	La	0.66754	0.51363	0.64202	1.998
Mof_O 	O 	0.78678	0.97302	0.602	-0.638
Mof_O 	O 	0.74528	0.9292	0.3828	-0.455
Mof_O 	O 	0.61821	0.4734	0.3895	-0.622
Mof_O 	O 	0.58153	0.4306	0.1629	-0.474
Mof_O 	O 	0.66061	0.67468	0.5375	-0.433
Mof_O 	O 	0.6806	0.66019	0.7881	-0.465
Mof_C 	C 	0.63347	0.8547	0.5612	0.077
Mof_C 	C 	0.5187	0.3223	0.3135	0.098
Mof_C 	C 	0.58236	0.4378	0.3059	0.474
Mof_C 	C 	0.65587	0.9267	0.5112	0.096
Mof_C 	C 	0.74689	0.952	0.5199	0.463
Mof_C 	C 	0.66613	0.7067	0.6716	0.415
Mof_C 	C 	0.54051	0.4055	0.381	-0.429
Mof_H 	H 	0.5515	0.3965	0.4904	0.129
Mof_H 	H 	0.5159	0.4506	0.3712	0.152
Mof_C 	C 	0.6323	0.9727	0.3842	-0.113
Mof_H 	H 	0.6464	0.0235	0.3529	0.061
Mof_C 	C 	0.70156	0.9646	0.5926	-0.416
Mof_H 	H 	0.7074	0.9396	0.6957	0.128
Mof_H 	H 	0.6967	0.0271	0.604	0.146
Mof_C 	C 	0.6539	0.8007	0.7018	-0.379
Mof_H 	H 	0.6828	0.8295	0.7526	0.124
Mof_H 	H 	0.6308	0.8011	0.7734	0.137
Mof_C 	C 	0.58975	0.829	0.483	-0.106
Mof_H 	H 	0.5746	0.78	0.5168	0.073
Mof_C 	C 	0.5166	0.1656	0.3121	-0.019
Mof_H 	H 	0.5272	0.1125	0.3574	0.031
Mof_C 	C 	0.5678	0.8741	0.3556	-0.024
Mof_H 	H 	0.5382	0.8554	0.3044	0.029
Mof_C 	C 	0.5357	0.2422	0.3751	-0.123
Mof_H 	H 	0.5601	0.2408	0.4597	0.056
Mof_C 	C 	0.5891	0.946	0.3038	-0.023
Mof_H 	H 	0.5748	0.976	0.2163	0.033
Mof_La	La	0.83246	0.01363	0.85798	1.997
Mof_O 	O 	0.71322	0.47302	0.898	-0.639
Mof_O 	O 	0.75472	0.4292	0.1172	-0.454
Mof_O 	O 	0.88179	0.9734	0.1105	-0.622
Mof_O 	O 	0.91847	0.9306	0.3371	-0.473
Mof_O 	O 	0.83939	0.17468	0.9625	-0.433
Mof_O 	O 	0.8194	0.16019	0.7119	-0.464
Mof_C 	C 	0.86653	0.3547	0.9388	0.073
Mof_C 	C 	0.9813	0.8223	0.1865	0.097
Mof_C 	C 	0.91764	0.9378	0.1941	0.474
Mof_C 	C 	0.84413	0.4267	0.9888	0.097
Mof_C 	C 	0.75311	0.452	0.9801	0.463
Mof_C 	C 	0.83387	0.2067	0.8284	0.415
Mof_C 	C 	0.95949	0.9055	0.119	-0.429
Mof_H 	H 	0.9485	0.8965	0.0096	0.129
Mof_H 	H 	0.9841	0.9506	0.1288	0.152
Mof_C 	C 	0.8677	0.4727	0.1158	-0.114
Mof_H 	H 	0.8536	0.5235	0.1471	0.061
Mof_C 	C 	0.79844	0.4646	0.9074	-0.418
Mof_H 	H 	0.7926	0.4396	0.8043	0.128
Mof_H 	H 	0.8033	0.5271	0.896	0.147
Mof_C 	C 	0.8461	0.3007	0.7982	-0.377
Mof_H 	H 	0.8172	0.3295	0.7474	0.123
Mof_H 	H 	0.8692	0.3011	0.7266	0.136
Mof_C 	C 	0.91025	0.329	0.017	-0.099
Mof_H 	H 	0.9254	0.28	0.9832	0.07
Mof_C 	C 	0.9834	0.6656	0.1879	-0.02
Mof_H 	H 	0.9728	0.6125	0.1426	0.031
Mof_C 	C 	0.9322	0.3741	0.1444	-0.029
Mof_H 	H 	0.9618	0.3554	0.1956	0.031
Mof_C 	C 	0.9643	0.7422	0.1249	-0.123
Mof_H 	H 	0.9399	0.7408	0.0403	0.055
Mof_C 	C 	0.9109	0.446	0.1962	-0.02
Mof_H 	H 	0.9252	0.476	0.2837	0.032
Mof_La	La	0.33246	0.51363	0.85798	1.997
Mof_O 	O 	0.21322	0.97302	0.898	-0.638
Mof_O 	O 	0.25472	0.9292	0.1172	-0.457
Mof_O 	O 	0.38179	0.4734	0.1105	-0.622
Mof_O 	O 	0.41847	0.4306	0.3371	-0.474
Mof_O 	O 	0.33939	0.67468	0.9625	-0.433
Mof_O 	O 	0.3194	0.66019	0.7119	-0.465
Mof_C 	C 	0.36653	0.8547	0.9388	0.081
Mof_C 	C 	0.4813	0.3223	0.1865	0.098
Mof_C 	C 	0.41764	0.4378	0.1941	0.474
Mof_C 	C 	0.34413	0.9267	0.9888	0.097
Mof_C 	C 	0.25311	0.952	0.9801	0.465
Mof_C 	C 	0.33387	0.7067	0.8284	0.416
Mof_C 	C 	0.45949	0.4055	0.119	-0.429
Mof_H 	H 	0.4485	0.3965	0.0096	0.129
Mof_H 	H 	0.4841	0.4506	0.1288	0.152
Mof_C 	C 	0.3677	0.9727	0.1158	-0.117
Mof_H 	H 	0.3536	0.0235	0.1471	0.064
Mof_C 	C 	0.29844	0.9646	0.9074	-0.414
Mof_H 	H 	0.2926	0.9396	0.8043	0.127
Mof_H 	H 	0.3033	0.0271	0.896	0.144
Mof_C 	C 	0.3461	0.8007	0.7982	-0.381
Mof_H 	H 	0.3172	0.8295	0.7474	0.125
Mof_H 	H 	0.3692	0.8011	0.7266	0.137
Mof_C 	C 	0.41025	0.829	0.017	-0.114
Mof_H 	H 	0.4254	0.78	0.9832	0.077
Mof_C 	C 	0.4834	0.1656	0.1879	-0.02
Mof_H 	H 	0.4728	0.1125	0.1426	0.032
Mof_C 	C 	0.4322	0.8741	0.1444	-0.021
Mof_H 	H 	0.4618	0.8554	0.1956	0.028
Mof_C 	C 	0.4643	0.2422	0.1249	-0.123
Mof_H 	H 	0.4399	0.2408	0.0403	0.056
Mof_C 	C 	0.4109	0.946	0.1962	-0.023
Mof_H 	H 	0.4252	0.976	0.2837	0.033
Mof_La	La	0.83246	0.98637	0.35798	1.999
Mof_O 	O 	0.71322	0.52698	0.398	-0.639
Mof_O 	O 	0.75472	0.5708	0.6172	-0.454
Mof_O 	O 	0.88179	0.0266	0.6105	-0.621
Mof_O 	O 	0.91847	0.0694	0.8371	-0.474
Mof_O 	O 	0.83939	0.82532	0.4625	-0.433
Mof_O 	O 	0.8194	0.83981	0.2119	-0.465
Mof_C 	C 	0.86653	0.6453	0.4388	0.078
Mof_C 	C 	0.9813	0.1777	0.6865	0.098
Mof_C 	C 	0.91764	0.0622	0.6941	0.474
Mof_C 	C 	0.84413	0.5733	0.4888	0.095
Mof_C 	C 	0.75311	0.548	0.4801	0.463
Mof_C 	C 	0.83387	0.7933	0.3284	0.415
Mof_C 	C 	0.95949	0.0945	0.619	-0.429
Mof_H 	H 	0.9485	0.1035	0.5096	0.13
Mof_H 	H 	0.9841	0.0494	0.6288	0.152
Mof_C 	C 	0.8677	0.5273	0.6158	-0.111
Mof_H 	H 	0.8536	0.4765	0.6471	0.06
Mof_C 	C 	0.79844	0.5354	0.4074	-0.417
Mof_H 	H 	0.7926	0.5604	0.3043	0.128
Mof_H 	H 	0.8033	0.4729	0.396	0.147
Mof_C 	C 	0.8461	0.6993	0.2982	-0.379
Mof_H 	H 	0.8172	0.6705	0.2474	0.124
Mof_H 	H 	0.8692	0.6989	0.2266	0.137
Mof_C 	C 	0.91025	0.671	0.517	-0.107
Mof_H 	H 	0.9254	0.72	0.4832	0.074
Mof_C 	C 	0.9834	0.3344	0.6879	-0.02
Mof_H 	H 	0.9728	0.3875	0.6426	0.031
Mof_C 	C 	0.9322	0.6259	0.6444	-0.023
Mof_H 	H 	0.9618	0.6446	0.6956	0.029
Mof_C 	C 	0.9643	0.2578	0.6249	-0.123
Mof_H 	H 	0.9399	0.2592	0.5403	0.056
Mof_C 	C 	0.9109	0.554	0.6962	-0.024
Mof_H 	H 	0.9252	0.524	0.7837	0.033
Mof_La	La	0.33246	0.48637	0.35798	1.998
Mof_O 	O 	0.21322	0.02698	0.398	-0.638
Mof_O 	O 	0.25472	0.0708	0.6172	-0.455
Mof_O 	O 	0.38179	0.5266	0.6105	-0.622
Mof_O 	O 	0.41847	0.5694	0.8371	-0.474
Mof_O 	O 	0.33939	0.32532	0.4625	-0.433
Mof_O 	O 	0.3194	0.33981	0.2119	-0.465
Mof_C 	C 	0.36653	0.1453	0.4388	0.077
Mof_C 	C 	0.4813	0.6777	0.6865	0.098
Mof_C 	C 	0.41764	0.5622	0.6941	0.474
Mof_C 	C 	0.34413	0.0733	0.4888	0.096
Mof_C 	C 	0.25311	0.048	0.4801	0.463
Mof_C 	C 	0.33387	0.2933	0.3284	0.415
Mof_C 	C 	0.45949	0.5945	0.619	-0.429
Mof_H 	H 	0.4485	0.6035	0.5096	0.129
Mof_H 	H 	0.4841	0.5494	0.6288	0.152
Mof_C 	C 	0.3677	0.0273	0.6158	-0.113
Mof_H 	H 	0.3536	0.9765	0.6471	0.061
Mof_C 	C 	0.29844	0.0354	0.4074	-0.416
Mof_H 	H 	0.2926	0.0604	0.3043	0.128
Mof_H 	H 	0.3033	0.9729	0.396	0.146
Mof_C 	C 	0.3461	0.1993	0.2982	-0.379
Mof_H 	H 	0.3172	0.1705	0.2474	0.124
Mof_H 	H 	0.3692	0.1989	0.2266	0.137
Mof_C 	C 	0.41025	0.171	0.517	-0.106
Mof_H 	H 	0.4254	0.22	0.4832	0.073
Mof_C 	C 	0.4834	0.8344	0.6879	-0.019
Mof_H 	H 	0.4728	0.8875	0.6426	0.031
Mof_C 	C 	0.4322	0.1259	0.6444	-0.024
Mof_H 	H 	0.4618	0.1446	0.6956	0.029
Mof_C 	C 	0.4643	0.7578	0.6249	-0.123
Mof_H 	H 	0.4399	0.7592	0.5403	0.056
Mof_C 	C 	0.4109	0.054	0.6962	-0.023
Mof_H 	H 	0.4252	0.024	0.7837	0.033
Mof_La	La	0.16754	0.98637	0.14202	1.997
Mof_O 	O 	0.28678	0.52698	0.102	-0.639
Mof_O 	O 	0.24528	0.5708	0.8828	-0.454
Mof_O 	O 	0.11821	0.0266	0.8895	-0.622
Mof_O 	O 	0.08153	0.0694	0.6629	-0.473
Mof_O 	O 	0.16061	0.82532	0.0375	-0.433
Mof_O 	O 	0.1806	0.83981	0.2881	-0.464
Mof_C 	C 	0.13347	0.6453	0.0612	0.073
Mof_C 	C 	0.0187	0.1777	0.8135	0.097
Mof_C 	C 	0.08236	0.0622	0.8059	0.474
Mof_C 	C 	0.15587	0.5733	0.0112	0.097
Mof_C 	C 	0.24689	0.548	0.0199	0.463
Mof_C 	C 	0.16613	0.7933	0.1716	0.415
Mof_C 	C 	0.04051	0.0945	0.881	-0.429
Mof_H 	H 	0.0515	0.1035	0.9904	0.129
Mof_H 	H 	0.0159	0.0494	0.8712	0.152
Mof_C 	C 	0.1323	0.5273	0.8842	-0.114
Mof_H 	H 	0.1464	0.4765	0.8529	0.061
Mof_C 	C 	0.20156	0.5354	0.0926	-0.418
Mof_H 	H 	0.2074	0.5604	0.1957	0.128
Mof_H 	H 	0.1967	0.4729	0.104	0.147
Mof_C 	C 	0.1539	0.6993	0.2018	-0.377
Mof_H 	H 	0.1828	0.6705	0.2526	0.123
Mof_H 	H 	0.1308	0.6989	0.2734	0.136
Mof_C 	C 	0.08975	0.671	0.983	-0.099
Mof_H 	H 	0.0746	0.72	0.0168	0.07
Mof_C 	C 	0.0166	0.3344	0.8121	-0.02
Mof_H 	H 	0.0272	0.3875	0.8574	0.031
Mof_C 	C 	0.0678	0.6259	0.8556	-0.029
Mof_H 	H 	0.0382	0.6446	0.8044	0.031
Mof_C 	C 	0.0357	0.2578	0.8751	-0.123
Mof_H 	H 	0.0601	0.2592	0.9597	0.055
Mof_C 	C 	0.0891	0.554	0.8038	-0.02
Mof_H 	H 	0.0748	0.524	0.7163	0.032
Mof_La	La	0.66754	0.48637	0.14202	1.997
Mof_O 	O 	0.78678	0.02698	0.102	-0.638
Mof_O 	O 	0.74528	0.0708	0.8828	-0.457
Mof_O 	O 	0.61821	0.5266	0.8895	-0.622
Mof_O 	O 	0.58153	0.5694	0.6629	-0.474
Mof_O 	O 	0.66061	0.32532	0.0375	-0.433
Mof_O 	O 	0.6806	0.33981	0.2881	-0.465
Mof_C 	C 	0.63347	0.1453	0.0612	0.081
Mof_C 	C 	0.5187	0.6777	0.8135	0.098
Mof_C 	C 	0.58236	0.5622	0.8059	0.474
Mof_C 	C 	0.65587	0.0733	0.0112	0.097
Mof_C 	C 	0.74689	0.048	0.0199	0.465
Mof_C 	C 	0.66613	0.2933	0.1716	0.416
Mof_C 	C 	0.54051	0.5945	0.881	-0.429
Mof_H 	H 	0.5515	0.6035	0.9904	0.129
Mof_H 	H 	0.5159	0.5494	0.8712	0.152
Mof_C 	C 	0.6323	0.0273	0.8842	-0.117
Mof_H 	H 	0.6464	0.9765	0.8529	0.064
Mof_C 	C 	0.70156	0.0354	0.0926	-0.414
Mof_H 	H 	0.7074	0.0604	0.1957	0.127
Mof_H 	H 	0.6967	0.9729	0.104	0.144
Mof_C 	C 	0.6539	0.1993	0.2018	-0.381
Mof_H 	H 	0.6828	0.1705	0.2526	0.125
Mof_H 	H 	0.6308	0.1989	0.2734	0.137
Mof_C 	C 	0.58975	0.171	0.983	-0.114
Mof_H 	H 	0.5746	0.22	0.0168	0.077
Mof_C 	C 	0.5166	0.8344	0.8121	-0.02
Mof_H 	H 	0.5272	0.8875	0.8574	0.032
Mof_C 	C 	0.5678	0.1259	0.8556	-0.021
Mof_H 	H 	0.5382	0.1446	0.8044	0.028
Mof_C 	C 	0.5357	0.7578	0.8751	-0.123
Mof_H 	H 	0.5601	0.7592	0.9597	0.056
Mof_C 	C 	0.5891	0.054	0.8038	-0.023
Mof_H 	H 	0.5748	0.024	0.7163	0.033
_end
