# CIF file generated by openbabel 3.1.0, see https://openbabel.org
data_I
_chemical_name_common 'image0'
_cell_length_a 12.264
_cell_length_b 12.264
_cell_length_c 5.2535
_cell_angle_alpha 90
_cell_angle_beta 90
_cell_angle_gamma 90
_space_group_name_H-M_alt 'P 1'
_space_group_name_Hall 'P 1'
loop_
    _symmetry_equiv_pos_as_xyz
    x,y,z
loop_
    _atom_site_label
    _atom_site_type_symbol
    _atom_site_fract_x
    _atom_site_fract_y
    _atom_site_fract_z
    _atom_site_occupancy
    Co1      Co       0.17871    0.51530    0.21753    1.000
    S1       S        0.06093    0.19272    0.15290    1.000
    N1       N        0.11590    0.37360    0.40190    1.000
    H1       H        0.09090    0.39570    0.52670    1.000
    C1       C        0.02440    0.33020    0.25290    1.000
    H2       H        0.95850    0.32790    0.35850    1.000
    C2       C        0.00300    0.39620    0.01640    1.000
    C3       C        0.20350    0.29360    0.43500    1.000
    H3       H        0.23410    0.30240    0.60610    1.000
    C4       C        0.29310    0.31390    0.24280    1.000
    C5       C        0.15450    0.18120    0.41560    1.000
    H4       H        0.11660    0.16170    0.57110    1.000
    H5       H        0.21020    0.12700    0.38110    1.000
    O1       O        0.91820    0.37210    0.89740    1.000
    O2       O        0.06980    0.46770    0.94600    1.000
    O3       O        0.29270    0.39880    0.11400    1.000
    O4       O        0.36740    0.24340    0.22080    1.000
    Co2      Co       0.82129    0.48470    0.71753    1.000
    S2       S        0.93907    0.80728    0.65290    1.000
    N2       N        0.88410    0.62640    0.90190    1.000
    H6       H        0.90910    0.60430    0.02670    1.000
    C6       C        0.97560    0.66980    0.75290    1.000
    H7       H        0.04150    0.67210    0.85850    1.000
    C7       C        0.99700    0.60380    0.51640    1.000
    C8       C        0.79650    0.70640    0.93500    1.000
    H8       H        0.76590    0.69760    0.10610    1.000
    C9       C        0.70690    0.68610    0.74280    1.000
    C10      C        0.84550    0.81880    0.91560    1.000
    H9       H        0.88340    0.83830    0.07110    1.000
    H10      H        0.78980    0.87300    0.88110    1.000
    O5       O        0.08180    0.62790    0.39740    1.000
    O6       O        0.93020    0.53230    0.44600    1.000
    O7       O        0.70730    0.60120    0.61400    1.000
    O8       O        0.63260    0.75660    0.72080    1.000
    Co3      Co       0.48470    0.17871    0.46753    1.000
    S3       S        0.80728    0.06093    0.40290    1.000
    N3       N        0.62640    0.11590    0.65190    1.000
    H11      H        0.60430    0.09090    0.77670    1.000
    C11      C        0.66980    0.02440    0.50290    1.000
    H12      H        0.67210    0.95850    0.60850    1.000
    C12      C        0.60380    0.00300    0.26640    1.000
    C13      C        0.70640    0.20350    0.68500    1.000
    H13      H        0.69760    0.23410    0.85610    1.000
    C14      C        0.68610    0.29310    0.49280    1.000
    C15      C        0.81880    0.15450    0.66560    1.000
    H14      H        0.83830    0.11660    0.82110    1.000
    H15      H        0.87300    0.21020    0.63110    1.000
    O9       O        0.62790    0.91820    0.14740    1.000
    O10      O        0.53230    0.06980    0.19600    1.000
    O11      O        0.60120    0.29270    0.36400    1.000
    O12      O        0.75660    0.36740    0.47080    1.000
    Co4      Co       0.51530    0.82129    0.96753    1.000
    S4       S        0.19272    0.93907    0.90290    1.000
    N4       N        0.37360    0.88410    0.15190    1.000
    H16      H        0.39570    0.90910    0.27670    1.000
    C16      C        0.33020    0.97560    0.00290    1.000
    H17      H        0.32790    0.04150    0.10850    1.000
    C17      C        0.39620    0.99700    0.76640    1.000
    C18      C        0.29360    0.79650    0.18500    1.000
    H18      H        0.30240    0.76590    0.35610    1.000
    C19      C        0.31390    0.70690    0.99280    1.000
    C20      C        0.18120    0.84550    0.16560    1.000
    H19      H        0.16170    0.88340    0.32110    1.000
    H20      H        0.12700    0.78980    0.13110    1.000
    O13      O        0.37210    0.08180    0.64740    1.000
    O14      O        0.46770    0.93020    0.69600    1.000
    O15      O        0.39880    0.70730    0.86400    1.000
    O16      O        0.24340    0.63260    0.97080    1.000
