# CIF file generated by openbabel 3.1.0, see https://openbabel.org
data_I
_chemical_name_common 'MABJUV01_clean'
_cell_length_a 8.5212
_cell_length_b 12.4803
_cell_length_c 12.4803
_cell_angle_alpha 116.201
_cell_angle_beta 98.743
_cell_angle_gamma 81.257
_space_group_name_H-M_alt 'P 1'
_space_group_name_Hall 'P 1'
loop_
    _symmetry_equiv_pos_as_xyz
    x,y,z
loop_
    _atom_site_label
    _atom_site_type_symbol
    _atom_site_fract_x
    _atom_site_fract_y
    _atom_site_fract_z
    _atom_site_occupancy
    Cu1      Cu       0.92470    0.59676    0.99160    1.000
    Cu2      Cu       0.57530    0.99160    0.59676    1.000
    Cu3      Cu       0.07530    0.40324    0.00840    1.000
    Cu4      Cu       0.42470    0.00840    0.40324    1.000
    H1       H        0.74850    0.26520    0.65520    1.000
    H2       H        0.80480    0.35630    0.61370    1.000
    H3       H        0.05110    0.23990    0.56830    1.000
    H4       H        0.00580    0.15200    0.61900    1.000
    H5       H        0.96200    0.06070    0.40770    1.000
    H6       H        0.84800    0.17560    0.40880    1.000
    H7       H        0.82720    0.85750    0.16110    1.000
    H8       H        0.65000    0.02050    0.17190    1.000
    H9       H        0.50050    0.83350    0.82370    1.000
    H10      H        0.68020    0.67540    0.82300    1.000
    H11      H        0.75150    0.65520    0.26520    1.000
    H12      H        0.69520    0.61370    0.35630    1.000
    H13      H        0.44890    0.56830    0.23990    1.000
    H14      H        0.49420    0.61900    0.15200    1.000
    H15      H        0.53800    0.40770    0.06070    1.000
    H16      H        0.65200    0.40880    0.17560    1.000
    H17      H        0.67280    0.16110    0.85750    1.000
    H18      H        0.85000    0.17190    0.02050    1.000
    H19      H        0.99950    0.82370    0.83350    1.000
    H20      H        0.81980    0.82300    0.67540    1.000
    H21      H        0.25150    0.73480    0.34480    1.000
    H22      H        0.19520    0.64370    0.38630    1.000
    H23      H        0.94890    0.76010    0.43170    1.000
    H24      H        0.99420    0.84800    0.38100    1.000
    H25      H        0.03800    0.93930    0.59230    1.000
    H26      H        0.15200    0.82440    0.59120    1.000
    H27      H        0.17280    0.14250    0.83890    1.000
    H28      H        0.35000    0.97950    0.82810    1.000
    H29      H        0.49950    0.16650    0.17630    1.000
    H30      H        0.31980    0.32460    0.17700    1.000
    H31      H        0.24850    0.34480    0.73480    1.000
    H32      H        0.30480    0.38630    0.64370    1.000
    H33      H        0.55110    0.43170    0.76010    1.000
    H34      H        0.50580    0.38100    0.84800    1.000
    H35      H        0.46200    0.59230    0.93930    1.000
    H36      H        0.34800    0.59120    0.82440    1.000
    H37      H        0.32720    0.83890    0.14250    1.000
    H38      H        0.15000    0.82810    0.97950    1.000
    H39      H        0.00050    0.17630    0.16650    1.000
    H40      H        0.18020    0.17700    0.32460    1.000
    C1       C        0.90630    0.37731    0.78129    1.000
    C2       C        0.84220    0.30242    0.65338    1.000
    C3       C        0.96160    0.20331    0.57749    1.000
    C4       C        0.88270    0.12569    0.45311    1.000
    C5       C        0.74030    0.07104    0.46072    1.000
    C6       C        0.76020    0.85255    0.09125    1.000
    C7       C        0.65470    0.95057    0.09803    1.000
    C8       C        0.55600    0.94776    0.99824    1.000
    C9       C        0.56700    0.84140    0.89460    1.000
    C10      C        0.67480    0.74730    0.89510    1.000
    C11      C        0.59370    0.78129    0.37731    1.000
    C12      C        0.65780    0.65338    0.30242    1.000
    C13      C        0.53840    0.57749    0.20331    1.000
    C14      C        0.61730    0.45311    0.12569    1.000
    C15      C        0.75970    0.46072    0.07104    1.000
    C16      C        0.73980    0.09125    0.85255    1.000
    C17      C        0.84530    0.09803    0.95057    1.000
    C18      C        0.94400    0.99824    0.94776    1.000
    C19      C        0.93300    0.89460    0.84140    1.000
    C20      C        0.82520    0.89510    0.74730    1.000
    C21      C        0.09370    0.62269    0.21871    1.000
    C22      C        0.15780    0.69758    0.34662    1.000
    C23      C        0.03840    0.79669    0.42251    1.000
    C24      C        0.11730    0.87431    0.54689    1.000
    C25      C        0.25970    0.92896    0.53928    1.000
    C26      C        0.23980    0.14745    0.90875    1.000
    C27      C        0.34530    0.04943    0.90197    1.000
    C28      C        0.44400    0.05224    0.00176    1.000
    C29      C        0.43300    0.15860    0.10540    1.000
    C30      C        0.32520    0.25270    0.10490    1.000
    C31      C        0.40630    0.21871    0.62269    1.000
    C32      C        0.34220    0.34662    0.69758    1.000
    C33      C        0.46160    0.42251    0.79669    1.000
    C34      C        0.38270    0.54689    0.87431    1.000
    C35      C        0.24030    0.53928    0.92896    1.000
    C36      C        0.26020    0.90875    0.14745    1.000
    C37      C        0.15470    0.90197    0.04943    1.000
    C38      C        0.05600    0.00176    0.05224    1.000
    C39      C        0.06700    0.10540    0.15860    1.000
    C40      C        0.17480    0.10490    0.25270    1.000
    N1       N        0.77200    0.75138    0.99102    1.000
    N2       N        0.72800    0.99102    0.75138    1.000
    N3       N        0.22800    0.24862    0.00898    1.000
    N4       N        0.27200    0.00898    0.24862    1.000
    O1       O        0.86730    0.48885    0.82267    1.000
    O2       O        0.98950    0.32432    0.83858    1.000
    O3       O        0.74960    0.03826    0.54354    1.000
    O4       O        0.62100    0.06268    0.38480    1.000
    O5       O        0.63270    0.82267    0.48885    1.000
    O6       O        0.51050    0.83858    0.32432    1.000
    O7       O        0.75040    0.54354    0.03826    1.000
    O8       O        0.87900    0.38480    0.06268    1.000
    O9       O        0.13270    0.51115    0.17733    1.000
    O10      O        0.01050    0.67568    0.16142    1.000
    O11      O        0.25040    0.96174    0.45646    1.000
    O12      O        0.37900    0.93732    0.61520    1.000
    O13      O        0.36730    0.17733    0.51115    1.000
    O14      O        0.48950    0.16142    0.67568    1.000
    O15      O        0.24960    0.45646    0.96174    1.000
    O16      O        0.12100    0.61520    0.93732    1.000
