# CIF file generated by openbabel 3.1.0, see https://openbabel.org
data_I
_chemical_name_common 'image0'
_cell_length_a 13.486
_cell_length_b 13.486
_cell_length_c 18.31
_cell_angle_alpha 90
_cell_angle_beta 90
_cell_angle_gamma 120
_space_group_name_H-M_alt 'P 1'
_space_group_name_Hall 'P 1'
loop_
    _symmetry_equiv_pos_as_xyz
    x,y,z
loop_
    _atom_site_label
    _atom_site_type_symbol
    _atom_site_fract_x
    _atom_site_fract_y
    _atom_site_fract_z
    _atom_site_occupancy
    Fe1      Fe       0.29352    0.43733    0.45609    1.000
    P1       P        0.15791    0.18893    0.37080    1.000
    H1       H        0.22730    0.19520    0.34910    1.000
    P2       P        0.50478    0.63193    0.55280    1.000
    H2       H        0.50310    0.67600    0.59490    1.000
    O1       O        0.06590    0.14050    0.31224    1.000
    O2       O        0.13080    0.11460    0.43815    1.000
    O3       O        0.32810    0.55560    0.38063    1.000
    O4       O        0.38170    0.54580    0.53510    1.000
    O5       O        0.57390    0.57630    0.57590    1.000
    O6       O        0.56650    0.71780    0.49170    1.000
    O7       O        0.18480    0.31070    0.38900    1.000
    Fe2      Fe       0.56267    0.85619    0.45609    1.000
    P3       P        0.81107    0.96898    0.37080    1.000
    H3       H        0.80480    0.03210    0.34910    1.000
    P4       P        0.36807    0.87285    0.55280    1.000
    H4       H        0.32400    0.82710    0.59490    1.000
    O8       O        0.85950    0.92540    0.31224    1.000
    O9       O        0.88540    0.01620    0.43815    1.000
    O10      O        0.44440    0.77250    0.38063    1.000
    O11      O        0.45420    0.83590    0.53510    1.000
    O12      O        0.42370    0.99760    0.57590    1.000
    O13      O        0.28220    0.84870    0.49170    1.000
    O14      O        0.68930    0.87410    0.38900    1.000
    Fe3      Fe       0.14381    0.70648    0.45609    1.000
    P5       P        0.03102    0.84209    0.37080    1.000
    H5       H        0.96790    0.77270    0.34910    1.000
    P6       P        0.12715    0.49522    0.55280    1.000
    H6       H        0.17290    0.49690    0.59490    1.000
    O15      O        0.07460    0.93410    0.31224    1.000
    O16      O        0.98380    0.86920    0.43815    1.000
    O17      O        0.22750    0.67190    0.38063    1.000
    O18      O        0.16410    0.61830    0.53510    1.000
    O19      O        0.00240    0.42610    0.57590    1.000
    O20      O        0.15130    0.43350    0.49170    1.000
    O21      O        0.12590    0.81520    0.38900    1.000
    Fe4      Fe       0.43733    0.29352    0.04391    1.000
    P7       P        0.18893    0.15791    0.12920    1.000
    H7       H        0.19520    0.22730    0.15090    1.000
    P8       P        0.63193    0.50478    0.94720    1.000
    H8       H        0.67600    0.50310    0.90510    1.000
    O22      O        0.14050    0.06590    0.18776    1.000
    O23      O        0.11460    0.13080    0.06185    1.000
    O24      O        0.55560    0.32810    0.11937    1.000
    O25      O        0.54580    0.38170    0.96490    1.000
    O26      O        0.57630    0.57390    0.92410    1.000
    O27      O        0.71780    0.56650    0.00830    1.000
    O28      O        0.31070    0.18480    0.11100    1.000
    Fe5      Fe       0.85619    0.56267    0.04391    1.000
    P9       P        0.96898    0.81107    0.12920    1.000
    H9       H        0.03210    0.80480    0.15090    1.000
    P10      P        0.87285    0.36807    0.94720    1.000
    H10      H        0.82710    0.32400    0.90510    1.000
    O29      O        0.92540    0.85950    0.18776    1.000
    O30      O        0.01620    0.88540    0.06185    1.000
    O31      O        0.77250    0.44440    0.11937    1.000
    O32      O        0.83590    0.45420    0.96490    1.000
    O33      O        0.99760    0.42370    0.92410    1.000
    O34      O        0.84870    0.28220    0.00830    1.000
    O35      O        0.87410    0.68930    0.11100    1.000
    Fe6      Fe       0.70648    0.14381    0.04391    1.000
    P11      P        0.84209    0.03102    0.12920    1.000
    H11      H        0.77270    0.96790    0.15090    1.000
    P12      P        0.49522    0.12715    0.94720    1.000
    H12      H        0.49690    0.17290    0.90510    1.000
    O36      O        0.93410    0.07460    0.18776    1.000
    O37      O        0.86920    0.98380    0.06185    1.000
    O38      O        0.67190    0.22750    0.11937    1.000
    O39      O        0.61830    0.16410    0.96490    1.000
    O40      O        0.42610    0.00240    0.92410    1.000
    O41      O        0.43350    0.15130    0.00830    1.000
    O42      O        0.81520    0.12590    0.11100    1.000
    Fe7      Fe       0.70648    0.56267    0.54391    1.000
    P13      P        0.84209    0.81107    0.62920    1.000
    H13      H        0.77270    0.80480    0.65090    1.000
    P14      P        0.49522    0.36807    0.44720    1.000
    H14      H        0.49690    0.32400    0.40510    1.000
    O43      O        0.93410    0.85950    0.68776    1.000
    O44      O        0.86920    0.88540    0.56185    1.000
    O45      O        0.67190    0.44440    0.61937    1.000
    O46      O        0.61830    0.45420    0.46490    1.000
    O47      O        0.42610    0.42370    0.42410    1.000
    O48      O        0.43350    0.28220    0.50830    1.000
    O49      O        0.81520    0.68930    0.61100    1.000
    Fe8      Fe       0.43733    0.14381    0.54391    1.000
    P15      P        0.18893    0.03102    0.62920    1.000
    H15      H        0.19520    0.96790    0.65090    1.000
    P16      P        0.63193    0.12715    0.44720    1.000
    H16      H        0.67600    0.17290    0.40510    1.000
    O50      O        0.14050    0.07460    0.68776    1.000
    O51      O        0.11460    0.98380    0.56185    1.000
    O52      O        0.55560    0.22750    0.61937    1.000
    O53      O        0.54580    0.16410    0.46490    1.000
    O54      O        0.57630    0.00240    0.42410    1.000
    O55      O        0.71780    0.15130    0.50830    1.000
    O56      O        0.31070    0.12590    0.61100    1.000
    Fe9      Fe       0.85619    0.29352    0.54391    1.000
    P17      P        0.96898    0.15791    0.62920    1.000
    H17      H        0.03210    0.22730    0.65090    1.000
    P18      P        0.87285    0.50478    0.44720    1.000
    H18      H        0.82710    0.50310    0.40510    1.000
    O57      O        0.92540    0.06590    0.68776    1.000
    O58      O        0.01620    0.13080    0.56185    1.000
    O59      O        0.77250    0.32810    0.61937    1.000
    O60      O        0.83590    0.38170    0.46490    1.000
    O61      O        0.99760    0.57390    0.42410    1.000
    O62      O        0.84870    0.56650    0.50830    1.000
    O63      O        0.87410    0.18480    0.61100    1.000
    Fe10     Fe       0.56267    0.70648    0.95609    1.000
    P19      P        0.81107    0.84209    0.87080    1.000
    H19      H        0.80480    0.77270    0.84910    1.000
    P20      P        0.36807    0.49522    0.05280    1.000
    H20      H        0.32400    0.49690    0.09490    1.000
    O64      O        0.85950    0.93410    0.81224    1.000
    O65      O        0.88540    0.86920    0.93815    1.000
    O66      O        0.44440    0.67190    0.88063    1.000
    O67      O        0.45420    0.61830    0.03510    1.000
    O68      O        0.42370    0.42610    0.07590    1.000
    O69      O        0.28220    0.43350    0.99170    1.000
    O70      O        0.68930    0.81520    0.88900    1.000
    Fe11     Fe       0.14381    0.43733    0.95609    1.000
    P21      P        0.03102    0.18893    0.87080    1.000
    H21      H        0.96790    0.19520    0.84910    1.000
    P22      P        0.12715    0.63193    0.05280    1.000
    H22      H        0.17290    0.67600    0.09490    1.000
    O71      O        0.07460    0.14050    0.81224    1.000
    O72      O        0.98380    0.11460    0.93815    1.000
    O73      O        0.22750    0.55560    0.88063    1.000
    O74      O        0.16410    0.54580    0.03510    1.000
    O75      O        0.00240    0.57630    0.07590    1.000
    O76      O        0.15130    0.71780    0.99170    1.000
    O77      O        0.12590    0.31070    0.88900    1.000
    Fe12     Fe       0.29352    0.85619    0.95609    1.000
    P23      P        0.15791    0.96898    0.87080    1.000
    H23      H        0.22730    0.03210    0.84910    1.000
    P24      P        0.50478    0.87285    0.05280    1.000
    H24      H        0.50310    0.82710    0.09490    1.000
    O78      O        0.06590    0.92540    0.81224    1.000
    O79      O        0.13080    0.01620    0.93815    1.000
    O80      O        0.32810    0.77250    0.88063    1.000
    O81      O        0.38170    0.83590    0.03510    1.000
    O82      O        0.57390    0.99760    0.07590    1.000
    O83      O        0.56650    0.84870    0.99170    1.000
    O84      O        0.18480    0.87410    0.88900    1.000
    Fe13     Fe       0.00000    0.00000    0.25000    1.000
    Fe14     Fe       0.00000    0.00000    0.75000    1.000
    Fe15     Fe       0.00000    0.00000    0.50000    1.000
    Fe16     Fe       0.00000    0.00000    0.00000    1.000
    P25      P        0.33333    0.66667    0.36092    1.000
    P26      P        0.66667    0.33333    0.13908    1.000
    P27      P        0.66667    0.33333    0.63908    1.000
    P28      P        0.33333    0.66667    0.86092    1.000
