data_functionalizedCrystal
_audit_creation_method	'EQeq! by Chris Wilmer'
_symmetry_space_group_name_H-M	'P1'
_symmetry_Int_Tables_number	1
_symmetry_cell_setting	triclinic
loop_
_symmetry_equiv_pos_as_xyz
  x,y,z
_cell_length_a	16.746
_cell_length_b	14.223
_cell_length_c	12.321
_cell_angle_alpha	90
_cell_angle_beta	113.653
_cell_angle_gamma	90
loop_
_atom_site_label
_atom_site_type_symbol
_atom_site_fract_x
_atom_site_fract_y
_atom_site_fract_z
_atom_site_charge
Mof_N 	N 	0.9188	0.3297	0.7824	-0.14
Mof_C 	C 	0.8919	0.2569	0.7073	0.048
Mof_C 	C 	0.8931	0.3297	0.8736	0.017
Mof_C 	C 	0.8428	0.1848	0.7217	-0.086
Mof_H 	H 	0.9073	0.2552	0.6427	0.016
Mof_C 	C 	0.8413	0.2624	0.8931	-0.02
Mof_H 	H 	0.9119	0.3791	0.9273	0.019
Mof_C 	C 	0.8165	0.1866	0.8148	-0.014
Mof_H 	H 	0.8272	0.1346	0.6689	0.054
Mof_C 	C 	0.8084	0.2775	0.9887	0.027
Mof_H 	H 	0.7828	0.1381	0.8249	0.037
Mof_C 	C 	0.792	0.1931	0.0552	-0.152
Mof_H 	H 	0.845	0.3239	0.0457	0.034
Mof_H 	H 	0.7991	0.1331	0.0211	0.073
Mof_C 	C 	0.8415	0.1951	0.1878	0.24
Mof_N 	N 	0.8255	0.1239	0.2463	-0.208
Mof_O 	O 	0.8901	0.2605	0.2394	-0.236
Mof_C 	C 	0.8526	0.1229	0.3747	-0.112
Mof_H 	H 	0.7977	0.0759	0.2064	0.117
Mof_C 	C 	0.929	0.0593	0.4391	0.106
Mof_H 	H 	0.8037	0.1031	0.3924	0.06
Mof_H 	H 	0.8679	0.1864	0.4045	0.081
Mof_C 	C 	0.9306	0.0048	0.5324	-0.121
Mof_C 	C 	0.0001	0.0535	0.4077	-0.133
Mof_H 	H 	0.8841	0.0076	0.5553	0.064
Mof_H 	H 	0.0007	0.0896	0.3451	0.082
Mof_N 	N 	0.4188	0.8297	0.7824	-0.147
Mof_C 	C 	0.3919	0.7569	0.7073	0.047
Mof_C 	C 	0.3931	0.8297	0.8736	0.017
Mof_C 	C 	0.3428	0.6848	0.7217	-0.088
Mof_H 	H 	0.4073	0.7552	0.6427	0.012
Mof_C 	C 	0.3413	0.7624	0.8931	-0.023
Mof_H 	H 	0.4119	0.8791	0.9273	0.015
Mof_C 	C 	0.3165	0.6866	0.8148	-0.014
Mof_H 	H 	0.3272	0.6346	0.6689	0.054
Mof_C 	C 	0.3084	0.7775	0.9887	0.029
Mof_H 	H 	0.2828	0.6381	0.8249	0.036
Mof_C 	C 	0.292	0.6931	0.0552	-0.155
Mof_H 	H 	0.345	0.8239	0.0457	0.032
Mof_H 	H 	0.2991	0.6331	0.0211	0.074
Mof_C 	C 	0.3415	0.6951	0.1878	0.242
Mof_N 	N 	0.3255	0.6239	0.2463	-0.214
Mof_O 	O 	0.3901	0.7605	0.2394	-0.241
Mof_C 	C 	0.3526	0.6229	0.3747	-0.081
Mof_H 	H 	0.2977	0.5759	0.2064	0.119
Mof_C 	C 	0.429	0.5593	0.4391	0.047
Mof_H 	H 	0.3037	0.6031	0.3924	0.051
Mof_H 	H 	0.3679	0.6864	0.4045	0.07
Mof_C 	C 	0.4306	0.5048	0.5324	-0.066
Mof_C 	C 	0.5001	0.5535	0.4077	-0.063
Mof_H 	H 	0.3841	0.5076	0.5553	0.044
Mof_H 	H 	0.5007	0.5896	0.3451	0.064
Mof_N 	N 	0.0812	0.3297	0.7176	-0.148
Mof_C 	C 	0.1081	0.2569	0.7927	0.046
Mof_C 	C 	0.1069	0.3297	0.6264	0.017
Mof_C 	C 	0.1572	0.1848	0.7783	-0.09
Mof_H 	H 	0.0927	0.2552	0.8573	0.01
Mof_C 	C 	0.1587	0.2624	0.6069	-0.026
Mof_H 	H 	0.0881	0.3791	0.5727	0.013
Mof_C 	C 	0.1835	0.1866	0.6852	-0.013
Mof_H 	H 	0.1728	0.1346	0.8311	0.054
Mof_C 	C 	0.1916	0.2775	0.5113	0.034
Mof_H 	H 	0.2172	0.1381	0.6751	0.036
Mof_C 	C 	0.208	0.1931	0.4448	-0.158
Mof_H 	H 	0.155	0.3239	0.4543	0.027
Mof_H 	H 	0.2009	0.1331	0.4789	0.074
Mof_C 	C 	0.1585	0.1951	0.3122	0.243
Mof_N 	N 	0.1745	0.1239	0.2537	-0.219
Mof_O 	O 	0.1099	0.2605	0.2606	-0.246
Mof_C 	C 	0.1474	0.1229	0.1253	-0.054
Mof_H 	H 	0.2023	0.0759	0.2936	0.12
Mof_C 	C 	0.071	0.0593	0.0609	-0.005
Mof_H 	H 	0.1963	0.1031	0.1076	0.044
Mof_H 	H 	0.1321	0.1864	0.0955	0.061
Mof_C 	C 	0.0694	0.0048	0.9676	-0.018
Mof_C 	C 	0.9999	0.0535	0.0923	-0.001
Mof_H 	H 	0.1159	0.0076	0.9447	0.026
Mof_H 	H 	0.9993	0.0896	0.1549	0.049
Mof_N 	N 	0.5812	0.8297	0.7176	-0.147
Mof_C 	C 	0.6081	0.7569	0.7927	0.047
Mof_C 	C 	0.6069	0.8297	0.6264	0.017
Mof_C 	C 	0.6572	0.6848	0.7783	-0.088
Mof_H 	H 	0.5927	0.7552	0.8573	0.012
Mof_C 	C 	0.6587	0.7624	0.6069	-0.024
Mof_H 	H 	0.5881	0.8791	0.5727	0.015
Mof_C 	C 	0.6835	0.6866	0.6852	-0.013
Mof_H 	H 	0.6728	0.6346	0.8311	0.054
Mof_C 	C 	0.6916	0.7775	0.5113	0.033
Mof_H 	H 	0.7172	0.6381	0.6751	0.037
Mof_C 	C 	0.708	0.6931	0.4448	-0.155
Mof_H 	H 	0.655	0.8239	0.4543	0.029
Mof_H 	H 	0.7009	0.6331	0.4789	0.074
Mof_C 	C 	0.6585	0.6951	0.3122	0.242
Mof_N 	N 	0.6745	0.6239	0.2537	-0.213
Mof_O 	O 	0.6099	0.7605	0.2606	-0.241
Mof_C 	C 	0.6474	0.6229	0.1253	-0.087
Mof_H 	H 	0.7023	0.5759	0.2936	0.119
Mof_C 	C 	0.571	0.5593	0.0609	0.056
Mof_H 	H 	0.6963	0.6031	0.1076	0.054
Mof_H 	H 	0.6321	0.6864	0.0955	0.072
Mof_C 	C 	0.5694	0.5048	0.9676	-0.078
Mof_C 	C 	0.4999	0.5535	0.0923	-0.072
Mof_H 	H 	0.6159	0.5076	0.9447	0.048
Mof_H 	H 	0.4993	0.5896	0.1549	0.067
Mof_N 	N 	0.0812	0.6703	0.2176	-0.148
Mof_C 	C 	0.1081	0.7431	0.2927	0.046
Mof_C 	C 	0.1069	0.6703	0.1264	0.018
Mof_C 	C 	0.1572	0.8152	0.2783	-0.091
Mof_H 	H 	0.0927	0.7448	0.3573	0.01
Mof_C 	C 	0.1587	0.7376	0.1069	-0.027
Mof_H 	H 	0.0881	0.6209	0.0727	0.014
Mof_C 	C 	0.1835	0.8134	0.1852	-0.011
Mof_H 	H 	0.1728	0.8654	0.3311	0.055
Mof_C 	C 	0.1916	0.7225	0.0113	0.04
Mof_H 	H 	0.2172	0.8619	0.1751	0.036
Mof_C 	C 	0.208	0.8069	0.9448	-0.159
Mof_H 	H 	0.155	0.6761	0.9543	0.024
Mof_H 	H 	0.2009	0.8669	0.9789	0.073
Mof_C 	C 	0.1585	0.8049	0.8122	0.244
Mof_N 	N 	0.1745	0.8761	0.7537	-0.219
Mof_O 	O 	0.1099	0.7395	0.7606	-0.246
Mof_C 	C 	0.1474	0.8771	0.6253	-0.051
Mof_H 	H 	0.2023	0.9241	0.7936	0.12
Mof_C 	C 	0.071	0.9407	0.5609	-0.012
Mof_H 	H 	0.1963	0.8969	0.6076	0.042
Mof_H 	H 	0.1321	0.8136	0.5955	0.059
Mof_C 	C 	0.0694	0.9952	0.4676	-0.012
Mof_C 	C 	0.9999	0.9465	0.5923	0.006
Mof_H 	H 	0.1159	0.9924	0.4447	0.025
Mof_H 	H 	0.9993	0.9104	0.6549	0.046
Mof_N 	N 	0.5812	0.1703	0.2176	-0.147
Mof_C 	C 	0.6081	0.2431	0.2927	0.047
Mof_C 	C 	0.6069	0.1703	0.1264	0.018
Mof_C 	C 	0.6572	0.3152	0.2783	-0.089
Mof_H 	H 	0.5927	0.2448	0.3573	0.012
Mof_C 	C 	0.6587	0.2376	0.1069	-0.024
Mof_H 	H 	0.5881	0.1209	0.0727	0.016
Mof_C 	C 	0.6835	0.3134	0.1852	-0.012
Mof_H 	H 	0.6728	0.3654	0.3311	0.055
Mof_C 	C 	0.6916	0.2225	0.0113	0.036
Mof_H 	H 	0.7172	0.3619	0.1751	0.037
Mof_C 	C 	0.708	0.3069	0.9448	-0.156
Mof_H 	H 	0.655	0.1761	0.9543	0.026
Mof_H 	H 	0.7009	0.3669	0.9789	0.073
Mof_C 	C 	0.6585	0.3049	0.8122	0.242
Mof_N 	N 	0.6745	0.3761	0.7537	-0.214
Mof_O 	O 	0.6099	0.2395	0.7606	-0.242
Mof_C 	C 	0.6474	0.3771	0.6253	-0.082
Mof_H 	H 	0.7023	0.4241	0.7936	0.119
Mof_C 	C 	0.571	0.4407	0.5609	0.048
Mof_H 	H 	0.6963	0.3969	0.6076	0.052
Mof_H 	H 	0.6321	0.3136	0.5955	0.07
Mof_C 	C 	0.5694	0.4952	0.4676	-0.067
Mof_C 	C 	0.4999	0.4465	0.5923	-0.064
Mof_H 	H 	0.6159	0.4924	0.4447	0.045
Mof_H 	H 	0.4993	0.4104	0.6549	0.064
Mof_N 	N 	0.9188	0.6703	0.2824	-0.141
Mof_C 	C 	0.8919	0.7431	0.2073	0.048
Mof_C 	C 	0.8931	0.6703	0.3736	0.018
Mof_C 	C 	0.8428	0.8152	0.2217	-0.086
Mof_H 	H 	0.9073	0.7448	0.1427	0.016
Mof_C 	C 	0.8413	0.7376	0.3931	-0.021
Mof_H 	H 	0.9119	0.6209	0.4273	0.02
Mof_C 	C 	0.8165	0.8134	0.3148	-0.013
Mof_H 	H 	0.8272	0.8654	0.1689	0.054
Mof_C 	C 	0.8084	0.7225	0.4887	0.032
Mof_H 	H 	0.7828	0.8619	0.3249	0.037
Mof_C 	C 	0.792	0.8069	0.5552	-0.154
Mof_H 	H 	0.845	0.6761	0.5457	0.031
Mof_H 	H 	0.7991	0.8669	0.5211	0.073
Mof_C 	C 	0.8415	0.8049	0.6878	0.241
Mof_N 	N 	0.8255	0.8761	0.7463	-0.208
Mof_O 	O 	0.8901	0.7395	0.7394	-0.236
Mof_C 	C 	0.8526	0.8771	0.8747	-0.107
Mof_H 	H 	0.7977	0.9241	0.7064	0.117
Mof_C 	C 	0.929	0.9407	0.9391	0.097
Mof_H 	H 	0.8037	0.8969	0.8924	0.058
Mof_H 	H 	0.8679	0.8136	0.9045	0.079
Mof_C 	C 	0.9306	0.9952	0.0324	-0.111
Mof_C 	C 	0.0001	0.9465	0.9077	-0.129
Mof_H 	H 	0.8841	0.9924	0.0553	0.061
Mof_H 	H 	0.0007	0.9104	0.8451	0.08
Mof_N 	N 	0.4188	0.1703	0.2824	-0.147
Mof_C 	C 	0.3919	0.2431	0.2073	0.047
Mof_C 	C 	0.3931	0.1703	0.3736	0.018
Mof_C 	C 	0.3428	0.3152	0.2217	-0.089
Mof_H 	H 	0.4073	0.2448	0.1427	0.013
Mof_C 	C 	0.3413	0.2376	0.3931	-0.024
Mof_H 	H 	0.4119	0.1209	0.4273	0.015
Mof_C 	C 	0.3165	0.3134	0.3148	-0.012
Mof_H 	H 	0.3272	0.3654	0.1689	0.055
Mof_C 	C 	0.3084	0.2225	0.4887	0.034
Mof_H 	H 	0.2828	0.3619	0.3249	0.036
Mof_C 	C 	0.292	0.3069	0.5552	-0.157
Mof_H 	H 	0.345	0.1761	0.5457	0.028
Mof_H 	H 	0.2991	0.3669	0.5211	0.074
Mof_C 	C 	0.3415	0.3049	0.6878	0.243
Mof_N 	N 	0.3255	0.3761	0.7463	-0.214
Mof_O 	O 	0.3901	0.2395	0.7394	-0.242
Mof_C 	C 	0.3526	0.3771	0.8747	-0.076
Mof_H 	H 	0.2977	0.4241	0.7064	0.119
Mof_C 	C 	0.429	0.4407	0.9391	0.038
Mof_H 	H 	0.3037	0.3969	0.8924	0.049
Mof_H 	H 	0.3679	0.3136	0.9045	0.068
Mof_C 	C 	0.4306	0.4952	0.0324	-0.056
Mof_C 	C 	0.5001	0.4465	0.9077	-0.055
Mof_H 	H 	0.3841	0.4924	0.0553	0.041
Mof_H 	H 	0.5007	0.4104	0.8451	0.061
Mof_Cd	Cd	-4.22932e-17	0.45114	0.75	0.264
Mof_Cd	Cd	0.5	0.95114	0.75	0.277
Mof_Cd	Cd	-1.05733e-17	0.54886	0.25	0.265
Mof_Cd	Cd	0.5	0.04886	0.25	0.278
_end
