# CIF file generated by openbabel 3.1.0, see https://openbabel.org
data_I
_chemical_name_common 'image0'
_cell_length_a 9.3468
_cell_length_b 15.2267
_cell_length_c 17.6517
_cell_angle_alpha 90
_cell_angle_beta 95.599
_cell_angle_gamma 90
_space_group_name_H-M_alt 'P 1'
_space_group_name_Hall 'P 1'
loop_
    _symmetry_equiv_pos_as_xyz
    x,y,z
loop_
    _atom_site_label
    _atom_site_type_symbol
    _atom_site_fract_x
    _atom_site_fract_y
    _atom_site_fract_z
    _atom_site_occupancy
    Zn1      Zn       0.92742    0.60963    0.33770    1.000
    O1       O        0.73320    0.56940    0.35880    1.000
    O2       O        0.80320    0.46220    0.44180    1.000
    O3       O        0.45470    0.53770    0.37520    1.000
    O4       O        0.20340    0.62030    0.32700    1.000
    O5       O        0.07490    0.52360    0.38350    1.000
    O6       O        0.94160    0.71920    0.39830    1.000
    O7       O        0.94570    0.64350    0.50840    1.000
    O8       O        0.91610    0.79880    0.58540    1.000
    O9       O        0.88020    0.98430    0.70570    1.000
    O10      O        0.91010    0.84340    0.73320    1.000
    C1       C        0.71060    0.50490    0.40040    1.000
    C2       C        0.55860    0.47970    0.40360    1.000
    C3       C        0.49650    0.40690    0.43260    1.000
    H1       H        0.54380    0.35780    0.45420    1.000
    C4       C        0.34510    0.42140    0.42290    1.000
    H2       H        0.27410    0.38370    0.43710    1.000
    C5       C        0.32480    0.50050    0.38900    1.000
    C6       C        0.19590    0.55430    0.36470    1.000
    C7       C        0.93820    0.71180    0.47080    1.000
    C8       C        0.91600    0.79860    0.50790    1.000
    C9       C        0.89240    0.88000    0.48000    1.000
    H3       H        0.88640    0.89650    0.42900    1.000
    C10      C        0.87850    0.93550    0.54260    1.000
    H4       H        0.86260    0.99580    0.54080    1.000
    C11      C        0.89220    0.88600    0.60440    1.000
    C12      C        0.89530    0.90740    0.68690    1.000
    Zn2      Zn       0.07258    0.10963    0.16230    1.000
    O11      O        0.26680    0.06940    0.14120    1.000
    O12      O        0.19680    0.96220    0.05820    1.000
    O13      O        0.54530    0.03770    0.12480    1.000
    O14      O        0.79660    0.12030    0.17300    1.000
    O15      O        0.92510    0.02360    0.11650    1.000
    O16      O        0.05840    0.21920    0.10170    1.000
    O17      O        0.05430    0.14350    0.99160    1.000
    O18      O        0.08390    0.29880    0.91460    1.000
    O19      O        0.11980    0.48430    0.79430    1.000
    O20      O        0.08990    0.34340    0.76680    1.000
    C13      C        0.28940    0.00490    0.09960    1.000
    C14      C        0.44140    0.97970    0.09640    1.000
    C15      C        0.50350    0.90690    0.06740    1.000
    H5       H        0.45620    0.85780    0.04580    1.000
    C16      C        0.65490    0.92140    0.07710    1.000
    H6       H        0.72590    0.88370    0.06290    1.000
    C17      C        0.67520    0.00050    0.11100    1.000
    C18      C        0.80410    0.05430    0.13530    1.000
    C19      C        0.06180    0.21180    0.02920    1.000
    C20      C        0.08400    0.29860    0.99210    1.000
    C21      C        0.10760    0.38000    0.02000    1.000
    H7       H        0.11360    0.39650    0.07100    1.000
    C22      C        0.12150    0.43550    0.95740    1.000
    H8       H        0.13740    0.49580    0.95920    1.000
    C23      C        0.10780    0.38600    0.89560    1.000
    C24      C        0.10470    0.40740    0.81310    1.000
    Zn3      Zn       0.07258    0.39037    0.66230    1.000
    O21      O        0.26680    0.43060    0.64120    1.000
    O22      O        0.19680    0.53780    0.55820    1.000
    O23      O        0.54530    0.46230    0.62480    1.000
    O24      O        0.79660    0.37970    0.67300    1.000
    O25      O        0.92510    0.47640    0.61650    1.000
    O26      O        0.05840    0.28080    0.60170    1.000
    O27      O        0.05430    0.35650    0.49160    1.000
    O28      O        0.08390    0.20120    0.41460    1.000
    O29      O        0.11980    0.01570    0.29430    1.000
    O30      O        0.08990    0.15660    0.26680    1.000
    C25      C        0.28940    0.49510    0.59960    1.000
    C26      C        0.44140    0.52030    0.59640    1.000
    C27      C        0.50350    0.59310    0.56740    1.000
    H9       H        0.45620    0.64220    0.54580    1.000
    C28      C        0.65490    0.57860    0.57710    1.000
    H10      H        0.72590    0.61630    0.56290    1.000
    C29      C        0.67520    0.49950    0.61100    1.000
    C30      C        0.80410    0.44570    0.63530    1.000
    C31      C        0.06180    0.28820    0.52920    1.000
    C32      C        0.08400    0.20140    0.49210    1.000
    C33      C        0.10760    0.12000    0.52000    1.000
    H11      H        0.11360    0.10350    0.57100    1.000
    C34      C        0.12150    0.06450    0.45740    1.000
    H12      H        0.13740    0.00420    0.45920    1.000
    C35      C        0.10780    0.11400    0.39560    1.000
    C36      C        0.10470    0.09260    0.31310    1.000
    Zn4      Zn       0.92742    0.89037    0.83770    1.000
    O31      O        0.73320    0.93060    0.85880    1.000
    O32      O        0.80320    0.03780    0.94180    1.000
    O33      O        0.45470    0.96230    0.87520    1.000
    O34      O        0.20340    0.87970    0.82700    1.000
    O35      O        0.07490    0.97640    0.88350    1.000
    O36      O        0.94160    0.78080    0.89830    1.000
    O37      O        0.94570    0.85650    0.00840    1.000
    O38      O        0.91610    0.70120    0.08540    1.000
    O39      O        0.88020    0.51570    0.20570    1.000
    O40      O        0.91010    0.65660    0.23320    1.000
    C37      C        0.71060    0.99510    0.90040    1.000
    C38      C        0.55860    0.02030    0.90360    1.000
    C39      C        0.49650    0.09310    0.93260    1.000
    H13      H        0.54380    0.14220    0.95420    1.000
    C40      C        0.34510    0.07860    0.92290    1.000
    H14      H        0.27410    0.11630    0.93710    1.000
    C41      C        0.32480    0.99950    0.88900    1.000
    C42      C        0.19590    0.94570    0.86470    1.000
    C43      C        0.93820    0.78820    0.97080    1.000
    C44      C        0.91600    0.70140    0.00790    1.000
    C45      C        0.89240    0.62000    0.98000    1.000
    H15      H        0.88640    0.60350    0.92900    1.000
    C46      C        0.87850    0.56450    0.04260    1.000
    H16      H        0.86260    0.50420    0.04080    1.000
    C47      C        0.89220    0.61400    0.10440    1.000
    C48      C        0.89530    0.59260    0.18690    1.000
    Zn5      Zn       0.00000    0.50000    0.50000    1.000
    Zn6      Zn       0.00000    0.00000    0.00000    1.000
