# CIF file generated by openbabel 3.1.0, see https://openbabel.org
data_I
_chemical_name_common 'image0'
_cell_length_a 14.6615
_cell_length_b 14.6615
_cell_length_c 9.6146
_cell_angle_alpha 90
_cell_angle_beta 90
_cell_angle_gamma 90
_space_group_name_H-M_alt 'P 1'
_space_group_name_Hall 'P 1'
loop_
    _symmetry_equiv_pos_as_xyz
    x,y,z
loop_
    _atom_site_label
    _atom_site_type_symbol
    _atom_site_fract_x
    _atom_site_fract_y
    _atom_site_fract_z
    _atom_site_occupancy
    Al1      Al       0.50760    0.13600    0.39990    1.000
    P1       P        0.51120    0.14780    0.06420    1.000
    O1       O        0.54520    0.13590    0.20970    1.000
    O2       O        0.42610    0.09490    0.03470    1.000
    O3       O        0.49870    0.24710    0.02380    1.000
    O4       O        0.58590    0.11560    0.96960    1.000
    Al2      Al       0.99240    0.36400    0.39990    1.000
    P2       P        0.98880    0.35220    0.06420    1.000
    O5       O        0.95480    0.36410    0.20970    1.000
    O6       O        0.07390    0.40510    0.03470    1.000
    O7       O        0.00130    0.25290    0.02380    1.000
    O8       O        0.91410    0.38440    0.96960    1.000
    Al3      Al       0.36400    0.50760    0.39990    1.000
    P3       P        0.35220    0.51120    0.06420    1.000
    O9       O        0.36410    0.54520    0.20970    1.000
    O10      O        0.40510    0.42610    0.03470    1.000
    O11      O        0.25290    0.49870    0.02380    1.000
    O12      O        0.38440    0.58590    0.96960    1.000
    Al4      Al       0.13600    0.99240    0.39990    1.000
    P4       P        0.14780    0.98880    0.06420    1.000
    O13      O        0.13590    0.95480    0.20970    1.000
    O14      O        0.09490    0.07390    0.03470    1.000
    O15      O        0.24710    0.00130    0.02380    1.000
    O16      O        0.11560    0.91410    0.96960    1.000
    Al5      Al       0.99240    0.13600    0.10010    1.000
    P5       P        0.98880    0.14780    0.43580    1.000
    O17      O        0.95480    0.13590    0.29030    1.000
    O18      O        0.07390    0.09490    0.46530    1.000
    O19      O        0.00130    0.24710    0.47620    1.000
    O20      O        0.91410    0.11560    0.53040    1.000
    Al6      Al       0.50760    0.36400    0.10010    1.000
    P6       P        0.51120    0.35220    0.43580    1.000
    O21      O        0.54520    0.36410    0.29030    1.000
    O22      O        0.42610    0.40510    0.46530    1.000
    O23      O        0.49870    0.25290    0.47620    1.000
    O24      O        0.58590    0.38440    0.53040    1.000
    Al7      Al       0.13600    0.50760    0.10010    1.000
    P7       P        0.14780    0.51120    0.43580    1.000
    O25      O        0.13590    0.54520    0.29030    1.000
    O26      O        0.09490    0.42610    0.46530    1.000
    O27      O        0.24710    0.49870    0.47620    1.000
    O28      O        0.11560    0.58590    0.53040    1.000
    Al8      Al       0.36400    0.99240    0.10010    1.000
    P8       P        0.35220    0.98880    0.43580    1.000
    O29      O        0.36410    0.95480    0.29030    1.000
    O30      O        0.40510    0.07390    0.46530    1.000
    O31      O        0.25290    0.00130    0.47620    1.000
    O32      O        0.38440    0.91410    0.53040    1.000
    Al9      Al       0.49240    0.86400    0.60010    1.000
    P9       P        0.48880    0.85220    0.93580    1.000
    O33      O        0.45480    0.86410    0.79030    1.000
    O34      O        0.57390    0.90510    0.96530    1.000
    O35      O        0.50130    0.75290    0.97620    1.000
    O36      O        0.41410    0.88440    0.03040    1.000
    Al10     Al       0.00760    0.63600    0.60010    1.000
    P10      P        0.01120    0.64780    0.93580    1.000
    O37      O        0.04520    0.63590    0.79030    1.000
    O38      O        0.92610    0.59490    0.96530    1.000
    O39      O        0.99870    0.74710    0.97620    1.000
    O40      O        0.08590    0.61560    0.03040    1.000
    Al11     Al       0.63600    0.49240    0.60010    1.000
    P11      P        0.64780    0.48880    0.93580    1.000
    O41      O        0.63590    0.45480    0.79030    1.000
    O42      O        0.59490    0.57390    0.96530    1.000
    O43      O        0.74710    0.50130    0.97620    1.000
    O44      O        0.61560    0.41410    0.03040    1.000
    Al12     Al       0.86400    0.00760    0.60010    1.000
    P12      P        0.85220    0.01120    0.93580    1.000
    O45      O        0.86410    0.04520    0.79030    1.000
    O46      O        0.90510    0.92610    0.96530    1.000
    O47      O        0.75290    0.99870    0.97620    1.000
    O48      O        0.88440    0.08590    0.03040    1.000
    Al13     Al       0.00760    0.86400    0.89990    1.000
    P13      P        0.01120    0.85220    0.56420    1.000
    O49      O        0.04520    0.86410    0.70970    1.000
    O50      O        0.92610    0.90510    0.53470    1.000
    O51      O        0.99870    0.75290    0.52380    1.000
    O52      O        0.08590    0.88440    0.46960    1.000
    Al14     Al       0.49240    0.63600    0.89990    1.000
    P14      P        0.48880    0.64780    0.56420    1.000
    O53      O        0.45480    0.63590    0.70970    1.000
    O54      O        0.57390    0.59490    0.53470    1.000
    O55      O        0.50130    0.74710    0.52380    1.000
    O56      O        0.41410    0.61560    0.46960    1.000
    Al15     Al       0.86400    0.49240    0.89990    1.000
    P15      P        0.85220    0.48880    0.56420    1.000
    O57      O        0.86410    0.45480    0.70970    1.000
    O58      O        0.90510    0.57390    0.53470    1.000
    O59      O        0.75290    0.50130    0.52380    1.000
    O60      O        0.88440    0.41410    0.46960    1.000
    Al16     Al       0.63600    0.00760    0.89990    1.000
    P16      P        0.64780    0.01120    0.56420    1.000
    O61      O        0.63590    0.04520    0.70970    1.000
    O62      O        0.59490    0.92610    0.53470    1.000
    O63      O        0.74710    0.99870    0.52380    1.000
    O64      O        0.61560    0.08590    0.46960    1.000
