data_functionalizedCrystal
_audit_creation_method	'EQeq! by Chris Wilmer'
_symmetry_space_group_name_H-M	'P1'
_symmetry_Int_Tables_number	1
_symmetry_cell_setting	triclinic
loop_
_symmetry_equiv_pos_as_xyz
  x,y,z
_cell_length_a	12.133
_cell_length_b	25.156
_cell_length_c	7.6373
_cell_angle_alpha	90
_cell_angle_beta	93.317
_cell_angle_gamma	90
loop_
_atom_site_label
_atom_site_type_symbol
_atom_site_fract_x
_atom_site_fract_y
_atom_site_fract_z
_atom_site_charge
Mof_Mn	Mn	0.80938	0.62358	0.29714	0.766
Mof_N 	N 	0.7055	0.6166	0.5264	-0.192
Mof_N 	N 	0.7031	0.5662	0.1494	-0.195
Mof_N 	N 	0.6996	0.69475	0.2112	-0.175
Mof_O 	O 	0.4261	0.82293	0.931	-0.355
Mof_O 	O 	0.5874	0.86691	0.9331	-0.357
Mof_C 	C 	0.6323	0.6123	0.6108	0.043
Mof_C 	C 	0.6307	0.5407	0.0942	0.036
Mof_C 	C 	0.6057	0.6883	0.1101	0.05
Mof_H 	H 	0.5786	0.6543	0.0863	0.002
Mof_C 	C 	0.5491	0.7326	0.0412	-0.08
Mof_H 	H 	0.4826	0.7273	0.9768	0.066
Mof_C 	C 	0.5843	0.7793	0.0625	-0.021
Mof_C 	C 	0.6788	0.788	0.1673	-0.081
Mof_H 	H 	0.7059	0.8223	0.1866	0.065
Mof_C 	C 	0.7318	0.7448	0.2424	0.06
Mof_H 	H 	0.7932	0.7507	0.3187	0.015
Mof_C 	C 	0.5279	0.8274	0.9691	0.322
Mof_Mn	Mn	0.30938	0.12358	0.29714	0.766
Mof_N 	N 	0.2055	0.1166	0.5264	-0.192
Mof_N 	N 	0.2031	0.0662	0.1494	-0.195
Mof_N 	N 	0.1996	0.19475	0.2112	-0.176
Mof_O 	O 	0.9261	0.32293	0.931	-0.352
Mof_O 	O 	0.0874	0.36691	0.9331	-0.356
Mof_C 	C 	0.1323	0.1123	0.6108	0.043
Mof_C 	C 	0.1307	0.0407	0.0942	0.037
Mof_C 	C 	0.1057	0.1883	0.1101	0.055
Mof_H 	H 	0.0786	0.1543	0.0863	0
Mof_C 	C 	0.0491	0.2326	0.0412	-0.09
Mof_H 	H 	0.9826	0.2273	0.9768	0.072
Mof_C 	C 	0.0843	0.2793	0.0625	-0.014
Mof_C 	C 	0.1788	0.288	0.1673	-0.085
Mof_H 	H 	0.2059	0.3223	0.1866	0.067
Mof_C 	C 	0.2318	0.2448	0.2424	0.063
Mof_H 	H 	0.2932	0.2507	0.3187	0.014
Mof_C 	C 	0.0279	0.3274	0.9691	0.316
Mof_Mn	Mn	0.19062	0.62358	0.20286	0.766
Mof_N 	N 	0.2945	0.6166	0.9736	-0.192
Mof_N 	N 	0.2969	0.5662	0.3506	-0.195
Mof_N 	N 	0.3004	0.69475	0.2888	-0.174
Mof_O 	O 	0.5739	0.82293	0.569	-0.355
Mof_O 	O 	0.4126	0.86691	0.5669	-0.357
Mof_C 	C 	0.3677	0.6123	0.8892	0.043
Mof_C 	C 	0.3693	0.5407	0.4058	0.036
Mof_C 	C 	0.3943	0.6883	0.3899	0.049
Mof_H 	H 	0.4214	0.6543	0.4137	0.003
Mof_C 	C 	0.4509	0.7326	0.4588	-0.078
Mof_H 	H 	0.5174	0.7273	0.5232	0.065
Mof_C 	C 	0.4157	0.7793	0.4375	-0.021
Mof_C 	C 	0.3212	0.788	0.3327	-0.08
Mof_H 	H 	0.2941	0.8223	0.3134	0.066
Mof_C 	C 	0.2682	0.7448	0.2576	0.06
Mof_H 	H 	0.2068	0.7507	0.1813	0.015
Mof_C 	C 	0.4721	0.8274	0.5309	0.322
Mof_Mn	Mn	0.69062	0.12358	0.20286	0.766
Mof_N 	N 	0.7945	0.1166	0.9736	-0.192
Mof_N 	N 	0.7969	0.0662	0.3506	-0.196
Mof_N 	N 	0.8004	0.19475	0.2888	-0.173
Mof_O 	O 	0.0739	0.32293	0.569	-0.358
Mof_O 	O 	0.9126	0.36691	0.5669	-0.358
Mof_C 	C 	0.8677	0.1123	0.8892	0.046
Mof_C 	C 	0.8693	0.0407	0.4058	0.038
Mof_C 	C 	0.8943	0.1883	0.3899	0.045
Mof_H 	H 	0.9214	0.1543	0.4137	0.005
Mof_C 	C 	0.9509	0.2326	0.4588	-0.068
Mof_H 	H 	0.0174	0.2273	0.5232	0.06
Mof_C 	C 	0.9157	0.2793	0.4375	-0.026
Mof_C 	C 	0.8212	0.288	0.3327	-0.077
Mof_H 	H 	0.7941	0.3223	0.3134	0.064
Mof_C 	C 	0.7682	0.2448	0.2576	0.058
Mof_H 	H 	0.7068	0.2507	0.1813	0.015
Mof_C 	C 	0.9721	0.3274	0.5309	0.326
Mof_Mn	Mn	0.19062	0.37642	0.70286	0.766
Mof_N 	N 	0.2945	0.3834	0.4736	-0.192
Mof_N 	N 	0.2969	0.4338	0.8506	-0.195
Mof_N 	N 	0.3004	0.30525	0.7888	-0.174
Mof_O 	O 	0.5739	0.17707	0.069	-0.356
Mof_O 	O 	0.4126	0.13309	0.0669	-0.357
Mof_C 	C 	0.3677	0.3877	0.3892	0.042
Mof_C 	C 	0.3693	0.4593	0.9058	0.037
Mof_C 	C 	0.3943	0.3117	0.8899	0.048
Mof_H 	H 	0.4214	0.3457	0.9137	0.003
Mof_C 	C 	0.4509	0.2674	0.9588	-0.076
Mof_H 	H 	0.5174	0.2727	0.0232	0.064
Mof_C 	C 	0.4157	0.2207	0.9375	-0.021
Mof_C 	C 	0.3212	0.212	0.8327	-0.08
Mof_H 	H 	0.2941	0.1777	0.8134	0.065
Mof_C 	C 	0.2682	0.2552	0.7576	0.06
Mof_H 	H 	0.2068	0.2493	0.6813	0.015
Mof_C 	C 	0.4721	0.1726	0.0309	0.321
Mof_Mn	Mn	0.69062	0.87642	0.70286	0.767
Mof_N 	N 	0.7945	0.8834	0.4736	-0.192
Mof_N 	N 	0.7969	0.9338	0.8506	-0.196
Mof_N 	N 	0.8004	0.80525	0.7888	-0.173
Mof_O 	O 	0.0739	0.67707	0.069	-0.357
Mof_O 	O 	0.9126	0.63309	0.0669	-0.358
Mof_C 	C 	0.8677	0.8877	0.3892	0.045
Mof_C 	C 	0.8693	0.9593	0.9058	0.041
Mof_C 	C 	0.8943	0.8117	0.8899	0.045
Mof_H 	H 	0.9214	0.8457	0.9137	0.005
Mof_C 	C 	0.9509	0.7674	0.9588	-0.068
Mof_H 	H 	0.0174	0.7727	0.0232	0.06
Mof_C 	C 	0.9157	0.7207	0.9375	-0.024
Mof_C 	C 	0.8212	0.712	0.8327	-0.078
Mof_H 	H 	0.7941	0.6777	0.8134	0.065
Mof_C 	C 	0.7682	0.7552	0.7576	0.059
Mof_H 	H 	0.7068	0.7493	0.6813	0.015
Mof_C 	C 	0.9721	0.6726	0.0309	0.324
Mof_Mn	Mn	0.80938	0.37642	0.79714	0.768
Mof_N 	N 	0.7055	0.3834	0.0264	-0.193
Mof_N 	N 	0.7031	0.4338	0.6494	-0.195
Mof_N 	N 	0.6996	0.30525	0.7112	-0.175
Mof_O 	O 	0.4261	0.17707	0.431	-0.355
Mof_O 	O 	0.5874	0.13309	0.4331	-0.357
Mof_C 	C 	0.6323	0.3877	0.1108	0.043
Mof_C 	C 	0.6307	0.4593	0.5942	0.036
Mof_C 	C 	0.6057	0.3117	0.6101	0.049
Mof_H 	H 	0.5786	0.3457	0.5863	0.003
Mof_C 	C 	0.5491	0.2674	0.5412	-0.078
Mof_H 	H 	0.4826	0.2727	0.4768	0.065
Mof_C 	C 	0.5843	0.2207	0.5625	-0.02
Mof_C 	C 	0.6788	0.212	0.6673	-0.081
Mof_H 	H 	0.7059	0.1777	0.6866	0.066
Mof_C 	C 	0.7318	0.2552	0.7424	0.06
Mof_H 	H 	0.7932	0.2493	0.8187	0.015
Mof_C 	C 	0.5279	0.1726	0.4691	0.322
Mof_Mn	Mn	0.30938	0.87642	0.79714	0.767
Mof_N 	N 	0.2055	0.8834	0.0264	-0.192
Mof_N 	N 	0.2031	0.9338	0.6494	-0.195
Mof_N 	N 	0.1996	0.80525	0.7112	-0.176
Mof_O 	O 	0.9261	0.67707	0.431	-0.353
Mof_O 	O 	0.0874	0.63309	0.4331	-0.356
Mof_C 	C 	0.1323	0.8877	0.1108	0.043
Mof_C 	C 	0.1307	0.9593	0.5942	0.038
Mof_C 	C 	0.1057	0.8117	0.6101	0.053
Mof_H 	H 	0.0786	0.8457	0.5863	0.001
Mof_C 	C 	0.0491	0.7674	0.5412	-0.087
Mof_H 	H 	0.9826	0.7727	0.4768	0.07
Mof_C 	C 	0.0843	0.7207	0.5625	-0.016
Mof_C 	C 	0.1788	0.712	0.6673	-0.084
Mof_H 	H 	0.2059	0.6777	0.6866	0.067
Mof_C 	C 	0.2318	0.7552	0.7424	0.062
Mof_H 	H 	0.2932	0.7493	0.8187	0.014
Mof_C 	C 	0.0279	0.6726	0.4691	0.317
Mof_Au	Au	0.5	0.60729	0.75	0.032
Mof_Au	Au	-3.05329e-18	0.10729	0.75	0.028
Mof_Au	Au	0.5	0.39271	0.25	0.031
Mof_Au	Au	6.24168e-34	0.89271	0.25	0.029
Mof_Au	Au	0.5	0.5	-0	0.025
Mof_Au	Au	-0	0	-0	0.021
Mof_Au	Au	0.5	0.5	0.5	0.026
Mof_Au	Au	1.24834e-33	-1.35594e-33	0.5	0.022
_end
