data_functionalizedCrystal
_audit_creation_method	'EQeq! by Chris Wilmer'
_symmetry_space_group_name_H-M	'P1'
_symmetry_Int_Tables_number	1
_symmetry_cell_setting	triclinic
loop_
_symmetry_equiv_pos_as_xyz
  x,y,z
_cell_length_a	16.8807
_cell_length_b	16.8807
_cell_length_c	16.8807
_cell_angle_alpha	90
_cell_angle_beta	90
_cell_angle_gamma	90
loop_
_atom_site_label
_atom_site_type_symbol
_atom_site_fract_x
_atom_site_fract_y
_atom_site_fract_z
_atom_site_charge
Mof_O 	O 	0.80571	0.51454	0.90636	-0.281
Mof_O 	O 	0.30571	0.01454	0.40636	-0.558
Mof_O 	O 	0.19429	0.48546	0.90636	-0.307
Mof_O 	O 	0.69429	0.98546	0.40636	-0.265
Mof_O 	O 	0.19429	0.51454	0.09364	-0.489
Mof_O 	O 	0.69429	0.01454	0.59364	-0.525
Mof_O 	O 	0.80571	0.48546	0.09364	-0.457
Mof_O 	O 	0.30571	0.98546	0.59364	-0.269
Mof_O 	O 	0.90636	0.80571	0.51454	-0.28
Mof_O 	O 	0.40636	0.30571	0.01454	-0.557
Mof_O 	O 	0.90636	0.19429	0.48546	-0.306
Mof_O 	O 	0.40636	0.69429	0.98546	-0.264
Mof_O 	O 	0.09364	0.19429	0.51454	-0.488
Mof_O 	O 	0.59364	0.69429	0.01454	-0.524
Mof_O 	O 	0.09364	0.80571	0.48546	-0.457
Mof_O 	O 	0.59364	0.30571	0.98546	-0.269
Mof_O 	O 	0.51454	0.90636	0.80571	-0.28
Mof_O 	O 	0.01454	0.40636	0.30571	-0.557
Mof_O 	O 	0.48546	0.90636	0.19429	-0.306
Mof_O 	O 	0.98546	0.40636	0.69429	-0.264
Mof_O 	O 	0.51454	0.09364	0.19429	-0.488
Mof_O 	O 	0.01454	0.59364	0.69429	-0.524
Mof_O 	O 	0.48546	0.09364	0.80571	-0.457
Mof_O 	O 	0.98546	0.59364	0.30571	-0.269
Mof_O 	O 	0.51454	0.80571	0.90636	-0.28
Mof_O 	O 	0.01454	0.30571	0.40636	-0.557
Mof_O 	O 	0.48546	0.19429	0.90636	-0.306
Mof_O 	O 	0.98546	0.69429	0.40636	-0.264
Mof_O 	O 	0.51454	0.19429	0.09364	-0.488
Mof_O 	O 	0.01454	0.69429	0.59364	-0.524
Mof_O 	O 	0.48546	0.80571	0.09364	-0.457
Mof_O 	O 	0.98546	0.30571	0.59364	-0.269
Mof_O 	O 	0.80571	0.90636	0.51454	-0.28
Mof_O 	O 	0.30571	0.40636	0.01454	-0.557
Mof_O 	O 	0.19429	0.90636	0.48546	-0.306
Mof_O 	O 	0.69429	0.40636	0.98546	-0.264
Mof_O 	O 	0.19429	0.09364	0.51454	-0.488
Mof_O 	O 	0.69429	0.59364	0.01454	-0.524
Mof_O 	O 	0.80571	0.09364	0.48546	-0.457
Mof_O 	O 	0.30571	0.59364	0.98546	-0.269
Mof_O 	O 	0.90636	0.51454	0.80571	-0.28
Mof_O 	O 	0.40636	0.01454	0.30571	-0.557
Mof_O 	O 	0.90636	0.48546	0.19429	-0.306
Mof_O 	O 	0.40636	0.98546	0.69429	-0.264
Mof_O 	O 	0.09364	0.51454	0.19429	-0.488
Mof_O 	O 	0.59364	0.01454	0.69429	-0.524
Mof_O 	O 	0.09364	0.48546	0.80571	-0.457
Mof_O 	O 	0.59364	0.98546	0.30571	-0.269
Mof_Ga	Ga	-0	0.5	-0	1.016
Mof_Ga	Ga	0.5	0	0.5	2.231
Mof_Ga	Ga	1.8747e-33	0	0.5	1.016
Mof_Ga	Ga	0.5	0.5	-0	2.231
Mof_Ga	Ga	0.5	0	-0	1.016
Mof_Ga	Ga	1.8747e-33	0.5	0.5	2.231
Mof_Co	Co	0.75	0.5	-0	1.094
Mof_Co	Co	0.25	0.5	-0	1.086
Mof_Co	Co	1.8747e-33	0.75	0.5	1.094
Mof_Co	Co	-3.37312e-33	0.25	0.5	1.086
Mof_Co	Co	0.5	5.24782e-33	0.75	1.094
Mof_Co	Co	0.5	0	0.25	1.086
Mof_Co	Co	0.5	0.75	-0	1.094
Mof_Co	Co	0.5	0.25	-0	1.086
Mof_Co	Co	0.75	0	0.5	1.094
Mof_Co	Co	0.25	0	0.5	1.086
Mof_Co	Co	2.81205e-33	0.5	0.75	1.094
Mof_Co	Co	-1.68656e-33	0.5	0.25	1.086
Mof_P 	P 	0.87617	0.56411	0.87617	0.558
Mof_O 	O 	0.85275	0.64663	0.85275	-0.057
Mof_O 	O 	0.94057	0.56861	0.94057	-0.164
Mof_P 	P 	0.37617	0.06411	0.37617	0.607
Mof_O 	O 	0.35275	0.14663	0.35275	-0.252
Mof_O 	O 	0.44057	0.06861	0.44057	-0.786
Mof_P 	P 	0.12383	0.43589	0.87617	0.556
Mof_O 	O 	0.14725	0.35337	0.85275	-0.212
Mof_O 	O 	0.05943	0.43139	0.94057	-0.419
Mof_P 	P 	0.62383	0.93589	0.37617	0.599
Mof_O 	O 	0.64725	0.85337	0.35275	-0.17
Mof_O 	O 	0.55943	0.93139	0.44057	-0.584
Mof_P 	P 	0.12383	0.56411	0.12383	0.553
Mof_O 	O 	0.14725	0.64663	0.14725	-0.289
Mof_O 	O 	0.05943	0.56861	0.05943	-0.644
Mof_P 	P 	0.62383	0.06411	0.62383	0.609
Mof_O 	O 	0.64725	0.14663	0.64725	-0.205
Mof_O 	O 	0.55943	0.06861	0.55943	-0.785
Mof_P 	P 	0.87617	0.43589	0.12383	0.556
Mof_O 	O 	0.85275	0.35337	0.14725	-0.212
Mof_O 	O 	0.94057	0.43139	0.05943	-0.419
Mof_P 	P 	0.37617	0.93589	0.62383	0.599
Mof_O 	O 	0.35275	0.85337	0.64725	-0.17
Mof_O 	O 	0.44057	0.93139	0.55943	-0.584
Mof_P 	P 	0.87617	0.87617	0.56411	0.558
Mof_O 	O 	0.85275	0.85275	0.64663	-0.057
Mof_O 	O 	0.94057	0.94057	0.56861	-0.164
Mof_P 	P 	0.37617	0.37617	0.06411	0.607
Mof_O 	O 	0.35275	0.35275	0.14663	-0.252
Mof_O 	O 	0.44057	0.44057	0.06861	-0.786
Mof_P 	P 	0.87617	0.12383	0.43589	0.556
Mof_O 	O 	0.85275	0.14725	0.35337	-0.212
Mof_O 	O 	0.94057	0.05943	0.43139	-0.419
Mof_P 	P 	0.37617	0.62383	0.93589	0.599
Mof_O 	O 	0.35275	0.64725	0.85337	-0.17
Mof_O 	O 	0.44057	0.55943	0.93139	-0.584
Mof_P 	P 	0.12383	0.12383	0.56411	0.553
Mof_O 	O 	0.14725	0.14725	0.64663	-0.289
Mof_O 	O 	0.05943	0.05943	0.56861	-0.644
Mof_P 	P 	0.62383	0.62383	0.06411	0.609
Mof_O 	O 	0.64725	0.64725	0.14663	-0.205
Mof_O 	O 	0.55943	0.55943	0.06861	-0.785
Mof_P 	P 	0.12383	0.87617	0.43589	0.556
Mof_O 	O 	0.14725	0.85275	0.35337	-0.212
Mof_O 	O 	0.05943	0.94057	0.43139	-0.419
Mof_P 	P 	0.62383	0.37617	0.93589	0.599
Mof_O 	O 	0.64725	0.35275	0.85337	-0.17
Mof_O 	O 	0.55943	0.44057	0.93139	-0.584
Mof_P 	P 	0.56411	0.87617	0.87617	0.558
Mof_O 	O 	0.64663	0.85275	0.85275	-0.057
Mof_O 	O 	0.56861	0.94057	0.94057	-0.164
Mof_P 	P 	0.06411	0.37617	0.37617	0.607
Mof_O 	O 	0.14663	0.35275	0.35275	-0.252
Mof_O 	O 	0.06861	0.44057	0.44057	-0.786
Mof_P 	P 	0.43589	0.87617	0.12383	0.556
Mof_O 	O 	0.35337	0.85275	0.14725	-0.212
Mof_O 	O 	0.43139	0.94057	0.05943	-0.419
Mof_P 	P 	0.93589	0.37617	0.62383	0.599
Mof_O 	O 	0.85337	0.35275	0.64725	-0.17
Mof_O 	O 	0.93139	0.44057	0.55943	-0.584
Mof_P 	P 	0.56411	0.12383	0.12383	0.553
Mof_O 	O 	0.64663	0.14725	0.14725	-0.289
Mof_O 	O 	0.56861	0.05943	0.05943	-0.644
Mof_P 	P 	0.06411	0.62383	0.62383	0.609
Mof_O 	O 	0.14663	0.64725	0.64725	-0.205
Mof_O 	O 	0.06861	0.55943	0.55943	-0.785
Mof_P 	P 	0.43589	0.12383	0.87617	0.556
Mof_O 	O 	0.35337	0.14725	0.85275	-0.212
Mof_O 	O 	0.43139	0.05943	0.94057	-0.419
Mof_P 	P 	0.93589	0.62383	0.37617	0.599
Mof_O 	O 	0.85337	0.64725	0.35275	-0.17
Mof_O 	O 	0.93139	0.55943	0.44057	-0.584
_end
