data_functionalizedCrystal
_audit_creation_method	'EQeq! by Chris Wilmer'
_symmetry_space_group_name_H-M	'P1'
_symmetry_Int_Tables_number	1
_symmetry_cell_setting	triclinic
loop_
_symmetry_equiv_pos_as_xyz
  x,y,z
_cell_length_a	14.595
_cell_length_b	13.344
_cell_length_c	21.324
_cell_angle_alpha	90
_cell_angle_beta	90
_cell_angle_gamma	90
loop_
_atom_site_label
_atom_site_type_symbol
_atom_site_fract_x
_atom_site_fract_y
_atom_site_fract_z
_atom_site_charge
Mof_Co	Co	0.09905	0.40427	0.90874	1.175
Mof_Co	Co	0.9038	0.34814	0.04035	1.166
Mof_O 	O 	0.1339	0.4042	0.9995	-0.446
Mof_O 	O 	0.8709	0.3501	0.1435	-0.348
Mof_O 	O 	0.259	0.3921	0.3788	-0.395
Mof_O 	O 	0.0346	0.338	0.0659	-0.473
Mof_O 	O 	0.3637	0.4058	0.3088	-0.383
Mof_O 	O 	0.6311	0.3401	0.4499	-0.482
Mof_O 	O 	0.5336	0.4071	0.3815	-0.478
Mof_N 	N 	0.0958	0.5632	0.9107	-0.231
Mof_C 	C 	0.6763	0.3557	0.3452	-0.302
Mof_H 	H 	0.735	0.3363	0.357	0.153
Mof_C 	C 	0.0917	0.7723	0.9184	0.163
Mof_O 	O 	0.7649	0.357	0.0706	-0.403
Mof_N 	N 	0.913	0.5102	0.0373	-0.259
Mof_C 	C 	0.9178	0.7174	0.0415	0.111
Mof_N 	N 	0.0953	0.239	0.9091	-0.234
Mof_C 	C 	0.7304	0.3567	0.2369	-0.028
Mof_H 	H 	0.7897	0.3405	0.2492	0.06
Mof_C 	C 	0.661	0.369	0.2854	0.096
Mof_H 	H 	0.6023	0.3875	0.2731	0.017
Mof_C 	C 	0.7852	0.3553	0.1277	0.323
Mof_N 	N 	0.9036	0.183	0.0387	-0.282
Mof_C 	C 	0.1622	0.3745	0.1637	0.035
Mof_H 	H 	0.1019	0.3605	0.1746	0.036
Mof_C 	C 	0.1362	0.7193	0.96	-0.196
Mof_H 	H 	0.1691	0.7519	0.9913	0.128
Mof_C 	C 	0.1106	0.3755	0.0528	0.421
Mof_C 	C 	0.1354	0.6173	0.9585	0.104
Mof_H 	H 	0.1629	0.5826	0.9912	0.024
Mof_C 	C 	0.2284	0.3827	0.2135	0.026
Mof_H 	H 	0.2894	0.3891	0.2016	0.044
Mof_C 	C 	0.9572	0.6614	0.0861	-0.185
Mof_H 	H 	0.9854	0.6926	0.12	0.102
Mof_C 	C 	0.7133	0.3675	0.1753	-0.181
Mof_H 	H 	0.6542	0.3831	0.1625	0.105
Mof_C 	C 	0.212	0.3821	0.272	-0.215
Mof_H 	H 	0.1514	0.3742	0.2844	0.119
Mof_C 	C 	0.2833	0.3933	0.3234	0.376
Mof_C 	C 	0.6076	0.3689	0.3958	0.484
Mof_C 	C 	0.8724	0.6651	0.993	-0.135
Mof_H 	H 	0.8432	0.7008	0.9613	0.108
Mof_C 	C 	0.8708	0.5643	0.9918	0.124
Mof_H 	H 	0.8405	0.5314	0.9595	0.004
Mof_C 	C 	0.0485	0.6155	0.8677	0.094
Mof_H 	H 	0.0141	0.5812	0.8379	0.006
Mof_C 	C 	0.1814	0.3854	0.1032	-0.249
Mof_H 	H 	0.2414	0.3999	0.0917	0.129
Mof_C 	C 	0.9566	0.5595	0.0825	0.101
Mof_H 	H 	0.9879	0.523	0.1129	-0.007
Mof_C 	C 	0.0499	0.7211	0.8666	-0.172
Mof_H 	H 	0.0245	0.7565	0.8333	0.102
Mof_C 	C 	0.8683	0.1335	0.9959	0.212
Mof_H 	H 	0.8313	0.1676	0.9675	-0.032
Mof_C 	C 	0.125	0.0773	0.954	-0.22
Mof_H 	H 	0.147	0.0416	0.9882	0.129
Mof_C 	C 	0.9396	0.133	0.0833	0.138
Mof_H 	H 	0.9625	0.1654	0.1186	-0.014
Mof_C 	C 	0.1339	0.1865	0.9531	0.121
Mof_H 	H 	0.1676	0.2185	0.9842	-0.001
Mof_C 	C 	0.0476	0.1908	0.8637	0.097
Mof_H 	H 	0.0178	0.228	0.833	-0.004
Mof_C 	C 	0.042	0.085	0.8621	-0.188
Mof_H 	H 	0.01	0.0522	0.8306	0.105
Mof_C 	C 	0.0876	0.0306	0.9098	0.187
Mof_N 	N 	0.9309	0.84	0.0599	-0.088
Mof_C 	C 	0.879	0.0324	0.9872	-0.215
Mof_H 	H 	0.8676	0.0037	0.9483	0.125
Mof_C 	C 	0.944	0.0262	0.0782	-0.237
Mof_H 	H 	0.9769	0.9917	0.1088	0.117
Mof_C 	C 	0.9071	0.9756	0.0354	0.179
Mof_N 	N 	0.8913	0.8611	0.0176	-0.105
Mof_N 	N 	0.1009	0.8943	0.9292	-0.086
Mof_N 	N 	0.064	0.917	0.8873	-0.088
Mof_Co	Co	0.40095	0.40427	0.40874	1.174
Mof_Co	Co	0.5962	0.34814	0.54035	1.175
Mof_O 	O 	0.3661	0.4042	0.4995	-0.483
Mof_O 	O 	0.6291	0.3501	0.6435	-0.347
Mof_O 	O 	0.241	0.3921	0.8788	-0.395
Mof_O 	O 	0.4654	0.338	0.5659	-0.479
Mof_O 	O 	0.1363	0.4058	0.8088	-0.384
Mof_O 	O 	0.8689	0.3401	0.9499	-0.467
Mof_O 	O 	0.9664	0.4071	0.8815	-0.472
Mof_N 	N 	0.4042	0.5632	0.4107	-0.23
Mof_C 	C 	0.8237	0.3557	0.8452	-0.299
Mof_H 	H 	0.765	0.3363	0.857	0.152
Mof_C 	C 	0.4083	0.7723	0.4184	0.157
Mof_O 	O 	0.7351	0.357	0.5706	-0.386
Mof_N 	N 	0.587	0.5102	0.5373	-0.243
Mof_C 	C 	0.5822	0.7174	0.5415	0.165
Mof_N 	N 	0.4047	0.239	0.4091	-0.234
Mof_C 	C 	0.7696	0.3567	0.7369	-0.028
Mof_H 	H 	0.7103	0.3405	0.7492	0.06
Mof_C 	C 	0.839	0.369	0.7854	0.095
Mof_H 	H 	0.8977	0.3875	0.7731	0.018
Mof_C 	C 	0.7148	0.3553	0.6277	0.32
Mof_N 	N 	0.5964	0.183	0.5387	-0.266
Mof_C 	C 	0.3378	0.3745	0.6637	0.055
Mof_H 	H 	0.3981	0.3605	0.6746	0.03
Mof_C 	C 	0.3638	0.7193	0.46	-0.196
Mof_H 	H 	0.3309	0.7519	0.4913	0.118
Mof_C 	C 	0.3894	0.3755	0.5528	0.473
Mof_C 	C 	0.3646	0.6173	0.4585	0.101
Mof_H 	H 	0.3371	0.5826	0.4912	0.015
Mof_C 	C 	0.2716	0.3827	0.7135	0.013
Mof_H 	H 	0.2106	0.3891	0.7016	0.048
Mof_C 	C 	0.5428	0.6614	0.5861	-0.209
Mof_H 	H 	0.5146	0.6926	0.62	0.113
Mof_C 	C 	0.7867	0.3675	0.6753	-0.178
Mof_H 	H 	0.8458	0.3831	0.6625	0.106
Mof_C 	C 	0.288	0.3821	0.772	-0.206
Mof_H 	H 	0.3486	0.3742	0.7844	0.117
Mof_C 	C 	0.2167	0.3933	0.8234	0.373
Mof_C 	C 	0.8924	0.3689	0.8958	0.48
Mof_C 	C 	0.6276	0.6651	0.493	-0.189
Mof_H 	H 	0.6568	0.7008	0.4613	0.12
Mof_C 	C 	0.6292	0.5643	0.4918	0.107
Mof_H 	H 	0.6595	0.5314	0.4595	0.005
Mof_C 	C 	0.4515	0.6155	0.3677	0.092
Mof_H 	H 	0.4859	0.5812	0.3379	0.007
Mof_C 	C 	0.3186	0.3854	0.6032	-0.273
Mof_H 	H 	0.2586	0.3999	0.5917	0.144
Mof_C 	C 	0.5434	0.5595	0.5825	0.122
Mof_H 	H 	0.5121	0.523	0.6129	-0.013
Mof_C 	C 	0.4501	0.7211	0.3666	-0.17
Mof_H 	H 	0.4755	0.7565	0.3333	0.101
Mof_C 	C 	0.6317	0.1335	0.4959	0.196
Mof_H 	H 	0.6687	0.1676	0.4675	-0.032
Mof_C 	C 	0.375	0.0773	0.454	-0.222
Mof_H 	H 	0.353	0.0416	0.4882	0.12
Mof_C 	C 	0.5604	0.133	0.5833	0.166
Mof_H 	H 	0.5375	0.1654	0.6186	-0.022
Mof_C 	C 	0.3661	0.1865	0.4531	0.118
Mof_H 	H 	0.3324	0.2185	0.4842	-0.009
Mof_C 	C 	0.4524	0.1908	0.3637	0.096
Mof_H 	H 	0.4822	0.228	0.333	-0.002
Mof_C 	C 	0.458	0.085	0.3621	-0.187
Mof_H 	H 	0.49	0.0522	0.3306	0.105
Mof_C 	C 	0.4124	0.0306	0.4098	0.185
Mof_N 	N 	0.5691	0.84	0.5599	-0.091
Mof_C 	C 	0.621	0.0324	0.4872	-0.281
Mof_H 	H 	0.6324	0.0037	0.4483	0.141
Mof_C 	C 	0.556	0.0262	0.5782	-0.276
Mof_H 	H 	0.5231	0.9917	0.6088	0.134
Mof_C 	C 	0.5929	0.9756	0.5354	0.249
Mof_N 	N 	0.6087	0.8611	0.5176	-0.099
Mof_N 	N 	0.3991	0.8943	0.4292	-0.09
Mof_N 	N 	0.436	0.917	0.3873	-0.09
Mof_Co	Co	0.90095	0.59573	0.40874	1.175
Mof_Co	Co	0.0962	0.65186	0.54035	1.174
Mof_O 	O 	0.8661	0.5958	0.4995	-0.483
Mof_O 	O 	0.1291	0.6499	0.6435	-0.347
Mof_O 	O 	0.741	0.6079	0.8788	-0.394
Mof_O 	O 	0.9654	0.662	0.5659	-0.478
Mof_O 	O 	0.6363	0.5942	0.8088	-0.383
Mof_O 	O 	0.3689	0.6599	0.9499	-0.469
Mof_O 	O 	0.4664	0.5929	0.8815	-0.475
Mof_N 	N 	0.9042	0.4368	0.4107	-0.23
Mof_C 	C 	0.3237	0.6443	0.8452	-0.3
Mof_H 	H 	0.265	0.6637	0.857	0.153
Mof_C 	C 	0.9083	0.2277	0.4184	0.158
Mof_O 	O 	0.2351	0.643	0.5706	-0.386
Mof_N 	N 	0.087	0.4898	0.5373	-0.243
Mof_C 	C 	0.0822	0.2826	0.5415	0.164
Mof_N 	N 	0.9047	0.761	0.4091	-0.234
Mof_C 	C 	0.2696	0.6433	0.7369	-0.029
Mof_H 	H 	0.2103	0.6595	0.7492	0.061
Mof_C 	C 	0.339	0.631	0.7854	0.096
Mof_H 	H 	0.3977	0.6125	0.7731	0.017
Mof_C 	C 	0.2148	0.6447	0.6277	0.319
Mof_N 	N 	0.0964	0.817	0.5387	-0.264
Mof_C 	C 	0.8378	0.6255	0.6637	0.055
Mof_H 	H 	0.8981	0.6395	0.6746	0.031
Mof_C 	C 	0.8638	0.2807	0.46	-0.197
Mof_H 	H 	0.8309	0.2481	0.4913	0.119
Mof_C 	C 	0.8894	0.6245	0.5528	0.473
Mof_C 	C 	0.8646	0.3827	0.4585	0.102
Mof_H 	H 	0.8371	0.4174	0.4912	0.015
Mof_C 	C 	0.7716	0.6173	0.7135	0.014
Mof_H 	H 	0.7106	0.6109	0.7016	0.048
Mof_C 	C 	0.0428	0.3386	0.5861	-0.209
Mof_H 	H 	0.0146	0.3074	0.62	0.112
Mof_C 	C 	0.2867	0.6325	0.6753	-0.177
Mof_H 	H 	0.3458	0.6169	0.6625	0.106
Mof_C 	C 	0.788	0.6179	0.772	-0.207
Mof_H 	H 	0.8486	0.6258	0.7844	0.118
Mof_C 	C 	0.7167	0.6067	0.8234	0.373
Mof_C 	C 	0.3924	0.6311	0.8958	0.481
Mof_C 	C 	0.1276	0.3349	0.493	-0.189
Mof_H 	H 	0.1568	0.2992	0.4613	0.119
Mof_C 	C 	0.1292	0.4357	0.4918	0.107
Mof_H 	H 	0.1595	0.4686	0.4595	0.005
Mof_C 	C 	0.9515	0.3845	0.3677	0.092
Mof_H 	H 	0.9859	0.4188	0.3379	0.008
Mof_C 	C 	0.8186	0.6146	0.6032	-0.272
Mof_H 	H 	0.7586	0.6001	0.5917	0.144
Mof_C 	C 	0.0434	0.4405	0.5825	0.121
Mof_H 	H 	0.0121	0.477	0.6129	-0.014
Mof_C 	C 	0.9501	0.2789	0.3666	-0.17
Mof_H 	H 	0.9755	0.2435	0.3333	0.102
Mof_C 	C 	0.1317	0.8665	0.4959	0.191
Mof_H 	H 	0.1687	0.8324	0.4675	-0.031
Mof_C 	C 	0.875	0.9227	0.454	-0.221
Mof_H 	H 	0.853	0.9584	0.4882	0.12
Mof_C 	C 	0.0604	0.867	0.5833	0.16
Mof_H 	H 	0.0375	0.8346	0.6186	-0.02
Mof_C 	C 	0.8661	0.8135	0.4531	0.117
Mof_H 	H 	0.8324	0.7815	0.4842	-0.009
Mof_C 	C 	0.9524	0.8092	0.3637	0.095
Mof_H 	H 	0.9822	0.772	0.333	-0.002
Mof_C 	C 	0.958	0.915	0.3621	-0.186
Mof_H 	H 	0.99	0.9478	0.3306	0.104
Mof_C 	C 	0.9124	0.9694	0.4098	0.184
Mof_N 	N 	0.0691	0.16	0.5599	-0.092
Mof_C 	C 	0.121	0.9676	0.4872	-0.273
Mof_H 	H 	0.1324	0.9963	0.4483	0.138
Mof_C 	C 	0.056	0.9738	0.5782	-0.264
Mof_H 	H 	0.0231	0.0083	0.6088	0.128
Mof_C 	C 	0.0929	0.0244	0.5354	0.239
Mof_N 	N 	0.1087	0.1389	0.5176	-0.098
Mof_N 	N 	0.8991	0.1057	0.4292	-0.089
Mof_N 	N 	0.936	0.083	0.3873	-0.089
Mof_Co	Co	0.59905	0.59573	0.90874	1.175
Mof_Co	Co	0.4038	0.65186	0.04035	1.165
Mof_O 	O 	0.6339	0.5958	0.9995	-0.444
Mof_O 	O 	0.3709	0.6499	0.1435	-0.349
Mof_O 	O 	0.759	0.6079	0.3788	-0.396
Mof_O 	O 	0.5346	0.662	0.0659	-0.473
Mof_O 	O 	0.8637	0.5942	0.3088	-0.384
Mof_O 	O 	0.1311	0.6599	0.4499	-0.483
Mof_O 	O 	0.0336	0.5929	0.3815	-0.479
Mof_N 	N 	0.5958	0.4368	0.9107	-0.23
Mof_C 	C 	0.1763	0.6443	0.3452	-0.303
Mof_H 	H 	0.235	0.6637	0.357	0.153
Mof_C 	C 	0.5917	0.2277	0.9184	0.163
Mof_O 	O 	0.2649	0.643	0.0706	-0.402
Mof_N 	N 	0.413	0.4898	0.0373	-0.258
Mof_C 	C 	0.4178	0.2826	0.0415	0.113
Mof_N 	N 	0.5953	0.761	0.9091	-0.234
Mof_C 	C 	0.2304	0.6433	0.2369	-0.028
Mof_H 	H 	0.2897	0.6595	0.2492	0.06
Mof_C 	C 	0.161	0.631	0.2854	0.097
Mof_H 	H 	0.1023	0.6125	0.2731	0.017
Mof_C 	C 	0.2852	0.6447	0.1277	0.322
Mof_N 	N 	0.4036	0.817	0.0387	-0.284
Mof_C 	C 	0.6622	0.6255	0.1637	0.034
Mof_H 	H 	0.6019	0.6395	0.1746	0.037
Mof_C 	C 	0.6362	0.2807	0.96	-0.196
Mof_H 	H 	0.6691	0.2481	0.9913	0.129
Mof_C 	C 	0.6106	0.6245	0.0528	0.418
Mof_C 	C 	0.6354	0.3827	0.9585	0.105
Mof_H 	H 	0.6629	0.4174	0.9912	0.024
Mof_C 	C 	0.7284	0.6173	0.2135	0.027
Mof_H 	H 	0.7894	0.6109	0.2016	0.043
Mof_C 	C 	0.4572	0.3386	0.0861	-0.186
Mof_H 	H 	0.4854	0.3074	0.12	0.102
Mof_C 	C 	0.2133	0.6325	0.1753	-0.181
Mof_H 	H 	0.1542	0.6169	0.1625	0.105
Mof_C 	C 	0.712	0.6179	0.272	-0.216
Mof_H 	H 	0.6514	0.6258	0.2844	0.12
Mof_C 	C 	0.7833	0.6067	0.3234	0.376
Mof_C 	C 	0.1076	0.6311	0.3958	0.484
Mof_C 	C 	0.3724	0.3349	0.993	-0.137
Mof_H 	H 	0.3432	0.2992	0.9613	0.108
Mof_C 	C 	0.3708	0.4357	0.9918	0.123
Mof_H 	H 	0.3405	0.4686	0.9595	0.004
Mof_C 	C 	0.5485	0.3845	0.8677	0.094
Mof_H 	H 	0.5141	0.4188	0.8379	0.007
Mof_C 	C 	0.6814	0.6146	0.1032	-0.247
Mof_H 	H 	0.7414	0.6001	0.0917	0.127
Mof_C 	C 	0.4566	0.4405	0.0825	0.101
Mof_H 	H 	0.4879	0.477	0.1129	-0.007
Mof_C 	C 	0.5499	0.2789	0.8666	-0.172
Mof_H 	H 	0.5245	0.2435	0.8333	0.103
Mof_C 	C 	0.3683	0.8665	0.9959	0.215
Mof_H 	H 	0.3313	0.8324	0.9675	-0.034
Mof_C 	C 	0.625	0.9227	0.954	-0.221
Mof_H 	H 	0.647	0.9584	0.9882	0.13
Mof_C 	C 	0.4396	0.867	0.0833	0.144
Mof_H 	H 	0.4625	0.8346	0.1186	-0.017
Mof_C 	C 	0.6339	0.8135	0.9531	0.122
Mof_H 	H 	0.6676	0.7815	0.9842	-0
Mof_C 	C 	0.5476	0.8092	0.8637	0.098
Mof_H 	H 	0.5178	0.772	0.833	-0.003
Mof_C 	C 	0.542	0.915	0.8621	-0.188
Mof_H 	H 	0.51	0.9478	0.8306	0.106
Mof_C 	C 	0.5876	0.9694	0.9098	0.189
Mof_N 	N 	0.4309	0.16	0.0599	-0.088
Mof_C 	C 	0.379	0.9676	0.9872	-0.225
Mof_H 	H 	0.3676	0.9963	0.9483	0.127
Mof_C 	C 	0.444	0.9738	0.0782	-0.25
Mof_H 	H 	0.4769	0.0083	0.1088	0.123
Mof_C 	C 	0.4071	0.0244	0.0354	0.19
Mof_N 	N 	0.3913	0.1389	0.0176	-0.106
Mof_N 	N 	0.6009	0.1057	0.9292	-0.086
Mof_N 	N 	0.564	0.083	0.8873	-0.089
_end
