data_functionalizedCrystal
_audit_creation_method	'EQeq! by Chris Wilmer'
_symmetry_space_group_name_H-M	'P1'
_symmetry_Int_Tables_number	1
_symmetry_cell_setting	triclinic
loop_
_symmetry_equiv_pos_as_xyz
  x,y,z
_cell_length_a	6.6374
_cell_length_b	9.5714
_cell_length_c	19.89
_cell_angle_alpha	85.19
_cell_angle_beta	82.971
_cell_angle_gamma	88.016
loop_
_atom_site_label
_atom_site_type_symbol
_atom_site_fract_x
_atom_site_fract_y
_atom_site_fract_z
_atom_site_charge
Mof_C 	C 	0.257	0.4341	0.02687	0.201
Mof_C 	C 	0.3815	0.3317	0.93172	0.198
Mof_C 	C 	0.3638	0.2099	0.03473	0.191
Mof_C 	C 	0.1236	0.5871	0.12037	0.193
Mof_C 	C 	0.1227	0.4914	0.17759	-0.19
Mof_H 	H 	0.1566	0.3954	0.1722	0.112
Mof_C 	C 	0.0727	0.5362	0.24194	0.099
Mof_H 	H 	0.0739	0.4706	0.2805	0.011
Mof_C 	C 	0.0203	0.6764	0.25123	-0.154
Mof_C 	C 	0.0195	0.7714	0.19362	0.101
Mof_H 	H 	0.9827	0.867	0.1991	0.005
Mof_C 	C 	0.0713	0.7284	0.12929	-0.196
Mof_H 	H 	0.0716	0.7944	0.0908	0.095
Mof_C 	C 	0.9675	0.7268	0.32034	0.353
Mof_C 	C 	0.4168	0.4403	0.81161	0.202
Mof_C 	C 	0.3596	0.5784	0.82269	-0.206
Mof_H 	H 	0.3304	0.606	0.8677	0.117
Mof_C 	C 	0.3452	0.676	0.76747	0.117
Mof_H 	H 	0.3005	0.7693	0.7752	0.005
Mof_C 	C 	0.3951	0.6394	0.70102	-0.186
Mof_C 	C 	0.4592	0.5026	0.68988	0.125
Mof_H 	H 	0.4976	0.477	0.6449	-0.02
Mof_C 	C 	0.467	0.403	0.74483	-0.21
Mof_H 	H 	0.5068	0.3089	0.737	0.104
Mof_C 	C 	0.3737	0.7492	0.64413	0.41
Mof_C 	C 	0.3769	0.0709	0.14538	0.187
Mof_C 	C 	0.5287	0.9967	0.17699	-0.204
Mof_H 	H 	0.648	0.9654	0.1505	0.098
Mof_C 	C 	0.506	0.9684	0.24713	0.101
Mof_H 	H 	0.6087	0.9161	0.2682	0.008
Mof_C 	C 	0.3336	0.0162	0.28681	-0.185
Mof_C 	C 	0.186	0.0946	0.25515	0.106
Mof_H 	H 	0.0709	0.1311	0.2819	-0.004
Mof_C 	C 	0.2053	0.1199	0.18496	-0.197
Mof_H 	H 	0.1013	0.1707	0.1638	0.104
Mof_C 	C 	0.3069	0.9799	0.36226	0.405
Mof_N 	N 	0.3041	0.4474	0.95891	-0.177
Mof_N 	N 	0.418	0.2068	0.96769	-0.184
Mof_N 	N 	0.2794	0.3176	0.06759	-0.176
Mof_N 	N 	0.1809	0.554	0.05349	-0.241
Mof_H 	H 	0.1646	0.624	0.0228	0.133
Mof_N 	N 	0.4335	0.3327	0.86361	-0.243
Mof_H 	H 	0.4862	0.2531	0.8496	0.134
Mof_N 	N 	0.404	0.0896	0.07362	-0.243
Mof_H 	H 	0.4512	0.0168	0.0518	0.134
Mof_O 	O 	0.4847	0.7418	0.58804	-0.477
Mof_O 	O 	0.2413	0.8439	0.65671	-0.477
Mof_O 	O 	0.4523	0.9153	0.38781	-0.504
Mof_O 	O 	0.1408	0.015	0.39699	-0.509
Mof_O 	O 	0.8854	0.8488	0.32159	-0.451
Mof_O 	O 	0.0025	0.6521	0.3728	-0.326
Mof_O 	O 	0.7036	0.969	0.48234	-0.853
Mof_H 	H 	0.787	0.956	0.5106	0.287
Mof_Co	Co	0.45159	0.84145	0.49075	1.11
Mof_Co	Co	0.84424	0.98186	0.39089	1.17
Mof_C 	C 	0.743	0.5659	0.97313	0.2
Mof_C 	C 	0.6185	0.6683	0.06828	0.197
Mof_C 	C 	0.6362	0.7901	0.96527	0.19
Mof_C 	C 	0.8764	0.4129	0.87963	0.192
Mof_C 	C 	0.8773	0.5086	0.82241	-0.191
Mof_H 	H 	0.8434	0.6046	0.8278	0.111
Mof_C 	C 	0.9273	0.4638	0.75806	0.099
Mof_H 	H 	0.9261	0.5294	0.7195	0.011
Mof_C 	C 	0.9797	0.3236	0.74877	-0.154
Mof_C 	C 	0.9805	0.2286	0.80638	0.101
Mof_H 	H 	0.0173	0.133	0.8009	0.005
Mof_C 	C 	0.9287	0.2716	0.87071	-0.196
Mof_H 	H 	0.9284	0.2056	0.9092	0.095
Mof_C 	C 	0.0325	0.2732	0.67966	0.353
Mof_C 	C 	0.5832	0.5597	0.18839	0.202
Mof_C 	C 	0.6404	0.4216	0.17731	-0.206
Mof_H 	H 	0.6696	0.394	0.1323	0.117
Mof_C 	C 	0.6548	0.324	0.23253	0.117
Mof_H 	H 	0.6995	0.2307	0.2248	0.005
Mof_C 	C 	0.6049	0.3606	0.29898	-0.186
Mof_C 	C 	0.5408	0.4974	0.31012	0.125
Mof_H 	H 	0.5024	0.523	0.3551	-0.02
Mof_C 	C 	0.533	0.597	0.25517	-0.21
Mof_H 	H 	0.4932	0.6911	0.263	0.104
Mof_C 	C 	0.6263	0.2508	0.35587	0.41
Mof_C 	C 	0.6231	0.9291	0.85462	0.187
Mof_C 	C 	0.4713	0.0033	0.82301	-0.204
Mof_H 	H 	0.352	0.0346	0.8495	0.098
Mof_C 	C 	0.494	0.0316	0.75287	0.101
Mof_H 	H 	0.3913	0.0839	0.7318	0.008
Mof_C 	C 	0.6664	0.9838	0.71319	-0.185
Mof_C 	C 	0.814	0.9054	0.74485	0.106
Mof_H 	H 	0.9291	0.8689	0.7181	-0.004
Mof_C 	C 	0.7947	0.8801	0.81504	-0.197
Mof_H 	H 	0.8987	0.8293	0.8362	0.104
Mof_C 	C 	0.6931	0.0201	0.63774	0.405
Mof_N 	N 	0.6959	0.5526	0.04109	-0.177
Mof_N 	N 	0.582	0.7932	0.03231	-0.184
Mof_N 	N 	0.7206	0.6824	0.93241	-0.176
Mof_N 	N 	0.8191	0.446	0.94651	-0.241
Mof_H 	H 	0.8354	0.376	0.9772	0.133
Mof_N 	N 	0.5665	0.6673	0.13639	-0.243
Mof_H 	H 	0.5138	0.7469	0.1504	0.134
Mof_N 	N 	0.596	0.9104	0.92638	-0.243
Mof_H 	H 	0.5488	0.9832	0.9482	0.134
Mof_O 	O 	0.5153	0.2582	0.41196	-0.477
Mof_O 	O 	0.7587	0.1561	0.34329	-0.477
Mof_O 	O 	0.5477	0.0847	0.61219	-0.504
Mof_O 	O 	0.8592	0.985	0.60301	-0.509
Mof_O 	O 	0.1146	0.1512	0.67841	-0.451
Mof_O 	O 	0.9975	0.3479	0.6272	-0.326
Mof_O 	O 	0.2964	0.031	0.51766	-0.853
Mof_H 	H 	0.213	0.044	0.4894	0.287
Mof_Co	Co	0.54841	0.15855	0.50925	1.11
Mof_Co	Co	0.15576	0.01814	0.60911	1.17
_end
