data_functionalizedCrystal
_audit_creation_method	'EQeq! by Chris Wilmer'
_symmetry_space_group_name_H-M	'P1'
_symmetry_Int_Tables_number	1
_symmetry_cell_setting	triclinic
loop_
_symmetry_equiv_pos_as_xyz
  x,y,z
_cell_length_a	41.258
_cell_length_b	41.258
_cell_length_c	41.258
_cell_angle_alpha	90
_cell_angle_beta	90
_cell_angle_gamma	90
loop_
_atom_site_label
_atom_site_type_symbol
_atom_site_fract_x
_atom_site_fract_y
_atom_site_fract_z
_atom_site_charge
Mof_O 	O 	0.7128	0.3713	0.6704	-1.143
Mof_O 	O 	0.6658	0.4163	0.6288	-0.287
Mof_C 	C 	0.75831	0.37734	0.71788	-0.107
Mof_H 	H 	0.7642	0.3783	0.6957	0.115
Mof_C 	C 	0.66832	0.48319	0.6276	-0.015
Mof_H 	H 	0.6821	0.4717	0.6132	0.058
Mof_O 	O 	0.7061	0.3818	0.6745	1.03
Mof_O 	O 	0.6732	0.4169	0.6347	-0.089
Mof_O 	O 	0.7128	0.8713	0.1704	-1.142
Mof_O 	O 	0.6658	0.9163	0.1288	-0.287
Mof_C 	C 	0.75831	0.87734	0.21788	-0.107
Mof_H 	H 	0.7642	0.8783	0.1957	0.115
Mof_C 	C 	0.66832	0.98319	0.1276	0.002
Mof_H 	H 	0.6821	0.9717	0.1132	0.053
Mof_O 	O 	0.7061	0.8818	0.1745	1.03
Mof_O 	O 	0.6732	0.9169	0.1347	-0.09
Mof_O 	O 	0.2128	0.3713	0.1704	-1.144
Mof_O 	O 	0.1658	0.4163	0.1288	-0.287
Mof_C 	C 	0.25831	0.37734	0.21788	-0.107
Mof_H 	H 	0.2642	0.3783	0.1957	0.115
Mof_C 	C 	0.16832	0.48319	0.1276	-0.015
Mof_H 	H 	0.1821	0.4717	0.1132	0.057
Mof_O 	O 	0.2061	0.3818	0.1745	1.031
Mof_O 	O 	0.1732	0.4169	0.1347	-0.089
Mof_O 	O 	0.2128	0.8713	0.6704	-1.142
Mof_O 	O 	0.1658	0.9163	0.6288	-0.287
Mof_C 	C 	0.25831	0.87734	0.71788	-0.107
Mof_H 	H 	0.2642	0.8783	0.6957	0.115
Mof_C 	C 	0.16832	0.98319	0.6276	0.002
Mof_H 	H 	0.1821	0.9717	0.6132	0.053
Mof_O 	O 	0.2061	0.8818	0.6745	1.029
Mof_O 	O 	0.1732	0.9169	0.6347	-0.09
Mof_O 	O 	0.2872	0.6287	0.6704	-1.143
Mof_O 	O 	0.3342	0.5837	0.6288	-0.287
Mof_C 	C 	0.24169	0.62266	0.71788	-0.107
Mof_H 	H 	0.2358	0.6217	0.6957	0.115
Mof_C 	C 	0.33168	0.51681	0.6276	-0.015
Mof_H 	H 	0.3179	0.5283	0.6132	0.058
Mof_O 	O 	0.2939	0.6182	0.6745	1.03
Mof_O 	O 	0.3268	0.5831	0.6347	-0.089
Mof_O 	O 	0.2872	0.1287	0.1704	-1.145
Mof_O 	O 	0.3342	0.0837	0.1288	-0.287
Mof_C 	C 	0.24169	0.12266	0.21788	-0.108
Mof_H 	H 	0.2358	0.1217	0.1957	0.115
Mof_C 	C 	0.33168	0.01681	0.1276	-0.033
Mof_H 	H 	0.3179	0.0283	0.1132	0.062
Mof_O 	O 	0.2939	0.1182	0.1745	1.032
Mof_O 	O 	0.3268	0.0831	0.1347	-0.088
Mof_O 	O 	0.7872	0.6287	0.1704	-1.144
Mof_O 	O 	0.8342	0.5837	0.1288	-0.287
Mof_C 	C 	0.74169	0.62266	0.21788	-0.107
Mof_H 	H 	0.7358	0.6217	0.1957	0.115
Mof_C 	C 	0.83168	0.51681	0.1276	-0.015
Mof_H 	H 	0.8179	0.5283	0.1132	0.058
Mof_O 	O 	0.7939	0.6182	0.1745	1.031
Mof_O 	O 	0.8268	0.5831	0.1347	-0.089
Mof_O 	O 	0.7872	0.1287	0.6704	-1.144
Mof_O 	O 	0.8342	0.0837	0.6288	-0.287
Mof_C 	C 	0.74169	0.12266	0.71788	-0.108
Mof_H 	H 	0.7358	0.1217	0.6957	0.115
Mof_C 	C 	0.83168	0.01681	0.6276	-0.032
Mof_H 	H 	0.8179	0.0283	0.6132	0.062
Mof_O 	O 	0.7939	0.1182	0.6745	1.032
Mof_O 	O 	0.8268	0.0831	0.6347	-0.088
Mof_O 	O 	0.2872	0.3713	0.3296	-1.144
Mof_O 	O 	0.3342	0.4163	0.3712	-0.287
Mof_C 	C 	0.24169	0.37734	0.28212	-0.107
Mof_H 	H 	0.2358	0.3783	0.3043	0.115
Mof_C 	C 	0.33168	0.48319	0.3724	-0.015
Mof_H 	H 	0.3179	0.4717	0.3868	0.058
Mof_O 	O 	0.2939	0.3818	0.3255	1.031
Mof_O 	O 	0.3268	0.4169	0.3653	-0.089
Mof_O 	O 	0.2872	0.8713	0.8296	-1.142
Mof_O 	O 	0.3342	0.9163	0.8712	-0.287
Mof_C 	C 	0.24169	0.87734	0.78212	-0.107
Mof_H 	H 	0.2358	0.8783	0.8043	0.115
Mof_C 	C 	0.33168	0.98319	0.8724	0.002
Mof_H 	H 	0.3179	0.9717	0.8868	0.053
Mof_O 	O 	0.2939	0.8818	0.8255	1.029
Mof_O 	O 	0.3268	0.9169	0.8653	-0.089
Mof_O 	O 	0.7872	0.3713	0.8296	-1.143
Mof_O 	O 	0.8342	0.4163	0.8712	-0.287
Mof_C 	C 	0.74169	0.37734	0.78212	-0.107
Mof_H 	H 	0.7358	0.3783	0.8043	0.115
Mof_C 	C 	0.83168	0.48319	0.8724	-0.015
Mof_H 	H 	0.8179	0.4717	0.8868	0.058
Mof_O 	O 	0.7939	0.3818	0.8255	1.03
Mof_O 	O 	0.8268	0.4169	0.8653	-0.088
Mof_O 	O 	0.7872	0.8713	0.3296	-1.142
Mof_O 	O 	0.8342	0.9163	0.3712	-0.287
Mof_C 	C 	0.74169	0.87734	0.28212	-0.107
Mof_H 	H 	0.7358	0.8783	0.3043	0.115
Mof_C 	C 	0.83168	0.98319	0.3724	0.003
Mof_H 	H 	0.8179	0.9717	0.3868	0.054
Mof_O 	O 	0.7939	0.8818	0.3255	1.03
Mof_O 	O 	0.8268	0.9169	0.3653	-0.088
Mof_O 	O 	0.7128	0.6287	0.3296	-1.142
Mof_O 	O 	0.6658	0.5837	0.3712	-0.286
Mof_C 	C 	0.75831	0.62266	0.28212	-0.106
Mof_H 	H 	0.7642	0.6217	0.3043	0.116
Mof_C 	C 	0.66832	0.51681	0.3724	-0.014
Mof_H 	H 	0.6821	0.5283	0.3868	0.059
Mof_O 	O 	0.7061	0.6182	0.3255	1.031
Mof_O 	O 	0.6732	0.5831	0.3653	-0.088
Mof_O 	O 	0.7128	0.1287	0.8296	-1.143
Mof_O 	O 	0.6658	0.0837	0.8712	-0.286
Mof_C 	C 	0.75831	0.12266	0.78212	-0.107
Mof_H 	H 	0.7642	0.1217	0.8043	0.116
Mof_C 	C 	0.66832	0.01681	0.8724	-0.031
Mof_H 	H 	0.6821	0.0283	0.8868	0.063
Mof_O 	O 	0.7061	0.1182	0.8255	1.032
Mof_O 	O 	0.6732	0.0831	0.8653	-0.087
Mof_O 	O 	0.2128	0.6287	0.8296	-1.142
Mof_O 	O 	0.1658	0.5837	0.8712	-0.286
Mof_C 	C 	0.25831	0.62266	0.78212	-0.106
Mof_H 	H 	0.2642	0.6217	0.8043	0.116
Mof_C 	C 	0.16832	0.51681	0.8724	-0.014
Mof_H 	H 	0.1821	0.5283	0.8868	0.059
Mof_O 	O 	0.2061	0.6182	0.8255	1.031
Mof_O 	O 	0.1732	0.5831	0.8653	-0.088
Mof_O 	O 	0.2128	0.1287	0.3296	-1.143
Mof_O 	O 	0.1658	0.0837	0.3712	-0.286
Mof_C 	C 	0.25831	0.12266	0.28212	-0.107
Mof_H 	H 	0.2642	0.1217	0.3043	0.116
Mof_C 	C 	0.16832	0.01681	0.3724	-0.032
Mof_H 	H 	0.1821	0.0283	0.3868	0.063
Mof_O 	O 	0.2061	0.1182	0.3255	1.033
Mof_O 	O 	0.1732	0.0831	0.3653	-0.087
Mof_O 	O 	0.6704	0.7128	0.3713	-1.142
Mof_O 	O 	0.6288	0.6658	0.4163	-0.286
Mof_C 	C 	0.71788	0.75831	0.37734	-0.106
Mof_H 	H 	0.6957	0.7642	0.3783	0.116
Mof_C 	C 	0.6276	0.66832	0.48319	-0.014
Mof_H 	H 	0.6132	0.6821	0.4717	0.059
Mof_O 	O 	0.6745	0.7061	0.3818	1.031
Mof_O 	O 	0.6347	0.6732	0.4169	-0.088
Mof_O 	O 	0.6704	0.2128	0.8713	-1.141
Mof_O 	O 	0.6288	0.1658	0.9163	-0.286
Mof_C 	C 	0.71788	0.25831	0.87734	-0.106
Mof_H 	H 	0.6957	0.2642	0.8783	0.116
Mof_C 	C 	0.6276	0.16832	0.98319	0.003
Mof_H 	H 	0.6132	0.1821	0.9717	0.054
Mof_O 	O 	0.6745	0.2061	0.8818	1.03
Mof_O 	O 	0.6347	0.1732	0.9169	-0.089
Mof_O 	O 	0.1704	0.7128	0.8713	-1.141
Mof_O 	O 	0.1288	0.6658	0.9163	-0.286
Mof_C 	C 	0.21788	0.75831	0.87734	-0.106
Mof_H 	H 	0.1957	0.7642	0.8783	0.116
Mof_C 	C 	0.1276	0.66832	0.98319	0.003
Mof_H 	H 	0.1132	0.6821	0.9717	0.054
Mof_O 	O 	0.1745	0.7061	0.8818	1.031
Mof_O 	O 	0.1347	0.6732	0.9169	-0.089
Mof_O 	O 	0.1704	0.2128	0.3713	-1.143
Mof_O 	O 	0.1288	0.1658	0.4163	-0.286
Mof_C 	C 	0.21788	0.25831	0.37734	-0.106
Mof_H 	H 	0.1957	0.2642	0.3783	0.116
Mof_C 	C 	0.1276	0.16832	0.48319	-0.014
Mof_H 	H 	0.1132	0.1821	0.4717	0.058
Mof_O 	O 	0.1745	0.2061	0.3818	1.032
Mof_O 	O 	0.1347	0.1732	0.4169	-0.088
Mof_O 	O 	0.6704	0.2872	0.6287	-1.142
Mof_O 	O 	0.6288	0.3342	0.5837	-0.286
Mof_C 	C 	0.71788	0.24169	0.62266	-0.106
Mof_H 	H 	0.6957	0.2358	0.6217	0.116
Mof_C 	C 	0.6276	0.33168	0.51681	-0.014
Mof_H 	H 	0.6132	0.3179	0.5283	0.059
Mof_O 	O 	0.6745	0.2939	0.6182	1.031
Mof_O 	O 	0.6347	0.3268	0.5831	-0.088
Mof_O 	O 	0.6704	0.7872	0.1287	-1.143
Mof_O 	O 	0.6288	0.8342	0.0837	-0.286
Mof_C 	C 	0.71788	0.74169	0.12266	-0.107
Mof_H 	H 	0.6957	0.7358	0.1217	0.116
Mof_C 	C 	0.6276	0.83168	0.01681	-0.031
Mof_H 	H 	0.6132	0.8179	0.0283	0.063
Mof_O 	O 	0.6745	0.7939	0.1182	1.033
Mof_O 	O 	0.6347	0.8268	0.0831	-0.087
Mof_O 	O 	0.1704	0.2872	0.1287	-1.144
Mof_O 	O 	0.1288	0.3342	0.0837	-0.286
Mof_C 	C 	0.21788	0.24169	0.12266	-0.107
Mof_H 	H 	0.1957	0.2358	0.1217	0.116
Mof_C 	C 	0.1276	0.33168	0.01681	-0.032
Mof_H 	H 	0.1132	0.3179	0.0283	0.063
Mof_O 	O 	0.1745	0.2939	0.1182	1.033
Mof_O 	O 	0.1347	0.3268	0.0831	-0.087
Mof_O 	O 	0.1704	0.7872	0.6287	-1.143
Mof_O 	O 	0.1288	0.8342	0.5837	-0.286
Mof_C 	C 	0.21788	0.74169	0.62266	-0.106
Mof_H 	H 	0.1957	0.7358	0.6217	0.116
Mof_C 	C 	0.1276	0.83168	0.51681	-0.014
Mof_H 	H 	0.1132	0.8179	0.5283	0.059
Mof_O 	O 	0.1745	0.7939	0.6182	1.032
Mof_O 	O 	0.1347	0.8268	0.5831	-0.088
Mof_O 	O 	0.3296	0.2872	0.3713	-1.143
Mof_O 	O 	0.3712	0.3342	0.4163	-0.286
Mof_C 	C 	0.28212	0.24169	0.37734	-0.106
Mof_H 	H 	0.3043	0.2358	0.3783	0.116
Mof_C 	C 	0.3724	0.33168	0.48319	-0.014
Mof_H 	H 	0.3868	0.3179	0.4717	0.059
Mof_O 	O 	0.3255	0.2939	0.3818	1.032
Mof_O 	O 	0.3653	0.3268	0.4169	-0.088
Mof_O 	O 	0.3296	0.7872	0.8713	-1.141
Mof_O 	O 	0.3712	0.8342	0.9163	-0.286
Mof_C 	C 	0.28212	0.74169	0.87734	-0.106
Mof_H 	H 	0.3043	0.7358	0.8783	0.116
Mof_C 	C 	0.3724	0.83168	0.98319	0.003
Mof_H 	H 	0.3868	0.8179	0.9717	0.054
Mof_O 	O 	0.3255	0.7939	0.8818	1.03
Mof_O 	O 	0.3653	0.8268	0.9169	-0.088
Mof_O 	O 	0.8296	0.2872	0.8713	-1.141
Mof_O 	O 	0.8712	0.3342	0.9163	-0.286
Mof_C 	C 	0.78212	0.24169	0.87734	-0.106
Mof_H 	H 	0.8043	0.2358	0.8783	0.116
Mof_C 	C 	0.8724	0.33168	0.98319	0.003
Mof_H 	H 	0.8868	0.3179	0.9717	0.054
Mof_O 	O 	0.8255	0.2939	0.8818	1.03
Mof_O 	O 	0.8653	0.3268	0.9169	-0.088
Mof_O 	O 	0.8296	0.7872	0.3713	-1.142
Mof_O 	O 	0.8712	0.8342	0.4163	-0.286
Mof_C 	C 	0.78212	0.74169	0.37734	-0.106
Mof_H 	H 	0.8043	0.7358	0.3783	0.116
Mof_C 	C 	0.8724	0.83168	0.48319	-0.014
Mof_H 	H 	0.8868	0.8179	0.4717	0.059
Mof_O 	O 	0.8255	0.7939	0.3818	1.031
Mof_O 	O 	0.8653	0.8268	0.4169	-0.087
Mof_O 	O 	0.3296	0.7128	0.6287	-1.142
Mof_O 	O 	0.3712	0.6658	0.5837	-0.286
Mof_C 	C 	0.28212	0.75831	0.62266	-0.106
Mof_H 	H 	0.3043	0.7642	0.6217	0.116
Mof_C 	C 	0.3724	0.66832	0.51681	-0.014
Mof_H 	H 	0.3868	0.6821	0.5283	0.059
Mof_O 	O 	0.3255	0.7061	0.6182	1.031
Mof_O 	O 	0.3653	0.6732	0.5831	-0.088
Mof_O 	O 	0.3296	0.2128	0.1287	-1.143
Mof_O 	O 	0.3712	0.1658	0.0837	-0.286
Mof_C 	C 	0.28212	0.25831	0.12266	-0.107
Mof_H 	H 	0.3043	0.2642	0.1217	0.116
Mof_C 	C 	0.3724	0.16832	0.01681	-0.032
Mof_H 	H 	0.3868	0.1821	0.0283	0.063
Mof_O 	O 	0.3255	0.2061	0.1182	1.033
Mof_O 	O 	0.3653	0.1732	0.0831	-0.087
Mof_O 	O 	0.8296	0.7128	0.1287	-1.143
Mof_O 	O 	0.8712	0.6658	0.0837	-0.286
Mof_C 	C 	0.78212	0.75831	0.12266	-0.107
Mof_H 	H 	0.8043	0.7642	0.1217	0.116
Mof_C 	C 	0.8724	0.66832	0.01681	-0.031
Mof_H 	H 	0.8868	0.6821	0.0283	0.063
Mof_O 	O 	0.8255	0.7061	0.1182	1.032
Mof_O 	O 	0.8653	0.6732	0.0831	-0.087
Mof_O 	O 	0.8296	0.2128	0.6287	-1.142
Mof_O 	O 	0.8712	0.1658	0.5837	-0.286
Mof_C 	C 	0.78212	0.25831	0.62266	-0.106
Mof_H 	H 	0.8043	0.2642	0.6217	0.116
Mof_C 	C 	0.8724	0.16832	0.51681	-0.014
Mof_H 	H 	0.8868	0.1821	0.5283	0.059
Mof_O 	O 	0.8255	0.2061	0.6182	1.031
Mof_O 	O 	0.8653	0.1732	0.5831	-0.088
Mof_O 	O 	0.3713	0.6704	0.7128	-1.142
Mof_O 	O 	0.4163	0.6288	0.6658	-0.286
Mof_C 	C 	0.37734	0.71788	0.75831	-0.106
Mof_H 	H 	0.3783	0.6957	0.7642	0.116
Mof_C 	C 	0.48319	0.6276	0.66832	-0.014
Mof_H 	H 	0.4717	0.6132	0.6821	0.059
Mof_O 	O 	0.3818	0.6745	0.7061	1.031
Mof_O 	O 	0.4169	0.6347	0.6732	-0.088
Mof_O 	O 	0.3713	0.1704	0.2128	-1.143
Mof_O 	O 	0.4163	0.1288	0.1658	-0.286
Mof_C 	C 	0.37734	0.21788	0.25831	-0.106
Mof_H 	H 	0.3783	0.1957	0.2642	0.116
Mof_C 	C 	0.48319	0.1276	0.16832	-0.014
Mof_H 	H 	0.4717	0.1132	0.1821	0.058
Mof_O 	O 	0.3818	0.1745	0.2061	1.032
Mof_O 	O 	0.4169	0.1347	0.1732	-0.088
Mof_O 	O 	0.8713	0.6704	0.2128	-1.141
Mof_O 	O 	0.9163	0.6288	0.1658	-0.286
Mof_C 	C 	0.87734	0.71788	0.25831	-0.106
Mof_H 	H 	0.8783	0.6957	0.2642	0.116
Mof_C 	C 	0.98319	0.6276	0.16832	0.003
Mof_H 	H 	0.9717	0.6132	0.1821	0.054
Mof_O 	O 	0.8818	0.6745	0.2061	1.03
Mof_O 	O 	0.9169	0.6347	0.1732	-0.089
Mof_O 	O 	0.8713	0.1704	0.7128	-1.141
Mof_O 	O 	0.9163	0.1288	0.6658	-0.286
Mof_C 	C 	0.87734	0.21788	0.75831	-0.106
Mof_H 	H 	0.8783	0.1957	0.7642	0.116
Mof_C 	C 	0.98319	0.1276	0.66832	0.003
Mof_H 	H 	0.9717	0.1132	0.6821	0.054
Mof_O 	O 	0.8818	0.1745	0.7061	1.031
Mof_O 	O 	0.9169	0.1347	0.6732	-0.089
Mof_O 	O 	0.6287	0.6704	0.2872	-1.142
Mof_O 	O 	0.5837	0.6288	0.3342	-0.286
Mof_C 	C 	0.62266	0.71788	0.24169	-0.106
Mof_H 	H 	0.6217	0.6957	0.2358	0.116
Mof_C 	C 	0.51681	0.6276	0.33168	-0.014
Mof_H 	H 	0.5283	0.6132	0.3179	0.059
Mof_O 	O 	0.6182	0.6745	0.2939	1.031
Mof_O 	O 	0.5831	0.6347	0.3268	-0.088
Mof_O 	O 	0.6287	0.1704	0.7872	-1.143
Mof_O 	O 	0.5837	0.1288	0.8342	-0.286
Mof_C 	C 	0.62266	0.21788	0.74169	-0.106
Mof_H 	H 	0.6217	0.1957	0.7358	0.116
Mof_C 	C 	0.51681	0.1276	0.83168	-0.014
Mof_H 	H 	0.5283	0.1132	0.8179	0.059
Mof_O 	O 	0.6182	0.1745	0.7939	1.032
Mof_O 	O 	0.5831	0.1347	0.8268	-0.088
Mof_O 	O 	0.1287	0.6704	0.7872	-1.143
Mof_O 	O 	0.0837	0.6288	0.8342	-0.286
Mof_C 	C 	0.12266	0.71788	0.74169	-0.107
Mof_H 	H 	0.1217	0.6957	0.7358	0.116
Mof_C 	C 	0.01681	0.6276	0.83168	-0.031
Mof_H 	H 	0.0283	0.6132	0.8179	0.063
Mof_O 	O 	0.1182	0.6745	0.7939	1.033
Mof_O 	O 	0.0831	0.6347	0.8268	-0.087
Mof_O 	O 	0.1287	0.1704	0.2872	-1.144
Mof_O 	O 	0.0837	0.1288	0.3342	-0.286
Mof_C 	C 	0.12266	0.21788	0.24169	-0.107
Mof_H 	H 	0.1217	0.1957	0.2358	0.116
Mof_C 	C 	0.01681	0.1276	0.33168	-0.032
Mof_H 	H 	0.0283	0.1132	0.3179	0.063
Mof_O 	O 	0.1182	0.1745	0.2939	1.033
Mof_O 	O 	0.0831	0.1347	0.3268	-0.087
Mof_O 	O 	0.3713	0.3296	0.2872	-1.143
Mof_O 	O 	0.4163	0.3712	0.3342	-0.286
Mof_C 	C 	0.37734	0.28212	0.24169	-0.106
Mof_H 	H 	0.3783	0.3043	0.2358	0.116
Mof_C 	C 	0.48319	0.3724	0.33168	-0.014
Mof_H 	H 	0.4717	0.3868	0.3179	0.059
Mof_O 	O 	0.3818	0.3255	0.2939	1.032
Mof_O 	O 	0.4169	0.3653	0.3268	-0.088
Mof_O 	O 	0.3713	0.8296	0.7872	-1.142
Mof_O 	O 	0.4163	0.8712	0.8342	-0.286
Mof_C 	C 	0.37734	0.78212	0.74169	-0.106
Mof_H 	H 	0.3783	0.8043	0.7358	0.116
Mof_C 	C 	0.48319	0.8724	0.83168	-0.014
Mof_H 	H 	0.4717	0.8868	0.8179	0.059
Mof_O 	O 	0.3818	0.8255	0.7939	1.031
Mof_O 	O 	0.4169	0.8653	0.8268	-0.087
Mof_O 	O 	0.8713	0.3296	0.7872	-1.141
Mof_O 	O 	0.9163	0.3712	0.8342	-0.286
Mof_C 	C 	0.87734	0.28212	0.74169	-0.106
Mof_H 	H 	0.8783	0.3043	0.7358	0.116
Mof_C 	C 	0.98319	0.3724	0.83168	0.003
Mof_H 	H 	0.9717	0.3868	0.8179	0.054
Mof_O 	O 	0.8818	0.3255	0.7939	1.03
Mof_O 	O 	0.9169	0.3653	0.8268	-0.088
Mof_O 	O 	0.8713	0.8296	0.2872	-1.141
Mof_O 	O 	0.9163	0.8712	0.3342	-0.286
Mof_C 	C 	0.87734	0.78212	0.24169	-0.106
Mof_H 	H 	0.8783	0.8043	0.2358	0.116
Mof_C 	C 	0.98319	0.8724	0.33168	0.003
Mof_H 	H 	0.9717	0.8868	0.3179	0.054
Mof_O 	O 	0.8818	0.8255	0.2939	1.03
Mof_O 	O 	0.9169	0.8653	0.3268	-0.088
Mof_O 	O 	0.6287	0.3296	0.7128	-1.142
Mof_O 	O 	0.5837	0.3712	0.6658	-0.286
Mof_C 	C 	0.62266	0.28212	0.75831	-0.106
Mof_H 	H 	0.6217	0.3043	0.7642	0.116
Mof_C 	C 	0.51681	0.3724	0.66832	-0.014
Mof_H 	H 	0.5283	0.3868	0.6821	0.059
Mof_O 	O 	0.6182	0.3255	0.7061	1.031
Mof_O 	O 	0.5831	0.3653	0.6732	-0.088
Mof_O 	O 	0.6287	0.8296	0.2128	-1.142
Mof_O 	O 	0.5837	0.8712	0.1658	-0.286
Mof_C 	C 	0.62266	0.78212	0.25831	-0.106
Mof_H 	H 	0.6217	0.8043	0.2642	0.116
Mof_C 	C 	0.51681	0.8724	0.16832	-0.014
Mof_H 	H 	0.5283	0.8868	0.1821	0.059
Mof_O 	O 	0.6182	0.8255	0.2061	1.031
Mof_O 	O 	0.5831	0.8653	0.1732	-0.088
Mof_O 	O 	0.1287	0.3296	0.2128	-1.143
Mof_O 	O 	0.0837	0.3712	0.1658	-0.286
Mof_C 	C 	0.12266	0.28212	0.25831	-0.107
Mof_H 	H 	0.1217	0.3043	0.2642	0.116
Mof_C 	C 	0.01681	0.3724	0.16832	-0.032
Mof_H 	H 	0.0283	0.3868	0.1821	0.063
Mof_O 	O 	0.1182	0.3255	0.2061	1.033
Mof_O 	O 	0.0831	0.3653	0.1732	-0.087
Mof_O 	O 	0.1287	0.8296	0.7128	-1.143
Mof_O 	O 	0.0837	0.8712	0.6658	-0.286
Mof_C 	C 	0.12266	0.78212	0.75831	-0.107
Mof_H 	H 	0.1217	0.8043	0.7642	0.116
Mof_C 	C 	0.01681	0.8724	0.66832	-0.031
Mof_H 	H 	0.0283	0.8868	0.6821	0.063
Mof_O 	O 	0.1182	0.8255	0.7061	1.032
Mof_O 	O 	0.0831	0.8653	0.6732	-0.087
Mof_O 	O 	0.3713	0.7128	0.3296	-1.142
Mof_O 	O 	0.4163	0.6658	0.3712	-0.286
Mof_C 	C 	0.37734	0.75831	0.28212	-0.106
Mof_H 	H 	0.3783	0.7642	0.3043	0.116
Mof_C 	C 	0.48319	0.66832	0.3724	-0.014
Mof_H 	H 	0.4717	0.6821	0.3868	0.059
Mof_O 	O 	0.3818	0.7061	0.3255	1.032
Mof_O 	O 	0.4169	0.6732	0.3653	-0.088
Mof_O 	O 	0.3713	0.2128	0.8296	-1.142
Mof_O 	O 	0.4163	0.1658	0.8712	-0.286
Mof_C 	C 	0.37734	0.25831	0.78212	-0.106
Mof_H 	H 	0.3783	0.2642	0.8043	0.116
Mof_C 	C 	0.48319	0.16832	0.8724	-0.014
Mof_H 	H 	0.4717	0.1821	0.8868	0.059
Mof_O 	O 	0.3818	0.2061	0.8255	1.031
Mof_O 	O 	0.4169	0.1732	0.8653	-0.088
Mof_O 	O 	0.8713	0.7128	0.8296	-1.141
Mof_O 	O 	0.9163	0.6658	0.8712	-0.286
Mof_C 	C 	0.87734	0.75831	0.78212	-0.106
Mof_H 	H 	0.8783	0.7642	0.8043	0.116
Mof_C 	C 	0.98319	0.66832	0.8724	0.003
Mof_H 	H 	0.9717	0.6821	0.8868	0.054
Mof_O 	O 	0.8818	0.7061	0.8255	1.03
Mof_O 	O 	0.9169	0.6732	0.8653	-0.088
Mof_O 	O 	0.8713	0.2128	0.3296	-1.141
Mof_O 	O 	0.9163	0.1658	0.3712	-0.286
Mof_C 	C 	0.87734	0.25831	0.28212	-0.106
Mof_H 	H 	0.8783	0.2642	0.3043	0.116
Mof_C 	C 	0.98319	0.16832	0.3724	0.003
Mof_H 	H 	0.9717	0.1821	0.3868	0.054
Mof_O 	O 	0.8818	0.2061	0.3255	1.03
Mof_O 	O 	0.9169	0.1732	0.3653	-0.089
Mof_O 	O 	0.6287	0.2872	0.3296	-1.143
Mof_O 	O 	0.5837	0.3342	0.3712	-0.286
Mof_C 	C 	0.62266	0.24169	0.28212	-0.106
Mof_H 	H 	0.6217	0.2358	0.3043	0.116
Mof_C 	C 	0.51681	0.33168	0.3724	-0.014
Mof_H 	H 	0.5283	0.3179	0.3868	0.059
Mof_O 	O 	0.6182	0.2939	0.3255	1.032
Mof_O 	O 	0.5831	0.3268	0.3653	-0.088
Mof_O 	O 	0.6287	0.7872	0.8296	-1.142
Mof_O 	O 	0.5837	0.8342	0.8712	-0.286
Mof_C 	C 	0.62266	0.74169	0.78212	-0.106
Mof_H 	H 	0.6217	0.7358	0.8043	0.116
Mof_C 	C 	0.51681	0.83168	0.8724	-0.014
Mof_H 	H 	0.5283	0.8179	0.8868	0.059
Mof_O 	O 	0.6182	0.7939	0.8255	1.031
Mof_O 	O 	0.5831	0.8268	0.8653	-0.087
Mof_O 	O 	0.1287	0.2872	0.8296	-1.143
Mof_O 	O 	0.0837	0.3342	0.8712	-0.286
Mof_C 	C 	0.12266	0.24169	0.78212	-0.106
Mof_H 	H 	0.1217	0.2358	0.8043	0.116
Mof_C 	C 	0.01681	0.33168	0.8724	-0.031
Mof_H 	H 	0.0283	0.3179	0.8868	0.063
Mof_O 	O 	0.1182	0.2939	0.8255	1.032
Mof_O 	O 	0.0831	0.3268	0.8653	-0.087
Mof_O 	O 	0.1287	0.7872	0.3296	-1.144
Mof_O 	O 	0.0837	0.8342	0.3712	-0.286
Mof_C 	C 	0.12266	0.74169	0.28212	-0.106
Mof_H 	H 	0.1217	0.7358	0.3043	0.116
Mof_C 	C 	0.01681	0.83168	0.3724	-0.031
Mof_H 	H 	0.0283	0.8179	0.3868	0.063
Mof_O 	O 	0.1182	0.7939	0.3255	1.033
Mof_O 	O 	0.0831	0.8268	0.3653	-0.087
Mof_O 	O 	0.3713	0.2872	0.6704	-1.142
Mof_O 	O 	0.4163	0.3342	0.6288	-0.286
Mof_C 	C 	0.37734	0.24169	0.71788	-0.106
Mof_H 	H 	0.3783	0.2358	0.6957	0.116
Mof_C 	C 	0.48319	0.33168	0.6276	-0.014
Mof_H 	H 	0.4717	0.3179	0.6132	0.059
Mof_O 	O 	0.3818	0.2939	0.6745	1.032
Mof_O 	O 	0.4169	0.3268	0.6347	-0.088
Mof_O 	O 	0.3713	0.7872	0.1704	-1.143
Mof_O 	O 	0.4163	0.8342	0.1288	-0.286
Mof_C 	C 	0.37734	0.74169	0.21788	-0.106
Mof_H 	H 	0.3783	0.7358	0.1957	0.116
Mof_C 	C 	0.48319	0.83168	0.1276	-0.014
Mof_H 	H 	0.4717	0.8179	0.1132	0.059
Mof_O 	O 	0.3818	0.7939	0.1745	1.032
Mof_O 	O 	0.4169	0.8268	0.1347	-0.088
Mof_O 	O 	0.8713	0.2872	0.1704	-1.142
Mof_O 	O 	0.9163	0.3342	0.1288	-0.286
Mof_C 	C 	0.87734	0.24169	0.21788	-0.106
Mof_H 	H 	0.8783	0.2358	0.1957	0.116
Mof_C 	C 	0.98319	0.33168	0.1276	0.003
Mof_H 	H 	0.9717	0.3179	0.1132	0.054
Mof_O 	O 	0.8818	0.2939	0.1745	1.031
Mof_O 	O 	0.9169	0.3268	0.1347	-0.089
Mof_O 	O 	0.8713	0.7872	0.6704	-1.141
Mof_O 	O 	0.9163	0.8342	0.6288	-0.286
Mof_C 	C 	0.87734	0.74169	0.71788	-0.106
Mof_H 	H 	0.8783	0.7358	0.6957	0.116
Mof_C 	C 	0.98319	0.83168	0.6276	0.003
Mof_H 	H 	0.9717	0.8179	0.6132	0.054
Mof_O 	O 	0.8818	0.7939	0.6745	1.03
Mof_O 	O 	0.9169	0.8268	0.6347	-0.088
Mof_O 	O 	0.6287	0.7128	0.6704	-1.142
Mof_O 	O 	0.5837	0.6658	0.6288	-0.286
Mof_C 	C 	0.62266	0.75831	0.71788	-0.106
Mof_H 	H 	0.6217	0.7642	0.6957	0.116
Mof_C 	C 	0.51681	0.66832	0.6276	-0.014
Mof_H 	H 	0.5283	0.6821	0.6132	0.059
Mof_O 	O 	0.6182	0.7061	0.6745	1.031
Mof_O 	O 	0.5831	0.6732	0.6347	-0.088
Mof_O 	O 	0.6287	0.2128	0.1704	-1.143
Mof_O 	O 	0.5837	0.1658	0.1288	-0.286
Mof_C 	C 	0.62266	0.25831	0.21788	-0.106
Mof_H 	H 	0.6217	0.2642	0.1957	0.116
Mof_C 	C 	0.51681	0.16832	0.1276	-0.014
Mof_H 	H 	0.5283	0.1821	0.1132	0.058
Mof_O 	O 	0.6182	0.2061	0.1745	1.032
Mof_O 	O 	0.5831	0.1732	0.1347	-0.088
Mof_O 	O 	0.1287	0.7128	0.1704	-1.144
Mof_O 	O 	0.0837	0.6658	0.1288	-0.286
Mof_C 	C 	0.12266	0.75831	0.21788	-0.107
Mof_H 	H 	0.1217	0.7642	0.1957	0.116
Mof_C 	C 	0.01681	0.66832	0.1276	-0.032
Mof_H 	H 	0.0283	0.6821	0.1132	0.063
Mof_O 	O 	0.1182	0.7061	0.1745	1.033
Mof_O 	O 	0.0831	0.6732	0.1347	-0.087
Mof_O 	O 	0.1287	0.2128	0.6704	-1.143
Mof_O 	O 	0.0837	0.1658	0.6288	-0.286
Mof_C 	C 	0.12266	0.25831	0.71788	-0.107
Mof_H 	H 	0.1217	0.2642	0.6957	0.116
Mof_C 	C 	0.01681	0.16832	0.6276	-0.032
Mof_H 	H 	0.0283	0.1821	0.6132	0.063
Mof_O 	O 	0.1182	0.2061	0.6745	1.033
Mof_O 	O 	0.0831	0.1732	0.6347	-0.087
Mof_O 	O 	0.7128	0.6704	0.6287	-1.142
Mof_O 	O 	0.6658	0.6288	0.5837	-0.286
Mof_C 	C 	0.75831	0.71788	0.62266	-0.106
Mof_H 	H 	0.7642	0.6957	0.6217	0.116
Mof_C 	C 	0.66832	0.6276	0.51681	-0.014
Mof_H 	H 	0.6821	0.6132	0.5283	0.059
Mof_O 	O 	0.7061	0.6745	0.6182	1.031
Mof_O 	O 	0.6732	0.6347	0.5831	-0.088
Mof_O 	O 	0.7128	0.1704	0.1287	-1.144
Mof_O 	O 	0.6658	0.1288	0.0837	-0.286
Mof_C 	C 	0.75831	0.21788	0.12266	-0.107
Mof_H 	H 	0.7642	0.1957	0.1217	0.116
Mof_C 	C 	0.66832	0.1276	0.01681	-0.032
Mof_H 	H 	0.6821	0.1132	0.0283	0.063
Mof_O 	O 	0.7061	0.1745	0.1182	1.033
Mof_O 	O 	0.6732	0.1347	0.0831	-0.087
Mof_O 	O 	0.2128	0.6704	0.1287	-1.143
Mof_O 	O 	0.1658	0.6288	0.0837	-0.286
Mof_C 	C 	0.25831	0.71788	0.12266	-0.107
Mof_H 	H 	0.2642	0.6957	0.1217	0.116
Mof_C 	C 	0.16832	0.6276	0.01681	-0.032
Mof_H 	H 	0.1821	0.6132	0.0283	0.063
Mof_O 	O 	0.2061	0.6745	0.1182	1.033
Mof_O 	O 	0.1732	0.6347	0.0831	-0.087
Mof_O 	O 	0.2128	0.1704	0.6287	-1.143
Mof_O 	O 	0.1658	0.1288	0.5837	-0.286
Mof_C 	C 	0.25831	0.21788	0.62266	-0.106
Mof_H 	H 	0.2642	0.1957	0.6217	0.116
Mof_C 	C 	0.16832	0.1276	0.51681	-0.014
Mof_H 	H 	0.1821	0.1132	0.5283	0.058
Mof_O 	O 	0.2061	0.1745	0.6182	1.032
Mof_O 	O 	0.1732	0.1347	0.5831	-0.088
Mof_O 	O 	0.2872	0.6704	0.3713	-1.142
Mof_O 	O 	0.3342	0.6288	0.4163	-0.286
Mof_C 	C 	0.24169	0.71788	0.37734	-0.106
Mof_H 	H 	0.2358	0.6957	0.3783	0.116
Mof_C 	C 	0.33168	0.6276	0.48319	-0.014
Mof_H 	H 	0.3179	0.6132	0.4717	0.059
Mof_O 	O 	0.2939	0.6745	0.3818	1.032
Mof_O 	O 	0.3268	0.6347	0.4169	-0.088
Mof_O 	O 	0.2872	0.1704	0.8713	-1.142
Mof_O 	O 	0.3342	0.1288	0.9163	-0.286
Mof_C 	C 	0.24169	0.21788	0.87734	-0.106
Mof_H 	H 	0.2358	0.1957	0.8783	0.116
Mof_C 	C 	0.33168	0.1276	0.98319	0.003
Mof_H 	H 	0.3179	0.1132	0.9717	0.054
Mof_O 	O 	0.2939	0.1745	0.8818	1.031
Mof_O 	O 	0.3268	0.1347	0.9169	-0.089
Mof_O 	O 	0.7872	0.6704	0.8713	-1.141
Mof_O 	O 	0.8342	0.6288	0.9163	-0.286
Mof_C 	C 	0.74169	0.71788	0.87734	-0.106
Mof_H 	H 	0.7358	0.6957	0.8783	0.116
Mof_C 	C 	0.83168	0.6276	0.98319	0.003
Mof_H 	H 	0.8179	0.6132	0.9717	0.054
Mof_O 	O 	0.7939	0.6745	0.8818	1.03
Mof_O 	O 	0.8268	0.6347	0.9169	-0.088
Mof_O 	O 	0.7872	0.1704	0.3713	-1.143
Mof_O 	O 	0.8342	0.1288	0.4163	-0.286
Mof_C 	C 	0.74169	0.21788	0.37734	-0.106
Mof_H 	H 	0.7358	0.1957	0.3783	0.116
Mof_C 	C 	0.83168	0.1276	0.48319	-0.014
Mof_H 	H 	0.8179	0.1132	0.4717	0.059
Mof_O 	O 	0.7939	0.1745	0.3818	1.032
Mof_O 	O 	0.8268	0.1347	0.4169	-0.088
Mof_O 	O 	0.2872	0.3296	0.6287	-1.143
Mof_O 	O 	0.3342	0.3712	0.5837	-0.286
Mof_C 	C 	0.24169	0.28212	0.62266	-0.106
Mof_H 	H 	0.2358	0.3043	0.6217	0.116
Mof_C 	C 	0.33168	0.3724	0.51681	-0.014
Mof_H 	H 	0.3179	0.3868	0.5283	0.059
Mof_O 	O 	0.2939	0.3255	0.6182	1.032
Mof_O 	O 	0.3268	0.3653	0.5831	-0.088
Mof_O 	O 	0.2872	0.8296	0.1287	-1.143
Mof_O 	O 	0.3342	0.8712	0.0837	-0.286
Mof_C 	C 	0.24169	0.78212	0.12266	-0.106
Mof_H 	H 	0.2358	0.8043	0.1217	0.116
Mof_C 	C 	0.33168	0.8724	0.01681	-0.031
Mof_H 	H 	0.3179	0.8868	0.0283	0.063
Mof_O 	O 	0.2939	0.8255	0.1182	1.032
Mof_O 	O 	0.3268	0.8653	0.0831	-0.087
Mof_O 	O 	0.7872	0.3296	0.1287	-1.144
Mof_O 	O 	0.8342	0.3712	0.0837	-0.286
Mof_C 	C 	0.74169	0.28212	0.12266	-0.106
Mof_H 	H 	0.7358	0.3043	0.1217	0.116
Mof_C 	C 	0.83168	0.3724	0.01681	-0.031
Mof_H 	H 	0.8179	0.3868	0.0283	0.063
Mof_O 	O 	0.7939	0.3255	0.1182	1.033
Mof_O 	O 	0.8268	0.3653	0.0831	-0.087
Mof_O 	O 	0.7872	0.8296	0.6287	-1.142
Mof_O 	O 	0.8342	0.8712	0.5837	-0.286
Mof_C 	C 	0.74169	0.78212	0.62266	-0.106
Mof_H 	H 	0.7358	0.8043	0.6217	0.116
Mof_C 	C 	0.83168	0.8724	0.51681	-0.014
Mof_H 	H 	0.8179	0.8868	0.5283	0.059
Mof_O 	O 	0.7939	0.8255	0.6182	1.031
Mof_O 	O 	0.8268	0.8653	0.5831	-0.087
Mof_O 	O 	0.7128	0.3296	0.3713	-1.142
Mof_O 	O 	0.6658	0.3712	0.4163	-0.286
Mof_C 	C 	0.75831	0.28212	0.37734	-0.106
Mof_H 	H 	0.7642	0.3043	0.3783	0.116
Mof_C 	C 	0.66832	0.3724	0.48319	-0.014
Mof_H 	H 	0.6821	0.3868	0.4717	0.059
Mof_O 	O 	0.7061	0.3255	0.3818	1.032
Mof_O 	O 	0.6732	0.3653	0.4169	-0.088
Mof_O 	O 	0.7128	0.8296	0.8713	-1.141
Mof_O 	O 	0.6658	0.8712	0.9163	-0.286
Mof_C 	C 	0.75831	0.78212	0.87734	-0.106
Mof_H 	H 	0.7642	0.8043	0.8783	0.116
Mof_C 	C 	0.66832	0.8724	0.98319	0.003
Mof_H 	H 	0.6821	0.8868	0.9717	0.054
Mof_O 	O 	0.7061	0.8255	0.8818	1.03
Mof_O 	O 	0.6732	0.8653	0.9169	-0.088
Mof_O 	O 	0.2128	0.3296	0.8713	-1.141
Mof_O 	O 	0.1658	0.3712	0.9163	-0.286
Mof_C 	C 	0.25831	0.28212	0.87734	-0.106
Mof_H 	H 	0.2642	0.3043	0.8783	0.116
Mof_C 	C 	0.16832	0.3724	0.98319	0.003
Mof_H 	H 	0.1821	0.3868	0.9717	0.054
Mof_O 	O 	0.2061	0.3255	0.8818	1.03
Mof_O 	O 	0.1732	0.3653	0.9169	-0.089
Mof_O 	O 	0.2128	0.8296	0.3713	-1.142
Mof_O 	O 	0.1658	0.8712	0.4163	-0.286
Mof_C 	C 	0.25831	0.78212	0.37734	-0.106
Mof_H 	H 	0.2642	0.8043	0.3783	0.116
Mof_C 	C 	0.16832	0.8724	0.48319	-0.014
Mof_H 	H 	0.1821	0.8868	0.4717	0.059
Mof_O 	O 	0.2061	0.8255	0.3818	1.031
Mof_O 	O 	0.1732	0.8653	0.4169	-0.088
Mof_O 	O 	0.6704	0.3713	0.2872	-1.142
Mof_O 	O 	0.6288	0.4163	0.3342	-0.286
Mof_C 	C 	0.71788	0.37734	0.24169	-0.106
Mof_H 	H 	0.6957	0.3783	0.2358	0.116
Mof_C 	C 	0.6276	0.48319	0.33168	-0.014
Mof_H 	H 	0.6132	0.4717	0.3179	0.059
Mof_O 	O 	0.6745	0.3818	0.2939	1.032
Mof_O 	O 	0.6347	0.4169	0.3268	-0.088
Mof_O 	O 	0.6704	0.8713	0.7872	-1.141
Mof_O 	O 	0.6288	0.9163	0.8342	-0.286
Mof_C 	C 	0.71788	0.87734	0.74169	-0.106
Mof_H 	H 	0.6957	0.8783	0.7358	0.116
Mof_C 	C 	0.6276	0.98319	0.83168	0.003
Mof_H 	H 	0.6132	0.9717	0.8179	0.054
Mof_O 	O 	0.6745	0.8818	0.7939	1.03
Mof_O 	O 	0.6347	0.9169	0.8268	-0.088
Mof_O 	O 	0.1704	0.3713	0.7872	-1.143
Mof_O 	O 	0.1288	0.4163	0.8342	-0.286
Mof_C 	C 	0.21788	0.37734	0.74169	-0.106
Mof_H 	H 	0.1957	0.3783	0.7358	0.116
Mof_C 	C 	0.1276	0.48319	0.83168	-0.014
Mof_H 	H 	0.1132	0.4717	0.8179	0.059
Mof_O 	O 	0.1745	0.3818	0.7939	1.032
Mof_O 	O 	0.1347	0.4169	0.8268	-0.088
Mof_O 	O 	0.1704	0.8713	0.2872	-1.142
Mof_O 	O 	0.1288	0.9163	0.3342	-0.286
Mof_C 	C 	0.21788	0.87734	0.24169	-0.106
Mof_H 	H 	0.1957	0.8783	0.2358	0.116
Mof_C 	C 	0.1276	0.98319	0.33168	0.003
Mof_H 	H 	0.1132	0.9717	0.3179	0.054
Mof_O 	O 	0.1745	0.8818	0.2939	1.031
Mof_O 	O 	0.1347	0.9169	0.3268	-0.089
Mof_O 	O 	0.6704	0.6287	0.7128	-1.142
Mof_O 	O 	0.6288	0.5837	0.6658	-0.286
Mof_C 	C 	0.71788	0.62266	0.75831	-0.106
Mof_H 	H 	0.6957	0.6217	0.7642	0.116
Mof_C 	C 	0.6276	0.51681	0.66832	-0.014
Mof_H 	H 	0.6132	0.5283	0.6821	0.059
Mof_O 	O 	0.6745	0.6182	0.7061	1.031
Mof_O 	O 	0.6347	0.5831	0.6732	-0.088
Mof_O 	O 	0.6704	0.1287	0.2128	-1.143
Mof_O 	O 	0.6288	0.0837	0.1658	-0.286
Mof_C 	C 	0.71788	0.12266	0.25831	-0.107
Mof_H 	H 	0.6957	0.1217	0.2642	0.116
Mof_C 	C 	0.6276	0.01681	0.16832	-0.032
Mof_H 	H 	0.6132	0.0283	0.1821	0.063
Mof_O 	O 	0.6745	0.1182	0.2061	1.033
Mof_O 	O 	0.6347	0.0831	0.1732	-0.087
Mof_O 	O 	0.1704	0.6287	0.2128	-1.143
Mof_O 	O 	0.1288	0.5837	0.1658	-0.286
Mof_C 	C 	0.21788	0.62266	0.25831	-0.106
Mof_H 	H 	0.1957	0.6217	0.2642	0.116
Mof_C 	C 	0.1276	0.51681	0.16832	-0.014
Mof_H 	H 	0.1132	0.5283	0.1821	0.058
Mof_O 	O 	0.1745	0.6182	0.2061	1.032
Mof_O 	O 	0.1347	0.5831	0.1732	-0.088
Mof_O 	O 	0.1704	0.1287	0.7128	-1.144
Mof_O 	O 	0.1288	0.0837	0.6658	-0.286
Mof_C 	C 	0.21788	0.12266	0.75831	-0.107
Mof_H 	H 	0.1957	0.1217	0.7642	0.116
Mof_C 	C 	0.1276	0.01681	0.66832	-0.032
Mof_H 	H 	0.1132	0.0283	0.6821	0.063
Mof_O 	O 	0.1745	0.1182	0.7061	1.033
Mof_O 	O 	0.1347	0.0831	0.6732	-0.087
Mof_O 	O 	0.3296	0.3713	0.7128	-1.142
Mof_O 	O 	0.3712	0.4163	0.6658	-0.286
Mof_C 	C 	0.28212	0.37734	0.75831	-0.106
Mof_H 	H 	0.3043	0.3783	0.7642	0.116
Mof_C 	C 	0.3724	0.48319	0.66832	-0.014
Mof_H 	H 	0.3868	0.4717	0.6821	0.059
Mof_O 	O 	0.3255	0.3818	0.7061	1.032
Mof_O 	O 	0.3653	0.4169	0.6732	-0.088
Mof_O 	O 	0.3296	0.8713	0.2128	-1.141
Mof_O 	O 	0.3712	0.9163	0.1658	-0.286
Mof_C 	C 	0.28212	0.87734	0.25831	-0.106
Mof_H 	H 	0.3043	0.8783	0.2642	0.116
Mof_C 	C 	0.3724	0.98319	0.16832	0.003
Mof_H 	H 	0.3868	0.9717	0.1821	0.054
Mof_O 	O 	0.3255	0.8818	0.2061	1.03
Mof_O 	O 	0.3653	0.9169	0.1732	-0.089
Mof_O 	O 	0.8296	0.3713	0.2128	-1.142
Mof_O 	O 	0.8712	0.4163	0.1658	-0.286
Mof_C 	C 	0.78212	0.37734	0.25831	-0.106
Mof_H 	H 	0.8043	0.3783	0.2642	0.116
Mof_C 	C 	0.8724	0.48319	0.16832	-0.014
Mof_H 	H 	0.8868	0.4717	0.1821	0.059
Mof_O 	O 	0.8255	0.3818	0.2061	1.031
Mof_O 	O 	0.8653	0.4169	0.1732	-0.088
Mof_O 	O 	0.8296	0.8713	0.7128	-1.141
Mof_O 	O 	0.8712	0.9163	0.6658	-0.286
Mof_C 	C 	0.78212	0.87734	0.75831	-0.106
Mof_H 	H 	0.8043	0.8783	0.7642	0.116
Mof_C 	C 	0.8724	0.98319	0.66832	0.003
Mof_H 	H 	0.8868	0.9717	0.6821	0.054
Mof_O 	O 	0.8255	0.8818	0.7061	1.03
Mof_O 	O 	0.8653	0.9169	0.6732	-0.088
Mof_O 	O 	0.3296	0.6287	0.2872	-1.143
Mof_O 	O 	0.3712	0.5837	0.3342	-0.286
Mof_C 	C 	0.28212	0.62266	0.24169	-0.106
Mof_H 	H 	0.3043	0.6217	0.2358	0.116
Mof_C 	C 	0.3724	0.51681	0.33168	-0.014
Mof_H 	H 	0.3868	0.5283	0.3179	0.059
Mof_O 	O 	0.3255	0.6182	0.2939	1.032
Mof_O 	O 	0.3653	0.5831	0.3268	-0.088
Mof_O 	O 	0.3296	0.1287	0.7872	-1.144
Mof_O 	O 	0.3712	0.0837	0.8342	-0.286
Mof_C 	C 	0.28212	0.12266	0.74169	-0.106
Mof_H 	H 	0.3043	0.1217	0.7358	0.116
Mof_C 	C 	0.3724	0.01681	0.83168	-0.031
Mof_H 	H 	0.3868	0.0283	0.8179	0.063
Mof_O 	O 	0.3255	0.1182	0.7939	1.033
Mof_O 	O 	0.3653	0.0831	0.8268	-0.087
Mof_O 	O 	0.8296	0.6287	0.7872	-1.142
Mof_O 	O 	0.8712	0.5837	0.8342	-0.286
Mof_C 	C 	0.78212	0.62266	0.74169	-0.106
Mof_H 	H 	0.8043	0.6217	0.7358	0.116
Mof_C 	C 	0.8724	0.51681	0.83168	-0.014
Mof_H 	H 	0.8868	0.5283	0.8179	0.059
Mof_O 	O 	0.8255	0.6182	0.7939	1.031
Mof_O 	O 	0.8653	0.5831	0.8268	-0.087
Mof_O 	O 	0.8296	0.1287	0.2872	-1.143
Mof_O 	O 	0.8712	0.0837	0.3342	-0.286
Mof_C 	C 	0.78212	0.12266	0.24169	-0.106
Mof_H 	H 	0.8043	0.1217	0.2358	0.116
Mof_C 	C 	0.8724	0.01681	0.33168	-0.031
Mof_H 	H 	0.8868	0.0283	0.3179	0.063
Mof_O 	O 	0.8255	0.1182	0.2939	1.032
Mof_O 	O 	0.8653	0.0831	0.3268	-0.087
Mof_O 	O 	0.2872	0.6287	0.3296	-1.143
Mof_O 	O 	0.3342	0.5837	0.3712	-0.286
Mof_C 	C 	0.24169	0.62266	0.28212	-0.106
Mof_H 	H 	0.2358	0.6217	0.3043	0.116
Mof_C 	C 	0.33168	0.51681	0.3724	-0.014
Mof_H 	H 	0.3179	0.5283	0.3868	0.059
Mof_O 	O 	0.2939	0.6182	0.3255	1.032
Mof_O 	O 	0.3268	0.5831	0.3653	-0.088
Mof_O 	O 	0.2872	0.1287	0.8296	-1.143
Mof_O 	O 	0.3342	0.0837	0.8712	-0.286
Mof_C 	C 	0.24169	0.12266	0.78212	-0.106
Mof_H 	H 	0.2358	0.1217	0.8043	0.116
Mof_C 	C 	0.33168	0.01681	0.8724	-0.031
Mof_H 	H 	0.3179	0.0283	0.8868	0.063
Mof_O 	O 	0.2939	0.1182	0.8255	1.032
Mof_O 	O 	0.3268	0.0831	0.8653	-0.087
Mof_O 	O 	0.7872	0.6287	0.8296	-1.142
Mof_O 	O 	0.8342	0.5837	0.8712	-0.286
Mof_C 	C 	0.74169	0.62266	0.78212	-0.106
Mof_H 	H 	0.7358	0.6217	0.8043	0.116
Mof_C 	C 	0.83168	0.51681	0.8724	-0.014
Mof_H 	H 	0.8179	0.5283	0.8868	0.059
Mof_O 	O 	0.7939	0.6182	0.8255	1.031
Mof_O 	O 	0.8268	0.5831	0.8653	-0.087
Mof_O 	O 	0.7872	0.1287	0.3296	-1.144
Mof_O 	O 	0.8342	0.0837	0.3712	-0.286
Mof_C 	C 	0.74169	0.12266	0.28212	-0.106
Mof_H 	H 	0.7358	0.1217	0.3043	0.116
Mof_C 	C 	0.83168	0.01681	0.3724	-0.031
Mof_H 	H 	0.8179	0.0283	0.3868	0.063
Mof_O 	O 	0.7939	0.1182	0.3255	1.033
Mof_O 	O 	0.8268	0.0831	0.3653	-0.087
Mof_O 	O 	0.7128	0.3713	0.3296	-1.142
Mof_O 	O 	0.6658	0.4163	0.3712	-0.286
Mof_C 	C 	0.75831	0.37734	0.28212	-0.106
Mof_H 	H 	0.7642	0.3783	0.3043	0.116
Mof_C 	C 	0.66832	0.48319	0.3724	-0.014
Mof_H 	H 	0.6821	0.4717	0.3868	0.059
Mof_O 	O 	0.7061	0.3818	0.3255	1.032
Mof_O 	O 	0.6732	0.4169	0.3653	-0.088
Mof_O 	O 	0.7128	0.8713	0.8296	-1.141
Mof_O 	O 	0.6658	0.9163	0.8712	-0.286
Mof_C 	C 	0.75831	0.87734	0.78212	-0.106
Mof_H 	H 	0.7642	0.8783	0.8043	0.116
Mof_C 	C 	0.66832	0.98319	0.8724	0.003
Mof_H 	H 	0.6821	0.9717	0.8868	0.054
Mof_O 	O 	0.7061	0.8818	0.8255	1.03
Mof_O 	O 	0.6732	0.9169	0.8653	-0.088
Mof_O 	O 	0.2128	0.3713	0.8296	-1.142
Mof_O 	O 	0.1658	0.4163	0.8712	-0.286
Mof_C 	C 	0.25831	0.37734	0.78212	-0.106
Mof_H 	H 	0.2642	0.3783	0.8043	0.116
Mof_C 	C 	0.16832	0.48319	0.8724	-0.014
Mof_H 	H 	0.1821	0.4717	0.8868	0.059
Mof_O 	O 	0.2061	0.3818	0.8255	1.031
Mof_O 	O 	0.1732	0.4169	0.8653	-0.088
Mof_O 	O 	0.2128	0.8713	0.3296	-1.141
Mof_O 	O 	0.1658	0.9163	0.3712	-0.286
Mof_C 	C 	0.25831	0.87734	0.28212	-0.106
Mof_H 	H 	0.2642	0.8783	0.3043	0.116
Mof_C 	C 	0.16832	0.98319	0.3724	0.003
Mof_H 	H 	0.1821	0.9717	0.3868	0.054
Mof_O 	O 	0.2061	0.8818	0.3255	1.03
Mof_O 	O 	0.1732	0.9169	0.3653	-0.089
Mof_O 	O 	0.7128	0.6287	0.6704	-1.142
Mof_O 	O 	0.6658	0.5837	0.6288	-0.286
Mof_C 	C 	0.75831	0.62266	0.71788	-0.106
Mof_H 	H 	0.7642	0.6217	0.6957	0.116
Mof_C 	C 	0.66832	0.51681	0.6276	-0.014
Mof_H 	H 	0.6821	0.5283	0.6132	0.059
Mof_O 	O 	0.7061	0.6182	0.6745	1.031
Mof_O 	O 	0.6732	0.5831	0.6347	-0.088
Mof_O 	O 	0.7128	0.1287	0.1704	-1.144
Mof_O 	O 	0.6658	0.0837	0.1288	-0.286
Mof_C 	C 	0.75831	0.12266	0.21788	-0.107
Mof_H 	H 	0.7642	0.1217	0.1957	0.116
Mof_C 	C 	0.66832	0.01681	0.1276	-0.032
Mof_H 	H 	0.6821	0.0283	0.1132	0.063
Mof_O 	O 	0.7061	0.1182	0.1745	1.033
Mof_O 	O 	0.6732	0.0831	0.1347	-0.087
Mof_O 	O 	0.2128	0.6287	0.1704	-1.143
Mof_O 	O 	0.1658	0.5837	0.1288	-0.286
Mof_C 	C 	0.25831	0.62266	0.21788	-0.106
Mof_H 	H 	0.2642	0.6217	0.1957	0.116
Mof_C 	C 	0.16832	0.51681	0.1276	-0.014
Mof_H 	H 	0.1821	0.5283	0.1132	0.058
Mof_O 	O 	0.2061	0.6182	0.1745	1.032
Mof_O 	O 	0.1732	0.5831	0.1347	-0.088
Mof_O 	O 	0.2128	0.1287	0.6704	-1.143
Mof_O 	O 	0.1658	0.0837	0.6288	-0.286
Mof_C 	C 	0.25831	0.12266	0.71788	-0.107
Mof_H 	H 	0.2642	0.1217	0.6957	0.116
Mof_C 	C 	0.16832	0.01681	0.6276	-0.032
Mof_H 	H 	0.1821	0.0283	0.6132	0.063
Mof_O 	O 	0.2061	0.1182	0.6745	1.033
Mof_O 	O 	0.1732	0.0831	0.6347	-0.087
Mof_O 	O 	0.2872	0.3713	0.6704	-1.142
Mof_O 	O 	0.3342	0.4163	0.6288	-0.286
Mof_C 	C 	0.24169	0.37734	0.71788	-0.106
Mof_H 	H 	0.2358	0.3783	0.6957	0.116
Mof_C 	C 	0.33168	0.48319	0.6276	-0.014
Mof_H 	H 	0.3179	0.4717	0.6132	0.059
Mof_O 	O 	0.2939	0.3818	0.6745	1.032
Mof_O 	O 	0.3268	0.4169	0.6347	-0.088
Mof_O 	O 	0.2872	0.8713	0.1704	-1.142
Mof_O 	O 	0.3342	0.9163	0.1288	-0.286
Mof_C 	C 	0.24169	0.87734	0.21788	-0.106
Mof_H 	H 	0.2358	0.8783	0.1957	0.116
Mof_C 	C 	0.33168	0.98319	0.1276	0.003
Mof_H 	H 	0.3179	0.9717	0.1132	0.054
Mof_O 	O 	0.2939	0.8818	0.1745	1.031
Mof_O 	O 	0.3268	0.9169	0.1347	-0.089
Mof_O 	O 	0.7872	0.3713	0.1704	-1.143
Mof_O 	O 	0.8342	0.4163	0.1288	-0.286
Mof_C 	C 	0.74169	0.37734	0.21788	-0.106
Mof_H 	H 	0.7358	0.3783	0.1957	0.116
Mof_C 	C 	0.83168	0.48319	0.1276	-0.014
Mof_H 	H 	0.8179	0.4717	0.1132	0.059
Mof_O 	O 	0.7939	0.3818	0.1745	1.032
Mof_O 	O 	0.8268	0.4169	0.1347	-0.088
Mof_O 	O 	0.7872	0.8713	0.6704	-1.141
Mof_O 	O 	0.8342	0.9163	0.6288	-0.286
Mof_C 	C 	0.74169	0.87734	0.71788	-0.106
Mof_H 	H 	0.7358	0.8783	0.6957	0.116
Mof_C 	C 	0.83168	0.98319	0.6276	0.003
Mof_H 	H 	0.8179	0.9717	0.6132	0.054
Mof_O 	O 	0.7939	0.8818	0.6745	1.03
Mof_O 	O 	0.8268	0.9169	0.6347	-0.088
Mof_O 	O 	0.3296	0.2872	0.6287	-1.143
Mof_O 	O 	0.3712	0.3342	0.5837	-0.286
Mof_C 	C 	0.28212	0.24169	0.62266	-0.106
Mof_H 	H 	0.3043	0.2358	0.6217	0.116
Mof_C 	C 	0.3724	0.33168	0.51681	-0.014
Mof_H 	H 	0.3868	0.3179	0.5283	0.059
Mof_O 	O 	0.3255	0.2939	0.6182	1.032
Mof_O 	O 	0.3653	0.3268	0.5831	-0.088
Mof_O 	O 	0.3296	0.7872	0.1287	-1.144
Mof_O 	O 	0.3712	0.8342	0.0837	-0.286
Mof_C 	C 	0.28212	0.74169	0.12266	-0.106
Mof_H 	H 	0.3043	0.7358	0.1217	0.116
Mof_C 	C 	0.3724	0.83168	0.01681	-0.031
Mof_H 	H 	0.3868	0.8179	0.0283	0.063
Mof_O 	O 	0.3255	0.7939	0.1182	1.033
Mof_O 	O 	0.3653	0.8268	0.0831	-0.087
Mof_O 	O 	0.8296	0.2872	0.1287	-1.143
Mof_O 	O 	0.8712	0.3342	0.0837	-0.286
Mof_C 	C 	0.78212	0.24169	0.12266	-0.106
Mof_H 	H 	0.8043	0.2358	0.1217	0.116
Mof_C 	C 	0.8724	0.33168	0.01681	-0.031
Mof_H 	H 	0.8868	0.3179	0.0283	0.063
Mof_O 	O 	0.8255	0.2939	0.1182	1.032
Mof_O 	O 	0.8653	0.3268	0.0831	-0.087
Mof_O 	O 	0.8296	0.7872	0.6287	-1.142
Mof_O 	O 	0.8712	0.8342	0.5837	-0.286
Mof_C 	C 	0.78212	0.74169	0.62266	-0.106
Mof_H 	H 	0.8043	0.7358	0.6217	0.116
Mof_C 	C 	0.8724	0.83168	0.51681	-0.014
Mof_H 	H 	0.8868	0.8179	0.5283	0.059
Mof_O 	O 	0.8255	0.7939	0.6182	1.031
Mof_O 	O 	0.8653	0.8268	0.5831	-0.087
Mof_O 	O 	0.3296	0.7128	0.3713	-1.142
Mof_O 	O 	0.3712	0.6658	0.4163	-0.286
Mof_C 	C 	0.28212	0.75831	0.37734	-0.106
Mof_H 	H 	0.3043	0.7642	0.3783	0.116
Mof_C 	C 	0.3724	0.66832	0.48319	-0.014
Mof_H 	H 	0.3868	0.6821	0.4717	0.059
Mof_O 	O 	0.3255	0.7061	0.3818	1.032
Mof_O 	O 	0.3653	0.6732	0.4169	-0.088
Mof_O 	O 	0.3296	0.2128	0.8713	-1.141
Mof_O 	O 	0.3712	0.1658	0.9163	-0.286
Mof_C 	C 	0.28212	0.25831	0.87734	-0.106
Mof_H 	H 	0.3043	0.2642	0.8783	0.116
Mof_C 	C 	0.3724	0.16832	0.98319	0.003
Mof_H 	H 	0.3868	0.1821	0.9717	0.054
Mof_O 	O 	0.3255	0.2061	0.8818	1.03
Mof_O 	O 	0.3653	0.1732	0.9169	-0.089
Mof_O 	O 	0.8296	0.7128	0.8713	-1.141
Mof_O 	O 	0.8712	0.6658	0.9163	-0.286
Mof_C 	C 	0.78212	0.75831	0.87734	-0.106
Mof_H 	H 	0.8043	0.7642	0.8783	0.116
Mof_C 	C 	0.8724	0.66832	0.98319	0.003
Mof_H 	H 	0.8868	0.6821	0.9717	0.054
Mof_O 	O 	0.8255	0.7061	0.8818	1.03
Mof_O 	O 	0.8653	0.6732	0.9169	-0.088
Mof_O 	O 	0.8296	0.2128	0.3713	-1.142
Mof_O 	O 	0.8712	0.1658	0.4163	-0.286
Mof_C 	C 	0.78212	0.25831	0.37734	-0.106
Mof_H 	H 	0.8043	0.2642	0.3783	0.116
Mof_C 	C 	0.8724	0.16832	0.48319	-0.014
Mof_H 	H 	0.8868	0.1821	0.4717	0.059
Mof_O 	O 	0.8255	0.2061	0.3818	1.031
Mof_O 	O 	0.8653	0.1732	0.4169	-0.088
Mof_O 	O 	0.6704	0.7128	0.6287	-1.142
Mof_O 	O 	0.6288	0.6658	0.5837	-0.286
Mof_C 	C 	0.71788	0.75831	0.62266	-0.106
Mof_H 	H 	0.6957	0.7642	0.6217	0.116
Mof_C 	C 	0.6276	0.66832	0.51681	-0.014
Mof_H 	H 	0.6132	0.6821	0.5283	0.059
Mof_O 	O 	0.6745	0.7061	0.6182	1.031
Mof_O 	O 	0.6347	0.6732	0.5831	-0.088
Mof_O 	O 	0.6704	0.2128	0.1287	-1.143
Mof_O 	O 	0.6288	0.1658	0.0837	-0.286
Mof_C 	C 	0.71788	0.25831	0.12266	-0.107
Mof_H 	H 	0.6957	0.2642	0.1217	0.116
Mof_C 	C 	0.6276	0.16832	0.01681	-0.032
Mof_H 	H 	0.6132	0.1821	0.0283	0.063
Mof_O 	O 	0.6745	0.2061	0.1182	1.033
Mof_O 	O 	0.6347	0.1732	0.0831	-0.087
Mof_O 	O 	0.1704	0.7128	0.1287	-1.144
Mof_O 	O 	0.1288	0.6658	0.0837	-0.286
Mof_C 	C 	0.21788	0.75831	0.12266	-0.107
Mof_H 	H 	0.1957	0.7642	0.1217	0.116
Mof_C 	C 	0.1276	0.66832	0.01681	-0.032
Mof_H 	H 	0.1132	0.6821	0.0283	0.063
Mof_O 	O 	0.1745	0.7061	0.1182	1.033
Mof_O 	O 	0.1347	0.6732	0.0831	-0.087
Mof_O 	O 	0.1704	0.2128	0.6287	-1.143
Mof_O 	O 	0.1288	0.1658	0.5837	-0.286
Mof_C 	C 	0.21788	0.25831	0.62266	-0.106
Mof_H 	H 	0.1957	0.2642	0.6217	0.116
Mof_C 	C 	0.1276	0.16832	0.51681	-0.014
Mof_H 	H 	0.1132	0.1821	0.5283	0.058
Mof_O 	O 	0.1745	0.2061	0.6182	1.032
Mof_O 	O 	0.1347	0.1732	0.5831	-0.088
Mof_O 	O 	0.6704	0.2872	0.3713	-1.142
Mof_O 	O 	0.6288	0.3342	0.4163	-0.286
Mof_C 	C 	0.71788	0.24169	0.37734	-0.106
Mof_H 	H 	0.6957	0.2358	0.3783	0.116
Mof_C 	C 	0.6276	0.33168	0.48319	-0.014
Mof_H 	H 	0.6132	0.3179	0.4717	0.059
Mof_O 	O 	0.6745	0.2939	0.3818	1.032
Mof_O 	O 	0.6347	0.3268	0.4169	-0.088
Mof_O 	O 	0.6704	0.7872	0.8713	-1.141
Mof_O 	O 	0.6288	0.8342	0.9163	-0.286
Mof_C 	C 	0.71788	0.74169	0.87734	-0.106
Mof_H 	H 	0.6957	0.7358	0.8783	0.116
Mof_C 	C 	0.6276	0.83168	0.98319	0.003
Mof_H 	H 	0.6132	0.8179	0.9717	0.054
Mof_O 	O 	0.6745	0.7939	0.8818	1.03
Mof_O 	O 	0.6347	0.8268	0.9169	-0.088
Mof_O 	O 	0.1704	0.2872	0.8713	-1.142
Mof_O 	O 	0.1288	0.3342	0.9163	-0.286
Mof_C 	C 	0.21788	0.24169	0.87734	-0.106
Mof_H 	H 	0.1957	0.2358	0.8783	0.116
Mof_C 	C 	0.1276	0.33168	0.98319	0.003
Mof_H 	H 	0.1132	0.3179	0.9717	0.054
Mof_O 	O 	0.1745	0.2939	0.8818	1.031
Mof_O 	O 	0.1347	0.3268	0.9169	-0.089
Mof_O 	O 	0.1704	0.7872	0.3713	-1.143
Mof_O 	O 	0.1288	0.8342	0.4163	-0.286
Mof_C 	C 	0.21788	0.74169	0.37734	-0.106
Mof_H 	H 	0.1957	0.7358	0.3783	0.116
Mof_C 	C 	0.1276	0.83168	0.48319	-0.014
Mof_H 	H 	0.1132	0.8179	0.4717	0.059
Mof_O 	O 	0.1745	0.7939	0.3818	1.032
Mof_O 	O 	0.1347	0.8268	0.4169	-0.088
Mof_O 	O 	0.6287	0.3296	0.2872	-1.143
Mof_O 	O 	0.5837	0.3712	0.3342	-0.286
Mof_C 	C 	0.62266	0.28212	0.24169	-0.106
Mof_H 	H 	0.6217	0.3043	0.2358	0.116
Mof_C 	C 	0.51681	0.3724	0.33168	-0.014
Mof_H 	H 	0.5283	0.3868	0.3179	0.059
Mof_O 	O 	0.6182	0.3255	0.2939	1.032
Mof_O 	O 	0.5831	0.3653	0.3268	-0.088
Mof_O 	O 	0.6287	0.8296	0.7872	-1.142
Mof_O 	O 	0.5837	0.8712	0.8342	-0.286
Mof_C 	C 	0.62266	0.78212	0.74169	-0.106
Mof_H 	H 	0.6217	0.8043	0.7358	0.116
Mof_C 	C 	0.51681	0.8724	0.83168	-0.014
Mof_H 	H 	0.5283	0.8868	0.8179	0.059
Mof_O 	O 	0.6182	0.8255	0.7939	1.031
Mof_O 	O 	0.5831	0.8653	0.8268	-0.087
Mof_O 	O 	0.1287	0.3296	0.7872	-1.144
Mof_O 	O 	0.0837	0.3712	0.8342	-0.286
Mof_C 	C 	0.12266	0.28212	0.74169	-0.106
Mof_H 	H 	0.1217	0.3043	0.7358	0.116
Mof_C 	C 	0.01681	0.3724	0.83168	-0.031
Mof_H 	H 	0.0283	0.3868	0.8179	0.063
Mof_O 	O 	0.1182	0.3255	0.7939	1.033
Mof_O 	O 	0.0831	0.3653	0.8268	-0.087
Mof_O 	O 	0.1287	0.8296	0.2872	-1.143
Mof_O 	O 	0.0837	0.8712	0.3342	-0.286
Mof_C 	C 	0.12266	0.78212	0.24169	-0.106
Mof_H 	H 	0.1217	0.8043	0.2358	0.116
Mof_C 	C 	0.01681	0.8724	0.33168	-0.031
Mof_H 	H 	0.0283	0.8868	0.3179	0.063
Mof_O 	O 	0.1182	0.8255	0.2939	1.032
Mof_O 	O 	0.0831	0.8653	0.3268	-0.087
Mof_O 	O 	0.3713	0.3296	0.7128	-1.142
Mof_O 	O 	0.4163	0.3712	0.6658	-0.286
Mof_C 	C 	0.37734	0.28212	0.75831	-0.106
Mof_H 	H 	0.3783	0.3043	0.7642	0.116
Mof_C 	C 	0.48319	0.3724	0.66832	-0.014
Mof_H 	H 	0.4717	0.3868	0.6821	0.059
Mof_O 	O 	0.3818	0.3255	0.7061	1.032
Mof_O 	O 	0.4169	0.3653	0.6732	-0.088
Mof_O 	O 	0.3713	0.8296	0.2128	-1.142
Mof_O 	O 	0.4163	0.8712	0.1658	-0.286
Mof_C 	C 	0.37734	0.78212	0.25831	-0.106
Mof_H 	H 	0.3783	0.8043	0.2642	0.116
Mof_C 	C 	0.48319	0.8724	0.16832	-0.014
Mof_H 	H 	0.4717	0.8868	0.1821	0.059
Mof_O 	O 	0.3818	0.8255	0.2061	1.031
Mof_O 	O 	0.4169	0.8653	0.1732	-0.088
Mof_O 	O 	0.8713	0.3296	0.2128	-1.141
Mof_O 	O 	0.9163	0.3712	0.1658	-0.286
Mof_C 	C 	0.87734	0.28212	0.25831	-0.106
Mof_H 	H 	0.8783	0.3043	0.2642	0.116
Mof_C 	C 	0.98319	0.3724	0.16832	0.003
Mof_H 	H 	0.9717	0.3868	0.1821	0.054
Mof_O 	O 	0.8818	0.3255	0.2061	1.03
Mof_O 	O 	0.9169	0.3653	0.1732	-0.089
Mof_O 	O 	0.8713	0.8296	0.7128	-1.141
Mof_O 	O 	0.9163	0.8712	0.6658	-0.286
Mof_C 	C 	0.87734	0.78212	0.75831	-0.106
Mof_H 	H 	0.8783	0.8043	0.7642	0.116
Mof_C 	C 	0.98319	0.8724	0.66832	0.003
Mof_H 	H 	0.9717	0.8868	0.6821	0.054
Mof_O 	O 	0.8818	0.8255	0.7061	1.03
Mof_O 	O 	0.9169	0.8653	0.6732	-0.088
Mof_O 	O 	0.6287	0.6704	0.7128	-1.142
Mof_O 	O 	0.5837	0.6288	0.6658	-0.286
Mof_C 	C 	0.62266	0.71788	0.75831	-0.106
Mof_H 	H 	0.6217	0.6957	0.7642	0.116
Mof_C 	C 	0.51681	0.6276	0.66832	-0.014
Mof_H 	H 	0.5283	0.6132	0.6821	0.059
Mof_O 	O 	0.6182	0.6745	0.7061	1.031
Mof_O 	O 	0.5831	0.6347	0.6732	-0.088
Mof_O 	O 	0.6287	0.1704	0.2128	-1.143
Mof_O 	O 	0.5837	0.1288	0.1658	-0.286
Mof_C 	C 	0.62266	0.21788	0.25831	-0.106
Mof_H 	H 	0.6217	0.1957	0.2642	0.116
Mof_C 	C 	0.51681	0.1276	0.16832	-0.014
Mof_H 	H 	0.5283	0.1132	0.1821	0.058
Mof_O 	O 	0.6182	0.1745	0.2061	1.032
Mof_O 	O 	0.5831	0.1347	0.1732	-0.088
Mof_O 	O 	0.1287	0.6704	0.2128	-1.143
Mof_O 	O 	0.0837	0.6288	0.1658	-0.286
Mof_C 	C 	0.12266	0.71788	0.25831	-0.107
Mof_H 	H 	0.1217	0.6957	0.2642	0.116
Mof_C 	C 	0.01681	0.6276	0.16832	-0.032
Mof_H 	H 	0.0283	0.6132	0.1821	0.063
Mof_O 	O 	0.1182	0.6745	0.2061	1.033
Mof_O 	O 	0.0831	0.6347	0.1732	-0.087
Mof_O 	O 	0.1287	0.1704	0.7128	-1.144
Mof_O 	O 	0.0837	0.1288	0.6658	-0.286
Mof_C 	C 	0.12266	0.21788	0.75831	-0.107
Mof_H 	H 	0.1217	0.1957	0.7642	0.116
Mof_C 	C 	0.01681	0.1276	0.66832	-0.032
Mof_H 	H 	0.0283	0.1132	0.6821	0.063
Mof_O 	O 	0.1182	0.1745	0.7061	1.033
Mof_O 	O 	0.0831	0.1347	0.6732	-0.087
Mof_O 	O 	0.3713	0.6704	0.2872	-1.142
Mof_O 	O 	0.4163	0.6288	0.3342	-0.286
Mof_C 	C 	0.37734	0.71788	0.24169	-0.106
Mof_H 	H 	0.3783	0.6957	0.2358	0.116
Mof_C 	C 	0.48319	0.6276	0.33168	-0.014
Mof_H 	H 	0.4717	0.6132	0.3179	0.059
Mof_O 	O 	0.3818	0.6745	0.2939	1.032
Mof_O 	O 	0.4169	0.6347	0.3268	-0.088
Mof_O 	O 	0.3713	0.1704	0.7872	-1.143
Mof_O 	O 	0.4163	0.1288	0.8342	-0.286
Mof_C 	C 	0.37734	0.21788	0.74169	-0.106
Mof_H 	H 	0.3783	0.1957	0.7358	0.116
Mof_C 	C 	0.48319	0.1276	0.83168	-0.014
Mof_H 	H 	0.4717	0.1132	0.8179	0.059
Mof_O 	O 	0.3818	0.1745	0.7939	1.032
Mof_O 	O 	0.4169	0.1347	0.8268	-0.088
Mof_O 	O 	0.8713	0.6704	0.7872	-1.141
Mof_O 	O 	0.9163	0.6288	0.8342	-0.286
Mof_C 	C 	0.87734	0.71788	0.74169	-0.106
Mof_H 	H 	0.8783	0.6957	0.7358	0.116
Mof_C 	C 	0.98319	0.6276	0.83168	0.003
Mof_H 	H 	0.9717	0.6132	0.8179	0.054
Mof_O 	O 	0.8818	0.6745	0.7939	1.03
Mof_O 	O 	0.9169	0.6347	0.8268	-0.088
Mof_O 	O 	0.8713	0.1704	0.2872	-1.142
Mof_O 	O 	0.9163	0.1288	0.3342	-0.286
Mof_C 	C 	0.87734	0.21788	0.24169	-0.106
Mof_H 	H 	0.8783	0.1957	0.2358	0.116
Mof_C 	C 	0.98319	0.1276	0.33168	0.003
Mof_H 	H 	0.9717	0.1132	0.3179	0.054
Mof_O 	O 	0.8818	0.1745	0.2939	1.031
Mof_O 	O 	0.9169	0.1347	0.3268	-0.089
Mof_O 	O 	0.6287	0.2872	0.6704	-1.142
Mof_O 	O 	0.5837	0.3342	0.6288	-0.286
Mof_C 	C 	0.62266	0.24169	0.71788	-0.106
Mof_H 	H 	0.6217	0.2358	0.6957	0.116
Mof_C 	C 	0.51681	0.33168	0.6276	-0.014
Mof_H 	H 	0.5283	0.3179	0.6132	0.059
Mof_O 	O 	0.6182	0.2939	0.6745	1.031
Mof_O 	O 	0.5831	0.3268	0.6347	-0.088
Mof_O 	O 	0.6287	0.7872	0.1704	-1.143
Mof_O 	O 	0.5837	0.8342	0.1288	-0.286
Mof_C 	C 	0.62266	0.74169	0.21788	-0.106
Mof_H 	H 	0.6217	0.7358	0.1957	0.116
Mof_C 	C 	0.51681	0.83168	0.1276	-0.014
Mof_H 	H 	0.5283	0.8179	0.1132	0.059
Mof_O 	O 	0.6182	0.7939	0.1745	1.032
Mof_O 	O 	0.5831	0.8268	0.1347	-0.088
Mof_O 	O 	0.1287	0.2872	0.1704	-1.144
Mof_O 	O 	0.0837	0.3342	0.1288	-0.286
Mof_C 	C 	0.12266	0.24169	0.21788	-0.107
Mof_H 	H 	0.1217	0.2358	0.1957	0.116
Mof_C 	C 	0.01681	0.33168	0.1276	-0.032
Mof_H 	H 	0.0283	0.3179	0.1132	0.063
Mof_O 	O 	0.1182	0.2939	0.1745	1.033
Mof_O 	O 	0.0831	0.3268	0.1347	-0.087
Mof_O 	O 	0.1287	0.7872	0.6704	-1.143
Mof_O 	O 	0.0837	0.8342	0.6288	-0.286
Mof_C 	C 	0.12266	0.74169	0.71788	-0.107
Mof_H 	H 	0.1217	0.7358	0.6957	0.116
Mof_C 	C 	0.01681	0.83168	0.6276	-0.031
Mof_H 	H 	0.0283	0.8179	0.6132	0.063
Mof_O 	O 	0.1182	0.7939	0.6745	1.033
Mof_O 	O 	0.0831	0.8268	0.6347	-0.087
Mof_O 	O 	0.3713	0.7128	0.6704	-1.142
Mof_O 	O 	0.4163	0.6658	0.6288	-0.286
Mof_C 	C 	0.37734	0.75831	0.71788	-0.106
Mof_H 	H 	0.3783	0.7642	0.6957	0.116
Mof_C 	C 	0.48319	0.66832	0.6276	-0.014
Mof_H 	H 	0.4717	0.6821	0.6132	0.059
Mof_O 	O 	0.3818	0.7061	0.6745	1.031
Mof_O 	O 	0.4169	0.6732	0.6347	-0.088
Mof_O 	O 	0.3713	0.2128	0.1704	-1.143
Mof_O 	O 	0.4163	0.1658	0.1288	-0.286
Mof_C 	C 	0.37734	0.25831	0.21788	-0.106
Mof_H 	H 	0.3783	0.2642	0.1957	0.116
Mof_C 	C 	0.48319	0.16832	0.1276	-0.014
Mof_H 	H 	0.4717	0.1821	0.1132	0.058
Mof_O 	O 	0.3818	0.2061	0.1745	1.032
Mof_O 	O 	0.4169	0.1732	0.1347	-0.088
Mof_O 	O 	0.8713	0.7128	0.1704	-1.142
Mof_O 	O 	0.9163	0.6658	0.1288	-0.286
Mof_C 	C 	0.87734	0.75831	0.21788	-0.106
Mof_H 	H 	0.8783	0.7642	0.1957	0.116
Mof_C 	C 	0.98319	0.66832	0.1276	0.003
Mof_H 	H 	0.9717	0.6821	0.1132	0.054
Mof_O 	O 	0.8818	0.7061	0.1745	1.031
Mof_O 	O 	0.9169	0.6732	0.1347	-0.089
Mof_O 	O 	0.8713	0.2128	0.6704	-1.141
Mof_O 	O 	0.9163	0.1658	0.6288	-0.286
Mof_C 	C 	0.87734	0.25831	0.71788	-0.106
Mof_H 	H 	0.8783	0.2642	0.6957	0.116
Mof_C 	C 	0.98319	0.16832	0.6276	0.003
Mof_H 	H 	0.9717	0.1821	0.6132	0.054
Mof_O 	O 	0.8818	0.2061	0.6745	1.03
Mof_O 	O 	0.9169	0.1732	0.6347	-0.089
Mof_O 	O 	0.6287	0.7128	0.3296	-1.142
Mof_O 	O 	0.5837	0.6658	0.3712	-0.286
Mof_C 	C 	0.62266	0.75831	0.28212	-0.106
Mof_H 	H 	0.6217	0.7642	0.3043	0.116
Mof_C 	C 	0.51681	0.66832	0.3724	-0.014
Mof_H 	H 	0.5283	0.6821	0.3868	0.059
Mof_O 	O 	0.6182	0.7061	0.3255	1.031
Mof_O 	O 	0.5831	0.6732	0.3653	-0.088
Mof_O 	O 	0.6287	0.2128	0.8296	-1.142
Mof_O 	O 	0.5837	0.1658	0.8712	-0.286
Mof_C 	C 	0.62266	0.25831	0.78212	-0.106
Mof_H 	H 	0.6217	0.2642	0.8043	0.116
Mof_C 	C 	0.51681	0.16832	0.8724	-0.014
Mof_H 	H 	0.5283	0.1821	0.8868	0.059
Mof_O 	O 	0.6182	0.2061	0.8255	1.031
Mof_O 	O 	0.5831	0.1732	0.8653	-0.088
Mof_O 	O 	0.1287	0.7128	0.8296	-1.143
Mof_O 	O 	0.0837	0.6658	0.8712	-0.286
Mof_C 	C 	0.12266	0.75831	0.78212	-0.107
Mof_H 	H 	0.1217	0.7642	0.8043	0.116
Mof_C 	C 	0.01681	0.66832	0.8724	-0.031
Mof_H 	H 	0.0283	0.6821	0.8868	0.063
Mof_O 	O 	0.1182	0.7061	0.8255	1.032
Mof_O 	O 	0.0831	0.6732	0.8653	-0.087
Mof_O 	O 	0.1287	0.2128	0.3296	-1.143
Mof_O 	O 	0.0837	0.1658	0.3712	-0.286
Mof_C 	C 	0.12266	0.25831	0.28212	-0.107
Mof_H 	H 	0.1217	0.2642	0.3043	0.116
Mof_C 	C 	0.01681	0.16832	0.3724	-0.032
Mof_H 	H 	0.0283	0.1821	0.3868	0.063
Mof_O 	O 	0.1182	0.2061	0.3255	1.033
Mof_O 	O 	0.0831	0.1732	0.3653	-0.087
Mof_O 	O 	0.3713	0.2872	0.3296	-1.143
Mof_O 	O 	0.4163	0.3342	0.3712	-0.286
Mof_C 	C 	0.37734	0.24169	0.28212	-0.106
Mof_H 	H 	0.3783	0.2358	0.3043	0.116
Mof_C 	C 	0.48319	0.33168	0.3724	-0.014
Mof_H 	H 	0.4717	0.3179	0.3868	0.059
Mof_O 	O 	0.3818	0.2939	0.3255	1.032
Mof_O 	O 	0.4169	0.3268	0.3653	-0.088
Mof_O 	O 	0.3713	0.7872	0.8296	-1.142
Mof_O 	O 	0.4163	0.8342	0.8712	-0.286
Mof_C 	C 	0.37734	0.74169	0.78212	-0.106
Mof_H 	H 	0.3783	0.7358	0.8043	0.116
Mof_C 	C 	0.48319	0.83168	0.8724	-0.014
Mof_H 	H 	0.4717	0.8179	0.8868	0.059
Mof_O 	O 	0.3818	0.7939	0.8255	1.031
Mof_O 	O 	0.4169	0.8268	0.8653	-0.087
Mof_O 	O 	0.8713	0.2872	0.8296	-1.141
Mof_O 	O 	0.9163	0.3342	0.8712	-0.286
Mof_C 	C 	0.87734	0.24169	0.78212	-0.106
Mof_H 	H 	0.8783	0.2358	0.8043	0.116
Mof_C 	C 	0.98319	0.33168	0.8724	0.003
Mof_H 	H 	0.9717	0.3179	0.8868	0.054
Mof_O 	O 	0.8818	0.2939	0.8255	1.03
Mof_O 	O 	0.9169	0.3268	0.8653	-0.088
Mof_O 	O 	0.8713	0.7872	0.3296	-1.141
Mof_O 	O 	0.9163	0.8342	0.3712	-0.286
Mof_C 	C 	0.87734	0.74169	0.28212	-0.106
Mof_H 	H 	0.8783	0.7358	0.3043	0.116
Mof_C 	C 	0.98319	0.83168	0.3724	0.003
Mof_H 	H 	0.9717	0.8179	0.3868	0.054
Mof_O 	O 	0.8818	0.7939	0.3255	1.03
Mof_O 	O 	0.9169	0.8268	0.3653	-0.088
Mof_O 	O 	0.2872	0.3296	0.3713	-1.143
Mof_O 	O 	0.3342	0.3712	0.4163	-0.286
Mof_C 	C 	0.24169	0.28212	0.37734	-0.106
Mof_H 	H 	0.2358	0.3043	0.3783	0.116
Mof_C 	C 	0.33168	0.3724	0.48319	-0.014
Mof_H 	H 	0.3179	0.3868	0.4717	0.059
Mof_O 	O 	0.2939	0.3255	0.3818	1.032
Mof_O 	O 	0.3268	0.3653	0.4169	-0.088
Mof_O 	O 	0.2872	0.8296	0.8713	-1.141
Mof_O 	O 	0.3342	0.8712	0.9163	-0.286
Mof_C 	C 	0.24169	0.78212	0.87734	-0.106
Mof_H 	H 	0.2358	0.8043	0.8783	0.116
Mof_C 	C 	0.33168	0.8724	0.98319	0.003
Mof_H 	H 	0.3179	0.8868	0.9717	0.054
Mof_O 	O 	0.2939	0.8255	0.8818	1.03
Mof_O 	O 	0.3268	0.8653	0.9169	-0.088
Mof_O 	O 	0.7872	0.3296	0.8713	-1.141
Mof_O 	O 	0.8342	0.3712	0.9163	-0.286
Mof_C 	C 	0.74169	0.28212	0.87734	-0.106
Mof_H 	H 	0.7358	0.3043	0.8783	0.116
Mof_C 	C 	0.83168	0.3724	0.98319	0.003
Mof_H 	H 	0.8179	0.3868	0.9717	0.054
Mof_O 	O 	0.7939	0.3255	0.8818	1.03
Mof_O 	O 	0.8268	0.3653	0.9169	-0.088
Mof_O 	O 	0.7872	0.8296	0.3713	-1.142
Mof_O 	O 	0.8342	0.8712	0.4163	-0.286
Mof_C 	C 	0.74169	0.78212	0.37734	-0.106
Mof_H 	H 	0.7358	0.8043	0.3783	0.116
Mof_C 	C 	0.83168	0.8724	0.48319	-0.014
Mof_H 	H 	0.8179	0.8868	0.4717	0.059
Mof_O 	O 	0.7939	0.8255	0.3818	1.031
Mof_O 	O 	0.8268	0.8653	0.4169	-0.087
Mof_O 	O 	0.7128	0.3296	0.6287	-1.142
Mof_O 	O 	0.6658	0.3712	0.5837	-0.286
Mof_C 	C 	0.75831	0.28212	0.62266	-0.106
Mof_H 	H 	0.7642	0.3043	0.6217	0.116
Mof_C 	C 	0.66832	0.3724	0.51681	-0.014
Mof_H 	H 	0.6821	0.3868	0.5283	0.059
Mof_O 	O 	0.7061	0.3255	0.6182	1.031
Mof_O 	O 	0.6732	0.3653	0.5831	-0.088
Mof_O 	O 	0.7128	0.8296	0.1287	-1.143
Mof_O 	O 	0.6658	0.8712	0.0837	-0.286
Mof_C 	C 	0.75831	0.78212	0.12266	-0.107
Mof_H 	H 	0.7642	0.8043	0.1217	0.116
Mof_C 	C 	0.66832	0.8724	0.01681	-0.031
Mof_H 	H 	0.6821	0.8868	0.0283	0.063
Mof_O 	O 	0.7061	0.8255	0.1182	1.032
Mof_O 	O 	0.6732	0.8653	0.0831	-0.087
Mof_O 	O 	0.2128	0.3296	0.1287	-1.143
Mof_O 	O 	0.1658	0.3712	0.0837	-0.286
Mof_C 	C 	0.25831	0.28212	0.12266	-0.107
Mof_H 	H 	0.2642	0.3043	0.1217	0.116
Mof_C 	C 	0.16832	0.3724	0.01681	-0.032
Mof_H 	H 	0.1821	0.3868	0.0283	0.063
Mof_O 	O 	0.2061	0.3255	0.1182	1.033
Mof_O 	O 	0.1732	0.3653	0.0831	-0.087
Mof_O 	O 	0.2128	0.8296	0.6287	-1.142
Mof_O 	O 	0.1658	0.8712	0.5837	-0.286
Mof_C 	C 	0.25831	0.78212	0.62266	-0.106
Mof_H 	H 	0.2642	0.8043	0.6217	0.116
Mof_C 	C 	0.16832	0.8724	0.51681	-0.014
Mof_H 	H 	0.1821	0.8868	0.5283	0.059
Mof_O 	O 	0.2061	0.8255	0.6182	1.031
Mof_O 	O 	0.1732	0.8653	0.5831	-0.088
Mof_O 	O 	0.7128	0.6704	0.3713	-1.142
Mof_O 	O 	0.6658	0.6288	0.4163	-0.286
Mof_C 	C 	0.75831	0.71788	0.37734	-0.106
Mof_H 	H 	0.7642	0.6957	0.3783	0.116
Mof_C 	C 	0.66832	0.6276	0.48319	-0.014
Mof_H 	H 	0.6821	0.6132	0.4717	0.059
Mof_O 	O 	0.7061	0.6745	0.3818	1.031
Mof_O 	O 	0.6732	0.6347	0.4169	-0.088
Mof_O 	O 	0.7128	0.1704	0.8713	-1.142
Mof_O 	O 	0.6658	0.1288	0.9163	-0.286
Mof_C 	C 	0.75831	0.21788	0.87734	-0.106
Mof_H 	H 	0.7642	0.1957	0.8783	0.116
Mof_C 	C 	0.66832	0.1276	0.98319	0.003
Mof_H 	H 	0.6821	0.1132	0.9717	0.054
Mof_O 	O 	0.7061	0.1745	0.8818	1.031
Mof_O 	O 	0.6732	0.1347	0.9169	-0.089
Mof_O 	O 	0.2128	0.6704	0.8713	-1.141
Mof_O 	O 	0.1658	0.6288	0.9163	-0.286
Mof_C 	C 	0.25831	0.71788	0.87734	-0.106
Mof_H 	H 	0.2642	0.6957	0.8783	0.116
Mof_C 	C 	0.16832	0.6276	0.98319	0.003
Mof_H 	H 	0.1821	0.6132	0.9717	0.054
Mof_O 	O 	0.2061	0.6745	0.8818	1.03
Mof_O 	O 	0.1732	0.6347	0.9169	-0.089
Mof_O 	O 	0.2128	0.1704	0.3713	-1.143
Mof_O 	O 	0.1658	0.1288	0.4163	-0.286
Mof_C 	C 	0.25831	0.21788	0.37734	-0.106
Mof_H 	H 	0.2642	0.1957	0.3783	0.116
Mof_C 	C 	0.16832	0.1276	0.48319	-0.014
Mof_H 	H 	0.1821	0.1132	0.4717	0.058
Mof_O 	O 	0.2061	0.1745	0.3818	1.032
Mof_O 	O 	0.1732	0.1347	0.4169	-0.088
Mof_O 	O 	0.2872	0.6704	0.6287	-1.142
Mof_O 	O 	0.3342	0.6288	0.5837	-0.286
Mof_C 	C 	0.24169	0.71788	0.62266	-0.106
Mof_H 	H 	0.2358	0.6957	0.6217	0.116
Mof_C 	C 	0.33168	0.6276	0.51681	-0.014
Mof_H 	H 	0.3179	0.6132	0.5283	0.059
Mof_O 	O 	0.2939	0.6745	0.6182	1.031
Mof_O 	O 	0.3268	0.6347	0.5831	-0.088
Mof_O 	O 	0.2872	0.1704	0.1287	-1.144
Mof_O 	O 	0.3342	0.1288	0.0837	-0.286
Mof_C 	C 	0.24169	0.21788	0.12266	-0.107
Mof_H 	H 	0.2358	0.1957	0.1217	0.116
Mof_C 	C 	0.33168	0.1276	0.01681	-0.032
Mof_H 	H 	0.3179	0.1132	0.0283	0.063
Mof_O 	O 	0.2939	0.1745	0.1182	1.033
Mof_O 	O 	0.3268	0.1347	0.0831	-0.087
Mof_O 	O 	0.7872	0.6704	0.1287	-1.143
Mof_O 	O 	0.8342	0.6288	0.0837	-0.286
Mof_C 	C 	0.74169	0.71788	0.12266	-0.107
Mof_H 	H 	0.7358	0.6957	0.1217	0.116
Mof_C 	C 	0.83168	0.6276	0.01681	-0.031
Mof_H 	H 	0.8179	0.6132	0.0283	0.063
Mof_O 	O 	0.7939	0.6745	0.1182	1.033
Mof_O 	O 	0.8268	0.6347	0.0831	-0.087
Mof_O 	O 	0.7872	0.1704	0.6287	-1.143
Mof_O 	O 	0.8342	0.1288	0.5837	-0.286
Mof_C 	C 	0.74169	0.21788	0.62266	-0.106
Mof_H 	H 	0.7358	0.1957	0.6217	0.116
Mof_C 	C 	0.83168	0.1276	0.51681	-0.014
Mof_H 	H 	0.8179	0.1132	0.5283	0.059
Mof_O 	O 	0.7939	0.1745	0.6182	1.032
Mof_O 	O 	0.8268	0.1347	0.5831	-0.088
Mof_O 	O 	0.3296	0.6287	0.7128	-1.142
Mof_O 	O 	0.3712	0.5837	0.6658	-0.286
Mof_C 	C 	0.28212	0.62266	0.75831	-0.106
Mof_H 	H 	0.3043	0.6217	0.7642	0.116
Mof_C 	C 	0.3724	0.51681	0.66832	-0.014
Mof_H 	H 	0.3868	0.5283	0.6821	0.059
Mof_O 	O 	0.3255	0.6182	0.7061	1.031
Mof_O 	O 	0.3653	0.5831	0.6732	-0.088
Mof_O 	O 	0.3296	0.1287	0.2128	-1.143
Mof_O 	O 	0.3712	0.0837	0.1658	-0.286
Mof_C 	C 	0.28212	0.12266	0.25831	-0.107
Mof_H 	H 	0.3043	0.1217	0.2642	0.116
Mof_C 	C 	0.3724	0.01681	0.16832	-0.032
Mof_H 	H 	0.3868	0.0283	0.1821	0.063
Mof_O 	O 	0.3255	0.1182	0.2061	1.033
Mof_O 	O 	0.3653	0.0831	0.1732	-0.087
Mof_O 	O 	0.8296	0.6287	0.2128	-1.142
Mof_O 	O 	0.8712	0.5837	0.1658	-0.286
Mof_C 	C 	0.78212	0.62266	0.25831	-0.106
Mof_H 	H 	0.8043	0.6217	0.2642	0.116
Mof_C 	C 	0.8724	0.51681	0.16832	-0.014
Mof_H 	H 	0.8868	0.5283	0.1821	0.059
Mof_O 	O 	0.8255	0.6182	0.2061	1.031
Mof_O 	O 	0.8653	0.5831	0.1732	-0.088
Mof_O 	O 	0.8296	0.1287	0.7128	-1.143
Mof_O 	O 	0.8712	0.0837	0.6658	-0.286
Mof_C 	C 	0.78212	0.12266	0.75831	-0.107
Mof_H 	H 	0.8043	0.1217	0.7642	0.116
Mof_C 	C 	0.8724	0.01681	0.66832	-0.031
Mof_H 	H 	0.8868	0.0283	0.6821	0.063
Mof_O 	O 	0.8255	0.1182	0.7061	1.032
Mof_O 	O 	0.8653	0.0831	0.6732	-0.087
Mof_O 	O 	0.3296	0.3713	0.2872	-1.143
Mof_O 	O 	0.3712	0.4163	0.3342	-0.286
Mof_C 	C 	0.28212	0.37734	0.24169	-0.106
Mof_H 	H 	0.3043	0.3783	0.2358	0.116
Mof_C 	C 	0.3724	0.48319	0.33168	-0.014
Mof_H 	H 	0.3868	0.4717	0.3179	0.059
Mof_O 	O 	0.3255	0.3818	0.2939	1.032
Mof_O 	O 	0.3653	0.4169	0.3268	-0.088
Mof_O 	O 	0.3296	0.8713	0.7872	-1.141
Mof_O 	O 	0.3712	0.9163	0.8342	-0.286
Mof_C 	C 	0.28212	0.87734	0.74169	-0.106
Mof_H 	H 	0.3043	0.8783	0.7358	0.116
Mof_C 	C 	0.3724	0.98319	0.83168	0.003
Mof_H 	H 	0.3868	0.9717	0.8179	0.054
Mof_O 	O 	0.3255	0.8818	0.7939	1.03
Mof_O 	O 	0.3653	0.9169	0.8268	-0.088
Mof_O 	O 	0.8296	0.3713	0.7872	-1.142
Mof_O 	O 	0.8712	0.4163	0.8342	-0.286
Mof_C 	C 	0.78212	0.37734	0.74169	-0.106
Mof_H 	H 	0.8043	0.3783	0.7358	0.116
Mof_C 	C 	0.8724	0.48319	0.83168	-0.014
Mof_H 	H 	0.8868	0.4717	0.8179	0.059
Mof_O 	O 	0.8255	0.3818	0.7939	1.031
Mof_O 	O 	0.8653	0.4169	0.8268	-0.087
Mof_O 	O 	0.8296	0.8713	0.2872	-1.141
Mof_O 	O 	0.8712	0.9163	0.3342	-0.286
Mof_C 	C 	0.78212	0.87734	0.24169	-0.106
Mof_H 	H 	0.8043	0.8783	0.2358	0.116
Mof_C 	C 	0.8724	0.98319	0.33168	0.003
Mof_H 	H 	0.8868	0.9717	0.3179	0.054
Mof_O 	O 	0.8255	0.8818	0.2939	1.03
Mof_O 	O 	0.8653	0.9169	0.3268	-0.088
Mof_O 	O 	0.6704	0.6287	0.2872	-1.142
Mof_O 	O 	0.6288	0.5837	0.3342	-0.286
Mof_C 	C 	0.71788	0.62266	0.24169	-0.106
Mof_H 	H 	0.6957	0.6217	0.2358	0.116
Mof_C 	C 	0.6276	0.51681	0.33168	-0.014
Mof_H 	H 	0.6132	0.5283	0.3179	0.059
Mof_O 	O 	0.6745	0.6182	0.2939	1.031
Mof_O 	O 	0.6347	0.5831	0.3268	-0.088
Mof_O 	O 	0.6704	0.1287	0.7872	-1.143
Mof_O 	O 	0.6288	0.0837	0.8342	-0.286
Mof_C 	C 	0.71788	0.12266	0.74169	-0.107
Mof_H 	H 	0.6957	0.1217	0.7358	0.116
Mof_C 	C 	0.6276	0.01681	0.83168	-0.031
Mof_H 	H 	0.6132	0.0283	0.8179	0.063
Mof_O 	O 	0.6745	0.1182	0.7939	1.033
Mof_O 	O 	0.6347	0.0831	0.8268	-0.087
Mof_O 	O 	0.1704	0.6287	0.7872	-1.143
Mof_O 	O 	0.1288	0.5837	0.8342	-0.286
Mof_C 	C 	0.21788	0.62266	0.74169	-0.106
Mof_H 	H 	0.1957	0.6217	0.7358	0.116
Mof_C 	C 	0.1276	0.51681	0.83168	-0.014
Mof_H 	H 	0.1132	0.5283	0.8179	0.059
Mof_O 	O 	0.1745	0.6182	0.7939	1.032
Mof_O 	O 	0.1347	0.5831	0.8268	-0.088
Mof_O 	O 	0.1704	0.1287	0.2872	-1.144
Mof_O 	O 	0.1288	0.0837	0.3342	-0.286
Mof_C 	C 	0.21788	0.12266	0.24169	-0.107
Mof_H 	H 	0.1957	0.1217	0.2358	0.116
Mof_C 	C 	0.1276	0.01681	0.33168	-0.032
Mof_H 	H 	0.1132	0.0283	0.3179	0.063
Mof_O 	O 	0.1745	0.1182	0.2939	1.033
Mof_O 	O 	0.1347	0.0831	0.3268	-0.087
Mof_O 	O 	0.6704	0.3713	0.7128	-1.142
Mof_O 	O 	0.6288	0.4163	0.6658	-0.286
Mof_C 	C 	0.71788	0.37734	0.75831	-0.106
Mof_H 	H 	0.6957	0.3783	0.7642	0.116
Mof_C 	C 	0.6276	0.48319	0.66832	-0.014
Mof_H 	H 	0.6132	0.4717	0.6821	0.059
Mof_O 	O 	0.6745	0.3818	0.7061	1.031
Mof_O 	O 	0.6347	0.4169	0.6732	-0.088
Mof_O 	O 	0.6704	0.8713	0.2128	-1.141
Mof_O 	O 	0.6288	0.9163	0.1658	-0.286
Mof_C 	C 	0.71788	0.87734	0.25831	-0.106
Mof_H 	H 	0.6957	0.8783	0.2642	0.116
Mof_C 	C 	0.6276	0.98319	0.16832	0.003
Mof_H 	H 	0.6132	0.9717	0.1821	0.054
Mof_O 	O 	0.6745	0.8818	0.2061	1.03
Mof_O 	O 	0.6347	0.9169	0.1732	-0.089
Mof_O 	O 	0.1704	0.3713	0.2128	-1.143
Mof_O 	O 	0.1288	0.4163	0.1658	-0.286
Mof_C 	C 	0.21788	0.37734	0.25831	-0.106
Mof_H 	H 	0.1957	0.3783	0.2642	0.116
Mof_C 	C 	0.1276	0.48319	0.16832	-0.014
Mof_H 	H 	0.1132	0.4717	0.1821	0.058
Mof_O 	O 	0.1745	0.3818	0.2061	1.032
Mof_O 	O 	0.1347	0.4169	0.1732	-0.088
Mof_O 	O 	0.1704	0.8713	0.7128	-1.142
Mof_O 	O 	0.1288	0.9163	0.6658	-0.286
Mof_C 	C 	0.21788	0.87734	0.75831	-0.106
Mof_H 	H 	0.1957	0.8783	0.7642	0.116
Mof_C 	C 	0.1276	0.98319	0.66832	0.003
Mof_H 	H 	0.1132	0.9717	0.6821	0.054
Mof_O 	O 	0.1745	0.8818	0.7061	1.031
Mof_O 	O 	0.1347	0.9169	0.6732	-0.089
Mof_Fe	Fe	0.68684	0.37079	0.62921	0.942
Mof_O 	O 	0.771	0.4667	0.5333	-0.43
Mof_O 	O 	0.7194	0.4604	0.5396	-0.293
Mof_C 	C 	0.7521	0.42939	0.57061	-0.14
Mof_C 	C 	0.72514	0.41512	0.58488	0.072
Mof_H 	H 	0.704	0.42155	0.57845	0.037
Mof_N 	N 	0.72909	0.39145	0.60855	-0.172
Mof_C 	C 	0.76005	0.38204	0.61796	0.055
Mof_H 	H 	0.7627	0.3659	0.6341	0.073
Mof_C 	C 	0.78704	0.39629	0.60371	-0.116
Mof_H 	H 	0.8082	0.3899	0.6101	0.07
Mof_C 	C 	0.78309	0.41995	0.58005	0.058
Mof_H 	H 	0.8015	0.4297	0.5703	0.024
Mof_C 	C 	0.7469	0.4553	0.5447	0.452
Mof_Fe	Fe	0.68684	0.87079	0.12921	0.942
Mof_O 	O 	0.771	0.9667	0.0333	-0.427
Mof_O 	O 	0.7194	0.9604	0.0396	-0.292
Mof_C 	C 	0.7521	0.92939	0.07061	-0.139
Mof_C 	C 	0.72514	0.91512	0.08488	0.071
Mof_H 	H 	0.704	0.92155	0.07845	0.037
Mof_N 	N 	0.72909	0.89145	0.10855	-0.172
Mof_C 	C 	0.76005	0.88204	0.11796	0.055
Mof_H 	H 	0.7627	0.8659	0.1341	0.073
Mof_C 	C 	0.78704	0.89629	0.10371	-0.116
Mof_H 	H 	0.8082	0.8899	0.1101	0.07
Mof_C 	C 	0.78309	0.91996	0.08005	0.057
Mof_H 	H 	0.8015	0.9297	0.0703	0.024
Mof_C 	C 	0.7469	0.9553	0.0447	0.45
Mof_Fe	Fe	0.18684	0.37079	0.12921	0.942
Mof_O 	O 	0.271	0.4667	0.0333	-0.43
Mof_O 	O 	0.2194	0.4604	0.0396	-0.294
Mof_C 	C 	0.2521	0.42939	0.07061	-0.14
Mof_C 	C 	0.22514	0.41512	0.08488	0.072
Mof_H 	H 	0.204	0.42155	0.07845	0.037
Mof_N 	N 	0.22909	0.39145	0.10855	-0.172
Mof_C 	C 	0.26005	0.38204	0.11796	0.055
Mof_H 	H 	0.2627	0.3659	0.1341	0.073
Mof_C 	C 	0.28704	0.39629	0.10371	-0.117
Mof_H 	H 	0.3082	0.3899	0.1101	0.07
Mof_C 	C 	0.28309	0.41995	0.08005	0.058
Mof_H 	H 	0.3015	0.4297	0.0703	0.023
Mof_C 	C 	0.2469	0.4553	0.0447	0.451
Mof_Fe	Fe	0.18684	0.87079	0.62921	0.943
Mof_O 	O 	0.271	0.9667	0.5333	-0.427
Mof_O 	O 	0.2194	0.9604	0.5396	-0.291
Mof_C 	C 	0.2521	0.92939	0.57061	-0.139
Mof_C 	C 	0.22514	0.91512	0.58488	0.072
Mof_H 	H 	0.204	0.92155	0.57845	0.038
Mof_N 	N 	0.22909	0.89145	0.60855	-0.172
Mof_C 	C 	0.26005	0.88204	0.61796	0.055
Mof_H 	H 	0.2627	0.8659	0.6341	0.073
Mof_C 	C 	0.28704	0.89629	0.60371	-0.116
Mof_H 	H 	0.3082	0.8899	0.6101	0.07
Mof_C 	C 	0.28309	0.91996	0.58005	0.057
Mof_H 	H 	0.3015	0.9297	0.5703	0.025
Mof_C 	C 	0.2469	0.9553	0.5447	0.451
Mof_Fe	Fe	0.31316	0.62921	0.62921	0.942
Mof_O 	O 	0.229	0.5333	0.5333	-0.43
Mof_O 	O 	0.2806	0.5396	0.5396	-0.293
Mof_C 	C 	0.2479	0.57061	0.57061	-0.14
Mof_C 	C 	0.27486	0.58488	0.58488	0.072
Mof_H 	H 	0.296	0.57845	0.57845	0.037
Mof_N 	N 	0.27091	0.60855	0.60855	-0.172
Mof_C 	C 	0.23995	0.61796	0.61796	0.055
Mof_H 	H 	0.2373	0.6341	0.6341	0.073
Mof_C 	C 	0.21296	0.60371	0.60371	-0.116
Mof_H 	H 	0.1918	0.6101	0.6101	0.07
Mof_C 	C 	0.21691	0.58005	0.58005	0.058
Mof_H 	H 	0.1985	0.5703	0.5703	0.024
Mof_C 	C 	0.2531	0.5447	0.5447	0.452
Mof_Fe	Fe	0.31316	0.12921	0.12921	0.942
Mof_O 	O 	0.229	0.0333	0.0333	-0.431
Mof_O 	O 	0.2806	0.0396	0.0396	-0.295
Mof_C 	C 	0.2479	0.07061	0.07061	-0.141
Mof_C 	C 	0.27486	0.08488	0.08488	0.071
Mof_H 	H 	0.296	0.07845	0.07845	0.037
Mof_N 	N 	0.27091	0.10855	0.10855	-0.172
Mof_C 	C 	0.23995	0.11796	0.11796	0.054
Mof_H 	H 	0.2373	0.1341	0.1341	0.073
Mof_C 	C 	0.21296	0.10371	0.10371	-0.117
Mof_H 	H 	0.1918	0.1101	0.1101	0.069
Mof_C 	C 	0.21691	0.08005	0.08005	0.058
Mof_H 	H 	0.1985	0.0703	0.0703	0.023
Mof_C 	C 	0.2531	0.0447	0.0447	0.451
Mof_Fe	Fe	0.81316	0.62921	0.12921	0.942
Mof_O 	O 	0.729	0.5333	0.0333	-0.43
Mof_O 	O 	0.7806	0.5396	0.0396	-0.294
Mof_C 	C 	0.7479	0.57061	0.07061	-0.14
Mof_C 	C 	0.77486	0.58488	0.08488	0.072
Mof_H 	H 	0.796	0.57845	0.07845	0.037
Mof_N 	N 	0.77091	0.60855	0.10855	-0.172
Mof_C 	C 	0.73995	0.61796	0.11796	0.055
Mof_H 	H 	0.7373	0.6341	0.1341	0.073
Mof_C 	C 	0.71296	0.60371	0.10371	-0.117
Mof_H 	H 	0.6918	0.6101	0.1101	0.07
Mof_C 	C 	0.71691	0.58005	0.08005	0.058
Mof_H 	H 	0.6985	0.5703	0.0703	0.023
Mof_C 	C 	0.7531	0.5447	0.0447	0.451
Mof_Fe	Fe	0.81316	0.12921	0.62921	0.942
Mof_O 	O 	0.729	0.0333	0.5333	-0.43
Mof_O 	O 	0.7806	0.0396	0.5396	-0.294
Mof_C 	C 	0.7479	0.07061	0.57061	-0.14
Mof_C 	C 	0.77486	0.08488	0.58488	0.072
Mof_H 	H 	0.796	0.07845	0.57845	0.037
Mof_N 	N 	0.77091	0.10855	0.60855	-0.172
Mof_C 	C 	0.73995	0.11796	0.61796	0.055
Mof_H 	H 	0.7373	0.1341	0.6341	0.073
Mof_C 	C 	0.71296	0.10371	0.60371	-0.117
Mof_H 	H 	0.6918	0.1101	0.6101	0.07
Mof_C 	C 	0.71691	0.08005	0.58005	0.058
Mof_H 	H 	0.6985	0.0703	0.5703	0.023
Mof_C 	C 	0.7531	0.0447	0.5447	0.451
Mof_Fe	Fe	0.31316	0.37079	0.37079	0.942
Mof_O 	O 	0.229	0.4667	0.4667	-0.43
Mof_O 	O 	0.2806	0.4604	0.4604	-0.293
Mof_C 	C 	0.2479	0.42939	0.42939	-0.14
Mof_C 	C 	0.27486	0.41512	0.41512	0.072
Mof_H 	H 	0.296	0.42155	0.42155	0.037
Mof_N 	N 	0.27091	0.39145	0.39145	-0.172
Mof_C 	C 	0.23995	0.38204	0.38204	0.055
Mof_H 	H 	0.2373	0.3659	0.3659	0.073
Mof_C 	C 	0.21296	0.39629	0.39629	-0.116
Mof_H 	H 	0.1918	0.3899	0.3899	0.07
Mof_C 	C 	0.21691	0.41995	0.41995	0.058
Mof_H 	H 	0.1985	0.4297	0.4297	0.024
Mof_C 	C 	0.2531	0.4553	0.4553	0.452
Mof_Fe	Fe	0.31316	0.87079	0.87079	0.943
Mof_O 	O 	0.229	0.9667	0.9667	-0.424
Mof_O 	O 	0.2806	0.9604	0.9604	-0.289
Mof_C 	C 	0.2479	0.92939	0.92939	-0.138
Mof_C 	C 	0.27486	0.91512	0.91512	0.071
Mof_H 	H 	0.296	0.92155	0.92155	0.038
Mof_N 	N 	0.27091	0.89145	0.89145	-0.171
Mof_C 	C 	0.23995	0.88204	0.88204	0.055
Mof_H 	H 	0.2373	0.8659	0.8659	0.073
Mof_C 	C 	0.21296	0.89629	0.89629	-0.115
Mof_H 	H 	0.1918	0.8899	0.8899	0.07
Mof_C 	C 	0.21691	0.91996	0.91995	0.057
Mof_H 	H 	0.1985	0.9297	0.9297	0.025
Mof_C 	C 	0.2531	0.9553	0.9553	0.45
Mof_Fe	Fe	0.81316	0.37079	0.87079	0.943
Mof_O 	O 	0.729	0.4667	0.9667	-0.427
Mof_O 	O 	0.7806	0.4604	0.9604	-0.291
Mof_C 	C 	0.7479	0.42939	0.92939	-0.139
Mof_C 	C 	0.77486	0.41512	0.91512	0.071
Mof_H 	H 	0.796	0.42155	0.92155	0.038
Mof_N 	N 	0.77091	0.39145	0.89145	-0.172
Mof_C 	C 	0.73995	0.38204	0.88204	0.055
Mof_H 	H 	0.7373	0.3659	0.8659	0.073
Mof_C 	C 	0.71296	0.39629	0.89629	-0.116
Mof_H 	H 	0.6918	0.3899	0.8899	0.07
Mof_C 	C 	0.71691	0.41995	0.91995	0.057
Mof_H 	H 	0.6985	0.4297	0.9297	0.025
Mof_C 	C 	0.7531	0.4553	0.9553	0.45
Mof_Fe	Fe	0.81316	0.87079	0.37079	0.943
Mof_O 	O 	0.729	0.9667	0.4667	-0.427
Mof_O 	O 	0.7806	0.9604	0.4604	-0.291
Mof_C 	C 	0.7479	0.92939	0.42939	-0.139
Mof_C 	C 	0.77486	0.91512	0.41512	0.071
Mof_H 	H 	0.796	0.92155	0.42155	0.038
Mof_N 	N 	0.77091	0.89145	0.39145	-0.172
Mof_C 	C 	0.73995	0.88204	0.38204	0.055
Mof_H 	H 	0.7373	0.8659	0.3659	0.073
Mof_C 	C 	0.71296	0.89629	0.39629	-0.116
Mof_H 	H 	0.6918	0.8899	0.3899	0.07
Mof_C 	C 	0.71691	0.91996	0.41995	0.057
Mof_H 	H 	0.6985	0.9297	0.4297	0.025
Mof_C 	C 	0.7531	0.9553	0.4553	0.45
Mof_Fe	Fe	0.68684	0.62921	0.37079	0.942
Mof_O 	O 	0.771	0.5333	0.4667	-0.43
Mof_O 	O 	0.7194	0.5396	0.4604	-0.293
Mof_C 	C 	0.7521	0.57061	0.42939	-0.14
Mof_C 	C 	0.72514	0.58488	0.41512	0.072
Mof_H 	H 	0.704	0.57845	0.42155	0.037
Mof_N 	N 	0.72909	0.60855	0.39145	-0.172
Mof_C 	C 	0.76005	0.61796	0.38204	0.055
Mof_H 	H 	0.7627	0.6341	0.3659	0.073
Mof_C 	C 	0.78704	0.60371	0.39629	-0.116
Mof_H 	H 	0.8082	0.6101	0.3899	0.07
Mof_C 	C 	0.78309	0.58005	0.41995	0.058
Mof_H 	H 	0.8015	0.5703	0.4297	0.024
Mof_C 	C 	0.7469	0.5447	0.4553	0.452
Mof_Fe	Fe	0.68684	0.12921	0.87079	0.942
Mof_O 	O 	0.771	0.0333	0.9667	-0.427
Mof_O 	O 	0.7194	0.0396	0.9604	-0.292
Mof_C 	C 	0.7521	0.07061	0.92939	-0.139
Mof_C 	C 	0.72514	0.08488	0.91512	0.071
Mof_H 	H 	0.704	0.07845	0.92155	0.037
Mof_N 	N 	0.72909	0.10855	0.89145	-0.172
Mof_C 	C 	0.76005	0.11796	0.88204	0.055
Mof_H 	H 	0.7627	0.1341	0.8659	0.073
Mof_C 	C 	0.78704	0.10371	0.89629	-0.116
Mof_H 	H 	0.8082	0.1101	0.8899	0.07
Mof_C 	C 	0.78309	0.08005	0.91995	0.057
Mof_H 	H 	0.8015	0.0703	0.9297	0.024
Mof_C 	C 	0.7469	0.0447	0.9553	0.45
Mof_Fe	Fe	0.18684	0.62921	0.87079	0.943
Mof_O 	O 	0.271	0.5333	0.9667	-0.427
Mof_O 	O 	0.2194	0.5396	0.9604	-0.291
Mof_C 	C 	0.2521	0.57061	0.92939	-0.139
Mof_C 	C 	0.22514	0.58488	0.91512	0.072
Mof_H 	H 	0.204	0.57845	0.92155	0.038
Mof_N 	N 	0.22909	0.60855	0.89145	-0.172
Mof_C 	C 	0.26005	0.61796	0.88204	0.055
Mof_H 	H 	0.2627	0.6341	0.8659	0.073
Mof_C 	C 	0.28704	0.60371	0.89629	-0.116
Mof_H 	H 	0.3082	0.6101	0.8899	0.07
Mof_C 	C 	0.28309	0.58005	0.91995	0.058
Mof_H 	H 	0.3015	0.5703	0.9297	0.025
Mof_C 	C 	0.2469	0.5447	0.9553	0.451
Mof_Fe	Fe	0.18684	0.12921	0.37079	0.942
Mof_O 	O 	0.271	0.0333	0.4667	-0.43
Mof_O 	O 	0.2194	0.0396	0.4604	-0.294
Mof_C 	C 	0.2521	0.07061	0.42939	-0.14
Mof_C 	C 	0.22514	0.08488	0.41512	0.072
Mof_H 	H 	0.204	0.07845	0.42155	0.037
Mof_N 	N 	0.22909	0.10855	0.39145	-0.172
Mof_C 	C 	0.26005	0.11796	0.38204	0.055
Mof_H 	H 	0.2627	0.1341	0.3659	0.073
Mof_C 	C 	0.28704	0.10371	0.39629	-0.117
Mof_H 	H 	0.3082	0.1101	0.3899	0.07
Mof_C 	C 	0.28309	0.08005	0.41995	0.058
Mof_H 	H 	0.3015	0.0703	0.4297	0.023
Mof_C 	C 	0.2469	0.0447	0.4553	0.451
Mof_Fe	Fe	0.62921	0.68684	0.37079	0.942
Mof_O 	O 	0.5333	0.771	0.4667	-0.43
Mof_O 	O 	0.5396	0.7194	0.4604	-0.293
Mof_C 	C 	0.57061	0.7521	0.42939	-0.14
Mof_C 	C 	0.58488	0.72514	0.41512	0.072
Mof_H 	H 	0.57845	0.704	0.42155	0.037
Mof_N 	N 	0.60855	0.72909	0.39145	-0.172
Mof_C 	C 	0.61796	0.76005	0.38204	0.055
Mof_H 	H 	0.6341	0.7627	0.3659	0.073
Mof_C 	C 	0.60371	0.78704	0.39629	-0.116
Mof_H 	H 	0.6101	0.8082	0.3899	0.07
Mof_C 	C 	0.58005	0.78309	0.41995	0.058
Mof_H 	H 	0.5703	0.8015	0.4297	0.024
Mof_C 	C 	0.5447	0.7469	0.4553	0.452
Mof_Fe	Fe	0.62921	0.18684	0.87079	0.943
Mof_O 	O 	0.5333	0.271	0.9667	-0.427
Mof_O 	O 	0.5396	0.2194	0.9604	-0.291
Mof_C 	C 	0.57061	0.2521	0.92939	-0.139
Mof_C 	C 	0.58488	0.22514	0.91512	0.072
Mof_H 	H 	0.57845	0.204	0.92155	0.038
Mof_N 	N 	0.60855	0.22909	0.89145	-0.172
Mof_C 	C 	0.61796	0.26005	0.88204	0.055
Mof_H 	H 	0.6341	0.2627	0.8659	0.073
Mof_C 	C 	0.60371	0.28704	0.89629	-0.116
Mof_H 	H 	0.6101	0.3082	0.8899	0.07
Mof_C 	C 	0.58005	0.28309	0.91996	0.057
Mof_H 	H 	0.5703	0.3015	0.9297	0.025
Mof_C 	C 	0.5447	0.2469	0.9553	0.451
Mof_Fe	Fe	0.12921	0.68684	0.87079	0.942
Mof_O 	O 	0.0333	0.771	0.9667	-0.427
Mof_O 	O 	0.0396	0.7194	0.9604	-0.292
Mof_C 	C 	0.07061	0.7521	0.92939	-0.139
Mof_C 	C 	0.08488	0.72514	0.91512	0.071
Mof_H 	H 	0.07845	0.704	0.92155	0.037
Mof_N 	N 	0.10855	0.72909	0.89145	-0.172
Mof_C 	C 	0.11796	0.76005	0.88204	0.055
Mof_H 	H 	0.1341	0.7627	0.8659	0.073
Mof_C 	C 	0.10371	0.78704	0.89629	-0.116
Mof_H 	H 	0.1101	0.8082	0.8899	0.07
Mof_C 	C 	0.08005	0.78309	0.91996	0.057
Mof_H 	H 	0.0703	0.8015	0.9297	0.024
Mof_C 	C 	0.0447	0.7469	0.9553	0.45
Mof_Fe	Fe	0.12921	0.18684	0.37079	0.942
Mof_O 	O 	0.0333	0.271	0.4667	-0.43
Mof_O 	O 	0.0396	0.2194	0.4604	-0.294
Mof_C 	C 	0.07061	0.2521	0.42939	-0.14
Mof_C 	C 	0.08488	0.22514	0.41512	0.072
Mof_H 	H 	0.07845	0.204	0.42155	0.037
Mof_N 	N 	0.10855	0.22909	0.39145	-0.172
Mof_C 	C 	0.11796	0.26005	0.38204	0.055
Mof_H 	H 	0.1341	0.2627	0.3659	0.073
Mof_C 	C 	0.10371	0.28704	0.39629	-0.117
Mof_H 	H 	0.1101	0.3082	0.3899	0.07
Mof_C 	C 	0.08005	0.28309	0.41995	0.058
Mof_H 	H 	0.0703	0.3015	0.4297	0.023
Mof_C 	C 	0.0447	0.2469	0.4553	0.451
Mof_Fe	Fe	0.62921	0.31316	0.62921	0.942
Mof_O 	O 	0.5333	0.229	0.5333	-0.43
Mof_O 	O 	0.5396	0.2806	0.5396	-0.293
Mof_C 	C 	0.57061	0.2479	0.57061	-0.14
Mof_C 	C 	0.58488	0.27486	0.58488	0.072
Mof_H 	H 	0.57845	0.296	0.57845	0.037
Mof_N 	N 	0.60855	0.27091	0.60855	-0.172
Mof_C 	C 	0.61796	0.23995	0.61796	0.055
Mof_H 	H 	0.6341	0.2373	0.6341	0.073
Mof_C 	C 	0.60371	0.21296	0.60371	-0.116
Mof_H 	H 	0.6101	0.1918	0.6101	0.07
Mof_C 	C 	0.58005	0.21691	0.58005	0.058
Mof_H 	H 	0.5703	0.1985	0.5703	0.024
Mof_C 	C 	0.5447	0.2531	0.5447	0.452
Mof_Fe	Fe	0.62921	0.81316	0.12921	0.942
Mof_O 	O 	0.5333	0.729	0.0333	-0.43
Mof_O 	O 	0.5396	0.7806	0.0396	-0.294
Mof_C 	C 	0.57061	0.7479	0.07061	-0.14
Mof_C 	C 	0.58488	0.77486	0.08488	0.072
Mof_H 	H 	0.57845	0.796	0.07845	0.037
Mof_N 	N 	0.60855	0.77091	0.10855	-0.172
Mof_C 	C 	0.61796	0.73995	0.11796	0.055
Mof_H 	H 	0.6341	0.7373	0.1341	0.073
Mof_C 	C 	0.60371	0.71296	0.10371	-0.117
Mof_H 	H 	0.6101	0.6918	0.1101	0.07
Mof_C 	C 	0.58005	0.71691	0.08005	0.058
Mof_H 	H 	0.5703	0.6985	0.0703	0.023
Mof_C 	C 	0.5447	0.7531	0.0447	0.451
Mof_Fe	Fe	0.12921	0.31316	0.12921	0.942
Mof_O 	O 	0.0333	0.229	0.0333	-0.431
Mof_O 	O 	0.0396	0.2806	0.0396	-0.295
Mof_C 	C 	0.07061	0.2479	0.07061	-0.141
Mof_C 	C 	0.08488	0.27486	0.08488	0.071
Mof_H 	H 	0.07845	0.296	0.07845	0.037
Mof_N 	N 	0.10855	0.27091	0.10855	-0.172
Mof_C 	C 	0.11796	0.23995	0.11796	0.054
Mof_H 	H 	0.1341	0.2373	0.1341	0.073
Mof_C 	C 	0.10371	0.21296	0.10371	-0.117
Mof_H 	H 	0.1101	0.1918	0.1101	0.069
Mof_C 	C 	0.08005	0.21691	0.08005	0.058
Mof_H 	H 	0.0703	0.1985	0.0703	0.023
Mof_C 	C 	0.0447	0.2531	0.0447	0.451
Mof_Fe	Fe	0.12921	0.81316	0.62921	0.942
Mof_O 	O 	0.0333	0.729	0.5333	-0.43
Mof_O 	O 	0.0396	0.7806	0.5396	-0.294
Mof_C 	C 	0.07061	0.7479	0.57061	-0.14
Mof_C 	C 	0.08488	0.77486	0.58488	0.072
Mof_H 	H 	0.07845	0.796	0.57845	0.037
Mof_N 	N 	0.10855	0.77091	0.60855	-0.172
Mof_C 	C 	0.11796	0.73995	0.61796	0.055
Mof_H 	H 	0.1341	0.7373	0.6341	0.073
Mof_C 	C 	0.10371	0.71296	0.60371	-0.117
Mof_H 	H 	0.1101	0.6918	0.6101	0.07
Mof_C 	C 	0.08005	0.71691	0.58005	0.058
Mof_H 	H 	0.0703	0.6985	0.5703	0.023
Mof_C 	C 	0.0447	0.7531	0.5447	0.451
Mof_Fe	Fe	0.37079	0.31316	0.37079	0.942
Mof_O 	O 	0.4667	0.229	0.4667	-0.43
Mof_O 	O 	0.4604	0.2806	0.4604	-0.293
Mof_C 	C 	0.42939	0.2479	0.42939	-0.14
Mof_C 	C 	0.41512	0.27486	0.41512	0.072
Mof_H 	H 	0.42155	0.296	0.42155	0.037
Mof_N 	N 	0.39145	0.27091	0.39145	-0.172
Mof_C 	C 	0.38204	0.23995	0.38204	0.055
Mof_H 	H 	0.3659	0.2373	0.3659	0.073
Mof_C 	C 	0.39629	0.21296	0.39629	-0.116
Mof_H 	H 	0.3899	0.1918	0.3899	0.07
Mof_C 	C 	0.41995	0.21691	0.41995	0.058
Mof_H 	H 	0.4297	0.1985	0.4297	0.024
Mof_C 	C 	0.4553	0.2531	0.4553	0.452
Mof_Fe	Fe	0.37079	0.81316	0.87079	0.943
Mof_O 	O 	0.4667	0.729	0.9667	-0.427
Mof_O 	O 	0.4604	0.7806	0.9604	-0.291
Mof_C 	C 	0.42939	0.7479	0.92939	-0.139
Mof_C 	C 	0.41512	0.77486	0.91512	0.071
Mof_H 	H 	0.42155	0.796	0.92155	0.038
Mof_N 	N 	0.39145	0.77091	0.89145	-0.172
Mof_C 	C 	0.38204	0.73995	0.88204	0.055
Mof_H 	H 	0.3659	0.7373	0.8659	0.073
Mof_C 	C 	0.39629	0.71296	0.89629	-0.116
Mof_H 	H 	0.3899	0.6918	0.8899	0.07
Mof_C 	C 	0.41995	0.71691	0.91996	0.057
Mof_H 	H 	0.4297	0.6985	0.9297	0.025
Mof_C 	C 	0.4553	0.7531	0.9553	0.45
Mof_Fe	Fe	0.87079	0.31316	0.87079	0.943
Mof_O 	O 	0.9667	0.229	0.9667	-0.424
Mof_O 	O 	0.9604	0.2806	0.9604	-0.289
Mof_C 	C 	0.92939	0.2479	0.92939	-0.138
Mof_C 	C 	0.91512	0.27486	0.91512	0.071
Mof_H 	H 	0.92155	0.296	0.92155	0.038
Mof_N 	N 	0.89145	0.27091	0.89145	-0.171
Mof_C 	C 	0.88204	0.23995	0.88204	0.055
Mof_H 	H 	0.8659	0.2373	0.8659	0.073
Mof_C 	C 	0.89629	0.21296	0.89629	-0.115
Mof_H 	H 	0.8899	0.1918	0.8899	0.07
Mof_C 	C 	0.91995	0.21691	0.91996	0.057
Mof_H 	H 	0.9297	0.1985	0.9297	0.025
Mof_C 	C 	0.9553	0.2531	0.9553	0.45
Mof_Fe	Fe	0.87079	0.81316	0.37079	0.943
Mof_O 	O 	0.9667	0.729	0.4667	-0.427
Mof_O 	O 	0.9604	0.7806	0.4604	-0.291
Mof_C 	C 	0.92939	0.7479	0.42939	-0.139
Mof_C 	C 	0.91512	0.77486	0.41512	0.071
Mof_H 	H 	0.92155	0.796	0.42155	0.038
Mof_N 	N 	0.89145	0.77091	0.39145	-0.172
Mof_C 	C 	0.88204	0.73995	0.38204	0.055
Mof_H 	H 	0.8659	0.7373	0.3659	0.073
Mof_C 	C 	0.89629	0.71296	0.39629	-0.116
Mof_H 	H 	0.8899	0.6918	0.3899	0.07
Mof_C 	C 	0.91995	0.71691	0.41995	0.057
Mof_H 	H 	0.9297	0.6985	0.4297	0.025
Mof_C 	C 	0.9553	0.7531	0.4553	0.45
Mof_Fe	Fe	0.37079	0.68684	0.62921	0.942
Mof_O 	O 	0.4667	0.771	0.5333	-0.43
Mof_O 	O 	0.4604	0.7194	0.5396	-0.293
Mof_C 	C 	0.42939	0.7521	0.57061	-0.14
Mof_C 	C 	0.41512	0.72514	0.58488	0.072
Mof_H 	H 	0.42155	0.704	0.57845	0.037
Mof_N 	N 	0.39145	0.72909	0.60855	-0.172
Mof_C 	C 	0.38204	0.76005	0.61796	0.055
Mof_H 	H 	0.3659	0.7627	0.6341	0.073
Mof_C 	C 	0.39629	0.78704	0.60371	-0.116
Mof_H 	H 	0.3899	0.8082	0.6101	0.07
Mof_C 	C 	0.41995	0.78309	0.58005	0.058
Mof_H 	H 	0.4297	0.8015	0.5703	0.024
Mof_C 	C 	0.4553	0.7469	0.5447	0.452
Mof_Fe	Fe	0.37079	0.18684	0.12921	0.942
Mof_O 	O 	0.4667	0.271	0.0333	-0.43
Mof_O 	O 	0.4604	0.2194	0.0396	-0.294
Mof_C 	C 	0.42939	0.2521	0.07061	-0.14
Mof_C 	C 	0.41512	0.22514	0.08488	0.072
Mof_H 	H 	0.42155	0.204	0.07845	0.037
Mof_N 	N 	0.39145	0.22909	0.10855	-0.172
Mof_C 	C 	0.38204	0.26005	0.11796	0.055
Mof_H 	H 	0.3659	0.2627	0.1341	0.073
Mof_C 	C 	0.39629	0.28704	0.10371	-0.117
Mof_H 	H 	0.3899	0.3082	0.1101	0.07
Mof_C 	C 	0.41995	0.28309	0.08005	0.058
Mof_H 	H 	0.4297	0.3015	0.0703	0.023
Mof_C 	C 	0.4553	0.2469	0.0447	0.451
Mof_Fe	Fe	0.87079	0.68684	0.12921	0.942
Mof_O 	O 	0.9667	0.771	0.0333	-0.427
Mof_O 	O 	0.9604	0.7194	0.0396	-0.292
Mof_C 	C 	0.92939	0.7521	0.07061	-0.139
Mof_C 	C 	0.91512	0.72514	0.08488	0.071
Mof_H 	H 	0.92155	0.704	0.07845	0.037
Mof_N 	N 	0.89145	0.72909	0.10855	-0.172
Mof_C 	C 	0.88204	0.76005	0.11796	0.055
Mof_H 	H 	0.8659	0.7627	0.1341	0.073
Mof_C 	C 	0.89629	0.78704	0.10371	-0.116
Mof_H 	H 	0.8899	0.8082	0.1101	0.07
Mof_C 	C 	0.91995	0.78309	0.08005	0.057
Mof_H 	H 	0.9297	0.8015	0.0703	0.024
Mof_C 	C 	0.9553	0.7469	0.0447	0.45
Mof_Fe	Fe	0.87079	0.18684	0.62921	0.943
Mof_O 	O 	0.9667	0.271	0.5333	-0.427
Mof_O 	O 	0.9604	0.2194	0.5396	-0.291
Mof_C 	C 	0.92939	0.2521	0.57061	-0.139
Mof_C 	C 	0.91512	0.22514	0.58488	0.072
Mof_H 	H 	0.92155	0.204	0.57845	0.038
Mof_N 	N 	0.89145	0.22909	0.60855	-0.172
Mof_C 	C 	0.88204	0.26005	0.61796	0.055
Mof_H 	H 	0.8659	0.2627	0.6341	0.073
Mof_C 	C 	0.89629	0.28704	0.60371	-0.116
Mof_H 	H 	0.8899	0.3082	0.6101	0.07
Mof_C 	C 	0.91995	0.28309	0.58005	0.058
Mof_H 	H 	0.9297	0.3015	0.5703	0.025
Mof_C 	C 	0.9553	0.2469	0.5447	0.451
Mof_Fe	Fe	0.37079	0.62921	0.68684	0.942
Mof_O 	O 	0.4667	0.5333	0.771	-0.43
Mof_O 	O 	0.4604	0.5396	0.7194	-0.293
Mof_C 	C 	0.42939	0.57061	0.7521	-0.14
Mof_C 	C 	0.41512	0.58488	0.72514	0.072
Mof_H 	H 	0.42155	0.57845	0.704	0.037
Mof_N 	N 	0.39145	0.60855	0.72909	-0.172
Mof_C 	C 	0.38204	0.61796	0.76005	0.055
Mof_H 	H 	0.3659	0.6341	0.7627	0.073
Mof_C 	C 	0.39629	0.60371	0.78704	-0.116
Mof_H 	H 	0.3899	0.6101	0.8082	0.07
Mof_C 	C 	0.41995	0.58005	0.78309	0.058
Mof_H 	H 	0.4297	0.5703	0.8015	0.024
Mof_C 	C 	0.4553	0.5447	0.7469	0.452
Mof_Fe	Fe	0.37079	0.12921	0.18684	0.942
Mof_O 	O 	0.4667	0.0333	0.271	-0.43
Mof_O 	O 	0.4604	0.0396	0.2194	-0.294
Mof_C 	C 	0.42939	0.07061	0.2521	-0.14
Mof_C 	C 	0.41512	0.08488	0.22514	0.072
Mof_H 	H 	0.42155	0.07845	0.204	0.037
Mof_N 	N 	0.39145	0.10855	0.22909	-0.172
Mof_C 	C 	0.38204	0.11796	0.26005	0.055
Mof_H 	H 	0.3659	0.1341	0.2627	0.073
Mof_C 	C 	0.39629	0.10371	0.28704	-0.117
Mof_H 	H 	0.3899	0.1101	0.3082	0.07
Mof_C 	C 	0.41995	0.08005	0.28309	0.058
Mof_H 	H 	0.4297	0.0703	0.3015	0.023
Mof_C 	C 	0.4553	0.0447	0.2469	0.451
Mof_Fe	Fe	0.87079	0.62921	0.18684	0.943
Mof_O 	O 	0.9667	0.5333	0.271	-0.427
Mof_O 	O 	0.9604	0.5396	0.2194	-0.291
Mof_C 	C 	0.92939	0.57061	0.2521	-0.139
Mof_C 	C 	0.91512	0.58488	0.22514	0.072
Mof_H 	H 	0.92155	0.57845	0.204	0.038
Mof_N 	N 	0.89145	0.60855	0.22909	-0.172
Mof_C 	C 	0.88204	0.61796	0.26005	0.055
Mof_H 	H 	0.8659	0.6341	0.2627	0.073
Mof_C 	C 	0.89629	0.60371	0.28704	-0.116
Mof_H 	H 	0.8899	0.6101	0.3082	0.07
Mof_C 	C 	0.91996	0.58005	0.28309	0.057
Mof_H 	H 	0.9297	0.5703	0.3015	0.025
Mof_C 	C 	0.9553	0.5447	0.2469	0.451
Mof_Fe	Fe	0.87079	0.12921	0.68684	0.942
Mof_O 	O 	0.9667	0.0333	0.771	-0.427
Mof_O 	O 	0.9604	0.0396	0.7194	-0.292
Mof_C 	C 	0.92939	0.07061	0.7521	-0.139
Mof_C 	C 	0.91512	0.08488	0.72514	0.071
Mof_H 	H 	0.92155	0.07845	0.704	0.037
Mof_N 	N 	0.89145	0.10855	0.72909	-0.172
Mof_C 	C 	0.88204	0.11796	0.76005	0.055
Mof_H 	H 	0.8659	0.1341	0.7627	0.073
Mof_C 	C 	0.89629	0.10371	0.78704	-0.116
Mof_H 	H 	0.8899	0.1101	0.8082	0.07
Mof_C 	C 	0.91996	0.08005	0.78309	0.057
Mof_H 	H 	0.9297	0.0703	0.8015	0.024
Mof_C 	C 	0.9553	0.0447	0.7469	0.45
Mof_Fe	Fe	0.62921	0.62921	0.31316	0.942
Mof_O 	O 	0.5333	0.5333	0.229	-0.43
Mof_O 	O 	0.5396	0.5396	0.2806	-0.293
Mof_C 	C 	0.57061	0.57061	0.2479	-0.14
Mof_C 	C 	0.58488	0.58488	0.27486	0.072
Mof_H 	H 	0.57845	0.57845	0.296	0.037
Mof_N 	N 	0.60855	0.60855	0.27091	-0.172
Mof_C 	C 	0.61796	0.61796	0.23995	0.055
Mof_H 	H 	0.6341	0.6341	0.2373	0.073
Mof_C 	C 	0.60371	0.60371	0.21296	-0.116
Mof_H 	H 	0.6101	0.6101	0.1918	0.07
Mof_C 	C 	0.58005	0.58005	0.21691	0.058
Mof_H 	H 	0.5703	0.5703	0.1985	0.024
Mof_C 	C 	0.5447	0.5447	0.2531	0.452
Mof_Fe	Fe	0.62921	0.12921	0.81316	0.942
Mof_O 	O 	0.5333	0.0333	0.729	-0.43
Mof_O 	O 	0.5396	0.0396	0.7806	-0.294
Mof_C 	C 	0.57061	0.07061	0.7479	-0.14
Mof_C 	C 	0.58488	0.08488	0.77486	0.072
Mof_H 	H 	0.57845	0.07845	0.796	0.037
Mof_N 	N 	0.60855	0.10855	0.77091	-0.172
Mof_C 	C 	0.61796	0.11796	0.73995	0.055
Mof_H 	H 	0.6341	0.1341	0.7373	0.073
Mof_C 	C 	0.60371	0.10371	0.71296	-0.117
Mof_H 	H 	0.6101	0.1101	0.6918	0.07
Mof_C 	C 	0.58005	0.08005	0.71691	0.058
Mof_H 	H 	0.5703	0.0703	0.6985	0.023
Mof_C 	C 	0.5447	0.0447	0.7531	0.451
Mof_Fe	Fe	0.12921	0.62921	0.81316	0.942
Mof_O 	O 	0.0333	0.5333	0.729	-0.43
Mof_O 	O 	0.0396	0.5396	0.7806	-0.294
Mof_C 	C 	0.07061	0.57061	0.7479	-0.14
Mof_C 	C 	0.08488	0.58488	0.77486	0.072
Mof_H 	H 	0.07845	0.57845	0.796	0.037
Mof_N 	N 	0.10855	0.60855	0.77091	-0.172
Mof_C 	C 	0.11796	0.61796	0.73995	0.055
Mof_H 	H 	0.1341	0.6341	0.7373	0.073
Mof_C 	C 	0.10371	0.60371	0.71296	-0.117
Mof_H 	H 	0.1101	0.6101	0.6918	0.07
Mof_C 	C 	0.08005	0.58005	0.71691	0.058
Mof_H 	H 	0.0703	0.5703	0.6985	0.023
Mof_C 	C 	0.0447	0.5447	0.7531	0.451
Mof_Fe	Fe	0.12921	0.12921	0.31316	0.942
Mof_O 	O 	0.0333	0.0333	0.229	-0.431
Mof_O 	O 	0.0396	0.0396	0.2806	-0.295
Mof_C 	C 	0.07061	0.07061	0.2479	-0.141
Mof_C 	C 	0.08488	0.08488	0.27486	0.071
Mof_H 	H 	0.07845	0.07845	0.296	0.037
Mof_N 	N 	0.10855	0.10855	0.27091	-0.172
Mof_C 	C 	0.11796	0.11796	0.23995	0.054
Mof_H 	H 	0.1341	0.1341	0.2373	0.073
Mof_C 	C 	0.10371	0.10371	0.21296	-0.117
Mof_H 	H 	0.1101	0.1101	0.1918	0.069
Mof_C 	C 	0.08005	0.08005	0.21691	0.058
Mof_H 	H 	0.0703	0.0703	0.1985	0.023
Mof_C 	C 	0.0447	0.0447	0.2531	0.451
Mof_Fe	Fe	0.37079	0.37079	0.31316	0.942
Mof_O 	O 	0.4667	0.4667	0.229	-0.43
Mof_O 	O 	0.4604	0.4604	0.2806	-0.293
Mof_C 	C 	0.42939	0.42939	0.2479	-0.14
Mof_C 	C 	0.41512	0.41512	0.27486	0.072
Mof_H 	H 	0.42155	0.42155	0.296	0.037
Mof_N 	N 	0.39145	0.39145	0.27091	-0.172
Mof_C 	C 	0.38204	0.38204	0.23995	0.055
Mof_H 	H 	0.3659	0.3659	0.2373	0.073
Mof_C 	C 	0.39629	0.39629	0.21296	-0.116
Mof_H 	H 	0.3899	0.3899	0.1918	0.07
Mof_C 	C 	0.41995	0.41995	0.21691	0.058
Mof_H 	H 	0.4297	0.4297	0.1985	0.024
Mof_C 	C 	0.4553	0.4553	0.2531	0.452
Mof_Fe	Fe	0.37079	0.87079	0.81316	0.943
Mof_O 	O 	0.4667	0.9667	0.729	-0.427
Mof_O 	O 	0.4604	0.9604	0.7806	-0.291
Mof_C 	C 	0.42939	0.92939	0.7479	-0.139
Mof_C 	C 	0.41512	0.91512	0.77486	0.071
Mof_H 	H 	0.42155	0.92155	0.796	0.038
Mof_N 	N 	0.39145	0.89145	0.77091	-0.172
Mof_C 	C 	0.38204	0.88204	0.73995	0.055
Mof_H 	H 	0.3659	0.8659	0.7373	0.073
Mof_C 	C 	0.39629	0.89629	0.71296	-0.116
Mof_H 	H 	0.3899	0.8899	0.6918	0.07
Mof_C 	C 	0.41995	0.91995	0.71691	0.057
Mof_H 	H 	0.4297	0.9297	0.6985	0.025
Mof_C 	C 	0.4553	0.9553	0.7531	0.45
Mof_Fe	Fe	0.87079	0.37079	0.81316	0.943
Mof_O 	O 	0.9667	0.4667	0.729	-0.427
Mof_O 	O 	0.9604	0.4604	0.7806	-0.291
Mof_C 	C 	0.92939	0.42939	0.7479	-0.139
Mof_C 	C 	0.91512	0.41512	0.77486	0.071
Mof_H 	H 	0.92155	0.42155	0.796	0.038
Mof_N 	N 	0.89145	0.39145	0.77091	-0.172
Mof_C 	C 	0.88204	0.38204	0.73995	0.055
Mof_H 	H 	0.8659	0.3659	0.7373	0.073
Mof_C 	C 	0.89629	0.39629	0.71296	-0.116
Mof_H 	H 	0.8899	0.3899	0.6918	0.07
Mof_C 	C 	0.91996	0.41995	0.71691	0.057
Mof_H 	H 	0.9297	0.4297	0.6985	0.025
Mof_C 	C 	0.9553	0.4553	0.7531	0.45
Mof_Fe	Fe	0.87079	0.87079	0.31316	0.943
Mof_O 	O 	0.9667	0.9667	0.229	-0.424
Mof_O 	O 	0.9604	0.9604	0.2806	-0.289
Mof_C 	C 	0.92939	0.92939	0.2479	-0.138
Mof_C 	C 	0.91512	0.91512	0.27486	0.071
Mof_H 	H 	0.92155	0.92155	0.296	0.038
Mof_N 	N 	0.89145	0.89145	0.27091	-0.171
Mof_C 	C 	0.88204	0.88204	0.23995	0.055
Mof_H 	H 	0.8659	0.8659	0.2373	0.073
Mof_C 	C 	0.89629	0.89629	0.21296	-0.115
Mof_H 	H 	0.8899	0.8899	0.1918	0.07
Mof_C 	C 	0.91996	0.91995	0.21691	0.057
Mof_H 	H 	0.9297	0.9297	0.1985	0.025
Mof_C 	C 	0.9553	0.9553	0.2531	0.45
Mof_Fe	Fe	0.62921	0.37079	0.68684	0.942
Mof_O 	O 	0.5333	0.4667	0.771	-0.43
Mof_O 	O 	0.5396	0.4604	0.7194	-0.293
Mof_C 	C 	0.57061	0.42939	0.7521	-0.14
Mof_C 	C 	0.58488	0.41512	0.72514	0.072
Mof_H 	H 	0.57845	0.42155	0.704	0.037
Mof_N 	N 	0.60855	0.39145	0.72909	-0.172
Mof_C 	C 	0.61796	0.38204	0.76005	0.055
Mof_H 	H 	0.6341	0.3659	0.7627	0.073
Mof_C 	C 	0.60371	0.39629	0.78704	-0.116
Mof_H 	H 	0.6101	0.3899	0.8082	0.07
Mof_C 	C 	0.58005	0.41995	0.78309	0.058
Mof_H 	H 	0.5703	0.4297	0.8015	0.024
Mof_C 	C 	0.5447	0.4553	0.7469	0.452
Mof_Fe	Fe	0.62921	0.87079	0.18684	0.943
Mof_O 	O 	0.5333	0.9667	0.271	-0.427
Mof_O 	O 	0.5396	0.9604	0.2194	-0.291
Mof_C 	C 	0.57061	0.92939	0.2521	-0.139
Mof_C 	C 	0.58488	0.91512	0.22514	0.072
Mof_H 	H 	0.57845	0.92155	0.204	0.038
Mof_N 	N 	0.60855	0.89145	0.22909	-0.172
Mof_C 	C 	0.61796	0.88204	0.26005	0.055
Mof_H 	H 	0.6341	0.8659	0.2627	0.073
Mof_C 	C 	0.60371	0.89629	0.28704	-0.116
Mof_H 	H 	0.6101	0.8899	0.3082	0.07
Mof_C 	C 	0.58005	0.91995	0.28309	0.058
Mof_H 	H 	0.5703	0.9297	0.3015	0.025
Mof_C 	C 	0.5447	0.9553	0.2469	0.451
Mof_Fe	Fe	0.12921	0.37079	0.18684	0.942
Mof_O 	O 	0.0333	0.4667	0.271	-0.43
Mof_O 	O 	0.0396	0.4604	0.2194	-0.294
Mof_C 	C 	0.07061	0.42939	0.2521	-0.14
Mof_C 	C 	0.08488	0.41512	0.22514	0.072
Mof_H 	H 	0.07845	0.42155	0.204	0.037
Mof_N 	N 	0.10855	0.39145	0.22909	-0.172
Mof_C 	C 	0.11796	0.38204	0.26005	0.055
Mof_H 	H 	0.1341	0.3659	0.2627	0.073
Mof_C 	C 	0.10371	0.39629	0.28704	-0.117
Mof_H 	H 	0.1101	0.3899	0.3082	0.07
Mof_C 	C 	0.08005	0.41995	0.28309	0.058
Mof_H 	H 	0.0703	0.4297	0.3015	0.023
Mof_C 	C 	0.0447	0.4553	0.2469	0.451
Mof_Fe	Fe	0.12921	0.87079	0.68684	0.942
Mof_O 	O 	0.0333	0.9667	0.771	-0.427
Mof_O 	O 	0.0396	0.9604	0.7194	-0.292
Mof_C 	C 	0.07061	0.92939	0.7521	-0.139
Mof_C 	C 	0.08488	0.91512	0.72514	0.071
Mof_H 	H 	0.07845	0.92155	0.704	0.037
Mof_N 	N 	0.10855	0.89145	0.72909	-0.172
Mof_C 	C 	0.11796	0.88204	0.76005	0.055
Mof_H 	H 	0.1341	0.8659	0.7627	0.073
Mof_C 	C 	0.10371	0.89629	0.78704	-0.116
Mof_H 	H 	0.1101	0.8899	0.8082	0.07
Mof_C 	C 	0.08005	0.91995	0.78309	0.057
Mof_H 	H 	0.0703	0.9297	0.8015	0.024
Mof_C 	C 	0.0447	0.9553	0.7469	0.45
Mof_Fe	Fe	0.37079	0.68684	0.37079	0.942
Mof_O 	O 	0.4667	0.771	0.4667	-0.43
Mof_O 	O 	0.4604	0.7194	0.4604	-0.293
Mof_C 	C 	0.42939	0.7521	0.42939	-0.14
Mof_C 	C 	0.41512	0.72514	0.41512	0.072
Mof_H 	H 	0.42155	0.704	0.42155	0.037
Mof_N 	N 	0.39145	0.72909	0.39145	-0.172
Mof_C 	C 	0.38204	0.76005	0.38204	0.055
Mof_H 	H 	0.3659	0.7627	0.3659	0.073
Mof_C 	C 	0.39629	0.78704	0.39629	-0.116
Mof_H 	H 	0.3899	0.8082	0.3899	0.07
Mof_C 	C 	0.41995	0.78309	0.41995	0.058
Mof_H 	H 	0.4297	0.8015	0.4297	0.024
Mof_C 	C 	0.4553	0.7469	0.4553	0.452
Mof_Fe	Fe	0.37079	0.18684	0.87079	0.943
Mof_O 	O 	0.4667	0.271	0.9667	-0.427
Mof_O 	O 	0.4604	0.2194	0.9604	-0.291
Mof_C 	C 	0.42939	0.2521	0.92939	-0.139
Mof_C 	C 	0.41512	0.22514	0.91512	0.072
Mof_H 	H 	0.42155	0.204	0.92155	0.038
Mof_N 	N 	0.39145	0.22909	0.89145	-0.172
Mof_C 	C 	0.38204	0.26005	0.88204	0.055
Mof_H 	H 	0.3659	0.2627	0.8659	0.073
Mof_C 	C 	0.39629	0.28704	0.89629	-0.116
Mof_H 	H 	0.3899	0.3082	0.8899	0.07
Mof_C 	C 	0.41995	0.28309	0.91995	0.058
Mof_H 	H 	0.4297	0.3015	0.9297	0.025
Mof_C 	C 	0.4553	0.2469	0.9553	0.451
Mof_Fe	Fe	0.87079	0.68684	0.87079	0.943
Mof_O 	O 	0.9667	0.771	0.9667	-0.424
Mof_O 	O 	0.9604	0.7194	0.9604	-0.289
Mof_C 	C 	0.92939	0.7521	0.92939	-0.138
Mof_C 	C 	0.91512	0.72514	0.91512	0.071
Mof_H 	H 	0.92155	0.704	0.92155	0.038
Mof_N 	N 	0.89145	0.72909	0.89145	-0.171
Mof_C 	C 	0.88204	0.76005	0.88204	0.055
Mof_H 	H 	0.8659	0.7627	0.8659	0.073
Mof_C 	C 	0.89629	0.78704	0.89629	-0.115
Mof_H 	H 	0.8899	0.8082	0.8899	0.07
Mof_C 	C 	0.91996	0.78309	0.91995	0.057
Mof_H 	H 	0.9297	0.8015	0.9297	0.025
Mof_C 	C 	0.9553	0.7469	0.9553	0.449
Mof_Fe	Fe	0.87079	0.18684	0.37079	0.943
Mof_O 	O 	0.9667	0.271	0.4667	-0.427
Mof_O 	O 	0.9604	0.2194	0.4604	-0.291
Mof_C 	C 	0.92939	0.2521	0.42939	-0.139
Mof_C 	C 	0.91512	0.22514	0.41512	0.072
Mof_H 	H 	0.92155	0.204	0.42155	0.038
Mof_N 	N 	0.89145	0.22909	0.39145	-0.172
Mof_C 	C 	0.88204	0.26005	0.38204	0.055
Mof_H 	H 	0.8659	0.2627	0.3659	0.073
Mof_C 	C 	0.89629	0.28704	0.39629	-0.116
Mof_H 	H 	0.8899	0.3082	0.3899	0.07
Mof_C 	C 	0.91996	0.28309	0.41995	0.058
Mof_H 	H 	0.9297	0.3015	0.4297	0.025
Mof_C 	C 	0.9553	0.2469	0.4553	0.451
Mof_Fe	Fe	0.62921	0.31316	0.37079	0.942
Mof_O 	O 	0.5333	0.229	0.4667	-0.43
Mof_O 	O 	0.5396	0.2806	0.4604	-0.293
Mof_C 	C 	0.57061	0.2479	0.42939	-0.14
Mof_C 	C 	0.58488	0.27486	0.41512	0.072
Mof_H 	H 	0.57845	0.296	0.42155	0.037
Mof_N 	N 	0.60855	0.27091	0.39145	-0.172
Mof_C 	C 	0.61796	0.23995	0.38204	0.055
Mof_H 	H 	0.6341	0.2373	0.3659	0.073
Mof_C 	C 	0.60371	0.21296	0.39629	-0.116
Mof_H 	H 	0.6101	0.1918	0.3899	0.07
Mof_C 	C 	0.58005	0.21691	0.41995	0.058
Mof_H 	H 	0.5703	0.1985	0.4297	0.024
Mof_C 	C 	0.5447	0.2531	0.4553	0.452
Mof_Fe	Fe	0.62921	0.81316	0.87079	0.943
Mof_O 	O 	0.5333	0.729	0.9667	-0.427
Mof_O 	O 	0.5396	0.7806	0.9604	-0.291
Mof_C 	C 	0.57061	0.7479	0.92939	-0.139
Mof_C 	C 	0.58488	0.77486	0.91512	0.071
Mof_H 	H 	0.57845	0.796	0.92155	0.038
Mof_N 	N 	0.60855	0.77091	0.89145	-0.172
Mof_C 	C 	0.61796	0.73995	0.88204	0.055
Mof_H 	H 	0.6341	0.7373	0.8659	0.073
Mof_C 	C 	0.60371	0.71296	0.89629	-0.116
Mof_H 	H 	0.6101	0.6918	0.8899	0.07
Mof_C 	C 	0.58005	0.71691	0.91995	0.057
Mof_H 	H 	0.5703	0.6985	0.9297	0.025
Mof_C 	C 	0.5447	0.7531	0.9553	0.45
Mof_Fe	Fe	0.12921	0.31316	0.87079	0.942
Mof_O 	O 	0.0333	0.229	0.9667	-0.427
Mof_O 	O 	0.0396	0.2806	0.9604	-0.292
Mof_C 	C 	0.07061	0.2479	0.92939	-0.14
Mof_C 	C 	0.08488	0.27486	0.91512	0.071
Mof_H 	H 	0.07845	0.296	0.92155	0.037
Mof_N 	N 	0.10855	0.27091	0.89145	-0.172
Mof_C 	C 	0.11796	0.23995	0.88204	0.055
Mof_H 	H 	0.1341	0.2373	0.8659	0.073
Mof_C 	C 	0.10371	0.21296	0.89629	-0.116
Mof_H 	H 	0.1101	0.1918	0.8899	0.07
Mof_C 	C 	0.08005	0.21691	0.91995	0.057
Mof_H 	H 	0.0703	0.1985	0.9297	0.024
Mof_C 	C 	0.0447	0.2531	0.9553	0.45
Mof_Fe	Fe	0.12921	0.81316	0.37079	0.942
Mof_O 	O 	0.0333	0.729	0.4667	-0.43
Mof_O 	O 	0.0396	0.7806	0.4604	-0.294
Mof_C 	C 	0.07061	0.7479	0.42939	-0.14
Mof_C 	C 	0.08488	0.77486	0.41512	0.072
Mof_H 	H 	0.07845	0.796	0.42155	0.037
Mof_N 	N 	0.10855	0.77091	0.39145	-0.172
Mof_C 	C 	0.11796	0.73995	0.38204	0.055
Mof_H 	H 	0.1341	0.7373	0.3659	0.073
Mof_C 	C 	0.10371	0.71296	0.39629	-0.117
Mof_H 	H 	0.1101	0.6918	0.3899	0.07
Mof_C 	C 	0.08005	0.71691	0.41995	0.058
Mof_H 	H 	0.0703	0.6985	0.4297	0.023
Mof_C 	C 	0.0447	0.7531	0.4553	0.451
Mof_Fe	Fe	0.37079	0.31316	0.62921	0.942
Mof_O 	O 	0.4667	0.229	0.5333	-0.43
Mof_O 	O 	0.4604	0.2806	0.5396	-0.293
Mof_C 	C 	0.42939	0.2479	0.57061	-0.14
Mof_C 	C 	0.41512	0.27486	0.58488	0.072
Mof_H 	H 	0.42155	0.296	0.57845	0.037
Mof_N 	N 	0.39145	0.27091	0.60855	-0.172
Mof_C 	C 	0.38204	0.23995	0.61796	0.055
Mof_H 	H 	0.3659	0.2373	0.6341	0.073
Mof_C 	C 	0.39629	0.21296	0.60371	-0.116
Mof_H 	H 	0.3899	0.1918	0.6101	0.07
Mof_C 	C 	0.41995	0.21691	0.58005	0.058
Mof_H 	H 	0.4297	0.1985	0.5703	0.024
Mof_C 	C 	0.4553	0.2531	0.5447	0.452
Mof_Fe	Fe	0.37079	0.81316	0.12921	0.942
Mof_O 	O 	0.4667	0.729	0.0333	-0.43
Mof_O 	O 	0.4604	0.7806	0.0396	-0.294
Mof_C 	C 	0.42939	0.7479	0.07061	-0.14
Mof_C 	C 	0.41512	0.77486	0.08488	0.072
Mof_H 	H 	0.42155	0.796	0.07845	0.037
Mof_N 	N 	0.39145	0.77091	0.10855	-0.172
Mof_C 	C 	0.38204	0.73995	0.11796	0.055
Mof_H 	H 	0.3659	0.7373	0.1341	0.073
Mof_C 	C 	0.39629	0.71296	0.10371	-0.117
Mof_H 	H 	0.3899	0.6918	0.1101	0.07
Mof_C 	C 	0.41995	0.71691	0.08005	0.058
Mof_H 	H 	0.4297	0.6985	0.0703	0.023
Mof_C 	C 	0.4553	0.7531	0.0447	0.451
Mof_Fe	Fe	0.87079	0.31316	0.12921	0.942
Mof_O 	O 	0.9667	0.229	0.0333	-0.427
Mof_O 	O 	0.9604	0.2806	0.0396	-0.292
Mof_C 	C 	0.92939	0.2479	0.07061	-0.14
Mof_C 	C 	0.91512	0.27486	0.08488	0.071
Mof_H 	H 	0.92155	0.296	0.07845	0.037
Mof_N 	N 	0.89145	0.27091	0.10855	-0.172
Mof_C 	C 	0.88204	0.23995	0.11796	0.055
Mof_H 	H 	0.8659	0.2373	0.1341	0.073
Mof_C 	C 	0.89629	0.21296	0.10371	-0.116
Mof_H 	H 	0.8899	0.1918	0.1101	0.07
Mof_C 	C 	0.91996	0.21691	0.08005	0.057
Mof_H 	H 	0.9297	0.1985	0.0703	0.024
Mof_C 	C 	0.9553	0.2531	0.0447	0.45
Mof_Fe	Fe	0.87079	0.81316	0.62921	0.943
Mof_O 	O 	0.9667	0.729	0.5333	-0.427
Mof_O 	O 	0.9604	0.7806	0.5396	-0.291
Mof_C 	C 	0.92939	0.7479	0.57061	-0.139
Mof_C 	C 	0.91512	0.77486	0.58488	0.071
Mof_H 	H 	0.92155	0.796	0.57845	0.038
Mof_N 	N 	0.89145	0.77091	0.60855	-0.172
Mof_C 	C 	0.88204	0.73995	0.61796	0.055
Mof_H 	H 	0.8659	0.7373	0.6341	0.073
Mof_C 	C 	0.89629	0.71296	0.60371	-0.116
Mof_H 	H 	0.8899	0.6918	0.6101	0.07
Mof_C 	C 	0.91996	0.71691	0.58005	0.057
Mof_H 	H 	0.9297	0.6985	0.5703	0.025
Mof_C 	C 	0.9553	0.7531	0.5447	0.45
Mof_Fe	Fe	0.62921	0.68684	0.62921	0.942
Mof_O 	O 	0.5333	0.771	0.5333	-0.43
Mof_O 	O 	0.5396	0.7194	0.5396	-0.293
Mof_C 	C 	0.57061	0.7521	0.57061	-0.14
Mof_C 	C 	0.58488	0.72514	0.58488	0.072
Mof_H 	H 	0.57845	0.704	0.57845	0.037
Mof_N 	N 	0.60855	0.72909	0.60855	-0.172
Mof_C 	C 	0.61796	0.76005	0.61796	0.055
Mof_H 	H 	0.6341	0.7627	0.6341	0.073
Mof_C 	C 	0.60371	0.78704	0.60371	-0.116
Mof_H 	H 	0.6101	0.8082	0.6101	0.07
Mof_C 	C 	0.58005	0.78309	0.58005	0.058
Mof_H 	H 	0.5703	0.8015	0.5703	0.024
Mof_C 	C 	0.5447	0.7469	0.5447	0.452
Mof_Fe	Fe	0.62921	0.18684	0.12921	0.942
Mof_O 	O 	0.5333	0.271	0.0333	-0.43
Mof_O 	O 	0.5396	0.2194	0.0396	-0.294
Mof_C 	C 	0.57061	0.2521	0.07061	-0.14
Mof_C 	C 	0.58488	0.22514	0.08488	0.072
Mof_H 	H 	0.57845	0.204	0.07845	0.037
Mof_N 	N 	0.60855	0.22909	0.10855	-0.172
Mof_C 	C 	0.61796	0.26005	0.11796	0.055
Mof_H 	H 	0.6341	0.2627	0.1341	0.073
Mof_C 	C 	0.60371	0.28704	0.10371	-0.117
Mof_H 	H 	0.6101	0.3082	0.1101	0.07
Mof_C 	C 	0.58005	0.28309	0.08005	0.058
Mof_H 	H 	0.5703	0.3015	0.0703	0.023
Mof_C 	C 	0.5447	0.2469	0.0447	0.451
Mof_Fe	Fe	0.12921	0.68684	0.12921	0.942
Mof_O 	O 	0.0333	0.771	0.0333	-0.43
Mof_O 	O 	0.0396	0.7194	0.0396	-0.295
Mof_C 	C 	0.07061	0.7521	0.07061	-0.141
Mof_C 	C 	0.08488	0.72514	0.08488	0.071
Mof_H 	H 	0.07845	0.704	0.07845	0.037
Mof_N 	N 	0.10855	0.72909	0.10855	-0.172
Mof_C 	C 	0.11796	0.76005	0.11796	0.054
Mof_H 	H 	0.1341	0.7627	0.1341	0.073
Mof_C 	C 	0.10371	0.78704	0.10371	-0.117
Mof_H 	H 	0.1101	0.8082	0.1101	0.07
Mof_C 	C 	0.08005	0.78309	0.08005	0.058
Mof_H 	H 	0.0703	0.8015	0.0703	0.023
Mof_C 	C 	0.0447	0.7469	0.0447	0.451
Mof_Fe	Fe	0.12921	0.18684	0.62921	0.942
Mof_O 	O 	0.0333	0.271	0.5333	-0.43
Mof_O 	O 	0.0396	0.2194	0.5396	-0.294
Mof_C 	C 	0.07061	0.2521	0.57061	-0.14
Mof_C 	C 	0.08488	0.22514	0.58488	0.072
Mof_H 	H 	0.07845	0.204	0.57845	0.037
Mof_N 	N 	0.10855	0.22909	0.60855	-0.172
Mof_C 	C 	0.11796	0.26005	0.61796	0.055
Mof_H 	H 	0.1341	0.2627	0.6341	0.073
Mof_C 	C 	0.10371	0.28704	0.60371	-0.117
Mof_H 	H 	0.1101	0.3082	0.6101	0.07
Mof_C 	C 	0.08005	0.28309	0.58005	0.058
Mof_H 	H 	0.0703	0.3015	0.5703	0.023
Mof_C 	C 	0.0447	0.2469	0.5447	0.451
Mof_Fe	Fe	0.68684	0.62921	0.62921	0.942
Mof_O 	O 	0.771	0.5333	0.5333	-0.43
Mof_O 	O 	0.7194	0.5396	0.5396	-0.293
Mof_C 	C 	0.7521	0.57061	0.57061	-0.14
Mof_C 	C 	0.72514	0.58488	0.58488	0.072
Mof_H 	H 	0.704	0.57845	0.57845	0.037
Mof_N 	N 	0.72909	0.60855	0.60855	-0.172
Mof_C 	C 	0.76005	0.61796	0.61796	0.055
Mof_H 	H 	0.7627	0.6341	0.6341	0.073
Mof_C 	C 	0.78704	0.60371	0.60371	-0.116
Mof_H 	H 	0.8082	0.6101	0.6101	0.07
Mof_C 	C 	0.78309	0.58005	0.58005	0.058
Mof_H 	H 	0.8015	0.5703	0.5703	0.024
Mof_C 	C 	0.7469	0.5447	0.5447	0.452
Mof_Fe	Fe	0.68684	0.12921	0.12921	0.942
Mof_O 	O 	0.771	0.0333	0.0333	-0.43
Mof_O 	O 	0.7194	0.0396	0.0396	-0.295
Mof_C 	C 	0.7521	0.07061	0.07061	-0.141
Mof_C 	C 	0.72514	0.08488	0.08488	0.071
Mof_H 	H 	0.704	0.07845	0.07845	0.037
Mof_N 	N 	0.72909	0.10855	0.10855	-0.172
Mof_C 	C 	0.76005	0.11796	0.11796	0.054
Mof_H 	H 	0.7627	0.1341	0.1341	0.073
Mof_C 	C 	0.78704	0.10371	0.10371	-0.117
Mof_H 	H 	0.8082	0.1101	0.1101	0.07
Mof_C 	C 	0.78309	0.08005	0.08005	0.058
Mof_H 	H 	0.8015	0.0703	0.0703	0.023
Mof_C 	C 	0.7469	0.0447	0.0447	0.451
Mof_Fe	Fe	0.18684	0.62921	0.12921	0.942
Mof_O 	O 	0.271	0.5333	0.0333	-0.43
Mof_O 	O 	0.2194	0.5396	0.0396	-0.294
Mof_C 	C 	0.2521	0.57061	0.07061	-0.14
Mof_C 	C 	0.22514	0.58488	0.08488	0.072
Mof_H 	H 	0.204	0.57845	0.07845	0.037
Mof_N 	N 	0.22909	0.60855	0.10855	-0.172
Mof_C 	C 	0.26005	0.61796	0.11796	0.055
Mof_H 	H 	0.2627	0.6341	0.1341	0.073
Mof_C 	C 	0.28704	0.60371	0.10371	-0.117
Mof_H 	H 	0.3082	0.6101	0.1101	0.07
Mof_C 	C 	0.28309	0.58005	0.08005	0.058
Mof_H 	H 	0.3015	0.5703	0.0703	0.023
Mof_C 	C 	0.2469	0.5447	0.0447	0.451
Mof_Fe	Fe	0.18684	0.12921	0.62921	0.942
Mof_O 	O 	0.271	0.0333	0.5333	-0.43
Mof_O 	O 	0.2194	0.0396	0.5396	-0.294
Mof_C 	C 	0.2521	0.07061	0.57061	-0.14
Mof_C 	C 	0.22514	0.08488	0.58488	0.072
Mof_H 	H 	0.204	0.07845	0.57845	0.037
Mof_N 	N 	0.22909	0.10855	0.60855	-0.172
Mof_C 	C 	0.26005	0.11796	0.61796	0.055
Mof_H 	H 	0.2627	0.1341	0.6341	0.073
Mof_C 	C 	0.28704	0.10371	0.60371	-0.117
Mof_H 	H 	0.3082	0.1101	0.6101	0.07
Mof_C 	C 	0.28309	0.08005	0.58005	0.058
Mof_H 	H 	0.3015	0.0703	0.5703	0.023
Mof_C 	C 	0.2469	0.0447	0.5447	0.451
Mof_Fe	Fe	0.31316	0.62921	0.37079	0.942
Mof_O 	O 	0.229	0.5333	0.4667	-0.43
Mof_O 	O 	0.2806	0.5396	0.4604	-0.293
Mof_C 	C 	0.2479	0.57061	0.42939	-0.14
Mof_C 	C 	0.27486	0.58488	0.41512	0.072
Mof_H 	H 	0.296	0.57845	0.42155	0.037
Mof_N 	N 	0.27091	0.60855	0.39145	-0.172
Mof_C 	C 	0.23995	0.61796	0.38204	0.055
Mof_H 	H 	0.2373	0.6341	0.3659	0.073
Mof_C 	C 	0.21296	0.60371	0.39629	-0.116
Mof_H 	H 	0.1918	0.6101	0.3899	0.07
Mof_C 	C 	0.21691	0.58005	0.41995	0.058
Mof_H 	H 	0.1985	0.5703	0.4297	0.024
Mof_C 	C 	0.2531	0.5447	0.4553	0.452
Mof_Fe	Fe	0.31316	0.12921	0.87079	0.942
Mof_O 	O 	0.229	0.0333	0.9667	-0.427
Mof_O 	O 	0.2806	0.0396	0.9604	-0.292
Mof_C 	C 	0.2479	0.07061	0.92939	-0.14
Mof_C 	C 	0.27486	0.08488	0.91512	0.071
Mof_H 	H 	0.296	0.07845	0.92155	0.037
Mof_N 	N 	0.27091	0.10855	0.89145	-0.172
Mof_C 	C 	0.23995	0.11796	0.88204	0.055
Mof_H 	H 	0.2373	0.1341	0.8659	0.073
Mof_C 	C 	0.21296	0.10371	0.89629	-0.116
Mof_H 	H 	0.1918	0.1101	0.8899	0.07
Mof_C 	C 	0.21691	0.08005	0.91996	0.057
Mof_H 	H 	0.1985	0.0703	0.9297	0.024
Mof_C 	C 	0.2531	0.0447	0.9553	0.45
Mof_Fe	Fe	0.81316	0.62921	0.87079	0.943
Mof_O 	O 	0.729	0.5333	0.9667	-0.427
Mof_O 	O 	0.7806	0.5396	0.9604	-0.291
Mof_C 	C 	0.7479	0.57061	0.92939	-0.139
Mof_C 	C 	0.77486	0.58488	0.91512	0.071
Mof_H 	H 	0.796	0.57845	0.92155	0.038
Mof_N 	N 	0.77091	0.60855	0.89145	-0.172
Mof_C 	C 	0.73995	0.61796	0.88204	0.055
Mof_H 	H 	0.7373	0.6341	0.8659	0.073
Mof_C 	C 	0.71296	0.60371	0.89629	-0.116
Mof_H 	H 	0.6918	0.6101	0.8899	0.07
Mof_C 	C 	0.71691	0.58005	0.91996	0.057
Mof_H 	H 	0.6985	0.5703	0.9297	0.025
Mof_C 	C 	0.7531	0.5447	0.9553	0.45
Mof_Fe	Fe	0.81316	0.12921	0.37079	0.942
Mof_O 	O 	0.729	0.0333	0.4667	-0.43
Mof_O 	O 	0.7806	0.0396	0.4604	-0.294
Mof_C 	C 	0.7479	0.07061	0.42939	-0.14
Mof_C 	C 	0.77486	0.08488	0.41512	0.072
Mof_H 	H 	0.796	0.07845	0.42155	0.037
Mof_N 	N 	0.77091	0.10855	0.39145	-0.172
Mof_C 	C 	0.73995	0.11796	0.38204	0.055
Mof_H 	H 	0.7373	0.1341	0.3659	0.073
Mof_C 	C 	0.71296	0.10371	0.39629	-0.117
Mof_H 	H 	0.6918	0.1101	0.3899	0.07
Mof_C 	C 	0.71691	0.08005	0.41995	0.058
Mof_H 	H 	0.6985	0.0703	0.4297	0.023
Mof_C 	C 	0.7531	0.0447	0.4553	0.451
Mof_Fe	Fe	0.31316	0.37079	0.62921	0.942
Mof_O 	O 	0.229	0.4667	0.5333	-0.43
Mof_O 	O 	0.2806	0.4604	0.5396	-0.293
Mof_C 	C 	0.2479	0.42939	0.57061	-0.14
Mof_C 	C 	0.27486	0.41512	0.58488	0.072
Mof_H 	H 	0.296	0.42155	0.57845	0.037
Mof_N 	N 	0.27091	0.39145	0.60855	-0.172
Mof_C 	C 	0.23995	0.38204	0.61796	0.055
Mof_H 	H 	0.2373	0.3659	0.6341	0.073
Mof_C 	C 	0.21296	0.39629	0.60371	-0.116
Mof_H 	H 	0.1918	0.3899	0.6101	0.07
Mof_C 	C 	0.21691	0.41995	0.58005	0.058
Mof_H 	H 	0.1985	0.4297	0.5703	0.024
Mof_C 	C 	0.2531	0.4553	0.5447	0.452
Mof_Fe	Fe	0.31316	0.87079	0.12921	0.942
Mof_O 	O 	0.229	0.9667	0.0333	-0.427
Mof_O 	O 	0.2806	0.9604	0.0396	-0.292
Mof_C 	C 	0.2479	0.92939	0.07061	-0.14
Mof_C 	C 	0.27486	0.91512	0.08488	0.071
Mof_H 	H 	0.296	0.92155	0.07845	0.037
Mof_N 	N 	0.27091	0.89145	0.10855	-0.172
Mof_C 	C 	0.23995	0.88204	0.11796	0.055
Mof_H 	H 	0.2373	0.8659	0.1341	0.073
Mof_C 	C 	0.21296	0.89629	0.10371	-0.116
Mof_H 	H 	0.1918	0.8899	0.1101	0.07
Mof_C 	C 	0.21691	0.91995	0.08005	0.057
Mof_H 	H 	0.1985	0.9297	0.0703	0.024
Mof_C 	C 	0.2531	0.9553	0.0447	0.45
Mof_Fe	Fe	0.81316	0.37079	0.12921	0.942
Mof_O 	O 	0.729	0.4667	0.0333	-0.43
Mof_O 	O 	0.7806	0.4604	0.0396	-0.294
Mof_C 	C 	0.7479	0.42939	0.07061	-0.14
Mof_C 	C 	0.77486	0.41512	0.08488	0.072
Mof_H 	H 	0.796	0.42155	0.07845	0.037
Mof_N 	N 	0.77091	0.39145	0.10855	-0.172
Mof_C 	C 	0.73995	0.38204	0.11796	0.055
Mof_H 	H 	0.7373	0.3659	0.1341	0.073
Mof_C 	C 	0.71296	0.39629	0.10371	-0.117
Mof_H 	H 	0.6918	0.3899	0.1101	0.07
Mof_C 	C 	0.71691	0.41995	0.08005	0.058
Mof_H 	H 	0.6985	0.4297	0.0703	0.023
Mof_C 	C 	0.7531	0.4553	0.0447	0.451
Mof_Fe	Fe	0.81316	0.87079	0.62921	0.943
Mof_O 	O 	0.729	0.9667	0.5333	-0.427
Mof_O 	O 	0.7806	0.9604	0.5396	-0.291
Mof_C 	C 	0.7479	0.92939	0.57061	-0.139
Mof_C 	C 	0.77486	0.91512	0.58488	0.071
Mof_H 	H 	0.796	0.92155	0.57845	0.038
Mof_N 	N 	0.77091	0.89145	0.60855	-0.172
Mof_C 	C 	0.73995	0.88204	0.61796	0.055
Mof_H 	H 	0.7373	0.8659	0.6341	0.073
Mof_C 	C 	0.71296	0.89629	0.60371	-0.116
Mof_H 	H 	0.6918	0.8899	0.6101	0.07
Mof_C 	C 	0.71691	0.91995	0.58005	0.057
Mof_H 	H 	0.6985	0.9297	0.5703	0.025
Mof_C 	C 	0.7531	0.9553	0.5447	0.45
Mof_Fe	Fe	0.68684	0.37079	0.37079	0.942
Mof_O 	O 	0.771	0.4667	0.4667	-0.43
Mof_O 	O 	0.7194	0.4604	0.4604	-0.293
Mof_C 	C 	0.7521	0.42939	0.42939	-0.14
Mof_C 	C 	0.72514	0.41512	0.41512	0.072
Mof_H 	H 	0.704	0.42155	0.42155	0.037
Mof_N 	N 	0.72909	0.39145	0.39145	-0.172
Mof_C 	C 	0.76005	0.38204	0.38204	0.055
Mof_H 	H 	0.7627	0.3659	0.3659	0.073
Mof_C 	C 	0.78704	0.39629	0.39629	-0.116
Mof_H 	H 	0.8082	0.3899	0.3899	0.07
Mof_C 	C 	0.78309	0.41995	0.41995	0.058
Mof_H 	H 	0.8015	0.4297	0.4297	0.024
Mof_C 	C 	0.7469	0.4553	0.4553	0.452
Mof_Fe	Fe	0.68684	0.87079	0.87079	0.943
Mof_O 	O 	0.771	0.9667	0.9667	-0.424
Mof_O 	O 	0.7194	0.9604	0.9604	-0.289
Mof_C 	C 	0.7521	0.92939	0.92939	-0.138
Mof_C 	C 	0.72514	0.91512	0.91512	0.071
Mof_H 	H 	0.704	0.92155	0.92155	0.038
Mof_N 	N 	0.72909	0.89145	0.89145	-0.171
Mof_C 	C 	0.76005	0.88204	0.88204	0.055
Mof_H 	H 	0.7627	0.8659	0.8659	0.073
Mof_C 	C 	0.78704	0.89629	0.89629	-0.115
Mof_H 	H 	0.8082	0.8899	0.8899	0.07
Mof_C 	C 	0.78309	0.91995	0.91996	0.057
Mof_H 	H 	0.8015	0.9297	0.9297	0.025
Mof_C 	C 	0.7469	0.9553	0.9553	0.449
Mof_Fe	Fe	0.18684	0.37079	0.87079	0.943
Mof_O 	O 	0.271	0.4667	0.9667	-0.427
Mof_O 	O 	0.2194	0.4604	0.9604	-0.291
Mof_C 	C 	0.2521	0.42939	0.92939	-0.139
Mof_C 	C 	0.22514	0.41512	0.91512	0.072
Mof_H 	H 	0.204	0.42155	0.92155	0.038
Mof_N 	N 	0.22909	0.39145	0.89145	-0.172
Mof_C 	C 	0.26005	0.38204	0.88204	0.055
Mof_H 	H 	0.2627	0.3659	0.8659	0.073
Mof_C 	C 	0.28704	0.39629	0.89629	-0.116
Mof_H 	H 	0.3082	0.3899	0.8899	0.07
Mof_C 	C 	0.28309	0.41995	0.91996	0.058
Mof_H 	H 	0.3015	0.4297	0.9297	0.025
Mof_C 	C 	0.2469	0.4553	0.9553	0.451
Mof_Fe	Fe	0.18684	0.87079	0.37079	0.943
Mof_O 	O 	0.271	0.9667	0.4667	-0.427
Mof_O 	O 	0.2194	0.9604	0.4604	-0.291
Mof_C 	C 	0.2521	0.92939	0.42939	-0.139
Mof_C 	C 	0.22514	0.91512	0.41512	0.072
Mof_H 	H 	0.204	0.92155	0.42155	0.038
Mof_N 	N 	0.22909	0.89145	0.39145	-0.172
Mof_C 	C 	0.26005	0.88204	0.38204	0.055
Mof_H 	H 	0.2627	0.8659	0.3659	0.073
Mof_C 	C 	0.28704	0.89629	0.39629	-0.116
Mof_H 	H 	0.3082	0.8899	0.3899	0.07
Mof_C 	C 	0.28309	0.91995	0.41995	0.058
Mof_H 	H 	0.3015	0.9297	0.4297	0.025
Mof_C 	C 	0.2469	0.9553	0.4553	0.451
Mof_Fe	Fe	0.62921	0.37079	0.31316	0.942
Mof_O 	O 	0.5333	0.4667	0.229	-0.43
Mof_O 	O 	0.5396	0.4604	0.2806	-0.293
Mof_C 	C 	0.57061	0.42939	0.2479	-0.14
Mof_C 	C 	0.58488	0.41512	0.27486	0.072
Mof_H 	H 	0.57845	0.42155	0.296	0.037
Mof_N 	N 	0.60855	0.39145	0.27091	-0.172
Mof_C 	C 	0.61796	0.38204	0.23995	0.055
Mof_H 	H 	0.6341	0.3659	0.2373	0.073
Mof_C 	C 	0.60371	0.39629	0.21296	-0.116
Mof_H 	H 	0.6101	0.3899	0.1918	0.07
Mof_C 	C 	0.58005	0.41995	0.21691	0.058
Mof_H 	H 	0.5703	0.4297	0.1985	0.024
Mof_C 	C 	0.5447	0.4553	0.2531	0.452
Mof_Fe	Fe	0.62921	0.87079	0.81316	0.943
Mof_O 	O 	0.5333	0.9667	0.729	-0.427
Mof_O 	O 	0.5396	0.9604	0.7806	-0.291
Mof_C 	C 	0.57061	0.92939	0.7479	-0.139
Mof_C 	C 	0.58488	0.91512	0.77486	0.071
Mof_H 	H 	0.57845	0.92155	0.796	0.038
Mof_N 	N 	0.60855	0.89145	0.77091	-0.172
Mof_C 	C 	0.61796	0.88204	0.73995	0.055
Mof_H 	H 	0.6341	0.8659	0.7373	0.073
Mof_C 	C 	0.60371	0.89629	0.71296	-0.116
Mof_H 	H 	0.6101	0.8899	0.6918	0.07
Mof_C 	C 	0.58005	0.91996	0.71691	0.057
Mof_H 	H 	0.5703	0.9297	0.6985	0.025
Mof_C 	C 	0.5447	0.9553	0.7531	0.45
Mof_Fe	Fe	0.12921	0.37079	0.81316	0.942
Mof_O 	O 	0.0333	0.4667	0.729	-0.43
Mof_O 	O 	0.0396	0.4604	0.7806	-0.294
Mof_C 	C 	0.07061	0.42939	0.7479	-0.14
Mof_C 	C 	0.08488	0.41512	0.77486	0.072
Mof_H 	H 	0.07845	0.42155	0.796	0.037
Mof_N 	N 	0.10855	0.39145	0.77091	-0.172
Mof_C 	C 	0.11796	0.38204	0.73995	0.055
Mof_H 	H 	0.1341	0.3659	0.7373	0.073
Mof_C 	C 	0.10371	0.39629	0.71296	-0.117
Mof_H 	H 	0.1101	0.3899	0.6918	0.07
Mof_C 	C 	0.08005	0.41995	0.71691	0.058
Mof_H 	H 	0.0703	0.4297	0.6985	0.023
Mof_C 	C 	0.0447	0.4553	0.7531	0.451
Mof_Fe	Fe	0.12921	0.87079	0.31316	0.942
Mof_O 	O 	0.0333	0.9667	0.229	-0.427
Mof_O 	O 	0.0396	0.9604	0.2806	-0.292
Mof_C 	C 	0.07061	0.92939	0.2479	-0.14
Mof_C 	C 	0.08488	0.91512	0.27486	0.071
Mof_H 	H 	0.07845	0.92155	0.296	0.037
Mof_N 	N 	0.10855	0.89145	0.27091	-0.172
Mof_C 	C 	0.11796	0.88204	0.23995	0.055
Mof_H 	H 	0.1341	0.8659	0.2373	0.073
Mof_C 	C 	0.10371	0.89629	0.21296	-0.116
Mof_H 	H 	0.1101	0.8899	0.1918	0.07
Mof_C 	C 	0.08005	0.91996	0.21691	0.057
Mof_H 	H 	0.0703	0.9297	0.1985	0.024
Mof_C 	C 	0.0447	0.9553	0.2531	0.45
Mof_Fe	Fe	0.62921	0.62921	0.68684	0.942
Mof_O 	O 	0.5333	0.5333	0.771	-0.43
Mof_O 	O 	0.5396	0.5396	0.7194	-0.293
Mof_C 	C 	0.57061	0.57061	0.7521	-0.14
Mof_C 	C 	0.58488	0.58488	0.72514	0.072
Mof_H 	H 	0.57845	0.57845	0.704	0.037
Mof_N 	N 	0.60855	0.60855	0.72909	-0.172
Mof_C 	C 	0.61796	0.61796	0.76005	0.055
Mof_H 	H 	0.6341	0.6341	0.7627	0.073
Mof_C 	C 	0.60371	0.60371	0.78704	-0.116
Mof_H 	H 	0.6101	0.6101	0.8082	0.07
Mof_C 	C 	0.58005	0.58005	0.78309	0.058
Mof_H 	H 	0.5703	0.5703	0.8015	0.024
Mof_C 	C 	0.5447	0.5447	0.7469	0.452
Mof_Fe	Fe	0.62921	0.12921	0.18684	0.942
Mof_O 	O 	0.5333	0.0333	0.271	-0.43
Mof_O 	O 	0.5396	0.0396	0.2194	-0.294
Mof_C 	C 	0.57061	0.07061	0.2521	-0.14
Mof_C 	C 	0.58488	0.08488	0.22514	0.072
Mof_H 	H 	0.57845	0.07845	0.204	0.037
Mof_N 	N 	0.60855	0.10855	0.22909	-0.172
Mof_C 	C 	0.61796	0.11796	0.26005	0.055
Mof_H 	H 	0.6341	0.1341	0.2627	0.073
Mof_C 	C 	0.60371	0.10371	0.28704	-0.117
Mof_H 	H 	0.6101	0.1101	0.3082	0.07
Mof_C 	C 	0.58005	0.08005	0.28309	0.058
Mof_H 	H 	0.5703	0.0703	0.3015	0.023
Mof_C 	C 	0.5447	0.0447	0.2469	0.451
Mof_Fe	Fe	0.12921	0.62921	0.18684	0.942
Mof_O 	O 	0.0333	0.5333	0.271	-0.43
Mof_O 	O 	0.0396	0.5396	0.2194	-0.294
Mof_C 	C 	0.07061	0.57061	0.2521	-0.14
Mof_C 	C 	0.08488	0.58488	0.22514	0.072
Mof_H 	H 	0.07845	0.57845	0.204	0.037
Mof_N 	N 	0.10855	0.60855	0.22909	-0.172
Mof_C 	C 	0.11796	0.61796	0.26005	0.055
Mof_H 	H 	0.1341	0.6341	0.2627	0.073
Mof_C 	C 	0.10371	0.60371	0.28704	-0.117
Mof_H 	H 	0.1101	0.6101	0.3082	0.07
Mof_C 	C 	0.08005	0.58005	0.28309	0.058
Mof_H 	H 	0.0703	0.5703	0.3015	0.023
Mof_C 	C 	0.0447	0.5447	0.2469	0.451
Mof_Fe	Fe	0.12921	0.12921	0.68684	0.942
Mof_O 	O 	0.0333	0.0333	0.771	-0.43
Mof_O 	O 	0.0396	0.0396	0.7194	-0.295
Mof_C 	C 	0.07061	0.07061	0.7521	-0.141
Mof_C 	C 	0.08488	0.08488	0.72514	0.071
Mof_H 	H 	0.07845	0.07845	0.704	0.037
Mof_N 	N 	0.10855	0.10855	0.72909	-0.172
Mof_C 	C 	0.11796	0.11796	0.76005	0.054
Mof_H 	H 	0.1341	0.1341	0.7627	0.073
Mof_C 	C 	0.10371	0.10371	0.78704	-0.117
Mof_H 	H 	0.1101	0.1101	0.8082	0.07
Mof_C 	C 	0.08005	0.08005	0.78309	0.058
Mof_H 	H 	0.0703	0.0703	0.8015	0.023
Mof_C 	C 	0.0447	0.0447	0.7469	0.451
Mof_Fe	Fe	0.37079	0.37079	0.68684	0.942
Mof_O 	O 	0.4667	0.4667	0.771	-0.43
Mof_O 	O 	0.4604	0.4604	0.7194	-0.293
Mof_C 	C 	0.42939	0.42939	0.7521	-0.14
Mof_C 	C 	0.41512	0.41512	0.72514	0.072
Mof_H 	H 	0.42155	0.42155	0.704	0.037
Mof_N 	N 	0.39145	0.39145	0.72909	-0.172
Mof_C 	C 	0.38204	0.38204	0.76005	0.055
Mof_H 	H 	0.3659	0.3659	0.7627	0.073
Mof_C 	C 	0.39629	0.39629	0.78704	-0.116
Mof_H 	H 	0.3899	0.3899	0.8082	0.07
Mof_C 	C 	0.41995	0.41995	0.78309	0.058
Mof_H 	H 	0.4297	0.4297	0.8015	0.024
Mof_C 	C 	0.4553	0.4553	0.7469	0.452
Mof_Fe	Fe	0.37079	0.87079	0.18684	0.943
Mof_O 	O 	0.4667	0.9667	0.271	-0.427
Mof_O 	O 	0.4604	0.9604	0.2194	-0.291
Mof_C 	C 	0.42939	0.92939	0.2521	-0.139
Mof_C 	C 	0.41512	0.91512	0.22514	0.072
Mof_H 	H 	0.42155	0.92155	0.204	0.038
Mof_N 	N 	0.39145	0.89145	0.22909	-0.172
Mof_C 	C 	0.38204	0.88204	0.26005	0.055
Mof_H 	H 	0.3659	0.8659	0.2627	0.073
Mof_C 	C 	0.39629	0.89629	0.28704	-0.116
Mof_H 	H 	0.3899	0.8899	0.3082	0.07
Mof_C 	C 	0.41995	0.91996	0.28309	0.058
Mof_H 	H 	0.4297	0.9297	0.3015	0.025
Mof_C 	C 	0.4553	0.9553	0.2469	0.451
Mof_Fe	Fe	0.87079	0.37079	0.18684	0.943
Mof_O 	O 	0.9667	0.4667	0.271	-0.427
Mof_O 	O 	0.9604	0.4604	0.2194	-0.291
Mof_C 	C 	0.92939	0.42939	0.2521	-0.139
Mof_C 	C 	0.91512	0.41512	0.22514	0.072
Mof_H 	H 	0.92155	0.42155	0.204	0.038
Mof_N 	N 	0.89145	0.39145	0.22909	-0.172
Mof_C 	C 	0.88204	0.38204	0.26005	0.055
Mof_H 	H 	0.8659	0.3659	0.2627	0.073
Mof_C 	C 	0.89629	0.39629	0.28704	-0.116
Mof_H 	H 	0.8899	0.3899	0.3082	0.07
Mof_C 	C 	0.91995	0.41995	0.28309	0.058
Mof_H 	H 	0.9297	0.4297	0.3015	0.025
Mof_C 	C 	0.9553	0.4553	0.2469	0.451
Mof_Fe	Fe	0.87079	0.87079	0.68684	0.943
Mof_O 	O 	0.9667	0.9667	0.771	-0.424
Mof_O 	O 	0.9604	0.9604	0.7194	-0.289
Mof_C 	C 	0.92939	0.92939	0.7521	-0.138
Mof_C 	C 	0.91512	0.91512	0.72514	0.071
Mof_H 	H 	0.92155	0.92155	0.704	0.038
Mof_N 	N 	0.89145	0.89145	0.72909	-0.171
Mof_C 	C 	0.88204	0.88204	0.76005	0.055
Mof_H 	H 	0.8659	0.8659	0.7627	0.073
Mof_C 	C 	0.89629	0.89629	0.78704	-0.115
Mof_H 	H 	0.8899	0.8899	0.8082	0.07
Mof_C 	C 	0.91995	0.91996	0.78309	0.057
Mof_H 	H 	0.9297	0.9297	0.8015	0.025
Mof_C 	C 	0.9553	0.9553	0.7469	0.449
Mof_Fe	Fe	0.37079	0.62921	0.31316	0.942
Mof_O 	O 	0.4667	0.5333	0.229	-0.43
Mof_O 	O 	0.4604	0.5396	0.2806	-0.293
Mof_C 	C 	0.42939	0.57061	0.2479	-0.14
Mof_C 	C 	0.41512	0.58488	0.27486	0.072
Mof_H 	H 	0.42155	0.57845	0.296	0.037
Mof_N 	N 	0.39145	0.60855	0.27091	-0.172
Mof_C 	C 	0.38204	0.61796	0.23995	0.055
Mof_H 	H 	0.3659	0.6341	0.2373	0.073
Mof_C 	C 	0.39629	0.60371	0.21296	-0.116
Mof_H 	H 	0.3899	0.6101	0.1918	0.07
Mof_C 	C 	0.41995	0.58005	0.21691	0.058
Mof_H 	H 	0.4297	0.5703	0.1985	0.024
Mof_C 	C 	0.4553	0.5447	0.2531	0.452
Mof_Fe	Fe	0.37079	0.12921	0.81316	0.942
Mof_O 	O 	0.4667	0.0333	0.729	-0.43
Mof_O 	O 	0.4604	0.0396	0.7806	-0.294
Mof_C 	C 	0.42939	0.07061	0.7479	-0.14
Mof_C 	C 	0.41512	0.08488	0.77486	0.072
Mof_H 	H 	0.42155	0.07845	0.796	0.037
Mof_N 	N 	0.39145	0.10855	0.77091	-0.172
Mof_C 	C 	0.38204	0.11796	0.73995	0.055
Mof_H 	H 	0.3659	0.1341	0.7373	0.073
Mof_C 	C 	0.39629	0.10371	0.71296	-0.117
Mof_H 	H 	0.3899	0.1101	0.6918	0.07
Mof_C 	C 	0.41995	0.08005	0.71691	0.058
Mof_H 	H 	0.4297	0.0703	0.6985	0.023
Mof_C 	C 	0.4553	0.0447	0.7531	0.451
Mof_Fe	Fe	0.87079	0.62921	0.81316	0.943
Mof_O 	O 	0.9667	0.5333	0.729	-0.427
Mof_O 	O 	0.9604	0.5396	0.7806	-0.291
Mof_C 	C 	0.92939	0.57061	0.7479	-0.139
Mof_C 	C 	0.91512	0.58488	0.77486	0.071
Mof_H 	H 	0.92155	0.57845	0.796	0.038
Mof_N 	N 	0.89145	0.60855	0.77091	-0.172
Mof_C 	C 	0.88204	0.61796	0.73995	0.055
Mof_H 	H 	0.8659	0.6341	0.7373	0.073
Mof_C 	C 	0.89629	0.60371	0.71296	-0.116
Mof_H 	H 	0.8899	0.6101	0.6918	0.07
Mof_C 	C 	0.91995	0.58005	0.71691	0.057
Mof_H 	H 	0.9297	0.5703	0.6985	0.025
Mof_C 	C 	0.9553	0.5447	0.7531	0.45
Mof_Fe	Fe	0.87079	0.12921	0.31316	0.942
Mof_O 	O 	0.9667	0.0333	0.229	-0.427
Mof_O 	O 	0.9604	0.0396	0.2806	-0.292
Mof_C 	C 	0.92939	0.07061	0.2479	-0.14
Mof_C 	C 	0.91512	0.08488	0.27486	0.071
Mof_H 	H 	0.92155	0.07845	0.296	0.037
Mof_N 	N 	0.89145	0.10855	0.27091	-0.172
Mof_C 	C 	0.88204	0.11796	0.23995	0.055
Mof_H 	H 	0.8659	0.1341	0.2373	0.073
Mof_C 	C 	0.89629	0.10371	0.21296	-0.116
Mof_H 	H 	0.8899	0.1101	0.1918	0.07
Mof_C 	C 	0.91995	0.08005	0.21691	0.057
Mof_H 	H 	0.9297	0.0703	0.1985	0.024
Mof_C 	C 	0.9553	0.0447	0.2531	0.45
Mof_Fe	Fe	0.77403	0.5	0.5	0.952
Mof_Fe	Fe	0.77403	0	-0	0.939
Mof_Fe	Fe	0.27403	0.5	-0	0.945
Mof_Fe	Fe	0.27403	0	0.5	0.945
Mof_Fe	Fe	0.22597	0.5	0.5	0.952
Mof_Fe	Fe	0.22597	0	-0	0.938
Mof_Fe	Fe	0.72597	0.5	-0	0.945
Mof_Fe	Fe	0.72597	0	0.5	0.945
Mof_Fe	Fe	0.5	0.77403	0.5	0.952
Mof_Fe	Fe	0.5	0.27403	-0	0.945
Mof_Fe	Fe	-5.75103e-33	0.77403	-0	0.939
Mof_Fe	Fe	-9.62737e-33	0.27403	0.5	0.945
Mof_Fe	Fe	0.5	0.22597	0.5	0.952
Mof_Fe	Fe	0.5	0.72597	-0	0.945
Mof_Fe	Fe	-2.87552e-33	0.22597	-0	0.938
Mof_Fe	Fe	-2.11294e-32	0.72597	0.5	0.945
Mof_Fe	Fe	0.5	0.5	0.77403	0.952
Mof_Fe	Fe	0.5	2.87552e-33	0.27403	0.945
Mof_Fe	Fe	-7.5991e-33	0.5	0.27403	0.945
Mof_Fe	Fe	-8.59992e-33	-5.75103e-33	0.77403	0.939
Mof_Fe	Fe	0.5	0.5	0.22597	0.952
Mof_Fe	Fe	0.5	0	0.72597	0.945
Mof_Fe	Fe	-2.02822e-32	0.5	0.72597	0.945
Mof_Fe	Fe	-2.02826e-33	0	0.22597	0.938
Mof_O 	O 	0.64864	0.35136	0.64864	-0.492
Mof_O 	O 	0.64864	0.85136	0.14864	-0.492
Mof_O 	O 	0.14864	0.35136	0.14864	-0.492
Mof_O 	O 	0.14864	0.85136	0.64864	-0.492
Mof_O 	O 	0.35136	0.64864	0.64864	-0.492
Mof_O 	O 	0.35136	0.14864	0.14864	-0.492
Mof_O 	O 	0.85136	0.64864	0.14864	-0.492
Mof_O 	O 	0.85136	0.14864	0.64864	-0.492
Mof_O 	O 	0.35136	0.35136	0.35136	-0.492
Mof_O 	O 	0.35136	0.85136	0.85136	-0.493
Mof_O 	O 	0.85136	0.35136	0.85136	-0.493
Mof_O 	O 	0.85136	0.85136	0.35136	-0.493
Mof_O 	O 	0.64864	0.64864	0.35136	-0.492
Mof_O 	O 	0.64864	0.14864	0.85136	-0.492
Mof_O 	O 	0.14864	0.64864	0.85136	-0.492
Mof_O 	O 	0.14864	0.14864	0.35136	-0.492
Mof_O 	O 	0.35136	0.64864	0.35136	-0.492
Mof_O 	O 	0.35136	0.14864	0.85136	-0.492
Mof_O 	O 	0.85136	0.64864	0.85136	-0.493
Mof_O 	O 	0.85136	0.14864	0.35136	-0.492
Mof_O 	O 	0.64864	0.35136	0.35136	-0.492
Mof_O 	O 	0.64864	0.85136	0.85136	-0.493
Mof_O 	O 	0.14864	0.35136	0.85136	-0.492
Mof_O 	O 	0.14864	0.85136	0.35136	-0.492
Mof_O 	O 	0.35136	0.35136	0.64864	-0.492
Mof_O 	O 	0.35136	0.85136	0.14864	-0.492
Mof_O 	O 	0.85136	0.35136	0.14864	-0.492
Mof_O 	O 	0.85136	0.85136	0.64864	-0.493
Mof_O 	O 	0.64864	0.64864	0.64864	-0.493
Mof_O 	O 	0.64864	0.14864	0.14864	-0.492
Mof_O 	O 	0.14864	0.64864	0.14864	-0.492
Mof_O 	O 	0.14864	0.14864	0.64864	-0.492
Mof_C 	C 	0.70083	0.37662	0.70083	-0.361
Mof_C 	C 	0.72646	0.376	0.72646	0.258
Mof_C 	C 	0.65005	0.4303	0.65005	0.335
Mof_C 	C 	0.64839	0.46631	0.64839	-0.076
Mof_C 	C 	0.70083	0.87662	0.20083	-0.36
Mof_C 	C 	0.72646	0.876	0.22646	0.258
Mof_C 	C 	0.65005	0.9303	0.15005	0.34
Mof_C 	C 	0.64839	0.96631	0.14839	-0.087
Mof_C 	C 	0.20083	0.37662	0.20083	-0.361
Mof_C 	C 	0.22646	0.376	0.22646	0.258
Mof_C 	C 	0.15005	0.4303	0.15005	0.335
Mof_C 	C 	0.14839	0.46631	0.14839	-0.076
Mof_C 	C 	0.20083	0.87662	0.70083	-0.36
Mof_C 	C 	0.22646	0.876	0.72646	0.258
Mof_C 	C 	0.15005	0.9303	0.65005	0.34
Mof_C 	C 	0.14839	0.96631	0.64839	-0.087
Mof_C 	C 	0.29917	0.62338	0.70083	-0.361
Mof_C 	C 	0.27354	0.624	0.72646	0.258
Mof_C 	C 	0.34995	0.5697	0.65005	0.335
Mof_C 	C 	0.35161	0.53369	0.64839	-0.076
Mof_C 	C 	0.29917	0.12338	0.20083	-0.362
Mof_C 	C 	0.27354	0.124	0.22646	0.258
Mof_C 	C 	0.34995	0.0697	0.15005	0.331
Mof_C 	C 	0.35161	0.03369	0.14839	-0.065
Mof_C 	C 	0.79917	0.62338	0.20083	-0.361
Mof_C 	C 	0.77354	0.624	0.22646	0.258
Mof_C 	C 	0.84995	0.5697	0.15005	0.335
Mof_C 	C 	0.85161	0.53369	0.14839	-0.076
Mof_C 	C 	0.79917	0.12338	0.70083	-0.361
Mof_C 	C 	0.77354	0.124	0.72646	0.258
Mof_C 	C 	0.84995	0.0697	0.65005	0.331
Mof_C 	C 	0.85161	0.03369	0.64839	-0.065
Mof_C 	C 	0.29917	0.37662	0.29917	-0.361
Mof_C 	C 	0.27354	0.376	0.27354	0.258
Mof_C 	C 	0.34995	0.4303	0.34995	0.335
Mof_C 	C 	0.35161	0.46631	0.35161	-0.076
Mof_C 	C 	0.29917	0.87662	0.79917	-0.36
Mof_C 	C 	0.27354	0.876	0.77354	0.257
Mof_C 	C 	0.34995	0.9303	0.84995	0.34
Mof_C 	C 	0.35161	0.96631	0.85161	-0.087
Mof_C 	C 	0.79917	0.37662	0.79917	-0.36
Mof_C 	C 	0.77354	0.376	0.77354	0.258
Mof_C 	C 	0.84995	0.4303	0.84995	0.335
Mof_C 	C 	0.85161	0.46631	0.85161	-0.076
Mof_C 	C 	0.79917	0.87662	0.29917	-0.36
Mof_C 	C 	0.77354	0.876	0.27354	0.257
Mof_C 	C 	0.84995	0.9303	0.34995	0.34
Mof_C 	C 	0.85161	0.96631	0.35161	-0.087
Mof_C 	C 	0.70083	0.62338	0.29917	-0.361
Mof_C 	C 	0.72646	0.624	0.27354	0.258
Mof_C 	C 	0.65005	0.5697	0.34995	0.335
Mof_C 	C 	0.64839	0.53369	0.35161	-0.076
Mof_C 	C 	0.70083	0.12338	0.79917	-0.361
Mof_C 	C 	0.72646	0.124	0.77354	0.258
Mof_C 	C 	0.65005	0.0697	0.84995	0.331
Mof_C 	C 	0.64839	0.03369	0.85161	-0.065
Mof_C 	C 	0.20083	0.62338	0.79917	-0.361
Mof_C 	C 	0.22646	0.624	0.77354	0.258
Mof_C 	C 	0.15005	0.5697	0.84995	0.335
Mof_C 	C 	0.14839	0.53369	0.85161	-0.076
Mof_C 	C 	0.20083	0.12338	0.29917	-0.362
Mof_C 	C 	0.22646	0.124	0.27354	0.258
Mof_C 	C 	0.15005	0.0697	0.34995	0.331
Mof_C 	C 	0.14839	0.03369	0.35161	-0.065
Mof_C 	C 	0.70083	0.70083	0.37662	-0.361
Mof_C 	C 	0.72646	0.72646	0.376	0.258
Mof_C 	C 	0.65005	0.65005	0.4303	0.335
Mof_C 	C 	0.64839	0.64839	0.46631	-0.076
Mof_C 	C 	0.70083	0.20083	0.87662	-0.36
Mof_C 	C 	0.72646	0.22646	0.876	0.258
Mof_C 	C 	0.65005	0.15005	0.9303	0.34
Mof_C 	C 	0.64839	0.14839	0.96631	-0.087
Mof_C 	C 	0.20083	0.70083	0.87662	-0.36
Mof_C 	C 	0.22646	0.72646	0.876	0.258
Mof_C 	C 	0.15005	0.65005	0.9303	0.34
Mof_C 	C 	0.14839	0.64839	0.96631	-0.087
Mof_C 	C 	0.20083	0.20083	0.37662	-0.361
Mof_C 	C 	0.22646	0.22646	0.376	0.258
Mof_C 	C 	0.15005	0.15005	0.4303	0.335
Mof_C 	C 	0.14839	0.14839	0.46631	-0.076
Mof_C 	C 	0.70083	0.29917	0.62338	-0.361
Mof_C 	C 	0.72646	0.27354	0.624	0.258
Mof_C 	C 	0.65005	0.34995	0.5697	0.335
Mof_C 	C 	0.64839	0.35161	0.53369	-0.076
Mof_C 	C 	0.70083	0.79917	0.12338	-0.361
Mof_C 	C 	0.72646	0.77354	0.124	0.258
Mof_C 	C 	0.65005	0.84995	0.0697	0.331
Mof_C 	C 	0.64839	0.85161	0.03369	-0.065
Mof_C 	C 	0.20083	0.29917	0.12338	-0.362
Mof_C 	C 	0.22646	0.27354	0.124	0.258
Mof_C 	C 	0.15005	0.34995	0.0697	0.331
Mof_C 	C 	0.14839	0.35161	0.03369	-0.065
Mof_C 	C 	0.20083	0.79917	0.62338	-0.361
Mof_C 	C 	0.22646	0.77354	0.624	0.258
Mof_C 	C 	0.15005	0.84995	0.5697	0.335
Mof_C 	C 	0.14839	0.85161	0.53369	-0.076
Mof_C 	C 	0.29917	0.29917	0.37662	-0.361
Mof_C 	C 	0.27354	0.27354	0.376	0.258
Mof_C 	C 	0.34995	0.34995	0.4303	0.335
Mof_C 	C 	0.35161	0.35161	0.46631	-0.076
Mof_C 	C 	0.29917	0.79917	0.87662	-0.36
Mof_C 	C 	0.27354	0.77354	0.876	0.257
Mof_C 	C 	0.34995	0.84995	0.9303	0.34
Mof_C 	C 	0.35161	0.85161	0.96631	-0.087
Mof_C 	C 	0.79917	0.29917	0.87662	-0.36
Mof_C 	C 	0.77354	0.27354	0.876	0.257
Mof_C 	C 	0.84995	0.34995	0.9303	0.34
Mof_C 	C 	0.85161	0.35161	0.96631	-0.087
Mof_C 	C 	0.79917	0.79917	0.37662	-0.36
Mof_C 	C 	0.77354	0.77354	0.376	0.258
Mof_C 	C 	0.84995	0.84995	0.4303	0.335
Mof_C 	C 	0.85161	0.85161	0.46631	-0.076
Mof_C 	C 	0.29917	0.70083	0.62338	-0.361
Mof_C 	C 	0.27354	0.72646	0.624	0.258
Mof_C 	C 	0.34995	0.65005	0.5697	0.335
Mof_C 	C 	0.35161	0.64839	0.53369	-0.076
Mof_C 	C 	0.29917	0.20083	0.12338	-0.362
Mof_C 	C 	0.27354	0.22646	0.124	0.258
Mof_C 	C 	0.34995	0.15005	0.0697	0.331
Mof_C 	C 	0.35161	0.14839	0.03369	-0.065
Mof_C 	C 	0.79917	0.70083	0.12338	-0.361
Mof_C 	C 	0.77354	0.72646	0.124	0.258
Mof_C 	C 	0.84995	0.65005	0.0697	0.331
Mof_C 	C 	0.85161	0.64839	0.03369	-0.065
Mof_C 	C 	0.79917	0.20083	0.62338	-0.361
Mof_C 	C 	0.77354	0.22646	0.624	0.258
Mof_C 	C 	0.84995	0.15005	0.5697	0.335
Mof_C 	C 	0.85161	0.14839	0.53369	-0.076
Mof_C 	C 	0.37662	0.70083	0.70083	-0.361
Mof_C 	C 	0.376	0.72646	0.72646	0.258
Mof_C 	C 	0.4303	0.65005	0.65005	0.335
Mof_C 	C 	0.46631	0.64839	0.64839	-0.076
Mof_C 	C 	0.37662	0.20083	0.20083	-0.361
Mof_C 	C 	0.376	0.22646	0.22646	0.258
Mof_C 	C 	0.4303	0.15005	0.15005	0.335
Mof_C 	C 	0.46631	0.14839	0.14839	-0.076
Mof_C 	C 	0.87662	0.70083	0.20083	-0.36
Mof_C 	C 	0.876	0.72646	0.22646	0.258
Mof_C 	C 	0.9303	0.65005	0.15005	0.34
Mof_C 	C 	0.96631	0.64839	0.14839	-0.087
Mof_C 	C 	0.87662	0.20083	0.70083	-0.36
Mof_C 	C 	0.876	0.22646	0.72646	0.258
Mof_C 	C 	0.9303	0.15005	0.65005	0.34
Mof_C 	C 	0.96631	0.14839	0.64839	-0.087
Mof_C 	C 	0.62338	0.70083	0.29917	-0.361
Mof_C 	C 	0.624	0.72646	0.27354	0.258
Mof_C 	C 	0.5697	0.65005	0.34995	0.335
Mof_C 	C 	0.53369	0.64839	0.35161	-0.076
Mof_C 	C 	0.62338	0.20083	0.79917	-0.361
Mof_C 	C 	0.624	0.22646	0.77354	0.258
Mof_C 	C 	0.5697	0.15005	0.84995	0.335
Mof_C 	C 	0.53369	0.14839	0.85161	-0.076
Mof_C 	C 	0.12338	0.70083	0.79917	-0.361
Mof_C 	C 	0.124	0.72646	0.77354	0.258
Mof_C 	C 	0.0697	0.65005	0.84995	0.331
Mof_C 	C 	0.03369	0.64839	0.85161	-0.065
Mof_C 	C 	0.12338	0.20083	0.29917	-0.362
Mof_C 	C 	0.124	0.22646	0.27354	0.258
Mof_C 	C 	0.0697	0.15005	0.34995	0.331
Mof_C 	C 	0.03369	0.14839	0.35161	-0.065
Mof_C 	C 	0.37662	0.29917	0.29917	-0.361
Mof_C 	C 	0.376	0.27354	0.27354	0.258
Mof_C 	C 	0.4303	0.34995	0.34995	0.335
Mof_C 	C 	0.46631	0.35161	0.35161	-0.076
Mof_C 	C 	0.37662	0.79917	0.79917	-0.36
Mof_C 	C 	0.376	0.77354	0.77354	0.258
Mof_C 	C 	0.4303	0.84995	0.84995	0.335
Mof_C 	C 	0.46631	0.85161	0.85161	-0.076
Mof_C 	C 	0.87662	0.29917	0.79917	-0.36
Mof_C 	C 	0.876	0.27354	0.77354	0.257
Mof_C 	C 	0.9303	0.34995	0.84995	0.34
Mof_C 	C 	0.96631	0.35161	0.85161	-0.087
Mof_C 	C 	0.87662	0.79917	0.29917	-0.36
Mof_C 	C 	0.876	0.77354	0.27354	0.257
Mof_C 	C 	0.9303	0.84995	0.34995	0.34
Mof_C 	C 	0.96631	0.85161	0.35161	-0.087
Mof_C 	C 	0.62338	0.29917	0.70083	-0.361
Mof_C 	C 	0.624	0.27354	0.72646	0.258
Mof_C 	C 	0.5697	0.34995	0.65005	0.335
Mof_C 	C 	0.53369	0.35161	0.64839	-0.076
Mof_C 	C 	0.62338	0.79917	0.20083	-0.361
Mof_C 	C 	0.624	0.77354	0.22646	0.258
Mof_C 	C 	0.5697	0.84995	0.15005	0.335
Mof_C 	C 	0.53369	0.85161	0.14839	-0.076
Mof_C 	C 	0.12338	0.29917	0.20083	-0.362
Mof_C 	C 	0.124	0.27354	0.22646	0.258
Mof_C 	C 	0.0697	0.34995	0.15005	0.331
Mof_C 	C 	0.03369	0.35161	0.14839	-0.065
Mof_C 	C 	0.12338	0.79917	0.70083	-0.361
Mof_C 	C 	0.124	0.77354	0.72646	0.258
Mof_C 	C 	0.0697	0.84995	0.65005	0.331
Mof_C 	C 	0.03369	0.85161	0.64839	-0.065
Mof_C 	C 	0.37662	0.70083	0.29917	-0.361
Mof_C 	C 	0.376	0.72646	0.27354	0.258
Mof_C 	C 	0.4303	0.65005	0.34995	0.335
Mof_C 	C 	0.46631	0.64839	0.35161	-0.076
Mof_C 	C 	0.37662	0.20083	0.79917	-0.361
Mof_C 	C 	0.376	0.22646	0.77354	0.258
Mof_C 	C 	0.4303	0.15005	0.84995	0.335
Mof_C 	C 	0.46631	0.14839	0.85161	-0.076
Mof_C 	C 	0.87662	0.70083	0.79917	-0.359
Mof_C 	C 	0.876	0.72646	0.77354	0.257
Mof_C 	C 	0.9303	0.65005	0.84995	0.34
Mof_C 	C 	0.96631	0.64839	0.85161	-0.087
Mof_C 	C 	0.87662	0.20083	0.29917	-0.36
Mof_C 	C 	0.876	0.22646	0.27354	0.258
Mof_C 	C 	0.9303	0.15005	0.34995	0.34
Mof_C 	C 	0.96631	0.14839	0.35161	-0.087
Mof_C 	C 	0.62338	0.29917	0.29917	-0.361
Mof_C 	C 	0.624	0.27354	0.27354	0.258
Mof_C 	C 	0.5697	0.34995	0.34995	0.335
Mof_C 	C 	0.53369	0.35161	0.35161	-0.076
Mof_C 	C 	0.62338	0.79917	0.79917	-0.36
Mof_C 	C 	0.624	0.77354	0.77354	0.258
Mof_C 	C 	0.5697	0.84995	0.84995	0.335
Mof_C 	C 	0.53369	0.85161	0.85161	-0.076
Mof_C 	C 	0.12338	0.29917	0.79917	-0.361
Mof_C 	C 	0.124	0.27354	0.77354	0.258
Mof_C 	C 	0.0697	0.34995	0.84995	0.331
Mof_C 	C 	0.03369	0.35161	0.85161	-0.065
Mof_C 	C 	0.12338	0.79917	0.29917	-0.361
Mof_C 	C 	0.124	0.77354	0.27354	0.258
Mof_C 	C 	0.0697	0.84995	0.34995	0.331
Mof_C 	C 	0.03369	0.85161	0.35161	-0.065
Mof_C 	C 	0.37662	0.29917	0.70083	-0.361
Mof_C 	C 	0.376	0.27354	0.72646	0.258
Mof_C 	C 	0.4303	0.34995	0.65005	0.335
Mof_C 	C 	0.46631	0.35161	0.64839	-0.076
Mof_C 	C 	0.37662	0.79917	0.20083	-0.361
Mof_C 	C 	0.376	0.77354	0.22646	0.258
Mof_C 	C 	0.4303	0.84995	0.15005	0.335
Mof_C 	C 	0.46631	0.85161	0.14839	-0.076
Mof_C 	C 	0.87662	0.29917	0.20083	-0.36
Mof_C 	C 	0.876	0.27354	0.22646	0.258
Mof_C 	C 	0.9303	0.34995	0.15005	0.34
Mof_C 	C 	0.96631	0.35161	0.14839	-0.087
Mof_C 	C 	0.87662	0.79917	0.70083	-0.359
Mof_C 	C 	0.876	0.77354	0.72646	0.257
Mof_C 	C 	0.9303	0.84995	0.65005	0.34
Mof_C 	C 	0.96631	0.85161	0.64839	-0.087
Mof_C 	C 	0.62338	0.70083	0.70083	-0.36
Mof_C 	C 	0.624	0.72646	0.72646	0.258
Mof_C 	C 	0.5697	0.65005	0.65005	0.335
Mof_C 	C 	0.53369	0.64839	0.64839	-0.076
Mof_C 	C 	0.62338	0.20083	0.20083	-0.361
Mof_C 	C 	0.624	0.22646	0.22646	0.258
Mof_C 	C 	0.5697	0.15005	0.15005	0.335
Mof_C 	C 	0.53369	0.14839	0.14839	-0.076
Mof_C 	C 	0.12338	0.70083	0.20083	-0.362
Mof_C 	C 	0.124	0.72646	0.22646	0.258
Mof_C 	C 	0.0697	0.65005	0.15005	0.331
Mof_C 	C 	0.03369	0.64839	0.14839	-0.065
Mof_C 	C 	0.12338	0.20083	0.70083	-0.362
Mof_C 	C 	0.124	0.22646	0.72646	0.258
Mof_C 	C 	0.0697	0.15005	0.65005	0.331
Mof_C 	C 	0.03369	0.14839	0.64839	-0.065
Mof_C 	C 	0.70083	0.70083	0.62338	-0.36
Mof_C 	C 	0.72646	0.72646	0.624	0.258
Mof_C 	C 	0.65005	0.65005	0.5697	0.335
Mof_C 	C 	0.64839	0.64839	0.53369	-0.076
Mof_C 	C 	0.70083	0.20083	0.12338	-0.362
Mof_C 	C 	0.72646	0.22646	0.124	0.258
Mof_C 	C 	0.65005	0.15005	0.0697	0.331
Mof_C 	C 	0.64839	0.14839	0.03369	-0.065
Mof_C 	C 	0.20083	0.70083	0.12338	-0.362
Mof_C 	C 	0.22646	0.72646	0.124	0.258
Mof_C 	C 	0.15005	0.65005	0.0697	0.331
Mof_C 	C 	0.14839	0.64839	0.03369	-0.065
Mof_C 	C 	0.20083	0.20083	0.62338	-0.361
Mof_C 	C 	0.22646	0.22646	0.624	0.258
Mof_C 	C 	0.15005	0.15005	0.5697	0.335
Mof_C 	C 	0.14839	0.14839	0.53369	-0.076
Mof_C 	C 	0.29917	0.70083	0.37662	-0.361
Mof_C 	C 	0.27354	0.72646	0.376	0.258
Mof_C 	C 	0.34995	0.65005	0.4303	0.335
Mof_C 	C 	0.35161	0.64839	0.46631	-0.076
Mof_C 	C 	0.29917	0.20083	0.87662	-0.36
Mof_C 	C 	0.27354	0.22646	0.876	0.258
Mof_C 	C 	0.34995	0.15005	0.9303	0.34
Mof_C 	C 	0.35161	0.14839	0.96631	-0.087
Mof_C 	C 	0.79917	0.70083	0.87662	-0.359
Mof_C 	C 	0.77354	0.72646	0.876	0.257
Mof_C 	C 	0.84995	0.65005	0.9303	0.34
Mof_C 	C 	0.85161	0.64839	0.96631	-0.087
Mof_C 	C 	0.79917	0.20083	0.37662	-0.361
Mof_C 	C 	0.77354	0.22646	0.376	0.258
Mof_C 	C 	0.84995	0.15005	0.4303	0.335
Mof_C 	C 	0.85161	0.14839	0.46631	-0.076
Mof_C 	C 	0.29917	0.29917	0.62338	-0.361
Mof_C 	C 	0.27354	0.27354	0.624	0.258
Mof_C 	C 	0.34995	0.34995	0.5697	0.335
Mof_C 	C 	0.35161	0.35161	0.53369	-0.076
Mof_C 	C 	0.29917	0.79917	0.12338	-0.361
Mof_C 	C 	0.27354	0.77354	0.124	0.258
Mof_C 	C 	0.34995	0.84995	0.0697	0.331
Mof_C 	C 	0.35161	0.85161	0.03369	-0.065
Mof_C 	C 	0.79917	0.29917	0.12338	-0.361
Mof_C 	C 	0.77354	0.27354	0.124	0.258
Mof_C 	C 	0.84995	0.34995	0.0697	0.331
Mof_C 	C 	0.85161	0.35161	0.03369	-0.065
Mof_C 	C 	0.79917	0.79917	0.62338	-0.36
Mof_C 	C 	0.77354	0.77354	0.624	0.258
Mof_C 	C 	0.84995	0.84995	0.5697	0.335
Mof_C 	C 	0.85161	0.85161	0.53369	-0.076
Mof_C 	C 	0.70083	0.29917	0.37662	-0.361
Mof_C 	C 	0.72646	0.27354	0.376	0.258
Mof_C 	C 	0.65005	0.34995	0.4303	0.335
Mof_C 	C 	0.64839	0.35161	0.46631	-0.076
Mof_C 	C 	0.70083	0.79917	0.87662	-0.359
Mof_C 	C 	0.72646	0.77354	0.876	0.257
Mof_C 	C 	0.65005	0.84995	0.9303	0.34
Mof_C 	C 	0.64839	0.85161	0.96631	-0.087
Mof_C 	C 	0.20083	0.29917	0.87662	-0.36
Mof_C 	C 	0.22646	0.27354	0.876	0.258
Mof_C 	C 	0.15005	0.34995	0.9303	0.34
Mof_C 	C 	0.14839	0.35161	0.96631	-0.087
Mof_C 	C 	0.20083	0.79917	0.37662	-0.361
Mof_C 	C 	0.22646	0.77354	0.376	0.258
Mof_C 	C 	0.15005	0.84995	0.4303	0.335
Mof_C 	C 	0.14839	0.85161	0.46631	-0.076
Mof_C 	C 	0.70083	0.37662	0.29917	-0.361
Mof_C 	C 	0.72646	0.376	0.27354	0.258
Mof_C 	C 	0.65005	0.4303	0.34995	0.335
Mof_C 	C 	0.64839	0.46631	0.35161	-0.076
Mof_C 	C 	0.70083	0.87662	0.79917	-0.359
Mof_C 	C 	0.72646	0.876	0.77354	0.257
Mof_C 	C 	0.65005	0.9303	0.84995	0.34
Mof_C 	C 	0.64839	0.96631	0.85161	-0.087
Mof_C 	C 	0.20083	0.37662	0.79917	-0.361
Mof_C 	C 	0.22646	0.376	0.77354	0.258
Mof_C 	C 	0.15005	0.4303	0.84995	0.335
Mof_C 	C 	0.14839	0.46631	0.85161	-0.076
Mof_C 	C 	0.20083	0.87662	0.29917	-0.36
Mof_C 	C 	0.22646	0.876	0.27354	0.258
Mof_C 	C 	0.15005	0.9303	0.34995	0.34
Mof_C 	C 	0.14839	0.96631	0.35161	-0.087
Mof_C 	C 	0.70083	0.62338	0.70083	-0.36
Mof_C 	C 	0.72646	0.624	0.72646	0.258
Mof_C 	C 	0.65005	0.5697	0.65005	0.335
Mof_C 	C 	0.64839	0.53369	0.64839	-0.076
Mof_C 	C 	0.70083	0.12338	0.20083	-0.362
Mof_C 	C 	0.72646	0.124	0.22646	0.258
Mof_C 	C 	0.65005	0.0697	0.15005	0.331
Mof_C 	C 	0.64839	0.03369	0.14839	-0.065
Mof_C 	C 	0.20083	0.62338	0.20083	-0.361
Mof_C 	C 	0.22646	0.624	0.22646	0.258
Mof_C 	C 	0.15005	0.5697	0.15005	0.335
Mof_C 	C 	0.14839	0.53369	0.14839	-0.076
Mof_C 	C 	0.20083	0.12338	0.70083	-0.362
Mof_C 	C 	0.22646	0.124	0.72646	0.258
Mof_C 	C 	0.15005	0.0697	0.65005	0.331
Mof_C 	C 	0.14839	0.03369	0.64839	-0.065
Mof_C 	C 	0.29917	0.37662	0.70083	-0.361
Mof_C 	C 	0.27354	0.376	0.72646	0.258
Mof_C 	C 	0.34995	0.4303	0.65005	0.335
Mof_C 	C 	0.35161	0.46631	0.64839	-0.076
Mof_C 	C 	0.29917	0.87662	0.20083	-0.36
Mof_C 	C 	0.27354	0.876	0.22646	0.258
Mof_C 	C 	0.34995	0.9303	0.15005	0.34
Mof_C 	C 	0.35161	0.96631	0.14839	-0.087
Mof_C 	C 	0.79917	0.37662	0.20083	-0.361
Mof_C 	C 	0.77354	0.376	0.22646	0.258
Mof_C 	C 	0.84995	0.4303	0.15005	0.335
Mof_C 	C 	0.85161	0.46631	0.14839	-0.076
Mof_C 	C 	0.79917	0.87662	0.70083	-0.359
Mof_C 	C 	0.77354	0.876	0.72646	0.257
Mof_C 	C 	0.84995	0.9303	0.65005	0.34
Mof_C 	C 	0.85161	0.96631	0.64839	-0.087
Mof_C 	C 	0.29917	0.62338	0.29917	-0.361
Mof_C 	C 	0.27354	0.624	0.27354	0.258
Mof_C 	C 	0.34995	0.5697	0.34995	0.335
Mof_C 	C 	0.35161	0.53369	0.35161	-0.076
Mof_C 	C 	0.29917	0.12338	0.79917	-0.361
Mof_C 	C 	0.27354	0.124	0.77354	0.258
Mof_C 	C 	0.34995	0.0697	0.84995	0.331
Mof_C 	C 	0.35161	0.03369	0.85161	-0.065
Mof_C 	C 	0.79917	0.62338	0.79917	-0.36
Mof_C 	C 	0.77354	0.624	0.77354	0.258
Mof_C 	C 	0.84995	0.5697	0.84995	0.335
Mof_C 	C 	0.85161	0.53369	0.85161	-0.076
Mof_C 	C 	0.79917	0.12338	0.29917	-0.361
Mof_C 	C 	0.77354	0.124	0.27354	0.258
Mof_C 	C 	0.84995	0.0697	0.34995	0.331
Mof_C 	C 	0.85161	0.03369	0.35161	-0.065
_end
