# CIF file generated by openbabel 3.1.0, see https://openbabel.org
data_I
_chemical_name_common 'image0'
_cell_length_a 16.9065
_cell_length_b 16.9065
_cell_length_c 14.7154
_cell_angle_alpha 90
_cell_angle_beta 90
_cell_angle_gamma 120
_space_group_name_H-M_alt 'P 1'
_space_group_name_Hall 'P 1'
loop_
    _symmetry_equiv_pos_as_xyz
    x,y,z
loop_
    _atom_site_label
    _atom_site_type_symbol
    _atom_site_fract_x
    _atom_site_fract_y
    _atom_site_fract_z
    _atom_site_occupancy
    O1       O        0.52359    0.17850    0.65400    1.000
    C1       C        0.45240    0.03760    0.53000    1.000
    N1       N        0.39090    0.07250    0.55670    1.000
    O2       O        0.41400    0.13720    0.50470    1.000
    O3       O        0.33300    0.04200    0.61570    1.000
    O4       O        0.82150    0.34509    0.65400    1.000
    C2       C        0.96240    0.41480    0.53000    1.000
    N2       N        0.92750    0.31840    0.55670    1.000
    O5       O        0.86280    0.27680    0.50470    1.000
    O6       O        0.95800    0.29100    0.61570    1.000
    O7       O        0.65491    0.47641    0.65400    1.000
    C3       C        0.58520    0.54760    0.53000    1.000
    N3       N        0.68160    0.60910    0.55670    1.000
    O8       O        0.72320    0.58600    0.50470    1.000
    O9       O        0.70900    0.66700    0.61570    1.000
    O10      O        0.47641    0.82150    0.15400    1.000
    C4       C        0.54760    0.96240    0.03000    1.000
    N4       N        0.60910    0.92750    0.05670    1.000
    O11      O        0.58600    0.86280    0.00470    1.000
    O12      O        0.66700    0.95800    0.11570    1.000
    O13      O        0.17850    0.65491    0.15400    1.000
    C5       C        0.03760    0.58520    0.03000    1.000
    N5       N        0.07250    0.68160    0.05670    1.000
    O14      O        0.13720    0.72320    0.00470    1.000
    O15      O        0.04200    0.70900    0.11570    1.000
    O16      O        0.34509    0.52359    0.15400    1.000
    C6       C        0.41480    0.45240    0.03000    1.000
    N6       N        0.31840    0.39090    0.05670    1.000
    O17      O        0.27680    0.41400    0.00470    1.000
    O18      O        0.29100    0.33300    0.11570    1.000
    O19      O        0.17850    0.52359    0.34600    1.000
    C7       C        0.03760    0.45240    0.47000    1.000
    N7       N        0.07250    0.39090    0.44330    1.000
    O20      O        0.13720    0.41400    0.49530    1.000
    O21      O        0.04200    0.33300    0.38430    1.000
    O22      O        0.34509    0.82150    0.34600    1.000
    C8       C        0.41480    0.96240    0.47000    1.000
    N8       N        0.31840    0.92750    0.44330    1.000
    O23      O        0.27680    0.86280    0.49530    1.000
    O24      O        0.29100    0.95800    0.38430    1.000
    O25      O        0.47641    0.65491    0.34600    1.000
    C9       C        0.54760    0.58520    0.47000    1.000
    N9       N        0.60910    0.68160    0.44330    1.000
    O26      O        0.58600    0.72320    0.49530    1.000
    O27      O        0.66700    0.70900    0.38430    1.000
    O28      O        0.82150    0.47641    0.84600    1.000
    C10      C        0.96240    0.54760    0.97000    1.000
    N10      N        0.92750    0.60910    0.94330    1.000
    O29      O        0.86280    0.58600    0.99530    1.000
    O30      O        0.95800    0.66700    0.88430    1.000
    O31      O        0.65491    0.17850    0.84600    1.000
    C11      C        0.58520    0.03760    0.97000    1.000
    N11      N        0.68160    0.07250    0.94330    1.000
    O32      O        0.72320    0.13720    0.99530    1.000
    O33      O        0.70900    0.04200    0.88430    1.000
    O34      O        0.52359    0.34509    0.84600    1.000
    C12      C        0.45240    0.41480    0.97000    1.000
    N12      N        0.39090    0.31840    0.94330    1.000
    O35      O        0.41400    0.27680    0.99530    1.000
    O36      O        0.33300    0.29100    0.88430    1.000
    O37      O        0.47641    0.82150    0.34600    1.000
    C13      C        0.54760    0.96240    0.47000    1.000
    N13      N        0.60910    0.92750    0.44330    1.000
    O38      O        0.58600    0.86280    0.49530    1.000
    O39      O        0.66700    0.95800    0.38430    1.000
    O40      O        0.17850    0.65491    0.34600    1.000
    C14      C        0.03760    0.58520    0.47000    1.000
    N14      N        0.07250    0.68160    0.44330    1.000
    O41      O        0.13720    0.72320    0.49530    1.000
    O42      O        0.04200    0.70900    0.38430    1.000
    O43      O        0.34509    0.52359    0.34600    1.000
    C15      C        0.41480    0.45240    0.47000    1.000
    N15      N        0.31840    0.39090    0.44330    1.000
    O44      O        0.27680    0.41400    0.49530    1.000
    O45      O        0.29100    0.33300    0.38430    1.000
    O46      O        0.52359    0.17850    0.84600    1.000
    C16      C        0.45240    0.03760    0.97000    1.000
    N16      N        0.39090    0.07250    0.94330    1.000
    O47      O        0.41400    0.13720    0.99530    1.000
    O48      O        0.33300    0.04200    0.88430    1.000
    O49      O        0.82150    0.34509    0.84600    1.000
    C17      C        0.96240    0.41480    0.97000    1.000
    N17      N        0.92750    0.31840    0.94330    1.000
    O50      O        0.86280    0.27680    0.99530    1.000
    O51      O        0.95800    0.29100    0.88430    1.000
    O52      O        0.65491    0.47641    0.84600    1.000
    C18      C        0.58520    0.54760    0.97000    1.000
    N18      N        0.68160    0.60910    0.94330    1.000
    O53      O        0.72320    0.58600    0.99530    1.000
    O54      O        0.70900    0.66700    0.88430    1.000
    O55      O        0.82150    0.47641    0.65400    1.000
    C19      C        0.96240    0.54760    0.53000    1.000
    N19      N        0.92750    0.60910    0.55670    1.000
    O56      O        0.86280    0.58600    0.50470    1.000
    O57      O        0.95800    0.66700    0.61570    1.000
    O58      O        0.65491    0.17850    0.65400    1.000
    C20      C        0.58520    0.03760    0.53000    1.000
    N20      N        0.68160    0.07250    0.55670    1.000
    O59      O        0.72320    0.13720    0.50470    1.000
    O60      O        0.70900    0.04200    0.61570    1.000
    O61      O        0.52359    0.34509    0.65400    1.000
    C21      C        0.45240    0.41480    0.53000    1.000
    N21      N        0.39090    0.31840    0.55670    1.000
    O62      O        0.41400    0.27680    0.50470    1.000
    O63      O        0.33300    0.29100    0.61570    1.000
    O64      O        0.17850    0.52359    0.15400    1.000
    C22      C        0.03760    0.45240    0.03000    1.000
    N22      N        0.07250    0.39090    0.05670    1.000
    O65      O        0.13720    0.41400    0.00470    1.000
    O66      O        0.04200    0.33300    0.11570    1.000
    O67      O        0.34509    0.82150    0.15400    1.000
    C23      C        0.41480    0.96240    0.03000    1.000
    N23      N        0.31840    0.92750    0.05670    1.000
    O68      O        0.27680    0.86280    0.00470    1.000
    O69      O        0.29100    0.95800    0.11570    1.000
    O70      O        0.47641    0.65491    0.15400    1.000
    C24      C        0.54760    0.58520    0.03000    1.000
    N24      N        0.60910    0.68160    0.05670    1.000
    O71      O        0.58600    0.72320    0.00470    1.000
    O72      O        0.66700    0.70900    0.11570    1.000
    Mg1      Mg       0.53289    0.26645    0.75000    1.000
    N25      N        0.38000    0.19000    0.75000    1.000
    C25      C        0.19080    0.09540    0.75000    1.000
    C26      C        0.08860    0.04430    0.75000    1.000
    Mg2      Mg       0.73355    0.26645    0.75000    1.000
    N26      N        0.81000    0.19000    0.75000    1.000
    C27      C        0.90460    0.09540    0.75000    1.000
    C28      C        0.95570    0.04430    0.75000    1.000
    Mg3      Mg       0.73356    0.46711    0.75000    1.000
    N27      N        0.81000    0.62000    0.75000    1.000
    C29      C        0.90460    0.80920    0.75000    1.000
    C30      C        0.95570    0.91140    0.75000    1.000
    Mg4      Mg       0.46711    0.73356    0.25000    1.000
    N28      N        0.62000    0.81000    0.25000    1.000
    C31      C        0.80920    0.90460    0.25000    1.000
    C32      C        0.91140    0.95570    0.25000    1.000
    Mg5      Mg       0.26645    0.73356    0.25000    1.000
    N29      N        0.19000    0.81000    0.25000    1.000
    C33      C        0.09540    0.90460    0.25000    1.000
    C34      C        0.04430    0.95570    0.25000    1.000
    Mg6      Mg       0.26644    0.53289    0.25000    1.000
    N30      N        0.19000    0.38000    0.25000    1.000
    C35      C        0.09540    0.19080    0.25000    1.000
    C36      C        0.04430    0.08860    0.25000    1.000
    O73      O        0.66667    0.33333    0.75000    1.000
    O74      O        0.33333    0.66667    0.25000    1.000
    C37      C        0.57515    0.15030    0.62850    1.000
    C38      C        0.53705    0.07410    0.55970    1.000
    C39      C        0.84970    0.42485    0.62850    1.000
    C40      C        0.92590    0.46295    0.55970    1.000
    C41      C        0.57515    0.42485    0.62850    1.000
    C42      C        0.53705    0.46295    0.55970    1.000
    C43      C        0.42485    0.84970    0.12850    1.000
    C44      C        0.46295    0.92590    0.05970    1.000
    C45      C        0.15030    0.57515    0.12850    1.000
    C46      C        0.07410    0.53705    0.05970    1.000
    C47      C        0.42485    0.57515    0.12850    1.000
    C48      C        0.46295    0.53705    0.05970    1.000
    C49      C        0.15030    0.57515    0.37150    1.000
    C50      C        0.07410    0.53705    0.44030    1.000
    C51      C        0.42485    0.84970    0.37150    1.000
    C52      C        0.46295    0.92590    0.44030    1.000
    C53      C        0.42485    0.57515    0.37150    1.000
    C54      C        0.46295    0.53705    0.44030    1.000
    C55      C        0.84970    0.42485    0.87150    1.000
    C56      C        0.92590    0.46295    0.94030    1.000
    C57      C        0.57515    0.15030    0.87150    1.000
    C58      C        0.53705    0.07410    0.94030    1.000
    C59      C        0.57515    0.42485    0.87150    1.000
    C60      C        0.53705    0.46295    0.94030    1.000
    C61      C        0.23800    0.18900    0.75000    1.000
    H1       H        0.20730    0.22180    0.75000    1.000
    C62      C        0.33360    0.23390    0.75000    1.000
    H2       H        0.36590    0.29740    0.75000    1.000
    C63      C        0.81100    0.04900    0.75000    1.000
    H3       H        0.77820    0.98550    0.75000    1.000
    C64      C        0.76610    0.09970    0.75000    1.000
    H4       H        0.70260    0.06850    0.75000    1.000
    C65      C        0.95100    0.76200    0.75000    1.000
    H5       H        0.01450    0.79270    0.75000    1.000
    C66      C        0.90030    0.66640    0.75000    1.000
    H6       H        0.93150    0.63410    0.75000    1.000
    C67      C        0.76200    0.81100    0.25000    1.000
    H7       H        0.79270    0.77820    0.25000    1.000
    C68      C        0.66640    0.76610    0.25000    1.000
    H8       H        0.63410    0.70260    0.25000    1.000
    C69      C        0.18900    0.95100    0.25000    1.000
    H9       H        0.22180    0.01450    0.25000    1.000
    C70      C        0.23390    0.90030    0.25000    1.000
    H10      H        0.29740    0.93150    0.25000    1.000
    C71      C        0.04900    0.23800    0.25000    1.000
    H11      H        0.98550    0.20730    0.25000    1.000
    C72      C        0.09970    0.33360    0.25000    1.000
    H12      H        0.06850    0.36590    0.25000    1.000
    C73      C        0.18900    0.23800    0.25000    1.000
    H13      H        0.22180    0.20730    0.25000    1.000
    C74      C        0.23390    0.33360    0.25000    1.000
    H14      H        0.29740    0.36590    0.25000    1.000
    C75      C        0.04900    0.81100    0.25000    1.000
    H15      H        0.98550    0.77820    0.25000    1.000
    C76      C        0.09970    0.76610    0.25000    1.000
    H16      H        0.06850    0.70260    0.25000    1.000
    C77      C        0.76200    0.95100    0.25000    1.000
    H17      H        0.79270    0.01450    0.25000    1.000
    C78      C        0.66640    0.90030    0.25000    1.000
    H18      H        0.63410    0.93150    0.25000    1.000
    C79      C        0.81100    0.76200    0.75000    1.000
    H19      H        0.77820    0.79270    0.75000    1.000
    C80      C        0.76610    0.66640    0.75000    1.000
    H20      H        0.70260    0.63410    0.75000    1.000
    C81      C        0.95100    0.18900    0.75000    1.000
    H21      H        0.01450    0.22180    0.75000    1.000
    C82      C        0.90030    0.23390    0.75000    1.000
    H22      H        0.93150    0.29740    0.75000    1.000
    C83      C        0.23800    0.04900    0.75000    1.000
    H23      H        0.20730    0.98550    0.75000    1.000
    C84      C        0.33360    0.09970    0.75000    1.000
    H24      H        0.36590    0.06850    0.75000    1.000
    N31      N        0.04700    0.95300    0.75000    1.000
    N32      N        0.04700    0.09400    0.75000    1.000
    N33      N        0.90600    0.95300    0.75000    1.000
    N34      N        0.95300    0.04700    0.25000    1.000
    N35      N        0.95300    0.90600    0.25000    1.000
    N36      N        0.09400    0.04700    0.25000    1.000
