# CIF file generated by openbabel 3.1.0, see https://openbabel.org
data_I
_chemical_name_common 'image0'
_cell_length_a 16.159
_cell_length_b 14.035
_cell_length_c 15.438
_cell_angle_alpha 90
_cell_angle_beta 109.09
_cell_angle_gamma 90
_space_group_name_H-M_alt 'P 1'
_space_group_name_Hall 'P 1'
loop_
    _symmetry_equiv_pos_as_xyz
    x,y,z
loop_
    _atom_site_label
    _atom_site_type_symbol
    _atom_site_fract_x
    _atom_site_fract_y
    _atom_site_fract_z
    _atom_site_occupancy
    N1       N        0.53870    0.29960    0.35030    1.000
    N2       N        0.54340    0.17490    0.43780    1.000
    N3       N        0.46120    0.50220    0.15630    1.000
    N4       N        0.38650    0.62010    0.07540    1.000
    C1       C        0.50120    0.21860    0.35800    1.000
    H1       H        0.45170    0.19440    0.31380    1.000
    C2       C        0.60950    0.30790    0.42960    1.000
    H2       H        0.64860    0.35870    0.44380    1.000
    C3       C        0.61340    0.23120    0.48340    1.000
    H3       H        0.65520    0.21900    0.54010    1.000
    C4       C        0.52120    0.08500    0.46920    1.000
    C5       C        0.58560    0.02230    0.51290    1.000
    H4       H        0.64380    0.03730    0.52120    1.000
    C6       C        0.43500    0.06340    0.45510    1.000
    H5       H        0.39110    0.10590    0.42430    1.000
    C7       C        0.38830    0.54970    0.13520    1.000
    H6       H        0.34320    0.53670    0.15850    1.000
    C8       C        0.50920    0.54290    0.10870    1.000
    H7       H        0.56480    0.52360    0.11050    1.000
    C9       C        0.46380    0.61550    0.05850    1.000
    H8       H        0.48180    0.65500    0.01960    1.000
    C10      C        0.31650    0.68660    0.03720    1.000
    C11      C        0.29410    0.71040    0.94610    1.000
    H9       H        0.32410    0.68360    0.90990    1.000
    C12      C        0.27330    0.72560    0.09170    1.000
    H10      H        0.28910    0.70930    0.15340    1.000
    N5       N        0.03870    0.79960    0.35030    1.000
    N6       N        0.04340    0.67490    0.43780    1.000
    N7       N        0.96120    0.00220    0.15630    1.000
    N8       N        0.88650    0.12010    0.07540    1.000
    C13      C        0.00120    0.71860    0.35800    1.000
    H11      H        0.95170    0.69440    0.31380    1.000
    C14      C        0.10950    0.80790    0.42960    1.000
    H12      H        0.14860    0.85870    0.44380    1.000
    C15      C        0.11340    0.73120    0.48340    1.000
    H13      H        0.15520    0.71900    0.54010    1.000
    C16      C        0.02120    0.58500    0.46920    1.000
    C17      C        0.08560    0.52230    0.51290    1.000
    H14      H        0.14380    0.53730    0.52120    1.000
    C18      C        0.93500    0.56340    0.45510    1.000
    H15      H        0.89110    0.60590    0.42430    1.000
    C19      C        0.88830    0.04970    0.13520    1.000
    H16      H        0.84320    0.03670    0.15850    1.000
    C20      C        0.00920    0.04290    0.10870    1.000
    H17      H        0.06480    0.02360    0.11050    1.000
    C21      C        0.96380    0.11550    0.05850    1.000
    H18      H        0.98180    0.15500    0.01960    1.000
    C22      C        0.81650    0.18660    0.03720    1.000
    C23      C        0.79410    0.21040    0.94610    1.000
    H19      H        0.82410    0.18360    0.90990    1.000
    C24      C        0.77330    0.22560    0.09170    1.000
    H20      H        0.78910    0.20930    0.15340    1.000
    N9       N        0.46130    0.29960    0.14970    1.000
    N10      N        0.45660    0.17490    0.06220    1.000
    N11      N        0.53880    0.50220    0.34370    1.000
    N12      N        0.61350    0.62010    0.42460    1.000
    C25      C        0.49880    0.21860    0.14200    1.000
    H21      H        0.54830    0.19440    0.18620    1.000
    C26      C        0.39050    0.30790    0.07040    1.000
    H22      H        0.35140    0.35870    0.05620    1.000
    C27      C        0.38660    0.23120    0.01660    1.000
    H23      H        0.34480    0.21900    0.95990    1.000
    C28      C        0.47880    0.08500    0.03080    1.000
    C29      C        0.41440    0.02230    0.98710    1.000
    H24      H        0.35620    0.03730    0.97880    1.000
    C30      C        0.56500    0.06340    0.04490    1.000
    H25      H        0.60890    0.10590    0.07570    1.000
    C31      C        0.61170    0.54970    0.36480    1.000
    H26      H        0.65680    0.53670    0.34150    1.000
    C32      C        0.49080    0.54290    0.39130    1.000
    H27      H        0.43520    0.52360    0.38950    1.000
    C33      C        0.53620    0.61550    0.44150    1.000
    H28      H        0.51820    0.65500    0.48040    1.000
    C34      C        0.68350    0.68660    0.46280    1.000
    C35      C        0.70590    0.71040    0.55390    1.000
    H29      H        0.67590    0.68360    0.59010    1.000
    C36      C        0.72670    0.72560    0.40830    1.000
    H30      H        0.71090    0.70930    0.34660    1.000
    N13      N        0.96130    0.79960    0.14970    1.000
    N14      N        0.95660    0.67490    0.06220    1.000
    N15      N        0.03880    0.00220    0.34370    1.000
    N16      N        0.11350    0.12010    0.42460    1.000
    C37      C        0.99880    0.71860    0.14200    1.000
    H31      H        0.04830    0.69440    0.18620    1.000
    C38      C        0.89050    0.80790    0.07040    1.000
    H32      H        0.85140    0.85870    0.05620    1.000
    C39      C        0.88660    0.73120    0.01660    1.000
    H33      H        0.84480    0.71900    0.95990    1.000
    C40      C        0.97880    0.58500    0.03080    1.000
    C41      C        0.91440    0.52230    0.98710    1.000
    H34      H        0.85620    0.53730    0.97880    1.000
    C42      C        0.06500    0.56340    0.04490    1.000
    H35      H        0.10890    0.60590    0.07570    1.000
    C43      C        0.11170    0.04970    0.36480    1.000
    H36      H        0.15680    0.03670    0.34150    1.000
    C44      C        0.99080    0.04290    0.39130    1.000
    H37      H        0.93520    0.02360    0.38950    1.000
    C45      C        0.03620    0.11550    0.44150    1.000
    H38      H        0.01820    0.15500    0.48040    1.000
    C46      C        0.18350    0.18660    0.46280    1.000
    C47      C        0.20590    0.21040    0.55390    1.000
    H39      H        0.17590    0.18360    0.59010    1.000
    C48      C        0.22670    0.22560    0.40830    1.000
    H40      H        0.21090    0.20930    0.34660    1.000
    N17      N        0.46130    0.70040    0.64970    1.000
    N18      N        0.45660    0.82510    0.56220    1.000
    N19      N        0.53880    0.49780    0.84370    1.000
    N20      N        0.61350    0.37990    0.92460    1.000
    C49      C        0.49880    0.78140    0.64200    1.000
    H41      H        0.54830    0.80560    0.68620    1.000
    C50      C        0.39050    0.69210    0.57040    1.000
    H42      H        0.35140    0.64130    0.55620    1.000
    C51      C        0.38660    0.76880    0.51660    1.000
    H43      H        0.34480    0.78100    0.45990    1.000
    C52      C        0.47880    0.91500    0.53080    1.000
    C53      C        0.41440    0.97770    0.48710    1.000
    H44      H        0.35620    0.96270    0.47880    1.000
    C54      C        0.56500    0.93660    0.54490    1.000
    H45      H        0.60890    0.89410    0.57570    1.000
    C55      C        0.61170    0.45030    0.86480    1.000
    H46      H        0.65680    0.46330    0.84150    1.000
    C56      C        0.49080    0.45710    0.89130    1.000
    H47      H        0.43520    0.47640    0.88950    1.000
    C57      C        0.53620    0.38450    0.94150    1.000
    H48      H        0.51820    0.34500    0.98040    1.000
    C58      C        0.68350    0.31340    0.96280    1.000
    C59      C        0.70590    0.28960    0.05390    1.000
    H49      H        0.67590    0.31640    0.09010    1.000
    C60      C        0.72670    0.27440    0.90830    1.000
    H50      H        0.71090    0.29070    0.84660    1.000
    N21      N        0.96130    0.20040    0.64970    1.000
    N22      N        0.95660    0.32510    0.56220    1.000
    N23      N        0.03880    0.99780    0.84370    1.000
    N24      N        0.11350    0.87990    0.92460    1.000
    C61      C        0.99880    0.28140    0.64200    1.000
    H51      H        0.04830    0.30560    0.68620    1.000
    C62      C        0.89050    0.19210    0.57040    1.000
    H52      H        0.85140    0.14130    0.55620    1.000
    C63      C        0.88660    0.26880    0.51660    1.000
    H53      H        0.84480    0.28100    0.45990    1.000
    C64      C        0.97880    0.41500    0.53080    1.000
    C65      C        0.91440    0.47770    0.48710    1.000
    H54      H        0.85620    0.46270    0.47880    1.000
    C66      C        0.06500    0.43660    0.54490    1.000
    H55      H        0.10890    0.39410    0.57570    1.000
    C67      C        0.11170    0.95030    0.86480    1.000
    H56      H        0.15680    0.96330    0.84150    1.000
    C68      C        0.99080    0.95710    0.89130    1.000
    H57      H        0.93520    0.97640    0.88950    1.000
    C69      C        0.03620    0.88450    0.94150    1.000
    H58      H        0.01820    0.84500    0.98040    1.000
    C70      C        0.18350    0.81340    0.96280    1.000
    C71      C        0.20590    0.78960    0.05390    1.000
    H59      H        0.17590    0.81640    0.09010    1.000
    C72      C        0.22670    0.77440    0.90830    1.000
    H60      H        0.21090    0.79070    0.84660    1.000
    N25      N        0.53870    0.70040    0.85030    1.000
    N26      N        0.54340    0.82510    0.93780    1.000
    N27      N        0.46120    0.49780    0.65630    1.000
    N28      N        0.38650    0.37990    0.57540    1.000
    C73      C        0.50120    0.78140    0.85800    1.000
    H61      H        0.45170    0.80560    0.81380    1.000
    C74      C        0.60950    0.69210    0.92960    1.000
    H62      H        0.64860    0.64130    0.94380    1.000
    C75      C        0.61340    0.76880    0.98340    1.000
    H63      H        0.65520    0.78100    0.04010    1.000
    C76      C        0.52120    0.91500    0.96920    1.000
    C77      C        0.58560    0.97770    0.01290    1.000
    H64      H        0.64380    0.96270    0.02120    1.000
    C78      C        0.43500    0.93660    0.95510    1.000
    H65      H        0.39110    0.89410    0.92430    1.000
    C79      C        0.38830    0.45030    0.63520    1.000
    H66      H        0.34320    0.46330    0.65850    1.000
    C80      C        0.50920    0.45710    0.60870    1.000
    H67      H        0.56480    0.47640    0.61050    1.000
    C81      C        0.46380    0.38450    0.55850    1.000
    H68      H        0.48180    0.34500    0.51960    1.000
    C82      C        0.31650    0.31340    0.53720    1.000
    C83      C        0.29410    0.28960    0.44610    1.000
    H69      H        0.32410    0.31640    0.40990    1.000
    C84      C        0.27330    0.27440    0.59170    1.000
    H70      H        0.28910    0.29070    0.65340    1.000
    N29      N        0.03870    0.20040    0.85030    1.000
    N30      N        0.04340    0.32510    0.93780    1.000
    N31      N        0.96120    0.99780    0.65630    1.000
    N32      N        0.88650    0.87990    0.57540    1.000
    C85      C        0.00120    0.28140    0.85800    1.000
    H71      H        0.95170    0.30560    0.81380    1.000
    C86      C        0.10950    0.19210    0.92960    1.000
    H72      H        0.14860    0.14130    0.94380    1.000
    C87      C        0.11340    0.26880    0.98340    1.000
    H73      H        0.15520    0.28100    0.04010    1.000
    C88      C        0.02120    0.41500    0.96920    1.000
    C89      C        0.08560    0.47770    0.01290    1.000
    H74      H        0.14380    0.46270    0.02120    1.000
    C90      C        0.93500    0.43660    0.95510    1.000
    H75      H        0.89110    0.39410    0.92430    1.000
    C91      C        0.88830    0.95030    0.63520    1.000
    H76      H        0.84320    0.96330    0.65850    1.000
    C92      C        0.00920    0.95710    0.60870    1.000
    H77      H        0.06480    0.97640    0.61050    1.000
    C93      C        0.96380    0.88450    0.55850    1.000
    H78      H        0.98180    0.84500    0.51960    1.000
    C94      C        0.81650    0.81340    0.53720    1.000
    C95      C        0.79410    0.78960    0.44610    1.000
    H79      H        0.82410    0.81640    0.40990    1.000
    C96      C        0.77330    0.77440    0.59170    1.000
    H80      H        0.78910    0.79070    0.65340    1.000
    Cu1      Cu       0.50000    0.39685    0.25000    1.000
    Cu2      Cu       0.00000    0.89685    0.25000    1.000
    Cu3      Cu       0.50000    0.60315    0.75000    1.000
    Cu4      Cu       0.00000    0.10315    0.75000    1.000
