data_functionalizedCrystal
_audit_creation_method	'EQeq! by Chris Wilmer'
_symmetry_space_group_name_H-M	'P1'
_symmetry_Int_Tables_number	1
_symmetry_cell_setting	triclinic
loop_
_symmetry_equiv_pos_as_xyz
  x,y,z
_cell_length_a	15.377
_cell_length_b	15.377
_cell_length_c	9.915
_cell_angle_alpha	90
_cell_angle_beta	90
_cell_angle_gamma	90
loop_
_atom_site_label
_atom_site_type_symbol
_atom_site_fract_x
_atom_site_fract_y
_atom_site_fract_z
_atom_site_charge
Mof_O 	O 	0.03106	0.87113	0.12089	-0.453
Mof_C 	C 	0.88646	0.74406	0.87942	0.074
Mof_H 	H 	0.9109	0.7624	0.7985	0.068
Mof_C 	C 	0.812	0.69346	0.8795	-0.063
Mof_H 	H 	0.7874	0.6763	0.798	0.079
Mof_O 	O 	0.96894	0.12887	0.12089	-0.454
Mof_C 	C 	0.11354	0.25594	0.87942	0.307
Mof_H 	H 	0.0891	0.2376	0.7985	-0.081
Mof_C 	C 	0.188	0.30654	0.8795	-0.265
Mof_H 	H 	0.2126	0.3237	0.798	0.136
Mof_O 	O 	0.12887	0.03106	0.12089	-0.521
Mof_C 	C 	0.25594	0.88646	0.87942	0.068
Mof_H 	H 	0.2376	0.9109	0.7985	0.072
Mof_C 	C 	0.30654	0.812	0.8795	-0.063
Mof_H 	H 	0.3237	0.7874	0.798	0.078
Mof_O 	O 	0.87113	0.96894	0.12089	-0.399
Mof_C 	C 	0.74406	0.11354	0.87942	0.292
Mof_H 	H 	0.7624	0.0891	0.7985	-0.072
Mof_C 	C 	0.69346	0.188	0.8795	-0.25
Mof_H 	H 	0.6763	0.2126	0.798	0.132
Mof_O 	O 	0.96894	0.87113	0.37911	-0.405
Mof_C 	C 	0.11354	0.74406	0.62058	0.265
Mof_H 	H 	0.0891	0.7624	0.7015	-0.064
Mof_C 	C 	0.188	0.69346	0.6205	-0.302
Mof_H 	H 	0.2126	0.6763	0.702	0.15
Mof_O 	O 	0.03106	0.12887	0.37911	-0.525
Mof_C 	C 	0.88646	0.25594	0.62058	0.032
Mof_H 	H 	0.9109	0.2376	0.7015	0.084
Mof_C 	C 	0.812	0.30654	0.6205	-0.109
Mof_H 	H 	0.7874	0.3237	0.702	0.094
Mof_O 	O 	0.87113	0.03106	0.37911	-0.458
Mof_C 	C 	0.74406	0.88646	0.62058	0.035
Mof_H 	H 	0.7624	0.9109	0.7015	0.081
Mof_C 	C 	0.69346	0.812	0.6205	-0.111
Mof_H 	H 	0.6763	0.7874	0.702	0.095
Mof_O 	O 	0.12887	0.96894	0.37911	-0.46
Mof_C 	C 	0.25594	0.11354	0.62058	0.283
Mof_H 	H 	0.2376	0.0891	0.7015	-0.073
Mof_C 	C 	0.30654	0.188	0.6205	-0.317
Mof_H 	H 	0.3237	0.2126	0.702	0.153
Mof_O 	O 	0.96894	0.12887	0.87911	-0.427
Mof_C 	C 	0.11354	0.25594	0.12058	0.275
Mof_H 	H 	0.0891	0.2376	0.2015	-0.075
Mof_C 	C 	0.188	0.30654	0.1205	-0.299
Mof_H 	H 	0.2126	0.3237	0.202	0.139
Mof_O 	O 	0.03106	0.87113	0.87911	-0.429
Mof_C 	C 	0.88646	0.74406	0.12058	0.037
Mof_H 	H 	0.9109	0.7624	0.2015	0.075
Mof_C 	C 	0.812	0.69346	0.1205	-0.1
Mof_H 	H 	0.7874	0.6763	0.202	0.083
Mof_O 	O 	0.87113	0.96894	0.87911	-0.37
Mof_C 	C 	0.74406	0.11354	0.12058	0.259
Mof_H 	H 	0.7624	0.0891	0.2015	-0.066
Mof_C 	C 	0.69346	0.188	0.1205	-0.285
Mof_H 	H 	0.6763	0.2126	0.202	0.136
Mof_O 	O 	0.12887	0.03106	0.87911	-0.497
Mof_C 	C 	0.25594	0.88646	0.12058	0.034
Mof_H 	H 	0.2376	0.9109	0.2015	0.078
Mof_C 	C 	0.30654	0.812	0.1205	-0.098
Mof_H 	H 	0.3237	0.7874	0.202	0.082
Mof_O 	O 	0.03106	0.12887	0.62089	-0.526
Mof_C 	C 	0.88646	0.25594	0.37942	0.03
Mof_H 	H 	0.9109	0.2376	0.2985	0.079
Mof_C 	C 	0.812	0.30654	0.3795	-0.11
Mof_H 	H 	0.7874	0.3237	0.298	0.085
Mof_O 	O 	0.96894	0.87113	0.62089	-0.404
Mof_C 	C 	0.11354	0.74406	0.37942	0.264
Mof_H 	H 	0.0891	0.7624	0.2985	-0.068
Mof_C 	C 	0.188	0.69346	0.3795	-0.303
Mof_H 	H 	0.2126	0.6763	0.298	0.142
Mof_O 	O 	0.12887	0.96894	0.62089	-0.459
Mof_C 	C 	0.25594	0.11354	0.37942	0.282
Mof_H 	H 	0.2376	0.0891	0.2985	-0.077
Mof_C 	C 	0.30654	0.188	0.3795	-0.317
Mof_H 	H 	0.3237	0.2126	0.298	0.145
Mof_O 	O 	0.87113	0.03106	0.62089	-0.458
Mof_C 	C 	0.74406	0.88646	0.37942	0.033
Mof_H 	H 	0.7624	0.9109	0.2985	0.076
Mof_C 	C 	0.69346	0.812	0.3795	-0.111
Mof_H 	H 	0.6763	0.7874	0.298	0.086
Mof_Sm	Sm	6.04398e-34	0	0.25	1.862
Mof_Sm	Sm	1.81319e-33	0	0.75	1.866
Mof_S 	S 	0.02635	0.81898	-0	0.503
Mof_N 	N 	0.53032	0.62897	-0	-0.115
Mof_O 	O 	0.08936	0.75032	-0	-0.311
Mof_C 	C 	0.92388	0.76685	-0	-0.05
Mof_C 	C 	0.77357	0.66802	-0	0.049
Mof_C 	C 	0.68939	0.6176	-0	-0.088
Mof_C 	C 	0.61372	0.66597	-0	0.108
Mof_C 	C 	0.60528	0.75694	-0	-0.099
Mof_H 	H 	0.6511	0.7964	-0	0.096
Mof_C 	C 	0.52193	0.77765	-0	-0.062
Mof_H 	H 	0.499	0.8336	-0	0.077
Mof_C 	C 	0.47265	0.69739	-0	0.101
Mof_S 	S 	0.97365	0.18102	-0	0.861
Mof_N 	N 	0.46968	0.37103	-0	-0.12
Mof_O 	O 	0.91064	0.24968	-0	-0.327
Mof_C 	C 	0.07612	0.23315	-0	-0.452
Mof_C 	C 	0.22643	0.33198	-0	0.182
Mof_C 	C 	0.31061	0.3824	-0	-0.143
Mof_C 	C 	0.38628	0.33403	-0	0.13
Mof_C 	C 	0.39472	0.24306	-0	-0.128
Mof_H 	H 	0.3489	0.2036	-0	0.088
Mof_C 	C 	0.47807	0.22235	-0	-0.06
Mof_H 	H 	0.501	0.1664	-0	0.035
Mof_C 	C 	0.52735	0.30261	-0	0.106
Mof_S 	S 	0.18102	0.02635	-0	0.513
Mof_N 	N 	0.37103	0.53032	-0	-0.118
Mof_O 	O 	0.24968	0.08936	-0	-0.315
Mof_C 	C 	0.23315	0.92388	-0	-0.037
Mof_C 	C 	0.33198	0.77357	-0	0.049
Mof_C 	C 	0.3824	0.68939	-0	-0.091
Mof_C 	C 	0.33403	0.61372	-0	0.108
Mof_C 	C 	0.24306	0.60528	-0	-0.11
Mof_H 	H 	0.2036	0.6511	-0	0.081
Mof_C 	C 	0.22235	0.52193	-0	-0.071
Mof_H 	H 	0.1664	0.499	-0	0.039
Mof_C 	C 	0.30261	0.47265	-0	0.111
Mof_S 	S 	0.81898	0.97365	-0	0.826
Mof_N 	N 	0.62897	0.46968	-0	-0.117
Mof_O 	O 	0.75032	0.91064	-0	-0.321
Mof_C 	C 	0.76685	0.07612	-0	-0.433
Mof_C 	C 	0.66802	0.22643	-0	0.171
Mof_C 	C 	0.6176	0.31061	-0	-0.136
Mof_C 	C 	0.66597	0.38628	-0	0.129
Mof_C 	C 	0.75694	0.39472	-0	-0.115
Mof_H 	H 	0.7964	0.3489	-0	0.104
Mof_C 	C 	0.77765	0.47807	-0	-0.053
Mof_H 	H 	0.8336	0.501	-0	0.074
Mof_C 	C 	0.69739	0.52735	-0	0.098
Mof_S 	S 	0.97365	0.81898	0.5	0.877
Mof_N 	N 	0.46968	0.62897	0.5	-0.114
Mof_O 	O 	0.91064	0.75032	0.5	-0.317
Mof_C 	C 	0.07612	0.76685	0.5	-0.409
Mof_C 	C 	0.22643	0.66802	0.5	0.22
Mof_C 	C 	0.31061	0.6176	0.5	-0.145
Mof_C 	C 	0.38628	0.66597	0.5	0.142
Mof_C 	C 	0.39472	0.75694	0.5	-0.111
Mof_H 	H 	0.3489	0.7964	0.5	0.111
Mof_C 	C 	0.47807	0.77765	0.5	-0.05
Mof_H 	H 	0.501	0.8336	0.5	0.083
Mof_C 	C 	0.52735	0.69739	0.5	0.111
Mof_S 	S 	0.02635	0.18102	0.5	0.544
Mof_N 	N 	0.53032	0.37103	0.5	-0.115
Mof_O 	O 	0.08936	0.24968	0.5	-0.31
Mof_C 	C 	0.92388	0.23315	0.5	0.001
Mof_C 	C 	0.77357	0.33198	0.5	0.096
Mof_C 	C 	0.68939	0.3824	0.5	-0.098
Mof_C 	C 	0.61372	0.33403	0.5	0.12
Mof_C 	C 	0.60528	0.24306	0.5	-0.107
Mof_H 	H 	0.6511	0.2036	0.5	0.087
Mof_C 	C 	0.52193	0.22235	0.5	-0.069
Mof_H 	H 	0.499	0.1664	0.5	0.046
Mof_C 	C 	0.47265	0.30261	0.5	0.124
Mof_S 	S 	0.81898	0.02635	0.5	0.538
Mof_N 	N 	0.62897	0.53032	0.5	-0.112
Mof_O 	O 	0.75032	0.08936	0.5	-0.306
Mof_C 	C 	0.76685	0.92388	0.5	-0.009
Mof_C 	C 	0.66802	0.77357	0.5	0.097
Mof_C 	C 	0.6176	0.68939	0.5	-0.096
Mof_C 	C 	0.66597	0.61372	0.5	0.121
Mof_C 	C 	0.75694	0.60528	0.5	-0.095
Mof_H 	H 	0.7964	0.6511	0.5	0.104
Mof_C 	C 	0.77765	0.52193	0.5	-0.059
Mof_H 	H 	0.8336	0.499	0.5	0.086
Mof_C 	C 	0.69739	0.47265	0.5	0.114
Mof_S 	S 	0.18102	0.97365	0.5	0.909
Mof_N 	N 	0.37103	0.46968	0.5	-0.117
Mof_O 	O 	0.24968	0.91064	0.5	-0.324
Mof_C 	C 	0.23315	0.07612	0.5	-0.431
Mof_C 	C 	0.33198	0.22643	0.5	0.23
Mof_C 	C 	0.3824	0.31061	0.5	-0.152
Mof_C 	C 	0.33403	0.38628	0.5	0.143
Mof_C 	C 	0.24306	0.39472	0.5	-0.125
Mof_H 	H 	0.2036	0.3489	0.5	0.094
Mof_C 	C 	0.22235	0.47807	0.5	-0.058
Mof_H 	H 	0.1664	0.501	0.5	0.043
Mof_C 	C 	0.30261	0.52735	0.5	0.119
_end
