data_functionalizedCrystal
_audit_creation_method	'EQeq! by Chris Wilmer'
_symmetry_space_group_name_H-M	'P1'
_symmetry_Int_Tables_number	1
_symmetry_cell_setting	triclinic
loop_
_symmetry_equiv_pos_as_xyz
  x,y,z
_cell_length_a	13.5488
_cell_length_b	21.114
_cell_length_c	21.114
_cell_angle_alpha	84.0912
_cell_angle_beta	71.2857
_cell_angle_gamma	71.2856
loop_
_atom_site_label
_atom_site_type_symbol
_atom_site_fract_x
_atom_site_fract_y
_atom_site_fract_z
_atom_site_charge
Mof_Ca	Ca	0.37206	0.81467	0.19513	1.277
Mof_Ca	Ca	0.88186	0.68533	0.30487	1.277
Mof_Ca	Ca	0.56719	0.80487	0.31467	1.277
Mof_Ca	Ca	0.18673	0.69513	0.18533	1.276
Mof_H 	H 	0.7841	0.7543	0.1839	0.001
Mof_H 	H 	0.0207	0.7412	0.0058	0.061
Mof_H 	H 	0.7099	0.7693	0.0097	0.063
Mof_H 	H 	0.8765	0.9125	0.8055	0.05
Mof_H 	H 	0.042	0.5906	0.811	0.056
Mof_H 	H 	0.2223	0.7457	0.3161	0.002
Mof_H 	H 	0.2677	0.7588	0.4942	0.063
Mof_H 	H 	0.9889	0.7307	0.4903	0.064
Mof_H 	H 	0.0945	0.5875	0.6945	0.051
Mof_H 	H 	0.9436	0.9094	0.689	0.057
Mof_H 	H 	0.968	0.8161	0.2543	0.001
Mof_H 	H 	0.0265	0.9942	0.2412	0.061
Mof_H 	H 	0.7196	0.9903	0.2693	0.064
Mof_H 	H 	0.682	0.1945	0.4125	0.051
Mof_H 	H 	0.853	0.189	0.0906	0.057
Mof_H 	H 	0.5384	0.6839	0.2457	0.003
Mof_H 	H 	0.7619	0.5058	0.2588	0.064
Mof_H 	H 	0.4792	0.5097	0.2307	0.065
Mof_H 	H 	0.789	0.3055	0.0875	0.051
Mof_H 	H 	0.6326	0.311	0.4094	0.057
Mof_C 	C 	0.6097	0.77954	0.14006	0.395
Mof_C 	C 	0.00097	0.73235	0.13531	0.383
Mof_C 	C 	0.72789	0.76537	0.10245	-0.112
Mof_C 	C 	0.80631	0.75458	0.1364	0.058
Mof_C 	C 	0.91625	0.74447	0.10043	-0.107
Mof_C 	C 	0.94689	0.74558	0.03104	-0.033
Mof_C 	C 	0.8696	0.75306	0.99874	0.097
Mof_C 	C 	0.76155	0.76342	0.03308	-0.037
Mof_C 	C 	0.9496	0.6898	0.8946	0.223
Mof_C 	C 	0.888	0.814	0.8928	0.219
Mof_C 	C 	0.9119	0.8708	0.783	-0.024
Mof_C 	C 	0.92606	0.81167	0.81881	-0.06
Mof_C 	C 	0.0322	0.6314	0.7868	-0.022
Mof_C 	C 	0.9857	0.6901	0.8217	-0.064
Mof_C 	C 	0.9746	0.7498	0.786	0.033
Mof_C 	C 	0.0293	0.72046	0.35994	0.393
Mof_C 	C 	0.36863	0.76765	0.36469	0.385
Mof_C 	C 	0.09571	0.73463	0.39755	-0.111
Mof_C 	C 	0.19729	0.74542	0.3636	0.056
Mof_C 	C 	0.26115	0.75553	0.39957	-0.107
Mof_C 	C 	0.22351	0.75442	0.46896	-0.037
Mof_C 	C 	0.1214	0.74694	0.50126	0.1
Mof_C 	C 	0.05805	0.73658	0.46692	-0.04
Mof_C 	C 	0.034	0.8102	0.6054	0.223
Mof_C 	C 	0.0948	0.686	0.6072	0.219
Mof_C 	C 	0.0657	0.6292	0.717	-0.025
Mof_C 	C 	0.05654	0.68833	0.68119	-0.06
Mof_C 	C 	0.9504	0.8686	0.7132	-0.023
Mof_C 	C 	0.9975	0.8099	0.6783	-0.063
Mof_C 	C 	0.0104	0.7502	0.714	0.033
Mof_C 	C 	0.74976	0.85994	0.27954	0.396
Mof_C 	C 	0.13628	0.86469	0.23235	0.387
Mof_C 	C 	0.83034	0.89755	0.26537	-0.114
Mof_C 	C 	0.94271	0.8636	0.25458	0.061
Mof_C 	C 	0.01668	0.89957	0.24447	-0.113
Mof_C 	C 	0.97793	0.96896	0.24558	-0.029
Mof_C 	C 	0.86834	0.00126	0.25306	0.095
Mof_C 	C 	0.79463	0.96692	0.26342	-0.036
Mof_C 	C 	0.8442	0.1054	0.1898	0.223
Mof_C 	C 	0.7808	0.1072	0.314	0.219
Mof_C 	C 	0.6949	0.217	0.3708	-0.024
Mof_C 	C 	0.74487	0.18119	0.31167	-0.06
Mof_C 	C 	0.819	0.2132	0.1314	-0.023
Mof_C 	C 	0.8074	0.1783	0.1901	-0.063
Mof_C 	C 	0.7606	0.214	0.2498	0.033
Mof_C 	C 	0.38924	0.64006	0.22046	0.394
Mof_C 	C 	0.73332	0.63531	0.26765	0.385
Mof_C 	C 	0.49326	0.60245	0.23463	-0.111
Mof_C 	C 	0.56089	0.6364	0.24542	0.057
Mof_C 	C 	0.66072	0.60043	0.25553	-0.107
Mof_C 	C 	0.69247	0.53104	0.25442	-0.037
Mof_C 	C 	0.62266	0.49874	0.24694	0.1
Mof_C 	C 	0.52497	0.53308	0.23658	-0.039
Mof_C 	C 	0.6394	0.3946	0.3102	0.223
Mof_C 	C 	0.702	0.3928	0.186	0.219
Mof_C 	C 	0.7827	0.283	0.1292	-0.024
Mof_C 	C 	0.73773	0.31881	0.18833	-0.06
Mof_C 	C 	0.6636	0.2868	0.3686	-0.023
Mof_C 	C 	0.6758	0.3217	0.3099	-0.063
Mof_C 	C 	0.7244	0.286	0.2502	0.033
Mof_N 	N 	0.90664	0.75127	0.92545	-0.179
Mof_N 	N 	0.08336	0.74873	0.57455	-0.179
Mof_N 	N 	0.83209	0.07455	0.25127	-0.178
Mof_N 	N 	0.65791	0.42545	0.24873	-0.179
Mof_O 	O 	0.57854	0.79415	0.20097	-0.486
Mof_O 	O 	0.5457	0.77821	0.10999	-0.433
Mof_O 	O 	0.97841	0.71127	0.19491	-0.489
Mof_O 	O 	0.08948	0.74104	0.1042	-0.424
Mof_O 	O 	0.95669	0.63927	0.92735	-0.222
Mof_O 	O 	0.84604	0.8649	0.92402	-0.228
Mof_O 	O 	0.07366	0.70585	0.29903	-0.486
Mof_O 	O 	0.9339	0.72179	0.39001	-0.432
Mof_O 	O 	0.38459	0.78873	0.30509	-0.491
Mof_O 	O 	0.43472	0.75896	0.3958	-0.424
Mof_O 	O 	0.02331	0.86073	0.57265	-0.221
Mof_O 	O 	0.13496	0.6351	0.57598	-0.228
Mof_O 	O 	0.77951	0.79903	0.29415	-0.486
Mof_O 	O 	0.65569	0.89001	0.27821	-0.433
Mof_O 	O 	0.17332	0.80509	0.21127	-0.491
Mof_O 	O 	0.19368	0.8958	0.24104	-0.425
Mof_O 	O 	0.88404	0.07265	0.13927	-0.221
Mof_O 	O 	0.77006	0.07598	0.3649	-0.228
Mof_O 	O 	0.37269	0.70097	0.20585	-0.486
Mof_O 	O 	0.32391	0.60999	0.22179	-0.433
Mof_O 	O 	0.68968	0.69491	0.28873	-0.491
Mof_O 	O 	0.83052	0.6042	0.25896	-0.424
Mof_O 	O 	0.59596	0.42735	0.36073	-0.221
Mof_O 	O 	0.71094	0.42402	0.1351	-0.228
Mof_Ca	Ca	0.62794	0.18533	0.80487	1.278
Mof_Ca	Ca	0.11814	0.31467	0.69513	1.278
Mof_Ca	Ca	0.43281	0.19513	0.68533	1.278
Mof_Ca	Ca	0.81327	0.30487	0.81467	1.277
Mof_H 	H 	0.2159	0.2457	0.8161	0.002
Mof_H 	H 	0.9793	0.2588	0.9942	0.062
Mof_H 	H 	0.2901	0.2307	0.9903	0.064
Mof_H 	H 	0.1235	0.0875	0.1945	0.051
Mof_H 	H 	0.958	0.4094	0.189	0.057
Mof_H 	H 	0.7777	0.2543	0.6839	0.003
Mof_H 	H 	0.7323	0.2412	0.5058	0.064
Mof_H 	H 	0.0111	0.2693	0.5097	0.065
Mof_H 	H 	0.9055	0.4125	0.3055	0.051
Mof_H 	H 	0.0564	0.0906	0.311	0.057
Mof_H 	H 	0.032	0.1839	0.7457	0.001
Mof_H 	H 	0.9735	0.0058	0.7588	0.061
Mof_H 	H 	0.2804	0.0097	0.7307	0.064
Mof_H 	H 	0.318	0.8055	0.5875	0.051
Mof_H 	H 	0.147	0.811	0.9094	0.057
Mof_H 	H 	0.4616	0.3161	0.7543	0.003
Mof_H 	H 	0.2381	0.4942	0.7412	0.064
Mof_H 	H 	0.5208	0.4903	0.7693	0.065
Mof_H 	H 	0.211	0.6945	0.9125	0.051
Mof_H 	H 	0.3674	0.689	0.5906	0.057
Mof_C 	C 	0.3903	0.22046	0.85994	0.395
Mof_C 	C 	0.99903	0.26765	0.86469	0.383
Mof_C 	C 	0.27211	0.23463	0.89755	-0.112
Mof_C 	C 	0.19369	0.24542	0.8636	0.058
Mof_C 	C 	0.08375	0.25553	0.89957	-0.107
Mof_C 	C 	0.05311	0.25442	0.96896	-0.033
Mof_C 	C 	0.1304	0.24694	0.00126	0.097
Mof_C 	C 	0.23845	0.23658	0.96692	-0.037
Mof_C 	C 	0.0504	0.3102	0.1054	0.223
Mof_C 	C 	0.112	0.186	0.1072	0.219
Mof_C 	C 	0.0881	0.1292	0.217	-0.024
Mof_C 	C 	0.07394	0.18833	0.18119	-0.06
Mof_C 	C 	0.9678	0.3686	0.2132	-0.022
Mof_C 	C 	0.0143	0.3099	0.1783	-0.064
Mof_C 	C 	0.0254	0.2502	0.214	0.033
Mof_C 	C 	0.9707	0.27954	0.64006	0.393
Mof_C 	C 	0.63137	0.23235	0.63531	0.385
Mof_C 	C 	0.90429	0.26537	0.60245	-0.111
Mof_C 	C 	0.80271	0.25458	0.6364	0.056
Mof_C 	C 	0.73885	0.24447	0.60043	-0.107
Mof_C 	C 	0.77649	0.24558	0.53104	-0.037
Mof_C 	C 	0.8786	0.25306	0.49874	0.1
Mof_C 	C 	0.94195	0.26342	0.53308	-0.04
Mof_C 	C 	0.966	0.1898	0.3946	0.223
Mof_C 	C 	0.9052	0.314	0.3928	0.219
Mof_C 	C 	0.9343	0.3708	0.283	-0.025
Mof_C 	C 	0.94346	0.31167	0.31881	-0.06
Mof_C 	C 	0.0496	0.1314	0.2868	-0.023
Mof_C 	C 	0.0025	0.1901	0.3217	-0.063
Mof_C 	C 	0.9896	0.2498	0.286	0.033
Mof_C 	C 	0.25024	0.14006	0.72046	0.396
Mof_C 	C 	0.86372	0.13531	0.76765	0.387
Mof_C 	C 	0.16966	0.10245	0.73463	-0.114
Mof_C 	C 	0.05729	0.1364	0.74542	0.061
Mof_C 	C 	0.98332	0.10043	0.75553	-0.113
Mof_C 	C 	0.02207	0.03104	0.75442	-0.029
Mof_C 	C 	0.13166	0.99874	0.74694	0.095
Mof_C 	C 	0.20537	0.03308	0.73658	-0.036
Mof_C 	C 	0.1558	0.8946	0.8102	0.223
Mof_C 	C 	0.2192	0.8928	0.686	0.219
Mof_C 	C 	0.3051	0.783	0.6292	-0.024
Mof_C 	C 	0.25513	0.81881	0.68833	-0.06
Mof_C 	C 	0.181	0.7868	0.8686	-0.023
Mof_C 	C 	0.1926	0.8217	0.8099	-0.063
Mof_C 	C 	0.2394	0.786	0.7502	0.033
Mof_C 	C 	0.61076	0.35994	0.77954	0.394
Mof_C 	C 	0.26668	0.36469	0.73235	0.385
Mof_C 	C 	0.50674	0.39755	0.76537	-0.111
Mof_C 	C 	0.43911	0.3636	0.75458	0.057
Mof_C 	C 	0.33928	0.39957	0.74447	-0.107
Mof_C 	C 	0.30753	0.46896	0.74558	-0.037
Mof_C 	C 	0.37734	0.50126	0.75306	0.1
Mof_C 	C 	0.47503	0.46692	0.76342	-0.039
Mof_C 	C 	0.3606	0.6054	0.6898	0.223
Mof_C 	C 	0.298	0.6072	0.814	0.219
Mof_C 	C 	0.2173	0.717	0.8708	-0.024
Mof_C 	C 	0.26227	0.68119	0.81167	-0.06
Mof_C 	C 	0.3364	0.7132	0.6314	-0.023
Mof_C 	C 	0.3242	0.6783	0.6901	-0.063
Mof_C 	C 	0.2756	0.714	0.7498	0.033
Mof_N 	N 	0.09336	0.24873	0.07455	-0.179
Mof_N 	N 	0.91664	0.25127	0.42545	-0.179
Mof_N 	N 	0.16791	0.92545	0.74873	-0.178
Mof_N 	N 	0.34209	0.57455	0.75127	-0.179
Mof_O 	O 	0.42146	0.20585	0.79903	-0.486
Mof_O 	O 	0.4543	0.22179	0.89001	-0.433
Mof_O 	O 	0.02159	0.28873	0.80509	-0.489
Mof_O 	O 	0.91052	0.25896	0.8958	-0.424
Mof_O 	O 	0.04331	0.36073	0.07265	-0.222
Mof_O 	O 	0.15396	0.1351	0.07598	-0.228
Mof_O 	O 	0.92634	0.29415	0.70097	-0.486
Mof_O 	O 	0.0661	0.27821	0.60999	-0.432
Mof_O 	O 	0.61541	0.21127	0.69491	-0.491
Mof_O 	O 	0.56528	0.24104	0.6042	-0.424
Mof_O 	O 	0.97669	0.13927	0.42735	-0.221
Mof_O 	O 	0.86504	0.3649	0.42402	-0.228
Mof_O 	O 	0.22049	0.20097	0.70585	-0.486
Mof_O 	O 	0.34431	0.10999	0.72179	-0.433
Mof_O 	O 	0.82668	0.19491	0.78873	-0.491
Mof_O 	O 	0.80632	0.1042	0.75896	-0.425
Mof_O 	O 	0.11596	0.92735	0.86073	-0.221
Mof_O 	O 	0.22994	0.92402	0.6351	-0.228
Mof_O 	O 	0.62731	0.29903	0.79415	-0.486
Mof_O 	O 	0.67609	0.39001	0.77821	-0.433
Mof_O 	O 	0.31032	0.30509	0.71127	-0.491
Mof_O 	O 	0.16948	0.3958	0.74104	-0.424
Mof_O 	O 	0.40404	0.57265	0.63927	-0.221
Mof_O 	O 	0.28906	0.57598	0.8649	-0.228
_end
