data_functionalizedCrystal
_audit_creation_method	'EQeq! by Chris Wilmer'
_symmetry_space_group_name_H-M	'P1'
_symmetry_Int_Tables_number	1
_symmetry_cell_setting	triclinic
loop_
_symmetry_equiv_pos_as_xyz
  x,y,z
_cell_length_a	11.405
_cell_length_b	13.0515
_cell_length_c	18.4855
_cell_angle_alpha	101.734
_cell_angle_beta	95.682
_cell_angle_gamma	115.79
loop_
_atom_site_label
_atom_site_type_symbol
_atom_site_fract_x
_atom_site_fract_y
_atom_site_fract_z
_atom_site_charge
Mof_Cs	Cs	0.1727	0.6399	0.32379	2.152
Mof_Cs	Cs	0.2547	0.6792	0.347	1.368
Mof_Cs	Cs	0.61551	0.74588	0.19017	3.819
Mof_Co	Co	0.3446	0.16291	0.14229	1.165
Mof_Co	Co	0.5654	0.35317	0.28685	1.158
Mof_Co	Co	0.52491	0.09151	0.24102	1.157
Mof_Co	Co	0.29832	0.15377	0.30401	1.161
Mof_Co	Co	0.25822	0.22362	0.58441	1.053
Mof_Co	Co	0.73776	0.98208	0.08144	1.116
Mof_O 	O 	0.5453	0.2292	0.1878	-0.629
Mof_O 	O 	0.6199	0.0673	0.151	-0.484
Mof_O 	O 	0.7353	0.1428	0.0719	-0.38
Mof_O 	O 	0.6845	0.4852	0.2425	-0.595
Mof_O 	O 	0.8649	0.5597	0.2003	-0.562
Mof_O 	O 	0.382	0.0996	0.0367	-0.541
Mof_O 	O 	0.4638	0.1642	0.9439	-0.724
Mof_O 	O 	0.3641	0.2811	0.2451	-0.616
Mof_O 	O 	0.2997	0.2684	0.0898	-0.474
Mof_O 	O 	0.1843	0.3615	0.0706	-0.417
Mof_O 	O 	0.5444	0.4925	0.3602	-0.46
Mof_O 	O 	0.5592	0.6603	0.3414	-0.733
Mof_O 	O 	0.2467	0.2805	0.36	-0.435
Mof_O 	O 	0.2135	0.4327	0.3481	-0.598
Mof_O 	O 	0.5079	0.2077	0.331	-0.616
Mof_O 	O 	0.7297	0.4045	0.3715	-0.437
Mof_O 	O 	0.7966	0.3764	0.4799	-0.541
Mof_O 	O 	0.7051	0.1268	0.3078	-0.457
Mof_O 	O 	0.8148	0.1255	0.4118	-0.282
Mof_O 	O 	0.3434	0.1333	0.5217	-0.444
Mof_O 	O 	0.2902	0.09	0.3979	-0.454
Mof_O 	O 	0.3225	0.0495	0.2101	-0.623
Mof_O 	O 	0.461	0.9162	0.2417	-0.616
Mof_O 	O 	0.3313	0.7256	0.1915	-0.807
Mof_O 	O 	0.1467	0.0285	0.0986	-0.371
Mof_O 	O 	0.0158	0.8395	0.0857	-0.288
Mof_O 	O 	0.0898	0.0383	0.2655	-0.434
Mof_O 	O 	0.9447	0.8625	0.2702	-0.498
Mof_O 	O 	0.2097	0.0954	0.6444	-0.53
Mof_O 	O 	0.9738	0.5797	0.4143	-0.584
Mof_O 	O 	0.827	0.0247	0.2003	-0.456
Mof_O 	O 	0.775	0.8319	0.0638	-0.533
Mof_C 	C 	0.6404	0.2543	0.142	0.295
Mof_C 	C 	0.6665	0.147	0.1197	0.228
Mof_C 	C 	0.7754	0.361	0.188	-0.597
Mof_H 	H 	0.8012	0.3443	0.234	0.142
Mof_H 	H 	0.8431	0.3681	0.1586	0.157
Mof_C 	C 	0.7734	0.474	0.208	0.509
Mof_C 	C 	0.5934	0.2783	0.0695	-0.538
Mof_H 	H 	0.5716	0.3427	0.0839	0.089
Mof_H 	H 	0.6674	0.3054	0.0443	0.146
Mof_C 	C 	0.4772	0.1777	0.0143	0.511
Mof_C 	C 	0.2997	0.3542	0.2512	0.146
Mof_C 	C 	0.181	0.3026	0.184	-0.435
Mof_H 	H 	0.1254	0.2196	0.1799	0.129
Mof_H 	H 	0.1276	0.343	0.1936	0.068
Mof_C 	C 	0.223	0.3142	0.1115	0.417
Mof_C 	C 	0.3983	0.482	0.2525	-0.28
Mof_H 	H 	0.439	0.4793	0.209	-0.086
Mof_H 	H 	0.3491	0.5259	0.248	-0.135
Mof_C 	C 	0.5081	0.548	0.3239	0.318
Mof_C 	C 	0.2512	0.3555	0.3274	0.335
Mof_C 	C 	0.5779	0.2347	0.4048	0.219
Mof_C 	C 	0.7127	0.3481	0.4201	0.273
Mof_C 	C 	0.6087	0.1356	0.4166	-0.431
Mof_H 	H 	0.5275	0.0608	0.3989	0.146
Mof_H 	H 	0.6387	0.1493	0.4703	0.105
Mof_C 	C 	0.7153	0.1269	0.3752	0.415
Mof_C 	C 	0.5005	0.2593	0.4621	-0.433
Mof_H 	H 	0.5561	0.2872	0.5123	0.042
Mof_H 	H 	0.4826	0.3226	0.4538	0.112
Mof_C 	C 	0.3702	0.1546	0.4599	0.411
Mof_C 	C 	0.2222	0.9338	0.1766	0.238
Mof_C 	C 	0.2808	0.8572	0.1379	-0.496
Mof_H 	H 	0.2087	0.7831	0.1057	0.137
Mof_H 	H 	0.3365	0.8976	0.1059	0.141
Mof_C 	C 	0.3628	0.8309	0.1937	0.412
Mof_C 	C 	0.118	0.9314	0.1153	0.196
Mof_C 	C 	0.147	0.8803	0.2374	-0.399
Mof_H 	H 	0.0957	0.795	0.2173	0.023
Mof_H 	H 	0.2118	0.8969	0.2821	0.037
Mof_C 	C 	0.0542	0.9311	0.2595	0.414
Mof_O 	O 	0.1479	0.8513	0.4325	-0.401
Mof_O 	O 	0.441	0.839	0.3728	-0.669
Mof_Cs	Cs	0.8273	0.3601	0.67621	2.169
Mof_Cs	Cs	0.7453	0.3208	0.653	1.521
Mof_Cs	Cs	0.38449	0.25412	0.80983	3.787
Mof_Co	Co	0.6554	0.83709	0.85771	1.165
Mof_Co	Co	0.4346	0.64683	0.71315	1.158
Mof_Co	Co	0.47509	0.90849	0.75898	1.157
Mof_Co	Co	0.70168	0.84623	0.69599	1.162
Mof_Co	Co	0.74178	0.77638	0.41559	1.061
Mof_Co	Co	0.26224	0.01792	0.91856	1.111
Mof_O 	O 	0.4547	0.7708	0.8122	-0.628
Mof_O 	O 	0.3801	0.9327	0.849	-0.487
Mof_O 	O 	0.2647	0.8572	0.9281	-0.394
Mof_O 	O 	0.3155	0.5148	0.7575	-0.598
Mof_O 	O 	0.1351	0.4403	0.7997	-0.594
Mof_O 	O 	0.618	0.9004	0.9633	-0.54
Mof_O 	O 	0.5362	0.8358	0.0561	-0.721
Mof_O 	O 	0.6359	0.7189	0.7549	-0.616
Mof_O 	O 	0.7003	0.7316	0.9102	-0.473
Mof_O 	O 	0.8157	0.6385	0.9294	-0.399
Mof_O 	O 	0.4556	0.5075	0.6398	-0.462
Mof_O 	O 	0.4408	0.3397	0.6586	-0.736
Mof_O 	O 	0.7533	0.7195	0.64	-0.424
Mof_O 	O 	0.7865	0.5673	0.6519	-0.595
Mof_O 	O 	0.4921	0.7923	0.669	-0.617
Mof_O 	O 	0.2703	0.5955	0.6285	-0.444
Mof_O 	O 	0.2034	0.6236	0.5201	-0.554
Mof_O 	O 	0.2949	0.8732	0.6922	-0.465
Mof_O 	O 	0.1852	0.8745	0.5882	-0.303
Mof_O 	O 	0.6566	0.8667	0.4783	-0.442
Mof_O 	O 	0.7098	0.91	0.6021	-0.451
Mof_O 	O 	0.6775	0.9505	0.7899	-0.631
Mof_O 	O 	0.539	0.0838	0.7583	-0.616
Mof_O 	O 	0.6687	0.2744	0.8085	-0.811
Mof_O 	O 	0.8533	0.9715	0.9014	-0.355
Mof_O 	O 	0.9842	0.1605	0.9143	-0.246
Mof_O 	O 	0.9102	0.9617	0.7345	-0.443
Mof_O 	O 	0.0553	0.1375	0.7298	-0.591
Mof_O 	O 	0.7903	0.9046	0.3556	-0.52
Mof_O 	O 	0.0262	0.4203	0.5857	-0.641
Mof_O 	O 	0.173	0.9753	0.7997	-0.481
Mof_O 	O 	0.225	0.1681	0.9362	-0.554
Mof_C 	C 	0.3596	0.7457	0.858	0.285
Mof_C 	C 	0.3335	0.853	0.8803	0.231
Mof_C 	C 	0.2246	0.639	0.812	-0.581
Mof_H 	H 	0.1988	0.6557	0.766	0.126
Mof_H 	H 	0.1569	0.6319	0.8414	0.134
Mof_C 	C 	0.2266	0.526	0.792	0.505
Mof_C 	C 	0.4066	0.7217	0.9305	-0.525
Mof_H 	H 	0.4284	0.6573	0.9161	0.084
Mof_H 	H 	0.3326	0.6946	0.9557	0.135
Mof_C 	C 	0.5228	0.8223	0.9857	0.501
Mof_C 	C 	0.7003	0.6458	0.7488	0.15
Mof_C 	C 	0.819	0.6974	0.816	-0.449
Mof_H 	H 	0.8746	0.7804	0.8201	0.148
Mof_H 	H 	0.8724	0.657	0.8064	0.086
Mof_C 	C 	0.777	0.6858	0.8885	0.425
Mof_C 	C 	0.6017	0.518	0.7475	-0.279
Mof_H 	H 	0.561	0.5207	0.791	-0.086
Mof_H 	H 	0.6509	0.4741	0.752	-0.141
Mof_C 	C 	0.4919	0.452	0.6761	0.316
Mof_C 	C 	0.7488	0.6445	0.6726	0.338
Mof_C 	C 	0.4221	0.7653	0.5952	0.222
Mof_C 	C 	0.2873	0.6519	0.5799	0.273
Mof_C 	C 	0.3913	0.8644	0.5834	-0.438
Mof_H 	H 	0.4725	0.9392	0.6011	0.148
Mof_H 	H 	0.3613	0.8507	0.5297	0.11
Mof_C 	C 	0.2847	0.8731	0.6248	0.419
Mof_C 	C 	0.4995	0.7407	0.5379	-0.442
Mof_H 	H 	0.4439	0.7128	0.4877	0.051
Mof_H 	H 	0.5174	0.6774	0.5462	0.115
Mof_C 	C 	0.6298	0.8454	0.5401	0.415
Mof_C 	C 	0.7778	0.0662	0.8234	0.264
Mof_C 	C 	0.7192	0.1428	0.8621	-0.514
Mof_H 	H 	0.7913	0.2169	0.8943	0.149
Mof_H 	H 	0.6635	0.1024	0.8941	0.148
Mof_C 	C 	0.6372	0.1691	0.8063	0.418
Mof_C 	C 	0.882	0.0686	0.8847	0.185
Mof_C 	C 	0.853	0.1197	0.7626	-0.463
Mof_H 	H 	0.9043	0.205	0.7827	0.058
Mof_H 	H 	0.7882	0.1031	0.7179	0.055
Mof_C 	C 	0.9458	0.0689	0.7405	0.534
Mof_O 	O 	0.8521	0.1487	0.5675	-0.383
Mof_O 	O 	0.559	0.161	0.6272	-0.696
Mof_Co	Co	1.19909e-17	0.5	0.5	1.069
_end
