# CIF file generated by openbabel 3.1.0, see https://openbabel.org
data_I
_chemical_name_common 'CETFOX_clean'
_cell_length_a 7.768
_cell_length_b 14.344
_cell_length_c 16.125
_cell_angle_alpha 92.98
_cell_angle_beta 95.605
_cell_angle_gamma 99.593
_space_group_name_H-M_alt 'P 1'
_space_group_name_Hall 'P 1'
loop_
    _symmetry_equiv_pos_as_xyz
    x,y,z
loop_
    _atom_site_label
    _atom_site_type_symbol
    _atom_site_fract_x
    _atom_site_fract_y
    _atom_site_fract_z
    _atom_site_occupancy
    Nd1      Nd       0.77568    0.75675    0.72405    1.000
    Nd2      Nd       0.72824    0.30122    0.21240    1.000
    Nd3      Nd       0.22432    0.24325    0.27595    1.000
    Nd4      Nd       0.27176    0.69878    0.78760    1.000
    H1       H        0.28000    0.05300    0.08510    1.000
    H2       H        0.20190    0.14040    0.05450    1.000
    H3       H        0.29550    0.52660    0.58050    1.000
    H4       H        0.23510    0.62490    0.57590    1.000
    H5       H        0.83230    0.64710    0.01190    1.000
    H6       H        0.74750    0.55170    0.96150    1.000
    H7       H        0.09920    0.58790    0.03440    1.000
    H8       H        0.94590    0.53040    0.07690    1.000
    H9       H        0.32850    0.96870    0.60280    1.000
    H10      H        0.29190    0.88490    0.53400    1.000
    H11      H        0.61500    0.00400    0.57270    1.000
    H12      H        0.57930    0.91970    0.50420    1.000
    H13      H        0.16990    0.57240    0.30810    1.000
    H14      H        0.27830    0.48980    0.31830    1.000
    H15      H        0.31840    0.95480    0.83390    1.000
    H16      H        0.20980    0.03310    0.80600    1.000
    H17      H        0.07340    0.55150    0.43900    1.000
    H18      H        0.16340    0.46230    0.44860    1.000
    H19      H        0.43910    0.56000    0.45820    1.000
    H20      H        0.34630    0.64890    0.45140    1.000
    H21      H        0.07770    0.02260    0.93080    1.000
    H22      H        0.19380    0.94810    0.95880    1.000
    H23      H        0.33390    0.13780    0.93560    1.000
    H24      H        0.44540    0.06300    0.96800    1.000
    H25      H        0.72000    0.94700    0.91490    1.000
    H26      H        0.79810    0.85960    0.94550    1.000
    H27      H        0.70450    0.47340    0.41950    1.000
    H28      H        0.76490    0.37510    0.42410    1.000
    H29      H        0.16770    0.35290    0.98810    1.000
    H30      H        0.25250    0.44830    0.03850    1.000
    H31      H        0.90080    0.41210    0.96560    1.000
    H32      H        0.05410    0.46960    0.92310    1.000
    H33      H        0.67150    0.03130    0.39720    1.000
    H34      H        0.70810    0.11510    0.46600    1.000
    H35      H        0.38500    0.99600    0.42730    1.000
    H36      H        0.42070    0.08030    0.49580    1.000
    H37      H        0.83010    0.42760    0.69190    1.000
    H38      H        0.72170    0.51020    0.68170    1.000
    H39      H        0.68160    0.04520    0.16610    1.000
    H40      H        0.79020    0.96690    0.19400    1.000
    H41      H        0.92660    0.44850    0.56100    1.000
    H42      H        0.83660    0.53770    0.55140    1.000
    H43      H        0.56090    0.44000    0.54180    1.000
    H44      H        0.65370    0.35110    0.54860    1.000
    H45      H        0.92230    0.97740    0.06920    1.000
    H46      H        0.80620    0.05190    0.04120    1.000
    H47      H        0.66610    0.86220    0.06440    1.000
    H48      H        0.55460    0.93700    0.03200    1.000
    C1       C        0.45290    0.17540    0.10620    1.000
    C2       C        0.49200    0.63620    0.61840    1.000
    C3       C        0.91270    0.63640    0.89680    1.000
    C4       C        0.42870    0.85360    0.63980    1.000
    C5       C        0.30520    0.11050    0.05600    1.000
    C6       C        0.32850    0.59070    0.56400    1.000
    C7       C        0.85660    0.59610    0.97540    1.000
    C8       C        0.98700    0.54560    0.02350    1.000
    C9       C        0.38100    0.92020    0.57550    1.000
    C10      C        0.52610    0.96780    0.53160    1.000
    C11      C        0.05800    0.90250    0.80400    1.000
    C12      C        0.17250    0.51200    0.33210    1.000
    C13      C        0.01480    0.44210    0.29620    1.000
    C14      C        0.20870    0.97770    0.83810    1.000
    C15      C        0.17500    0.52440    0.42650    1.000
    C16      C        0.33600    0.58560    0.47090    1.000
    C17      C        0.19130    0.00380    0.92740    1.000
    C18      C        0.33200    0.08290    0.96830    1.000
    C19      C        0.54710    0.82460    0.89380    1.000
    C20      C        0.50800    0.36380    0.38160    1.000
    C21      C        0.08730    0.36360    0.10320    1.000
    C22      C        0.57130    0.14640    0.36020    1.000
    C23      C        0.69480    0.88950    0.94400    1.000
    C24      C        0.67150    0.40930    0.43600    1.000
    C25      C        0.14340    0.40390    0.02460    1.000
    C26      C        0.01300    0.45440    0.97650    1.000
    C27      C        0.61900    0.07980    0.42450    1.000
    C28      C        0.47390    0.03220    0.46840    1.000
    C29      C        0.94200    0.09750    0.19600    1.000
    C30      C        0.82750    0.48800    0.66790    1.000
    C31      C        0.98520    0.55790    0.70380    1.000
    C32      C        0.79130    0.02230    0.16190    1.000
    C33      C        0.82500    0.47560    0.57350    1.000
    C34      C        0.66400    0.41440    0.52910    1.000
    C35      C        0.80870    0.99620    0.07260    1.000
    C36      C        0.66800    0.91710    0.03170    1.000
    O1       O        0.59810    0.19620    0.08100    1.000
    O2       O        0.62890    0.66410    0.58790    1.000
    O3       O        0.07110    0.64980    0.88610    1.000
    O4       O        0.58640    0.85120    0.65680    1.000
    O5       O        0.79150    0.65840    0.84490    1.000
    O6       O        0.91000    0.92150    0.78510    1.000
    O7       O        0.30290    0.80570    0.67110    1.000
    O8       O        0.08160    0.81710    0.79710    1.000
    O9       O        0.42510    0.20690    0.17770    1.000
    O10      O        0.48200    0.64550    0.69640    1.000
    O11      O        0.01900    0.35370    0.30300    1.000
    O12      O        0.87920    0.46760    0.26510    1.000
    O13      O        0.40190    0.80380    0.91900    1.000
    O14      O        0.37110    0.33590    0.41210    1.000
    O15      O        0.92890    0.35020    0.11390    1.000
    O16      O        0.41360    0.14880    0.34320    1.000
    O17      O        0.20850    0.34160    0.15510    1.000
    O18      O        0.09000    0.07850    0.21490    1.000
    O19      O        0.69710    0.19430    0.32890    1.000
    O20      O        0.91840    0.18290    0.20290    1.000
    O21      O        0.57490    0.79310    0.82230    1.000
    O22      O        0.51800    0.35450    0.30360    1.000
    O23      O        0.98100    0.64630    0.69700    1.000
    O24      O        0.12080    0.53240    0.73490    1.000
