data_functionalizedCrystal
_audit_creation_method	'EQeq! by Chris Wilmer'
_symmetry_space_group_name_H-M	'P1'
_symmetry_Int_Tables_number	1
_symmetry_cell_setting	triclinic
loop_
_symmetry_equiv_pos_as_xyz
  x,y,z
_cell_length_a	21.838
_cell_length_b	21.838
_cell_length_c	14.721
_cell_angle_alpha	90
_cell_angle_beta	90
_cell_angle_gamma	90
loop_
_atom_site_label
_atom_site_type_symbol
_atom_site_fract_x
_atom_site_fract_y
_atom_site_fract_z
_atom_site_charge
Mof_O 	O 	0.20571	0.45209	0.17255	-0.242
Mof_O 	O 	0.29739	0.46005	0.1097	-0.264
Mof_O 	O 	0.1379	0.36298	0.9998	-0.216
Mof_O 	O 	0.15205	0.56523	0.0632	-0.235
Mof_O 	O 	0.81731	0.3796	0.0261	-0.219
Mof_O 	O 	0.82872	0.58661	0.0525	-0.234
Mof_O 	O 	0.77977	0.52405	0.8845	-0.244
Mof_O 	O 	0.68647	0.54251	0.9366	-0.257
Mof_N 	N 	0.14474	0.46702	0.015	-0.164
Mof_N 	N 	0.82303	0.48292	0.0432	-0.169
Mof_C 	C 	0.2397	0.45854	0.1047	0.258
Mof_C 	C 	0.2123	0.4616	0.01	0.062
Mof_H 	H 	0.22112	0.42137	0.9804	0.044
Mof_C 	C 	0.2423	0.5112	0.9497	-0.435
Mof_H 	H 	0.28673	0.50523	0.94907	0.164
Mof_H 	H 	0.22631	0.50788	0.88767	0.16
Mof_H 	H 	0.23274	0.5518	0.97417	0.178
Mof_C 	C 	0.112	0.4115	0.0123	0.212
Mof_C 	C 	0.1192	0.523	0.0431	0.223
Mof_C 	C 	0.0515	0.52672	0.0441	-0.05
Mof_C 	C 	0.023	0.5826	0.0548	-0.027
Mof_H 	H 	0.04661	0.6189	0.06051	0.08
Mof_C 	C 	0.9587	0.58542	0.0573	-0.011
Mof_H 	H 	0.93912	0.62388	0.0653	0.063
Mof_C 	C 	0.92383	0.53359	0.0482	-0.056
Mof_C 	C 	0.95182	0.47608	0.0385	0.033
Mof_C 	C 	0.01643	0.4726	0.0341	0.028
Mof_C 	C 	0.0444	0.41544	0.0213	-0.051
Mof_C 	C 	0.0093	0.363	0.015	-0.028
Mof_H 	H 	0.02866	0.32442	0.00671	0.045
Mof_C 	C 	0.9457	0.36643	0.0208	-0.021
Mof_H 	H 	0.92194	0.33007	0.01725	0.052
Mof_C 	C 	0.91702	0.42219	0.0316	-0.053
Mof_C 	C 	0.8487	0.4247	0.0336	0.221
Mof_C 	C 	0.8556	0.5376	0.0482	0.22
Mof_C 	C 	0.7547	0.4881	0.0334	0.073
Mof_H 	H 	0.73957	0.44542	0.02325	0.038
Mof_C 	C 	0.7237	0.5101	0.1189	-0.442
Mof_H 	H 	0.72427	0.47742	0.16453	0.16
Mof_H 	H 	0.68123	0.52125	0.10526	0.167
Mof_H 	H 	0.74546	0.54599	0.14255	0.171
Mof_C 	C 	0.7409	0.52306	0.9459	0.258
Mof_O 	O 	0.29429	0.95209	0.57745	-0.242
Mof_O 	O 	0.20261	0.96005	0.6403	-0.265
Mof_O 	O 	0.3621	0.86298	0.7502	-0.217
Mof_O 	O 	0.34795	0.06523	0.6868	-0.236
Mof_O 	O 	0.68269	0.8796	0.7239	-0.221
Mof_O 	O 	0.67128	0.08661	0.6975	-0.235
Mof_O 	O 	0.72023	0.02405	0.8655	-0.246
Mof_O 	O 	0.81353	0.04251	0.8134	-0.258
Mof_N 	N 	0.35526	0.96702	0.735	-0.165
Mof_N 	N 	0.67697	0.98292	0.7068	-0.169
Mof_C 	C 	0.2603	0.95854	0.6453	0.257
Mof_C 	C 	0.2877	0.9616	0.74	0.064
Mof_H 	H 	0.27888	0.92137	0.7696	0.043
Mof_C 	C 	0.2577	0.0112	0.8003	-0.437
Mof_H 	H 	0.21327	0.00523	0.80093	0.164
Mof_H 	H 	0.27369	0.00788	0.86233	0.16
Mof_H 	H 	0.26726	0.0518	0.77583	0.178
Mof_C 	C 	0.388	0.9115	0.7377	0.213
Mof_C 	C 	0.3808	0.023	0.7069	0.224
Mof_C 	C 	0.4485	0.02672	0.7059	-0.052
Mof_C 	C 	0.477	0.0826	0.6952	-0.025
Mof_H 	H 	0.45339	0.1189	0.68949	0.079
Mof_C 	C 	0.5413	0.08542	0.6927	-0.012
Mof_H 	H 	0.56088	0.12388	0.6847	0.064
Mof_C 	C 	0.57617	0.03359	0.7018	-0.055
Mof_C 	C 	0.54818	0.97608	0.7115	0.032
Mof_C 	C 	0.48357	0.9726	0.7159	0.03
Mof_C 	C 	0.4556	0.91544	0.7287	-0.052
Mof_C 	C 	0.4907	0.863	0.735	-0.025
Mof_H 	H 	0.47134	0.82442	0.74329	0.045
Mof_C 	C 	0.5543	0.86643	0.7292	-0.024
Mof_H 	H 	0.57806	0.83007	0.73275	0.053
Mof_C 	C 	0.58298	0.92219	0.7184	-0.052
Mof_C 	C 	0.6513	0.9247	0.7164	0.22
Mof_C 	C 	0.6444	0.0376	0.7018	0.22
Mof_C 	C 	0.7453	0.9881	0.7166	0.072
Mof_H 	H 	0.76043	0.94542	0.72675	0.038
Mof_C 	C 	0.7763	0.0101	0.6311	-0.44
Mof_H 	H 	0.77573	0.97742	0.58547	0.159
Mof_H 	H 	0.81877	0.02125	0.64474	0.167
Mof_H 	H 	0.75454	0.04599	0.60745	0.171
Mof_C 	C 	0.7591	0.02306	0.8041	0.259
Mof_Cd	Cd	0.2049	0.95069	0.47919	0.419
Mof_N 	N 	0.2271	0.84918	0.4565	-0.149
Mof_N 	N 	0.30199	0.557	0.2809	-0.146
Mof_C 	C 	0.1839	0.8106	0.4238	0.087
Mof_H 	H 	0.14247	0.82376	0.42316	0.002
Mof_C 	C 	0.1977	0.7533	0.3915	-0.129
Mof_H 	H 	0.16588	0.72757	0.36932	0.097
Mof_C 	C 	0.2577	0.7327	0.3911	0.067
Mof_C 	C 	0.3014	0.77248	0.4283	-0.122
Mof_H 	H 	0.34306	0.76005	0.43218	0.081
Mof_C 	C 	0.2844	0.82899	0.4589	0.087
Mof_H 	H 	0.31511	0.85517	0.48302	0.035
Mof_C 	C 	0.25073	0.58699	0.257	0.075
Mof_H 	H 	0.22389	0.56799	0.2148	0.032
Mof_C 	C 	0.23498	0.64361	0.2903	-0.118
Mof_H 	H 	0.19822	0.66312	0.27154	0.094
Mof_C 	C 	0.2746	0.67212	0.353	0.058
Mof_C 	C 	0.32801	0.6415	0.3768	-0.115
Mof_H 	H 	0.35603	0.65932	0.41846	0.073
Mof_C 	C 	0.33991	0.58471	0.3392	0.075
Mof_H 	H 	0.37679	0.56442	0.3555	0.013
Mof_Cd	Cd	0.2951	0.45069	0.27081	0.419
Mof_N 	N 	0.2729	0.34918	0.2935	-0.149
Mof_N 	N 	0.19801	0.057	0.4691	-0.146
Mof_C 	C 	0.3161	0.3106	0.3262	0.087
Mof_H 	H 	0.35753	0.32376	0.32684	0.002
Mof_C 	C 	0.3023	0.2533	0.3585	-0.129
Mof_H 	H 	0.33412	0.22757	0.38068	0.097
Mof_C 	C 	0.2423	0.2327	0.3589	0.067
Mof_C 	C 	0.1986	0.27248	0.3217	-0.122
Mof_H 	H 	0.15694	0.26005	0.31782	0.081
Mof_C 	C 	0.2156	0.32899	0.2911	0.087
Mof_H 	H 	0.18489	0.35517	0.26698	0.035
Mof_C 	C 	0.24927	0.08699	0.493	0.075
Mof_H 	H 	0.27611	0.06799	0.5352	0.032
Mof_C 	C 	0.26502	0.14361	0.4597	-0.118
Mof_H 	H 	0.30178	0.16312	0.47846	0.094
Mof_C 	C 	0.2254	0.17212	0.397	0.058
Mof_C 	C 	0.17199	0.1415	0.3732	-0.115
Mof_H 	H 	0.14397	0.15932	0.33154	0.073
Mof_C 	C 	0.16009	0.08471	0.4108	0.075
Mof_H 	H 	0.12321	0.06442	0.3945	0.013
Mof_O 	O 	0.79429	0.54791	0.67255	-0.242
Mof_O 	O 	0.70261	0.53995	0.6097	-0.265
Mof_O 	O 	0.8621	0.63702	0.4998	-0.217
Mof_O 	O 	0.84795	0.43477	0.5632	-0.236
Mof_O 	O 	0.18269	0.6204	0.5261	-0.221
Mof_O 	O 	0.17128	0.41339	0.5525	-0.235
Mof_O 	O 	0.22023	0.47595	0.3845	-0.245
Mof_O 	O 	0.31353	0.45749	0.4366	-0.258
Mof_N 	N 	0.85526	0.53298	0.515	-0.165
Mof_N 	N 	0.17697	0.51708	0.5432	-0.17
Mof_C 	C 	0.7603	0.54146	0.6047	0.258
Mof_C 	C 	0.7877	0.5384	0.51	0.063
Mof_H 	H 	0.77888	0.57863	0.4804	0.043
Mof_C 	C 	0.7577	0.4888	0.4497	-0.436
Mof_H 	H 	0.71327	0.49477	0.44907	0.164
Mof_H 	H 	0.77369	0.49212	0.38767	0.16
Mof_H 	H 	0.76726	0.4482	0.47417	0.178
Mof_C 	C 	0.888	0.5885	0.5123	0.212
Mof_C 	C 	0.8808	0.477	0.5431	0.224
Mof_C 	C 	0.9485	0.47328	0.5441	-0.051
Mof_C 	C 	0.977	0.4174	0.5548	-0.025
Mof_H 	H 	0.95339	0.3811	0.56051	0.079
Mof_C 	C 	0.0413	0.41458	0.5573	-0.012
Mof_H 	H 	0.06088	0.37612	0.5653	0.063
Mof_C 	C 	0.07617	0.46641	0.5482	-0.055
Mof_C 	C 	0.04818	0.52392	0.5385	0.032
Mof_C 	C 	0.98357	0.5274	0.5341	0.029
Mof_C 	C 	0.9556	0.58456	0.5213	-0.052
Mof_C 	C 	0.9907	0.637	0.515	-0.026
Mof_H 	H 	0.97134	0.67558	0.50671	0.045
Mof_C 	C 	0.0543	0.63357	0.5208	-0.023
Mof_H 	H 	0.07806	0.66993	0.51725	0.052
Mof_C 	C 	0.08298	0.57781	0.5316	-0.052
Mof_C 	C 	0.1513	0.5753	0.5336	0.22
Mof_C 	C 	0.1444	0.4624	0.5482	0.22
Mof_C 	C 	0.2453	0.5119	0.5334	0.073
Mof_H 	H 	0.26043	0.55458	0.52325	0.038
Mof_C 	C 	0.2763	0.4899	0.6189	-0.442
Mof_H 	H 	0.27573	0.52258	0.66453	0.16
Mof_H 	H 	0.31877	0.47875	0.60526	0.167
Mof_H 	H 	0.25454	0.45401	0.64255	0.171
Mof_C 	C 	0.2591	0.47694	0.4459	0.259
Mof_O 	O 	0.70571	0.04791	0.07745	-0.242
Mof_O 	O 	0.79739	0.03995	0.1403	-0.264
Mof_O 	O 	0.6379	0.13702	0.2502	-0.217
Mof_O 	O 	0.65205	0.93477	0.1868	-0.236
Mof_O 	O 	0.31731	0.1204	0.2239	-0.221
Mof_O 	O 	0.32872	0.91339	0.1975	-0.235
Mof_O 	O 	0.27977	0.97595	0.3655	-0.245
Mof_O 	O 	0.18647	0.95749	0.3134	-0.258
Mof_N 	N 	0.64474	0.03298	0.235	-0.165
Mof_N 	N 	0.32303	0.01708	0.2068	-0.169
Mof_C 	C 	0.7397	0.04146	0.1453	0.257
Mof_C 	C 	0.7123	0.0384	0.24	0.064
Mof_H 	H 	0.72112	0.07863	0.2696	0.043
Mof_C 	C 	0.7423	0.9888	0.3003	-0.437
Mof_H 	H 	0.78673	0.99477	0.30093	0.164
Mof_H 	H 	0.72631	0.99212	0.36233	0.161
Mof_H 	H 	0.73274	0.9482	0.27583	0.178
Mof_C 	C 	0.612	0.0885	0.2377	0.213
Mof_C 	C 	0.6192	0.977	0.2069	0.224
Mof_C 	C 	0.5515	0.97328	0.2059	-0.052
Mof_C 	C 	0.523	0.9174	0.1952	-0.025
Mof_H 	H 	0.54661	0.8811	0.18949	0.079
Mof_C 	C 	0.4587	0.91458	0.1927	-0.012
Mof_H 	H 	0.43912	0.87612	0.1847	0.063
Mof_C 	C 	0.42383	0.96641	0.2018	-0.056
Mof_C 	C 	0.45182	0.02392	0.2115	0.032
Mof_C 	C 	0.51643	0.0274	0.2159	0.03
Mof_C 	C 	0.5444	0.08456	0.2287	-0.052
Mof_C 	C 	0.5093	0.137	0.235	-0.025
Mof_H 	H 	0.52866	0.17558	0.24329	0.045
Mof_C 	C 	0.4457	0.13357	0.2292	-0.024
Mof_H 	H 	0.42194	0.16993	0.23275	0.053
Mof_C 	C 	0.41702	0.07781	0.2184	-0.052
Mof_C 	C 	0.3487	0.0753	0.2164	0.22
Mof_C 	C 	0.3556	0.9624	0.2018	0.219
Mof_C 	C 	0.2547	0.0119	0.2166	0.074
Mof_H 	H 	0.23957	0.05458	0.22675	0.038
Mof_C 	C 	0.2237	0.9899	0.1311	-0.443
Mof_H 	H 	0.22427	0.02258	0.08547	0.161
Mof_H 	H 	0.18123	0.97875	0.14474	0.167
Mof_H 	H 	0.24546	0.95401	0.10745	0.171
Mof_C 	C 	0.2409	0.97694	0.3041	0.258
Mof_Cd	Cd	0.7951	0.04931	0.97919	0.418
Mof_N 	N 	0.7729	0.15082	0.9565	-0.149
Mof_N 	N 	0.69801	0.443	0.7809	-0.146
Mof_C 	C 	0.8161	0.1894	0.9238	0.087
Mof_H 	H 	0.85753	0.17624	0.92316	0.002
Mof_C 	C 	0.8023	0.2467	0.8915	-0.129
Mof_H 	H 	0.83412	0.27243	0.86932	0.097
Mof_C 	C 	0.7423	0.2673	0.8911	0.067
Mof_C 	C 	0.6986	0.22752	0.9283	-0.122
Mof_H 	H 	0.65694	0.23995	0.93218	0.081
Mof_C 	C 	0.7156	0.17101	0.9589	0.087
Mof_H 	H 	0.68489	0.14483	0.98302	0.035
Mof_C 	C 	0.74927	0.41301	0.757	0.075
Mof_H 	H 	0.77611	0.43201	0.7148	0.032
Mof_C 	C 	0.76502	0.35639	0.7903	-0.118
Mof_H 	H 	0.80178	0.33688	0.77154	0.094
Mof_C 	C 	0.7254	0.32788	0.853	0.058
Mof_C 	C 	0.67199	0.3585	0.8768	-0.115
Mof_H 	H 	0.64397	0.34068	0.91846	0.073
Mof_C 	C 	0.66009	0.41529	0.8392	0.075
Mof_H 	H 	0.62321	0.43558	0.8555	0.013
Mof_Cd	Cd	0.7049	0.54931	0.77081	0.419
Mof_N 	N 	0.7271	0.65082	0.7935	-0.149
Mof_N 	N 	0.80199	0.943	0.9691	-0.146
Mof_C 	C 	0.6839	0.6894	0.8262	0.087
Mof_H 	H 	0.64247	0.67624	0.82684	0.002
Mof_C 	C 	0.6977	0.7467	0.8585	-0.129
Mof_H 	H 	0.66588	0.77243	0.88068	0.097
Mof_C 	C 	0.7577	0.7673	0.8589	0.067
Mof_C 	C 	0.8014	0.72752	0.8217	-0.122
Mof_H 	H 	0.84306	0.73995	0.81782	0.081
Mof_C 	C 	0.7844	0.67101	0.7911	0.087
Mof_H 	H 	0.81511	0.64483	0.76698	0.035
Mof_C 	C 	0.75073	0.91301	0.993	0.076
Mof_H 	H 	0.72389	0.93201	0.0352	0.032
Mof_C 	C 	0.73498	0.85639	0.9597	-0.119
Mof_H 	H 	0.69822	0.83688	0.97846	0.094
Mof_C 	C 	0.7746	0.82788	0.897	0.058
Mof_C 	C 	0.82801	0.8585	0.8732	-0.115
Mof_H 	H 	0.85603	0.84068	0.83154	0.073
Mof_C 	C 	0.83991	0.91529	0.9108	0.075
Mof_H 	H 	0.87679	0.93558	0.8945	0.013
Mof_O 	O 	0.04791	0.70571	0.92255	-0.242
Mof_O 	O 	0.03995	0.79739	0.8597	-0.264
Mof_O 	O 	0.13702	0.6379	0.7498	-0.217
Mof_O 	O 	0.93477	0.65205	0.8132	-0.236
Mof_O 	O 	0.1204	0.31731	0.7761	-0.221
Mof_O 	O 	0.91339	0.32872	0.8025	-0.235
Mof_O 	O 	0.97595	0.27977	0.6345	-0.245
Mof_O 	O 	0.95749	0.18647	0.6866	-0.258
Mof_N 	N 	0.03298	0.64474	0.765	-0.165
Mof_N 	N 	0.01708	0.32303	0.7932	-0.169
Mof_C 	C 	0.04146	0.7397	0.8547	0.257
Mof_C 	C 	0.0384	0.7123	0.76	0.064
Mof_H 	H 	0.07863	0.72112	0.7304	0.043
Mof_C 	C 	0.9888	0.7423	0.6997	-0.437
Mof_H 	H 	0.99477	0.78673	0.69907	0.164
Mof_H 	H 	0.99212	0.72631	0.63767	0.161
Mof_H 	H 	0.9482	0.73274	0.72417	0.178
Mof_C 	C 	0.0885	0.612	0.7623	0.213
Mof_C 	C 	0.977	0.6192	0.7931	0.224
Mof_C 	C 	0.97328	0.5515	0.7941	-0.052
Mof_C 	C 	0.9174	0.523	0.8048	-0.025
Mof_H 	H 	0.8811	0.54661	0.81051	0.079
Mof_C 	C 	0.91458	0.4587	0.8073	-0.012
Mof_H 	H 	0.87612	0.43912	0.8153	0.063
Mof_C 	C 	0.96641	0.42383	0.7982	-0.056
Mof_C 	C 	0.02392	0.45182	0.7885	0.032
Mof_C 	C 	0.0274	0.51643	0.7841	0.03
Mof_C 	C 	0.08456	0.5444	0.7713	-0.052
Mof_C 	C 	0.137	0.5093	0.765	-0.025
Mof_H 	H 	0.17558	0.52866	0.75671	0.045
Mof_C 	C 	0.13357	0.4457	0.7708	-0.024
Mof_H 	H 	0.16993	0.42194	0.76725	0.053
Mof_C 	C 	0.07781	0.41702	0.7816	-0.052
Mof_C 	C 	0.0753	0.3487	0.7836	0.22
Mof_C 	C 	0.9624	0.3556	0.7982	0.219
Mof_C 	C 	0.0119	0.2547	0.7834	0.074
Mof_H 	H 	0.05458	0.23957	0.77325	0.038
Mof_C 	C 	0.9899	0.2237	0.8689	-0.443
Mof_H 	H 	0.02258	0.22427	0.91453	0.161
Mof_H 	H 	0.97875	0.18123	0.85526	0.167
Mof_H 	H 	0.95401	0.24546	0.89255	0.171
Mof_C 	C 	0.97694	0.2409	0.6959	0.258
Mof_O 	O 	0.54791	0.79429	0.32745	-0.242
Mof_O 	O 	0.53995	0.70261	0.3903	-0.265
Mof_O 	O 	0.63702	0.8621	0.5002	-0.217
Mof_O 	O 	0.43477	0.84795	0.4368	-0.236
Mof_O 	O 	0.6204	0.18269	0.4739	-0.221
Mof_O 	O 	0.41339	0.17128	0.4475	-0.235
Mof_O 	O 	0.47595	0.22023	0.6155	-0.245
Mof_O 	O 	0.45749	0.31353	0.5634	-0.258
Mof_N 	N 	0.53298	0.85526	0.485	-0.165
Mof_N 	N 	0.51708	0.17697	0.4568	-0.17
Mof_C 	C 	0.54146	0.7603	0.3953	0.258
Mof_C 	C 	0.5384	0.7877	0.49	0.063
Mof_H 	H 	0.57863	0.77888	0.5196	0.043
Mof_C 	C 	0.4888	0.7577	0.5503	-0.436
Mof_H 	H 	0.49477	0.71327	0.55093	0.164
Mof_H 	H 	0.49212	0.77369	0.61233	0.16
Mof_H 	H 	0.4482	0.76726	0.52583	0.178
Mof_C 	C 	0.5885	0.888	0.4877	0.212
Mof_C 	C 	0.477	0.8808	0.4569	0.224
Mof_C 	C 	0.47328	0.9485	0.4559	-0.051
Mof_C 	C 	0.4174	0.977	0.4452	-0.025
Mof_H 	H 	0.3811	0.95339	0.43949	0.079
Mof_C 	C 	0.41458	0.0413	0.4427	-0.012
Mof_H 	H 	0.37612	0.06088	0.4347	0.063
Mof_C 	C 	0.46641	0.07617	0.4518	-0.055
Mof_C 	C 	0.52392	0.04818	0.4615	0.032
Mof_C 	C 	0.5274	0.98357	0.4659	0.029
Mof_C 	C 	0.58456	0.9556	0.4787	-0.052
Mof_C 	C 	0.637	0.9907	0.485	-0.026
Mof_H 	H 	0.67558	0.97134	0.49329	0.045
Mof_C 	C 	0.63357	0.0543	0.4792	-0.023
Mof_H 	H 	0.66993	0.07806	0.48275	0.052
Mof_C 	C 	0.57781	0.08298	0.4684	-0.052
Mof_C 	C 	0.5753	0.1513	0.4664	0.22
Mof_C 	C 	0.4624	0.1444	0.4518	0.22
Mof_C 	C 	0.5119	0.2453	0.4666	0.073
Mof_H 	H 	0.55458	0.26043	0.47675	0.038
Mof_C 	C 	0.4899	0.2763	0.3811	-0.442
Mof_H 	H 	0.52258	0.27573	0.33547	0.16
Mof_H 	H 	0.47875	0.31877	0.39474	0.167
Mof_H 	H 	0.45401	0.25454	0.35745	0.171
Mof_C 	C 	0.47694	0.2591	0.5541	0.259
Mof_Cd	Cd	0.54931	0.7049	0.22919	0.419
Mof_N 	N 	0.65082	0.7271	0.2065	-0.149
Mof_N 	N 	0.943	0.80199	0.0309	-0.146
Mof_C 	C 	0.6894	0.6839	0.1738	0.087
Mof_H 	H 	0.67624	0.64247	0.17316	0.002
Mof_C 	C 	0.7467	0.6977	0.1415	-0.129
Mof_H 	H 	0.77243	0.66588	0.11932	0.097
Mof_C 	C 	0.7673	0.7577	0.1411	0.067
Mof_C 	C 	0.72752	0.8014	0.1783	-0.122
Mof_H 	H 	0.73995	0.84306	0.18218	0.081
Mof_C 	C 	0.67101	0.7844	0.2089	0.087
Mof_H 	H 	0.64483	0.81511	0.23302	0.035
Mof_C 	C 	0.91301	0.75073	0.007	0.076
Mof_H 	H 	0.93201	0.72389	0.9648	0.032
Mof_C 	C 	0.85639	0.73498	0.0403	-0.119
Mof_H 	H 	0.83688	0.69822	0.02154	0.094
Mof_C 	C 	0.82788	0.7746	0.103	0.058
Mof_C 	C 	0.8585	0.82801	0.1268	-0.115
Mof_H 	H 	0.84068	0.85603	0.16846	0.073
Mof_C 	C 	0.91529	0.83991	0.0892	0.075
Mof_H 	H 	0.93558	0.87679	0.1055	0.013
Mof_Cd	Cd	0.04931	0.7951	0.02081	0.418
Mof_N 	N 	0.15082	0.7729	0.0435	-0.149
Mof_N 	N 	0.443	0.69801	0.2191	-0.146
Mof_C 	C 	0.1894	0.8161	0.0762	0.087
Mof_H 	H 	0.17624	0.85753	0.07684	0.002
Mof_C 	C 	0.2467	0.8023	0.1085	-0.129
Mof_H 	H 	0.27243	0.83412	0.13068	0.097
Mof_C 	C 	0.2673	0.7423	0.1089	0.067
Mof_C 	C 	0.22752	0.6986	0.0717	-0.122
Mof_H 	H 	0.23995	0.65694	0.06782	0.081
Mof_C 	C 	0.17101	0.7156	0.0411	0.087
Mof_H 	H 	0.14483	0.68489	0.01698	0.035
Mof_C 	C 	0.41301	0.74927	0.243	0.075
Mof_H 	H 	0.43201	0.77611	0.2852	0.032
Mof_C 	C 	0.35639	0.76502	0.2097	-0.118
Mof_H 	H 	0.33688	0.80178	0.22846	0.094
Mof_C 	C 	0.32788	0.7254	0.147	0.058
Mof_C 	C 	0.3585	0.67199	0.1232	-0.115
Mof_H 	H 	0.34068	0.64397	0.08154	0.073
Mof_C 	C 	0.41529	0.66009	0.1608	0.075
Mof_H 	H 	0.43558	0.62321	0.1445	0.013
Mof_O 	O 	0.95209	0.29429	0.42255	-0.242
Mof_O 	O 	0.96005	0.20261	0.3597	-0.265
Mof_O 	O 	0.86298	0.3621	0.2498	-0.217
Mof_O 	O 	0.06523	0.34795	0.3132	-0.236
Mof_O 	O 	0.8796	0.68269	0.2761	-0.221
Mof_O 	O 	0.08661	0.67128	0.3025	-0.235
Mof_O 	O 	0.02405	0.72023	0.1345	-0.246
Mof_O 	O 	0.04251	0.81353	0.1866	-0.258
Mof_N 	N 	0.96702	0.35526	0.265	-0.165
Mof_N 	N 	0.98292	0.67697	0.2932	-0.169
Mof_C 	C 	0.95854	0.2603	0.3547	0.257
Mof_C 	C 	0.9616	0.2877	0.26	0.064
Mof_H 	H 	0.92137	0.27888	0.2304	0.043
Mof_C 	C 	0.0112	0.2577	0.1997	-0.437
Mof_H 	H 	0.00523	0.21327	0.19907	0.164
Mof_H 	H 	0.00788	0.27369	0.13767	0.16
Mof_H 	H 	0.0518	0.26726	0.22417	0.178
Mof_C 	C 	0.9115	0.388	0.2623	0.213
Mof_C 	C 	0.023	0.3808	0.2931	0.224
Mof_C 	C 	0.02672	0.4485	0.2941	-0.052
Mof_C 	C 	0.0826	0.477	0.3048	-0.025
Mof_H 	H 	0.1189	0.45339	0.31051	0.079
Mof_C 	C 	0.08542	0.5413	0.3073	-0.012
Mof_H 	H 	0.12388	0.56088	0.3153	0.064
Mof_C 	C 	0.03359	0.57617	0.2982	-0.055
Mof_C 	C 	0.97608	0.54818	0.2885	0.032
Mof_C 	C 	0.9726	0.48357	0.2841	0.03
Mof_C 	C 	0.91544	0.4556	0.2713	-0.052
Mof_C 	C 	0.863	0.4907	0.265	-0.025
Mof_H 	H 	0.82442	0.47134	0.25671	0.045
Mof_C 	C 	0.86643	0.5543	0.2708	-0.024
Mof_H 	H 	0.83007	0.57806	0.26725	0.053
Mof_C 	C 	0.92219	0.58298	0.2816	-0.052
Mof_C 	C 	0.9247	0.6513	0.2836	0.22
Mof_C 	C 	0.0376	0.6444	0.2982	0.22
Mof_C 	C 	0.9881	0.7453	0.2834	0.072
Mof_H 	H 	0.94542	0.76043	0.27325	0.038
Mof_C 	C 	0.0101	0.7763	0.3689	-0.44
Mof_H 	H 	0.97742	0.77573	0.41453	0.159
Mof_H 	H 	0.02125	0.81877	0.35526	0.167
Mof_H 	H 	0.04599	0.75454	0.39255	0.171
Mof_C 	C 	0.02306	0.7591	0.1959	0.259
Mof_O 	O 	0.45209	0.20571	0.82745	-0.243
Mof_O 	O 	0.46005	0.29739	0.8903	-0.265
Mof_O 	O 	0.36298	0.1379	0.0002	-0.217
Mof_O 	O 	0.56523	0.15205	0.9368	-0.236
Mof_O 	O 	0.3796	0.81731	0.9739	-0.22
Mof_O 	O 	0.58661	0.82872	0.9475	-0.235
Mof_O 	O 	0.52405	0.77977	0.1155	-0.245
Mof_O 	O 	0.54251	0.68647	0.0634	-0.258
Mof_N 	N 	0.46702	0.14474	0.985	-0.165
Mof_N 	N 	0.48292	0.82303	0.9568	-0.17
Mof_C 	C 	0.45854	0.2397	0.8953	0.258
Mof_C 	C 	0.4616	0.2123	0.99	0.062
Mof_H 	H 	0.42137	0.22112	0.0196	0.044
Mof_C 	C 	0.5112	0.2423	0.0503	-0.435
Mof_H 	H 	0.50523	0.28673	0.05093	0.164
Mof_H 	H 	0.50788	0.22631	0.11233	0.16
Mof_H 	H 	0.5518	0.23274	0.02583	0.178
Mof_C 	C 	0.4115	0.112	0.9877	0.212
Mof_C 	C 	0.523	0.1192	0.9569	0.223
Mof_C 	C 	0.52672	0.0515	0.9559	-0.05
Mof_C 	C 	0.5826	0.023	0.9452	-0.027
Mof_H 	H 	0.6189	0.04661	0.93949	0.08
Mof_C 	C 	0.58542	0.9587	0.9427	-0.011
Mof_H 	H 	0.62388	0.93912	0.9347	0.063
Mof_C 	C 	0.53359	0.92383	0.9518	-0.056
Mof_C 	C 	0.47608	0.95182	0.9615	0.033
Mof_C 	C 	0.4726	0.01643	0.9659	0.028
Mof_C 	C 	0.41544	0.0444	0.9787	-0.051
Mof_C 	C 	0.363	0.0093	0.985	-0.028
Mof_H 	H 	0.32442	0.02866	0.99329	0.045
Mof_C 	C 	0.36643	0.9457	0.9792	-0.021
Mof_H 	H 	0.33007	0.92194	0.98275	0.052
Mof_C 	C 	0.42219	0.91702	0.9684	-0.053
Mof_C 	C 	0.4247	0.8487	0.9664	0.221
Mof_C 	C 	0.5376	0.8556	0.9518	0.22
Mof_C 	C 	0.4881	0.7547	0.9666	0.073
Mof_H 	H 	0.44542	0.73957	0.97675	0.038
Mof_C 	C 	0.5101	0.7237	0.8811	-0.442
Mof_H 	H 	0.47742	0.72427	0.83547	0.16
Mof_H 	H 	0.52125	0.68123	0.89474	0.167
Mof_H 	H 	0.54599	0.74546	0.85745	0.171
Mof_C 	C 	0.52306	0.7409	0.0541	0.258
Mof_Cd	Cd	0.45069	0.2951	0.72919	0.419
Mof_N 	N 	0.34918	0.2729	0.7065	-0.149
Mof_N 	N 	0.057	0.19801	0.5309	-0.146
Mof_C 	C 	0.3106	0.3161	0.6738	0.087
Mof_H 	H 	0.32376	0.35753	0.67316	0.002
Mof_C 	C 	0.2533	0.3023	0.6415	-0.129
Mof_H 	H 	0.22757	0.33412	0.61932	0.097
Mof_C 	C 	0.2327	0.2423	0.6411	0.067
Mof_C 	C 	0.27248	0.1986	0.6783	-0.122
Mof_H 	H 	0.26005	0.15694	0.68218	0.081
Mof_C 	C 	0.32899	0.2156	0.7089	0.087
Mof_H 	H 	0.35517	0.18489	0.73302	0.035
Mof_C 	C 	0.08699	0.24927	0.507	0.075
Mof_H 	H 	0.06799	0.27611	0.4648	0.032
Mof_C 	C 	0.14361	0.26502	0.5403	-0.118
Mof_H 	H 	0.16312	0.30178	0.52154	0.094
Mof_C 	C 	0.17212	0.2254	0.603	0.058
Mof_C 	C 	0.1415	0.17199	0.6268	-0.115
Mof_H 	H 	0.15932	0.14397	0.66846	0.073
Mof_C 	C 	0.08471	0.16009	0.5892	0.075
Mof_H 	H 	0.06442	0.12321	0.6055	0.013
Mof_Cd	Cd	0.95069	0.2049	0.52081	0.419
Mof_N 	N 	0.84918	0.2271	0.5435	-0.149
Mof_N 	N 	0.557	0.30199	0.7191	-0.146
Mof_C 	C 	0.8106	0.1839	0.5762	0.087
Mof_H 	H 	0.82376	0.14247	0.57684	0.002
Mof_C 	C 	0.7533	0.1977	0.6085	-0.129
Mof_H 	H 	0.72757	0.16588	0.63068	0.097
Mof_C 	C 	0.7327	0.2577	0.6089	0.067
Mof_C 	C 	0.77248	0.3014	0.5717	-0.122
Mof_H 	H 	0.76005	0.34306	0.56782	0.081
Mof_C 	C 	0.82899	0.2844	0.5411	0.087
Mof_H 	H 	0.85517	0.31511	0.51698	0.035
Mof_C 	C 	0.58699	0.25073	0.743	0.075
Mof_H 	H 	0.56799	0.22389	0.7852	0.032
Mof_C 	C 	0.64361	0.23498	0.7097	-0.118
Mof_H 	H 	0.66312	0.19822	0.72846	0.094
Mof_C 	C 	0.67212	0.2746	0.647	0.058
Mof_C 	C 	0.6415	0.32801	0.6232	-0.115
Mof_H 	H 	0.65932	0.35603	0.58154	0.073
Mof_C 	C 	0.58471	0.33991	0.6608	0.075
Mof_H 	H 	0.56442	0.37679	0.6445	0.013
_end
