# CIF file generated by openbabel 3.1.0, see https://openbabel.org
data_I
_chemical_name_common 'image0'
_cell_length_a 15.9506
_cell_length_b 15.9506
_cell_length_c 21.125
_cell_angle_alpha 90
_cell_angle_beta 90
_cell_angle_gamma 90
_space_group_name_H-M_alt 'P 1'
_space_group_name_Hall 'P 1'
loop_
    _symmetry_equiv_pos_as_xyz
    x,y,z
loop_
    _atom_site_label
    _atom_site_type_symbol
    _atom_site_fract_x
    _atom_site_fract_y
    _atom_site_fract_z
    _atom_site_occupancy
    C1       C        0.03750    0.24290    0.78570    1.000
    H1       H        0.00530    0.23760    0.82330    1.000
    C2       C        0.09130    0.30980    0.78140    1.000
    H2       H        0.09510    0.34950    0.81480    1.000
    C3       C        0.14010    0.31820    0.72750    1.000
    C4       C        0.12760    0.25990    0.68080    1.000
    H3       H        0.15760    0.26320    0.64200    1.000
    C5       C        0.06910    0.19470    0.69140    1.000
    H4       H        0.06040    0.15470    0.65880    1.000
    C6       C        0.20740    0.38270    0.72220    1.000
    C7       C        0.20810    0.45460    0.76110    1.000
    H5       H        0.16610    0.46040    0.79270    1.000
    C8       C        0.26770    0.51650    0.75470    1.000
    H6       H        0.26330    0.56700    0.77820    1.000
    C9       C        0.33450    0.50410    0.71330    1.000
    H7       H        0.37760    0.54510    0.71010    1.000
    C10      C        0.33830    0.43230    0.67680    1.000
    C11      C        0.27500    0.37230    0.68160    1.000
    H8       H        0.27830    0.32310    0.65640    1.000
    C12      C        0.40680    0.42350    0.63390    1.000
    C13      C        0.50440    0.37530    0.57030    1.000
    C14      C        0.56030    0.31060    0.53950    1.000
    C15      C        0.54200    0.27970    0.48040    1.000
    H9       H        0.49440    0.29980    0.45810    1.000
    C16      C        0.59370    0.21850    0.45300    1.000
    H10      H        0.58120    0.19670    0.41230    1.000
    C17      C        0.66230    0.19070    0.48570    1.000
    H11      H        0.69850    0.15030    0.46710    1.000
    C18      C        0.67960    0.22190    0.54750    1.000
    C19      C        0.63010    0.28610    0.57140    1.000
    H12      H        0.64510    0.31290    0.60990    1.000
    C20      C        0.75180    0.19040    0.58330    1.000
    C21      C        0.79470    0.11780    0.56930    1.000
    H13      H        0.78120    0.08710    0.53210    1.000
    C22      C        0.85670    0.08970    0.60870    1.000
    H14      H        0.88520    0.03970    0.59710    1.000
    C23      C        0.84690    0.19940    0.67200    1.000
    H15      H        0.86760    0.23000    0.70730    1.000
    C24      C        0.78250    0.23660    0.63500    1.000
    H16      H        0.76100    0.29060    0.64480    1.000
    N1       N        0.02750    0.18700    0.74260    1.000
    N2       N        0.44630    0.48740    0.60710    1.000
    N3       N        0.50730    0.45650    0.56710    1.000
    N4       N        0.44600    0.35290    0.61150    1.000
    N5       N        0.42400    0.27170    0.63100    1.000
    H17      H        0.44610    0.23420    0.60320    1.000
    H18      H        0.44510    0.26180    0.67030    1.000
    N6       N        0.87940    0.12630    0.66080    1.000
    C25      C        0.96250    0.75710    0.28570    1.000
    H19      H        0.99470    0.76240    0.32330    1.000
    C26      C        0.90870    0.69020    0.28140    1.000
    H20      H        0.90490    0.65050    0.31480    1.000
    C27      C        0.85990    0.68180    0.22750    1.000
    C28      C        0.87240    0.74010    0.18080    1.000
    H21      H        0.84240    0.73680    0.14200    1.000
    C29      C        0.93090    0.80530    0.19140    1.000
    H22      H        0.93960    0.84530    0.15880    1.000
    C30      C        0.79260    0.61730    0.22220    1.000
    C31      C        0.79190    0.54540    0.26110    1.000
    H23      H        0.83390    0.53960    0.29270    1.000
    C32      C        0.73230    0.48350    0.25470    1.000
    H24      H        0.73670    0.43300    0.27820    1.000
    C33      C        0.66550    0.49590    0.21330    1.000
    H25      H        0.62240    0.45490    0.21010    1.000
    C34      C        0.66170    0.56770    0.17680    1.000
    C35      C        0.72500    0.62770    0.18160    1.000
    H26      H        0.72170    0.67690    0.15640    1.000
    C36      C        0.59320    0.57650    0.13390    1.000
    C37      C        0.49560    0.62470    0.07030    1.000
    C38      C        0.43970    0.68940    0.03950    1.000
    C39      C        0.45800    0.72030    0.98040    1.000
    H27      H        0.50560    0.70020    0.95810    1.000
    C40      C        0.40630    0.78150    0.95300    1.000
    H28      H        0.41880    0.80330    0.91230    1.000
    C41      C        0.33770    0.80930    0.98570    1.000
    H29      H        0.30150    0.84970    0.96710    1.000
    C42      C        0.32040    0.77810    0.04750    1.000
    C43      C        0.36990    0.71390    0.07140    1.000
    H30      H        0.35490    0.68710    0.10990    1.000
    C44      C        0.24820    0.80960    0.08330    1.000
    C45      C        0.20530    0.88220    0.06930    1.000
    H31      H        0.21880    0.91290    0.03210    1.000
    C46      C        0.14330    0.91030    0.10870    1.000
    H32      H        0.11480    0.96030    0.09710    1.000
    C47      C        0.15310    0.80060    0.17200    1.000
    H33      H        0.13240    0.77000    0.20730    1.000
    C48      C        0.21750    0.76340    0.13500    1.000
    H34      H        0.23900    0.70940    0.14480    1.000
    N7       N        0.97250    0.81300    0.24260    1.000
    N8       N        0.55370    0.51260    0.10710    1.000
    N9       N        0.49270    0.54350    0.06710    1.000
    N10      N        0.55400    0.64710    0.11150    1.000
    N11      N        0.57600    0.72830    0.13100    1.000
    H35      H        0.55390    0.76580    0.10320    1.000
    H36      H        0.55490    0.73820    0.17030    1.000
    N12      N        0.12060    0.87370    0.16080    1.000
    C49      C        0.25710    0.53750    0.03570    1.000
    H37      H        0.26240    0.50530    0.07330    1.000
    C50      C        0.19020    0.59130    0.03140    1.000
    H38      H        0.15050    0.59510    0.06480    1.000
    C51      C        0.18180    0.64010    0.97750    1.000
    C52      C        0.24010    0.62760    0.93080    1.000
    H39      H        0.23680    0.65760    0.89200    1.000
    C53      C        0.30530    0.56910    0.94140    1.000
    H40      H        0.34530    0.56040    0.90880    1.000
    C54      C        0.11730    0.70740    0.97220    1.000
    C55      C        0.04540    0.70810    0.01110    1.000
    H41      H        0.03960    0.66610    0.04270    1.000
    C56      C        0.98350    0.76770    0.00470    1.000
    H42      H        0.93300    0.76330    0.02820    1.000
    C57      C        0.99590    0.83450    0.96330    1.000
    H43      H        0.95490    0.87760    0.96010    1.000
    C58      C        0.06770    0.83830    0.92680    1.000
    C59      C        0.12770    0.77500    0.93160    1.000
    H44      H        0.17690    0.77830    0.90640    1.000
    C60      C        0.07650    0.90680    0.88390    1.000
    C61      C        0.12470    0.00440    0.82030    1.000
    C62      C        0.18940    0.06030    0.78950    1.000
    C63      C        0.22030    0.04200    0.73040    1.000
    H45      H        0.20020    0.99440    0.70810    1.000
    C64      C        0.28150    0.09370    0.70300    1.000
    H46      H        0.30330    0.08120    0.66230    1.000
    C65      C        0.30930    0.16230    0.73570    1.000
    H47      H        0.34970    0.19850    0.71710    1.000
    C66      C        0.27810    0.17960    0.79750    1.000
    C67      C        0.21390    0.13010    0.82140    1.000
    H48      H        0.18710    0.14510    0.85990    1.000
    C68      C        0.30960    0.25180    0.83330    1.000
    C69      C        0.38220    0.29470    0.81930    1.000
    H49      H        0.41290    0.28120    0.78210    1.000
    C70      C        0.41030    0.35670    0.85870    1.000
    H50      H        0.46030    0.38520    0.84710    1.000
    C71      C        0.30060    0.34690    0.92200    1.000
    H51      H        0.27000    0.36760    0.95730    1.000
    C72      C        0.26340    0.28250    0.88500    1.000
    H52      H        0.20940    0.26100    0.89480    1.000
    N13      N        0.31300    0.52750    0.99260    1.000
    N14      N        0.01260    0.94630    0.85710    1.000
    N15      N        0.04350    0.00730    0.81710    1.000
    N16      N        0.14710    0.94600    0.86150    1.000
    N17      N        0.22830    0.92400    0.88100    1.000
    H53      H        0.26580    0.94610    0.85320    1.000
    H54      H        0.23820    0.94510    0.92030    1.000
    N18      N        0.37370    0.37940    0.91080    1.000
    C73      C        0.74290    0.46250    0.53570    1.000
    H55      H        0.73760    0.49470    0.57330    1.000
    C74      C        0.80980    0.40870    0.53140    1.000
    H56      H        0.84950    0.40490    0.56480    1.000
    C75      C        0.81820    0.35990    0.47750    1.000
    C76      C        0.75990    0.37240    0.43080    1.000
    H57      H        0.76320    0.34240    0.39200    1.000
    C77      C        0.69470    0.43090    0.44140    1.000
    H58      H        0.65470    0.43960    0.40880    1.000
    C78      C        0.88270    0.29260    0.47220    1.000
    C79      C        0.95460    0.29190    0.51110    1.000
    H59      H        0.96040    0.33390    0.54270    1.000
    C80      C        0.01650    0.23230    0.50470    1.000
    H60      H        0.06700    0.23670    0.52820    1.000
    C81      C        0.00410    0.16550    0.46330    1.000
    H61      H        0.04510    0.12240    0.46010    1.000
    C82      C        0.93230    0.16170    0.42680    1.000
    C83      C        0.87230    0.22500    0.43160    1.000
    H62      H        0.82310    0.22170    0.40640    1.000
    C84      C        0.92350    0.09320    0.38390    1.000
    C85      C        0.87530    0.99560    0.32030    1.000
    C86      C        0.81060    0.93970    0.28950    1.000
    C87      C        0.77970    0.95800    0.23040    1.000
    H63      H        0.79980    0.00560    0.20810    1.000
    C88      C        0.71850    0.90630    0.20300    1.000
    H64      H        0.69670    0.91880    0.16230    1.000
    C89      C        0.69070    0.83770    0.23570    1.000
    H65      H        0.65030    0.80150    0.21710    1.000
    C90      C        0.72190    0.82040    0.29750    1.000
    C91      C        0.78610    0.86990    0.32140    1.000
    H66      H        0.81290    0.85490    0.35990    1.000
    C92      C        0.69040    0.74820    0.33330    1.000
    C93      C        0.61780    0.70530    0.31930    1.000
    H67      H        0.58710    0.71880    0.28210    1.000
    C94      C        0.58970    0.64330    0.35870    1.000
    H68      H        0.53970    0.61480    0.34710    1.000
    C95      C        0.69940    0.65310    0.42200    1.000
    H69      H        0.73000    0.63240    0.45730    1.000
    C96      C        0.73660    0.71750    0.38500    1.000
    H70      H        0.79060    0.73900    0.39480    1.000
    N19      N        0.68700    0.47250    0.49260    1.000
    N20      N        0.98740    0.05370    0.35710    1.000
    N21      N        0.95650    0.99270    0.31710    1.000
    N22      N        0.85290    0.05400    0.36150    1.000
    N23      N        0.77170    0.07600    0.38100    1.000
    H71      H        0.73420    0.05390    0.35320    1.000
    H72      H        0.76180    0.05490    0.42030    1.000
    N24      N        0.62630    0.62060    0.41080    1.000
    C97      C        0.46250    0.74290    0.46430    1.000
    H73      H        0.49470    0.73760    0.42670    1.000
    C98      C        0.40870    0.80980    0.46860    1.000
    H74      H        0.40490    0.84950    0.43520    1.000
    C99      C        0.35990    0.81820    0.52250    1.000
    C100     C        0.37240    0.75990    0.56920    1.000
    H75      H        0.34240    0.76320    0.60800    1.000
    C101     C        0.43090    0.69470    0.55860    1.000
    H76      H        0.43960    0.65470    0.59120    1.000
    C102     C        0.29260    0.88270    0.52780    1.000
    C103     C        0.29190    0.95460    0.48890    1.000
    H77      H        0.33390    0.96040    0.45730    1.000
    C104     C        0.23230    0.01650    0.49530    1.000
    H78      H        0.23670    0.06700    0.47180    1.000
    C105     C        0.16550    0.00410    0.53670    1.000
    H79      H        0.12240    0.04510    0.53990    1.000
    C106     C        0.16170    0.93230    0.57320    1.000
    C107     C        0.22500    0.87230    0.56840    1.000
    H80      H        0.22170    0.82310    0.59360    1.000
    C108     C        0.09320    0.92350    0.61610    1.000
    C109     C        0.99560    0.87530    0.67970    1.000
    C110     C        0.93970    0.81060    0.71050    1.000
    C111     C        0.95800    0.77970    0.76960    1.000
    H81      H        0.00560    0.79980    0.79190    1.000
    C112     C        0.90630    0.71850    0.79700    1.000
    H82      H        0.91880    0.69670    0.83770    1.000
    C113     C        0.83770    0.69070    0.76430    1.000
    H83      H        0.80150    0.65030    0.78290    1.000
    C114     C        0.82040    0.72190    0.70250    1.000
    C115     C        0.86990    0.78610    0.67860    1.000
    H84      H        0.85490    0.81290    0.64010    1.000
    C116     C        0.74820    0.69040    0.66670    1.000
    C117     C        0.70530    0.61780    0.68070    1.000
    H85      H        0.71880    0.58710    0.71790    1.000
    C118     C        0.64330    0.58970    0.64130    1.000
    H86      H        0.61480    0.53970    0.65290    1.000
    C119     C        0.65310    0.69940    0.57800    1.000
    H87      H        0.63240    0.73000    0.54270    1.000
    C120     C        0.71750    0.73660    0.61500    1.000
    H88      H        0.73900    0.79060    0.60520    1.000
    N25      N        0.47250    0.68700    0.50740    1.000
    N26      N        0.05370    0.98740    0.64290    1.000
    N27      N        0.99270    0.95650    0.68290    1.000
    N28      N        0.05400    0.85290    0.63850    1.000
    N29      N        0.07600    0.77170    0.61900    1.000
    H89      H        0.05390    0.73420    0.64680    1.000
    H90      H        0.05490    0.76180    0.57970    1.000
    N30      N        0.62060    0.62630    0.58920    1.000
    C121     C        0.53750    0.25710    0.96430    1.000
    H91      H        0.50530    0.26240    0.92670    1.000
    C122     C        0.59130    0.19020    0.96860    1.000
    H92      H        0.59510    0.15050    0.93520    1.000
    C123     C        0.64010    0.18180    0.02250    1.000
    C124     C        0.62760    0.24010    0.06920    1.000
    H93      H        0.65760    0.23680    0.10800    1.000
    C125     C        0.56910    0.30530    0.05860    1.000
    H94      H        0.56040    0.34530    0.09120    1.000
    C126     C        0.70740    0.11730    0.02780    1.000
    C127     C        0.70810    0.04540    0.98890    1.000
    H95      H        0.66610    0.03960    0.95730    1.000
    C128     C        0.76770    0.98350    0.99530    1.000
    H96      H        0.76330    0.93300    0.97180    1.000
    C129     C        0.83450    0.99590    0.03670    1.000
    H97      H        0.87760    0.95490    0.03990    1.000
    C130     C        0.83830    0.06770    0.07320    1.000
    C131     C        0.77500    0.12770    0.06840    1.000
    H98      H        0.77830    0.17690    0.09360    1.000
    C132     C        0.90680    0.07650    0.11610    1.000
    C133     C        0.00440    0.12470    0.17970    1.000
    C134     C        0.06030    0.18940    0.21050    1.000
    C135     C        0.04200    0.22030    0.26960    1.000
    H99      H        0.99440    0.20020    0.29190    1.000
    C136     C        0.09370    0.28150    0.29700    1.000
    H100     H        0.08120    0.30330    0.33770    1.000
    C137     C        0.16230    0.30930    0.26430    1.000
    H101     H        0.19850    0.34970    0.28290    1.000
    C138     C        0.17960    0.27810    0.20250    1.000
    C139     C        0.13010    0.21390    0.17860    1.000
    H102     H        0.14510    0.18710    0.14010    1.000
    C140     C        0.25180    0.30960    0.16670    1.000
    C141     C        0.29470    0.38220    0.18070    1.000
    H103     H        0.28120    0.41290    0.21790    1.000
    C142     C        0.35670    0.41030    0.14130    1.000
    H104     H        0.38520    0.46030    0.15290    1.000
    C143     C        0.34690    0.30060    0.07800    1.000
    H105     H        0.36760    0.27000    0.04270    1.000
    C144     C        0.28250    0.26340    0.11500    1.000
    H106     H        0.26100    0.20940    0.10520    1.000
    N31      N        0.52750    0.31300    0.00740    1.000
    N32      N        0.94630    0.01260    0.14290    1.000
    N33      N        0.00730    0.04350    0.18290    1.000
    N34      N        0.94600    0.14710    0.13850    1.000
    N35      N        0.92400    0.22830    0.11900    1.000
    H107     H        0.94610    0.26580    0.14680    1.000
    H108     H        0.94510    0.23820    0.07970    1.000
    N36      N        0.37940    0.37370    0.08920    1.000
    C145     C        0.24290    0.03750    0.21430    1.000
    H109     H        0.23760    0.00530    0.17670    1.000
    C146     C        0.30980    0.09130    0.21860    1.000
    H110     H        0.34950    0.09510    0.18520    1.000
    C147     C        0.31820    0.14010    0.27250    1.000
    C148     C        0.25990    0.12760    0.31920    1.000
    H111     H        0.26320    0.15760    0.35800    1.000
    C149     C        0.19470    0.06910    0.30860    1.000
    H112     H        0.15470    0.06040    0.34120    1.000
    C150     C        0.38270    0.20740    0.27780    1.000
    C151     C        0.45460    0.20810    0.23890    1.000
    H113     H        0.46040    0.16610    0.20730    1.000
    C152     C        0.51650    0.26770    0.24530    1.000
    H114     H        0.56700    0.26330    0.22180    1.000
    C153     C        0.50410    0.33450    0.28670    1.000
    H115     H        0.54510    0.37760    0.28990    1.000
    C154     C        0.43230    0.33830    0.32320    1.000
    C155     C        0.37230    0.27500    0.31840    1.000
    H116     H        0.32310    0.27830    0.34360    1.000
    C156     C        0.42350    0.40680    0.36610    1.000
    C157     C        0.37530    0.50440    0.42970    1.000
    C158     C        0.31060    0.56030    0.46050    1.000
    C159     C        0.27970    0.54200    0.51960    1.000
    H117     H        0.29980    0.49440    0.54190    1.000
    C160     C        0.21850    0.59370    0.54700    1.000
    H118     H        0.19670    0.58120    0.58770    1.000
    C161     C        0.19070    0.66230    0.51430    1.000
    H119     H        0.15030    0.69850    0.53290    1.000
    C162     C        0.22190    0.67960    0.45250    1.000
    C163     C        0.28610    0.63010    0.42860    1.000
    H120     H        0.31290    0.64510    0.39010    1.000
    C164     C        0.19040    0.75180    0.41670    1.000
    C165     C        0.11780    0.79470    0.43070    1.000
    H121     H        0.08710    0.78120    0.46790    1.000
    C166     C        0.08970    0.85670    0.39130    1.000
    H122     H        0.03970    0.88520    0.40290    1.000
    C167     C        0.19940    0.84690    0.32800    1.000
    H123     H        0.23000    0.86760    0.29270    1.000
    C168     C        0.23660    0.78250    0.36500    1.000
    H124     H        0.29060    0.76100    0.35520    1.000
    N37      N        0.18700    0.02750    0.25740    1.000
    N38      N        0.48740    0.44630    0.39290    1.000
    N39      N        0.45650    0.50730    0.43290    1.000
    N40      N        0.35290    0.44600    0.38850    1.000
    N41      N        0.27170    0.42400    0.36900    1.000
    H125     H        0.23420    0.44610    0.39680    1.000
    H126     H        0.26180    0.44510    0.32970    1.000
    N42      N        0.12630    0.87940    0.33920    1.000
    C169     C        0.75710    0.96250    0.71430    1.000
    H127     H        0.76240    0.99470    0.67670    1.000
    C170     C        0.69020    0.90870    0.71860    1.000
    H128     H        0.65050    0.90490    0.68520    1.000
    C171     C        0.68180    0.85990    0.77250    1.000
    C172     C        0.74010    0.87240    0.81920    1.000
    H129     H        0.73680    0.84240    0.85800    1.000
    C173     C        0.80530    0.93090    0.80860    1.000
    H130     H        0.84530    0.93960    0.84120    1.000
    C174     C        0.61730    0.79260    0.77780    1.000
    C175     C        0.54540    0.79190    0.73890    1.000
    H131     H        0.53960    0.83390    0.70730    1.000
    C176     C        0.48350    0.73230    0.74530    1.000
    H132     H        0.43300    0.73670    0.72180    1.000
    C177     C        0.49590    0.66550    0.78670    1.000
    H133     H        0.45490    0.62240    0.78990    1.000
    C178     C        0.56770    0.66170    0.82320    1.000
    C179     C        0.62770    0.72500    0.81840    1.000
    H134     H        0.67690    0.72170    0.84360    1.000
    C180     C        0.57650    0.59320    0.86610    1.000
    C181     C        0.62470    0.49560    0.92970    1.000
    C182     C        0.68940    0.43970    0.96050    1.000
    C183     C        0.72030    0.45800    0.01960    1.000
    H135     H        0.70020    0.50560    0.04190    1.000
    C184     C        0.78150    0.40630    0.04700    1.000
    H136     H        0.80330    0.41880    0.08770    1.000
    C185     C        0.80930    0.33770    0.01430    1.000
    H137     H        0.84970    0.30150    0.03290    1.000
    C186     C        0.77810    0.32040    0.95250    1.000
    C187     C        0.71390    0.36990    0.92860    1.000
    H138     H        0.68710    0.35490    0.89010    1.000
    C188     C        0.80960    0.24820    0.91670    1.000
    C189     C        0.88220    0.20530    0.93070    1.000
    H139     H        0.91290    0.21880    0.96790    1.000
    C190     C        0.91030    0.14330    0.89130    1.000
    H140     H        0.96030    0.11480    0.90290    1.000
    C191     C        0.80060    0.15310    0.82800    1.000
    H141     H        0.77000    0.13240    0.79270    1.000
    C192     C        0.76340    0.21750    0.86500    1.000
    H142     H        0.70940    0.23900    0.85520    1.000
    N43      N        0.81300    0.97250    0.75740    1.000
    N44      N        0.51260    0.55370    0.89290    1.000
    N45      N        0.54350    0.49270    0.93290    1.000
    N46      N        0.64710    0.55400    0.88850    1.000
    N47      N        0.72830    0.57600    0.86900    1.000
    H143     H        0.76580    0.55390    0.89680    1.000
    H144     H        0.73820    0.55490    0.82970    1.000
    N48      N        0.87370    0.12060    0.83920    1.000
    Cd1      Cd       0.94053    0.05947    0.75000    1.000
    Cd2      Cd       0.05947    0.94053    0.25000    1.000
    Cd3      Cd       0.44053    0.44053    0.00000    1.000
    Cd4      Cd       0.55947    0.55947    0.50000    1.000
