data_functionalizedCrystal
_audit_creation_method	'EQeq! by Chris Wilmer'
_symmetry_space_group_name_H-M	'P1'
_symmetry_Int_Tables_number	1
_symmetry_cell_setting	triclinic
loop_
_symmetry_equiv_pos_as_xyz
  x,y,z
_cell_length_a	14.4821
_cell_length_b	16.7137
_cell_length_c	19.213
_cell_angle_alpha	90
_cell_angle_beta	108.039
_cell_angle_gamma	90
loop_
_atom_site_label
_atom_site_type_symbol
_atom_site_fract_x
_atom_site_fract_y
_atom_site_fract_z
_atom_site_charge
Mof_Dy	Dy	0.67641	0.3437	0.66881	1.803
Mof_Dy	Dy	0.07739	0.3638	0.77104	1.999
Mof_C 	C 	0.8654	0.3258	0.8862	-0.201
Mof_C 	C 	0.9472	0.2982	0.9426	0.091
Mof_H 	H 	0.0087	0.3055	0.938	0.023
Mof_C 	C 	0.9388	0.2603	0.0047	-0.128
Mof_C 	C 	0.8464	0.248	0.01	-0.005
Mof_H 	H 	0.8392	0.221	0.0503	0.045
Mof_C 	C 	0.7648	0.2753	0.9561	-0.019
Mof_C 	C 	0.7728	0.3136	0.8938	0.024
Mof_H 	H 	0.7175	0.3309	0.8575	0.028
Mof_C 	C 	0.8729	0.3725	0.8238	0.547
Mof_C 	C 	0.0219	0.2243	0.0599	0.354
Mof_C 	C 	0.6684	0.2614	0.9633	-0.02
Mof_C 	C 	0.5914	0.2522	0.9694	-0.008
Mof_C 	C 	0.4957	0.2507	0.9772	-0.04
Mof_C 	C 	0.4839	0.2176	0.0418	0.042
Mof_H 	H 	0.5367	0.1945	0.0767	0.006
Mof_C 	C 	0.3943	0.2194	0.0532	-0.183
Mof_C 	C 	0.3137	0.2539	0.0058	0.093
Mof_H 	H 	0.2545	0.2549	0.0152	0.021
Mof_C 	C 	0.3251	0.2884	0.9408	-0.161
Mof_C 	C 	0.4153	0.2854	0.9295	0.025
Mof_H 	H 	0.4214	0.3083	0.887	0.038
Mof_C 	C 	0.3821	0.1871	0.1213	0.438
Mof_C 	C 	0.2441	0.323	0.8856	0.45
Mof_C 	C 	0.5438	0.4929	0.7888	-0.058
Mof_C 	C 	0.5369	0.473	0.8582	-0.045
Mof_H 	H 	0.5571	0.4227	0.8776	0.063
Mof_C 	C 	0.5008	0.5265	0.8983	0.026
Mof_C 	C 	0.4679	0.6006	0.8681	-0.041
Mof_H 	H 	0.4415	0.6361	0.894	0.06
Mof_C 	C 	0.4736	0.6227	0.7991	-0.071
Mof_C 	C 	0.5104	0.5689	0.7607	-0.001
Mof_H 	H 	0.5133	0.5832	0.7147	0.051
Mof_C 	C 	0.5823	0.4378	0.7428	0.323
Mof_C 	C 	0.4471	0.7026	0.7663	0.328
Mof_C 	C 	0.5	0.5085	0.9707	-0.014
Mof_C 	C 	0.1279	0.5539	0.8817	0.05
Mof_H 	H 	0.0886	0.5375	0.9113	0.026
Mof_H 	H 	0.1067	0.6054	0.8606	0.014
Mof_H 	H 	0.1946	0.5571	0.9115	0.023
Mof_O 	O 	0.7994	0.3855	0.77307	-0.539
Mof_O 	O 	0.9565	0.3888	0.8208	-0.537
Mof_O 	O 	0.1062	0.2423	0.0614	-0.429
Mof_O 	O 	0.0064	0.1809	0.1061	-0.45
Mof_O 	O 	0.4495	0.139	0.1625	-0.524
Mof_O 	O 	0.3075	0.2055	0.1408	-0.517
Mof_O 	O 	0.167	0.3256	0.8977	-0.439
Mof_O 	O 	0.2452	0.3483	0.827	-0.505
Mof_O 	O 	0.5915	0.3648	0.76145	-0.401
Mof_O 	O 	0.6154	0.4666	0.6958	-0.45
Mof_O 	O 	0.4767	0.7295	0.7207	-0.446
Mof_O 	O 	0.3846	0.7452	0.7899	-0.413
Mof_O 	O 	0.118	0.4925	0.8202	-0.514
Mof_H 	H 	0.1349	0.5039	0.7827	0.163
Mof_Dy	Dy	0.82359	0.8437	0.83119	1.803
Mof_Dy	Dy	0.42261	0.8638	0.72896	2.001
Mof_C 	C 	0.6346	0.8258	0.6138	-0.198
Mof_C 	C 	0.5528	0.7982	0.5574	0.085
Mof_H 	H 	0.4913	0.8055	0.562	0.028
Mof_C 	C 	0.5612	0.7603	0.4953	-0.121
Mof_C 	C 	0.6536	0.748	0.49	-0.007
Mof_H 	H 	0.6608	0.721	0.4497	0.046
Mof_C 	C 	0.7352	0.7753	0.5439	-0.019
Mof_C 	C 	0.7272	0.8136	0.6062	0.023
Mof_H 	H 	0.7825	0.8309	0.6425	0.028
Mof_C 	C 	0.6271	0.8725	0.6762	0.546
Mof_C 	C 	0.4781	0.7243	0.4401	0.351
Mof_C 	C 	0.8316	0.7614	0.5367	-0.02
Mof_C 	C 	0.9086	0.7522	0.5306	-0.009
Mof_C 	C 	0.0043	0.7507	0.5228	-0.038
Mof_C 	C 	0.0161	0.7176	0.4582	0.043
Mof_H 	H 	0.9633	0.6945	0.4233	0.005
Mof_C 	C 	0.1057	0.7194	0.4468	-0.183
Mof_C 	C 	0.1863	0.7539	0.4942	0.092
Mof_H 	H 	0.2455	0.7549	0.4848	0.021
Mof_C 	C 	0.1749	0.7884	0.5592	-0.16
Mof_C 	C 	0.0847	0.7854	0.5705	0.024
Mof_H 	H 	0.0786	0.8083	0.613	0.039
Mof_C 	C 	0.1179	0.6871	0.3787	0.438
Mof_C 	C 	0.2559	0.823	0.6144	0.45
Mof_C 	C 	0.9562	0.9929	0.7112	-0.059
Mof_C 	C 	0.9631	0.973	0.6418	-0.047
Mof_H 	H 	0.9429	0.9227	0.6224	0.063
Mof_C 	C 	0.9992	0.0265	0.6017	0.03
Mof_C 	C 	0.0321	0.1006	0.6319	-0.043
Mof_H 	H 	0.0585	0.1361	0.606	0.061
Mof_C 	C 	0.0264	0.1227	0.7009	-0.071
Mof_C 	C 	0.9896	0.0689	0.7393	0.001
Mof_H 	H 	0.9867	0.0832	0.7853	0.051
Mof_C 	C 	0.9177	0.9378	0.7572	0.323
Mof_C 	C 	0.0529	0.2026	0.7337	0.328
Mof_C 	C 	2.57099e-17	0.0085	0.5293	-0.018
Mof_C 	C 	0.3721	0.0539	0.6183	0.049
Mof_H 	H 	0.4114	0.0375	0.5887	0.026
Mof_H 	H 	0.3933	0.1054	0.6394	0.014
Mof_H 	H 	0.3054	0.0571	0.5885	0.024
Mof_O 	O 	0.7006	0.8855	0.72693	-0.538
Mof_O 	O 	0.5435	0.8888	0.6792	-0.537
Mof_O 	O 	0.3938	0.7423	0.4386	-0.429
Mof_O 	O 	0.4936	0.6809	0.3939	-0.449
Mof_O 	O 	0.0505	0.639	0.3375	-0.523
Mof_O 	O 	0.1925	0.7055	0.3592	-0.517
Mof_O 	O 	0.333	0.8256	0.6023	-0.439
Mof_O 	O 	0.2548	0.8483	0.673	-0.505
Mof_O 	O 	0.9085	0.8648	0.73855	-0.401
Mof_O 	O 	0.8846	0.9666	0.8042	-0.45
Mof_O 	O 	0.0233	0.2295	0.7793	-0.446
Mof_O 	O 	0.1154	0.2452	0.7101	-0.413
Mof_O 	O 	0.382	0.9925	0.6798	-0.513
Mof_H 	H 	0.3651	0.0039	0.7173	0.162
Mof_Dy	Dy	0.32359	0.6563	0.33119	1.804
Mof_Dy	Dy	0.92261	0.6362	0.22896	1.998
Mof_C 	C 	0.1346	0.6742	0.1138	-0.201
Mof_C 	C 	0.0528	0.7018	0.0574	0.094
Mof_H 	H 	0.9913	0.6945	0.062	0.023
Mof_C 	C 	0.0612	0.7397	0.9953	-0.126
Mof_C 	C 	0.1536	0.752	0.99	-0.005
Mof_H 	H 	0.1608	0.779	0.9497	0.045
Mof_C 	C 	0.2352	0.7247	0.0439	-0.019
Mof_C 	C 	0.2272	0.6864	0.1062	0.024
Mof_H 	H 	0.2825	0.6691	0.1425	0.027
Mof_C 	C 	0.1271	0.6275	0.1762	0.547
Mof_C 	C 	0.9781	0.7757	0.9401	0.353
Mof_C 	C 	0.3316	0.7386	0.0367	-0.02
Mof_C 	C 	0.4086	0.7478	0.0306	-0.008
Mof_C 	C 	0.5043	0.7493	0.0228	-0.04
Mof_C 	C 	0.5161	0.7824	0.9582	0.042
Mof_H 	H 	0.4633	0.8055	0.9233	0.006
Mof_C 	C 	0.6057	0.7806	0.9468	-0.183
Mof_C 	C 	0.6863	0.7461	0.9942	0.093
Mof_H 	H 	0.7455	0.7451	0.9848	0.021
Mof_C 	C 	0.6749	0.7116	0.0592	-0.161
Mof_C 	C 	0.5847	0.7146	0.0705	0.025
Mof_H 	H 	0.5786	0.6917	0.113	0.038
Mof_C 	C 	0.6179	0.8129	0.8787	0.438
Mof_C 	C 	0.7559	0.677	0.1144	0.45
Mof_C 	C 	0.4562	0.5071	0.2112	-0.058
Mof_C 	C 	0.4631	0.527	0.1418	-0.045
Mof_H 	H 	0.4429	0.5773	0.1224	0.063
Mof_C 	C 	0.4992	0.4735	0.1017	0.026
Mof_C 	C 	0.5321	0.3994	0.1319	-0.041
Mof_H 	H 	0.5585	0.3639	0.106	0.06
Mof_C 	C 	0.5264	0.3773	0.2009	-0.071
Mof_C 	C 	0.4896	0.4311	0.2393	-0.001
Mof_H 	H 	0.4867	0.4168	0.2853	0.051
Mof_C 	C 	0.4177	0.5622	0.2572	0.323
Mof_C 	C 	0.5529	0.2974	0.2337	0.328
Mof_C 	C 	0.5	0.4915	0.0293	-0.014
Mof_C 	C 	0.8721	0.4461	0.1183	0.05
Mof_H 	H 	0.9114	0.4625	0.0887	0.025
Mof_H 	H 	0.8933	0.3946	0.1394	0.014
Mof_H 	H 	0.8054	0.4429	0.0885	0.023
Mof_O 	O 	0.2006	0.6145	0.22693	-0.539
Mof_O 	O 	0.0435	0.6112	0.1792	-0.536
Mof_O 	O 	0.8938	0.7577	0.9386	-0.429
Mof_O 	O 	0.9936	0.8191	0.8939	-0.45
Mof_O 	O 	0.5505	0.861	0.8375	-0.524
Mof_O 	O 	0.6925	0.7945	0.8592	-0.517
Mof_O 	O 	0.833	0.6744	0.1023	-0.439
Mof_O 	O 	0.7548	0.6517	0.173	-0.505
Mof_O 	O 	0.4085	0.6352	0.23855	-0.401
Mof_O 	O 	0.3846	0.5334	0.3042	-0.45
Mof_O 	O 	0.5233	0.2705	0.2793	-0.446
Mof_O 	O 	0.6154	0.2548	0.2101	-0.413
Mof_O 	O 	0.882	0.5075	0.1798	-0.514
Mof_H 	H 	0.8651	0.4961	0.2173	0.163
Mof_Dy	Dy	0.17641	0.1563	0.16881	1.804
Mof_Dy	Dy	0.57739	0.1362	0.27104	2.001
Mof_C 	C 	0.3654	0.1742	0.3862	-0.198
Mof_C 	C 	0.4472	0.2018	0.4426	0.085
Mof_H 	H 	0.5087	0.1945	0.438	0.028
Mof_C 	C 	0.4388	0.2397	0.5047	-0.121
Mof_C 	C 	0.3464	0.252	0.51	-0.007
Mof_H 	H 	0.3392	0.279	0.5503	0.046
Mof_C 	C 	0.2648	0.2247	0.4561	-0.018
Mof_C 	C 	0.2728	0.1864	0.3938	0.022
Mof_H 	H 	0.2175	0.1691	0.3575	0.028
Mof_C 	C 	0.3729	0.1275	0.3238	0.546
Mof_C 	C 	0.5219	0.2757	0.5599	0.351
Mof_C 	C 	0.1684	0.2386	0.4633	-0.021
Mof_C 	C 	0.0914	0.2478	0.4694	-0.008
Mof_C 	C 	0.9957	0.2493	0.4772	-0.039
Mof_C 	C 	0.9839	0.2824	0.5418	0.041
Mof_H 	H 	0.0367	0.3055	0.5767	0.007
Mof_C 	C 	0.8943	0.2806	0.5532	-0.182
Mof_C 	C 	0.8137	0.2461	0.5058	0.092
Mof_H 	H 	0.7545	0.2451	0.5152	0.021
Mof_C 	C 	0.8251	0.2116	0.4408	-0.16
Mof_C 	C 	0.9153	0.2146	0.4295	0.025
Mof_H 	H 	0.9214	0.1917	0.387	0.038
Mof_C 	C 	0.8821	0.3129	0.6213	0.437
Mof_C 	C 	0.7441	0.177	0.3856	0.45
Mof_C 	C 	0.0438	0.0071	0.2888	-0.06
Mof_C 	C 	0.0369	0.027	0.3582	-0.045
Mof_H 	H 	0.0571	0.0773	0.3776	0.063
Mof_C 	C 	0.0008	0.9735	0.3983	0.027
Mof_C 	C 	0.9679	0.8994	0.3681	-0.042
Mof_H 	H 	0.9415	0.8639	0.394	0.06
Mof_C 	C 	0.9736	0.8773	0.2991	-0.074
Mof_C 	C 	0.0104	0.9311	0.2607	0.004
Mof_H 	H 	0.0133	0.9168	0.2147	0.05
Mof_C 	C 	0.0823	0.0622	0.2428	0.324
Mof_C 	C 	0.9471	0.7974	0.2663	0.329
Mof_C 	C 	2.57099e-17	0.9915	0.4707	-0.011
Mof_C 	C 	0.6279	0.9461	0.3817	0.048
Mof_H 	H 	0.5886	0.9625	0.4113	0.026
Mof_H 	H 	0.6067	0.8946	0.3606	0.014
Mof_H 	H 	0.6946	0.9429	0.4115	0.024
Mof_O 	O 	0.2994	0.1145	0.27307	-0.538
Mof_O 	O 	0.4565	0.1112	0.3208	-0.537
Mof_O 	O 	0.6062	0.2577	0.5614	-0.429
Mof_O 	O 	0.5064	0.3191	0.6061	-0.449
Mof_O 	O 	0.9495	0.361	0.6625	-0.524
Mof_O 	O 	0.8075	0.2945	0.6408	-0.517
Mof_O 	O 	0.667	0.1744	0.3977	-0.439
Mof_O 	O 	0.7452	0.1517	0.327	-0.505
Mof_O 	O 	0.0915	0.1352	0.26145	-0.401
Mof_O 	O 	0.1154	0.0334	0.1958	-0.45
Mof_O 	O 	0.9767	0.7705	0.2207	-0.447
Mof_O 	O 	0.8846	0.7548	0.2899	-0.413
Mof_O 	O 	0.618	0.0075	0.3202	-0.513
Mof_H 	H 	0.6349	0.9961	0.2827	0.162
_end
