data_functionalizedCrystal
_audit_creation_method	'EQeq! by Chris Wilmer'
_symmetry_space_group_name_H-M	'P1'
_symmetry_Int_Tables_number	1
_symmetry_cell_setting	triclinic
loop_
_symmetry_equiv_pos_as_xyz
  x,y,z
_cell_length_a	13.7355
_cell_length_b	40.624
_cell_length_c	20.8303
_cell_angle_alpha	90
_cell_angle_beta	90
_cell_angle_gamma	90
loop_
_atom_site_label
_atom_site_type_symbol
_atom_site_fract_x
_atom_site_fract_y
_atom_site_fract_z
_atom_site_charge
Mof_C 	C 	0.271	0.6875	0.744	0.458
Mof_C 	C 	0.3559	0.6627	0.7346	0.454
Mof_C 	C 	0.9035	0.89787	0.3566	0.115
Mof_H 	H 	0.9125	0.8935	0.3132	-0.009
Mof_C 	C 	0.9723	0.91686	0.3879	-0.205
Mof_H 	H 	0.0249	0.9251	0.3648	0.102
Mof_C 	C 	0.9652	0.92382	0.4516	0.165
Mof_C 	C 	0.8836	0.9111	0.4798	-0.213
Mof_H 	H 	0.8729	0.9149	0.5232	0.107
Mof_C 	C 	0.8175	0.89303	0.4459	0.13
Mof_H 	H 	0.7627	0.8854	0.4675	-0.02
Mof_C 	C 	0.0374	0.94372	0.486	-0.114
Mof_C 	C 	0.128	0.94791	0.4606	0.073
Mof_H 	H 	0.1432	0.938	0.4216	0.001
Mof_C 	C 	0.1986	0.96678	0.4917	-0.195
Mof_H 	H 	0.2596	0.9693	0.4731	0.098
Mof_C 	C 	0.1792	0.98161	0.5492	0.17
Mof_C 	C 	0.0857	0.97785	0.5745	-0.194
Mof_H 	H 	0.0694	0.9882	0.6128	0.101
Mof_C 	C 	0.0184	0.9591	0.5435	0.081
Mof_H 	H 	0.9572	0.9566	0.5619	-0.003
Mof_C 	C 	0.2548	0.02873	0.6845	-0.125
Mof_H 	H 	0.2569	0.0487	0.6628	0.072
Mof_C 	C 	0.2566	0.0285	0.7507	-0.018
Mof_H 	H 	0.2625	0.0484	0.7725	0.039
Mof_C 	C 	0.2468	0.02866	0.8925	0.011
Mof_H 	H 	0.2448	0.0487	0.8709	0.028
Mof_C 	C 	0.2464	0.02893	0.9581	-0.156
Mof_H 	H 	0.2438	0.0488	0.9802	0.089
Mof_C 	C 	0.1842	0.02054	0.0943	0.162
Mof_C 	C 	0.2112	0.03479	0.1506	-0.184
Mof_H 	H 	0.2738	0.0313	0.1662	0.099
Mof_C 	C 	0.148	0.05424	0.1847	0.058
Mof_H 	H 	0.1694	0.0644	0.2221	0.01
Mof_C 	C 	0.0529	0.059	0.1646	-0.092
Mof_C 	C 	0.0266	0.04461	0.1063	0.057
Mof_H 	H 	0.964	0.0477	0.0904	0.012
Mof_C 	C 	0.0914	0.02613	0.0723	-0.18
Mof_H 	H 	0.0723	0.0171	0.0333	0.096
Mof_C 	C 	0.9858	0.07831	0.2039	0.129
Mof_C 	C 	0.9909	0.07797	0.2708	-0.173
Mof_H 	H 	0.0377	0.0652	0.2915	0.091
Mof_C 	C 	0.9253	0.09688	0.3065	0.098
Mof_H 	H 	0.9302	0.0966	0.351	-0.009
Mof_C 	C 	0.8495	0.11446	0.2161	0.112
Mof_H 	H 	0.8003	0.1268	0.1972	-0.01
Mof_C 	C 	0.9102	0.09666	0.1769	-0.184
Mof_H 	H 	0.9009	0.0968	0.1327	0.097
Mof_C 	C 	0.6166	0.8367	0.4324	0.354
Mof_C 	C 	0.5725	0.81209	0.4788	-0.108
Mof_C 	C 	0.503	0.82131	0.5182	0.043
Mof_H 	H 	0.4826	0.8431	0.5171	0.033
Mof_C 	C 	0.4592	0.8002	0.5609	-0.105
Mof_H 	H 	0.4104	0.808	0.5879	0.066
Mof_C 	C 	0.4871	0.7678	0.564	0.044
Mof_C 	C 	0.5598	0.7593	0.5267	-0.106
Mof_H 	H 	0.5829	0.7378	0.5299	0.068
Mof_C 	C 	0.6047	0.78005	0.4828	0.041
Mof_H 	H 	0.6551	0.7725	0.4568	0.035
Mof_C 	C 	0.43662	0.74409	0.60583	0.069
Mof_C 	C 	0.34786	0.7517	0.63425	-0.141
Mof_H 	H 	0.3167	0.7714	0.6243	0.092
Mof_C 	C 	0.3057	0.72992	0.67757	0.092
Mof_H 	H 	0.2464	0.735	0.6966	0.014
Mof_C 	C 	0.3524	0.70053	0.69248	-0.222
Mof_C 	C 	0.4411	0.69292	0.66407	0.092
Mof_H 	H 	0.4723	0.6733	0.674	0.003
Mof_C 	C 	0.4832	0.7147	0.62074	-0.141
Mof_H 	H 	0.5426	0.7096	0.6017	0.081
Mof_N 	N 	0.82642	0.88579	0.38479	-0.284
Mof_N 	N 	0.8574	0.11491	0.28002	-0.271
Mof_O 	O 	0.68247	0.82435	0.39717	-0.449
Mof_O 	O 	0.59319	0.86514	0.43381	-0.332
Mof_O 	O 	0.3112	0.66984	0.77706	-0.698
Mof_Zn	Zn	0.73236	0.85604	0.33508	1.223
Mof_O 	O 	0.3758	0.6342	0.7229	-0.332
Mof_O 	O 	0.1853	0.6895	0.7527	-0.354
Mof_C 	C 	0.229	0.3125	0.744	0.459
Mof_C 	C 	0.1441	0.3373	0.7346	0.455
Mof_C 	C 	0.5965	0.10213	0.3566	0.117
Mof_H 	H 	0.5875	0.1065	0.3132	-0.008
Mof_C 	C 	0.5277	0.08314	0.3879	-0.205
Mof_H 	H 	0.4751	0.0749	0.3648	0.104
Mof_C 	C 	0.5348	0.07618	0.4516	0.166
Mof_C 	C 	0.6164	0.0889	0.4798	-0.212
Mof_H 	H 	0.6271	0.0851	0.5232	0.108
Mof_C 	C 	0.6825	0.10697	0.4459	0.131
Mof_H 	H 	0.7373	0.1146	0.4675	-0.019
Mof_C 	C 	0.4626	0.05628	0.486	-0.114
Mof_C 	C 	0.372	0.05209	0.4606	0.075
Mof_H 	H 	0.3568	0.062	0.4216	0.002
Mof_C 	C 	0.3014	0.03322	0.4917	-0.194
Mof_H 	H 	0.2404	0.0307	0.4731	0.099
Mof_C 	C 	0.3208	0.01839	0.5492	0.172
Mof_C 	C 	0.4143	0.02215	0.5745	-0.194
Mof_H 	H 	0.4306	0.0118	0.6128	0.102
Mof_C 	C 	0.4816	0.0409	0.5435	0.083
Mof_H 	H 	0.5428	0.0434	0.5619	-0.002
Mof_C 	C 	0.2452	0.97127	0.6845	-0.124
Mof_H 	H 	0.2431	0.9513	0.6628	0.073
Mof_C 	C 	0.2434	0.9715	0.7507	-0.018
Mof_H 	H 	0.2375	0.9516	0.7725	0.04
Mof_C 	C 	0.2532	0.97134	0.8925	0.011
Mof_H 	H 	0.2552	0.9513	0.8709	0.029
Mof_C 	C 	0.2536	0.97107	0.9581	-0.156
Mof_H 	H 	0.2562	0.9512	0.9802	0.089
Mof_C 	C 	0.3158	0.97946	0.0943	0.161
Mof_C 	C 	0.2888	0.96521	0.1506	-0.184
Mof_H 	H 	0.2262	0.9687	0.1662	0.098
Mof_C 	C 	0.352	0.94576	0.1847	0.057
Mof_H 	H 	0.3306	0.9356	0.2221	0.01
Mof_C 	C 	0.4471	0.941	0.1646	-0.092
Mof_C 	C 	0.4734	0.95539	0.1063	0.057
Mof_H 	H 	0.536	0.9523	0.0904	0.011
Mof_C 	C 	0.4086	0.97387	0.0723	-0.179
Mof_H 	H 	0.4277	0.9829	0.0333	0.096
Mof_C 	C 	0.5142	0.92169	0.2039	0.129
Mof_C 	C 	0.5091	0.92203	0.2708	-0.174
Mof_H 	H 	0.4623	0.9348	0.2915	0.091
Mof_C 	C 	0.5747	0.90312	0.3065	0.098
Mof_H 	H 	0.5698	0.9034	0.351	-0.009
Mof_C 	C 	0.6505	0.88554	0.2161	0.112
Mof_H 	H 	0.6997	0.8732	0.1972	-0.01
Mof_C 	C 	0.5898	0.90334	0.1769	-0.183
Mof_H 	H 	0.5991	0.9032	0.1327	0.097
Mof_C 	C 	0.8834	0.1633	0.4324	0.353
Mof_C 	C 	0.9275	0.18791	0.4788	-0.107
Mof_C 	C 	0.997	0.17869	0.5182	0.042
Mof_H 	H 	0.0174	0.1569	0.5171	0.033
Mof_C 	C 	0.0408	0.1998	0.5609	-0.104
Mof_H 	H 	0.0896	0.192	0.5879	0.066
Mof_C 	C 	0.0129	0.2322	0.564	0.044
Mof_C 	C 	0.9402	0.2407	0.5267	-0.106
Mof_H 	H 	0.9171	0.2622	0.5299	0.068
Mof_C 	C 	0.8953	0.21995	0.4828	0.041
Mof_H 	H 	0.8449	0.2275	0.4568	0.035
Mof_C 	C 	0.06338	0.25591	0.60583	0.069
Mof_C 	C 	0.15214	0.2483	0.63425	-0.141
Mof_H 	H 	0.1833	0.2286	0.6243	0.091
Mof_C 	C 	0.1943	0.27008	0.67757	0.092
Mof_H 	H 	0.2536	0.265	0.6966	0.014
Mof_C 	C 	0.1476	0.29947	0.69248	-0.222
Mof_C 	C 	0.0589	0.30708	0.66407	0.091
Mof_H 	H 	0.0277	0.3267	0.674	0.004
Mof_C 	C 	0.0168	0.2853	0.62074	-0.139
Mof_H 	H 	0.9574	0.2904	0.6017	0.08
Mof_N 	N 	0.67358	0.11421	0.38479	-0.284
Mof_N 	N 	0.6426	0.88509	0.28002	-0.271
Mof_O 	O 	0.81753	0.17565	0.39717	-0.449
Mof_O 	O 	0.90681	0.13486	0.43381	-0.332
Mof_O 	O 	0.1888	0.33016	0.77706	-0.698
Mof_Zn	Zn	0.76764	0.14396	0.33508	1.223
Mof_O 	O 	0.1242	0.3658	0.7229	-0.332
Mof_O 	O 	0.3147	0.3105	0.7527	-0.354
Mof_C 	C 	0.771	0.8125	0.244	0.459
Mof_C 	C 	0.8559	0.8373	0.2346	0.455
Mof_C 	C 	0.4035	0.60213	0.8566	0.117
Mof_H 	H 	0.4125	0.6065	0.8132	-0.008
Mof_C 	C 	0.4723	0.58314	0.8879	-0.205
Mof_H 	H 	0.5249	0.5749	0.8648	0.104
Mof_C 	C 	0.4652	0.57618	0.9516	0.166
Mof_C 	C 	0.3836	0.5889	0.9798	-0.212
Mof_H 	H 	0.3729	0.5851	0.0232	0.108
Mof_C 	C 	0.3175	0.60697	0.9459	0.131
Mof_H 	H 	0.2627	0.6146	0.9675	-0.019
Mof_C 	C 	0.5374	0.55628	0.986	-0.114
Mof_C 	C 	0.628	0.55209	0.9606	0.075
Mof_H 	H 	0.6432	0.562	0.9216	0.002
Mof_C 	C 	0.6986	0.53322	0.9917	-0.195
Mof_H 	H 	0.7596	0.5307	0.9731	0.099
Mof_C 	C 	0.6792	0.51839	0.0492	0.172
Mof_C 	C 	0.5857	0.52215	0.0745	-0.194
Mof_H 	H 	0.5694	0.5118	0.1128	0.102
Mof_C 	C 	0.5184	0.5409	0.0435	0.083
Mof_H 	H 	0.4572	0.5434	0.0619	-0.002
Mof_C 	C 	0.7548	0.47127	0.1845	-0.124
Mof_H 	H 	0.7569	0.4513	0.1628	0.073
Mof_C 	C 	0.7566	0.4715	0.2507	-0.017
Mof_H 	H 	0.7625	0.4516	0.2725	0.04
Mof_C 	C 	0.7468	0.47134	0.3925	0.011
Mof_H 	H 	0.7448	0.4513	0.3709	0.029
Mof_C 	C 	0.7464	0.47107	0.4581	-0.155
Mof_H 	H 	0.7438	0.4512	0.4802	0.089
Mof_C 	C 	0.6842	0.47946	0.5943	0.162
Mof_C 	C 	0.7112	0.46521	0.6506	-0.184
Mof_H 	H 	0.7738	0.4687	0.6662	0.099
Mof_C 	C 	0.648	0.44576	0.6847	0.058
Mof_H 	H 	0.6694	0.4356	0.7221	0.01
Mof_C 	C 	0.5529	0.441	0.6646	-0.092
Mof_C 	C 	0.5266	0.45539	0.6063	0.058
Mof_H 	H 	0.464	0.4523	0.5904	0.011
Mof_C 	C 	0.5914	0.47387	0.5723	-0.18
Mof_H 	H 	0.5723	0.4829	0.5333	0.096
Mof_C 	C 	0.4858	0.42169	0.7039	0.129
Mof_C 	C 	0.4909	0.42203	0.7708	-0.174
Mof_H 	H 	0.5377	0.4348	0.7915	0.091
Mof_C 	C 	0.4253	0.40312	0.8065	0.098
Mof_H 	H 	0.4302	0.4034	0.851	-0.009
Mof_C 	C 	0.3495	0.38554	0.7161	0.112
Mof_H 	H 	0.3003	0.3732	0.6972	-0.01
Mof_C 	C 	0.4102	0.40334	0.6769	-0.184
Mof_H 	H 	0.4009	0.4032	0.6327	0.097
Mof_C 	C 	0.1166	0.6633	0.9324	0.353
Mof_C 	C 	0.0725	0.68791	0.9788	-0.105
Mof_C 	C 	0.003	0.67869	0.0182	0.038
Mof_H 	H 	0.9826	0.6569	0.0171	0.035
Mof_C 	C 	0.9592	0.6998	0.0609	-0.102
Mof_H 	H 	0.9104	0.692	0.0879	0.065
Mof_C 	C 	0.9871	0.7322	0.064	0.044
Mof_C 	C 	0.0598	0.7407	0.0267	-0.107
Mof_H 	H 	0.0829	0.7622	0.0299	0.068
Mof_C 	C 	0.1047	0.71995	0.9828	0.041
Mof_H 	H 	0.1551	0.7275	0.9568	0.035
Mof_C 	C 	0.93662	0.75591	0.10583	0.068
Mof_C 	C 	0.84786	0.7483	0.13425	-0.141
Mof_H 	H 	0.8167	0.7286	0.1243	0.091
Mof_C 	C 	0.8057	0.77008	0.17757	0.092
Mof_H 	H 	0.7464	0.765	0.1966	0.014
Mof_C 	C 	0.8524	0.79947	0.19248	-0.222
Mof_C 	C 	0.9411	0.80708	0.16407	0.091
Mof_H 	H 	0.9723	0.8267	0.174	0.004
Mof_C 	C 	0.9832	0.7853	0.12074	-0.139
Mof_H 	H 	0.0426	0.7904	0.1017	0.079
Mof_N 	N 	0.32642	0.61421	0.88479	-0.284
Mof_N 	N 	0.3574	0.38509	0.78002	-0.271
Mof_O 	O 	0.18247	0.67565	0.89717	-0.448
Mof_O 	O 	0.09319	0.63486	0.93381	-0.332
Mof_O 	O 	0.8112	0.83016	0.27706	-0.698
Mof_Zn	Zn	0.23236	0.64396	0.83508	1.223
Mof_O 	O 	0.8758	0.8658	0.2229	-0.332
Mof_O 	O 	0.6853	0.8105	0.2527	-0.354
Mof_C 	C 	0.729	0.1875	0.244	0.459
Mof_C 	C 	0.6441	0.1627	0.2346	0.455
Mof_C 	C 	0.0965	0.39787	0.8566	0.117
Mof_H 	H 	0.0875	0.3935	0.8132	-0.008
Mof_C 	C 	0.0277	0.41686	0.8879	-0.205
Mof_H 	H 	0.9751	0.4251	0.8648	0.103
Mof_C 	C 	0.0348	0.42382	0.9516	0.167
Mof_C 	C 	0.1164	0.4111	0.9798	-0.212
Mof_H 	H 	0.1271	0.4149	0.0232	0.108
Mof_C 	C 	0.1825	0.39303	0.9459	0.131
Mof_H 	H 	0.2373	0.3854	0.9675	-0.019
Mof_C 	C 	0.9626	0.44372	0.986	-0.117
Mof_C 	C 	0.872	0.44791	0.9606	0.077
Mof_H 	H 	0.8568	0.438	0.9216	0.001
Mof_C 	C 	0.8014	0.46678	0.9917	-0.197
Mof_H 	H 	0.7404	0.4693	0.9731	0.1
Mof_C 	C 	0.8208	0.48161	0.0492	0.174
Mof_C 	C 	0.9143	0.47785	0.0745	-0.196
Mof_H 	H 	0.9306	0.4882	0.1128	0.103
Mof_C 	C 	0.9816	0.4591	0.0435	0.087
Mof_H 	H 	0.0428	0.4566	0.0619	-0.004
Mof_C 	C 	0.7452	0.52873	0.1845	-0.124
Mof_H 	H 	0.7431	0.5487	0.1628	0.073
Mof_C 	C 	0.7434	0.5285	0.2507	-0.017
Mof_H 	H 	0.7375	0.5484	0.2725	0.04
Mof_C 	C 	0.7532	0.52866	0.3925	0.011
Mof_H 	H 	0.7552	0.5487	0.3709	0.029
Mof_C 	C 	0.7536	0.52893	0.4581	-0.155
Mof_H 	H 	0.7562	0.5488	0.4802	0.089
Mof_C 	C 	0.8158	0.52054	0.5943	0.162
Mof_C 	C 	0.7888	0.53479	0.6506	-0.184
Mof_H 	H 	0.7262	0.5313	0.6662	0.099
Mof_C 	C 	0.852	0.55424	0.6847	0.058
Mof_H 	H 	0.8306	0.5644	0.7221	0.01
Mof_C 	C 	0.9471	0.559	0.6646	-0.092
Mof_C 	C 	0.9734	0.54461	0.6063	0.058
Mof_H 	H 	0.036	0.5477	0.5904	0.011
Mof_C 	C 	0.9086	0.52613	0.5723	-0.18
Mof_H 	H 	0.9277	0.5171	0.5333	0.096
Mof_C 	C 	0.0142	0.57831	0.7039	0.129
Mof_C 	C 	0.0091	0.57797	0.7708	-0.173
Mof_H 	H 	0.9623	0.5652	0.7915	0.091
Mof_C 	C 	0.0747	0.59688	0.8065	0.098
Mof_H 	H 	0.0698	0.5966	0.851	-0.009
Mof_C 	C 	0.1505	0.61446	0.7161	0.112
Mof_H 	H 	0.1997	0.6268	0.6972	-0.01
Mof_C 	C 	0.0898	0.59666	0.6769	-0.183
Mof_H 	H 	0.0991	0.5968	0.6327	0.097
Mof_C 	C 	0.3834	0.3367	0.9324	0.354
Mof_C 	C 	0.4275	0.31209	0.9788	-0.108
Mof_C 	C 	0.497	0.32131	0.0182	0.043
Mof_H 	H 	0.5174	0.3431	0.0171	0.033
Mof_C 	C 	0.5408	0.3002	0.0609	-0.105
Mof_H 	H 	0.5896	0.308	0.0879	0.066
Mof_C 	C 	0.5129	0.2678	0.064	0.044
Mof_C 	C 	0.4402	0.2593	0.0267	-0.106
Mof_H 	H 	0.4171	0.2378	0.0299	0.068
Mof_C 	C 	0.3953	0.28005	0.9828	0.042
Mof_H 	H 	0.3449	0.2725	0.9568	0.035
Mof_C 	C 	0.56338	0.24409	0.10583	0.069
Mof_C 	C 	0.65214	0.2517	0.13425	-0.141
Mof_H 	H 	0.6833	0.2714	0.1243	0.091
Mof_C 	C 	0.6943	0.22992	0.17757	0.092
Mof_H 	H 	0.7536	0.235	0.1966	0.014
Mof_C 	C 	0.6476	0.20053	0.19248	-0.222
Mof_C 	C 	0.5589	0.19292	0.16407	0.092
Mof_H 	H 	0.5277	0.1733	0.174	0.003
Mof_C 	C 	0.5168	0.2147	0.12074	-0.14
Mof_H 	H 	0.4574	0.2096	0.1017	0.08
Mof_N 	N 	0.17358	0.38579	0.88479	-0.284
Mof_N 	N 	0.1426	0.61491	0.78002	-0.271
Mof_O 	O 	0.31753	0.32435	0.89717	-0.449
Mof_O 	O 	0.40681	0.36514	0.93381	-0.332
Mof_O 	O 	0.6888	0.16984	0.27706	-0.698
Mof_Zn	Zn	0.26764	0.35604	0.83508	1.223
Mof_O 	O 	0.6242	0.1342	0.2229	-0.332
Mof_O 	O 	0.8147	0.1895	0.2527	-0.354
Mof_C 	C 	0.25	0	0.6504	0.124
Mof_C 	C 	0.25	0	0.7856	0.004
Mof_C 	C 	0.25	-4.34368e-33	0.8566	-0.025
Mof_C 	C 	0.25	4.34368e-33	0.991	0.146
Mof_N 	N 	0.25	0	0.58192	-0.185
Mof_N 	N 	0.25	0	0.05929	-0.184
Mof_C 	C 	0.75	0.5	0.1504	0.123
Mof_C 	C 	0.75	0.5	0.2856	0.003
Mof_C 	C 	0.75	0.5	0.3566	-0.025
Mof_C 	C 	0.75	0.5	0.491	0.144
Mof_N 	N 	0.75	0.5	0.08192	-0.186
Mof_N 	N 	0.75	0.5	0.55929	-0.184
Mof_C 	C 	0.229	0.1875	0.756	0.459
Mof_C 	C 	0.1441	0.1627	0.7654	0.455
Mof_C 	C 	0.5965	0.39787	0.1434	0.117
Mof_H 	H 	0.5875	0.3935	0.1868	-0.008
Mof_C 	C 	0.5277	0.41686	0.1121	-0.205
Mof_H 	H 	0.4751	0.4251	0.1352	0.104
Mof_C 	C 	0.5348	0.42382	0.0484	0.166
Mof_C 	C 	0.6164	0.4111	0.0202	-0.212
Mof_H 	H 	0.6271	0.4149	0.9768	0.108
Mof_C 	C 	0.6825	0.39303	0.0541	0.131
Mof_H 	H 	0.7373	0.3854	0.0325	-0.019
Mof_C 	C 	0.4626	0.44372	0.014	-0.114
Mof_C 	C 	0.372	0.44791	0.0394	0.075
Mof_H 	H 	0.3568	0.438	0.0784	0.002
Mof_C 	C 	0.3014	0.46678	0.0083	-0.195
Mof_H 	H 	0.2404	0.4693	0.0269	0.099
Mof_C 	C 	0.3208	0.48161	0.9508	0.172
Mof_C 	C 	0.4143	0.47785	0.9255	-0.194
Mof_H 	H 	0.4306	0.4882	0.8872	0.102
Mof_C 	C 	0.4816	0.4591	0.9565	0.083
Mof_H 	H 	0.5428	0.4566	0.9381	-0.002
Mof_C 	C 	0.2452	0.52873	0.8155	-0.124
Mof_H 	H 	0.2431	0.5487	0.8372	0.073
Mof_C 	C 	0.2434	0.5285	0.7493	-0.017
Mof_H 	H 	0.2375	0.5484	0.7275	0.04
Mof_C 	C 	0.2532	0.52866	0.6075	0.011
Mof_H 	H 	0.2552	0.5487	0.6291	0.029
Mof_C 	C 	0.2536	0.52893	0.5419	-0.155
Mof_H 	H 	0.2562	0.5488	0.5198	0.089
Mof_C 	C 	0.3158	0.52054	0.4057	0.162
Mof_C 	C 	0.2888	0.53479	0.3494	-0.184
Mof_H 	H 	0.2262	0.5313	0.3338	0.099
Mof_C 	C 	0.352	0.55424	0.3153	0.058
Mof_H 	H 	0.3306	0.5644	0.2779	0.01
Mof_C 	C 	0.4471	0.559	0.3354	-0.092
Mof_C 	C 	0.4734	0.54461	0.3937	0.058
Mof_H 	H 	0.536	0.5477	0.4096	0.011
Mof_C 	C 	0.4086	0.52613	0.4277	-0.18
Mof_H 	H 	0.4277	0.5171	0.4667	0.096
Mof_C 	C 	0.5142	0.57831	0.2961	0.129
Mof_C 	C 	0.5091	0.57797	0.2292	-0.174
Mof_H 	H 	0.4623	0.5652	0.2085	0.091
Mof_C 	C 	0.5747	0.59688	0.1935	0.098
Mof_H 	H 	0.5698	0.5966	0.149	-0.009
Mof_C 	C 	0.6505	0.61446	0.2839	0.112
Mof_H 	H 	0.6997	0.6268	0.3028	-0.01
Mof_C 	C 	0.5898	0.59666	0.3231	-0.184
Mof_H 	H 	0.5991	0.5968	0.3673	0.097
Mof_C 	C 	0.8834	0.3367	0.0676	0.353
Mof_C 	C 	0.9275	0.31209	0.0212	-0.105
Mof_C 	C 	0.997	0.32131	0.9818	0.038
Mof_H 	H 	0.0174	0.3431	0.9829	0.035
Mof_C 	C 	0.0408	0.3002	0.9391	-0.102
Mof_H 	H 	0.0896	0.308	0.9121	0.065
Mof_C 	C 	0.0129	0.2678	0.936	0.044
Mof_C 	C 	0.9402	0.2593	0.9733	-0.107
Mof_H 	H 	0.9171	0.2378	0.9701	0.068
Mof_C 	C 	0.8953	0.28005	0.0172	0.041
Mof_H 	H 	0.8449	0.2725	0.0432	0.035
Mof_C 	C 	0.06338	0.24409	0.89417	0.068
Mof_C 	C 	0.15214	0.2517	0.86575	-0.141
Mof_H 	H 	0.1833	0.2714	0.8757	0.091
Mof_C 	C 	0.1943	0.22992	0.82243	0.092
Mof_H 	H 	0.2536	0.235	0.8034	0.014
Mof_C 	C 	0.1476	0.20053	0.80752	-0.222
Mof_C 	C 	0.0589	0.19292	0.83593	0.091
Mof_H 	H 	0.0277	0.1733	0.826	0.004
Mof_C 	C 	0.0168	0.2147	0.87926	-0.139
Mof_H 	H 	0.9574	0.2096	0.8983	0.079
Mof_N 	N 	0.67358	0.38579	0.11521	-0.284
Mof_N 	N 	0.6426	0.61491	0.21998	-0.271
Mof_O 	O 	0.81753	0.32435	0.10283	-0.448
Mof_O 	O 	0.90681	0.36514	0.06619	-0.332
Mof_O 	O 	0.1888	0.16984	0.72294	-0.698
Mof_Zn	Zn	0.76764	0.35604	0.16492	1.223
Mof_O 	O 	0.1242	0.1342	0.7771	-0.332
Mof_O 	O 	0.3147	0.1895	0.7473	-0.354
Mof_C 	C 	0.271	0.8125	0.756	0.459
Mof_C 	C 	0.3559	0.8373	0.7654	0.455
Mof_C 	C 	0.9035	0.60213	0.1434	0.117
Mof_H 	H 	0.9125	0.6065	0.1868	-0.008
Mof_C 	C 	0.9723	0.58314	0.1121	-0.205
Mof_H 	H 	0.0249	0.5749	0.1352	0.103
Mof_C 	C 	0.9652	0.57618	0.0484	0.167
Mof_C 	C 	0.8836	0.5889	0.0202	-0.212
Mof_H 	H 	0.8729	0.5851	0.9768	0.108
Mof_C 	C 	0.8175	0.60697	0.0541	0.131
Mof_H 	H 	0.7627	0.6146	0.0325	-0.019
Mof_C 	C 	0.0374	0.55628	0.014	-0.117
Mof_C 	C 	0.128	0.55209	0.0394	0.077
Mof_H 	H 	0.1432	0.562	0.0784	0.001
Mof_C 	C 	0.1986	0.53322	0.0083	-0.197
Mof_H 	H 	0.2596	0.5307	0.0269	0.1
Mof_C 	C 	0.1792	0.51839	0.9508	0.174
Mof_C 	C 	0.0857	0.52215	0.9255	-0.196
Mof_H 	H 	0.0694	0.5118	0.8872	0.103
Mof_C 	C 	0.0184	0.5409	0.9565	0.087
Mof_H 	H 	0.9572	0.5434	0.9381	-0.004
Mof_C 	C 	0.2548	0.47127	0.8155	-0.124
Mof_H 	H 	0.2569	0.4513	0.8372	0.073
Mof_C 	C 	0.2566	0.4715	0.7493	-0.017
Mof_H 	H 	0.2625	0.4516	0.7275	0.04
Mof_C 	C 	0.2468	0.47134	0.6075	0.011
Mof_H 	H 	0.2448	0.4513	0.6291	0.029
Mof_C 	C 	0.2464	0.47107	0.5419	-0.155
Mof_H 	H 	0.2438	0.4512	0.5198	0.089
Mof_C 	C 	0.1842	0.47946	0.4057	0.162
Mof_C 	C 	0.2112	0.46521	0.3494	-0.184
Mof_H 	H 	0.2738	0.4687	0.3338	0.099
Mof_C 	C 	0.148	0.44576	0.3153	0.058
Mof_H 	H 	0.1694	0.4356	0.2779	0.01
Mof_C 	C 	0.0529	0.441	0.3354	-0.092
Mof_C 	C 	0.0266	0.45539	0.3937	0.058
Mof_H 	H 	0.964	0.4523	0.4096	0.011
Mof_C 	C 	0.0914	0.47387	0.4277	-0.18
Mof_H 	H 	0.0723	0.4829	0.4667	0.096
Mof_C 	C 	0.9858	0.42169	0.2961	0.129
Mof_C 	C 	0.9909	0.42203	0.2292	-0.173
Mof_H 	H 	0.0377	0.4348	0.2085	0.091
Mof_C 	C 	0.9253	0.40312	0.1935	0.098
Mof_H 	H 	0.9302	0.4034	0.149	-0.009
Mof_C 	C 	0.8495	0.38554	0.2839	0.112
Mof_H 	H 	0.8003	0.3732	0.3028	-0.01
Mof_C 	C 	0.9102	0.40334	0.3231	-0.183
Mof_H 	H 	0.9009	0.4032	0.3673	0.097
Mof_C 	C 	0.6166	0.6633	0.0676	0.354
Mof_C 	C 	0.5725	0.68791	0.0212	-0.108
Mof_C 	C 	0.503	0.67869	0.9818	0.043
Mof_H 	H 	0.4826	0.6569	0.9829	0.033
Mof_C 	C 	0.4592	0.6998	0.9391	-0.105
Mof_H 	H 	0.4104	0.692	0.9121	0.066
Mof_C 	C 	0.4871	0.7322	0.936	0.044
Mof_C 	C 	0.5598	0.7407	0.9733	-0.106
Mof_H 	H 	0.5829	0.7622	0.9701	0.068
Mof_C 	C 	0.6047	0.71995	0.0172	0.042
Mof_H 	H 	0.6551	0.7275	0.0432	0.035
Mof_C 	C 	0.43662	0.75591	0.89417	0.069
Mof_C 	C 	0.34786	0.7483	0.86575	-0.141
Mof_H 	H 	0.3167	0.7286	0.8757	0.091
Mof_C 	C 	0.3057	0.77008	0.82243	0.092
Mof_H 	H 	0.2464	0.765	0.8034	0.014
Mof_C 	C 	0.3524	0.79947	0.80752	-0.222
Mof_C 	C 	0.4411	0.80708	0.83593	0.092
Mof_H 	H 	0.4723	0.8267	0.826	0.003
Mof_C 	C 	0.4832	0.7853	0.87926	-0.14
Mof_H 	H 	0.5426	0.7904	0.8983	0.08
Mof_N 	N 	0.82642	0.61421	0.11521	-0.284
Mof_N 	N 	0.8574	0.38509	0.21998	-0.271
Mof_O 	O 	0.68247	0.67565	0.10283	-0.449
Mof_O 	O 	0.59319	0.63486	0.06619	-0.332
Mof_O 	O 	0.3112	0.83016	0.72294	-0.698
Mof_Zn	Zn	0.73236	0.64396	0.16492	1.223
Mof_O 	O 	0.3758	0.8658	0.7771	-0.332
Mof_O 	O 	0.1853	0.8105	0.7473	-0.354
Mof_C 	C 	0.729	0.3125	0.256	0.459
Mof_C 	C 	0.6441	0.3373	0.2654	0.455
Mof_C 	C 	0.0965	0.10213	0.6434	0.116
Mof_H 	H 	0.0875	0.1065	0.6868	-0.008
Mof_C 	C 	0.0277	0.08314	0.6121	-0.205
Mof_H 	H 	0.9751	0.0749	0.6352	0.103
Mof_C 	C 	0.0348	0.07618	0.5484	0.166
Mof_C 	C 	0.1164	0.0889	0.5202	-0.212
Mof_H 	H 	0.1271	0.0851	0.4768	0.108
Mof_C 	C 	0.1825	0.10697	0.5541	0.131
Mof_H 	H 	0.2373	0.1146	0.5325	-0.019
Mof_C 	C 	0.9626	0.05628	0.514	-0.114
Mof_C 	C 	0.872	0.05209	0.5394	0.075
Mof_H 	H 	0.8568	0.062	0.5784	0.002
Mof_C 	C 	0.8014	0.03322	0.5083	-0.194
Mof_H 	H 	0.7404	0.0307	0.5269	0.099
Mof_C 	C 	0.8208	0.01839	0.4508	0.172
Mof_C 	C 	0.9143	0.02215	0.4255	-0.194
Mof_H 	H 	0.9306	0.0118	0.3872	0.102
Mof_C 	C 	0.9816	0.0409	0.4565	0.083
Mof_H 	H 	0.0428	0.0434	0.4381	-0.002
Mof_C 	C 	0.7452	0.97127	0.3155	-0.124
Mof_H 	H 	0.7431	0.9513	0.3372	0.073
Mof_C 	C 	0.7434	0.9715	0.2493	-0.018
Mof_H 	H 	0.7375	0.9516	0.2275	0.04
Mof_C 	C 	0.7532	0.97134	0.1075	0.011
Mof_H 	H 	0.7552	0.9513	0.1291	0.029
Mof_C 	C 	0.7536	0.97107	0.0419	-0.156
Mof_H 	H 	0.7562	0.9512	0.0198	0.089
Mof_C 	C 	0.8158	0.97946	0.9057	0.161
Mof_C 	C 	0.7888	0.96521	0.8494	-0.184
Mof_H 	H 	0.7262	0.9687	0.8338	0.098
Mof_C 	C 	0.852	0.94576	0.8153	0.057
Mof_H 	H 	0.8306	0.9356	0.7779	0.01
Mof_C 	C 	0.9471	0.941	0.8354	-0.092
Mof_C 	C 	0.9734	0.95539	0.8937	0.056
Mof_H 	H 	0.036	0.9523	0.9096	0.012
Mof_C 	C 	0.9086	0.97387	0.9277	-0.179
Mof_H 	H 	0.9277	0.9829	0.9667	0.096
Mof_C 	C 	0.0142	0.92169	0.7961	0.128
Mof_C 	C 	0.0091	0.92203	0.7292	-0.173
Mof_H 	H 	0.9623	0.9348	0.7085	0.091
Mof_C 	C 	0.0747	0.90312	0.6935	0.098
Mof_H 	H 	0.0698	0.9034	0.649	-0.009
Mof_C 	C 	0.1505	0.88554	0.7839	0.112
Mof_H 	H 	0.1997	0.8732	0.8028	-0.01
Mof_C 	C 	0.0898	0.90334	0.8231	-0.183
Mof_H 	H 	0.0991	0.9032	0.8673	0.097
Mof_C 	C 	0.3834	0.1633	0.5676	0.354
Mof_C 	C 	0.4275	0.18791	0.5212	-0.108
Mof_C 	C 	0.497	0.17869	0.4818	0.043
Mof_H 	H 	0.5174	0.1569	0.4829	0.033
Mof_C 	C 	0.5408	0.1998	0.4391	-0.105
Mof_H 	H 	0.5896	0.192	0.4121	0.066
Mof_C 	C 	0.5129	0.2322	0.436	0.044
Mof_C 	C 	0.4402	0.2407	0.4733	-0.106
Mof_H 	H 	0.4171	0.2622	0.4701	0.068
Mof_C 	C 	0.3953	0.21995	0.5172	0.041
Mof_H 	H 	0.3449	0.2275	0.5432	0.035
Mof_C 	C 	0.56338	0.25591	0.39417	0.069
Mof_C 	C 	0.65214	0.2483	0.36575	-0.141
Mof_H 	H 	0.6833	0.2286	0.3757	0.092
Mof_C 	C 	0.6943	0.27008	0.32243	0.092
Mof_H 	H 	0.7536	0.265	0.3034	0.014
Mof_C 	C 	0.6476	0.29947	0.30752	-0.222
Mof_C 	C 	0.5589	0.30708	0.33593	0.092
Mof_H 	H 	0.5277	0.3267	0.326	0.003
Mof_C 	C 	0.5168	0.2853	0.37926	-0.141
Mof_H 	H 	0.4574	0.2904	0.3983	0.081
Mof_N 	N 	0.17358	0.11421	0.61521	-0.284
Mof_N 	N 	0.1426	0.88509	0.71998	-0.271
Mof_O 	O 	0.31753	0.17565	0.60283	-0.449
Mof_O 	O 	0.40681	0.13486	0.56619	-0.332
Mof_O 	O 	0.6888	0.33016	0.22294	-0.698
Mof_Zn	Zn	0.26764	0.14396	0.66492	1.223
Mof_O 	O 	0.6242	0.3658	0.2771	-0.332
Mof_O 	O 	0.8147	0.3105	0.2473	-0.354
Mof_C 	C 	0.771	0.6875	0.256	0.459
Mof_C 	C 	0.8559	0.6627	0.2654	0.455
Mof_C 	C 	0.4035	0.89787	0.6434	0.117
Mof_H 	H 	0.4125	0.8935	0.6868	-0.008
Mof_C 	C 	0.4723	0.91686	0.6121	-0.205
Mof_H 	H 	0.5249	0.9251	0.6352	0.104
Mof_C 	C 	0.4652	0.92382	0.5484	0.166
Mof_C 	C 	0.3836	0.9111	0.5202	-0.212
Mof_H 	H 	0.3729	0.9149	0.4768	0.108
Mof_C 	C 	0.3175	0.89303	0.5541	0.131
Mof_H 	H 	0.2627	0.8854	0.5325	-0.019
Mof_C 	C 	0.5374	0.94372	0.514	-0.113
Mof_C 	C 	0.628	0.94791	0.5394	0.074
Mof_H 	H 	0.6432	0.938	0.5784	0.002
Mof_C 	C 	0.6986	0.96678	0.5083	-0.194
Mof_H 	H 	0.7596	0.9693	0.5269	0.099
Mof_C 	C 	0.6792	0.98161	0.4508	0.171
Mof_C 	C 	0.5857	0.97785	0.4255	-0.193
Mof_H 	H 	0.5694	0.9882	0.3872	0.102
Mof_C 	C 	0.5184	0.9591	0.4565	0.083
Mof_H 	H 	0.4572	0.9566	0.4381	-0.002
Mof_C 	C 	0.7548	0.02873	0.3155	-0.124
Mof_H 	H 	0.7569	0.0487	0.3372	0.073
Mof_C 	C 	0.7566	0.0285	0.2493	-0.017
Mof_H 	H 	0.7625	0.0484	0.2275	0.04
Mof_C 	C 	0.7468	0.02866	0.1075	0.012
Mof_H 	H 	0.7448	0.0487	0.1291	0.029
Mof_C 	C 	0.7464	0.02893	0.0419	-0.155
Mof_H 	H 	0.7438	0.0488	0.0198	0.089
Mof_C 	C 	0.6842	0.02054	0.9057	0.162
Mof_C 	C 	0.7112	0.03479	0.8494	-0.184
Mof_H 	H 	0.7738	0.0313	0.8338	0.099
Mof_C 	C 	0.648	0.05424	0.8153	0.058
Mof_H 	H 	0.6694	0.0644	0.7779	0.01
Mof_C 	C 	0.5529	0.059	0.8354	-0.092
Mof_C 	C 	0.5266	0.04461	0.8937	0.058
Mof_H 	H 	0.464	0.0477	0.9096	0.011
Mof_C 	C 	0.5914	0.02613	0.9277	-0.18
Mof_H 	H 	0.5723	0.0171	0.9667	0.097
Mof_C 	C 	0.4858	0.07831	0.7961	0.129
Mof_C 	C 	0.4909	0.07797	0.7292	-0.174
Mof_H 	H 	0.5377	0.0652	0.7085	0.091
Mof_C 	C 	0.4253	0.09688	0.6935	0.098
Mof_H 	H 	0.4302	0.0966	0.649	-0.009
Mof_C 	C 	0.3495	0.11446	0.7839	0.112
Mof_H 	H 	0.3003	0.1268	0.8028	-0.01
Mof_C 	C 	0.4102	0.09666	0.8231	-0.184
Mof_H 	H 	0.4009	0.0968	0.8673	0.097
Mof_C 	C 	0.1166	0.8367	0.5676	0.353
Mof_C 	C 	0.0725	0.81209	0.5212	-0.107
Mof_C 	C 	0.003	0.82131	0.4818	0.042
Mof_H 	H 	0.9826	0.8431	0.4829	0.033
Mof_C 	C 	0.9592	0.8002	0.4391	-0.104
Mof_H 	H 	0.9104	0.808	0.4121	0.066
Mof_C 	C 	0.9871	0.7678	0.436	0.044
Mof_C 	C 	0.0598	0.7593	0.4733	-0.106
Mof_H 	H 	0.0829	0.7378	0.4701	0.068
Mof_C 	C 	0.1047	0.78005	0.5172	0.041
Mof_H 	H 	0.1551	0.7725	0.5432	0.035
Mof_C 	C 	0.93662	0.74409	0.39417	0.069
Mof_C 	C 	0.84786	0.7517	0.36575	-0.141
Mof_H 	H 	0.8167	0.7714	0.3757	0.091
Mof_C 	C 	0.8057	0.72992	0.32243	0.092
Mof_H 	H 	0.7464	0.735	0.3034	0.014
Mof_C 	C 	0.8524	0.70053	0.30752	-0.222
Mof_C 	C 	0.9411	0.69292	0.33593	0.091
Mof_H 	H 	0.9723	0.6733	0.326	0.004
Mof_C 	C 	0.9832	0.7147	0.37926	-0.139
Mof_H 	H 	0.0426	0.7096	0.3983	0.08
Mof_N 	N 	0.32642	0.88579	0.61521	-0.284
Mof_N 	N 	0.3574	0.11491	0.71998	-0.271
Mof_O 	O 	0.18247	0.82435	0.60283	-0.449
Mof_O 	O 	0.09319	0.86514	0.56619	-0.332
Mof_O 	O 	0.8112	0.66984	0.22294	-0.698
Mof_Zn	Zn	0.23236	0.85604	0.66492	1.223
Mof_O 	O 	0.8758	0.6342	0.2771	-0.332
Mof_O 	O 	0.6853	0.6895	0.2473	-0.354
Mof_C 	C 	0.25	0.5	0.8496	0.123
Mof_C 	C 	0.25	0.5	0.7144	0.003
Mof_C 	C 	0.25	0.5	0.6434	-0.025
Mof_C 	C 	0.25	0.5	0.509	0.144
Mof_N 	N 	0.25	0.5	0.91808	-0.186
Mof_N 	N 	0.25	0.5	0.44071	-0.184
Mof_C 	C 	0.75	0	0.3496	0.124
Mof_C 	C 	0.75	-1.08592e-33	0.2144	0.004
Mof_C 	C 	0.75	0	0.1434	-0.025
Mof_C 	C 	0.75	3.3935e-35	0.009	0.146
Mof_N 	N 	0.75	2.17184e-33	0.41808	-0.185
Mof_N 	N 	0.75	-4.34368e-33	0.94071	-0.184
_end
