data_functionalizedCrystal
_audit_creation_method	'EQeq! by Chris Wilmer'
_symmetry_space_group_name_H-M	'P1'
_symmetry_Int_Tables_number	1
_symmetry_cell_setting	triclinic
loop_
_symmetry_equiv_pos_as_xyz
  x,y,z
_cell_length_a	23.375
_cell_length_b	18.692
_cell_length_c	32.329
_cell_angle_alpha	90
_cell_angle_beta	117.405
_cell_angle_gamma	90
loop_
_atom_site_label
_atom_site_type_symbol
_atom_site_fract_x
_atom_site_fract_y
_atom_site_fract_z
_atom_site_charge
Mof_Cu	Cu	0.30981	0.00017	0.27895	0.899
Mof_Cu	Cu	0.19171	0.23407	0.98522	0.901
Mof_Cu	Cu	0.30171	0.72804	0.98912	0.908
Mof_Cu	Cu	0.19645	0.79826	0.97734	0.909
Mof_Cu	Cu	0.29585	0.30342	0.99652	0.905
Mof_Cu	Cu	0.20533	0.00061	0.19778	0.916
Mof_O 	O 	0.2517	0.6466	0.99357	-0.38
Mof_O 	O 	0.16479	0.7114	0.98634	-0.402
Mof_O 	O 	0.2624	0.715	0.92277	-0.39
Mof_O 	O 	0.1717	0.7699	0.91227	-0.416
Mof_O 	O 	0.23748	0.88557	0.97088	-0.4
Mof_O 	O 	0.32838	0.828	0.98364	-0.394
Mof_O 	O 	0.2488	0.8079	0.04693	-0.397
Mof_O 	O 	0.3326	0.7449	0.0544	-0.414
Mof_O 	O 	0.24942	0.3867	0.99984	-0.407
Mof_O 	O 	0.1615	0.3291	0.99377	-0.395
Mof_O 	O 	0.2651	0.5768	0.7947	-0.394
Mof_O 	O 	0.17959	0.5722	0.7262	-0.425
Mof_O 	O 	0.8238	0.9338	0.77169	-0.431
Mof_O 	O 	0.73808	0.9306	0.70294	-0.404
Mof_O 	O 	0.83823	0.7594	0.58116	-0.395
Mof_O 	O 	0.74706	0.8133	0.57039	-0.396
Mof_O 	O 	0.3252	0.2075	0.99073	-0.411
Mof_O 	O 	0.2356	0.1475	0.9785	-0.405
Mof_O 	O 	0.25179	0.9312	0.17946	-0.4
Mof_O 	O 	0.34069	0.927	0.24871	-0.394
Mof_O 	O 	0.67201	0.7832	0.43572	-0.391
Mof_O 	O 	0.76025	0.721	0.44663	-0.422
Mof_O 	O 	0.75225	0.5773	0.31876	-0.395
Mof_O 	O 	0.66238	0.57973	0.24949	-0.393
Mof_O 	O 	0.4942	0.7612	0.22	-0.092
Mof_O 	O 	0.0271	0.746	0.7362	-0.062
Mof_C 	C 	0.3039	0.7825	0.0708	0.363
Mof_C 	C 	0.3336	0.7959	0.121	-0.049
Mof_C 	C 	0.3067	0.8435	0.14074	-0.014
Mof_H 	H 	0.2672	0.8652	0.1221	0.068
Mof_C 	C 	0.3382	0.8581	0.187	-0.027
Mof_C 	C 	0.3087	0.913	0.206	0.334
Mof_C 	C 	0.3982	0.8284	0.2154	-0.107
Mof_H 	H 	0.4195	0.8405	0.2468	0.086
Mof_C 	C 	0.4268	0.781	0.1973	0.146
Mof_C 	C 	0.3947	0.766	0.1499	-0.094
Mof_H 	H 	0.4138	0.7357	0.137	0.093
Mof_C 	C 	0.5821	0.7399	0.2963	0.042
Mof_C 	C 	0.6079	0.6869	0.27858	-0.043
Mof_H 	H 	0.5854	0.6721	0.2477	0.08
Mof_C 	C 	0.6679	0.6569	0.3082	-0.057
Mof_C 	C 	0.6954	0.5986	0.2912	0.335
Mof_C 	C 	0.7012	0.6757	0.35486	0.003
Mof_H 	H 	0.7412	0.6557	0.374	0.062
Mof_C 	C 	0.6737	0.7246	0.3722	-0.058
Mof_C 	C 	0.7078	0.7444	0.4232	0.359
Mof_C 	C 	0.6136	0.7554	0.34356	-0.053
Mof_H 	H 	0.5948	0.7863	0.3563	0.067
Mof_C 	C 	0.2919	0.1524	0.9842	0.363
Mof_C 	C 	0.3243	0.0849	0.9828	-0.071
Mof_C 	C 	0.3871	0.0861	0.9882	-0.036
Mof_H 	H 	0.4082	0.1292	0.9907	0.065
Mof_C 	C 	0.4182	0.0198	0.9897	0.034
Mof_C 	C 	0.3894	0.9588	0.9852	-0.045
Mof_H 	H 	0.411	0.9168	0.9855	0.068
Mof_C 	C 	0.3254	0.9549	0.9797	-0.064
Mof_C 	C 	0.2934	0.0191	0.9778	0.014
Mof_H 	H 	0.2511	0.0179	0.9731	0.058
Mof_C 	C 	0.2948	0.884	0.9778	0.346
Mof_C 	C 	0.1644	0.5838	0.996	-0.05
Mof_C 	C 	0.1954	0.6523	0.9925	0.315
Mof_C 	C 	0.1935	0.5187	0.9978	0
Mof_H 	H 	0.2334	0.5176	0.998	0.063
Mof_C 	C 	0.164	0.4551	0.9993	-0.058
Mof_C 	C 	0.1949	0.3849	0.9987	0.343
Mof_C 	C 	0.1044	0.4568	0.9996	-0.044
Mof_H 	H 	0.0843	0.415	0.0017	0.068
Mof_C 	C 	0.0756	0.5252	0.9967	0.036
Mof_C 	C 	0.1071	0.5849	0.9968	-0.05
Mof_H 	H 	0.0889	0.6288	0.9975	0.069
Mof_C 	C 	0.015	0.53	0.9996	-0.017
Mof_C 	C 	0.4837	0.0312	0.9969	-0.016
Mof_C 	C 	0.2061	0.6723	0.83004	-0.006
Mof_H 	H 	0.2481	0.6582	0.8498	0.064
Mof_C 	C 	0.1772	0.6486	0.78407	-0.047
Mof_C 	C 	0.2076	0.5954	0.7659	0.363
Mof_C 	C 	0.1153	0.6716	0.7547	-0.096
Mof_H 	H 	0.0947	0.6559	0.7239	0.092
Mof_C 	C 	0.084	0.718	0.7708	0.145
Mof_C 	C 	0.1119	0.7375	0.8163	-0.106
Mof_H 	H 	0.0888	0.7657	0.8271	0.084
Mof_C 	C 	0.9229	0.8005	0.7222	0.04
Mof_C 	C 	0.8967	0.785	0.6757	-0.037
Mof_H 	H 	0.9199	0.7591	0.6639	0.077
Mof_C 	C 	0.8339	0.8091	0.64629	-0.077
Mof_C 	C 	0.8049	0.7915	0.597	0.343
Mof_C 	C 	0.8004	0.8461	0.6645	0.022
Mof_H 	H 	0.7578	0.8586	0.6452	0.055
Mof_C 	C 	0.8289	0.8654	0.7115	-0.072
Mof_C 	C 	0.7951	0.9132	0.7313	0.377
Mof_C 	C 	0.8921	0.8439	0.7404	-0.044
Mof_H 	H 	0.9131	0.8584	0.7714	0.061
Mof_C 	C 	0.5216	0.7692	0.26944	-0.028
Mof_H 	H 	0.524	0.82	0.2763	0.046
Mof_H 	H 	0.4921	0.7481	0.2794	0.057
Mof_C 	C 	0.9877	0.7808	0.755	-0.032
Mof_H 	H 	0.9854	0.7488	0.7778	0.055
Mof_H 	H 	0.01	0.8237	0.7715	0.047
Mof_C 	C 	0.2025	0.7384	0.8972	0.347
Mof_C 	C 	0.1747	0.7162	0.8474	-0.041
Mof_O 	O 	0.4851	0.7374	0.2277	-0.108
Mof_O 	O 	0.0136	0.731	0.7384	-0.126
Mof_Cu	Cu	0.69019	0.50017	0.22105	0.898
Mof_Cu	Cu	0.80829	0.73407	0.51478	0.9
Mof_Cu	Cu	0.69829	0.22804	0.51088	0.907
Mof_Cu	Cu	0.80355	0.29826	0.52266	0.909
Mof_Cu	Cu	0.70415	0.80342	0.50348	0.904
Mof_Cu	Cu	0.79467	0.50061	0.30222	0.915
Mof_O 	O 	0.7483	0.1466	0.50643	-0.381
Mof_O 	O 	0.83521	0.2114	0.51366	-0.403
Mof_O 	O 	0.7376	0.215	0.57723	-0.391
Mof_O 	O 	0.8283	0.2699	0.58773	-0.417
Mof_O 	O 	0.76252	0.38557	0.52912	-0.402
Mof_O 	O 	0.67162	0.328	0.51636	-0.395
Mof_O 	O 	0.7512	0.3079	0.45307	-0.398
Mof_O 	O 	0.6674	0.2449	0.4456	-0.414
Mof_O 	O 	0.75058	0.8867	0.50016	-0.408
Mof_O 	O 	0.8385	0.8291	0.50623	-0.395
Mof_O 	O 	0.7349	0.0768	0.7053	-0.393
Mof_O 	O 	0.82041	0.0722	0.7738	-0.425
Mof_O 	O 	0.1762	0.4338	0.72831	-0.431
Mof_O 	O 	0.26192	0.4306	0.79706	-0.404
Mof_O 	O 	0.16177	0.2594	0.91884	-0.395
Mof_O 	O 	0.25294	0.3133	0.92961	-0.396
Mof_O 	O 	0.6748	0.7075	0.50927	-0.411
Mof_O 	O 	0.7644	0.6475	0.5215	-0.405
Mof_O 	O 	0.74821	0.4312	0.32054	-0.401
Mof_O 	O 	0.65931	0.427	0.25129	-0.395
Mof_O 	O 	0.32799	0.2832	0.06428	-0.391
Mof_O 	O 	0.23975	0.221	0.05337	-0.422
Mof_O 	O 	0.24775	0.0773	0.18124	-0.395
Mof_O 	O 	0.33762	0.07973	0.25051	-0.393
Mof_O 	O 	0.5058	0.2612	0.28	-0.092
Mof_O 	O 	0.9729	0.246	0.7638	-0.06
Mof_C 	C 	0.6961	0.2825	0.4292	0.363
Mof_C 	C 	0.6664	0.2959	0.379	-0.05
Mof_C 	C 	0.6933	0.3435	0.35926	-0.014
Mof_H 	H 	0.7328	0.3652	0.3779	0.067
Mof_C 	C 	0.6618	0.3581	0.313	-0.028
Mof_C 	C 	0.6913	0.413	0.294	0.334
Mof_C 	C 	0.6018	0.3284	0.2846	-0.107
Mof_H 	H 	0.5805	0.3405	0.2532	0.086
Mof_C 	C 	0.5732	0.281	0.3027	0.146
Mof_C 	C 	0.6053	0.266	0.3501	-0.094
Mof_H 	H 	0.5862	0.2357	0.363	0.093
Mof_C 	C 	0.4179	0.2399	0.2037	0.042
Mof_C 	C 	0.3921	0.1869	0.22142	-0.043
Mof_H 	H 	0.4146	0.1721	0.2523	0.08
Mof_C 	C 	0.3321	0.1569	0.1918	-0.057
Mof_C 	C 	0.3046	0.0986	0.2088	0.335
Mof_C 	C 	0.2988	0.1757	0.14514	0.003
Mof_H 	H 	0.2588	0.1557	0.126	0.062
Mof_C 	C 	0.3263	0.2246	0.1278	-0.058
Mof_C 	C 	0.2922	0.2444	0.0768	0.359
Mof_C 	C 	0.3864	0.2554	0.15644	-0.053
Mof_H 	H 	0.4052	0.2863	0.1437	0.067
Mof_C 	C 	0.7081	0.6524	0.5158	0.363
Mof_C 	C 	0.6757	0.5849	0.5172	-0.071
Mof_C 	C 	0.6129	0.5861	0.5118	-0.036
Mof_H 	H 	0.5918	0.6292	0.5093	0.065
Mof_C 	C 	0.5818	0.5198	0.5103	0.033
Mof_C 	C 	0.6106	0.4588	0.5148	-0.045
Mof_H 	H 	0.589	0.4168	0.5145	0.067
Mof_C 	C 	0.6746	0.4549	0.5203	-0.065
Mof_C 	C 	0.7066	0.5191	0.5222	0.014
Mof_H 	H 	0.7489	0.5179	0.5269	0.058
Mof_C 	C 	0.7052	0.384	0.5222	0.346
Mof_C 	C 	0.8356	0.0838	0.504	-0.05
Mof_C 	C 	0.8046	0.1523	0.5075	0.315
Mof_C 	C 	0.8065	0.0187	0.5022	0.002
Mof_H 	H 	0.7666	0.0176	0.502	0.062
Mof_C 	C 	0.836	0.9551	0.5007	-0.059
Mof_C 	C 	0.8051	0.8849	0.5013	0.343
Mof_C 	C 	0.8956	0.9568	0.5004	-0.044
Mof_H 	H 	0.9157	0.915	0.4983	0.067
Mof_C 	C 	0.9244	0.0252	0.5033	0.036
Mof_C 	C 	0.8929	0.0849	0.5032	-0.05
Mof_H 	H 	0.9111	0.1288	0.5025	0.069
Mof_C 	C 	0.985	0.03	0.5004	-0.016
Mof_C 	C 	0.5163	0.5312	0.5031	-0.017
Mof_C 	C 	0.7939	0.1723	0.66996	-0.006
Mof_H 	H 	0.7519	0.1582	0.6502	0.064
Mof_C 	C 	0.8228	0.1486	0.71593	-0.047
Mof_C 	C 	0.7924	0.0954	0.7341	0.363
Mof_C 	C 	0.8847	0.1716	0.7453	-0.096
Mof_H 	H 	0.9053	0.1559	0.7761	0.092
Mof_C 	C 	0.916	0.218	0.7292	0.145
Mof_C 	C 	0.8881	0.2375	0.6837	-0.106
Mof_H 	H 	0.9112	0.2657	0.6729	0.084
Mof_C 	C 	0.0771	0.3005	0.7778	0.04
Mof_C 	C 	0.1033	0.285	0.8243	-0.037
Mof_H 	H 	0.0801	0.2591	0.8361	0.077
Mof_C 	C 	0.1661	0.3091	0.85371	-0.077
Mof_C 	C 	0.1951	0.2915	0.903	0.343
Mof_C 	C 	0.1996	0.3461	0.8355	0.021
Mof_H 	H 	0.2422	0.3586	0.8548	0.055
Mof_C 	C 	0.1711	0.3654	0.7885	-0.072
Mof_C 	C 	0.2049	0.4132	0.7687	0.376
Mof_C 	C 	0.1079	0.3439	0.7596	-0.044
Mof_H 	H 	0.0869	0.3584	0.7286	0.061
Mof_C 	C 	0.4784	0.2692	0.23056	-0.028
Mof_H 	H 	0.476	0.32	0.2237	0.046
Mof_H 	H 	0.5079	0.2481	0.2206	0.057
Mof_C 	C 	0.0123	0.2808	0.745	-0.033
Mof_H 	H 	0.0146	0.2488	0.7222	0.055
Mof_H 	H 	0.99	0.3237	0.7285	0.047
Mof_C 	C 	0.7975	0.2384	0.6028	0.347
Mof_C 	C 	0.8253	0.2162	0.6526	-0.041
Mof_O 	O 	0.5149	0.2374	0.2723	-0.108
Mof_O 	O 	0.9864	0.231	0.7616	-0.127
Mof_Cu	Cu	0.69019	0.99983	0.72105	0.898
Mof_Cu	Cu	0.80829	0.76593	0.01478	0.9
Mof_Cu	Cu	0.69829	0.27196	0.01088	0.907
Mof_Cu	Cu	0.80355	0.20174	0.02266	0.908
Mof_Cu	Cu	0.70415	0.69658	0.00348	0.904
Mof_Cu	Cu	0.79467	0.99939	0.80222	0.915
Mof_O 	O 	0.7483	0.3534	0.00643	-0.381
Mof_O 	O 	0.83521	0.2886	0.01366	-0.403
Mof_O 	O 	0.7376	0.285	0.07723	-0.391
Mof_O 	O 	0.8283	0.2301	0.08773	-0.417
Mof_O 	O 	0.76252	0.11443	0.02912	-0.401
Mof_O 	O 	0.67162	0.172	0.01636	-0.395
Mof_O 	O 	0.7512	0.1921	0.95307	-0.397
Mof_O 	O 	0.6674	0.2551	0.9456	-0.414
Mof_O 	O 	0.75058	0.6133	0.00016	-0.407
Mof_O 	O 	0.8385	0.6709	0.00623	-0.395
Mof_O 	O 	0.7349	0.4232	0.2053	-0.394
Mof_O 	O 	0.82041	0.4278	0.2738	-0.425
Mof_O 	O 	0.1762	0.0662	0.22831	-0.431
Mof_O 	O 	0.26192	0.0694	0.29706	-0.404
Mof_O 	O 	0.16177	0.2406	0.41884	-0.395
Mof_O 	O 	0.25294	0.1867	0.42961	-0.396
Mof_O 	O 	0.6748	0.7925	0.00927	-0.411
Mof_O 	O 	0.7644	0.8525	0.0215	-0.405
Mof_O 	O 	0.74821	0.0688	0.82054	-0.4
Mof_O 	O 	0.65931	0.073	0.75129	-0.394
Mof_O 	O 	0.32799	0.2168	0.56428	-0.391
Mof_O 	O 	0.23975	0.279	0.55337	-0.422
Mof_O 	O 	0.24775	0.4227	0.68124	-0.395
Mof_O 	O 	0.33762	0.42027	0.75051	-0.393
Mof_O 	O 	0.5058	0.2388	0.78	-0.092
Mof_O 	O 	0.9729	0.254	0.2638	-0.062
Mof_C 	C 	0.6961	0.2175	0.9292	0.363
Mof_C 	C 	0.6664	0.2041	0.879	-0.049
Mof_C 	C 	0.6933	0.1565	0.85926	-0.014
Mof_H 	H 	0.7328	0.1348	0.8779	0.068
Mof_C 	C 	0.6618	0.1419	0.813	-0.027
Mof_C 	C 	0.6913	0.087	0.794	0.334
Mof_C 	C 	0.6018	0.1716	0.7846	-0.107
Mof_H 	H 	0.5805	0.1595	0.7532	0.086
Mof_C 	C 	0.5732	0.219	0.8027	0.146
Mof_C 	C 	0.6053	0.234	0.8501	-0.094
Mof_H 	H 	0.5862	0.2643	0.863	0.093
Mof_C 	C 	0.4179	0.2601	0.7037	0.042
Mof_C 	C 	0.3921	0.3131	0.72142	-0.043
Mof_H 	H 	0.4146	0.3279	0.7523	0.08
Mof_C 	C 	0.3321	0.3431	0.6918	-0.057
Mof_C 	C 	0.3046	0.4014	0.7088	0.335
Mof_C 	C 	0.2988	0.3243	0.64514	0.003
Mof_H 	H 	0.2588	0.3443	0.626	0.062
Mof_C 	C 	0.3263	0.2754	0.6278	-0.058
Mof_C 	C 	0.2922	0.2556	0.5768	0.359
Mof_C 	C 	0.3864	0.2446	0.65644	-0.053
Mof_H 	H 	0.4052	0.2137	0.6437	0.067
Mof_C 	C 	0.7081	0.8476	0.0158	0.363
Mof_C 	C 	0.6757	0.9151	0.0172	-0.071
Mof_C 	C 	0.6129	0.9139	0.0118	-0.036
Mof_H 	H 	0.5918	0.8708	0.0093	0.065
Mof_C 	C 	0.5818	0.9802	0.0103	0.034
Mof_C 	C 	0.6106	0.0412	0.0148	-0.045
Mof_H 	H 	0.589	0.0832	0.0145	0.068
Mof_C 	C 	0.6746	0.0451	0.0203	-0.064
Mof_C 	C 	0.7066	0.9809	0.0222	0.014
Mof_H 	H 	0.7489	0.9821	0.0269	0.058
Mof_C 	C 	0.7052	0.116	0.0222	0.346
Mof_C 	C 	0.8356	0.4162	0.004	-0.05
Mof_C 	C 	0.8046	0.3477	0.0075	0.315
Mof_C 	C 	0.8065	0.4813	0.0022	0
Mof_H 	H 	0.7666	0.4824	0.002	0.063
Mof_C 	C 	0.836	0.5449	0.0007	-0.058
Mof_C 	C 	0.8051	0.6151	0.0013	0.343
Mof_C 	C 	0.8956	0.5432	0.0004	-0.044
Mof_H 	H 	0.9157	0.585	0.9983	0.068
Mof_C 	C 	0.9244	0.4748	0.0033	0.036
Mof_C 	C 	0.8929	0.4151	0.0032	-0.05
Mof_H 	H 	0.9111	0.3712	0.0025	0.069
Mof_C 	C 	0.985	0.47	0.0004	-0.017
Mof_C 	C 	0.5163	0.9688	0.0031	-0.016
Mof_C 	C 	0.7939	0.3277	0.16996	-0.006
Mof_H 	H 	0.7519	0.3418	0.1502	0.064
Mof_C 	C 	0.8228	0.3514	0.21593	-0.047
Mof_C 	C 	0.7924	0.4046	0.2341	0.363
Mof_C 	C 	0.8847	0.3284	0.2453	-0.096
Mof_H 	H 	0.9053	0.3441	0.2761	0.092
Mof_C 	C 	0.916	0.282	0.2292	0.145
Mof_C 	C 	0.8881	0.2625	0.1837	-0.106
Mof_H 	H 	0.9112	0.2343	0.1729	0.084
Mof_C 	C 	0.0771	0.1995	0.2778	0.04
Mof_C 	C 	0.1033	0.215	0.3243	-0.037
Mof_H 	H 	0.0801	0.2409	0.3361	0.077
Mof_C 	C 	0.1661	0.1909	0.35371	-0.077
Mof_C 	C 	0.1951	0.2085	0.403	0.343
Mof_C 	C 	0.1996	0.1539	0.3355	0.022
Mof_H 	H 	0.2422	0.1414	0.3548	0.055
Mof_C 	C 	0.1711	0.1346	0.2885	-0.072
Mof_C 	C 	0.2049	0.0868	0.2687	0.377
Mof_C 	C 	0.1079	0.1561	0.2596	-0.044
Mof_H 	H 	0.0869	0.1416	0.2286	0.061
Mof_C 	C 	0.4784	0.2308	0.73056	-0.028
Mof_H 	H 	0.476	0.18	0.7237	0.046
Mof_H 	H 	0.5079	0.2519	0.7206	0.057
Mof_C 	C 	0.0123	0.2192	0.245	-0.032
Mof_H 	H 	0.0146	0.2512	0.2222	0.055
Mof_H 	H 	0.99	0.1763	0.2285	0.047
Mof_C 	C 	0.7975	0.2616	0.1028	0.347
Mof_C 	C 	0.8253	0.2838	0.1526	-0.041
Mof_O 	O 	0.5149	0.2626	0.7723	-0.108
Mof_O 	O 	0.9864	0.269	0.2616	-0.126
Mof_Cu	Cu	0.30981	0.49983	0.77895	0.898
Mof_Cu	Cu	0.19171	0.26593	0.48522	0.9
Mof_Cu	Cu	0.30171	0.77196	0.48912	0.907
Mof_Cu	Cu	0.19645	0.70174	0.47734	0.909
Mof_Cu	Cu	0.29585	0.19658	0.49652	0.904
Mof_Cu	Cu	0.20533	0.49939	0.69778	0.915
Mof_O 	O 	0.2517	0.8534	0.49357	-0.381
Mof_O 	O 	0.16479	0.7886	0.48634	-0.403
Mof_O 	O 	0.2624	0.785	0.42277	-0.391
Mof_O 	O 	0.1717	0.7301	0.41227	-0.417
Mof_O 	O 	0.23748	0.61443	0.47088	-0.402
Mof_O 	O 	0.32838	0.672	0.48364	-0.395
Mof_O 	O 	0.2488	0.6921	0.54693	-0.398
Mof_O 	O 	0.3326	0.7551	0.5544	-0.414
Mof_O 	O 	0.24942	0.1133	0.49984	-0.408
Mof_O 	O 	0.1615	0.1709	0.49377	-0.395
Mof_O 	O 	0.2651	0.9232	0.2947	-0.393
Mof_O 	O 	0.17959	0.9278	0.2262	-0.425
Mof_O 	O 	0.8238	0.5662	0.27169	-0.431
Mof_O 	O 	0.73808	0.5694	0.20294	-0.404
Mof_O 	O 	0.83823	0.7406	0.08116	-0.395
Mof_O 	O 	0.74706	0.6867	0.07039	-0.396
Mof_O 	O 	0.3252	0.2925	0.49073	-0.411
Mof_O 	O 	0.2356	0.3525	0.4785	-0.405
Mof_O 	O 	0.25179	0.5688	0.67946	-0.401
Mof_O 	O 	0.34069	0.573	0.74871	-0.395
Mof_O 	O 	0.67201	0.7168	0.93572	-0.391
Mof_O 	O 	0.76025	0.779	0.94663	-0.422
Mof_O 	O 	0.75225	0.9227	0.81876	-0.395
Mof_O 	O 	0.66238	0.92027	0.74949	-0.393
Mof_O 	O 	0.4942	0.7388	0.72	-0.092
Mof_O 	O 	0.0271	0.754	0.2362	-0.06
Mof_C 	C 	0.3039	0.7175	0.5708	0.363
Mof_C 	C 	0.3336	0.7041	0.621	-0.05
Mof_C 	C 	0.3067	0.6565	0.64074	-0.014
Mof_H 	H 	0.2672	0.6348	0.6221	0.067
Mof_C 	C 	0.3382	0.6419	0.687	-0.028
Mof_C 	C 	0.3087	0.587	0.706	0.334
Mof_C 	C 	0.3982	0.6716	0.7154	-0.107
Mof_H 	H 	0.4195	0.6595	0.7468	0.086
Mof_C 	C 	0.4268	0.719	0.6973	0.146
Mof_C 	C 	0.3947	0.734	0.6499	-0.094
Mof_H 	H 	0.4138	0.7643	0.637	0.093
Mof_C 	C 	0.5821	0.7601	0.7963	0.042
Mof_C 	C 	0.6079	0.8131	0.77858	-0.043
Mof_H 	H 	0.5854	0.8279	0.7477	0.08
Mof_C 	C 	0.6679	0.8431	0.8082	-0.057
Mof_C 	C 	0.6954	0.9014	0.7912	0.335
Mof_C 	C 	0.7012	0.8243	0.85486	0.003
Mof_H 	H 	0.7412	0.8443	0.874	0.062
Mof_C 	C 	0.6737	0.7754	0.8722	-0.058
Mof_C 	C 	0.7078	0.7556	0.9232	0.359
Mof_C 	C 	0.6136	0.7446	0.84356	-0.053
Mof_H 	H 	0.5948	0.7137	0.8563	0.067
Mof_C 	C 	0.2919	0.3476	0.4842	0.363
Mof_C 	C 	0.3243	0.4151	0.4828	-0.071
Mof_C 	C 	0.3871	0.4139	0.4882	-0.036
Mof_H 	H 	0.4082	0.3708	0.4907	0.065
Mof_C 	C 	0.4182	0.4802	0.4897	0.033
Mof_C 	C 	0.3894	0.5412	0.4852	-0.045
Mof_H 	H 	0.411	0.5832	0.4855	0.067
Mof_C 	C 	0.3254	0.5451	0.4797	-0.065
Mof_C 	C 	0.2934	0.4809	0.4778	0.014
Mof_H 	H 	0.2511	0.4821	0.4731	0.058
Mof_C 	C 	0.2948	0.616	0.4778	0.346
Mof_C 	C 	0.1644	0.9162	0.496	-0.05
Mof_C 	C 	0.1954	0.8477	0.4925	0.315
Mof_C 	C 	0.1935	0.9813	0.4978	0.002
Mof_H 	H 	0.2334	0.9824	0.498	0.062
Mof_C 	C 	0.164	0.0449	0.4993	-0.059
Mof_C 	C 	0.1949	0.1151	0.4987	0.343
Mof_C 	C 	0.1044	0.0432	0.4996	-0.044
Mof_H 	H 	0.0843	0.085	0.5017	0.067
Mof_C 	C 	0.0756	0.9748	0.4967	0.036
Mof_C 	C 	0.1071	0.9151	0.4968	-0.05
Mof_H 	H 	0.0889	0.8712	0.4975	0.069
Mof_C 	C 	0.015	0.97	0.4996	-0.016
Mof_C 	C 	0.4837	0.4688	0.4969	-0.017
Mof_C 	C 	0.2061	0.8277	0.33004	-0.006
Mof_H 	H 	0.2481	0.8418	0.3498	0.064
Mof_C 	C 	0.1772	0.8514	0.28407	-0.047
Mof_C 	C 	0.2076	0.9046	0.2659	0.363
Mof_C 	C 	0.1153	0.8284	0.2547	-0.096
Mof_H 	H 	0.0947	0.8441	0.2239	0.092
Mof_C 	C 	0.084	0.782	0.2708	0.145
Mof_C 	C 	0.1119	0.7625	0.3163	-0.106
Mof_H 	H 	0.0888	0.7343	0.3271	0.084
Mof_C 	C 	0.9229	0.6995	0.2222	0.04
Mof_C 	C 	0.8967	0.715	0.1757	-0.037
Mof_H 	H 	0.9199	0.7409	0.1639	0.077
Mof_C 	C 	0.8339	0.6909	0.14629	-0.077
Mof_C 	C 	0.8049	0.7085	0.097	0.343
Mof_C 	C 	0.8004	0.6539	0.1645	0.021
Mof_H 	H 	0.7578	0.6414	0.1452	0.055
Mof_C 	C 	0.8289	0.6346	0.2115	-0.072
Mof_C 	C 	0.7951	0.5868	0.2313	0.376
Mof_C 	C 	0.8921	0.6561	0.2404	-0.044
Mof_H 	H 	0.9131	0.6416	0.2714	0.061
Mof_C 	C 	0.5216	0.7308	0.76944	-0.028
Mof_H 	H 	0.524	0.68	0.7763	0.046
Mof_H 	H 	0.4921	0.7519	0.7794	0.057
Mof_C 	C 	0.9877	0.7192	0.255	-0.033
Mof_H 	H 	0.9854	0.7512	0.2778	0.055
Mof_H 	H 	0.01	0.6763	0.2715	0.047
Mof_C 	C 	0.2025	0.7616	0.3972	0.347
Mof_C 	C 	0.1747	0.7838	0.3474	-0.041
Mof_O 	O 	0.4851	0.7626	0.7277	-0.108
Mof_O 	O 	0.0136	0.769	0.2384	-0.127
_end
