data_functionalizedCrystal
_audit_creation_method	'EQeq! by Chris Wilmer'
_symmetry_space_group_name_H-M	'P1'
_symmetry_Int_Tables_number	1
_symmetry_cell_setting	triclinic
loop_
_symmetry_equiv_pos_as_xyz
  x,y,z
_cell_length_a	33.6889
_cell_length_b	14.6464
_cell_length_c	31.9521
_cell_angle_alpha	90
_cell_angle_beta	99.1492
_cell_angle_gamma	90
loop_
_atom_site_label
_atom_site_type_symbol
_atom_site_fract_x
_atom_site_fract_y
_atom_site_fract_z
_atom_site_charge
Mof_I 	I 	0.76451	0.22715	0.7071	-0.377
Mof_I 	I 	0.59939	0.26242	0.60588	-0.378
Mof_I 	I 	0.65306	0.36741	0.49533	-0.373
Mof_I 	I 	0.87511	0.16038	0.79876	-0.402
Mof_I 	I 	0.85997	0.26725	0.93928	-0.379
Mof_I 	I 	0.97068	0.32364	0.87748	-0.351
Mof_Zn	Zn	0.82932	0.13743	0.72841	1.163
Mof_Zn	Zn	0.62675	0.39018	0.56414	1.164
Mof_Zn	Zn	0.90722	0.36932	0.90581	1.163
Mof_N 	N 	0.81861	0.9985	0.72174	-0.274
Mof_N 	N 	0.92171	0.4783	0.94692	-0.269
Mof_N 	N 	0.6705	0.455	0.60651	-0.272
Mof_N 	N 	0.97583	0.7657	0.02142	-0.147
Mof_N 	N 	0.76894	0.677	0.68688	-0.139
Mof_C 	C 	0.7827	0.871	0.6884	-0.121
Mof_H 	H 	0.7621	0.8482	0.6671	0.08
Mof_N 	N 	0.92361	0.7167	0.05823	-0.133
Mof_N 	N 	0.87294	0.4355	0.8558	-0.272
Mof_N 	N 	0.82132	0.6652	0.74569	-0.135
Mof_C 	C 	0.9665	0.5968	0.9761	-0.108
Mof_H 	H 	0.9918	0.6261	0.9778	0.072
Mof_C 	C 	0.6824	0.5399	0.5987	0.07
Mof_H 	H 	0.6703	0.5692	0.5733	-0.001
Mof_C 	C 	0.8416	0.9411	0.7473	0.066
Mof_H 	H 	0.8626	0.9654	0.7676	-0.012
Mof_C 	C 	0.7298	0.5433	0.6625	0.049
Mof_C 	C 	0.8234	0.4368	0.794	-0.128
Mof_H 	H 	0.8032	0.4051	0.7755	0.08
Mof_C 	C 	0.8061	0.812	0.7153	0.059
Mof_C 	C 	0.76158	0.5879	0.6924	0.088
Mof_C 	C 	0.8436	0.3942	0.8292	0.07
Mof_H 	H 	0.8365	0.3333	0.8351	-0.01
Mof_C 	C 	0.8361	0.848	0.7455	-0.118
Mof_H 	H 	0.8527	0.809	0.7646	0.085
Mof_C 	C 	0.79843	0.7117	0.715	0.105
Mof_C 	C 	0.8105	0.578	0.7491	0.101
Mof_C 	C 	0.93835	0.6287	0.9996	0.046
Mof_C 	C 	0.7174	0.4561	0.6706	-0.124
Mof_H 	H 	0.7294	0.4248	0.6955	0.092
Mof_C 	C 	0.8327	0.5265	0.7857	0.059
Mof_C 	C 	0.9573	0.5213	0.9501	0.061
Mof_H 	H 	0.9768	0.4994	0.9341	-0.004
Mof_C 	C 	0.9303	0.7925	0.0814	0.107
Mof_C 	C 	0.6876	0.4145	0.6422	0.071
Mof_H 	H 	0.6789	0.355	0.6485	-0.005
Mof_C 	C 	0.94646	0.7081	0.028	0.093
Mof_C 	C 	0.01846	0.8915	0.05083	0.033
Mof_C 	C 	0.03718	0.9058	0.01563	-0.101
Mof_H 	H 	0.0277	0.8752	0.9898	0.07
Mof_C 	C 	0.06973	0.9651	0.01829	0.046
Mof_H 	H 	0.0825	0.9749	0.9942	0.006
Mof_N 	N 	0.08355	0.0099	0.05613	-0.26
Mof_C 	C 	0.0648	0.9956	0.09133	0.035
Mof_H 	H 	0.0743	0.0262	0.1172	-0.001
Mof_C 	C 	0.0323	0.9364	0.08868	-0.094
Mof_H 	H 	0.0195	0.9265	0.1127	0.081
Mof_C 	C 	0.8944	0.509	0.9697	0.065
Mof_H 	H 	0.8692	0.4789	0.9673	-0.011
Mof_C 	C 	0.9018	0.5832	0.9966	-0.116
Mof_H 	H 	0.8821	0.6029	0.0128	0.081
Mof_C 	C 	0.7112	0.5865	0.6257	-0.116
Mof_H 	H 	0.7183	0.6472	0.6194	0.087
Mof_C 	C 	0.863	0.5695	0.8129	-0.118
Mof_H 	H 	0.8703	0.6309	0.8081	0.092
Mof_N 	N 	0.78064	0.5361	0.72389	-0.14
Mof_C 	C 	0.8824	0.5212	0.8471	0.071
Mof_H 	H 	0.9037	0.5503	0.8654	-0.004
Mof_C 	C 	0.7895	0.9638	0.6927	0.072
Mof_H 	H 	0.7729	0.0044	0.6744	-0.012
Mof_N 	N 	0.95834	0.8543	0.0776	-0.137
Mof_C 	C 	0.9812	0.8357	0.0485	0.102
Mof_C 	C 	0.8798	0.7444	0.1261	-0.132
Mof_H 	H 	0.8771	0.687	0.1121	0.091
Mof_C 	C 	0.9051	0.8088	0.1146	0.076
Mof_C 	C 	0.8584	0.763	0.1581	0.09
Mof_H 	H 	0.841	0.7171	0.1658	-0.019
Mof_C 	C 	0.9051	0.8928	0.1337	-0.127
Mof_H 	H 	0.9206	0.9414	0.1249	0.086
Mof_C 	C 	0.8827	0.9066	0.1656	0.082
Mof_H 	H 	0.8832	0.9649	0.1787	-0.018
Mof_N 	N 	0.86046	0.8408	0.1787	-0.28
Mof_I 	I 	0.26451	0.72715	0.7071	-0.376
Mof_I 	I 	0.09939	0.76242	0.60588	-0.377
Mof_I 	I 	0.15306	0.86741	0.49533	-0.372
Mof_I 	I 	0.37511	0.66038	0.79876	-0.4
Mof_I 	I 	0.35997	0.76725	0.93928	-0.378
Mof_I 	I 	0.47068	0.82364	0.87748	-0.35
Mof_Zn	Zn	0.32932	0.63743	0.72841	1.164
Mof_Zn	Zn	0.12675	0.89018	0.56414	1.165
Mof_Zn	Zn	0.40722	0.86932	0.90581	1.164
Mof_N 	N 	0.31861	0.4985	0.72174	-0.273
Mof_N 	N 	0.42171	0.9783	0.94692	-0.268
Mof_N 	N 	0.1705	0.955	0.60651	-0.271
Mof_N 	N 	0.47583	0.2657	0.02142	-0.147
Mof_N 	N 	0.26894	0.177	0.68688	-0.139
Mof_C 	C 	0.2827	0.371	0.6884	-0.121
Mof_H 	H 	0.2621	0.3482	0.6671	0.08
Mof_N 	N 	0.42361	0.2167	0.05823	-0.133
Mof_N 	N 	0.37294	0.9355	0.8558	-0.271
Mof_N 	N 	0.32132	0.1652	0.74569	-0.135
Mof_C 	C 	0.4665	0.0968	0.9761	-0.108
Mof_H 	H 	0.4918	0.1261	0.9778	0.072
Mof_C 	C 	0.1824	0.0399	0.5987	0.07
Mof_H 	H 	0.1703	0.0692	0.5733	-0.001
Mof_C 	C 	0.3416	0.4411	0.7473	0.066
Mof_H 	H 	0.3626	0.4654	0.7676	-0.012
Mof_C 	C 	0.2298	0.0433	0.6625	0.049
Mof_C 	C 	0.3234	0.9368	0.794	-0.127
Mof_H 	H 	0.3032	0.9051	0.7755	0.079
Mof_C 	C 	0.3061	0.312	0.7153	0.059
Mof_C 	C 	0.26158	0.0879	0.6924	0.088
Mof_C 	C 	0.3436	0.8942	0.8292	0.07
Mof_H 	H 	0.3365	0.8333	0.8351	-0.01
Mof_C 	C 	0.3361	0.348	0.7455	-0.118
Mof_H 	H 	0.3527	0.309	0.7646	0.085
Mof_C 	C 	0.29843	0.2117	0.715	0.105
Mof_C 	C 	0.3105	0.078	0.7491	0.101
Mof_C 	C 	0.43835	0.1287	0.9996	0.046
Mof_C 	C 	0.2174	0.9561	0.6706	-0.124
Mof_H 	H 	0.2294	0.9248	0.6955	0.092
Mof_C 	C 	0.3327	0.0265	0.7857	0.058
Mof_C 	C 	0.4573	0.0213	0.9501	0.06
Mof_H 	H 	0.4768	0.9994	0.9341	-0.004
Mof_C 	C 	0.4303	0.2925	0.0814	0.107
Mof_C 	C 	0.1876	0.9145	0.6422	0.071
Mof_H 	H 	0.1789	0.855	0.6485	-0.005
Mof_C 	C 	0.44646	0.2081	0.028	0.093
Mof_C 	C 	0.51846	0.3915	0.05083	0.033
Mof_C 	C 	0.53718	0.4058	0.01563	-0.101
Mof_H 	H 	0.5277	0.3752	0.9898	0.07
Mof_C 	C 	0.56973	0.4651	0.01829	0.046
Mof_H 	H 	0.5825	0.4749	0.9942	0.006
Mof_N 	N 	0.58355	0.5099	0.05613	-0.26
Mof_C 	C 	0.5648	0.4956	0.09133	0.036
Mof_H 	H 	0.5743	0.5262	0.1172	-0.001
Mof_C 	C 	0.5323	0.4364	0.08868	-0.095
Mof_H 	H 	0.5195	0.4265	0.1127	0.081
Mof_C 	C 	0.3944	0.009	0.9697	0.064
Mof_H 	H 	0.3692	0.9789	0.9673	-0.011
Mof_C 	C 	0.4018	0.0832	0.9966	-0.115
Mof_H 	H 	0.3821	0.1029	0.0128	0.081
Mof_C 	C 	0.2112	0.0865	0.6257	-0.116
Mof_H 	H 	0.2183	0.1472	0.6194	0.087
Mof_C 	C 	0.363	0.0695	0.8129	-0.118
Mof_H 	H 	0.3703	0.1309	0.8081	0.091
Mof_N 	N 	0.28064	0.0361	0.72389	-0.141
Mof_C 	C 	0.3824	0.0212	0.8471	0.07
Mof_H 	H 	0.4037	0.0503	0.8654	-0.004
Mof_C 	C 	0.2895	0.4638	0.6927	0.071
Mof_H 	H 	0.2729	0.5044	0.6744	-0.011
Mof_N 	N 	0.45834	0.3543	0.0776	-0.137
Mof_C 	C 	0.4812	0.3357	0.0485	0.102
Mof_C 	C 	0.3798	0.2444	0.1261	-0.132
Mof_H 	H 	0.3771	0.187	0.1121	0.091
Mof_C 	C 	0.4051	0.3088	0.1146	0.076
Mof_C 	C 	0.3584	0.263	0.1581	0.09
Mof_H 	H 	0.341	0.2171	0.1658	-0.019
Mof_C 	C 	0.4051	0.3928	0.1337	-0.127
Mof_H 	H 	0.4206	0.4414	0.1249	0.086
Mof_C 	C 	0.3827	0.4066	0.1656	0.082
Mof_H 	H 	0.3832	0.4649	0.1787	-0.018
Mof_N 	N 	0.36046	0.3408	0.1787	-0.28
Mof_I 	I 	0.76451	0.77285	0.2071	-0.376
Mof_I 	I 	0.59939	0.73758	0.10588	-0.377
Mof_I 	I 	0.65306	0.63259	0.99533	-0.372
Mof_I 	I 	0.87511	0.83962	0.29876	-0.401
Mof_I 	I 	0.85997	0.73275	0.43928	-0.378
Mof_I 	I 	0.97068	0.67636	0.37748	-0.35
Mof_Zn	Zn	0.82932	0.86257	0.22841	1.164
Mof_Zn	Zn	0.62675	0.60982	0.06414	1.165
Mof_Zn	Zn	0.90722	0.63068	0.40581	1.164
Mof_N 	N 	0.81861	0.0015	0.22174	-0.273
Mof_N 	N 	0.92171	0.5217	0.44692	-0.269
Mof_N 	N 	0.6705	0.545	0.10651	-0.272
Mof_N 	N 	0.97583	0.2343	0.52142	-0.147
Mof_N 	N 	0.76894	0.323	0.18688	-0.139
Mof_C 	C 	0.7827	0.129	0.1884	-0.122
Mof_H 	H 	0.7621	0.1518	0.1671	0.08
Mof_N 	N 	0.92361	0.2833	0.55823	-0.133
Mof_N 	N 	0.87294	0.5645	0.3558	-0.272
Mof_N 	N 	0.82132	0.3348	0.24569	-0.135
Mof_C 	C 	0.9665	0.4032	0.4761	-0.108
Mof_H 	H 	0.9918	0.3739	0.4778	0.072
Mof_C 	C 	0.6824	0.4601	0.0987	0.07
Mof_H 	H 	0.6703	0.4308	0.0733	-0.001
Mof_C 	C 	0.8416	0.0589	0.2473	0.066
Mof_H 	H 	0.8626	0.0346	0.2676	-0.012
Mof_C 	C 	0.7298	0.4567	0.1625	0.049
Mof_C 	C 	0.8234	0.5632	0.294	-0.128
Mof_H 	H 	0.8032	0.5949	0.2755	0.08
Mof_C 	C 	0.8061	0.188	0.2153	0.059
Mof_C 	C 	0.76158	0.4121	0.1924	0.088
Mof_C 	C 	0.8436	0.6058	0.3292	0.07
Mof_H 	H 	0.8365	0.6667	0.3351	-0.01
Mof_C 	C 	0.8361	0.152	0.2455	-0.118
Mof_H 	H 	0.8527	0.191	0.2646	0.085
Mof_C 	C 	0.79843	0.2883	0.215	0.105
Mof_C 	C 	0.8105	0.422	0.2491	0.101
Mof_C 	C 	0.93835	0.3713	0.4996	0.046
Mof_C 	C 	0.7174	0.5439	0.1706	-0.124
Mof_H 	H 	0.7294	0.5752	0.1955	0.092
Mof_C 	C 	0.8327	0.4735	0.2857	0.059
Mof_C 	C 	0.9573	0.4787	0.4501	0.061
Mof_H 	H 	0.9768	0.5006	0.4341	-0.004
Mof_C 	C 	0.9303	0.2075	0.5814	0.107
Mof_C 	C 	0.6876	0.5855	0.1422	0.071
Mof_H 	H 	0.6789	0.645	0.1485	-0.005
Mof_C 	C 	0.94646	0.2919	0.528	0.093
Mof_C 	C 	0.01846	0.1085	0.55083	0.033
Mof_C 	C 	0.03718	0.0942	0.51563	-0.101
Mof_H 	H 	0.0277	0.1248	0.4898	0.07
Mof_C 	C 	0.06973	0.0349	0.51829	0.046
Mof_H 	H 	0.0825	0.0251	0.4942	0.006
Mof_N 	N 	0.08355	0.9901	0.55613	-0.26
Mof_C 	C 	0.0648	0.0044	0.59133	0.035
Mof_H 	H 	0.0743	0.9738	0.6172	-0.001
Mof_C 	C 	0.0323	0.0636	0.58868	-0.094
Mof_H 	H 	0.0195	0.0735	0.6127	0.081
Mof_C 	C 	0.8944	0.491	0.4697	0.065
Mof_H 	H 	0.8692	0.5211	0.4673	-0.011
Mof_C 	C 	0.9018	0.4168	0.4966	-0.116
Mof_H 	H 	0.8821	0.3971	0.5128	0.081
Mof_C 	C 	0.7112	0.4135	0.1257	-0.116
Mof_H 	H 	0.7183	0.3528	0.1194	0.087
Mof_C 	C 	0.863	0.4305	0.3129	-0.118
Mof_H 	H 	0.8703	0.3691	0.3081	0.092
Mof_N 	N 	0.78064	0.4639	0.22389	-0.14
Mof_C 	C 	0.8824	0.4788	0.3471	0.071
Mof_H 	H 	0.9037	0.4497	0.3654	-0.004
Mof_C 	C 	0.7895	0.0362	0.1927	0.072
Mof_H 	H 	0.7729	0.9956	0.1744	-0.012
Mof_N 	N 	0.95834	0.1457	0.5776	-0.137
Mof_C 	C 	0.9812	0.1643	0.5485	0.102
Mof_C 	C 	0.8798	0.2556	0.6261	-0.132
Mof_H 	H 	0.8771	0.313	0.6121	0.091
Mof_C 	C 	0.9051	0.1912	0.6146	0.076
Mof_C 	C 	0.8584	0.237	0.6581	0.09
Mof_H 	H 	0.841	0.2829	0.6658	-0.019
Mof_C 	C 	0.9051	0.1072	0.6337	-0.127
Mof_H 	H 	0.9206	0.0586	0.6249	0.086
Mof_C 	C 	0.8827	0.0934	0.6656	0.082
Mof_H 	H 	0.8832	0.0351	0.6787	-0.018
Mof_N 	N 	0.86046	0.1592	0.6787	-0.28
Mof_I 	I 	0.26451	0.27285	0.2071	-0.376
Mof_I 	I 	0.09939	0.23758	0.10588	-0.377
Mof_I 	I 	0.15306	0.13259	0.99533	-0.372
Mof_I 	I 	0.37511	0.33962	0.29876	-0.4
Mof_I 	I 	0.35997	0.23275	0.43928	-0.378
Mof_I 	I 	0.47068	0.17636	0.37748	-0.35
Mof_Zn	Zn	0.32932	0.36257	0.22841	1.164
Mof_Zn	Zn	0.12675	0.10982	0.06414	1.165
Mof_Zn	Zn	0.40722	0.13068	0.40581	1.164
Mof_N 	N 	0.31861	0.5015	0.22174	-0.273
Mof_N 	N 	0.42171	0.0217	0.44692	-0.268
Mof_N 	N 	0.1705	0.045	0.10651	-0.271
Mof_N 	N 	0.47583	0.7343	0.52142	-0.147
Mof_N 	N 	0.26894	0.823	0.18688	-0.139
Mof_C 	C 	0.2827	0.629	0.1884	-0.121
Mof_H 	H 	0.2621	0.6518	0.1671	0.08
Mof_N 	N 	0.42361	0.7833	0.55823	-0.133
Mof_N 	N 	0.37294	0.0645	0.3558	-0.271
Mof_N 	N 	0.32132	0.8348	0.24569	-0.135
Mof_C 	C 	0.4665	0.9032	0.4761	-0.108
Mof_H 	H 	0.4918	0.8739	0.4778	0.072
Mof_C 	C 	0.1824	0.9601	0.0987	0.07
Mof_H 	H 	0.1703	0.9308	0.0733	-0.001
Mof_C 	C 	0.3416	0.5589	0.2473	0.066
Mof_H 	H 	0.3626	0.5346	0.2676	-0.012
Mof_C 	C 	0.2298	0.9567	0.1625	0.049
Mof_C 	C 	0.3234	0.0632	0.294	-0.127
Mof_H 	H 	0.3032	0.0949	0.2755	0.079
Mof_C 	C 	0.3061	0.688	0.2153	0.059
Mof_C 	C 	0.26158	0.9121	0.1924	0.088
Mof_C 	C 	0.3436	0.1058	0.3292	0.07
Mof_H 	H 	0.3365	0.1667	0.3351	-0.01
Mof_C 	C 	0.3361	0.652	0.2455	-0.118
Mof_H 	H 	0.3527	0.691	0.2646	0.085
Mof_C 	C 	0.29843	0.7883	0.215	0.105
Mof_C 	C 	0.3105	0.922	0.2491	0.101
Mof_C 	C 	0.43835	0.8713	0.4996	0.046
Mof_C 	C 	0.2174	0.0439	0.1706	-0.124
Mof_H 	H 	0.2294	0.0752	0.1955	0.092
Mof_C 	C 	0.3327	0.9735	0.2857	0.058
Mof_C 	C 	0.4573	0.9787	0.4501	0.06
Mof_H 	H 	0.4768	0.0006	0.4341	-0.004
Mof_C 	C 	0.4303	0.7075	0.5814	0.107
Mof_C 	C 	0.1876	0.0855	0.1422	0.071
Mof_H 	H 	0.1789	0.145	0.1485	-0.005
Mof_C 	C 	0.44646	0.7919	0.528	0.093
Mof_C 	C 	0.51846	0.6085	0.55083	0.033
Mof_C 	C 	0.53718	0.5942	0.51563	-0.101
Mof_H 	H 	0.5277	0.6248	0.4898	0.07
Mof_C 	C 	0.56973	0.5349	0.51829	0.046
Mof_H 	H 	0.5825	0.5251	0.4942	0.006
Mof_N 	N 	0.58355	0.4901	0.55613	-0.26
Mof_C 	C 	0.5648	0.5044	0.59133	0.036
Mof_H 	H 	0.5743	0.4738	0.6172	-0.001
Mof_C 	C 	0.5323	0.5636	0.58868	-0.095
Mof_H 	H 	0.5195	0.5735	0.6127	0.081
Mof_C 	C 	0.3944	0.991	0.4697	0.064
Mof_H 	H 	0.3692	0.0211	0.4673	-0.011
Mof_C 	C 	0.4018	0.9168	0.4966	-0.115
Mof_H 	H 	0.3821	0.8971	0.5128	0.081
Mof_C 	C 	0.2112	0.9135	0.1257	-0.116
Mof_H 	H 	0.2183	0.8528	0.1194	0.087
Mof_C 	C 	0.363	0.9305	0.3129	-0.118
Mof_H 	H 	0.3703	0.8691	0.3081	0.091
Mof_N 	N 	0.28064	0.9639	0.22389	-0.141
Mof_C 	C 	0.3824	0.9788	0.3471	0.07
Mof_H 	H 	0.4037	0.9497	0.3654	-0.004
Mof_C 	C 	0.2895	0.5362	0.1927	0.071
Mof_H 	H 	0.2729	0.4956	0.1744	-0.011
Mof_N 	N 	0.45834	0.6457	0.5776	-0.137
Mof_C 	C 	0.4812	0.6643	0.5485	0.102
Mof_C 	C 	0.3798	0.7556	0.6261	-0.132
Mof_H 	H 	0.3771	0.813	0.6121	0.091
Mof_C 	C 	0.4051	0.6912	0.6146	0.076
Mof_C 	C 	0.3584	0.737	0.6581	0.09
Mof_H 	H 	0.341	0.7829	0.6658	-0.019
Mof_C 	C 	0.4051	0.6072	0.6337	-0.127
Mof_H 	H 	0.4206	0.5586	0.6249	0.086
Mof_C 	C 	0.3827	0.5934	0.6656	0.082
Mof_H 	H 	0.3832	0.5351	0.6787	-0.018
Mof_N 	N 	0.36046	0.6592	0.6787	-0.28
Mof_I 	I 	0.23549	0.22715	0.7929	-0.376
Mof_I 	I 	0.40061	0.26242	0.89412	-0.377
Mof_I 	I 	0.34694	0.36741	0.00467	-0.372
Mof_I 	I 	0.12489	0.16038	0.70124	-0.401
Mof_I 	I 	0.14003	0.26725	0.56072	-0.378
Mof_I 	I 	0.02932	0.32364	0.62252	-0.35
Mof_Zn	Zn	0.17068	0.13743	0.77159	1.164
Mof_Zn	Zn	0.37325	0.39018	0.93586	1.165
Mof_Zn	Zn	0.09278	0.36932	0.59419	1.164
Mof_N 	N 	0.18139	0.9985	0.77826	-0.273
Mof_N 	N 	0.07829	0.4783	0.55308	-0.269
Mof_N 	N 	0.3295	0.455	0.89349	-0.272
Mof_N 	N 	0.02417	0.7657	0.47858	-0.147
Mof_N 	N 	0.23106	0.677	0.81312	-0.139
Mof_C 	C 	0.2173	0.871	0.8116	-0.122
Mof_H 	H 	0.2379	0.8482	0.8329	0.08
Mof_N 	N 	0.07639	0.7167	0.44177	-0.133
Mof_N 	N 	0.12706	0.4355	0.6442	-0.272
Mof_N 	N 	0.17868	0.6652	0.75431	-0.135
Mof_C 	C 	0.0335	0.5968	0.5239	-0.108
Mof_H 	H 	0.0082	0.6261	0.5222	0.072
Mof_C 	C 	0.3176	0.5399	0.9013	0.07
Mof_H 	H 	0.3297	0.5692	0.9267	-0.001
Mof_C 	C 	0.1584	0.9411	0.7527	0.066
Mof_H 	H 	0.1374	0.9654	0.7324	-0.012
Mof_C 	C 	0.2702	0.5433	0.8375	0.049
Mof_C 	C 	0.1766	0.4368	0.706	-0.128
Mof_H 	H 	0.1968	0.4051	0.7245	0.08
Mof_C 	C 	0.1939	0.812	0.7847	0.059
Mof_C 	C 	0.23842	0.5879	0.8076	0.088
Mof_C 	C 	0.1564	0.3942	0.6708	0.07
Mof_H 	H 	0.1635	0.3333	0.6649	-0.01
Mof_C 	C 	0.1639	0.848	0.7545	-0.118
Mof_H 	H 	0.1473	0.809	0.7354	0.085
Mof_C 	C 	0.20157	0.7117	0.785	0.105
Mof_C 	C 	0.1895	0.578	0.7509	0.101
Mof_C 	C 	0.06165	0.6287	0.5004	0.046
Mof_C 	C 	0.2826	0.4561	0.8294	-0.124
Mof_H 	H 	0.2706	0.4248	0.8045	0.092
Mof_C 	C 	0.1673	0.5265	0.7143	0.059
Mof_C 	C 	0.0427	0.5213	0.5499	0.061
Mof_H 	H 	0.0232	0.4994	0.5659	-0.004
Mof_C 	C 	0.0697	0.7925	0.4186	0.107
Mof_C 	C 	0.3124	0.4145	0.8578	0.071
Mof_H 	H 	0.3211	0.355	0.8515	-0.005
Mof_C 	C 	0.05354	0.7081	0.472	0.093
Mof_C 	C 	0.98154	0.8915	0.44917	0.033
Mof_C 	C 	0.96282	0.9058	0.48437	-0.101
Mof_H 	H 	0.9723	0.8752	0.5102	0.07
Mof_C 	C 	0.93027	0.9651	0.48171	0.046
Mof_H 	H 	0.9175	0.9749	0.5058	0.006
Mof_N 	N 	0.91645	0.0099	0.44387	-0.26
Mof_C 	C 	0.9352	0.9956	0.40867	0.035
Mof_H 	H 	0.9257	0.0262	0.3828	-0.001
Mof_C 	C 	0.9677	0.9364	0.41132	-0.094
Mof_H 	H 	0.9805	0.9265	0.3873	0.081
Mof_C 	C 	0.1056	0.509	0.5303	0.065
Mof_H 	H 	0.1308	0.4789	0.5327	-0.011
Mof_C 	C 	0.0982	0.5832	0.5034	-0.116
Mof_H 	H 	0.1179	0.6029	0.4872	0.081
Mof_C 	C 	0.2888	0.5865	0.8743	-0.116
Mof_H 	H 	0.2817	0.6472	0.8806	0.087
Mof_C 	C 	0.137	0.5695	0.6871	-0.118
Mof_H 	H 	0.1297	0.6309	0.6919	0.092
Mof_N 	N 	0.21936	0.5361	0.77611	-0.14
Mof_C 	C 	0.1176	0.5212	0.6529	0.071
Mof_H 	H 	0.0963	0.5503	0.6346	-0.004
Mof_C 	C 	0.2105	0.9638	0.8073	0.072
Mof_H 	H 	0.2271	0.0044	0.8256	-0.012
Mof_N 	N 	0.04166	0.8543	0.4224	-0.137
Mof_C 	C 	0.0188	0.8357	0.4515	0.102
Mof_C 	C 	0.1202	0.7444	0.3739	-0.132
Mof_H 	H 	0.1229	0.687	0.3879	0.091
Mof_C 	C 	0.0949	0.8088	0.3854	0.076
Mof_C 	C 	0.1416	0.763	0.3419	0.09
Mof_H 	H 	0.159	0.7171	0.3342	-0.019
Mof_C 	C 	0.0949	0.8928	0.3663	-0.127
Mof_H 	H 	0.0794	0.9414	0.3751	0.086
Mof_C 	C 	0.1173	0.9066	0.3344	0.082
Mof_H 	H 	0.1168	0.9649	0.3213	-0.018
Mof_N 	N 	0.13954	0.8408	0.3213	-0.28
Mof_I 	I 	0.73549	0.72715	0.7929	-0.376
Mof_I 	I 	0.90061	0.76242	0.89412	-0.377
Mof_I 	I 	0.84694	0.86741	0.00467	-0.372
Mof_I 	I 	0.62489	0.66038	0.70124	-0.4
Mof_I 	I 	0.64003	0.76725	0.56072	-0.378
Mof_I 	I 	0.52932	0.82364	0.62252	-0.35
Mof_Zn	Zn	0.67068	0.63743	0.77159	1.164
Mof_Zn	Zn	0.87325	0.89018	0.93586	1.165
Mof_Zn	Zn	0.59278	0.86932	0.59419	1.164
Mof_N 	N 	0.68139	0.4985	0.77826	-0.273
Mof_N 	N 	0.57829	0.9783	0.55308	-0.268
Mof_N 	N 	0.8295	0.955	0.89349	-0.271
Mof_N 	N 	0.52417	0.2657	0.47858	-0.147
Mof_N 	N 	0.73106	0.177	0.81312	-0.139
Mof_C 	C 	0.7173	0.371	0.8116	-0.121
Mof_H 	H 	0.7379	0.3482	0.8329	0.08
Mof_N 	N 	0.57639	0.2167	0.44177	-0.133
Mof_N 	N 	0.62706	0.9355	0.6442	-0.271
Mof_N 	N 	0.67868	0.1652	0.75431	-0.135
Mof_C 	C 	0.5335	0.0968	0.5239	-0.108
Mof_H 	H 	0.5082	0.1261	0.5222	0.072
Mof_C 	C 	0.8176	0.0399	0.9013	0.07
Mof_H 	H 	0.8297	0.0692	0.9267	-0.001
Mof_C 	C 	0.6584	0.4411	0.7527	0.066
Mof_H 	H 	0.6374	0.4654	0.7324	-0.012
Mof_C 	C 	0.7702	0.0433	0.8375	0.049
Mof_C 	C 	0.6766	0.9368	0.706	-0.127
Mof_H 	H 	0.6968	0.9051	0.7245	0.079
Mof_C 	C 	0.6939	0.312	0.7847	0.059
Mof_C 	C 	0.73842	0.0879	0.8076	0.088
Mof_C 	C 	0.6564	0.8942	0.6708	0.07
Mof_H 	H 	0.6635	0.8333	0.6649	-0.01
Mof_C 	C 	0.6639	0.348	0.7545	-0.118
Mof_H 	H 	0.6473	0.309	0.7354	0.085
Mof_C 	C 	0.70157	0.2117	0.785	0.105
Mof_C 	C 	0.6895	0.078	0.7509	0.101
Mof_C 	C 	0.56165	0.1287	0.5004	0.046
Mof_C 	C 	0.7826	0.9561	0.8294	-0.124
Mof_H 	H 	0.7706	0.9248	0.8045	0.092
Mof_C 	C 	0.6673	0.0265	0.7143	0.058
Mof_C 	C 	0.5427	0.0213	0.5499	0.06
Mof_H 	H 	0.5232	0.9994	0.5659	-0.004
Mof_C 	C 	0.5697	0.2925	0.4186	0.107
Mof_C 	C 	0.8124	0.9145	0.8578	0.071
Mof_H 	H 	0.8211	0.855	0.8515	-0.005
Mof_C 	C 	0.55354	0.2081	0.472	0.093
Mof_C 	C 	0.48154	0.3915	0.44917	0.033
Mof_C 	C 	0.46282	0.4058	0.48437	-0.101
Mof_H 	H 	0.4723	0.3752	0.5102	0.07
Mof_C 	C 	0.43027	0.4651	0.48171	0.046
Mof_H 	H 	0.4175	0.4749	0.5058	0.006
Mof_N 	N 	0.41645	0.5099	0.44387	-0.26
Mof_C 	C 	0.4352	0.4956	0.40867	0.036
Mof_H 	H 	0.4257	0.5262	0.3828	-0.001
Mof_C 	C 	0.4677	0.4364	0.41132	-0.095
Mof_H 	H 	0.4805	0.4265	0.3873	0.081
Mof_C 	C 	0.6056	0.009	0.5303	0.064
Mof_H 	H 	0.6308	0.9789	0.5327	-0.011
Mof_C 	C 	0.5982	0.0832	0.5034	-0.115
Mof_H 	H 	0.6179	0.1029	0.4872	0.081
Mof_C 	C 	0.7888	0.0865	0.8743	-0.116
Mof_H 	H 	0.7817	0.1472	0.8806	0.087
Mof_C 	C 	0.637	0.0695	0.6871	-0.118
Mof_H 	H 	0.6297	0.1309	0.6919	0.091
Mof_N 	N 	0.71936	0.0361	0.77611	-0.141
Mof_C 	C 	0.6176	0.0212	0.6529	0.07
Mof_H 	H 	0.5963	0.0503	0.6346	-0.004
Mof_C 	C 	0.7105	0.4638	0.8073	0.071
Mof_H 	H 	0.7271	0.5044	0.8256	-0.011
Mof_N 	N 	0.54166	0.3543	0.4224	-0.137
Mof_C 	C 	0.5188	0.3357	0.4515	0.102
Mof_C 	C 	0.6202	0.2444	0.3739	-0.132
Mof_H 	H 	0.6229	0.187	0.3879	0.091
Mof_C 	C 	0.5949	0.3088	0.3854	0.076
Mof_C 	C 	0.6416	0.263	0.3419	0.09
Mof_H 	H 	0.659	0.2171	0.3342	-0.019
Mof_C 	C 	0.5949	0.3928	0.3663	-0.127
Mof_H 	H 	0.5794	0.4414	0.3751	0.086
Mof_C 	C 	0.6173	0.4066	0.3344	0.082
Mof_H 	H 	0.6168	0.4649	0.3213	-0.018
Mof_N 	N 	0.63954	0.3408	0.3213	-0.28
Mof_I 	I 	0.23549	0.77285	0.2929	-0.376
Mof_I 	I 	0.40061	0.73758	0.39412	-0.377
Mof_I 	I 	0.34694	0.63259	0.50467	-0.372
Mof_I 	I 	0.12489	0.83962	0.20124	-0.401
Mof_I 	I 	0.14003	0.73275	0.06072	-0.378
Mof_I 	I 	0.02932	0.67636	0.12252	-0.35
Mof_Zn	Zn	0.17068	0.86257	0.27159	1.164
Mof_Zn	Zn	0.37325	0.60982	0.43586	1.165
Mof_Zn	Zn	0.09278	0.63068	0.09419	1.164
Mof_N 	N 	0.18139	0.0015	0.27826	-0.273
Mof_N 	N 	0.07829	0.5217	0.05308	-0.269
Mof_N 	N 	0.3295	0.545	0.39349	-0.272
Mof_N 	N 	0.02417	0.2343	0.97858	-0.147
Mof_N 	N 	0.23106	0.323	0.31312	-0.139
Mof_C 	C 	0.2173	0.129	0.3116	-0.121
Mof_H 	H 	0.2379	0.1518	0.3329	0.08
Mof_N 	N 	0.07639	0.2833	0.94177	-0.133
Mof_N 	N 	0.12706	0.5645	0.1442	-0.272
Mof_N 	N 	0.17868	0.3348	0.25431	-0.135
Mof_C 	C 	0.0335	0.4032	0.0239	-0.108
Mof_H 	H 	0.0082	0.3739	0.0222	0.072
Mof_C 	C 	0.3176	0.4601	0.4013	0.07
Mof_H 	H 	0.3297	0.4308	0.4267	-0.001
Mof_C 	C 	0.1584	0.0589	0.2527	0.066
Mof_H 	H 	0.1374	0.0346	0.2324	-0.012
Mof_C 	C 	0.2702	0.4567	0.3375	0.049
Mof_C 	C 	0.1766	0.5632	0.206	-0.128
Mof_H 	H 	0.1968	0.5949	0.2245	0.08
Mof_C 	C 	0.1939	0.188	0.2847	0.059
Mof_C 	C 	0.23842	0.4121	0.3076	0.088
Mof_C 	C 	0.1564	0.6058	0.1708	0.07
Mof_H 	H 	0.1635	0.6667	0.1649	-0.01
Mof_C 	C 	0.1639	0.152	0.2545	-0.118
Mof_H 	H 	0.1473	0.191	0.2354	0.085
Mof_C 	C 	0.20157	0.2883	0.285	0.105
Mof_C 	C 	0.1895	0.422	0.2509	0.101
Mof_C 	C 	0.06165	0.3713	0.0004	0.046
Mof_C 	C 	0.2826	0.5439	0.3294	-0.124
Mof_H 	H 	0.2706	0.5752	0.3045	0.092
Mof_C 	C 	0.1673	0.4735	0.2143	0.059
Mof_C 	C 	0.0427	0.4787	0.0499	0.061
Mof_H 	H 	0.0232	0.5006	0.0659	-0.004
Mof_C 	C 	0.0697	0.2075	0.9186	0.107
Mof_C 	C 	0.3124	0.5855	0.3578	0.071
Mof_H 	H 	0.3211	0.645	0.3515	-0.005
Mof_C 	C 	0.05354	0.2919	0.972	0.093
Mof_C 	C 	0.98154	0.1085	0.94917	0.033
Mof_C 	C 	0.96282	0.0942	0.98437	-0.101
Mof_H 	H 	0.9723	0.1248	0.0102	0.07
Mof_C 	C 	0.93027	0.0349	0.98171	0.046
Mof_H 	H 	0.9175	0.0251	0.0058	0.006
Mof_N 	N 	0.91645	0.9901	0.94387	-0.26
Mof_C 	C 	0.9352	0.0044	0.90867	0.035
Mof_H 	H 	0.9257	0.9738	0.8828	-0.001
Mof_C 	C 	0.9677	0.0636	0.91132	-0.094
Mof_H 	H 	0.9805	0.0735	0.8873	0.081
Mof_C 	C 	0.1056	0.491	0.0303	0.065
Mof_H 	H 	0.1308	0.5211	0.0327	-0.011
Mof_C 	C 	0.0982	0.4168	0.0034	-0.116
Mof_H 	H 	0.1179	0.3971	0.9872	0.081
Mof_C 	C 	0.2888	0.4135	0.3743	-0.116
Mof_H 	H 	0.2817	0.3528	0.3806	0.087
Mof_C 	C 	0.137	0.4305	0.1871	-0.118
Mof_H 	H 	0.1297	0.3691	0.1919	0.092
Mof_N 	N 	0.21936	0.4639	0.27611	-0.14
Mof_C 	C 	0.1176	0.4788	0.1529	0.071
Mof_H 	H 	0.0963	0.4497	0.1346	-0.004
Mof_C 	C 	0.2105	0.0362	0.3073	0.072
Mof_H 	H 	0.2271	0.9956	0.3256	-0.012
Mof_N 	N 	0.04166	0.1457	0.9224	-0.137
Mof_C 	C 	0.0188	0.1643	0.9515	0.102
Mof_C 	C 	0.1202	0.2556	0.8739	-0.132
Mof_H 	H 	0.1229	0.313	0.8879	0.091
Mof_C 	C 	0.0949	0.1912	0.8854	0.076
Mof_C 	C 	0.1416	0.237	0.8419	0.09
Mof_H 	H 	0.159	0.2829	0.8342	-0.019
Mof_C 	C 	0.0949	0.1072	0.8663	-0.127
Mof_H 	H 	0.0794	0.0586	0.8751	0.086
Mof_C 	C 	0.1173	0.0934	0.8344	0.082
Mof_H 	H 	0.1168	0.0351	0.8213	-0.018
Mof_N 	N 	0.13954	0.1592	0.8213	-0.28
Mof_I 	I 	0.73549	0.27285	0.2929	-0.376
Mof_I 	I 	0.90061	0.23758	0.39412	-0.377
Mof_I 	I 	0.84694	0.13259	0.50467	-0.372
Mof_I 	I 	0.62489	0.33962	0.20124	-0.4
Mof_I 	I 	0.64003	0.23275	0.06072	-0.378
Mof_I 	I 	0.52932	0.17636	0.12252	-0.35
Mof_Zn	Zn	0.67068	0.36257	0.27159	1.164
Mof_Zn	Zn	0.87325	0.10982	0.43586	1.165
Mof_Zn	Zn	0.59278	0.13068	0.09419	1.164
Mof_N 	N 	0.68139	0.5015	0.27826	-0.273
Mof_N 	N 	0.57829	0.0217	0.05308	-0.268
Mof_N 	N 	0.8295	0.045	0.39349	-0.271
Mof_N 	N 	0.52417	0.7343	0.97858	-0.147
Mof_N 	N 	0.73106	0.823	0.31312	-0.139
Mof_C 	C 	0.7173	0.629	0.3116	-0.121
Mof_H 	H 	0.7379	0.6518	0.3329	0.08
Mof_N 	N 	0.57639	0.7833	0.94177	-0.133
Mof_N 	N 	0.62706	0.0645	0.1442	-0.271
Mof_N 	N 	0.67868	0.8348	0.25431	-0.135
Mof_C 	C 	0.5335	0.9032	0.0239	-0.108
Mof_H 	H 	0.5082	0.8739	0.0222	0.072
Mof_C 	C 	0.8176	0.9601	0.4013	0.07
Mof_H 	H 	0.8297	0.9308	0.4267	-0.001
Mof_C 	C 	0.6584	0.5589	0.2527	0.066
Mof_H 	H 	0.6374	0.5346	0.2324	-0.012
Mof_C 	C 	0.7702	0.9567	0.3375	0.049
Mof_C 	C 	0.6766	0.0632	0.206	-0.127
Mof_H 	H 	0.6968	0.0949	0.2245	0.079
Mof_C 	C 	0.6939	0.688	0.2847	0.059
Mof_C 	C 	0.73842	0.9121	0.3076	0.088
Mof_C 	C 	0.6564	0.1058	0.1708	0.07
Mof_H 	H 	0.6635	0.1667	0.1649	-0.01
Mof_C 	C 	0.6639	0.652	0.2545	-0.118
Mof_H 	H 	0.6473	0.691	0.2354	0.085
Mof_C 	C 	0.70157	0.7883	0.285	0.105
Mof_C 	C 	0.6895	0.922	0.2509	0.101
Mof_C 	C 	0.56165	0.8713	0.0004	0.046
Mof_C 	C 	0.7826	0.0439	0.3294	-0.124
Mof_H 	H 	0.7706	0.0752	0.3045	0.092
Mof_C 	C 	0.6673	0.9735	0.2143	0.058
Mof_C 	C 	0.5427	0.9787	0.0499	0.06
Mof_H 	H 	0.5232	0.0006	0.0659	-0.004
Mof_C 	C 	0.5697	0.7075	0.9186	0.107
Mof_C 	C 	0.8124	0.0855	0.3578	0.071
Mof_H 	H 	0.8211	0.145	0.3515	-0.005
Mof_C 	C 	0.55354	0.7919	0.972	0.093
Mof_C 	C 	0.48154	0.6085	0.94917	0.033
Mof_C 	C 	0.46282	0.5942	0.98437	-0.101
Mof_H 	H 	0.4723	0.6248	0.0102	0.07
Mof_C 	C 	0.43027	0.5349	0.98171	0.046
Mof_H 	H 	0.4175	0.5251	0.0058	0.006
Mof_N 	N 	0.41645	0.4901	0.94387	-0.26
Mof_C 	C 	0.4352	0.5044	0.90867	0.036
Mof_H 	H 	0.4257	0.4738	0.8828	-0.001
Mof_C 	C 	0.4677	0.5636	0.91132	-0.095
Mof_H 	H 	0.4805	0.5735	0.8873	0.081
Mof_C 	C 	0.6056	0.991	0.0303	0.064
Mof_H 	H 	0.6308	0.0211	0.0327	-0.011
Mof_C 	C 	0.5982	0.9168	0.0034	-0.115
Mof_H 	H 	0.6179	0.8971	0.9872	0.081
Mof_C 	C 	0.7888	0.9135	0.3743	-0.116
Mof_H 	H 	0.7817	0.8528	0.3806	0.087
Mof_C 	C 	0.637	0.9305	0.1871	-0.118
Mof_H 	H 	0.6297	0.8691	0.1919	0.091
Mof_N 	N 	0.71936	0.9639	0.27611	-0.141
Mof_C 	C 	0.6176	0.9788	0.1529	0.07
Mof_H 	H 	0.5963	0.9497	0.1346	-0.004
Mof_C 	C 	0.7105	0.5362	0.3073	0.071
Mof_H 	H 	0.7271	0.4956	0.3256	-0.011
Mof_N 	N 	0.54166	0.6457	0.9224	-0.137
Mof_C 	C 	0.5188	0.6643	0.9515	0.102
Mof_C 	C 	0.6202	0.7556	0.8739	-0.132
Mof_H 	H 	0.6229	0.813	0.8879	0.091
Mof_C 	C 	0.5949	0.6912	0.8854	0.076
Mof_C 	C 	0.6416	0.737	0.8419	0.09
Mof_H 	H 	0.659	0.7829	0.8342	-0.019
Mof_C 	C 	0.5949	0.6072	0.8663	-0.127
Mof_H 	H 	0.5794	0.5586	0.8751	0.086
Mof_C 	C 	0.6173	0.5934	0.8344	0.082
Mof_H 	H 	0.6168	0.5351	0.8213	-0.018
Mof_N 	N 	0.63954	0.6592	0.8213	-0.28
_end
