# CIF file generated by openbabel 3.1.0, see https://openbabel.org
data_I
_chemical_name_common 'image0'
_cell_length_a 34.2658
_cell_length_b 34.2658
_cell_length_c 21.8681
_cell_angle_alpha 90
_cell_angle_beta 90
_cell_angle_gamma 120
_space_group_name_H-M_alt 'P 1'
_space_group_name_Hall 'P 1'
loop_
    _symmetry_equiv_pos_as_xyz
    x,y,z
loop_
    _atom_site_label
    _atom_site_type_symbol
    _atom_site_fract_x
    _atom_site_fract_y
    _atom_site_fract_z
    _atom_site_occupancy
    La1      La       0.04516    0.96919    0.66368    1.000
    La2      La       0.40953    0.69778    0.37481    1.000
    La3      La       0.36418    0.62098    0.54099    1.000
    O1       O        0.13010    0.03850    0.69280    1.000
    O2       O        0.10080    0.98520    0.47360    1.000
    O3       O        0.97500    0.99330    0.78620    1.000
    O4       O        0.05740    0.96350    0.55180    1.000
    O5       O        0.10370    0.04950    0.60600    1.000
    O6       O        0.03570    0.02440    0.72630    1.000
    O7       O        0.28480    0.56990    0.59480    1.000
    O8       O        0.64740    0.30250    0.48440    1.000
    O9       O        0.34310    0.69130    0.42580    1.000
    O10      O        0.77990    0.34560    0.56660    1.000
    O11      O        0.71230    0.29800    0.66050    1.000
    O12      O        0.31190    0.63470    0.48430    1.000
    O13      O        0.67650    0.35820    0.42490    1.000
    O14      O        0.39200    0.56960    0.55910    1.000
    O15      O        0.38160    0.61720    0.42670    1.000
    O16      O        0.30170    0.54080    0.51540    1.000
    O17      O        0.67630    0.23130    0.73020    1.000
    O18      O        0.42800    0.63550    0.35270    1.000
    O19      O        0.74760    0.37710    0.49270    1.000
    N1       N        0.41440    0.51710    0.59380    1.000
    C1       C        0.07040    0.90930    0.49230    1.000
    C2       C        0.82510    0.42170    0.53970    1.000
    C3       C        0.86760    0.31980    0.64180    1.000
    C4       C        0.75460    0.26190    0.70680    1.000
    C5       C        0.17070    0.10420    0.64320    1.000
    C6       C        0.90700    0.31910    0.64650    1.000
    C7       C        0.13310    0.06240    0.65090    1.000
    C8       C        0.16380    0.62680    0.54900    1.000
    C9       C        0.99590    0.01780    0.75190    1.000
    C10      C        0.41860    0.55560    0.56080    1.000
    C11      C        0.37200    0.49460    0.62760    1.000
    C12      C        0.42800    0.48530    0.61470    1.000
    C13      C        0.45960    0.33140    0.51780    1.000
    C14      C        0.17270    0.13830    0.61270    1.000
    C15      C        0.29260    0.22310    0.60320    1.000
    C16      C        0.03540    0.28700    0.66350    1.000
    C17      C        0.06880    0.78740    0.48200    1.000
    C18      C        0.04350    0.87460    0.52510    1.000
    C19      C        0.06890    0.82760    0.48020    1.000
    C20      C        0.25470    0.18480    0.62110    1.000
    C21      C        0.25200    0.24960    0.53850    1.000
    C22      C        0.00030    0.20540    0.68360    1.000
    C23      C        0.41630    0.36790    0.49890    1.000
    C24      C        0.01350    0.09000    0.70010    1.000
    C25      C        0.41720    0.33280    0.51940    1.000
    C26      C        0.95950    0.25020    0.68930    1.000
    C27      C        0.21120    0.21000    0.55620    1.000
    C28      C        0.04030    0.62570    0.52080    1.000
    C29      C        0.08390    0.70600    0.51050    1.000
    C30      C        0.99820    0.25080    0.67920    1.000
    C31      C        0.19930    0.65250    0.50600    1.000
    C32      C        0.09680    0.90530    0.45020    1.000
    C33      C        0.19820    0.68490    0.46890    1.000
    C34      C        0.37690    0.29400    0.54140    1.000
    C35      C        0.03950    0.75130    0.52470    1.000
    C36      C        0.33540    0.29410    0.53990    1.000
    C37      C        0.83830    0.26380    0.71820    1.000
    C38      C        0.07450    0.95530    0.50280    1.000
    C39      C        0.99450    0.32770    0.66780    1.000
    C40      C        0.12500    0.66620    0.51620    1.000
    C41      C        0.29520    0.25840    0.55980    1.000
    C42      C        0.23490    0.64410    0.50130    1.000
    C43      C        0.48610    0.34920    0.47390    1.000
    C44      C        0.00970    0.12830    0.69380    1.000
    C45      C        0.14520    0.41320    0.57970    1.000
    C46      C        0.04040    0.70710    0.51910    1.000
    C47      C        0.21120    0.11480    0.66790    1.000
    C48      C        0.02690    0.15840    0.63740    1.000
    C49      C        0.08180    0.66540    0.51150    1.000
    C50      C        0.09410    0.86430    0.44230    1.000
    C51      C        0.87810    0.26070    0.72220    1.000
    C52      C        0.40160    0.48100    0.42110    1.000
    C53      C        0.95620    0.28910    0.68390    1.000
    C54      C        0.00960    0.75350    0.56160    1.000
    C55      C        0.07740    0.37180    0.63520    1.000
    C56      C        0.40450    0.44060    0.43620    1.000
    C57      C        0.85780    0.42630    0.58140    1.000
    C58      C        0.90380    0.50430    0.55320    1.000
    C59      C        0.94770    0.54590    0.55430    1.000
    C60      C        0.26930    0.66800    0.45950    1.000
    C61      C        0.57420    0.31700    0.50440    1.000
    C62      C        0.19620    0.49490    0.59450    1.000
    C63      C        0.03410    0.32700    0.65730    1.000
    C64      C        0.26810    0.70030    0.42230    1.000
    C65      C        0.98460    0.13710    0.73590    1.000
    C66      C        0.25130    0.15080    0.66190    1.000
    C67      C        0.00150    0.66870    0.52760    1.000
    C68      C        0.01190    0.79250    0.56220    1.000
    C69      C        0.34060    0.41860    0.49830    1.000
    C70      C        0.53620    0.32160    0.50910    1.000
    C71      C        0.99240    0.06050    0.74840    1.000
    C72      C        0.37330    0.36960    0.49590    1.000
    C73      C        0.33740    0.45510    0.48130    1.000
    C74      C        0.08240    0.41160    0.66120    1.000
    C75      C        0.10700    0.37240    0.59830    1.000
    C76      C        0.00050    0.62540    0.52860    1.000
    C77      C        0.36680    0.52870    0.43010    1.000
    C78      C        0.96730    0.06930    0.79050    1.000
    C79      C        0.21150    0.17810    0.59820    1.000
    C80      C        0.22680    0.49560    0.55860    1.000
    C81      C        0.02160    0.19550    0.64210    1.000
    C82      C        0.39900    0.56150    0.39180    1.000
    C83      C        0.79030    0.29410    0.67180    1.000
    C84      C        0.97780    0.17390    0.73530    1.000
    C85      C        0.50680    0.30280    0.55650    1.000
    C86      C        0.27360    0.53790    0.55450    1.000
    C87      C        0.60330    0.33520    0.45880    1.000
    C88      C        0.87110    0.49980    0.51150    1.000
    C89      C        0.37300    0.41170    0.47370    1.000
    C90      C        0.83180    0.45850    0.50480    1.000
    C91      C        0.36830    0.48650    0.44540    1.000
    C92      C        0.18000    0.41310    0.54450    1.000
    C93      C        0.83230    0.29490    0.67510    1.000
    C94      C        0.53050    0.34900    0.46450    1.000
    C95      C        0.95420    0.58140    0.52320    1.000
    C96      C        0.15570    0.68810    0.47570    1.000
    C97      C        0.11990    0.45050    0.64740    1.000
    C98      C        0.33640    0.33120    0.51780    1.000
    C99      C        0.91340    0.28880    0.68740    1.000
    C100     C        0.03960    0.83060    0.52540    1.000
    C101     C        0.43380    0.51180    0.38220    1.000
    C102     C        0.88460    0.53710    0.48050    1.000
    C103     C        0.76190    0.23690    0.74790    1.000
    C104     C        0.89710    0.46760    0.58810    1.000
    C105     C        0.46760    0.30550    0.56480    1.000
    C106     C        0.96340    0.10760    0.78420    1.000
    C107     C        0.56230    0.36640    0.41690    1.000
    C108     C        0.78190    0.37760    0.53260    1.000
    C109     C        0.92150    0.57570    0.48400    1.000
    C110     C        0.12860    0.63120    0.55670    1.000
    C111     C        0.43390    0.55590    0.36690    1.000
    C112     C        0.23260    0.70880    0.42700    1.000
    C113     C        0.15140    0.45250    0.60900    1.000
    C114     C        0.80130    0.23750    0.75450    1.000
    C115     C        0.59870    0.35970    0.41050    1.000
    C116     C        0.22100    0.45330    0.53410    1.000
    C117     C        0.71070    0.25910    0.69740    1.000
    C118     C        0.40230    0.60560    0.38770    1.000
    C119     C        0.64400    0.32750    0.45420    1.000
    C120     C        0.30970    0.66150    0.45750    1.000
    H1       H        0.86593    0.33937    0.61256    1.000
    H2       H        0.93170    0.33955    0.62201    1.000
    H3       H        0.16621    0.60521    0.57340    1.000
    H4       H        0.44543    0.57217    0.53757    1.000
    H5       H        0.36933    0.46797    0.64838    1.000
    H6       H        0.34676    0.48525    0.59924    1.000
    H7       H        0.37153    0.51533    0.65803    1.000
    H8       H        0.40313    0.46062    0.63703    1.000
    H9       H        0.45426    0.50075    0.64168    1.000
    H10      H        0.43595    0.47302    0.57930    1.000
    H11      H        0.14499    0.13522    0.59927    1.000
    H12      H        0.32033    0.22811    0.61991    1.000
    H13      H        0.06242    0.28631    0.65647    1.000
    H14      H        0.08790    0.78285    0.45516    1.000
    H15      H        0.02397    0.87851    0.55202    1.000
    H16      H        0.25041    0.27062    0.51182    1.000
    H17      H        0.44362    0.39318    0.48540    1.000
    H18      H        0.03067    0.08405    0.67138    1.000
    H19      H        0.93358    0.22266    0.70054    1.000
    H20      H        0.18330    0.20475    0.53972    1.000
    H21      H        0.03992    0.59776    0.52176    1.000
    H22      H        0.11179    0.73297    0.50463    1.000
    H23      H        0.11702    0.93055    0.42623    1.000
    H24      H        0.37803    0.26860    0.55667    1.000
    H25      H        0.99415    0.35510    0.66379    1.000
    H26      H        0.23569    0.62201    0.52666    1.000
    H27      H        0.47815    0.36397    0.44389    1.000
    H28      H        0.21052    0.09226    0.69396    1.000
    H29      H        0.03982    0.15220    0.60295    1.000
    H30      H        0.11029    0.86088    0.40939    1.000
    H31      H        0.87964    0.23960    0.74872    1.000
    H32      H        0.98852    0.72869    0.58542    1.000
    H33      H        0.42738    0.43571    0.42005    1.000
    H34      H        0.85329    0.40122    0.60525    1.000
    H35      H        0.97165    0.54719    0.57783    1.000
    H36      H        0.57938    0.30037    0.53480    1.000
    H37      H        0.20208    0.52246    0.61286    1.000
    H38      H        0.29165    0.71666    0.39372    1.000
    H39      H        0.27675    0.15405    0.68377    1.000
    H40      H        0.97442    0.66941    0.53300    1.000
    H41      H        0.99276    0.79588    0.59044    1.000
    H42      H        0.32012    0.39790    0.52741    1.000
    H43      H        0.31280    0.45803    0.49531    1.000
    H44      H        0.06001    0.41106    0.68751    1.000
    H45      H        0.10313    0.34463    0.58322    1.000
    H46      H        0.34358    0.53301    0.44679    1.000
    H47      H        0.95281    0.04915    0.82352    1.000
    H48      H        0.03534    0.21715    0.61044    1.000
    H49      H        0.78681    0.31468    0.64668    1.000
    H50      H        0.96041    0.17843    0.76531    1.000
    H51      H        0.51326    0.28664    0.58614    1.000
    H52      H        0.80944    0.45533    0.47634    1.000
    H53      H        0.17564    0.38562    0.52774    1.000
    H54      H        0.15150    0.70744    0.44867    1.000
    H55      H        0.12425    0.47760    0.66552    1.000
    H56      H        0.30853    0.33087    0.51720    1.000
    H57      H        0.45575    0.50601    0.36483    1.000
    H58      H        0.86392    0.53566    0.45038    1.000
    H59      H        0.73770    0.21754    0.77388    1.000
    H60      H        0.91946    0.47074    0.61657    1.000
    H61      H        0.44770    0.29170    0.59833    1.000
    H62      H        0.94628    0.11360    0.81296    1.000
    H63      H        0.55854    0.38415    0.38664    1.000
    H64      H        0.92539    0.60005    0.45896    1.000
    H65      H        0.10602    0.61360    0.58600    1.000
    H66      H        0.45664    0.57832    0.34168    1.000
    H67      H        0.23177    0.73086    0.40165    1.000
    H68      H        0.80368    0.21916    0.78524    1.000
    H69      H        0.61870    0.37053    0.37657    1.000
    H70      H        0.24450    0.45301    0.51153    1.000
    N2       N        0.46690    0.57510    0.52960    1.000
    C121     C        0.42960    0.58390    0.53690    1.000
    C122     C        0.50120    0.61220    0.49370    1.000
    C123     C        0.49380    0.55300    0.53430    1.000
    H71      H        0.43757    0.61131    0.51649    1.000
    H72      H        0.52668    0.60723    0.48688    1.000
    H73      H        0.51159    0.64055    0.51579    1.000
    H74      H        0.48844    0.61361    0.45423    1.000
    H75      H        0.52232    0.57086    0.51236    1.000
    H76      H        0.47720    0.52285    0.51636    1.000
    H77      H        0.50009    0.55061    0.57749    1.000
    La4      La       0.03081    0.07597    0.33035    1.000
    La5      La       0.30222    0.71175    0.04148    1.000
    La6      La       0.37902    0.74320    0.20766    1.000
    O20      O        0.96150    0.09160    0.35947    1.000
    O21      O        0.01480    0.11560    0.14027    1.000
    O22      O        0.00670    0.98170    0.45287    1.000
    O23      O        0.03650    0.09390    0.21847    1.000
    O24      O        0.95050    0.05420    0.27267    1.000
    O25      O        0.97560    0.01130    0.39297    1.000
    O26      O        0.43010    0.71490    0.26147    1.000
    O27      O        0.69750    0.34490    0.15107    1.000
    O28      O        0.30870    0.65180    0.09247    1.000
    O29      O        0.65440    0.43430    0.23327    1.000
    O30      O        0.70200    0.41430    0.32717    1.000
    O31      O        0.36530    0.67720    0.15097    1.000
    O32      O        0.64180    0.31830    0.09157    1.000
    O33      O        0.43040    0.82240    0.22577    1.000
    O34      O        0.38280    0.76440    0.09337    1.000
    O35      O        0.45920    0.76090    0.18207    1.000
    O36      O        0.76870    0.44500    0.39687    1.000
    O37      O        0.36450    0.79250    0.01937    1.000
    O38      O        0.62290    0.37050    0.15937    1.000
    N3       N        0.48290    0.89730    0.26047    1.000
    C124     C        0.09070    0.16110    0.15897    1.000
    C125     C        0.57830    0.40340    0.20637    1.000
    C126     C        0.68020    0.54780    0.30847    1.000
    C127     C        0.73810    0.49270    0.37347    1.000
    C128     C        0.89580    0.06650    0.30987    1.000
    C129     C        0.68090    0.58790    0.31317    1.000
    C130     C        0.93760    0.07070    0.31757    1.000
    C131     C        0.37320    0.53700    0.21567    1.000
    C132     C        0.98220    0.97810    0.41857    1.000
    C133     C        0.44440    0.86300    0.22747    1.000
    C134     C        0.50540    0.87740    0.29427    1.000
    C135     C        0.51470    0.94270    0.28137    1.000
    C136     C        0.66860    0.12820    0.18447    1.000
    C137     C        0.86170    0.03440    0.27937    1.000
    C138     C        0.77690    0.06950    0.26987    1.000
    C139     C        0.71300    0.74840    0.33017    1.000
    C140     C        0.21260    0.28140    0.14867    1.000
    C141     C        0.12540    0.16890    0.19177    1.000
    C142     C        0.17240    0.24130    0.14687    1.000
    C143     C        0.81520    0.06990    0.28777    1.000
    C144     C        0.75040    0.00240    0.20517    1.000
    C145     C        0.79460    0.79490    0.35027    1.000
    C146     C        0.63210    0.04840    0.16557    1.000
    C147     C        0.91000    0.92350    0.36677    1.000
    C148     C        0.66720    0.08440    0.18607    1.000
    C149     C        0.74980    0.70930    0.35597    1.000
    C150     C        0.79000    0.00120    0.22287    1.000
    C151     C        0.37430    0.41460    0.18747    1.000
    C152     C        0.29400    0.37790    0.17717    1.000
    C153     C        0.74920    0.74740    0.34587    1.000
    C154     C        0.34750    0.54680    0.17267    1.000
    C155     C        0.09470    0.19150    0.11687    1.000
    C156     C        0.31510    0.51330    0.13557    1.000
    C157     C        0.70600    0.08290    0.20807    1.000
    C158     C        0.24870    0.28820    0.19137    1.000
    C159     C        0.70590    0.04130    0.20657    1.000
    C160     C        0.73620    0.57450    0.38487    1.000
    C161     C        0.04470    0.11920    0.16947    1.000
    C162     C        0.67230    0.66680    0.33447    1.000
    C163     C        0.33380    0.45880    0.18287    1.000
    C164     C        0.74160    0.03680    0.22647    1.000
    C165     C        0.35590    0.59080    0.16797    1.000
    C166     C        0.65080    0.13690    0.14057    1.000
    C167     C        0.87170    0.88140    0.36047    1.000
    C168     C        0.58680    0.73200    0.24637    1.000
    C169     C        0.29290    0.33330    0.18577    1.000
    C170     C        0.88520    0.09640    0.33457    1.000
    C171     C        0.84160    0.86850    0.30407    1.000
    C172     C        0.33460    0.41640    0.17817    1.000
    C173     C        0.13570    0.22980    0.10897    1.000
    C174     C        0.73930    0.61740    0.38887    1.000
    C175     C        0.51900    0.92060    0.08777    1.000
    C176     C        0.71090    0.66710    0.35057    1.000
    C177     C        0.24650    0.25610    0.22827    1.000
    C178     C        0.62820    0.70560    0.30187    1.000
    C179     C        0.55940    0.96390    0.10287    1.000
    C180     C        0.57370    0.43150    0.24807    1.000
    C181     C        0.49570    0.39950    0.21987    1.000
    C182     C        0.45410    0.40180    0.22097    1.000
    C183     C        0.33200    0.60130    0.12617    1.000
    C184     C        0.68300    0.25720    0.17107    1.000
    C185     C        0.50510    0.70130    0.26117    1.000
    C186     C        0.67300    0.70710    0.32397    1.000
    C187     C        0.29970    0.56780    0.08897    1.000
    C188     C        0.86290    0.84750    0.40257    1.000
    C189     C        0.84920    0.10050    0.32857    1.000
    C190     C        0.33130    0.33280    0.19427    1.000
    C191     C        0.20750    0.21940    0.22887    1.000
    C192     C        0.58140    0.92200    0.16497    1.000
    C193     C        0.67840    0.21460    0.17577    1.000
    C194     C        0.93950    0.93190    0.41507    1.000
    C195     C        0.63040    0.00370    0.16257    1.000
    C196     C        0.54490    0.88230    0.14797    1.000
    C197     C        0.58840    0.67080    0.32787    1.000
    C198     C        0.62760    0.73460    0.26497    1.000
    C199     C        0.37460    0.37510    0.19527    1.000
    C200     C        0.47130    0.83810    0.09677    1.000
    C201     C        0.93070    0.89800    0.45717    1.000
    C202     C        0.82190    0.03340    0.26487    1.000
    C203     C        0.50440    0.73120    0.22527    1.000
    C204     C        0.80450    0.82610    0.30877    1.000
    C205     C        0.43850    0.83750    0.05847    1.000
    C206     C        0.70590    0.49620    0.33847    1.000
    C207     C        0.82610    0.80390    0.40197    1.000
    C208     C        0.69720    0.20400    0.22317    1.000
    C209     C        0.46210    0.73570    0.22117    1.000
    C210     C        0.66480    0.26810    0.12547    1.000
    C211     C        0.50020    0.37130    0.17817    1.000
    C212     C        0.58830    0.96130    0.14037    1.000
    C213     C        0.54150    0.37330    0.17147    1.000
    C214     C        0.51350    0.88180    0.11207    1.000
    C215     C        0.58690    0.76690    0.21117    1.000
    C216     C        0.70510    0.53740    0.34177    1.000
    C217     C        0.65100    0.18150    0.13117    1.000
    C218     C        0.41860    0.37280    0.18987    1.000
    C219     C        0.31190    0.46760    0.14237    1.000
    C220     C        0.54950    0.66940    0.31407    1.000
    C221     C        0.66880    0.00520    0.18447    1.000
    C222     C        0.71120    0.62460    0.35407    1.000
    C223     C        0.16940    0.20900    0.19207    1.000
    C224     C        0.48820    0.92200    0.04887    1.000
    C225     C        0.46290    0.34750    0.14717    1.000
    C226     C        0.76310    0.52500    0.41457    1.000
    C227     C        0.53240    0.42950    0.25477    1.000
    C228     C        0.69450    0.16210    0.23147    1.000
    C229     C        0.89240    0.85580    0.45087    1.000
    C230     C        0.63360    0.19590    0.08357    1.000
    C231     C        0.62240    0.40430    0.19927    1.000
    C232     C        0.42430    0.34580    0.15067    1.000
    C233     C        0.36880    0.49740    0.22337    1.000
    C234     C        0.44410    0.87800    0.03357    1.000
    C235     C        0.29120    0.52380    0.09367    1.000
    C236     C        0.54750    0.69890    0.27567    1.000
    C237     C        0.76250    0.56380    0.42117    1.000
    C238     C        0.64030    0.23900    0.07717    1.000
    C239     C        0.54670    0.76770    0.20077    1.000
    C240     C        0.74090    0.45160    0.36407    1.000
    C241     C        0.39440    0.79670    0.05437    1.000
    C242     C        0.67250    0.31650    0.12087    1.000
    C243     C        0.33850    0.64820    0.12417    1.000
    H78      H        0.66063    0.52656    0.27923    1.000
    H79      H        0.66045    0.59215    0.28868    1.000
    H80      H        0.39479    0.56100    0.24007    1.000
    H81      H        0.42783    0.87326    0.20424    1.000
    H82      H        0.53203    0.90136    0.31505    1.000
    H83      H        0.51475    0.86151    0.26591    1.000
    H84      H        0.48467    0.85620    0.32470    1.000
    H85      H        0.53938    0.94251    0.30370    1.000
    H86      H        0.49925    0.95351    0.30835    1.000
    H87      H        0.52698    0.96293    0.24597    1.000
    H88      H        0.86478    0.00977    0.26594    1.000
    H89      H        0.77189    0.09222    0.28658    1.000
    H90      H        0.71369    0.77611    0.32314    1.000
    H91      H        0.21715    0.30505    0.12183    1.000
    H92      H        0.12149    0.14546    0.21869    1.000
    H93      H        0.72938    0.97979    0.17849    1.000
    H94      H        0.60682    0.05044    0.15207    1.000
    H95      H        0.91595    0.94662    0.33805    1.000
    H96      H        0.77734    0.71092    0.36721    1.000
    H97      H        0.79525    0.97855    0.20639    1.000
    H98      H        0.40224    0.44216    0.18843    1.000
    H99      H        0.26703    0.37882    0.17130    1.000
    H100     H        0.06945    0.18647    0.09290    1.000
    H101     H        0.73140    0.10943    0.22334    1.000
    H102     H        0.64490    0.63905    0.33046    1.000
    H103     H        0.37799    0.61368    0.19333    1.000
    H104     H        0.63603    0.11418    0.11056    1.000
    H105     H        0.90774    0.11826    0.36063    1.000
    H106     H        0.84780    0.88762    0.26962    1.000
    H107     H        0.13912    0.24941    0.07606    1.000
    H108     H        0.76040    0.64004    0.41539    1.000
    H109     H        0.27131    0.25983    0.25209    1.000
    H110     H        0.56429    0.99167    0.08672    1.000
    H111     H        0.59878    0.45207    0.27192    1.000
    H112     H        0.45281    0.42446    0.24450    1.000
    H113     H        0.69963    0.27901    0.20147    1.000
    H114     H        0.47754    0.67962    0.27953    1.000
    H115     H        0.28334    0.57499    0.06039    1.000
    H116     H        0.84595    0.12270    0.35044    1.000
    H117     H        0.33059    0.30501    0.19967    1.000
    H118     H        0.20412    0.19688    0.25711    1.000
    H119     H        0.60210    0.92222    0.19408    1.000
    H120     H        0.54197    0.85477    0.16198    1.000
    H121     H        0.58894    0.64895    0.35418    1.000
    H122     H        0.65537    0.75850    0.24989    1.000
    H123     H        0.46699    0.81057    0.11346    1.000
    H124     H        0.95085    0.90366    0.49019    1.000
    H125     H        0.78285    0.81819    0.27711    1.000
    H126     H        0.68532    0.47213    0.31335    1.000
    H127     H        0.82157    0.78198    0.43198    1.000
    H128     H        0.71336    0.22662    0.25281    1.000
    H129     H        0.54467    0.35411    0.14301    1.000
    H130     H        0.61438    0.79002    0.19441    1.000
    H131     H        0.29256    0.44406    0.11534    1.000
    H132     H        0.52240    0.64665    0.33219    1.000
    H133     H        0.66913    0.97766    0.18387    1.000
    H134     H        0.49399    0.94974    0.03150    1.000
    H135     H        0.46434    0.32826    0.11705    1.000
    H136     H        0.78246    0.52016    0.44055    1.000
    H137     H        0.52926    0.44872    0.28324    1.000
    H138     H        0.70830    0.15600    0.26500    1.000
    H139     H        0.88640    0.83268    0.47963    1.000
    H140     H        0.61585    0.17439    0.05331    1.000
    H141     H        0.39995    0.32534    0.12563    1.000
    H142     H        0.38640    0.49242    0.25267    1.000
    H143     H        0.42168    0.87832    0.00835    1.000
    H144     H        0.26914    0.50091    0.06832    1.000
    H145     H        0.78084    0.58452    0.45191    1.000
    H146     H        0.62947    0.24817    0.04324    1.000
    H147     H        0.54699    0.79149    0.17820    1.000
    N4       N        0.42490    0.89180    0.19627    1.000
    C244     C        0.41610    0.84570    0.20357    1.000
    C245     C        0.38780    0.88900    0.16037    1.000
    C246     C        0.44700    0.94080    0.20097    1.000
    H148     H        0.38869    0.82626    0.18316    1.000
    H149     H        0.39277    0.91945    0.15355    1.000
    H150     H        0.35945    0.87104    0.18246    1.000
    H151     H        0.38639    0.87483    0.12090    1.000
    H152     H        0.42914    0.95146    0.17903    1.000
    H153     H        0.47715    0.95435    0.18303    1.000
    H154     H        0.44939    0.94948    0.24416    1.000
    La7      La       0.92403    0.95484    0.99701    1.000
    La8      La       0.28825    0.59047    0.70814    1.000
    La9      La       0.25680    0.63582    0.87432    1.000
    O39      O        0.90840    0.86990    0.02613    1.000
    O40      O        0.88440    0.89920    0.80693    1.000
    O41      O        0.01830    0.02500    0.11953    1.000
    O42      O        0.90610    0.94260    0.88513    1.000
    O43      O        0.94580    0.89630    0.93933    1.000
    O44      O        0.98870    0.96430    0.05963    1.000
    O45      O        0.28510    0.71520    0.92813    1.000
    O46      O        0.65510    0.35260    0.81773    1.000
    O47      O        0.34820    0.65690    0.75913    1.000
    O48      O        0.56570    0.22010    0.89993    1.000
    O49      O        0.58570    0.28770    0.99383    1.000
    O50      O        0.32280    0.68810    0.81763    1.000
    O51      O        0.68170    0.32350    0.75823    1.000
    O52      O        0.17760    0.60800    0.89243    1.000
    O53      O        0.23560    0.61840    0.76003    1.000
    O54      O        0.23910    0.69830    0.84873    1.000
    O55      O        0.55500    0.32370    0.06353    1.000
    O56      O        0.20750    0.57200    0.68603    1.000
    O57      O        0.62950    0.25240    0.82603    1.000
    N5       N        0.10270    0.58560    0.92713    1.000
    C247     C        0.83890    0.92960    0.82563    1.000
    C248     C        0.59660    0.17490    0.87303    1.000
    C249     C        0.45220    0.13240    0.97513    1.000
    C250     C        0.50730    0.24540    0.04013    1.000
    C251     C        0.93350    0.82930    0.97653    1.000
    C252     C        0.41210    0.09300    0.97983    1.000
    C253     C        0.92930    0.86690    0.98423    1.000
    C254     C        0.46300    0.83620    0.88233    1.000
    C255     C        0.02190    0.00410    0.08523    1.000
    C256     C        0.13700    0.58140    0.89413    1.000
    C257     C        0.12260    0.62800    0.96093    1.000
    C258     C        0.05730    0.57200    0.94803    1.000
    C259     C        0.87180    0.54040    0.85113    1.000
    C260     C        0.96560    0.82730    0.94603    1.000
    C261     C        0.93050    0.70740    0.93653    1.000
    C262     C        0.25160    0.96460    0.99683    1.000
    C263     C        0.71860    0.93120    0.81533    1.000
    C264     C        0.83110    0.95650    0.85843    1.000
    C265     C        0.75870    0.93110    0.81353    1.000
    C266     C        0.93010    0.74530    0.95443    1.000
    C267     C        0.99760    0.74800    0.87183    1.000
    C268     C        0.20510    0.99970    0.01693    1.000
    C269     C        0.95160    0.58370    0.83223    1.000
    C270     C        0.07650    0.98650    0.03343    1.000
    C271     C        0.91560    0.58280    0.85273    1.000
    C272     C        0.29070    0.04050    0.02263    1.000
    C273     C        0.99880    0.78880    0.88953    1.000
    C274     C        0.58540    0.95970    0.85413    1.000
    C275     C        0.62210    0.91610    0.84383    1.000
    C276     C        0.25260    0.00180    0.01253    1.000
    C277     C        0.45320    0.80070    0.83933    1.000
    C278     C        0.80850    0.90320    0.78353    1.000
    C279     C        0.48670    0.80180    0.80223    1.000
    C280     C        0.91710    0.62310    0.87473    1.000
    C281     C        0.71180    0.96050    0.85803    1.000
    C282     C        0.95870    0.66460    0.87323    1.000
    C283     C        0.42550    0.16170    0.05153    1.000
    C284     C        0.88080    0.92550    0.83613    1.000
    C285     C        0.33320    0.00550    0.00113    1.000
    C286     C        0.54120    0.87500    0.84953    1.000
    C287     C        0.96320    0.70480    0.89313    1.000
    C288     C        0.40920    0.76510    0.83463    1.000
    C289     C        0.86310    0.51390    0.80723    1.000
    C290     C        0.11860    0.99030    0.02713    1.000
    C291     C        0.26800    0.85480    0.91303    1.000
    C292     C        0.66670    0.95960    0.85243    1.000
    C293     C        0.90360    0.78880    0.00123    1.000
    C294     C        0.13150    0.97310    0.97073    1.000
    C295     C        0.58360    0.91820    0.84483    1.000
    C296     C        0.77020    0.90590    0.77563    1.000
    C297     C        0.38260    0.12190    0.05553    1.000
    C298     C        0.07940    0.59840    0.75443    1.000
    C299     C        0.33290    0.04380    0.01723    1.000
    C300     C        0.74390    0.99040    0.89493    1.000
    C301     C        0.29440    0.92260    0.96853    1.000
    C302     C        0.03610    0.59550    0.76953    1.000
    C303     C        0.56850    0.14220    0.91473    1.000
    C304     C        0.60050    0.09620    0.88653    1.000
    C305     C        0.59820    0.05230    0.88763    1.000
    C306     C        0.39870    0.73070    0.79283    1.000
    C307     C        0.74280    0.42580    0.83773    1.000
    C308     C        0.29870    0.80380    0.92783    1.000
    C309     C        0.29290    0.96590    0.99063    1.000
    C310     C        0.43220    0.73190    0.75563    1.000
    C311     C        0.15250    0.01540    0.06923    1.000
    C312     C        0.89950    0.74870    0.99523    1.000
    C313     C        0.66720    0.99850    0.86093    1.000
    C314     C        0.78060    0.98810    0.89553    1.000
    C315     C        0.07800    0.65940    0.83163    1.000
    C316     C        0.78540    0.46380    0.84243    1.000
    C317     C        0.06810    0.00760    0.08173    1.000
    C318     C        0.99630    0.62670    0.82923    1.000
    C319     C        0.11770    0.66260    0.81463    1.000
    C320     C        0.32920    0.91760    0.99453    1.000
    C321     C        0.26540    0.89300    0.93163    1.000
    C322     C        0.62490    0.99950    0.86193    1.000
    C323     C        0.16190    0.63320    0.76343    1.000
    C324     C        0.10200    0.03270    0.12383    1.000
    C325     C        0.96660    0.78850    0.93153    1.000
    C326     C        0.26880    0.77320    0.89193    1.000
    C327     C        0.17390    0.97840    0.97543    1.000
    C328     C        0.16250    0.60100    0.72513    1.000
    C329     C        0.50380    0.20970    0.00513    1.000
    C330     C        0.19610    0.02220    0.06863    1.000
    C331     C        0.79600    0.49320    0.88983    1.000
    C332     C        0.26430    0.72640    0.88783    1.000
    C333     C        0.73190    0.39670    0.79213    1.000
    C334     C        0.62870    0.12890    0.84483    1.000
    C335     C        0.03870    0.62700    0.80703    1.000
    C336     C        0.62670    0.16820    0.83813    1.000
    C337     C        0.11820    0.63170    0.77873    1.000
    C338     C        0.23310    0.82000    0.87783    1.000
    C339     C        0.46260    0.16770    0.00843    1.000
    C340     C        0.81850    0.46950    0.79783    1.000
    C341     C        0.62720    0.04580    0.85653    1.000
    C342     C        0.53240    0.84430    0.80903    1.000
    C343     C        0.33060    0.88010    0.98073    1.000
    C344     C        0.99480    0.66360    0.85113    1.000
    C345     C        0.37540    0.08660    0.02073    1.000
    C346     C        0.79100    0.96040    0.85873    1.000
    C347     C        0.07800    0.56620    0.71553    1.000
    C348     C        0.65250    0.11540    0.81383    1.000
    C349     C        0.47500    0.23810    0.08123    1.000
    C350     C        0.57050    0.10290    0.92143    1.000
    C351     C        0.83790    0.53240    0.89813    1.000
    C352     C        0.14420    0.03660    0.11753    1.000
    C353     C        0.80410    0.43770    0.75023    1.000
    C354     C        0.59570    0.21810    0.86593    1.000
    C355     C        0.65420    0.07850    0.81733    1.000
    C356     C        0.50260    0.87140    0.89003    1.000
    C357     C        0.12200    0.56610    0.70023    1.000
    C358     C        0.47620    0.76740    0.76033    1.000
    C359     C        0.30110    0.84860    0.94233    1.000
    C360     C        0.43620    0.19870    0.08783    1.000
    C361     C        0.76100    0.40130    0.74383    1.000
    C362     C        0.23230    0.77900    0.86743    1.000
    C363     C        0.54840    0.28930    0.03073    1.000
    C364     C        0.20330    0.59770    0.72103    1.000
    C365     C        0.68350    0.35600    0.78753    1.000
    C366     C        0.35180    0.69030    0.79083    1.000
    H155     H        0.47344    0.13407    0.94589    1.000
    H156     H        0.40785    0.06830    0.95534    1.000
    H157     H        0.43900    0.83379    0.90673    1.000
    H158     H        0.12674    0.55457    0.87090    1.000
    H159     H        0.09864    0.63067    0.98171    1.000
    H160     H        0.13849    0.65324    0.93257    1.000
    H161     H        0.14380    0.62847    0.99136    1.000
    H162     H        0.05749    0.59687    0.97036    1.000
    H163     H        0.04649    0.54574    0.97501    1.000
    H164     H        0.03707    0.56405    0.91263    1.000
    H165     H        0.99023    0.85501    0.93260    1.000
    H166     H        0.90778    0.67967    0.95324    1.000
    H167     H        0.22389    0.93758    0.98980    1.000
    H168     H        0.69495    0.91210    0.78849    1.000
    H169     H        0.85454    0.97603    0.88535    1.000
    H170     H        0.02021    0.74959    0.84515    1.000
    H171     H        0.94956    0.55638    0.81873    1.000
    H172     H        0.05338    0.96933    0.00471    1.000
    H173     H        0.28908    0.06642    0.03387    1.000
    H174     H        0.02145    0.81670    0.87305    1.000
    H175     H        0.55784    0.96008    0.85509    1.000
    H176     H        0.62118    0.88821    0.83796    1.000
    H177     H        0.81353    0.88298    0.75956    1.000
    H178     H        0.89057    0.62197    0.89000    1.000
    H179     H        0.36095    0.00585    0.99712    1.000
    H180     H        0.38632    0.76431    0.85999    1.000
    H181     H        0.88582    0.52185    0.77722    1.000
    H182     H        0.88174    0.78948    0.02729    1.000
    H183     H        0.11238    0.96018    0.93628    1.000
    H184     H        0.75059    0.88971    0.74272    1.000
    H185     H        0.35996    0.12036    0.08205    1.000
    H186     H        0.74017    0.01148    0.91875    1.000
    H187     H        0.00833    0.57262    0.75338    1.000
    H188     H        0.54793    0.14671    0.93858    1.000
    H189     H        0.57554    0.02835    0.91116    1.000
    H190     H        0.72099    0.42062    0.86813    1.000
    H191     H        0.32038    0.79792    0.94619    1.000
    H192     H        0.42501    0.70835    0.72705    1.000
    H193     H        0.87730    0.72325    0.01710    1.000
    H194     H        0.69499    0.02558    0.86633    1.000
    H195     H        0.80312    0.00724    0.92377    1.000
    H196     H        0.07778    0.67988    0.86074    1.000
    H197     H        0.14523    0.68720    0.82864    1.000
    H198     H        0.35105    0.93999    0.02084    1.000
    H199     H        0.24150    0.89687    0.91655    1.000
    H200     H        0.18943    0.65642    0.78012    1.000
    H201     H        0.09634    0.04719    0.15685    1.000
    H202     H        0.18181    0.96466    0.94377    1.000
    H203     H        0.52787    0.21319    0.98001    1.000
    H204     H        0.21802    0.03959    0.09864    1.000
    H205     H        0.77338    0.48674    0.91947    1.000
    H206     H        0.64589    0.19056    0.80967    1.000
    H207     H        0.20998    0.82436    0.86107    1.000
    H208     H        0.55594    0.84850    0.78200    1.000
    H209     H        0.35335    0.87575    0.99885    1.000
    H210     H        0.02234    0.69147    0.85053    1.000
    H211     H        0.05026    0.54425    0.69816    1.000
    H212     H        0.67174    0.13608    0.78371    1.000
    H213     H        0.47984    0.26230    0.10721    1.000
    H214     H        0.55128    0.08054    0.94990    1.000
    H215     H        0.84400    0.55230    0.93166    1.000
    H216     H        0.16732    0.05372    0.14629    1.000
    H217     H        0.82561    0.44146    0.71997    1.000
    H218     H        0.67466    0.07461    0.79229    1.000
    H219     H        0.50758    0.89398    0.91933    1.000
    H220     H        0.12168    0.54336    0.67501    1.000
    H221     H        0.49909    0.76823    0.73498    1.000
    H222     H        0.41548    0.19632    0.11857    1.000
    H223     H        0.75183    0.38130    0.70990    1.000
    H224     H        0.20851    0.75550    0.84486    1.000
    N6       N        0.10820    0.53310    0.86293    1.000
    C367     C        0.15430    0.57040    0.87023    1.000
    C368     C        0.11100    0.49880    0.82703    1.000
    C369     C        0.05920    0.50620    0.86763    1.000
    H225     H        0.17374    0.56243    0.84982    1.000
    H226     H        0.08055    0.47332    0.82021    1.000
    H227     H        0.12896    0.48841    0.84912    1.000
    H228     H        0.12517    0.51156    0.78756    1.000
    H229     H        0.04854    0.47768    0.84569    1.000
    H230     H        0.04565    0.52280    0.84969    1.000
    H231     H        0.05052    0.49991    0.91082    1.000
    La10     La       0.95484    0.03081    0.16368    1.000
    La11     La       0.59047    0.30222    0.87481    1.000
    La12     La       0.63582    0.37902    0.04099    1.000
    O58      O        0.86990    0.96150    0.19280    1.000
    O59      O        0.89920    0.01480    0.97360    1.000
    O60      O        0.02500    0.00670    0.28620    1.000
    O61      O        0.94260    0.03650    0.05180    1.000
    O62      O        0.89630    0.95050    0.10600    1.000
    O63      O        0.96430    0.97560    0.22630    1.000
    O64      O        0.71520    0.43010    0.09480    1.000
    O65      O        0.35260    0.69750    0.98440    1.000
    O66      O        0.65690    0.30870    0.92580    1.000
    O67      O        0.22010    0.65440    0.06660    1.000
    O68      O        0.28770    0.70200    0.16050    1.000
    O69      O        0.68810    0.36530    0.98430    1.000
    O70      O        0.32350    0.64180    0.92490    1.000
    O71      O        0.60800    0.43040    0.05910    1.000
    O72      O        0.61840    0.38280    0.92670    1.000
    O73      O        0.69830    0.45920    0.01540    1.000
    O74      O        0.32370    0.76870    0.23020    1.000
    O75      O        0.57200    0.36450    0.85270    1.000
    O76      O        0.25240    0.62290    0.99270    1.000
    N7       N        0.58560    0.48290    0.09380    1.000
    C370     C        0.92960    0.09070    0.99230    1.000
    C371     C        0.17490    0.57830    0.03970    1.000
    C372     C        0.13240    0.68020    0.14180    1.000
    C373     C        0.24540    0.73810    0.20680    1.000
    C374     C        0.82930    0.89580    0.14320    1.000
    C375     C        0.09300    0.68090    0.14650    1.000
    C376     C        0.86690    0.93760    0.15090    1.000
    C377     C        0.83620    0.37320    0.04900    1.000
    C378     C        0.00410    0.98220    0.25190    1.000
    C379     C        0.58140    0.44440    0.06080    1.000
    C380     C        0.62800    0.50540    0.12760    1.000
    C381     C        0.57200    0.51470    0.11470    1.000
    C382     C        0.54040    0.66860    0.01780    1.000
    C383     C        0.82730    0.86170    0.11270    1.000
    C384     C        0.70740    0.77690    0.10320    1.000
    C385     C        0.96460    0.71300    0.16350    1.000
    C386     C        0.93120    0.21260    0.98200    1.000
    C387     C        0.95650    0.12540    0.02510    1.000
    C388     C        0.93110    0.17240    0.98020    1.000
    C389     C        0.74530    0.81520    0.12110    1.000
    C390     C        0.74800    0.75040    0.03850    1.000
    C391     C        0.99970    0.79460    0.18360    1.000
    C392     C        0.58370    0.63210    0.99890    1.000
    C393     C        0.98650    0.91000    0.20010    1.000
    C394     C        0.58280    0.66720    0.01940    1.000
    C395     C        0.04050    0.74980    0.18930    1.000
    C396     C        0.78880    0.79000    0.05620    1.000
    C397     C        0.95970    0.37430    0.02080    1.000
    C398     C        0.91610    0.29400    0.01050    1.000
    C399     C        0.00180    0.74920    0.17920    1.000
    C400     C        0.80070    0.34750    0.00600    1.000
    C401     C        0.90320    0.09470    0.95020    1.000
    C402     C        0.80180    0.31510    0.96890    1.000
    C403     C        0.62310    0.70600    0.04140    1.000
    C404     C        0.96050    0.24870    0.02470    1.000
    C405     C        0.66460    0.70590    0.03990    1.000
    C406     C        0.16170    0.73620    0.21820    1.000
    C407     C        0.92550    0.04470    0.00280    1.000
    C408     C        0.00550    0.67230    0.16780    1.000
    C409     C        0.87500    0.33380    0.01620    1.000
    C410     C        0.70480    0.74160    0.05980    1.000
    C411     C        0.76510    0.35590    0.00130    1.000
    C412     C        0.51390    0.65080    0.97390    1.000
    C413     C        0.99030    0.87170    0.19380    1.000
    C414     C        0.85480    0.58680    0.07970    1.000
    C415     C        0.95960    0.29290    0.01910    1.000
    C416     C        0.78880    0.88520    0.16790    1.000
    C417     C        0.97310    0.84160    0.13740    1.000
    C418     C        0.91820    0.33460    0.01150    1.000
    C419     C        0.90590    0.13570    0.94230    1.000
    C420     C        0.12190    0.73930    0.22220    1.000
    C421     C        0.59840    0.51900    0.92110    1.000
    C422     C        0.04380    0.71090    0.18390    1.000
    C423     C        0.99040    0.24650    0.06160    1.000
    C424     C        0.92260    0.62820    0.13520    1.000
    C425     C        0.59550    0.55940    0.93620    1.000
    C426     C        0.14220    0.57370    0.08140    1.000
    C427     C        0.09620    0.49570    0.05320    1.000
    C428     C        0.05230    0.45410    0.05430    1.000
    C429     C        0.73070    0.33200    0.95950    1.000
    C430     C        0.42580    0.68300    0.00440    1.000
    C431     C        0.80380    0.50510    0.09450    1.000
    C432     C        0.96590    0.67300    0.15730    1.000
    C433     C        0.73190    0.29970    0.92230    1.000
    C434     C        0.01540    0.86290    0.23590    1.000
    C435     C        0.74870    0.84920    0.16190    1.000
    C436     C        0.99850    0.33130    0.02760    1.000
    C437     C        0.98810    0.20750    0.06220    1.000
    C438     C        0.65940    0.58140    0.99830    1.000
    C439     C        0.46380    0.67840    0.00910    1.000
    C440     C        0.00760    0.93950    0.24840    1.000
    C441     C        0.62670    0.63040    0.99590    1.000
    C442     C        0.66260    0.54490    0.98130    1.000
    C443     C        0.91760    0.58840    0.16120    1.000
    C444     C        0.89300    0.62760    0.09830    1.000
    C445     C        0.99950    0.37460    0.02860    1.000
    C446     C        0.63320    0.47130    0.93010    1.000
    C447     C        0.03270    0.93070    0.29050    1.000
    C448     C        0.78850    0.82190    0.09820    1.000
    C449     C        0.77320    0.50440    0.05860    1.000
    C450     C        0.97840    0.80450    0.14210    1.000
    C451     C        0.60100    0.43850    0.89180    1.000
    C452     C        0.20970    0.70590    0.17180    1.000
    C453     C        0.02220    0.82610    0.23530    1.000
    C454     C        0.49320    0.69720    0.05650    1.000
    C455     C        0.72640    0.46210    0.05450    1.000
    C456     C        0.39670    0.66480    0.95880    1.000
    C457     C        0.12890    0.50020    0.01150    1.000
    C458     C        0.62700    0.58830    0.97370    1.000
    C459     C        0.16820    0.54150    0.00480    1.000
    C460     C        0.63170    0.51350    0.94540    1.000
    C461     C        0.82000    0.58690    0.04450    1.000
    C462     C        0.16770    0.70510    0.17510    1.000
    C463     C        0.46950    0.65100    0.96450    1.000
    C464     C        0.04580    0.41860    0.02320    1.000
    C465     C        0.84430    0.31190    0.97570    1.000
    C466     C        0.88010    0.54950    0.14740    1.000
    C467     C        0.66360    0.66880    0.01780    1.000
    C468     C        0.08660    0.71120    0.18740    1.000
    C469     C        0.96040    0.16940    0.02540    1.000
    C470     C        0.56620    0.48820    0.88220    1.000
    C471     C        0.11540    0.46290    0.98050    1.000
    C472     C        0.23810    0.76310    0.24790    1.000
    C473     C        0.10290    0.53240    0.08810    1.000
    C474     C        0.53240    0.69450    0.06480    1.000
    C475     C        0.03660    0.89240    0.28420    1.000
    C476     C        0.43770    0.63360    0.91690    1.000
    C477     C        0.21810    0.62240    0.03260    1.000
    C478     C        0.07850    0.42430    0.98400    1.000
    C479     C        0.87140    0.36880    0.05670    1.000
    C480     C        0.56610    0.44410    0.86690    1.000
    C481     C        0.76740    0.29120    0.92700    1.000
    C482     C        0.84860    0.54750    0.10900    1.000
    C483     C        0.19870    0.76250    0.25450    1.000
    C484     C        0.40130    0.64030    0.91050    1.000
    C485     C        0.77900    0.54670    0.03410    1.000
    C486     C        0.28930    0.74090    0.19740    1.000
    C487     C        0.59770    0.39440    0.88770    1.000
    C488     C        0.35600    0.67250    0.95420    1.000
    C489     C        0.69030    0.33850    0.95750    1.000
    H232     H        0.13407    0.66063    0.11256    1.000
    H233     H        0.06830    0.66045    0.12201    1.000
    H234     H        0.83379    0.39479    0.07340    1.000
    H235     H        0.55457    0.42783    0.03757    1.000
    H236     H        0.63067    0.53203    0.14838    1.000
    H237     H        0.65324    0.51475    0.09924    1.000
    H238     H        0.62847    0.48467    0.15803    1.000
    H239     H        0.59687    0.53938    0.13703    1.000
    H240     H        0.54574    0.49925    0.14168    1.000
    H241     H        0.56405    0.52698    0.07930    1.000
    H242     H        0.85501    0.86478    0.09927    1.000
    H243     H        0.67967    0.77189    0.11991    1.000
    H244     H        0.93758    0.71369    0.15647    1.000
    H245     H        0.91210    0.21715    0.95516    1.000
    H246     H        0.97603    0.12149    0.05202    1.000
    H247     H        0.74959    0.72938    0.01182    1.000
    H248     H        0.55638    0.60682    0.98540    1.000
    H249     H        0.96933    0.91595    0.17138    1.000
    H250     H        0.06642    0.77734    0.20054    1.000
    H251     H        0.81670    0.79525    0.03972    1.000
    H252     H        0.96008    0.40224    0.02176    1.000
    H253     H        0.88821    0.26703    0.00463    1.000
    H254     H        0.88298    0.06945    0.92623    1.000
    H255     H        0.62197    0.73140    0.05667    1.000
    H256     H        0.00585    0.64490    0.16379    1.000
    H257     H        0.76431    0.37799    0.02666    1.000
    H258     H        0.52185    0.63603    0.94389    1.000
    H259     H        0.78948    0.90774    0.19396    1.000
    H260     H        0.96018    0.84780    0.10295    1.000
    H261     H        0.88971    0.13912    0.90939    1.000
    H262     H        0.12036    0.76040    0.24872    1.000
    H263     H        0.01148    0.27131    0.08542    1.000
    H264     H        0.57262    0.56429    0.92005    1.000
    H265     H        0.14671    0.59878    0.10525    1.000
    H266     H        0.02835    0.45281    0.07783    1.000
    H267     H        0.42062    0.69963    0.03480    1.000
    H268     H        0.79792    0.47754    0.11286    1.000
    H269     H        0.70835    0.28334    0.89372    1.000
    H270     H        0.72325    0.84595    0.18377    1.000
    H271     H        0.02558    0.33059    0.03300    1.000
    H272     H        0.00724    0.20412    0.09044    1.000
    H273     H        0.67988    0.60210    0.02741    1.000
    H274     H        0.68720    0.54197    0.99531    1.000
    H275     H        0.93999    0.58894    0.18751    1.000
    H276     H        0.89687    0.65537    0.08322    1.000
    H277     H        0.65642    0.46699    0.94679    1.000
    H278     H        0.04719    0.95085    0.32352    1.000
    H279     H        0.96466    0.78285    0.11044    1.000
    H280     H        0.21319    0.68532    0.14668    1.000
    H281     H        0.03959    0.82157    0.26531    1.000
    H282     H        0.48674    0.71336    0.08614    1.000
    H283     H        0.19056    0.54467    0.97634    1.000
    H284     H        0.82436    0.61438    0.02774    1.000
    H285     H        0.84850    0.29256    0.94867    1.000
    H286     H        0.87575    0.52240    0.16552    1.000
    H287     H        0.69147    0.66913    0.01720    1.000
    H288     H        0.54425    0.49399    0.86483    1.000
    H289     H        0.13608    0.46434    0.95038    1.000
    H290     H        0.26230    0.78246    0.27388    1.000
    H291     H        0.08054    0.52926    0.11657    1.000
    H292     H        0.55230    0.70830    0.09833    1.000
    H293     H        0.05372    0.88640    0.31296    1.000
    H294     H        0.44146    0.61585    0.88664    1.000
    H295     H        0.07461    0.39995    0.95896    1.000
    H296     H        0.89398    0.38640    0.08600    1.000
    H297     H        0.54336    0.42168    0.84168    1.000
    H298     H        0.76823    0.26914    0.90165    1.000
    H299     H        0.19632    0.78084    0.28524    1.000
    H300     H        0.38130    0.62947    0.87657    1.000
    H301     H        0.75550    0.54699    0.01153    1.000
    N8       N        0.53310    0.42490    0.02960    1.000
    C490     C        0.57040    0.41610    0.03690    1.000
    C491     C        0.49880    0.38780    0.99370    1.000
    C492     C        0.50620    0.44700    0.03430    1.000
    H302     H        0.56243    0.38869    0.01649    1.000
    H303     H        0.47332    0.39277    0.98688    1.000
    H304     H        0.48841    0.35945    0.01579    1.000
    H305     H        0.51156    0.38639    0.95423    1.000
    H306     H        0.47768    0.42914    0.01236    1.000
    H307     H        0.52280    0.47715    0.01636    1.000
    H308     H        0.49991    0.44939    0.07749    1.000
    La13     La       0.96919    0.92403    0.83035    1.000
    La14     La       0.69778    0.28825    0.54148    1.000
    La15     La       0.62098    0.25680    0.70766    1.000
    O77      O        0.03850    0.90840    0.85947    1.000
    O78      O        0.98520    0.88440    0.64027    1.000
    O79      O        0.99330    0.01830    0.95287    1.000
    O80      O        0.96350    0.90610    0.71847    1.000
    O81      O        0.04950    0.94580    0.77267    1.000
    O82      O        0.02440    0.98870    0.89297    1.000
    O83      O        0.56990    0.28510    0.76147    1.000
    O84      O        0.30250    0.65510    0.65107    1.000
    O85      O        0.69130    0.34820    0.59247    1.000
    O86      O        0.34560    0.56570    0.73327    1.000
    O87      O        0.29800    0.58570    0.82717    1.000
    O88      O        0.63470    0.32280    0.65097    1.000
    O89      O        0.35820    0.68170    0.59157    1.000
    O90      O        0.56960    0.17760    0.72577    1.000
    O91      O        0.61720    0.23560    0.59337    1.000
    O92      O        0.54080    0.23910    0.68207    1.000
    O93      O        0.23130    0.55500    0.89687    1.000
    O94      O        0.63550    0.20750    0.51937    1.000
    O95      O        0.37710    0.62950    0.65937    1.000
    N9       N        0.51710    0.10270    0.76047    1.000
    C493     C        0.90930    0.83890    0.65897    1.000
    C494     C        0.42170    0.59660    0.70637    1.000
    C495     C        0.31980    0.45220    0.80847    1.000
    C496     C        0.26190    0.50730    0.87347    1.000
    C497     C        0.10420    0.93350    0.80987    1.000
    C498     C        0.31910    0.41210    0.81317    1.000
    C499     C        0.06240    0.92930    0.81757    1.000
    C500     C        0.62680    0.46300    0.71567    1.000
    C501     C        0.01780    0.02190    0.91857    1.000
    C502     C        0.55560    0.13700    0.72747    1.000
    C503     C        0.49460    0.12260    0.79427    1.000
    C504     C        0.48530    0.05730    0.78137    1.000
    C505     C        0.33140    0.87180    0.68447    1.000
    C506     C        0.13830    0.96560    0.77937    1.000
    C507     C        0.22310    0.93050    0.76987    1.000
    C508     C        0.28700    0.25160    0.83017    1.000
    C509     C        0.78740    0.71860    0.64867    1.000
    C510     C        0.87460    0.83110    0.69177    1.000
    C511     C        0.82760    0.75870    0.64687    1.000
    C512     C        0.18480    0.93010    0.78777    1.000
    C513     C        0.24960    0.99760    0.70517    1.000
    C514     C        0.20540    0.20510    0.85027    1.000
    C515     C        0.36790    0.95160    0.66557    1.000
    C516     C        0.09000    0.07650    0.86677    1.000
    C517     C        0.33280    0.91560    0.68607    1.000
    C518     C        0.25020    0.29070    0.85597    1.000
    C519     C        0.21000    0.99880    0.72287    1.000
    C520     C        0.62570    0.58540    0.68747    1.000
    C521     C        0.70600    0.62210    0.67717    1.000
    C522     C        0.25080    0.25260    0.84587    1.000
    C523     C        0.65250    0.45320    0.67267    1.000
    C524     C        0.90530    0.80850    0.61687    1.000
    C525     C        0.68490    0.48670    0.63557    1.000
    C526     C        0.29400    0.91710    0.70807    1.000
    C527     C        0.75130    0.71180    0.69137    1.000
    C528     C        0.29410    0.95870    0.70657    1.000
    C529     C        0.26380    0.42550    0.88487    1.000
    C530     C        0.95530    0.88080    0.66947    1.000
    C531     C        0.32770    0.33320    0.83447    1.000
    C532     C        0.66620    0.54120    0.68287    1.000
    C533     C        0.25840    0.96320    0.72647    1.000
    C534     C        0.64410    0.40920    0.66797    1.000
    C535     C        0.34920    0.86310    0.64057    1.000
    C536     C        0.12830    0.11860    0.86047    1.000
    C537     C        0.41320    0.26800    0.74637    1.000
    C538     C        0.70710    0.66670    0.68577    1.000
    C539     C        0.11480    0.90360    0.83457    1.000
    C540     C        0.15840    0.13150    0.80407    1.000
    C541     C        0.66540    0.58360    0.67817    1.000
    C542     C        0.86430    0.77020    0.60897    1.000
    C543     C        0.26070    0.38260    0.88887    1.000
    C544     C        0.48100    0.07940    0.58777    1.000
    C545     C        0.28910    0.33290    0.85057    1.000
    C546     C        0.75350    0.74390    0.72827    1.000
    C547     C        0.37180    0.29440    0.80187    1.000
    C548     C        0.44060    0.03610    0.60287    1.000
    C549     C        0.42630    0.56850    0.74807    1.000
    C550     C        0.50430    0.60050    0.71987    1.000
    C551     C        0.54590    0.59820    0.72097    1.000
    C552     C        0.66800    0.39870    0.62617    1.000
    C553     C        0.31700    0.74280    0.67107    1.000
    C554     C        0.49490    0.29870    0.76117    1.000
    C555     C        0.32700    0.29290    0.82397    1.000
    C556     C        0.70030    0.43220    0.58897    1.000
    C557     C        0.13710    0.15250    0.90257    1.000
    C558     C        0.15080    0.89950    0.82857    1.000
    C559     C        0.66870    0.66720    0.69427    1.000
    C560     C        0.79250    0.78060    0.72887    1.000
    C561     C        0.41860    0.07800    0.66497    1.000
    C562     C        0.32160    0.78540    0.67577    1.000
    C563     C        0.06050    0.06810    0.91507    1.000
    C564     C        0.36960    0.99630    0.66257    1.000
    C565     C        0.45510    0.11770    0.64797    1.000
    C566     C        0.41160    0.32920    0.82787    1.000
    C567     C        0.37240    0.26540    0.76497    1.000
    C568     C        0.62540    0.62490    0.69527    1.000
    C569     C        0.52870    0.16190    0.59677    1.000
    C570     C        0.06930    0.10200    0.95717    1.000
    C571     C        0.17810    0.96660    0.76487    1.000
    C572     C        0.49560    0.26880    0.72527    1.000
    C573     C        0.19550    0.17390    0.80877    1.000
    C574     C        0.56150    0.16250    0.55847    1.000
    C575     C        0.29410    0.50380    0.83847    1.000
    C576     C        0.17390    0.19610    0.90197    1.000
    C577     C        0.30280    0.79600    0.72317    1.000
    C578     C        0.53790    0.26430    0.72117    1.000
    C579     C        0.33520    0.73190    0.62547    1.000
    C580     C        0.49980    0.62870    0.67817    1.000
    C581     C        0.41170    0.03870    0.64037    1.000
    C582     C        0.45850    0.62670    0.67147    1.000
    C583     C        0.48650    0.11820    0.61207    1.000
    C584     C        0.41310    0.23310    0.71117    1.000
    C585     C        0.29490    0.46260    0.84177    1.000
    C586     C        0.34900    0.81850    0.63117    1.000
    C587     C        0.58140    0.62720    0.68987    1.000
    C588     C        0.68810    0.53240    0.64237    1.000
    C589     C        0.45050    0.33060    0.81407    1.000
    C590     C        0.33120    0.99480    0.68447    1.000
    C591     C        0.28880    0.37540    0.85407    1.000
    C592     C        0.83060    0.79100    0.69207    1.000
    C593     C        0.51180    0.07800    0.54887    1.000
    C594     C        0.53710    0.65250    0.64717    1.000
    C595     C        0.23690    0.47500    0.91457    1.000
    C596     C        0.46760    0.57050    0.75477    1.000
    C597     C        0.30550    0.83790    0.73147    1.000
    C598     C        0.10760    0.14420    0.95087    1.000
    C599     C        0.36640    0.80410    0.58357    1.000
    C600     C        0.37760    0.59570    0.69927    1.000
    C601     C        0.57570    0.65420    0.65067    1.000
    C602     C        0.63120    0.50260    0.72337    1.000
    C603     C        0.55590    0.12200    0.53357    1.000
    C604     C        0.70880    0.47620    0.59367    1.000
    C605     C        0.45250    0.30110    0.77567    1.000
    C606     C        0.23750    0.43620    0.92117    1.000
    C607     C        0.35970    0.76100    0.57717    1.000
    C608     C        0.45330    0.23230    0.70077    1.000
    C609     C        0.25910    0.54840    0.86407    1.000
    C610     C        0.60560    0.20330    0.55437    1.000
    C611     C        0.32750    0.68350    0.62087    1.000
    C612     C        0.66150    0.35180    0.62417    1.000
    H309     H        0.33937    0.47344    0.77923    1.000
    H310     H        0.33955    0.40785    0.78868    1.000
    H311     H        0.60521    0.43900    0.74007    1.000
    H312     H        0.57217    0.12674    0.70424    1.000
    H313     H        0.46797    0.09864    0.81505    1.000
    H314     H        0.48525    0.13849    0.76591    1.000
    H315     H        0.51533    0.14380    0.82470    1.000
    H316     H        0.46062    0.05749    0.80370    1.000
    H317     H        0.50075    0.04649    0.80835    1.000
    H318     H        0.47302    0.03707    0.74597    1.000
    H319     H        0.13522    0.99023    0.76594    1.000
    H320     H        0.22811    0.90778    0.78658    1.000
    H321     H        0.28631    0.22389    0.82314    1.000
    H322     H        0.78285    0.69495    0.62183    1.000
    H323     H        0.87851    0.85454    0.71869    1.000
    H324     H        0.27062    0.02021    0.67849    1.000
    H325     H        0.39318    0.94956    0.65207    1.000
    H326     H        0.08405    0.05338    0.83805    1.000
    H327     H        0.22266    0.28908    0.86721    1.000
    H328     H        0.20475    0.02145    0.70639    1.000
    H329     H        0.59776    0.55784    0.68843    1.000
    H330     H        0.73297    0.62118    0.67130    1.000
    H331     H        0.93055    0.81353    0.59290    1.000
    H332     H        0.26860    0.89057    0.72334    1.000
    H333     H        0.35510    0.36095    0.83046    1.000
    H334     H        0.62201    0.38632    0.69333    1.000
    H335     H        0.36397    0.88582    0.61056    1.000
    H336     H        0.09226    0.88174    0.86063    1.000
    H337     H        0.15220    0.11238    0.76962    1.000
    H338     H        0.86088    0.75059    0.57606    1.000
    H339     H        0.23960    0.35996    0.91539    1.000
    H340     H        0.72869    0.74017    0.75209    1.000
    H341     H        0.43571    0.00833    0.58672    1.000
    H342     H        0.40122    0.54793    0.77192    1.000
    H343     H        0.54719    0.57554    0.74450    1.000
    H344     H        0.30037    0.72099    0.70147    1.000
    H345     H        0.52246    0.32038    0.77953    1.000
    H346     H        0.71666    0.42501    0.56039    1.000
    H347     H        0.15405    0.87730    0.85044    1.000
    H348     H        0.66941    0.69499    0.69967    1.000
    H349     H        0.79588    0.80312    0.75711    1.000
    H350     H        0.39790    0.07778    0.69408    1.000
    H351     H        0.45803    0.14523    0.66198    1.000
    H352     H        0.41106    0.35105    0.85418    1.000
    H353     H        0.34463    0.24150    0.74989    1.000
    H354     H        0.53301    0.18943    0.61346    1.000
    H355     H        0.04915    0.09634    0.99019    1.000
    H356     H        0.21715    0.18181    0.77711    1.000
    H357     H        0.31468    0.52787    0.81335    1.000
    H358     H        0.17843    0.21802    0.93198    1.000
    H359     H        0.28664    0.77338    0.75281    1.000
    H360     H        0.45533    0.64589    0.64301    1.000
    H361     H        0.38562    0.20998    0.69441    1.000
    H362     H        0.70744    0.55594    0.61534    1.000
    H363     H        0.47760    0.35335    0.83219    1.000
    H364     H        0.33087    0.02234    0.68387    1.000
    H365     H        0.50601    0.05026    0.53150    1.000
    H366     H        0.53566    0.67174    0.61705    1.000
    H367     H        0.21754    0.47984    0.94055    1.000
    H368     H        0.47074    0.55128    0.78324    1.000
    H369     H        0.29170    0.84400    0.76500    1.000
    H370     H        0.11360    0.16732    0.97963    1.000
    H371     H        0.38415    0.82561    0.55331    1.000
    H372     H        0.60005    0.67466    0.62563    1.000
    H373     H        0.61360    0.50758    0.75267    1.000
    H374     H        0.57832    0.12168    0.50835    1.000
    H375     H        0.73086    0.49909    0.56832    1.000
    H376     H        0.21916    0.41548    0.95191    1.000
    H377     H        0.37053    0.75183    0.54324    1.000
    H378     H        0.45301    0.20851    0.67820    1.000
    N10      N        0.57510    0.10820    0.69627    1.000
    C613     C        0.58390    0.15430    0.70357    1.000
    C614     C        0.61220    0.11100    0.66037    1.000
    C615     C        0.55300    0.05920    0.70097    1.000
    H379     H        0.61131    0.17374    0.68316    1.000
    H380     H        0.60723    0.08055    0.65355    1.000
    H381     H        0.64055    0.12896    0.68246    1.000
    H382     H        0.61361    0.12517    0.62090    1.000
    H383     H        0.57086    0.04854    0.67903    1.000
    H384     H        0.52285    0.04565    0.68303    1.000
    H385     H        0.55061    0.05052    0.74416    1.000
    La16     La       0.07597    0.04516    0.49701    1.000
    La17     La       0.71175    0.40953    0.20814    1.000
    La18     La       0.74320    0.36418    0.37432    1.000
    O96      O        0.09160    0.13010    0.52613    1.000
    O97      O        0.11560    0.10080    0.30693    1.000
    O98      O        0.98170    0.97500    0.61953    1.000
    O99      O        0.09390    0.05740    0.38513    1.000
    O100     O        0.05420    0.10370    0.43933    1.000
    O101     O        0.01130    0.03570    0.55963    1.000
    O102     O        0.71490    0.28480    0.42813    1.000
    O103     O        0.34490    0.64740    0.31773    1.000
    O104     O        0.65180    0.34310    0.25913    1.000
    O105     O        0.43430    0.77990    0.39993    1.000
    O106     O        0.41430    0.71230    0.49383    1.000
    O107     O        0.67720    0.31190    0.31763    1.000
    O108     O        0.31830    0.67650    0.25823    1.000
    O109     O        0.82240    0.39200    0.39243    1.000
    O110     O        0.76440    0.38160    0.26003    1.000
    O111     O        0.76090    0.30170    0.34873    1.000
    O112     O        0.44500    0.67630    0.56353    1.000
    O113     O        0.79250    0.42800    0.18603    1.000
    O114     O        0.37050    0.74760    0.32603    1.000
    N11      N        0.89730    0.41440    0.42713    1.000
    C616     C        0.16110    0.07040    0.32563    1.000
    C617     C        0.40340    0.82510    0.37303    1.000
    C618     C        0.54780    0.86760    0.47513    1.000
    C619     C        0.49270    0.75460    0.54013    1.000
    C620     C        0.06650    0.17070    0.47653    1.000
    C621     C        0.58790    0.90700    0.47983    1.000
    C622     C        0.07070    0.13310    0.48423    1.000
    C623     C        0.53700    0.16380    0.38233    1.000
    C624     C        0.97810    0.99590    0.58523    1.000
    C625     C        0.86300    0.41860    0.39413    1.000
    C626     C        0.87740    0.37200    0.46093    1.000
    C627     C        0.94270    0.42800    0.44803    1.000
    C628     C        0.12820    0.45960    0.35113    1.000
    C629     C        0.03440    0.17270    0.44603    1.000
    C630     C        0.06950    0.29260    0.43653    1.000
    C631     C        0.74840    0.03540    0.49683    1.000
    C632     C        0.28140    0.06880    0.31533    1.000
    C633     C        0.16890    0.04350    0.35843    1.000
    C634     C        0.24130    0.06890    0.31353    1.000
    C635     C        0.06990    0.25470    0.45443    1.000
    C636     C        0.00240    0.25200    0.37183    1.000
    C637     C        0.79490    0.00030    0.51693    1.000
    C638     C        0.04840    0.41630    0.33223    1.000
    C639     C        0.92350    0.01350    0.53343    1.000
    C640     C        0.08440    0.41720    0.35273    1.000
    C641     C        0.70930    0.95950    0.52263    1.000
    C642     C        0.00120    0.21120    0.38953    1.000
    C643     C        0.41460    0.04030    0.35413    1.000
    C644     C        0.37790    0.08390    0.34383    1.000
    C645     C        0.74740    0.99820    0.51253    1.000
    C646     C        0.54680    0.19930    0.33933    1.000
    C647     C        0.19150    0.09680    0.28353    1.000
    C648     C        0.51330    0.19820    0.30223    1.000
    C649     C        0.08290    0.37690    0.37473    1.000
    C650     C        0.28820    0.03950    0.35803    1.000
    C651     C        0.04130    0.33540    0.37323    1.000
    C652     C        0.57450    0.83830    0.55153    1.000
    C653     C        0.11920    0.07450    0.33613    1.000
    C654     C        0.66680    0.99450    0.50113    1.000
    C655     C        0.45880    0.12500    0.34953    1.000
    C656     C        0.03680    0.29520    0.39313    1.000
    C657     C        0.59080    0.23490    0.33463    1.000
    C658     C        0.13690    0.48610    0.30723    1.000
    C659     C        0.88140    0.00970    0.52713    1.000
    C660     C        0.73200    0.14520    0.41303    1.000
    C661     C        0.33330    0.04040    0.35243    1.000
    C662     C        0.09640    0.21120    0.50123    1.000
    C663     C        0.86850    0.02690    0.47073    1.000
    C664     C        0.41640    0.08180    0.34483    1.000
    C665     C        0.22980    0.09410    0.27563    1.000
    C666     C        0.61740    0.87810    0.55553    1.000
    C667     C        0.92060    0.40160    0.25443    1.000
    C668     C        0.66710    0.95620    0.51723    1.000
    C669     C        0.25610    0.00960    0.39493    1.000
    C670     C        0.70560    0.07740    0.46853    1.000
    C671     C        0.96390    0.40450    0.26953    1.000
    C672     C        0.43150    0.85780    0.41473    1.000
    C673     C        0.39950    0.90380    0.38653    1.000
    C674     C        0.40180    0.94770    0.38763    1.000
    C675     C        0.60130    0.26930    0.29283    1.000
    C676     C        0.25720    0.57420    0.33773    1.000
    C677     C        0.70130    0.19620    0.42783    1.000
    C678     C        0.70710    0.03410    0.49063    1.000
    C679     C        0.56780    0.26810    0.25563    1.000
    C680     C        0.84750    0.98460    0.56923    1.000
    C681     C        0.10050    0.25130    0.49523    1.000
    C682     C        0.33280    0.00150    0.36093    1.000
    C683     C        0.21940    0.01190    0.39553    1.000
    C684     C        0.92200    0.34060    0.33163    1.000
    C685     C        0.21460    0.53620    0.34243    1.000
    C686     C        0.93190    0.99240    0.58173    1.000
    C687     C        0.00370    0.37330    0.32923    1.000
    C688     C        0.88230    0.33740    0.31463    1.000
    C689     C        0.67080    0.08240    0.49453    1.000
    C690     C        0.73460    0.10700    0.43163    1.000
    C691     C        0.37510    0.00050    0.36193    1.000
    C692     C        0.83810    0.36680    0.26343    1.000
    C693     C        0.89800    0.96730    0.62383    1.000
    C694     C        0.03340    0.21150    0.43153    1.000
    C695     C        0.73120    0.22680    0.39193    1.000
    C696     C        0.82610    0.02160    0.47543    1.000
    C697     C        0.83750    0.39900    0.22513    1.000
    C698     C        0.49620    0.79030    0.50513    1.000
    C699     C        0.80390    0.97780    0.56863    1.000
    C700     C        0.20400    0.50680    0.38983    1.000
    C701     C        0.73570    0.27360    0.38783    1.000
    C702     C        0.26810    0.60330    0.29213    1.000
    C703     C        0.37130    0.87110    0.34483    1.000
    C704     C        0.96130    0.37300    0.30703    1.000
    C705     C        0.37330    0.83180    0.33813    1.000
    C706     C        0.88180    0.36830    0.27873    1.000
    C707     C        0.76690    0.18000    0.37783    1.000
    C708     C        0.53740    0.83230    0.50843    1.000
    C709     C        0.18150    0.53050    0.29783    1.000
    C710     C        0.37280    0.95420    0.35653    1.000
    C711     C        0.46760    0.15570    0.30903    1.000
    C712     C        0.66940    0.11990    0.48073    1.000
    C713     C        0.00520    0.33640    0.35113    1.000
    C714     C        0.62460    0.91340    0.52073    1.000
    C715     C        0.20900    0.03960    0.35873    1.000
    C716     C        0.92200    0.43380    0.21553    1.000
    C717     C        0.34750    0.88460    0.31383    1.000
    C718     C        0.52500    0.76190    0.58123    1.000
    C719     C        0.42950    0.89710    0.42143    1.000
    C720     C        0.16210    0.46760    0.39813    1.000
    C721     C        0.85580    0.96340    0.61753    1.000
    C722     C        0.19590    0.56230    0.25023    1.000
    C723     C        0.40430    0.78190    0.36593    1.000
    C724     C        0.34580    0.92150    0.31733    1.000
    C725     C        0.49740    0.12860    0.39003    1.000
    C726     C        0.87800    0.43390    0.20023    1.000
    C727     C        0.52380    0.23260    0.26033    1.000
    C728     C        0.69890    0.15140    0.44233    1.000
    C729     C        0.56380    0.80130    0.58783    1.000
    C730     C        0.23900    0.59870    0.24383    1.000
    C731     C        0.76770    0.22100    0.36743    1.000
    C732     C        0.45160    0.71070    0.53073    1.000
    C733     C        0.79670    0.40230    0.22103    1.000
    C734     C        0.31650    0.64400    0.28753    1.000
    C735     C        0.64820    0.30970    0.29083    1.000
    H386     H        0.52656    0.86593    0.44589    1.000
    H387     H        0.59215    0.93170    0.45534    1.000
    H388     H        0.56100    0.16621    0.40673    1.000
    H389     H        0.87326    0.44543    0.37090    1.000
    H390     H        0.90136    0.36933    0.48171    1.000
    H391     H        0.86151    0.34676    0.43257    1.000
    H392     H        0.85620    0.37153    0.49136    1.000
    H393     H        0.94251    0.40313    0.47036    1.000
    H394     H        0.95351    0.45426    0.47501    1.000
    H395     H        0.96293    0.43595    0.41263    1.000
    H396     H        0.00977    0.14499    0.43260    1.000
    H397     H        0.09222    0.32033    0.45324    1.000
    H398     H        0.77611    0.06242    0.48980    1.000
    H399     H        0.30505    0.08790    0.28849    1.000
    H400     H        0.14546    0.02397    0.38535    1.000
    H401     H        0.97979    0.25041    0.34515    1.000
    H402     H        0.05044    0.44362    0.31873    1.000
    H403     H        0.94662    0.03067    0.50471    1.000
    H404     H        0.71092    0.93358    0.53387    1.000
    H405     H        0.97855    0.18330    0.37305    1.000
    H406     H        0.44216    0.03992    0.35509    1.000
    H407     H        0.37882    0.11179    0.33796    1.000
    H408     H        0.18647    0.11702    0.25956    1.000
    H409     H        0.10943    0.37803    0.39000    1.000
    H410     H        0.63905    0.99415    0.49712    1.000
    H411     H        0.61368    0.23569    0.35999    1.000
    H412     H        0.11418    0.47815    0.27722    1.000
    H413     H        0.11826    0.21052    0.52729    1.000
    H414     H        0.88762    0.03982    0.43628    1.000
    H415     H        0.24941    0.11029    0.24272    1.000
    H416     H        0.64004    0.87964    0.58205    1.000
    H417     H        0.25983    0.98852    0.41875    1.000
    H418     H        0.99167    0.42738    0.25338    1.000
    H419     H        0.45207    0.85329    0.43858    1.000
    H420     H        0.42446    0.97165    0.41116    1.000
    H421     H        0.27901    0.57938    0.36813    1.000
    H422     H        0.67962    0.20208    0.44619    1.000
    H423     H        0.57499    0.29165    0.22705    1.000
    H424     H        0.12270    0.27675    0.51710    1.000
    H425     H        0.30501    0.97442    0.36633    1.000
    H426     H        0.19688    0.99276    0.42377    1.000
    H427     H        0.92222    0.32012    0.36074    1.000
    H428     H        0.85477    0.31280    0.32864    1.000
    H429     H        0.64895    0.06001    0.52084    1.000
    H430     H        0.75850    0.10313    0.41655    1.000
    H431     H        0.81057    0.34358    0.28012    1.000
    H432     H        0.90366    0.95281    0.65685    1.000
    H433     H        0.81819    0.03534    0.44377    1.000
    H434     H        0.47213    0.78681    0.48001    1.000
    H435     H        0.78198    0.96041    0.59864    1.000
    H436     H        0.22662    0.51326    0.41947    1.000
    H437     H        0.35411    0.80944    0.30967    1.000
    H438     H        0.79002    0.17564    0.36107    1.000
    H439     H        0.44406    0.15150    0.28200    1.000
    H440     H        0.64665    0.12425    0.49885    1.000
    H441     H        0.97766    0.30853    0.35053    1.000
    H442     H        0.94974    0.45575    0.19816    1.000
    H443     H        0.32826    0.86392    0.28371    1.000
    H444     H        0.52016    0.73770    0.60721    1.000
    H445     H        0.44872    0.91946    0.44990    1.000
    H446     H        0.15600    0.44770    0.43166    1.000
    H447     H        0.83268    0.94628    0.64629    1.000
    H448     H        0.17439    0.55854    0.21997    1.000
    H449     H        0.32534    0.92539    0.29229    1.000
    H450     H        0.49242    0.10602    0.41933    1.000
    H451     H        0.87832    0.45664    0.17501    1.000
    H452     H        0.50091    0.23177    0.23498    1.000
    H453     H        0.58452    0.80368    0.61857    1.000
    H454     H        0.24817    0.61870    0.20990    1.000
    H455     H        0.79149    0.24450    0.34486    1.000
    N12      N        0.89180    0.46690    0.36293    1.000
    C736     C        0.84570    0.42960    0.37023    1.000
    C737     C        0.88900    0.50120    0.32703    1.000
    C738     C        0.94080    0.49380    0.36763    1.000
    H456     H        0.82626    0.43757    0.34982    1.000
    H457     H        0.91945    0.52668    0.32021    1.000
    H458     H        0.87104    0.51159    0.34912    1.000
    H459     H        0.87483    0.48844    0.28756    1.000
    H460     H        0.95146    0.52232    0.34569    1.000
    H461     H        0.95435    0.47720    0.34969    1.000
    H462     H        0.94948    0.50009    0.41082    1.000
