# CIF file generated by openbabel 3.1.0, see https://openbabel.org
data_I
_chemical_name_common 'image0'
_cell_length_a 8.53
_cell_length_b 11.28
_cell_length_c 13.917
_cell_angle_alpha 90
_cell_angle_beta 112.75
_cell_angle_gamma 90
_space_group_name_H-M_alt 'P 1'
_space_group_name_Hall 'P 1'
loop_
    _symmetry_equiv_pos_as_xyz
    x,y,z
loop_
    _atom_site_label
    _atom_site_type_symbol
    _atom_site_fract_x
    _atom_site_fract_y
    _atom_site_fract_z
    _atom_site_occupancy
    Cu1      Cu       0.61642    0.41223    0.53093    1.000
    C1       C        0.95030    0.65330    0.40420    1.000
    H1       H        0.00380    0.59610    0.45430    1.000
    C2       C        0.77970    0.66200    0.36460    1.000
    C3       C        0.78120    0.81110    0.25120    1.000
    C4       C        0.95220    0.81510    0.29070    1.000
    H2       H        0.00730    0.87220    0.26690    1.000
    C5       C        0.05070    0.73170    0.36950    1.000
    C6       C        0.66910    0.59560    0.40880    1.000
    C7       C        0.67160    0.88440    0.15910    1.000
    O1       O        0.69120    0.73720    0.28717    1.000
    O2       O        0.20870    0.72900    0.40361    1.000
    O3       O        0.73060    0.50030    0.45490    1.000
    O4       O        0.53310    0.64430    0.39990    1.000
    O5       O        0.53360    0.83840    0.10060    1.000
    O6       O        0.73210    0.98200    0.14936    1.000
    Cu2      Cu       0.38358    0.91223    0.96907    1.000
    C8       C        0.04970    0.15330    0.09580    1.000
    H3       H        0.99620    0.09610    0.04570    1.000
    C9       C        0.22030    0.16200    0.13540    1.000
    C10      C        0.21880    0.31110    0.24880    1.000
    C11      C        0.04780    0.31510    0.20930    1.000
    H4       H        0.99270    0.37220    0.23310    1.000
    C12      C        0.94930    0.23170    0.13050    1.000
    C13      C        0.33090    0.09560    0.09120    1.000
    C14      C        0.32840    0.38440    0.34090    1.000
    O7       O        0.30880    0.23720    0.21283    1.000
    O8       O        0.79130    0.22900    0.09639    1.000
    O9       O        0.26940    0.00030    0.04510    1.000
    O10      O        0.46690    0.14430    0.10010    1.000
    O11      O        0.46640    0.33840    0.39940    1.000
    O12      O        0.26790    0.48200    0.35064    1.000
    Cu3      Cu       0.38358    0.58777    0.46907    1.000
    C15      C        0.04970    0.34670    0.59580    1.000
    H5       H        0.99620    0.40390    0.54570    1.000
    C16      C        0.22030    0.33800    0.63540    1.000
    C17      C        0.21880    0.18890    0.74880    1.000
    C18      C        0.04780    0.18490    0.70930    1.000
    H6       H        0.99270    0.12780    0.73310    1.000
    C19      C        0.94930    0.26830    0.63050    1.000
    C20      C        0.33090    0.40440    0.59120    1.000
    C21      C        0.32840    0.11560    0.84090    1.000
    O13      O        0.30880    0.26280    0.71283    1.000
    O14      O        0.79130    0.27100    0.59639    1.000
    O15      O        0.26940    0.49970    0.54510    1.000
    O16      O        0.46690    0.35570    0.60010    1.000
    O17      O        0.46640    0.16160    0.89940    1.000
    O18      O        0.26790    0.01800    0.85064    1.000
    Cu4      Cu       0.61642    0.08777    0.03093    1.000
    C22      C        0.95030    0.84670    0.90420    1.000
    H7       H        0.00380    0.90390    0.95430    1.000
    C23      C        0.77970    0.83800    0.86460    1.000
    C24      C        0.78120    0.68890    0.75120    1.000
    C25      C        0.95220    0.68490    0.79070    1.000
    H8       H        0.00730    0.62780    0.76690    1.000
    C26      C        0.05070    0.76830    0.86950    1.000
    C27      C        0.66910    0.90440    0.90880    1.000
    C28      C        0.67160    0.61560    0.65910    1.000
    O19      O        0.69120    0.76280    0.78717    1.000
    O20      O        0.20870    0.77100    0.90361    1.000
    O21      O        0.73060    0.99970    0.95490    1.000
    O22      O        0.53310    0.85570    0.89990    1.000
    O23      O        0.53360    0.66160    0.60060    1.000
    O24      O        0.73210    0.51800    0.64936    1.000
