data_functionalizedCrystal
_audit_creation_method	'EQeq! by Chris Wilmer'
_symmetry_space_group_name_H-M	'P1'
_symmetry_Int_Tables_number	1
_symmetry_cell_setting	triclinic
loop_
_symmetry_equiv_pos_as_xyz
  x,y,z
_cell_length_a	10.3855
_cell_length_b	12.3175
_cell_length_c	12.3175
_cell_angle_alpha	79.7628
_cell_angle_beta	65.066
_cell_angle_gamma	65.0661
loop_
_atom_site_label
_atom_site_type_symbol
_atom_site_fract_x
_atom_site_fract_y
_atom_site_fract_z
_atom_site_charge
Mof_Cd	Cd	0.09636	0.3025	0.50479	0.46
Mof_Cd	Cd	0.90364	0.6975	0.49521	0.46
Mof_Cd	Cd	0.60114	0.49521	0.30251	0.46
Mof_Cd	Cd	0.39886	0.50479	0.69749	0.46
Mof_H 	H 	0.3735	0.35	0.2824	0.04
Mof_H 	H 	0.4569	0.398	0.0794	0.086
Mof_H 	H 	0.0059	0.65	0.7176	0.042
Mof_H 	H 	0.9343	0.602	0.9206	0.086
Mof_H 	H 	0.6559	0.7176	0.35	0.041
Mof_H 	H 	0.5363	0.9206	0.398	0.087
Mof_H 	H 	0.7235	0.2824	0.65	0.041
Mof_H 	H 	0.8549	0.0794	0.602	0.087
Mof_H 	H 	0.6265	0.65	0.7176	0.041
Mof_H 	H 	0.5431	0.602	0.9206	0.087
Mof_H 	H 	0.9941	0.35	0.2824	0.042
Mof_H 	H 	0.0657	0.398	0.0794	0.086
Mof_H 	H 	0.3441	0.2824	0.65	0.041
Mof_H 	H 	0.4637	0.0794	0.602	0.087
Mof_H 	H 	0.2765	0.7176	0.35	0.041
Mof_H 	H 	0.1451	0.9206	0.398	0.087
Mof_C 	C 	0.3104	0.36046	0.2405	0.062
Mof_C 	C 	0.3613	0.38895	0.11927	-0.074
Mof_C 	C 	0.91136	0.63954	0.7595	0.062
Mof_C 	C 	0.86952	0.61105	0.88073	-0.074
Mof_C 	C 	0.5509	0.7595	0.36046	0.062
Mof_C 	C 	0.48057	0.88073	0.38895	-0.074
Mof_C 	C 	0.67086	0.2405	0.63954	0.062
Mof_C 	C 	0.75025	0.11927	0.61105	-0.074
Mof_C 	C 	0.6896	0.63954	0.7595	0.062
Mof_C 	C 	0.6387	0.61105	0.88073	-0.074
Mof_C 	C 	0.08864	0.36046	0.2405	0.062
Mof_C 	C 	0.13048	0.38895	0.11927	-0.074
Mof_C 	C 	0.4491	0.2405	0.63954	0.062
Mof_C 	C 	0.51943	0.11927	0.61105	-0.074
Mof_C 	C 	0.32914	0.7595	0.36046	0.062
Mof_C 	C 	0.24975	0.88073	0.38895	-0.074
Mof_C 	C 	0.26918	0.40387	0.05777	-0
Mof_C 	C 	0.31657	0.43941	0.92745	0.267
Mof_C 	C 	0.73082	0.59613	0.94223	-0
Mof_C 	C 	0.68343	0.56059	0.07255	0.267
Mof_C 	C 	0.32695	0.94223	0.40387	-0
Mof_C 	C 	0.24402	0.07255	0.43941	0.266
Mof_C 	C 	0.67305	0.05777	0.59613	-0
Mof_C 	C 	0.75598	0.92745	0.56059	0.266
Mof_S 	S 	0.75	0.5	0.5	0.662
Mof_S 	S 	0.25	0.5	0.5	0.662
Mof_N 	N 	0.176	0.34708	0.30092	-0.135
Mof_N 	N 	0.824	0.65292	0.69908	-0.135
Mof_N 	N 	0.47692	0.69908	0.34708	-0.135
Mof_N 	N 	0.52308	0.30092	0.65292	-0.135
Mof_O 	O 	0.44183	0.45434	0.87632	-0.26
Mof_O 	O 	0.84152	0.41546	0.5668	-0.317
Mof_O 	O 	0.77249	0.54566	0.12368	-0.26
Mof_O 	O 	0.82378	0.58454	0.4332	-0.317
Mof_O 	O 	0.31815	0.12368	0.45434	-0.26
Mof_O 	O 	0.40832	0.4332	0.41546	-0.317
Mof_O 	O 	0.89617	0.87632	0.54566	-0.26
Mof_O 	O 	0.25698	0.5668	0.58454	-0.317
Mof_O 	O 	0.55817	0.54566	0.12368	-0.26
Mof_O 	O 	0.15848	0.58454	0.4332	-0.317
Mof_O 	O 	0.22751	0.45434	0.87632	-0.26
Mof_O 	O 	0.17622	0.41546	0.5668	-0.317
Mof_O 	O 	0.68185	0.87632	0.54566	-0.26
Mof_O 	O 	0.59168	0.5668	0.58454	-0.317
Mof_O 	O 	0.10383	0.12368	0.45434	-0.26
Mof_O 	O 	0.74302	0.4332	0.41546	-0.317
_end
