data_functionalizedCrystal
_audit_creation_method	'EQeq! by Chris Wilmer'
_symmetry_space_group_name_H-M	'P1'
_symmetry_Int_Tables_number	1
_symmetry_cell_setting	triclinic
loop_
_symmetry_equiv_pos_as_xyz
  x,y,z
_cell_length_a	6.6667
_cell_length_b	18.408
_cell_length_c	8.4468
_cell_angle_alpha	90
_cell_angle_beta	90
_cell_angle_gamma	90
loop_
_atom_site_label
_atom_site_type_symbol
_atom_site_fract_x
_atom_site_fract_y
_atom_site_fract_z
_atom_site_charge
Mof_O 	O 	0.0127	0.5498	0.0696	-0.795
Mof_O 	O 	0.6648	0.5946	0.2283	-0.414
Mof_O 	O 	0.6804	0.7578	0.6522	-0.532
Mof_O 	O 	0.8249	0.6834	0.4818	-0.438
Mof_C 	C 	0.7641	0.7434	0.5252	0.667
Mof_H 	H 	0.783	0.7819	0.4553	-0.161
Mof_O 	O 	0.5127	0.0498	0.0696	-0.555
Mof_O 	O 	0.1648	0.0946	0.2283	-0.473
Mof_O 	O 	0.1804	0.2578	0.6522	-0.571
Mof_O 	O 	0.3249	0.1834	0.4818	-0.55
Mof_C 	C 	0.2641	0.2434	0.5252	0.673
Mof_H 	H 	0.283	0.2819	0.4553	-0.217
Mof_O 	O 	0.9873	0.4502	0.5696	-0.187
Mof_O 	O 	0.3352	0.4054	0.7283	-0.459
Mof_O 	O 	0.3196	0.2422	0.1522	-0.543
Mof_O 	O 	0.1751	0.3166	0.9818	-0.465
Mof_C 	C 	0.2359	0.2566	0.0252	0.542
Mof_H 	H 	0.217	0.2181	0.9553	-0.158
Mof_O 	O 	0.4873	0.9502	0.5696	-0.516
Mof_O 	O 	0.8352	0.9054	0.7283	-0.301
Mof_O 	O 	0.8196	0.7422	0.1522	-0.408
Mof_O 	O 	0.6751	0.8166	0.9818	-0.432
Mof_C 	C 	0.7359	0.7566	0.0252	0.518
Mof_H 	H 	0.717	0.7181	0.9553	-0.095
Mof_O 	O 	0.9873	0.5498	0.4304	-0.188
Mof_O 	O 	0.3352	0.5946	0.2717	-0.462
Mof_O 	O 	0.3196	0.7578	0.8478	-0.601
Mof_O 	O 	0.1751	0.6834	0.0182	-0.576
Mof_C 	C 	0.2359	0.7434	0.9748	0.792
Mof_H 	H 	0.217	0.7819	0.0447	-0.276
Mof_O 	O 	0.4873	0.0498	0.4304	-0.57
Mof_O 	O 	0.8352	0.0946	0.2717	-0.331
Mof_O 	O 	0.8196	0.2578	0.8478	-0.475
Mof_O 	O 	0.6751	0.1834	0.0182	-0.562
Mof_C 	C 	0.7359	0.2434	0.9748	0.795
Mof_H 	H 	0.717	0.2819	0.0447	-0.231
Mof_O 	O 	0.0127	0.4502	0.9304	-0.769
Mof_O 	O 	0.6648	0.4054	0.7717	-0.401
Mof_O 	O 	0.6804	0.2422	0.3478	-0.533
Mof_O 	O 	0.8249	0.3166	0.5182	-0.439
Mof_C 	C 	0.7641	0.2566	0.4748	0.666
Mof_H 	H 	0.783	0.2181	0.5447	-0.162
Mof_O 	O 	0.5127	0.9502	0.9304	-0.473
Mof_O 	O 	0.1648	0.9054	0.7717	-0.438
Mof_O 	O 	0.1804	0.7422	0.3478	-0.567
Mof_O 	O 	0.3249	0.8166	0.5182	-0.543
Mof_C 	C 	0.2641	0.7566	0.4748	0.67
Mof_H 	H 	0.283	0.7181	0.5447	-0.212
Mof_Ho	Ho	1.94519e-32	0.64269	0.25	1.952
Mof_Ho	Ho	0.5	0.14269	0.25	2.37
Mof_Ho	Ho	-8.61326e-33	0.35731	0.75	1.957
Mof_Ho	Ho	0.5	0.85731	0.75	2.388
Mof_C 	C 	0.5	0.6256	0.25	0.575
Mof_H 	H 	0.5	0.6762	0.25	-0.167
Mof_C 	C 	1.03198e-32	0.1256	0.25	0.353
Mof_H 	H 	7.27572e-33	0.1762	0.25	-0.162
Mof_C 	C 	0.5	0.3744	0.75	0.578
Mof_H 	H 	0.5	0.3238	0.75	-0.164
Mof_C 	C 	1.57391e-32	0.8744	0.75	0.349
Mof_H 	H 	1.57391e-32	0.8238	0.75	-0.155
Mof_C 	C 	0.9253	0.5	-0	1.258
Mof_H 	H 	0.7858	0.5	-0	-0.343
Mof_C 	C 	0.4253	0	-0	0.611
Mof_H 	H 	0.2858	0	-0	-0.206
Mof_C 	C 	0.0747	0.5	0.5	0.046
Mof_H 	H 	0.2142	0.5	0.5	0.024
Mof_C 	C 	0.5747	0	0.5	0.654
Mof_H 	H 	0.7142	0	0.5	-0.162
_end
