data_functionalizedCrystal
_audit_creation_method	'EQeq! by Chris Wilmer'
_symmetry_space_group_name_H-M	'P1'
_symmetry_Int_Tables_number	1
_symmetry_cell_setting	triclinic
loop_
_symmetry_equiv_pos_as_xyz
  x,y,z
_cell_length_a	6.445
_cell_length_b	6.445
_cell_length_c	6.445
_cell_angle_alpha	90
_cell_angle_beta	90
_cell_angle_gamma	90
loop_
_atom_site_label
_atom_site_type_symbol
_atom_site_fract_x
_atom_site_fract_y
_atom_site_fract_z
_atom_site_charge
Mof_N 	N 	0.3367	0.9265	-0	0.012
Mof_N 	N 	0.6633	0.0735	-0	-0.065
Mof_N 	N 	0.6633	0.9265	-0	0.01
Mof_N 	N 	0.3367	0.0735	-0	-0.068
Mof_N 	N 	3.47382e-33	0.3367	0.9265	0.011
Mof_N 	N 	8.37893e-33	0.6633	0.0735	-0.065
Mof_N 	N 	3.47382e-33	0.6633	0.9265	0.01
Mof_N 	N 	5.43226e-33	0.3367	0.0735	-0.068
Mof_N 	N 	0.9265	2.94667e-33	0.3367	0.011
Mof_N 	N 	0.0735	0	0.6633	-0.065
Mof_N 	N 	0.9265	0	0.6633	0.01
Mof_N 	N 	0.0735	2.94667e-33	0.3367	-0.068
Mof_N 	N 	0.9265	0.3367	-0	0.011
Mof_N 	N 	0.0735	0.6633	-0	-0.065
Mof_N 	N 	0.9265	0.6633	-0	0.01
Mof_N 	N 	0.0735	0.3367	-0	-0.068
Mof_N 	N 	0.3367	7.36668e-34	0.0735	-0.068
Mof_N 	N 	0.6633	0	0.9265	0.01
Mof_N 	N 	0.6633	7.36668e-34	0.0735	-0.065
Mof_N 	N 	0.3367	0	0.9265	0.011
Mof_N 	N 	2.48698e-33	0.9265	0.6633	0.01
Mof_N 	N 	4.20909e-33	0.0735	0.3367	-0.068
Mof_N 	N 	4.20909e-33	0.9265	0.3367	0.011
Mof_N 	N 	8.38032e-33	0.0735	0.6633	-0.065
Mof_Mn	Mn	-0	0	-0	0.725
Mof_N 	N 	0.5	0	-0	-0.018
Mof_N 	N 	-0	0.5	-0	-0.018
Mof_N 	N 	1.8747e-33	0	0.5	-0.018
_end
