data_functionalizedCrystal
_audit_creation_method	'EQeq! by Chris Wilmer'
_symmetry_space_group_name_H-M	'P1'
_symmetry_Int_Tables_number	1
_symmetry_cell_setting	triclinic
loop_
_symmetry_equiv_pos_as_xyz
  x,y,z
_cell_length_a	24.9239
_cell_length_b	24.9239
_cell_length_c	24.9239
_cell_angle_alpha	90
_cell_angle_beta	90
_cell_angle_gamma	90
loop_
_atom_site_label
_atom_site_type_symbol
_atom_site_fract_x
_atom_site_fract_y
_atom_site_fract_z
_atom_site_charge
Mof_Ni	Ni	0.08048	0.08987	0.17319	1.104
Mof_Ni	Ni	0.16717	0.00013	0.18467	1.083
Mof_Ni	Ni	0.12929	0.07022	0.43545	1.084
Mof_Ni	Ni	0.02773	0.00438	0.40357	1.103
Mof_W 	W 	0.14632	0.94559	0.05344	0.95
Mof_W 	W 	0.05262	0.9429	0.95188	0.986
Mof_W 	W 	0.15408	0.03758	0.95338	0.968
Mof_W 	W 	0.97485	0.10682	0.64431	0.993
Mof_W 	W 	0.08992	0.09962	0.56866	0.944
Mof_W 	W 	0.05022	0.99048	0.63998	0.963
Mof_W 	W 	0.10507	0.04908	0.29943	1.117
Mof_O 	O 	0.168	0.9982	0.0985	-0.582
Mof_O 	O 	0.10465	0.99192	0.42658	-0.57
Mof_O 	O 	0.0806	0.0976	0.2538	-0.524
Mof_O 	O 	0.161	0.08002	0.16962	-0.57
Mof_O 	O 	0.0825	0.006	0.1753	-0.592
Mof_O 	O 	0.0858	0.0107	0.0163	-0.366
Mof_O 	O 	0.0865	0.93	0.1001	-0.454
Mof_O 	O 	0.0459	0.08238	0.4243	-0.592
Mof_O 	O 	0.1109	0.0529	0.5169	-0.588
Mof_O 	O 	0.1003	0.0492	0.6239	-0.447
Mof_O 	O 	0.9403	0.1434	0.5875	-0.448
Mof_O 	O 	0.999	0.9297	0.0054	-0.446
Mof_O 	O 	0.9847	0.9526	0.6389	-0.456
Mof_O 	O 	0.1822	0.9775	0.9935	-0.447
Mof_O 	O 	0.1378	0.0834	0.3529	-0.51
Mof_O 	O 	0.0402	0.1343	0.622	-0.44
Mof_O 	O 	0.011	0.0488	0.6776	-0.429
Mof_O 	O 	0.103	0.9081	0.9965	-0.43
Mof_O 	O 	0.0516	0.011	0.3247	-0.527
Mof_O 	O 	0.1092	0.9806	0.9179	-0.426
Mof_O 	O 	0.1539	0.0081	0.2675	-0.517
Mof_O 	O 	0.0077	0.046	0.5731	-0.368
Mof_N 	N 	0.1754	0.9174	0.194	-0.361
Mof_H 	H 	0.1536	0.9058	0.2203	0.096
Mof_H 	H 	0.1662	0.9006	0.1634	0.081
Mof_N 	N 	0.25	0.9986	0.1857	-0.307
Mof_H 	H 	0.2632	0.0206	0.1603	0.112
Mof_H 	H 	0.2623	0.0095	0.2179	0.096
Mof_N 	N 	0.2093	0.0542	0.4445	-0.268
Mof_H 	H 	0.2144	0.0291	0.4699	0.098
Mof_H 	H 	0.2234	0.0423	0.4135	0.09
Mof_N 	N 	0.1533	0.1495	0.449	-0.4
Mof_H 	H 	0.1438	0.1703	0.4211	0.106
Mof_H 	H 	0.1373	0.1623	0.4787	0.082
Mof_C 	C 	0.232	0.9053	0.2076	0.22
Mof_H 	H 	0.2377	0.9123	0.2458	-0.058
Mof_C 	C 	0.2668	0.943	0.1754	-0.212
Mof_H 	H 	0.3041	0.9385	0.1855	0.079
Mof_H 	H 	0.2634	0.9351	0.1374	0.057
Mof_C 	C 	0.2455	0.8468	0.1962	-0.644
Mof_H 	H 	0.2242	0.8241	0.2188	0.193
Mof_H 	H 	0.2829	0.8407	0.2033	0.189
Mof_H 	H 	0.238	0.8389	0.1592	0.181
Mof_C 	C 	0.211	0.1501	0.4556	0.438
Mof_H 	H 	0.2184	0.1533	0.4171	-0.094
Mof_C 	C 	0.2346	0.1047	0.4603	-0.447
Mof_H 	H 	0.2443	0.1011	0.4978	0.124
Mof_H 	H 	0.2679	0.1073	0.4404	0.154
Mof_C 	C 	0.2367	0.2026	0.4697	-0.906
Mof_H 	H 	0.2748	0.198	0.4723	0.265
Mof_H 	H 	0.2228	0.215	0.5034	0.255
Mof_H 	H 	0.2288	0.2285	0.4422	0.268
Mof_Ni	Ni	0.41952	0.91013	0.67319	1.103
Mof_Ni	Ni	0.33283	0.99987	0.68467	1.082
Mof_Ni	Ni	0.37071	0.92978	0.93545	1.083
Mof_Ni	Ni	0.47227	0.99562	0.90357	1.101
Mof_W 	W 	0.35368	0.05441	0.55344	0.949
Mof_W 	W 	0.44738	0.0571	0.45188	0.985
Mof_W 	W 	0.34592	0.96242	0.45338	0.966
Mof_W 	W 	0.52515	0.89318	0.14431	0.992
Mof_W 	W 	0.41008	0.90038	0.06866	0.943
Mof_W 	W 	0.44978	0.00952	0.13998	0.961
Mof_W 	W 	0.39493	0.95092	0.79943	1.116
Mof_O 	O 	0.332	0.0018	0.5985	-0.582
Mof_O 	O 	0.39535	0.00808	0.92658	-0.57
Mof_O 	O 	0.4194	0.9024	0.7538	-0.524
Mof_O 	O 	0.339	0.91998	0.66962	-0.57
Mof_O 	O 	0.4175	0.994	0.6753	-0.591
Mof_O 	O 	0.4142	0.9893	0.5163	-0.366
Mof_O 	O 	0.4135	0.07	0.6001	-0.454
Mof_O 	O 	0.4541	0.91762	0.9243	-0.592
Mof_O 	O 	0.3891	0.9471	0.0169	-0.588
Mof_O 	O 	0.3997	0.9508	0.1239	-0.447
Mof_O 	O 	0.5597	0.8566	0.0875	-0.448
Mof_O 	O 	0.501	0.0703	0.5054	-0.445
Mof_O 	O 	0.5153	0.0474	0.1389	-0.456
Mof_O 	O 	0.3178	0.0225	0.4935	-0.447
Mof_O 	O 	0.3622	0.9166	0.8529	-0.51
Mof_O 	O 	0.4598	0.8657	0.122	-0.439
Mof_O 	O 	0.489	0.9512	0.1776	-0.429
Mof_O 	O 	0.397	0.0919	0.4965	-0.43
Mof_O 	O 	0.4484	0.989	0.8247	-0.527
Mof_O 	O 	0.3908	0.0194	0.4179	-0.426
Mof_O 	O 	0.3461	0.9919	0.7675	-0.517
Mof_O 	O 	0.4923	0.954	0.0731	-0.367
Mof_N 	N 	0.3246	0.0826	0.694	-0.361
Mof_H 	H 	0.3464	0.0942	0.7203	0.096
Mof_H 	H 	0.3338	0.0994	0.6634	0.081
Mof_N 	N 	0.25	0.0014	0.6857	-0.307
Mof_H 	H 	0.2368	0.9794	0.6603	0.112
Mof_H 	H 	0.2377	0.9905	0.7179	0.096
Mof_N 	N 	0.2907	0.9458	0.9445	-0.268
Mof_H 	H 	0.2856	0.9709	0.9699	0.098
Mof_H 	H 	0.2766	0.9577	0.9135	0.09
Mof_N 	N 	0.3467	0.8505	0.949	-0.4
Mof_H 	H 	0.3562	0.8297	0.9211	0.106
Mof_H 	H 	0.3627	0.8377	0.9787	0.082
Mof_C 	C 	0.268	0.0947	0.7076	0.22
Mof_H 	H 	0.2623	0.0877	0.7458	-0.058
Mof_C 	C 	0.2332	0.057	0.6754	-0.212
Mof_H 	H 	0.1959	0.0615	0.6855	0.079
Mof_H 	H 	0.2366	0.0649	0.6374	0.057
Mof_C 	C 	0.2545	0.1532	0.6962	-0.644
Mof_H 	H 	0.2758	0.1759	0.7188	0.193
Mof_H 	H 	0.2171	0.1593	0.7033	0.189
Mof_H 	H 	0.262	0.1611	0.6592	0.181
Mof_C 	C 	0.289	0.8499	0.9556	0.438
Mof_H 	H 	0.2816	0.8467	0.9171	-0.094
Mof_C 	C 	0.2654	0.8953	0.9603	-0.447
Mof_H 	H 	0.2557	0.8989	0.9978	0.124
Mof_H 	H 	0.2321	0.8927	0.9404	0.154
Mof_C 	C 	0.2633	0.7974	0.9697	-0.907
Mof_H 	H 	0.2252	0.802	0.9723	0.265
Mof_H 	H 	0.2772	0.785	0.0034	0.255
Mof_H 	H 	0.2712	0.7715	0.9422	0.269
Mof_Ni	Ni	0.91952	0.58987	0.32681	1.103
Mof_Ni	Ni	0.83283	0.50013	0.31533	1.083
Mof_Ni	Ni	0.87071	0.57022	0.06455	1.083
Mof_Ni	Ni	0.97227	0.50438	0.09643	1.102
Mof_W 	W 	0.85368	0.44559	0.44656	0.949
Mof_W 	W 	0.94738	0.4429	0.54811	0.985
Mof_W 	W 	0.84592	0.53758	0.54662	0.966
Mof_W 	W 	0.02515	0.60682	0.85569	0.993
Mof_W 	W 	0.91008	0.59962	0.93134	0.943
Mof_W 	W 	0.94978	0.49048	0.86002	0.962
Mof_W 	W 	0.89493	0.54908	0.20057	1.116
Mof_O 	O 	0.832	0.4982	0.4015	-0.582
Mof_O 	O 	0.89535	0.49192	0.07342	-0.57
Mof_O 	O 	0.9194	0.5976	0.2462	-0.524
Mof_O 	O 	0.839	0.58002	0.33038	-0.57
Mof_O 	O 	0.9175	0.506	0.3247	-0.591
Mof_O 	O 	0.9142	0.5107	0.4837	-0.366
Mof_O 	O 	0.9135	0.43	0.3999	-0.454
Mof_O 	O 	0.9541	0.58238	0.0757	-0.592
Mof_O 	O 	0.8891	0.5529	0.9831	-0.588
Mof_O 	O 	0.8997	0.5492	0.8761	-0.447
Mof_O 	O 	0.0597	0.6434	0.9125	-0.448
Mof_O 	O 	0.001	0.4297	0.4946	-0.446
Mof_O 	O 	0.0153	0.4526	0.8611	-0.455
Mof_O 	O 	0.8178	0.4775	0.5065	-0.446
Mof_O 	O 	0.8622	0.5834	0.1471	-0.51
Mof_O 	O 	0.9598	0.6343	0.878	-0.44
Mof_O 	O 	0.989	0.5488	0.8224	-0.43
Mof_O 	O 	0.897	0.4081	0.5035	-0.43
Mof_O 	O 	0.9484	0.511	0.1753	-0.527
Mof_O 	O 	0.8908	0.4806	0.5821	-0.426
Mof_O 	O 	0.8461	0.5081	0.2325	-0.516
Mof_O 	O 	0.9923	0.546	0.9269	-0.368
Mof_N 	N 	0.8246	0.4174	0.306	-0.361
Mof_H 	H 	0.8464	0.4058	0.2797	0.096
Mof_H 	H 	0.8338	0.4006	0.3366	0.081
Mof_N 	N 	0.75	0.4986	0.3143	-0.308
Mof_H 	H 	0.7368	0.5206	0.3397	0.112
Mof_H 	H 	0.7377	0.5095	0.2821	0.096
Mof_N 	N 	0.7907	0.5542	0.0555	-0.268
Mof_H 	H 	0.7856	0.5291	0.0301	0.098
Mof_H 	H 	0.7766	0.5423	0.0865	0.09
Mof_N 	N 	0.8467	0.6495	0.051	-0.399
Mof_H 	H 	0.8562	0.6703	0.0789	0.106
Mof_H 	H 	0.8627	0.6623	0.0213	0.082
Mof_C 	C 	0.768	0.4053	0.2924	0.22
Mof_H 	H 	0.7623	0.4123	0.2542	-0.058
Mof_C 	C 	0.7332	0.443	0.3246	-0.212
Mof_H 	H 	0.6959	0.4385	0.3145	0.079
Mof_H 	H 	0.7366	0.4351	0.3626	0.057
Mof_C 	C 	0.7545	0.3468	0.3038	-0.644
Mof_H 	H 	0.7758	0.3241	0.2812	0.193
Mof_H 	H 	0.7171	0.3407	0.2967	0.189
Mof_H 	H 	0.762	0.3389	0.3408	0.181
Mof_C 	C 	0.789	0.6501	0.0444	0.436
Mof_H 	H 	0.7816	0.6533	0.0829	-0.094
Mof_C 	C 	0.7654	0.6047	0.0397	-0.445
Mof_H 	H 	0.7557	0.6011	0.0022	0.124
Mof_H 	H 	0.7321	0.6073	0.0596	0.153
Mof_C 	C 	0.7633	0.7026	0.0303	-0.902
Mof_H 	H 	0.7252	0.698	0.0277	0.264
Mof_H 	H 	0.7772	0.715	0.9966	0.253
Mof_H 	H 	0.7712	0.7285	0.0578	0.267
Mof_Ni	Ni	0.58048	0.41013	0.82681	1.103
Mof_Ni	Ni	0.66717	0.49987	0.81533	1.083
Mof_Ni	Ni	0.62929	0.42978	0.56455	1.083
Mof_Ni	Ni	0.52773	0.49562	0.59643	1.102
Mof_W 	W 	0.64632	0.55441	0.94656	0.949
Mof_W 	W 	0.55262	0.5571	0.04811	0.985
Mof_W 	W 	0.65408	0.46242	0.04662	0.966
Mof_W 	W 	0.47485	0.39318	0.35569	0.992
Mof_W 	W 	0.58992	0.40038	0.43134	0.943
Mof_W 	W 	0.55022	0.50952	0.36002	0.962
Mof_W 	W 	0.60507	0.45092	0.70057	1.116
Mof_O 	O 	0.668	0.5018	0.9015	-0.582
Mof_O 	O 	0.60465	0.50808	0.57342	-0.57
Mof_O 	O 	0.5806	0.4024	0.7462	-0.524
Mof_O 	O 	0.661	0.41998	0.83038	-0.57
Mof_O 	O 	0.5825	0.494	0.8247	-0.591
Mof_O 	O 	0.5858	0.4893	0.9837	-0.366
Mof_O 	O 	0.5865	0.57	0.8999	-0.454
Mof_O 	O 	0.5459	0.41762	0.5757	-0.592
Mof_O 	O 	0.6109	0.4471	0.4831	-0.588
Mof_O 	O 	0.6003	0.4508	0.3761	-0.447
Mof_O 	O 	0.4403	0.3566	0.4125	-0.448
Mof_O 	O 	0.499	0.5703	0.9946	-0.446
Mof_O 	O 	0.4847	0.5474	0.3611	-0.456
Mof_O 	O 	0.6822	0.5225	0.0065	-0.446
Mof_O 	O 	0.6378	0.4166	0.6471	-0.51
Mof_O 	O 	0.5402	0.3657	0.378	-0.439
Mof_O 	O 	0.511	0.4512	0.3224	-0.429
Mof_O 	O 	0.603	0.5919	0.0035	-0.43
Mof_O 	O 	0.5516	0.489	0.6753	-0.527
Mof_O 	O 	0.6092	0.5194	0.0821	-0.426
Mof_O 	O 	0.6539	0.4919	0.7325	-0.516
Mof_O 	O 	0.5077	0.454	0.4269	-0.367
Mof_N 	N 	0.6754	0.5826	0.806	-0.361
Mof_H 	H 	0.6536	0.5942	0.7797	0.096
Mof_H 	H 	0.6662	0.5994	0.8366	0.081
Mof_N 	N 	0.75	0.5014	0.8143	-0.308
Mof_H 	H 	0.7632	0.4794	0.8397	0.112
Mof_H 	H 	0.7623	0.4905	0.7821	0.096
Mof_N 	N 	0.7093	0.4458	0.5555	-0.268
Mof_H 	H 	0.7144	0.4709	0.5301	0.098
Mof_H 	H 	0.7234	0.4577	0.5865	0.09
Mof_N 	N 	0.6533	0.3505	0.551	-0.4
Mof_H 	H 	0.6438	0.3297	0.5789	0.106
Mof_H 	H 	0.6373	0.3377	0.5213	0.082
Mof_C 	C 	0.732	0.5947	0.7924	0.22
Mof_H 	H 	0.7377	0.5877	0.7542	-0.058
Mof_C 	C 	0.7668	0.557	0.8246	-0.212
Mof_H 	H 	0.8041	0.5615	0.8145	0.079
Mof_H 	H 	0.7634	0.5649	0.8626	0.057
Mof_C 	C 	0.7455	0.6532	0.8038	-0.643
Mof_H 	H 	0.7242	0.6759	0.7812	0.193
Mof_H 	H 	0.7829	0.6593	0.7967	0.189
Mof_H 	H 	0.738	0.6611	0.8408	0.181
Mof_C 	C 	0.711	0.3499	0.5444	0.438
Mof_H 	H 	0.7184	0.3467	0.5829	-0.094
Mof_C 	C 	0.7346	0.3953	0.5397	-0.447
Mof_H 	H 	0.7443	0.3989	0.5022	0.124
Mof_H 	H 	0.7679	0.3927	0.5596	0.154
Mof_C 	C 	0.7367	0.2974	0.5303	-0.906
Mof_H 	H 	0.7748	0.302	0.5277	0.265
Mof_H 	H 	0.7228	0.285	0.4966	0.255
Mof_H 	H 	0.7288	0.2715	0.5578	0.268
Mof_Ni	Ni	0.17319	0.08048	0.08987	1.103
Mof_Ni	Ni	0.18467	0.16717	0.00013	1.082
Mof_Ni	Ni	0.43545	0.12929	0.07022	1.083
Mof_Ni	Ni	0.40357	0.02773	0.00438	1.102
Mof_W 	W 	0.05344	0.14632	0.94559	0.949
Mof_W 	W 	0.95188	0.05262	0.9429	0.985
Mof_W 	W 	0.95338	0.15408	0.03758	0.967
Mof_W 	W 	0.64431	0.97485	0.10682	0.992
Mof_W 	W 	0.56866	0.08992	0.09962	0.943
Mof_W 	W 	0.63998	0.05022	0.99048	0.962
Mof_W 	W 	0.29943	0.10507	0.04908	1.116
Mof_O 	O 	0.0985	0.168	0.9982	-0.582
Mof_O 	O 	0.42658	0.10465	0.99192	-0.57
Mof_O 	O 	0.2538	0.0806	0.0976	-0.524
Mof_O 	O 	0.16962	0.161	0.08002	-0.57
Mof_O 	O 	0.1753	0.0825	0.006	-0.592
Mof_O 	O 	0.0163	0.0858	0.0107	-0.366
Mof_O 	O 	0.1001	0.0865	0.93	-0.454
Mof_O 	O 	0.4243	0.0459	0.08238	-0.592
Mof_O 	O 	0.5169	0.1109	0.0529	-0.588
Mof_O 	O 	0.6239	0.1003	0.0492	-0.447
Mof_O 	O 	0.5875	0.9403	0.1434	-0.448
Mof_O 	O 	0.0054	0.999	0.9297	-0.446
Mof_O 	O 	0.6389	0.9847	0.9526	-0.456
Mof_O 	O 	0.9935	0.1822	0.9775	-0.447
Mof_O 	O 	0.3529	0.1378	0.0834	-0.51
Mof_O 	O 	0.622	0.0402	0.1343	-0.44
Mof_O 	O 	0.6776	0.011	0.0488	-0.429
Mof_O 	O 	0.9965	0.103	0.9081	-0.43
Mof_O 	O 	0.3247	0.0516	0.011	-0.527
Mof_O 	O 	0.9179	0.1092	0.9806	-0.426
Mof_O 	O 	0.2675	0.1539	0.0081	-0.517
Mof_O 	O 	0.5731	0.0077	0.046	-0.368
Mof_N 	N 	0.194	0.1754	0.9174	-0.361
Mof_H 	H 	0.2203	0.1536	0.9058	0.096
Mof_H 	H 	0.1634	0.1662	0.9006	0.081
Mof_N 	N 	0.1857	0.25	0.9986	-0.307
Mof_H 	H 	0.1603	0.2632	0.0206	0.112
Mof_H 	H 	0.2179	0.2623	0.0095	0.096
Mof_N 	N 	0.4445	0.2093	0.0542	-0.268
Mof_H 	H 	0.4699	0.2144	0.0291	0.098
Mof_H 	H 	0.4135	0.2234	0.0423	0.09
Mof_N 	N 	0.449	0.1533	0.1495	-0.4
Mof_H 	H 	0.4211	0.1438	0.1703	0.106
Mof_H 	H 	0.4787	0.1373	0.1623	0.082
Mof_C 	C 	0.2076	0.232	0.9053	0.22
Mof_H 	H 	0.2458	0.2377	0.9123	-0.058
Mof_C 	C 	0.1754	0.2668	0.943	-0.212
Mof_H 	H 	0.1855	0.3041	0.9385	0.079
Mof_H 	H 	0.1374	0.2634	0.9351	0.057
Mof_C 	C 	0.1962	0.2455	0.8468	-0.644
Mof_H 	H 	0.2188	0.2242	0.8241	0.193
Mof_H 	H 	0.2033	0.2829	0.8407	0.189
Mof_H 	H 	0.1592	0.238	0.8389	0.181
Mof_C 	C 	0.4556	0.211	0.1501	0.438
Mof_H 	H 	0.4171	0.2184	0.1533	-0.094
Mof_C 	C 	0.4603	0.2346	0.1047	-0.447
Mof_H 	H 	0.4978	0.2443	0.1011	0.124
Mof_H 	H 	0.4404	0.2679	0.1073	0.154
Mof_C 	C 	0.4697	0.2367	0.2026	-0.906
Mof_H 	H 	0.4723	0.2748	0.198	0.265
Mof_H 	H 	0.5034	0.2228	0.215	0.255
Mof_H 	H 	0.4422	0.2288	0.2285	0.268
Mof_Ni	Ni	0.67319	0.41952	0.91013	1.103
Mof_Ni	Ni	0.68467	0.33283	0.99987	1.082
Mof_Ni	Ni	0.93545	0.37071	0.92978	1.083
Mof_Ni	Ni	0.90357	0.47227	0.99562	1.101
Mof_W 	W 	0.55344	0.35368	0.05441	0.949
Mof_W 	W 	0.45189	0.44738	0.0571	0.985
Mof_W 	W 	0.45338	0.34592	0.96242	0.966
Mof_W 	W 	0.14431	0.52515	0.89318	0.992
Mof_W 	W 	0.06866	0.41008	0.90038	0.943
Mof_W 	W 	0.13998	0.44978	0.00952	0.961
Mof_W 	W 	0.79943	0.39493	0.95092	1.116
Mof_O 	O 	0.5985	0.332	0.0018	-0.582
Mof_O 	O 	0.92658	0.39535	0.00808	-0.57
Mof_O 	O 	0.7538	0.4194	0.9024	-0.524
Mof_O 	O 	0.66962	0.339	0.91998	-0.57
Mof_O 	O 	0.6753	0.4175	0.994	-0.591
Mof_O 	O 	0.5163	0.4142	0.9893	-0.366
Mof_O 	O 	0.6001	0.4135	0.07	-0.454
Mof_O 	O 	0.9243	0.4541	0.91762	-0.592
Mof_O 	O 	0.0169	0.3891	0.9471	-0.588
Mof_O 	O 	0.1239	0.3997	0.9508	-0.447
Mof_O 	O 	0.0875	0.5597	0.8566	-0.448
Mof_O 	O 	0.5054	0.501	0.0703	-0.445
Mof_O 	O 	0.1389	0.5153	0.0474	-0.456
Mof_O 	O 	0.4935	0.3178	0.0225	-0.447
Mof_O 	O 	0.8529	0.3622	0.9166	-0.51
Mof_O 	O 	0.122	0.4598	0.8657	-0.439
Mof_O 	O 	0.1776	0.489	0.9512	-0.429
Mof_O 	O 	0.4965	0.397	0.0919	-0.43
Mof_O 	O 	0.8247	0.4484	0.989	-0.527
Mof_O 	O 	0.4179	0.3908	0.0194	-0.426
Mof_O 	O 	0.7675	0.3461	0.9919	-0.517
Mof_O 	O 	0.0731	0.4923	0.954	-0.367
Mof_N 	N 	0.694	0.3246	0.0826	-0.361
Mof_H 	H 	0.7203	0.3464	0.0942	0.096
Mof_H 	H 	0.6634	0.3338	0.0994	0.081
Mof_N 	N 	0.6857	0.25	0.0014	-0.307
Mof_H 	H 	0.6603	0.2368	0.9794	0.112
Mof_H 	H 	0.7179	0.2377	0.9905	0.096
Mof_N 	N 	0.9445	0.2907	0.9458	-0.268
Mof_H 	H 	0.9699	0.2856	0.9709	0.098
Mof_H 	H 	0.9135	0.2766	0.9577	0.09
Mof_N 	N 	0.949	0.3467	0.8505	-0.4
Mof_H 	H 	0.9211	0.3562	0.8297	0.106
Mof_H 	H 	0.9787	0.3627	0.8377	0.082
Mof_C 	C 	0.7076	0.268	0.0947	0.22
Mof_H 	H 	0.7458	0.2623	0.0877	-0.058
Mof_C 	C 	0.6754	0.2332	0.057	-0.212
Mof_H 	H 	0.6855	0.1959	0.0615	0.079
Mof_H 	H 	0.6374	0.2366	0.0649	0.057
Mof_C 	C 	0.6962	0.2545	0.1532	-0.644
Mof_H 	H 	0.7188	0.2758	0.1759	0.193
Mof_H 	H 	0.7033	0.2171	0.1593	0.189
Mof_H 	H 	0.6592	0.262	0.1611	0.181
Mof_C 	C 	0.9556	0.289	0.8499	0.438
Mof_H 	H 	0.9171	0.2816	0.8467	-0.094
Mof_C 	C 	0.9603	0.2654	0.8953	-0.447
Mof_H 	H 	0.9978	0.2557	0.8989	0.124
Mof_H 	H 	0.9404	0.2321	0.8927	0.154
Mof_C 	C 	0.9697	0.2633	0.7974	-0.907
Mof_H 	H 	0.9723	0.2252	0.802	0.265
Mof_H 	H 	0.0034	0.2772	0.785	0.255
Mof_H 	H 	0.9422	0.2712	0.7715	0.269
Mof_Ni	Ni	0.32681	0.91952	0.58987	1.103
Mof_Ni	Ni	0.31533	0.83283	0.50013	1.083
Mof_Ni	Ni	0.06455	0.87071	0.57022	1.083
Mof_Ni	Ni	0.09643	0.97227	0.50438	1.102
Mof_W 	W 	0.44656	0.85368	0.44559	0.949
Mof_W 	W 	0.54811	0.94738	0.4429	0.985
Mof_W 	W 	0.54662	0.84592	0.53758	0.966
Mof_W 	W 	0.85569	0.02515	0.60682	0.993
Mof_W 	W 	0.93134	0.91008	0.59962	0.943
Mof_W 	W 	0.86002	0.94978	0.49048	0.962
Mof_W 	W 	0.20057	0.89493	0.54908	1.116
Mof_O 	O 	0.4015	0.832	0.4982	-0.582
Mof_O 	O 	0.07342	0.89535	0.49192	-0.57
Mof_O 	O 	0.2462	0.9194	0.5976	-0.524
Mof_O 	O 	0.33038	0.839	0.58002	-0.57
Mof_O 	O 	0.3247	0.9175	0.506	-0.591
Mof_O 	O 	0.4837	0.9142	0.5107	-0.366
Mof_O 	O 	0.3999	0.9135	0.43	-0.454
Mof_O 	O 	0.0757	0.9541	0.58238	-0.592
Mof_O 	O 	0.9831	0.8891	0.5529	-0.588
Mof_O 	O 	0.8761	0.8997	0.5492	-0.447
Mof_O 	O 	0.9125	0.0597	0.6434	-0.448
Mof_O 	O 	0.4946	0.001	0.4297	-0.446
Mof_O 	O 	0.8611	0.0153	0.4526	-0.455
Mof_O 	O 	0.5065	0.8178	0.4775	-0.446
Mof_O 	O 	0.1471	0.8622	0.5834	-0.51
Mof_O 	O 	0.878	0.9598	0.6343	-0.44
Mof_O 	O 	0.8224	0.989	0.5488	-0.43
Mof_O 	O 	0.5035	0.897	0.4081	-0.43
Mof_O 	O 	0.1753	0.9484	0.511	-0.527
Mof_O 	O 	0.5821	0.8908	0.4806	-0.426
Mof_O 	O 	0.2325	0.8461	0.5081	-0.516
Mof_O 	O 	0.9269	0.9923	0.546	-0.368
Mof_N 	N 	0.306	0.8246	0.4174	-0.361
Mof_H 	H 	0.2797	0.8464	0.4058	0.096
Mof_H 	H 	0.3366	0.8338	0.4006	0.081
Mof_N 	N 	0.3143	0.75	0.4986	-0.308
Mof_H 	H 	0.3397	0.7368	0.5206	0.112
Mof_H 	H 	0.2821	0.7377	0.5095	0.096
Mof_N 	N 	0.0555	0.7907	0.5542	-0.268
Mof_H 	H 	0.0301	0.7856	0.5291	0.098
Mof_H 	H 	0.0865	0.7766	0.5423	0.09
Mof_N 	N 	0.051	0.8467	0.6495	-0.399
Mof_H 	H 	0.0789	0.8562	0.6703	0.106
Mof_H 	H 	0.0213	0.8627	0.6623	0.082
Mof_C 	C 	0.2924	0.768	0.4053	0.22
Mof_H 	H 	0.2542	0.7623	0.4123	-0.058
Mof_C 	C 	0.3246	0.7332	0.443	-0.212
Mof_H 	H 	0.3145	0.6959	0.4385	0.079
Mof_H 	H 	0.3626	0.7366	0.4351	0.057
Mof_C 	C 	0.3038	0.7545	0.3468	-0.644
Mof_H 	H 	0.2812	0.7758	0.3241	0.193
Mof_H 	H 	0.2967	0.7171	0.3407	0.189
Mof_H 	H 	0.3408	0.762	0.3389	0.181
Mof_C 	C 	0.0444	0.789	0.6501	0.436
Mof_H 	H 	0.0829	0.7816	0.6533	-0.094
Mof_C 	C 	0.0397	0.7654	0.6047	-0.445
Mof_H 	H 	0.0022	0.7557	0.6011	0.124
Mof_H 	H 	0.0596	0.7321	0.6073	0.153
Mof_C 	C 	0.0303	0.7633	0.7026	-0.902
Mof_H 	H 	0.0277	0.7252	0.698	0.264
Mof_H 	H 	0.9966	0.7772	0.715	0.253
Mof_H 	H 	0.0578	0.7712	0.7285	0.267
Mof_Ni	Ni	0.82681	0.58048	0.41013	1.103
Mof_Ni	Ni	0.81533	0.66717	0.49987	1.083
Mof_Ni	Ni	0.56455	0.62929	0.42978	1.083
Mof_Ni	Ni	0.59643	0.52773	0.49562	1.102
Mof_W 	W 	0.94656	0.64632	0.55441	0.949
Mof_W 	W 	0.04811	0.55262	0.5571	0.985
Mof_W 	W 	0.04662	0.65408	0.46242	0.966
Mof_W 	W 	0.35569	0.47485	0.39318	0.992
Mof_W 	W 	0.43134	0.58992	0.40038	0.943
Mof_W 	W 	0.36002	0.55022	0.50952	0.962
Mof_W 	W 	0.70057	0.60507	0.45092	1.116
Mof_O 	O 	0.9015	0.668	0.5018	-0.582
Mof_O 	O 	0.57342	0.60465	0.50808	-0.57
Mof_O 	O 	0.7462	0.5806	0.4024	-0.524
Mof_O 	O 	0.83038	0.661	0.41998	-0.57
Mof_O 	O 	0.8247	0.5825	0.494	-0.591
Mof_O 	O 	0.9837	0.5858	0.4893	-0.366
Mof_O 	O 	0.8999	0.5865	0.57	-0.454
Mof_O 	O 	0.5757	0.5459	0.41762	-0.592
Mof_O 	O 	0.4831	0.6109	0.4471	-0.588
Mof_O 	O 	0.3761	0.6003	0.4508	-0.447
Mof_O 	O 	0.4125	0.4403	0.3566	-0.448
Mof_O 	O 	0.9946	0.499	0.5703	-0.446
Mof_O 	O 	0.3611	0.4847	0.5474	-0.456
Mof_O 	O 	0.0065	0.6822	0.5225	-0.446
Mof_O 	O 	0.6471	0.6378	0.4166	-0.51
Mof_O 	O 	0.378	0.5402	0.3657	-0.439
Mof_O 	O 	0.3224	0.511	0.4512	-0.429
Mof_O 	O 	0.0035	0.603	0.5919	-0.43
Mof_O 	O 	0.6753	0.5516	0.489	-0.527
Mof_O 	O 	0.0821	0.6092	0.5194	-0.426
Mof_O 	O 	0.7325	0.6539	0.4919	-0.516
Mof_O 	O 	0.4269	0.5077	0.454	-0.367
Mof_N 	N 	0.806	0.6754	0.5826	-0.361
Mof_H 	H 	0.7797	0.6536	0.5942	0.096
Mof_H 	H 	0.8366	0.6662	0.5994	0.081
Mof_N 	N 	0.8143	0.75	0.5014	-0.308
Mof_H 	H 	0.8397	0.7632	0.4794	0.112
Mof_H 	H 	0.7821	0.7623	0.4905	0.096
Mof_N 	N 	0.5555	0.7093	0.4458	-0.268
Mof_H 	H 	0.5301	0.7144	0.4709	0.098
Mof_H 	H 	0.5865	0.7234	0.4577	0.09
Mof_N 	N 	0.551	0.6533	0.3505	-0.4
Mof_H 	H 	0.5789	0.6438	0.3297	0.106
Mof_H 	H 	0.5213	0.6373	0.3377	0.082
Mof_C 	C 	0.7924	0.732	0.5947	0.22
Mof_H 	H 	0.7542	0.7377	0.5877	-0.058
Mof_C 	C 	0.8246	0.7668	0.557	-0.212
Mof_H 	H 	0.8145	0.8041	0.5615	0.079
Mof_H 	H 	0.8626	0.7634	0.5649	0.057
Mof_C 	C 	0.8038	0.7455	0.6532	-0.643
Mof_H 	H 	0.7812	0.7242	0.6759	0.193
Mof_H 	H 	0.7967	0.7829	0.6593	0.189
Mof_H 	H 	0.8408	0.738	0.6611	0.181
Mof_C 	C 	0.5444	0.711	0.3499	0.438
Mof_H 	H 	0.5829	0.7184	0.3467	-0.094
Mof_C 	C 	0.5397	0.7346	0.3953	-0.447
Mof_H 	H 	0.5022	0.7443	0.3989	0.124
Mof_H 	H 	0.5596	0.7679	0.3927	0.154
Mof_C 	C 	0.5303	0.7367	0.2974	-0.906
Mof_H 	H 	0.5277	0.7748	0.302	0.265
Mof_H 	H 	0.4966	0.7228	0.285	0.255
Mof_H 	H 	0.5578	0.7288	0.2715	0.268
Mof_Ni	Ni	0.08987	0.17319	0.08048	1.103
Mof_Ni	Ni	0.00013	0.18467	0.16717	1.082
Mof_Ni	Ni	0.07022	0.43545	0.12929	1.083
Mof_Ni	Ni	0.00438	0.40357	0.02773	1.102
Mof_W 	W 	0.94559	0.05344	0.14632	0.949
Mof_W 	W 	0.9429	0.95188	0.05262	0.985
Mof_W 	W 	0.03758	0.95338	0.15408	0.967
Mof_W 	W 	0.10682	0.64431	0.97485	0.992
Mof_W 	W 	0.09962	0.56866	0.08992	0.943
Mof_W 	W 	0.99048	0.63998	0.05022	0.962
Mof_W 	W 	0.04908	0.29943	0.10507	1.116
Mof_O 	O 	0.9982	0.0985	0.168	-0.582
Mof_O 	O 	0.99192	0.42658	0.10465	-0.57
Mof_O 	O 	0.0976	0.2538	0.0806	-0.524
Mof_O 	O 	0.08002	0.16962	0.161	-0.57
Mof_O 	O 	0.006	0.1753	0.0825	-0.592
Mof_O 	O 	0.0107	0.0163	0.0858	-0.366
Mof_O 	O 	0.93	0.1001	0.0865	-0.454
Mof_O 	O 	0.08238	0.4243	0.0459	-0.592
Mof_O 	O 	0.0529	0.5169	0.1109	-0.588
Mof_O 	O 	0.0492	0.6239	0.1003	-0.447
Mof_O 	O 	0.1434	0.5875	0.9403	-0.448
Mof_O 	O 	0.9297	0.0054	0.999	-0.446
Mof_O 	O 	0.9526	0.6389	0.9847	-0.456
Mof_O 	O 	0.9775	0.9935	0.1822	-0.447
Mof_O 	O 	0.0834	0.3529	0.1378	-0.51
Mof_O 	O 	0.1343	0.622	0.0402	-0.44
Mof_O 	O 	0.0488	0.6776	0.011	-0.429
Mof_O 	O 	0.9081	0.9965	0.103	-0.43
Mof_O 	O 	0.011	0.3247	0.0516	-0.527
Mof_O 	O 	0.9806	0.9179	0.1092	-0.426
Mof_O 	O 	0.0081	0.2675	0.1539	-0.517
Mof_O 	O 	0.046	0.5731	0.0077	-0.368
Mof_N 	N 	0.9174	0.194	0.1754	-0.361
Mof_H 	H 	0.9058	0.2203	0.1536	0.096
Mof_H 	H 	0.9006	0.1634	0.1662	0.081
Mof_N 	N 	0.9986	0.1857	0.25	-0.307
Mof_H 	H 	0.0206	0.1603	0.2632	0.112
Mof_H 	H 	0.0095	0.2179	0.2623	0.096
Mof_N 	N 	0.0542	0.4445	0.2093	-0.268
Mof_H 	H 	0.0291	0.4699	0.2144	0.098
Mof_H 	H 	0.0423	0.4135	0.2234	0.09
Mof_N 	N 	0.1495	0.449	0.1533	-0.4
Mof_H 	H 	0.1703	0.4211	0.1438	0.106
Mof_H 	H 	0.1623	0.4787	0.1373	0.082
Mof_C 	C 	0.9053	0.2076	0.232	0.22
Mof_H 	H 	0.9123	0.2458	0.2377	-0.058
Mof_C 	C 	0.943	0.1754	0.2668	-0.212
Mof_H 	H 	0.9385	0.1855	0.3041	0.079
Mof_H 	H 	0.9351	0.1374	0.2634	0.057
Mof_C 	C 	0.8468	0.1962	0.2455	-0.644
Mof_H 	H 	0.8241	0.2188	0.2242	0.193
Mof_H 	H 	0.8407	0.2033	0.2829	0.189
Mof_H 	H 	0.8389	0.1592	0.238	0.181
Mof_C 	C 	0.1501	0.4556	0.211	0.438
Mof_H 	H 	0.1533	0.4171	0.2184	-0.094
Mof_C 	C 	0.1047	0.4603	0.2346	-0.447
Mof_H 	H 	0.1011	0.4978	0.2443	0.124
Mof_H 	H 	0.1073	0.4404	0.2679	0.154
Mof_C 	C 	0.2026	0.4697	0.2367	-0.906
Mof_H 	H 	0.198	0.4723	0.2748	0.265
Mof_H 	H 	0.215	0.5034	0.2228	0.255
Mof_H 	H 	0.2285	0.4422	0.2288	0.268
Mof_Ni	Ni	0.91013	0.67319	0.41952	1.103
Mof_Ni	Ni	0.99987	0.68467	0.33283	1.082
Mof_Ni	Ni	0.92978	0.93545	0.37071	1.083
Mof_Ni	Ni	0.99562	0.90357	0.47227	1.101
Mof_W 	W 	0.05441	0.55344	0.35368	0.949
Mof_W 	W 	0.0571	0.45188	0.44738	0.985
Mof_W 	W 	0.96242	0.45338	0.34592	0.966
Mof_W 	W 	0.89318	0.14431	0.52515	0.992
Mof_W 	W 	0.90038	0.06866	0.41008	0.943
Mof_W 	W 	0.00952	0.13998	0.44978	0.961
Mof_W 	W 	0.95092	0.79943	0.39493	1.116
Mof_O 	O 	0.0018	0.5985	0.332	-0.582
Mof_O 	O 	0.00808	0.92658	0.39535	-0.57
Mof_O 	O 	0.9024	0.7538	0.4194	-0.524
Mof_O 	O 	0.91998	0.66962	0.339	-0.57
Mof_O 	O 	0.994	0.6753	0.4175	-0.591
Mof_O 	O 	0.9893	0.5163	0.4142	-0.366
Mof_O 	O 	0.07	0.6001	0.4135	-0.454
Mof_O 	O 	0.91762	0.9243	0.4541	-0.592
Mof_O 	O 	0.9471	0.0169	0.3891	-0.588
Mof_O 	O 	0.9508	0.1239	0.3997	-0.447
Mof_O 	O 	0.8566	0.0875	0.5597	-0.448
Mof_O 	O 	0.0703	0.5054	0.501	-0.445
Mof_O 	O 	0.0474	0.1389	0.5153	-0.456
Mof_O 	O 	0.0225	0.4935	0.3178	-0.447
Mof_O 	O 	0.9166	0.8529	0.3622	-0.51
Mof_O 	O 	0.8657	0.122	0.4598	-0.439
Mof_O 	O 	0.9512	0.1776	0.489	-0.429
Mof_O 	O 	0.0919	0.4965	0.397	-0.43
Mof_O 	O 	0.989	0.8247	0.4484	-0.527
Mof_O 	O 	0.0194	0.4179	0.3908	-0.426
Mof_O 	O 	0.9919	0.7675	0.3461	-0.517
Mof_O 	O 	0.954	0.0731	0.4923	-0.367
Mof_N 	N 	0.0826	0.694	0.3246	-0.361
Mof_H 	H 	0.0942	0.7203	0.3464	0.096
Mof_H 	H 	0.0994	0.6634	0.3338	0.081
Mof_N 	N 	0.0014	0.6857	0.25	-0.307
Mof_H 	H 	0.9794	0.6603	0.2368	0.112
Mof_H 	H 	0.9905	0.7179	0.2377	0.096
Mof_N 	N 	0.9458	0.9445	0.2907	-0.268
Mof_H 	H 	0.9709	0.9699	0.2856	0.098
Mof_H 	H 	0.9577	0.9135	0.2766	0.09
Mof_N 	N 	0.8505	0.949	0.3467	-0.4
Mof_H 	H 	0.8297	0.9211	0.3562	0.106
Mof_H 	H 	0.8377	0.9787	0.3627	0.082
Mof_C 	C 	0.0947	0.7076	0.268	0.22
Mof_H 	H 	0.0877	0.7458	0.2623	-0.058
Mof_C 	C 	0.057	0.6754	0.2332	-0.212
Mof_H 	H 	0.0615	0.6855	0.1959	0.079
Mof_H 	H 	0.0649	0.6374	0.2366	0.057
Mof_C 	C 	0.1532	0.6962	0.2545	-0.644
Mof_H 	H 	0.1759	0.7188	0.2758	0.193
Mof_H 	H 	0.1593	0.7033	0.2171	0.189
Mof_H 	H 	0.1611	0.6592	0.262	0.181
Mof_C 	C 	0.8499	0.9556	0.289	0.438
Mof_H 	H 	0.8467	0.9171	0.2816	-0.094
Mof_C 	C 	0.8953	0.9603	0.2654	-0.447
Mof_H 	H 	0.8989	0.9978	0.2557	0.124
Mof_H 	H 	0.8927	0.9404	0.2321	0.154
Mof_C 	C 	0.7974	0.9697	0.2633	-0.907
Mof_H 	H 	0.802	0.9723	0.2252	0.265
Mof_H 	H 	0.785	0.0034	0.2772	0.255
Mof_H 	H 	0.7715	0.9422	0.2712	0.269
Mof_Ni	Ni	0.58987	0.32681	0.91952	1.103
Mof_Ni	Ni	0.50013	0.31533	0.83283	1.083
Mof_Ni	Ni	0.57022	0.06455	0.87071	1.083
Mof_Ni	Ni	0.50438	0.09643	0.97227	1.102
Mof_W 	W 	0.44559	0.44656	0.85368	0.949
Mof_W 	W 	0.4429	0.54811	0.94738	0.985
Mof_W 	W 	0.53758	0.54662	0.84592	0.966
Mof_W 	W 	0.60682	0.85569	0.02515	0.993
Mof_W 	W 	0.59962	0.93134	0.91008	0.943
Mof_W 	W 	0.49048	0.86002	0.94978	0.962
Mof_W 	W 	0.54908	0.20057	0.89493	1.116
Mof_O 	O 	0.4982	0.4015	0.832	-0.582
Mof_O 	O 	0.49192	0.07342	0.89535	-0.57
Mof_O 	O 	0.5976	0.2462	0.9194	-0.524
Mof_O 	O 	0.58002	0.33038	0.839	-0.57
Mof_O 	O 	0.506	0.3247	0.9175	-0.591
Mof_O 	O 	0.5107	0.4837	0.9142	-0.366
Mof_O 	O 	0.43	0.3999	0.9135	-0.454
Mof_O 	O 	0.58238	0.0757	0.9541	-0.592
Mof_O 	O 	0.5529	0.9831	0.8891	-0.588
Mof_O 	O 	0.5492	0.8761	0.8997	-0.447
Mof_O 	O 	0.6434	0.9125	0.0597	-0.448
Mof_O 	O 	0.4297	0.4946	0.001	-0.446
Mof_O 	O 	0.4526	0.8611	0.0153	-0.455
Mof_O 	O 	0.4775	0.5065	0.8178	-0.446
Mof_O 	O 	0.5834	0.1471	0.8622	-0.51
Mof_O 	O 	0.6343	0.878	0.9598	-0.44
Mof_O 	O 	0.5488	0.8224	0.989	-0.43
Mof_O 	O 	0.4081	0.5035	0.897	-0.43
Mof_O 	O 	0.511	0.1753	0.9484	-0.527
Mof_O 	O 	0.4806	0.5821	0.8908	-0.426
Mof_O 	O 	0.5081	0.2325	0.8461	-0.516
Mof_O 	O 	0.546	0.9269	0.9923	-0.368
Mof_N 	N 	0.4174	0.306	0.8246	-0.361
Mof_H 	H 	0.4058	0.2797	0.8464	0.096
Mof_H 	H 	0.4006	0.3366	0.8338	0.081
Mof_N 	N 	0.4986	0.3143	0.75	-0.308
Mof_H 	H 	0.5206	0.3397	0.7368	0.112
Mof_H 	H 	0.5095	0.2821	0.7377	0.096
Mof_N 	N 	0.5542	0.0555	0.7907	-0.268
Mof_H 	H 	0.5291	0.0301	0.7856	0.098
Mof_H 	H 	0.5423	0.0865	0.7766	0.09
Mof_N 	N 	0.6495	0.051	0.8467	-0.399
Mof_H 	H 	0.6703	0.0789	0.8562	0.106
Mof_H 	H 	0.6623	0.0213	0.8627	0.082
Mof_C 	C 	0.4053	0.2924	0.768	0.22
Mof_H 	H 	0.4123	0.2542	0.7623	-0.058
Mof_C 	C 	0.443	0.3246	0.7332	-0.212
Mof_H 	H 	0.4385	0.3145	0.6959	0.079
Mof_H 	H 	0.4351	0.3626	0.7366	0.057
Mof_C 	C 	0.3468	0.3038	0.7545	-0.644
Mof_H 	H 	0.3241	0.2812	0.7758	0.193
Mof_H 	H 	0.3407	0.2967	0.7171	0.189
Mof_H 	H 	0.3389	0.3408	0.762	0.181
Mof_C 	C 	0.6501	0.0444	0.789	0.436
Mof_H 	H 	0.6533	0.0829	0.7816	-0.094
Mof_C 	C 	0.6047	0.0397	0.7654	-0.445
Mof_H 	H 	0.6011	0.0022	0.7557	0.124
Mof_H 	H 	0.6073	0.0596	0.7321	0.153
Mof_C 	C 	0.7026	0.0303	0.7633	-0.902
Mof_H 	H 	0.698	0.0277	0.7252	0.264
Mof_H 	H 	0.715	0.9966	0.7772	0.253
Mof_H 	H 	0.7285	0.0578	0.7712	0.267
Mof_Ni	Ni	0.41013	0.82681	0.58048	1.103
Mof_Ni	Ni	0.49987	0.81533	0.66717	1.083
Mof_Ni	Ni	0.42978	0.56455	0.62929	1.083
Mof_Ni	Ni	0.49562	0.59643	0.52773	1.102
Mof_W 	W 	0.55441	0.94656	0.64632	0.949
Mof_W 	W 	0.5571	0.04811	0.55262	0.985
Mof_W 	W 	0.46242	0.04662	0.65408	0.966
Mof_W 	W 	0.39318	0.35569	0.47485	0.992
Mof_W 	W 	0.40038	0.43134	0.58992	0.943
Mof_W 	W 	0.50952	0.36002	0.55022	0.962
Mof_W 	W 	0.45092	0.70057	0.60507	1.116
Mof_O 	O 	0.5018	0.9015	0.668	-0.582
Mof_O 	O 	0.50808	0.57342	0.60465	-0.57
Mof_O 	O 	0.4024	0.7462	0.5806	-0.524
Mof_O 	O 	0.41998	0.83038	0.661	-0.57
Mof_O 	O 	0.494	0.8247	0.5825	-0.591
Mof_O 	O 	0.4893	0.9837	0.5858	-0.366
Mof_O 	O 	0.57	0.8999	0.5865	-0.454
Mof_O 	O 	0.41762	0.5757	0.5459	-0.592
Mof_O 	O 	0.4471	0.4831	0.6109	-0.588
Mof_O 	O 	0.4508	0.3761	0.6003	-0.447
Mof_O 	O 	0.3566	0.4125	0.4403	-0.448
Mof_O 	O 	0.5703	0.9946	0.499	-0.446
Mof_O 	O 	0.5474	0.3611	0.4847	-0.456
Mof_O 	O 	0.5225	0.0065	0.6822	-0.446
Mof_O 	O 	0.4166	0.6471	0.6378	-0.51
Mof_O 	O 	0.3657	0.378	0.5402	-0.439
Mof_O 	O 	0.4512	0.3224	0.511	-0.429
Mof_O 	O 	0.5919	0.0035	0.603	-0.43
Mof_O 	O 	0.489	0.6753	0.5516	-0.527
Mof_O 	O 	0.5194	0.0821	0.6092	-0.426
Mof_O 	O 	0.4919	0.7325	0.6539	-0.516
Mof_O 	O 	0.454	0.4269	0.5077	-0.367
Mof_N 	N 	0.5826	0.806	0.6754	-0.361
Mof_H 	H 	0.5942	0.7797	0.6536	0.096
Mof_H 	H 	0.5994	0.8366	0.6662	0.081
Mof_N 	N 	0.5014	0.8143	0.75	-0.308
Mof_H 	H 	0.4794	0.8397	0.7632	0.112
Mof_H 	H 	0.4905	0.7821	0.7623	0.096
Mof_N 	N 	0.4458	0.5555	0.7093	-0.268
Mof_H 	H 	0.4709	0.5301	0.7144	0.098
Mof_H 	H 	0.4577	0.5865	0.7234	0.09
Mof_N 	N 	0.3505	0.551	0.6533	-0.4
Mof_H 	H 	0.3297	0.5789	0.6438	0.106
Mof_H 	H 	0.3377	0.5213	0.6373	0.082
Mof_C 	C 	0.5947	0.7924	0.732	0.22
Mof_H 	H 	0.5877	0.7542	0.7377	-0.058
Mof_C 	C 	0.557	0.8246	0.7668	-0.212
Mof_H 	H 	0.5615	0.8145	0.8041	0.079
Mof_H 	H 	0.5649	0.8626	0.7634	0.057
Mof_C 	C 	0.6532	0.8038	0.7455	-0.643
Mof_H 	H 	0.6759	0.7812	0.7242	0.193
Mof_H 	H 	0.6593	0.7967	0.7829	0.189
Mof_H 	H 	0.6611	0.8408	0.738	0.181
Mof_C 	C 	0.3499	0.5444	0.711	0.438
Mof_H 	H 	0.3467	0.5829	0.7184	-0.094
Mof_C 	C 	0.3953	0.5397	0.7346	-0.447
Mof_H 	H 	0.3989	0.5022	0.7443	0.124
Mof_H 	H 	0.3927	0.5596	0.7679	0.154
Mof_C 	C 	0.2974	0.5303	0.7367	-0.906
Mof_H 	H 	0.302	0.5277	0.7748	0.265
Mof_H 	H 	0.285	0.4966	0.7228	0.255
Mof_H 	H 	0.2715	0.5578	0.7288	0.268
Mof_P 	P 	0.05054	0.05054	0.05054	0.507
Mof_O 	O 	0.087	0.087	0.087	-0.591
Mof_P 	P 	0.44946	0.94946	0.55054	0.507
Mof_O 	O 	0.413	0.913	0.587	-0.59
Mof_P 	P 	0.94946	0.55054	0.44946	0.507
Mof_O 	O 	0.913	0.587	0.413	-0.59
Mof_P 	P 	0.55054	0.44946	0.94946	0.507
Mof_O 	O 	0.587	0.413	0.913	-0.59
Mof_P 	P 	0.97601	0.02399	0.52399	0.536
Mof_O 	O 	0.01163	0.98837	0.48837	-0.588
Mof_P 	P 	0.52399	0.97601	0.02399	0.536
Mof_O 	O 	0.48837	0.01163	0.98837	-0.588
Mof_P 	P 	0.02399	0.52399	0.97601	0.536
Mof_O 	O 	0.98837	0.48837	0.01163	-0.588
Mof_P 	P 	0.47601	0.47601	0.47601	0.535
Mof_O 	O 	0.51163	0.51163	0.51163	-0.588
_end
