# CIF file generated by openbabel 3.1.0, see https://openbabel.org
data_I
_chemical_name_common 'image0'
_cell_length_a 34.8299
_cell_length_b 14.9133
_cell_length_c 31.5387
_cell_angle_alpha 90
_cell_angle_beta 102.403
_cell_angle_gamma 90
_space_group_name_H-M_alt 'P 1'
_space_group_name_Hall 'P 1'
loop_
    _symmetry_equiv_pos_as_xyz
    x,y,z
loop_
    _atom_site_label
    _atom_site_type_symbol
    _atom_site_fract_x
    _atom_site_fract_y
    _atom_site_fract_z
    _atom_site_occupancy
    Zn1      Zn       0.17160    0.37650    0.52205    1.000
    I1       I        0.23359    0.46690    0.54588    1.000
    I2       I        0.12596    0.39640    0.44794    1.000
    I3       I        0.85760    0.14430    0.75810    1.000
    I4       I        0.89370    0.98980    0.65160    1.000
    Zn2      Zn       0.07920    0.61700    0.34610    1.000
    I5       I        0.11320    0.49210    0.31650    1.000
    I6       I        0.01770    0.59920    0.37872    1.000
    Zn3      Zn       0.16950    0.08780    0.01850    1.000
    I7       I        0.12250    0.06750    0.94641    1.000
    I8       I        0.23040    0.99290    0.04302    1.000
    I9       I        0.35130    0.81420    0.25950    1.000
    I10      I        0.39286    0.97370    0.14814    1.000
    Zn4      Zn       0.07682    0.84700    0.84698    1.000
    I11      I        0.11039    0.96853    0.81301    1.000
    I12      I        0.01679    0.86460    0.87962    1.000
    Zn5      Zn       0.87479    0.13859    0.69006    1.000
    Zn6      Zn       0.37369    0.82400    0.18948    1.000
    N1       N        0.14180    0.39150    0.57120    1.000
    C1       C        0.10870    0.35300    0.56720    1.000
    H1       H        0.10100    0.31230    0.54360    1.000
    C2       C        0.08220    0.36600    0.59570    1.000
    H2       H        0.05690    0.33930    0.59010    1.000
    C3       C        0.09510    0.41930    0.63130    1.000
    C4       C        0.13240    0.46070    0.63750    1.000
    H3       H        0.14220    0.49820    0.66170    1.000
    C5       C        0.15320    0.44370    0.60680    1.000
    H4       H        0.17830    0.47120    0.61050    1.000
    N2       N        0.92240    0.22010    0.69260    1.000
    C6       C        0.93990    0.22600    0.65960    1.000
    H5       H        0.93010    0.18910    0.63520    1.000
    C7       C        0.97060    0.28000    0.65740    1.000
    H6       H        0.98060    0.28300    0.63170    1.000
    C8       C        0.98710    0.33100    0.69310    1.000
    C9       C        0.96810    0.32900    0.72760    1.000
    H7       H        0.97740    0.36630    0.75210    1.000
    C10      C        0.93550    0.27330    0.72730    1.000
    H8       H        0.92290    0.27320    0.75110    1.000
    N3       N        0.06910    0.74420    0.79920    1.000
    C11      C        0.03910    0.69310    0.79440    1.000
    H9       H        0.01960    0.70830    0.81010    1.000
    C12      C        0.03230    0.61740    0.76830    1.000
    H10      H        0.00930    0.58200    0.76680    1.000
    C13      C        0.05900    0.59580    0.74550    1.000
    C14      C        0.09120    0.65050    0.74850    1.000
    H11      H        0.11050    0.63980    0.73190    1.000
    C15      C        0.06980    0.43430    0.66200    1.000
    C16      C        0.09400    0.72310    0.77720    1.000
    H12      H        0.11670    0.75970    0.78050    1.000
    N4       N        0.04110    0.37600    0.66230    1.000
    C17      C        0.02030    0.39240    0.69220    1.000
    N5       N        0.02600    0.45840    0.72120    1.000
    C18      C        0.05430    0.51570    0.71650    1.000
    N6       N        0.07760    0.50610    0.68820    1.000
    N7       N        0.33240    0.70390    0.64510    1.000
    C19      C        0.31200    0.66070    0.60860    1.000
    H13      H        0.31880    0.60060    0.60330    1.000
    C20      C        0.28260    0.70160    0.58010    1.000
    H14      H        0.26790    0.66930    0.55610    1.000
    C21      C        0.27420    0.78950    0.58610    1.000
    C22      C        0.29510    0.83440    0.62190    1.000
    H15      H        0.28960    0.89540    0.62670    1.000
    C23      C        0.32440    0.78900    0.65080    1.000
    H16      H        0.33900    0.82010    0.67530    1.000
    N8       N        0.12100    0.68260    0.39260    1.000
    C24      C        0.14930    0.64250    0.41960    1.000
    H17      H        0.15340    0.58030    0.41580    1.000
    C25      C        0.17420    0.68810    0.45430    1.000
    H18      H        0.19540    0.65780    0.47270    1.000
    C26      C        0.16720    0.77540    0.46060    1.000
    C27      C        0.13710    0.81850    0.43250    1.000
    H19      H        0.13370    0.88160    0.43400    1.000
    C28      C        0.11190    0.76710    0.40190    1.000
    H20      H        0.08760    0.79210    0.38720    1.000
    N9       N        0.18570    0.23970    0.52790    1.000
    C29      C        0.16170    0.18410    0.50420    1.000
    H21      H        0.13920    0.20770    0.48480    1.000
    C30      C        0.16680    0.09410    0.50560    1.000
    H22      H        0.14790    0.05710    0.48750    1.000
    C31      C        0.19820    0.05560    0.53220    1.000
    C32      C        0.22520    0.11470    0.55810    1.000
    H23      H        0.24850    0.09340    0.57680    1.000
    C33      C        0.21560    0.20930    0.55460    1.000
    H24      H        0.23220    0.25030    0.57310    1.000
    C34      C        0.24220    0.83540    0.55480    1.000
    N10      N        0.22170    0.78370    0.52220    1.000
    C35      C        0.19170    0.82730    0.49660    1.000
    N11      N        0.18220    0.91350    0.50000    1.000
    C36      C        0.20660    0.95720    0.53220    1.000
    N12      N        0.23590    0.92350    0.56130    1.000
    N13      N        0.07020    0.71940    0.29940    1.000
    C37      C        0.09730    0.73980    0.27630    1.000
    H25      H        0.11980    0.70240    0.27900    1.000
    C38      C        0.09360    0.81470    0.24840    1.000
    H26      H        0.11330    0.82870    0.23280    1.000
    C39      C        0.06000    0.86750    0.24470    1.000
    C40      C        0.03090    0.84390    0.26840    1.000
    H27      H        0.00760    0.87880    0.26530    1.000
    C41      C        0.03620    0.77150    0.29550    1.000
    H28      H        0.01700    0.75670    0.31160    1.000
    N14      N        0.14090    0.06710    0.06990    1.000
    C42      C        0.10510    0.09940    0.06330    1.000
    H29      H        0.09560    0.13380    0.03790    1.000
    C43      C        0.08070    0.08520    0.09190    1.000
    H30      H        0.05460    0.10740    0.08520    1.000
    C44      C        0.09390    0.04010    0.12910    1.000
    C45      C        0.13170    0.01070    0.13740    1.000
    H31      H        0.14250    0.98020    0.16380    1.000
    C46      C        0.15480    0.02600    0.10660    1.000
    H32      H        0.18130    0.00580    0.11260    1.000
    N15      N        0.92310    0.24320    0.19260    1.000
    C47      C        0.93830    0.19380    0.22520    1.000
    H33      H        0.92740    0.19810    0.25030    1.000
    C48      C        0.96870    0.13540    0.22660    1.000
    H34      H        0.97710    0.09710    0.25090    1.000
    C49      C        0.98650    0.13340    0.19300    1.000
    C50      C        0.97040    0.18400    0.15720    1.000
    H35      H        0.97990    0.17990    0.13120    1.000
    C51      C        0.94000    0.24220    0.16010    1.000
    H36      H        0.93110    0.28320    0.13700    1.000
    C52      C        0.05440    0.94970    0.21670    1.000
    N16      N        0.07710    0.95720    0.18940    1.000
    C53      C        0.06900    0.02640    0.16160    1.000
    N17      N        0.03980    0.08470    0.16080    1.000
    C54      C        0.01990    0.07190    0.19170    1.000
    N18      N        0.02620    0.00600    0.22090    1.000
    N19      N        0.33260    0.75830    0.14290    1.000
    C55      C        0.31200    0.80080    0.10800    1.000
    H37      H        0.31800    0.86180    0.10350    1.000
    C56      C        0.28250    0.75920    0.07810    1.000
    H38      H        0.26830    0.79130    0.05370    1.000
    C57      C        0.27370    0.66950    0.08430    1.000
    C58      C        0.29580    0.62640    0.11960    1.000
    H39      H        0.29200    0.56450    0.12440    1.000
    C59      C        0.32400    0.67600    0.14810    1.000
    H40      H        0.33800    0.64650    0.17350    1.000
    N20      N        0.18570    0.22120    0.02860    1.000
    C60      C        0.21590    0.25880    0.05560    1.000
    H41      H        0.23460    0.22100    0.07350    1.000
    C61      C        0.22130    0.34860    0.05860    1.000
    H42      H        0.24200    0.37190    0.08050    1.000
    C62      C        0.19830    0.40560    0.03200    1.000
    C63      C        0.16640    0.36840    0.00250    1.000
    H43      H        0.14870    0.40620    0.98330    1.000
    N21      N        0.12080    0.78040    0.89170    1.000
    C64      C        0.16080    0.27750    0.00130    1.000
    H44      H        0.13920    0.25290    0.98100    1.000
    C65      C        0.15270    0.81860    0.91640    1.000
    H45      H        0.15980    0.87720    0.90920    1.000
    C66      C        0.17510    0.77690    0.95110    1.000
    H46      H        0.19640    0.80780    0.96910    1.000
    C67      C        0.16670    0.68760    0.96040    1.000
    C68      C        0.13530    0.64880    0.93250    1.000
    H47      H        0.12760    0.58910    0.93730    1.000
    C69      C        0.24110    0.62460    0.05370    1.000
    C70      C        0.11510    0.69630    0.89780    1.000
    H48      H        0.09580    0.66580    0.87700    1.000
    N22      N        0.23470    0.53910    0.05900    1.000
    C71      C        0.20460    0.50320    0.03030    1.000
    N23      N        0.18080    0.55090    0.00040    1.000
    C72      C        0.19060    0.63490    0.99690    1.000
    N24      N        0.22100    0.67610    0.02240    1.000
    Zn7      Zn       0.18730    0.37620    0.53640    1.000
    I13      I        0.25030    0.45210    0.56680    1.000
    I14      I        0.14430    0.41870    0.45880    1.000
    I15      I        0.85050    0.16320    0.76550    1.000
    I16      I        0.88530    0.99560    0.66110    1.000
    Zn8      Zn       0.08510    0.61550    0.34100    1.000
    I17      I        0.12490    0.50230    0.30720    1.000
    I18      I        0.02640    0.58330    0.37090    1.000
    Zn9      Zn       0.17800    0.08280    0.02800    1.000
    I19      I        0.13770    0.04940    0.95230    1.000
    I20      I        0.24350    0.00550    0.05760    1.000
    I21      I        0.37991    0.97242    0.16537    1.000
    I22      I        0.35370    0.80200    0.26210    1.000
    Zn10     Zn       0.09200    0.85230    0.83730    1.000
    I23      I        0.13270    0.95900    0.80332    1.000
    I24      I        0.03230    0.89020    0.86750    1.000
    Zn11     Zn       0.67160    0.87650    0.52205    1.000
    I25      I        0.73359    0.96690    0.54588    1.000
    I26      I        0.62596    0.89640    0.44794    1.000
    I27      I        0.35760    0.64430    0.75810    1.000
    I28      I        0.39370    0.48980    0.65160    1.000
    Zn12     Zn       0.57920    0.11700    0.34610    1.000
    I29      I        0.61320    0.99210    0.31650    1.000
    I30      I        0.51770    0.09920    0.37872    1.000
    Zn13     Zn       0.66950    0.58780    0.01850    1.000
    I31      I        0.62250    0.56750    0.94641    1.000
    I32      I        0.73040    0.49290    0.04302    1.000
    I33      I        0.85130    0.31420    0.25950    1.000
    I34      I        0.89286    0.47370    0.14814    1.000
    Zn14     Zn       0.57682    0.34700    0.84698    1.000
    I35      I        0.61039    0.46853    0.81301    1.000
    I36      I        0.51679    0.36460    0.87962    1.000
    Zn15     Zn       0.37479    0.63859    0.69006    1.000
    Zn16     Zn       0.87369    0.32400    0.18948    1.000
    N25      N        0.64180    0.89150    0.57120    1.000
    C73      C        0.60870    0.85300    0.56720    1.000
    H49      H        0.60100    0.81230    0.54360    1.000
    C74      C        0.58220    0.86600    0.59570    1.000
    H50      H        0.55690    0.83930    0.59010    1.000
    C75      C        0.59510    0.91930    0.63130    1.000
    C76      C        0.63240    0.96070    0.63750    1.000
    H51      H        0.64220    0.99820    0.66170    1.000
    C77      C        0.65320    0.94370    0.60680    1.000
    H52      H        0.67830    0.97120    0.61050    1.000
    N26      N        0.42240    0.72010    0.69260    1.000
    C78      C        0.43990    0.72600    0.65960    1.000
    H53      H        0.43010    0.68910    0.63520    1.000
    C79      C        0.47060    0.78000    0.65740    1.000
    H54      H        0.48060    0.78300    0.63170    1.000
    C80      C        0.48710    0.83100    0.69310    1.000
    C81      C        0.46810    0.82900    0.72760    1.000
    H55      H        0.47740    0.86630    0.75210    1.000
    C82      C        0.43550    0.77330    0.72730    1.000
    H56      H        0.42290    0.77320    0.75110    1.000
    N27      N        0.56910    0.24420    0.79920    1.000
    C83      C        0.53910    0.19310    0.79440    1.000
    H57      H        0.51960    0.20830    0.81010    1.000
    C84      C        0.53230    0.11740    0.76830    1.000
    H58      H        0.50930    0.08200    0.76680    1.000
    C85      C        0.55900    0.09580    0.74550    1.000
    C86      C        0.59120    0.15050    0.74850    1.000
    H59      H        0.61050    0.13980    0.73190    1.000
    C87      C        0.56980    0.93430    0.66200    1.000
    C88      C        0.59400    0.22310    0.77720    1.000
    H60      H        0.61670    0.25970    0.78050    1.000
    N28      N        0.54110    0.87600    0.66230    1.000
    C89      C        0.52030    0.89240    0.69220    1.000
    N29      N        0.52600    0.95840    0.72120    1.000
    C90      C        0.55430    0.01570    0.71650    1.000
    N30      N        0.57760    0.00610    0.68820    1.000
    N31      N        0.83240    0.20390    0.64510    1.000
    C91      C        0.81200    0.16070    0.60860    1.000
    H61      H        0.81880    0.10060    0.60330    1.000
    C92      C        0.78260    0.20160    0.58010    1.000
    H62      H        0.76790    0.16930    0.55610    1.000
    C93      C        0.77420    0.28950    0.58610    1.000
    C94      C        0.79510    0.33440    0.62190    1.000
    H63      H        0.78960    0.39540    0.62670    1.000
    C95      C        0.82440    0.28900    0.65080    1.000
    H64      H        0.83900    0.32010    0.67530    1.000
    N32      N        0.62100    0.18260    0.39260    1.000
    C96      C        0.64930    0.14250    0.41960    1.000
    H65      H        0.65340    0.08030    0.41580    1.000
    C97      C        0.67420    0.18810    0.45430    1.000
    H66      H        0.69540    0.15780    0.47270    1.000
    C98      C        0.66720    0.27540    0.46060    1.000
    C99      C        0.63710    0.31850    0.43250    1.000
    H67      H        0.63370    0.38160    0.43400    1.000
    C100     C        0.61190    0.26710    0.40190    1.000
    H68      H        0.58760    0.29210    0.38720    1.000
    N33      N        0.68570    0.73970    0.52790    1.000
    C101     C        0.66170    0.68410    0.50420    1.000
    H69      H        0.63920    0.70770    0.48480    1.000
    C102     C        0.66680    0.59410    0.50560    1.000
    H70      H        0.64790    0.55710    0.48750    1.000
    C103     C        0.69820    0.55560    0.53220    1.000
    C104     C        0.72520    0.61470    0.55810    1.000
    H71      H        0.74850    0.59340    0.57680    1.000
    C105     C        0.71560    0.70930    0.55460    1.000
    H72      H        0.73220    0.75030    0.57310    1.000
    C106     C        0.74220    0.33540    0.55480    1.000
    N34      N        0.72170    0.28370    0.52220    1.000
    C107     C        0.69170    0.32730    0.49660    1.000
    N35      N        0.68220    0.41350    0.50000    1.000
    C108     C        0.70660    0.45720    0.53220    1.000
    N36      N        0.73590    0.42350    0.56130    1.000
    N37      N        0.57020    0.21940    0.29940    1.000
    C109     C        0.59730    0.23980    0.27630    1.000
    H73      H        0.61980    0.20240    0.27900    1.000
    C110     C        0.59360    0.31470    0.24840    1.000
    H74      H        0.61330    0.32870    0.23280    1.000
    C111     C        0.56000    0.36750    0.24470    1.000
    C112     C        0.53090    0.34390    0.26840    1.000
    H75      H        0.50760    0.37880    0.26530    1.000
    C113     C        0.53620    0.27150    0.29550    1.000
    H76      H        0.51700    0.25670    0.31160    1.000
    N38      N        0.64090    0.56710    0.06990    1.000
    C114     C        0.60510    0.59940    0.06330    1.000
    H77      H        0.59560    0.63380    0.03790    1.000
    C115     C        0.58070    0.58520    0.09190    1.000
    H78      H        0.55460    0.60740    0.08520    1.000
    C116     C        0.59390    0.54010    0.12910    1.000
    C117     C        0.63170    0.51070    0.13740    1.000
    H79      H        0.64250    0.48020    0.16380    1.000
    C118     C        0.65480    0.52600    0.10660    1.000
    H80      H        0.68130    0.50580    0.11260    1.000
    N39      N        0.42310    0.74320    0.19260    1.000
    C119     C        0.43830    0.69380    0.22520    1.000
    H81      H        0.42740    0.69810    0.25030    1.000
    C120     C        0.46870    0.63540    0.22660    1.000
    H82      H        0.47710    0.59710    0.25090    1.000
    C121     C        0.48650    0.63340    0.19300    1.000
    C122     C        0.47040    0.68400    0.15720    1.000
    H83      H        0.47990    0.67990    0.13120    1.000
    C123     C        0.44000    0.74220    0.16010    1.000
    H84      H        0.43110    0.78320    0.13700    1.000
    C124     C        0.55440    0.44970    0.21670    1.000
    N40      N        0.57710    0.45720    0.18940    1.000
    C125     C        0.56900    0.52640    0.16160    1.000
    N41      N        0.53980    0.58470    0.16080    1.000
    C126     C        0.51990    0.57190    0.19170    1.000
    N42      N        0.52620    0.50600    0.22090    1.000
    N43      N        0.83260    0.25830    0.14290    1.000
    C127     C        0.81200    0.30080    0.10800    1.000
    H85      H        0.81800    0.36180    0.10350    1.000
    C128     C        0.78250    0.25920    0.07810    1.000
    H86      H        0.76830    0.29130    0.05370    1.000
    C129     C        0.77370    0.16950    0.08430    1.000
    C130     C        0.79580    0.12640    0.11960    1.000
    H87      H        0.79200    0.06450    0.12440    1.000
    C131     C        0.82400    0.17600    0.14810    1.000
    H88      H        0.83800    0.14650    0.17350    1.000
    N44      N        0.68570    0.72120    0.02860    1.000
    C132     C        0.71590    0.75880    0.05560    1.000
    H89      H        0.73460    0.72100    0.07350    1.000
    C133     C        0.72130    0.84860    0.05860    1.000
    H90      H        0.74200    0.87190    0.08050    1.000
    C134     C        0.69830    0.90560    0.03200    1.000
    C135     C        0.66640    0.86840    0.00250    1.000
    H91      H        0.64870    0.90620    0.98330    1.000
    N45      N        0.62080    0.28040    0.89170    1.000
    C136     C        0.66080    0.77750    0.00130    1.000
    H92      H        0.63920    0.75290    0.98100    1.000
    C137     C        0.65270    0.31860    0.91640    1.000
    H93      H        0.65980    0.37720    0.90920    1.000
    C138     C        0.67510    0.27690    0.95110    1.000
    H94      H        0.69640    0.30780    0.96910    1.000
    C139     C        0.66670    0.18760    0.96040    1.000
    C140     C        0.63530    0.14880    0.93250    1.000
    H95      H        0.62760    0.08910    0.93730    1.000
    C141     C        0.74110    0.12460    0.05370    1.000
    C142     C        0.61510    0.19630    0.89780    1.000
    H96      H        0.59580    0.16580    0.87700    1.000
    N46      N        0.73470    0.03910    0.05900    1.000
    C143     C        0.70460    0.00320    0.03030    1.000
    N47      N        0.68080    0.05090    0.00040    1.000
    C144     C        0.69060    0.13490    0.99690    1.000
    N48      N        0.72100    0.17610    0.02240    1.000
    Zn17     Zn       0.68730    0.87620    0.53640    1.000
    I37      I        0.75030    0.95210    0.56680    1.000
    I38      I        0.64430    0.91870    0.45880    1.000
    I39      I        0.35050    0.66320    0.76550    1.000
    I40      I        0.38530    0.49560    0.66110    1.000
    Zn18     Zn       0.58510    0.11550    0.34100    1.000
    I41      I        0.62490    0.00230    0.30720    1.000
    I42      I        0.52640    0.08330    0.37090    1.000
    Zn19     Zn       0.67800    0.58280    0.02800    1.000
    I43      I        0.63770    0.54940    0.95230    1.000
    I44      I        0.74350    0.50550    0.05760    1.000
    I45      I        0.87991    0.47242    0.16537    1.000
    I46      I        0.85370    0.30200    0.26210    1.000
    Zn20     Zn       0.59200    0.35230    0.83730    1.000
    I47      I        0.63270    0.45900    0.80332    1.000
    I48      I        0.53230    0.39020    0.86750    1.000
    Zn21     Zn       0.82840    0.37650    0.47795    1.000
    I49      I        0.76641    0.46690    0.45412    1.000
    I50      I        0.87404    0.39640    0.55206    1.000
    I51      I        0.14240    0.14430    0.24190    1.000
    I52      I        0.10630    0.98980    0.34840    1.000
    Zn22     Zn       0.92080    0.61700    0.65390    1.000
    I53      I        0.88680    0.49210    0.68350    1.000
    I54      I        0.98230    0.59920    0.62128    1.000
    Zn23     Zn       0.83050    0.08780    0.98150    1.000
    I55      I        0.87750    0.06750    0.05359    1.000
    I56      I        0.76960    0.99290    0.95698    1.000
    I57      I        0.64870    0.81420    0.74050    1.000
    I58      I        0.60714    0.97370    0.85186    1.000
    Zn24     Zn       0.92318    0.84700    0.15302    1.000
    I59      I        0.88961    0.96853    0.18699    1.000
    I60      I        0.98321    0.86460    0.12038    1.000
    Zn25     Zn       0.12521    0.13859    0.30994    1.000
    Zn26     Zn       0.62631    0.82400    0.81052    1.000
    N49      N        0.85820    0.39150    0.42880    1.000
    C145     C        0.89130    0.35300    0.43280    1.000
    H97      H        0.89900    0.31230    0.45640    1.000
    C146     C        0.91780    0.36600    0.40430    1.000
    H98      H        0.94310    0.33930    0.40990    1.000
    C147     C        0.90490    0.41930    0.36870    1.000
    C148     C        0.86760    0.46070    0.36250    1.000
    H99      H        0.85780    0.49820    0.33830    1.000
    C149     C        0.84680    0.44370    0.39320    1.000
    H100     H        0.82170    0.47120    0.38950    1.000
    N50      N        0.07760    0.22010    0.30740    1.000
    C150     C        0.06010    0.22600    0.34040    1.000
    H101     H        0.06990    0.18910    0.36480    1.000
    C151     C        0.02940    0.28000    0.34260    1.000
    H102     H        0.01940    0.28300    0.36830    1.000
    C152     C        0.01290    0.33100    0.30690    1.000
    C153     C        0.03190    0.32900    0.27240    1.000
    H103     H        0.02260    0.36630    0.24790    1.000
    C154     C        0.06450    0.27330    0.27270    1.000
    H104     H        0.07710    0.27320    0.24890    1.000
    N51      N        0.93090    0.74420    0.20080    1.000
    C155     C        0.96090    0.69310    0.20560    1.000
    H105     H        0.98040    0.70830    0.18990    1.000
    C156     C        0.96770    0.61740    0.23170    1.000
    H106     H        0.99070    0.58200    0.23320    1.000
    C157     C        0.94100    0.59580    0.25450    1.000
    C158     C        0.90880    0.65050    0.25150    1.000
    H107     H        0.88950    0.63980    0.26810    1.000
    C159     C        0.93020    0.43430    0.33800    1.000
    C160     C        0.90600    0.72310    0.22280    1.000
    H108     H        0.88330    0.75970    0.21950    1.000
    N52      N        0.95890    0.37600    0.33770    1.000
    C161     C        0.97970    0.39240    0.30780    1.000
    N53      N        0.97400    0.45840    0.27880    1.000
    C162     C        0.94570    0.51570    0.28350    1.000
    N54      N        0.92240    0.50610    0.31180    1.000
    N55      N        0.66760    0.70390    0.35490    1.000
    C163     C        0.68800    0.66070    0.39140    1.000
    H109     H        0.68120    0.60060    0.39670    1.000
    C164     C        0.71740    0.70160    0.41990    1.000
    H110     H        0.73210    0.66930    0.44390    1.000
    C165     C        0.72580    0.78950    0.41390    1.000
    C166     C        0.70490    0.83440    0.37810    1.000
    H111     H        0.71040    0.89540    0.37330    1.000
    C167     C        0.67560    0.78900    0.34920    1.000
    H112     H        0.66100    0.82010    0.32470    1.000
    N56      N        0.87900    0.68260    0.60740    1.000
    C168     C        0.85070    0.64250    0.58040    1.000
    H113     H        0.84660    0.58030    0.58420    1.000
    C169     C        0.82580    0.68810    0.54570    1.000
    H114     H        0.80460    0.65780    0.52730    1.000
    C170     C        0.83280    0.77540    0.53940    1.000
    C171     C        0.86290    0.81850    0.56750    1.000
    H115     H        0.86630    0.88160    0.56600    1.000
    C172     C        0.88810    0.76710    0.59810    1.000
    H116     H        0.91240    0.79210    0.61280    1.000
    N57      N        0.81430    0.23970    0.47210    1.000
    C173     C        0.83830    0.18410    0.49580    1.000
    H117     H        0.86080    0.20770    0.51520    1.000
    C174     C        0.83320    0.09410    0.49440    1.000
    H118     H        0.85210    0.05710    0.51250    1.000
    C175     C        0.80180    0.05560    0.46780    1.000
    C176     C        0.77480    0.11470    0.44190    1.000
    H119     H        0.75150    0.09340    0.42320    1.000
    C177     C        0.78440    0.20930    0.44540    1.000
    H120     H        0.76780    0.25030    0.42690    1.000
    C178     C        0.75780    0.83540    0.44520    1.000
    N58      N        0.77830    0.78370    0.47780    1.000
    C179     C        0.80830    0.82730    0.50340    1.000
    N59      N        0.81780    0.91350    0.50000    1.000
    C180     C        0.79340    0.95720    0.46780    1.000
    N60      N        0.76410    0.92350    0.43870    1.000
    N61      N        0.92980    0.71940    0.70060    1.000
    C181     C        0.90270    0.73980    0.72370    1.000
    H121     H        0.88020    0.70240    0.72100    1.000
    C182     C        0.90640    0.81470    0.75160    1.000
    H122     H        0.88670    0.82870    0.76720    1.000
    C183     C        0.94000    0.86750    0.75530    1.000
    C184     C        0.96910    0.84390    0.73160    1.000
    H123     H        0.99240    0.87880    0.73470    1.000
    C185     C        0.96380    0.77150    0.70450    1.000
    H124     H        0.98300    0.75670    0.68840    1.000
    N62      N        0.85910    0.06710    0.93010    1.000
    C186     C        0.89490    0.09940    0.93670    1.000
    H125     H        0.90440    0.13380    0.96210    1.000
    C187     C        0.91930    0.08520    0.90810    1.000
    H126     H        0.94540    0.10740    0.91480    1.000
    C188     C        0.90610    0.04010    0.87090    1.000
    C189     C        0.86830    0.01070    0.86260    1.000
    H127     H        0.85750    0.98020    0.83620    1.000
    C190     C        0.84520    0.02600    0.89340    1.000
    H128     H        0.81870    0.00580    0.88740    1.000
    N63      N        0.07690    0.24320    0.80740    1.000
    C191     C        0.06170    0.19380    0.77480    1.000
    H129     H        0.07260    0.19810    0.74970    1.000
    C192     C        0.03130    0.13540    0.77340    1.000
    H130     H        0.02290    0.09710    0.74910    1.000
    C193     C        0.01350    0.13340    0.80700    1.000
    C194     C        0.02960    0.18400    0.84280    1.000
    H131     H        0.02010    0.17990    0.86880    1.000
    C195     C        0.06000    0.24220    0.83990    1.000
    H132     H        0.06890    0.28320    0.86300    1.000
    C196     C        0.94560    0.94970    0.78330    1.000
    N64      N        0.92290    0.95720    0.81060    1.000
    C197     C        0.93100    0.02640    0.83840    1.000
    N65      N        0.96020    0.08470    0.83920    1.000
    C198     C        0.98010    0.07190    0.80830    1.000
    N66      N        0.97380    0.00600    0.77910    1.000
    N67      N        0.66740    0.75830    0.85710    1.000
    C199     C        0.68800    0.80080    0.89200    1.000
    H133     H        0.68200    0.86180    0.89650    1.000
    C200     C        0.71750    0.75920    0.92190    1.000
    H134     H        0.73170    0.79130    0.94630    1.000
    C201     C        0.72630    0.66950    0.91570    1.000
    C202     C        0.70420    0.62640    0.88040    1.000
    H135     H        0.70800    0.56450    0.87560    1.000
    C203     C        0.67600    0.67600    0.85190    1.000
    H136     H        0.66200    0.64650    0.82650    1.000
    N68      N        0.81430    0.22120    0.97140    1.000
    C204     C        0.78410    0.25880    0.94440    1.000
    H137     H        0.76540    0.22100    0.92650    1.000
    C205     C        0.77870    0.34860    0.94140    1.000
    H138     H        0.75800    0.37190    0.91950    1.000
    C206     C        0.80170    0.40560    0.96800    1.000
    C207     C        0.83360    0.36840    0.99750    1.000
    H139     H        0.85130    0.40620    0.01670    1.000
    N69      N        0.87920    0.78040    0.10830    1.000
    C208     C        0.83920    0.27750    0.99870    1.000
    H140     H        0.86080    0.25290    0.01900    1.000
    C209     C        0.84730    0.81860    0.08360    1.000
    H141     H        0.84020    0.87720    0.09080    1.000
    C210     C        0.82490    0.77690    0.04890    1.000
    H142     H        0.80360    0.80780    0.03090    1.000
    C211     C        0.83330    0.68760    0.03960    1.000
    C212     C        0.86470    0.64880    0.06750    1.000
    H143     H        0.87240    0.58910    0.06270    1.000
    C213     C        0.75890    0.62460    0.94630    1.000
    C214     C        0.88490    0.69630    0.10220    1.000
    H144     H        0.90420    0.66580    0.12300    1.000
    N70      N        0.76530    0.53910    0.94100    1.000
    C215     C        0.79540    0.50320    0.96970    1.000
    N71      N        0.81920    0.55090    0.99960    1.000
    C216     C        0.80940    0.63490    0.00310    1.000
    N72      N        0.77900    0.67610    0.97760    1.000
    Zn27     Zn       0.81270    0.37620    0.46360    1.000
    I61      I        0.74970    0.45210    0.43320    1.000
    I62      I        0.85570    0.41870    0.54120    1.000
    I63      I        0.14950    0.16320    0.23450    1.000
    I64      I        0.11470    0.99560    0.33890    1.000
    Zn28     Zn       0.91490    0.61550    0.65900    1.000
    I65      I        0.87510    0.50230    0.69280    1.000
    I66      I        0.97360    0.58330    0.62910    1.000
    Zn29     Zn       0.82200    0.08280    0.97200    1.000
    I67      I        0.86230    0.04940    0.04770    1.000
    I68      I        0.75650    0.00550    0.94240    1.000
    I69      I        0.62009    0.97242    0.83463    1.000
    I70      I        0.64630    0.80200    0.73790    1.000
    Zn30     Zn       0.90800    0.85230    0.16270    1.000
    I71      I        0.86730    0.95900    0.19668    1.000
    I72      I        0.96770    0.89020    0.13250    1.000
    Zn31     Zn       0.32840    0.87650    0.47795    1.000
    I73      I        0.26641    0.96690    0.45412    1.000
    I74      I        0.37404    0.89640    0.55206    1.000
    I75      I        0.64240    0.64430    0.24190    1.000
    I76      I        0.60630    0.48980    0.34840    1.000
    Zn32     Zn       0.42080    0.11700    0.65390    1.000
    I77      I        0.38680    0.99210    0.68350    1.000
    I78      I        0.48230    0.09920    0.62128    1.000
    Zn33     Zn       0.33050    0.58780    0.98150    1.000
    I79      I        0.37750    0.56750    0.05359    1.000
    I80      I        0.26960    0.49290    0.95698    1.000
    I81      I        0.14870    0.31420    0.74050    1.000
    I82      I        0.10714    0.47370    0.85186    1.000
    Zn34     Zn       0.42318    0.34700    0.15302    1.000
    I83      I        0.38961    0.46853    0.18699    1.000
    I84      I        0.48321    0.36460    0.12038    1.000
    Zn35     Zn       0.62521    0.63859    0.30994    1.000
    Zn36     Zn       0.12631    0.32400    0.81052    1.000
    N73      N        0.35820    0.89150    0.42880    1.000
    C217     C        0.39130    0.85300    0.43280    1.000
    H145     H        0.39900    0.81230    0.45640    1.000
    C218     C        0.41780    0.86600    0.40430    1.000
    H146     H        0.44310    0.83930    0.40990    1.000
    C219     C        0.40490    0.91930    0.36870    1.000
    C220     C        0.36760    0.96070    0.36250    1.000
    H147     H        0.35780    0.99820    0.33830    1.000
    C221     C        0.34680    0.94370    0.39320    1.000
    H148     H        0.32170    0.97120    0.38950    1.000
    N74      N        0.57760    0.72010    0.30740    1.000
    C222     C        0.56010    0.72600    0.34040    1.000
    H149     H        0.56990    0.68910    0.36480    1.000
    C223     C        0.52940    0.78000    0.34260    1.000
    H150     H        0.51940    0.78300    0.36830    1.000
    C224     C        0.51290    0.83100    0.30690    1.000
    C225     C        0.53190    0.82900    0.27240    1.000
    H151     H        0.52260    0.86630    0.24790    1.000
    C226     C        0.56450    0.77330    0.27270    1.000
    H152     H        0.57710    0.77320    0.24890    1.000
    N75      N        0.43090    0.24420    0.20080    1.000
    C227     C        0.46090    0.19310    0.20560    1.000
    H153     H        0.48040    0.20830    0.18990    1.000
    C228     C        0.46770    0.11740    0.23170    1.000
    H154     H        0.49070    0.08200    0.23320    1.000
    C229     C        0.44100    0.09580    0.25450    1.000
    C230     C        0.40880    0.15050    0.25150    1.000
    H155     H        0.38950    0.13980    0.26810    1.000
    C231     C        0.43020    0.93430    0.33800    1.000
    C232     C        0.40600    0.22310    0.22280    1.000
    H156     H        0.38330    0.25970    0.21950    1.000
    N76      N        0.45890    0.87600    0.33770    1.000
    C233     C        0.47970    0.89240    0.30780    1.000
    N77      N        0.47400    0.95840    0.27880    1.000
    C234     C        0.44570    0.01570    0.28350    1.000
    N78      N        0.42240    0.00610    0.31180    1.000
    N79      N        0.16760    0.20390    0.35490    1.000
    C235     C        0.18800    0.16070    0.39140    1.000
    H157     H        0.18120    0.10060    0.39670    1.000
    C236     C        0.21740    0.20160    0.41990    1.000
    H158     H        0.23210    0.16930    0.44390    1.000
    C237     C        0.22580    0.28950    0.41390    1.000
    C238     C        0.20490    0.33440    0.37810    1.000
    H159     H        0.21040    0.39540    0.37330    1.000
    C239     C        0.17560    0.28900    0.34920    1.000
    H160     H        0.16100    0.32010    0.32470    1.000
    N80      N        0.37900    0.18260    0.60740    1.000
    C240     C        0.35070    0.14250    0.58040    1.000
    H161     H        0.34660    0.08030    0.58420    1.000
    C241     C        0.32580    0.18810    0.54570    1.000
    H162     H        0.30460    0.15780    0.52730    1.000
    C242     C        0.33280    0.27540    0.53940    1.000
    C243     C        0.36290    0.31850    0.56750    1.000
    H163     H        0.36630    0.38160    0.56600    1.000
    C244     C        0.38810    0.26710    0.59810    1.000
    H164     H        0.41240    0.29210    0.61280    1.000
    N81      N        0.31430    0.73970    0.47210    1.000
    C245     C        0.33830    0.68410    0.49580    1.000
    H165     H        0.36080    0.70770    0.51520    1.000
    C246     C        0.33320    0.59410    0.49440    1.000
    H166     H        0.35210    0.55710    0.51250    1.000
    C247     C        0.30180    0.55560    0.46780    1.000
    C248     C        0.27480    0.61470    0.44190    1.000
    H167     H        0.25150    0.59340    0.42320    1.000
    C249     C        0.28440    0.70930    0.44540    1.000
    H168     H        0.26780    0.75030    0.42690    1.000
    C250     C        0.25780    0.33540    0.44520    1.000
    N82      N        0.27830    0.28370    0.47780    1.000
    C251     C        0.30830    0.32730    0.50340    1.000
    N83      N        0.31780    0.41350    0.50000    1.000
    C252     C        0.29340    0.45720    0.46780    1.000
    N84      N        0.26410    0.42350    0.43870    1.000
    N85      N        0.42980    0.21940    0.70060    1.000
    C253     C        0.40270    0.23980    0.72370    1.000
    H169     H        0.38020    0.20240    0.72100    1.000
    C254     C        0.40640    0.31470    0.75160    1.000
    H170     H        0.38670    0.32870    0.76720    1.000
    C255     C        0.44000    0.36750    0.75530    1.000
    C256     C        0.46910    0.34390    0.73160    1.000
    H171     H        0.49240    0.37880    0.73470    1.000
    C257     C        0.46380    0.27150    0.70450    1.000
    H172     H        0.48300    0.25670    0.68840    1.000
    N86      N        0.35910    0.56710    0.93010    1.000
    C258     C        0.39490    0.59940    0.93670    1.000
    H173     H        0.40440    0.63380    0.96210    1.000
    C259     C        0.41930    0.58520    0.90810    1.000
    H174     H        0.44540    0.60740    0.91480    1.000
    C260     C        0.40610    0.54010    0.87090    1.000
    C261     C        0.36830    0.51070    0.86260    1.000
    H175     H        0.35750    0.48020    0.83620    1.000
    C262     C        0.34520    0.52600    0.89340    1.000
    H176     H        0.31870    0.50580    0.88740    1.000
    N87      N        0.57690    0.74320    0.80740    1.000
    C263     C        0.56170    0.69380    0.77480    1.000
    H177     H        0.57260    0.69810    0.74970    1.000
    C264     C        0.53130    0.63540    0.77340    1.000
    H178     H        0.52290    0.59710    0.74910    1.000
    C265     C        0.51350    0.63340    0.80700    1.000
    C266     C        0.52960    0.68400    0.84280    1.000
    H179     H        0.52010    0.67990    0.86880    1.000
    C267     C        0.56000    0.74220    0.83990    1.000
    H180     H        0.56890    0.78320    0.86300    1.000
    C268     C        0.44560    0.44970    0.78330    1.000
    N88      N        0.42290    0.45720    0.81060    1.000
    C269     C        0.43100    0.52640    0.83840    1.000
    N89      N        0.46020    0.58470    0.83920    1.000
    C270     C        0.48010    0.57190    0.80830    1.000
    N90      N        0.47380    0.50600    0.77910    1.000
    N91      N        0.16740    0.25830    0.85710    1.000
    C271     C        0.18800    0.30080    0.89200    1.000
    H181     H        0.18200    0.36180    0.89650    1.000
    C272     C        0.21750    0.25920    0.92190    1.000
    H182     H        0.23170    0.29130    0.94630    1.000
    C273     C        0.22630    0.16950    0.91570    1.000
    C274     C        0.20420    0.12640    0.88040    1.000
    H183     H        0.20800    0.06450    0.87560    1.000
    C275     C        0.17600    0.17600    0.85190    1.000
    H184     H        0.16200    0.14650    0.82650    1.000
    N92      N        0.31430    0.72120    0.97140    1.000
    C276     C        0.28410    0.75880    0.94440    1.000
    H185     H        0.26540    0.72100    0.92650    1.000
    C277     C        0.27870    0.84860    0.94140    1.000
    H186     H        0.25800    0.87190    0.91950    1.000
    C278     C        0.30170    0.90560    0.96800    1.000
    C279     C        0.33360    0.86840    0.99750    1.000
    H187     H        0.35130    0.90620    0.01670    1.000
    N93      N        0.37920    0.28040    0.10830    1.000
    C280     C        0.33920    0.77750    0.99870    1.000
    H188     H        0.36080    0.75290    0.01900    1.000
    C281     C        0.34730    0.31860    0.08360    1.000
    H189     H        0.34020    0.37720    0.09080    1.000
    C282     C        0.32490    0.27690    0.04890    1.000
    H190     H        0.30360    0.30780    0.03090    1.000
    C283     C        0.33330    0.18760    0.03960    1.000
    C284     C        0.36470    0.14880    0.06750    1.000
    H191     H        0.37240    0.08910    0.06270    1.000
    C285     C        0.25890    0.12460    0.94630    1.000
    C286     C        0.38490    0.19630    0.10220    1.000
    H192     H        0.40420    0.16580    0.12300    1.000
    N94      N        0.26530    0.03910    0.94100    1.000
    C287     C        0.29540    0.00320    0.96970    1.000
    N95      N        0.31920    0.05090    0.99960    1.000
    C288     C        0.30940    0.13490    0.00310    1.000
    N96      N        0.27900    0.17610    0.97760    1.000
    Zn37     Zn       0.31270    0.87620    0.46360    1.000
    I85      I        0.24970    0.95210    0.43320    1.000
    I86      I        0.35570    0.91870    0.54120    1.000
    I87      I        0.64950    0.66320    0.23450    1.000
    I88      I        0.61470    0.49560    0.33890    1.000
    Zn38     Zn       0.41490    0.11550    0.65900    1.000
    I89      I        0.37510    0.00230    0.69280    1.000
    I90      I        0.47360    0.08330    0.62910    1.000
    Zn39     Zn       0.32200    0.58280    0.97200    1.000
    I91      I        0.36230    0.54940    0.04770    1.000
    I92      I        0.25650    0.50550    0.94240    1.000
    I93      I        0.12009    0.47242    0.83463    1.000
    I94      I        0.14630    0.30200    0.73790    1.000
    Zn40     Zn       0.40800    0.35230    0.16270    1.000
    I95      I        0.36730    0.45900    0.19668    1.000
    I96      I        0.46770    0.39020    0.13250    1.000
