data_functionalizedCrystal
_audit_creation_method	'EQeq! by Chris Wilmer'
_symmetry_space_group_name_H-M	'P1'
_symmetry_Int_Tables_number	1
_symmetry_cell_setting	triclinic
loop_
_symmetry_equiv_pos_as_xyz
  x,y,z
_cell_length_a	9.3128
_cell_length_b	9.3227
_cell_length_c	9.3497
_cell_angle_alpha	103.17
_cell_angle_beta	93.6
_cell_angle_gamma	90.14
loop_
_atom_site_label
_atom_site_type_symbol
_atom_site_fract_x
_atom_site_fract_y
_atom_site_fract_z
_atom_site_charge
Mof_Ga	Ga	0.43464	0.13698	0.58999	4.396
Mof_Ga	Ga	0.84181	0.37514	0.57661	4.385
Mof_Ga	Ga	0.61302	0.39625	0.16493	4.436
Mof_P 	P 	0.35546	0.83302	0.64834	1.034
Mof_P 	P 	0.18078	0.37569	0.59385	1.262
Mof_P 	P 	0.62255	0.37697	0.82798	1.224
Mof_O 	O 	0.3877	0.7846	0.7947	-1.257
Mof_O 	O 	0.4633	0.7647	0.5369	-1.234
Mof_O 	O 	0.2037	0.7698	0.5862	-1.288
Mof_O 	O 	0.3496	0.9996	0.6884	-1.023
Mof_O 	O 	0.2595	0.2331	0.5638	-1.162
Mof_O 	O 	0.1752	0.4409	0.4564	-1.404
Mof_O 	O 	0.0273	0.3434	0.6289	-1.281
Mof_O 	O 	0.2459	0.4882	0.727	-1.433
Mof_O 	O 	0.5034	0.2655	0.7707	-1.24
Mof_O 	O 	0.7545	0.3536	0.7374	-1.305
Mof_O 	O 	0.567	0.5326	0.8355	-1.428
Mof_O 	O 	0.6787	0.3641	0.9814	-1.264
Mof_F 	F 	0.39	0.983	0.4093	-1.417
Mof_Ga	Ga	0.56536	0.86302	0.41001	4.395
Mof_Ga	Ga	0.15819	0.62486	0.42339	4.384
Mof_Ga	Ga	0.38698	0.60375	0.83507	4.436
Mof_P 	P 	0.64454	0.16698	0.35166	1.034
Mof_P 	P 	0.81922	0.62431	0.40615	1.262
Mof_P 	P 	0.37745	0.62303	0.17202	1.224
Mof_O 	O 	0.6123	0.2154	0.2053	-1.257
Mof_O 	O 	0.5367	0.2353	0.4631	-1.234
Mof_O 	O 	0.7963	0.2302	0.4138	-1.288
Mof_O 	O 	0.6504	0.0004	0.3116	-1.023
Mof_O 	O 	0.7405	0.7669	0.4362	-1.162
Mof_O 	O 	0.8248	0.5591	0.5436	-1.404
Mof_O 	O 	0.9727	0.6566	0.3711	-1.281
Mof_O 	O 	0.7541	0.5118	0.273	-1.433
Mof_O 	O 	0.4966	0.7345	0.2293	-1.24
Mof_O 	O 	0.2455	0.6464	0.2626	-1.305
Mof_O 	O 	0.433	0.4674	0.1645	-1.428
Mof_O 	O 	0.3213	0.6359	0.0186	-1.264
Mof_F 	F 	0.61	0.017	0.5907	-1.417
_end
