data_functionalizedCrystal
_audit_creation_method	'EQeq! by Chris Wilmer'
_symmetry_space_group_name_H-M	'P1'
_symmetry_Int_Tables_number	1
_symmetry_cell_setting	triclinic
loop_
_symmetry_equiv_pos_as_xyz
  x,y,z
_cell_length_a	6.827
_cell_length_b	13.965
_cell_length_c	16.074
_cell_angle_alpha	90
_cell_angle_beta	90
_cell_angle_gamma	90
loop_
_atom_site_label
_atom_site_type_symbol
_atom_site_fract_x
_atom_site_fract_y
_atom_site_fract_z
_atom_site_charge
Mof_V 	V 	0.93487	0.23597	0.49865	1.832
Mof_V 	V 	0.56513	0.76403	0.99865	1.834
Mof_V 	V 	0.06513	0.73597	0.00135	1.833
Mof_V 	V 	0.43487	0.26403	0.50135	1.834
Mof_H 	H 	0.5512	0.9895	0.1727	0.062
Mof_H 	H 	0.5326	0.0955	0.2823	0.051
Mof_H 	H 	0.9445	0.0658	0.2847	0.041
Mof_H 	H 	0.9662	0.9578	0.1776	0.073
Mof_H 	H 	0.9488	0.0105	0.6727	0.054
Mof_H 	H 	0.9674	0.9045	0.7823	0.057
Mof_H 	H 	0.5555	0.9342	0.7847	0.052
Mof_H 	H 	0.5338	0.0422	0.6776	0.061
Mof_H 	H 	0.4488	0.4895	0.3273	0.059
Mof_H 	H 	0.4674	0.5955	0.2177	0.054
Mof_H 	H 	0.0555	0.5658	0.2153	0.048
Mof_H 	H 	0.0338	0.4578	0.3224	0.064
Mof_H 	H 	0.0512	0.5105	0.8273	0.058
Mof_H 	H 	0.0326	0.4045	0.7177	0.057
Mof_H 	H 	0.4445	0.4342	0.7153	0.052
Mof_H 	H 	0.4662	0.5422	0.8224	0.062
Mof_C 	C 	0.2756	0.8838	0.1015	0.376
Mof_C 	C 	0.2628	0.9595	0.1661	-0.057
Mof_C 	C 	0.4303	0.0032	0.1966	-0.031
Mof_C 	C 	0.4191	0.067	0.262	0.009
Mof_C 	C 	0.2249	0.1518	0.3718	0.422
Mof_C 	C 	0.2364	0.0892	0.2984	-0.105
Mof_C 	C 	0.0667	0.0489	0.2638	0.025
Mof_C 	C 	0.0797	0.9848	0.1994	-0.049
Mof_C 	C 	0.2244	0.1162	0.6015	0.381
Mof_C 	C 	0.2372	0.0405	0.6661	-0.068
Mof_C 	C 	0.0697	0.9968	0.6966	-0.017
Mof_C 	C 	0.0809	0.933	0.762	-0.006
Mof_C 	C 	0.2751	0.8482	0.8718	0.417
Mof_C 	C 	0.2636	0.9108	0.7984	-0.092
Mof_C 	C 	0.4333	0.9511	0.7638	-0.001
Mof_C 	C 	0.4203	0.0152	0.6994	-0.022
Mof_C 	C 	0.7244	0.3838	0.3985	0.38
Mof_C 	C 	0.7372	0.4595	0.3339	-0.066
Mof_C 	C 	0.5697	0.5032	0.3034	-0.023
Mof_C 	C 	0.5809	0.567	0.238	0.001
Mof_C 	C 	0.7751	0.6518	0.1282	0.419
Mof_C 	C 	0.7636	0.5892	0.2016	-0.096
Mof_C 	C 	0.9333	0.5489	0.2362	0.008
Mof_C 	C 	0.9203	0.4848	0.3006	-0.028
Mof_C 	C 	0.7756	0.6162	0.8985	0.381
Mof_C 	C 	0.7628	0.5405	0.8339	-0.069
Mof_C 	C 	0.9303	0.4968	0.8034	-0.019
Mof_C 	C 	0.9191	0.433	0.738	-0.006
Mof_C 	C 	0.7249	0.3482	0.6282	0.417
Mof_C 	C 	0.7364	0.4108	0.7016	-0.092
Mof_C 	C 	0.5667	0.4511	0.7362	0
Mof_C 	C 	0.5797	0.5152	0.8006	-0.023
Mof_O 	O 	0.7177	0.1927	0.491	-0.683
Mof_O 	O 	0.4464	0.8609	0.074	-0.49
Mof_O 	O 	0.0554	0.1692	0.4009	-0.5
Mof_O 	O 	0.1131	0.8463	0.0749	-0.483
Mof_O 	O 	0.3834	0.1842	0.4018	-0.497
Mof_O 	O 	0.7823	0.8073	0.991	-0.681
Mof_O 	O 	0.0536	0.1391	0.574	-0.489
Mof_O 	O 	0.4446	0.8308	0.9009	-0.501
Mof_O 	O 	0.3869	0.1537	0.5749	-0.482
Mof_O 	O 	0.1166	0.8158	0.9018	-0.496
Mof_O 	O 	0.2823	0.6927	0.009	-0.681
Mof_O 	O 	0.5536	0.3609	0.426	-0.491
Mof_O 	O 	0.9446	0.6692	0.0991	-0.498
Mof_O 	O 	0.8869	0.3463	0.4251	-0.483
Mof_O 	O 	0.6166	0.6842	0.0982	-0.496
Mof_O 	O 	0.2177	0.3073	0.509	-0.681
Mof_O 	O 	0.9464	0.6391	0.926	-0.491
Mof_O 	O 	0.5554	0.3308	0.5991	-0.501
Mof_O 	O 	0.6131	0.6537	0.9251	-0.482
Mof_O 	O 	0.8834	0.3158	0.5982	-0.498
_end
