# CIF file generated by openbabel 3.1.0, see https://openbabel.org
data_I
_chemical_name_common 'image0'
_cell_length_a 20.137
_cell_length_b 10.702
_cell_length_c 11.418
_cell_angle_alpha 90
_cell_angle_beta 90
_cell_angle_gamma 90
_space_group_name_H-M_alt 'P 1'
_space_group_name_Hall 'P 1'
loop_
    _symmetry_equiv_pos_as_xyz
    x,y,z
loop_
    _atom_site_label
    _atom_site_type_symbol
    _atom_site_fract_x
    _atom_site_fract_y
    _atom_site_fract_z
    _atom_site_occupancy
    Zn1      Zn       0.07895    0.12913    0.45551    1.000
    C1       C        0.10350    0.89640    0.34260    1.000
    C2       C        0.14200    0.82570    0.25090    1.000
    C3       C        0.12470    0.70740    0.21110    1.000
    C4       C        0.16960    0.64390    0.13920    1.000
    H1       H        0.15940    0.56340    0.11450    1.000
    C5       C        0.22800    0.69630    0.10430    1.000
    H2       H        0.25630    0.65310    0.05430    1.000
    C6       C        0.24520    0.81680    0.14470    1.000
    C7       C        0.20350    0.87790    0.21580    1.000
    H3       H        0.21520    0.95680    0.24290    1.000
    C8       C        0.30960    0.87310    0.10360    1.000
    C9       C        0.06070    0.64540    0.24020    1.000
    C10      C        0.06080    0.52290    0.28290    1.000
    H4       H        0.10080    0.48250    0.29790    1.000
    O1       O        0.07370    0.83830    0.41890    1.000
    O2       O        0.10470    0.01620    0.33170    1.000
    O3       O        0.32200    0.98260    0.13570    1.000
    O4       O        0.34620    0.80870    0.03880    1.000
    O5       O        0.05520    0.28280    0.37050    1.000
    Zn2      Zn       0.42105    0.87087    0.95551    1.000
    C11      C        0.39650    0.10360    0.84260    1.000
    C12      C        0.35800    0.17430    0.75090    1.000
    C13      C        0.37530    0.29260    0.71110    1.000
    C14      C        0.33040    0.35610    0.63920    1.000
    H5       H        0.34060    0.43660    0.61450    1.000
    C15      C        0.27200    0.30370    0.60430    1.000
    H6       H        0.24370    0.34690    0.55430    1.000
    C16      C        0.25480    0.18320    0.64470    1.000
    C17      C        0.29650    0.12210    0.71580    1.000
    H7       H        0.28480    0.04320    0.74290    1.000
    C18      C        0.19040    0.12690    0.60360    1.000
    C19      C        0.43930    0.35460    0.74020    1.000
    C20      C        0.43920    0.47710    0.78290    1.000
    H8       H        0.39920    0.51750    0.79790    1.000
    O6       O        0.42630    0.16170    0.91890    1.000
    O7       O        0.39530    0.98380    0.83170    1.000
    O8       O        0.17800    0.01740    0.63570    1.000
    O9       O        0.15380    0.19130    0.53880    1.000
    O10      O        0.44480    0.71720    0.87050    1.000
    Zn3      Zn       0.57895    0.87087    0.95551    1.000
    C21      C        0.60350    0.10360    0.84260    1.000
    C22      C        0.64200    0.17430    0.75090    1.000
    C23      C        0.62470    0.29260    0.71110    1.000
    C24      C        0.66960    0.35610    0.63920    1.000
    H9       H        0.65940    0.43660    0.61450    1.000
    C25      C        0.72800    0.30370    0.60430    1.000
    H10      H        0.75630    0.34690    0.55430    1.000
    C26      C        0.74520    0.18320    0.64470    1.000
    C27      C        0.70350    0.12210    0.71580    1.000
    H11      H        0.71520    0.04320    0.74290    1.000
    C28      C        0.80960    0.12690    0.60360    1.000
    C29      C        0.56070    0.35460    0.74020    1.000
    C30      C        0.56080    0.47710    0.78290    1.000
    H12      H        0.60080    0.51750    0.79790    1.000
    O11      O        0.57370    0.16170    0.91890    1.000
    O12      O        0.60470    0.98380    0.83170    1.000
    O13      O        0.82200    0.01740    0.63570    1.000
    O14      O        0.84620    0.19130    0.53880    1.000
    O15      O        0.55520    0.71720    0.87050    1.000
    Zn4      Zn       0.92105    0.12913    0.45551    1.000
    C31      C        0.89650    0.89640    0.34260    1.000
    C32      C        0.85800    0.82570    0.25090    1.000
    C33      C        0.87530    0.70740    0.21110    1.000
    C34      C        0.83040    0.64390    0.13920    1.000
    H13      H        0.84060    0.56340    0.11450    1.000
    C35      C        0.77200    0.69630    0.10430    1.000
    H14      H        0.74370    0.65310    0.05430    1.000
    C36      C        0.75480    0.81680    0.14470    1.000
    C37      C        0.79650    0.87790    0.21580    1.000
    H15      H        0.78480    0.95680    0.24290    1.000
    C38      C        0.69040    0.87310    0.10360    1.000
    C39      C        0.93930    0.64540    0.24020    1.000
    C40      C        0.93920    0.52290    0.28290    1.000
    H16      H        0.89920    0.48250    0.29790    1.000
    O16      O        0.92630    0.83830    0.41890    1.000
    O17      O        0.89530    0.01620    0.33170    1.000
    O18      O        0.67800    0.98260    0.13570    1.000
    O19      O        0.65380    0.80870    0.03880    1.000
    O20      O        0.94480    0.28280    0.37050    1.000
    Zn5      Zn       0.00000    0.86070    0.54570    1.000
    C41      C        0.00000    0.70620    0.22040    1.000
    H17      H        0.00000    0.78830    0.19360    1.000
    C42      C        0.00000    0.46050    0.30320    1.000
    C43      C        0.00000    0.33470    0.35170    1.000
    O21      O        0.00000    0.06270    0.53420    1.000
    H18      H        0.00000    0.10870    0.59190    1.000
    Zn6      Zn       0.50000    0.13930    0.04570    1.000
    C44      C        0.50000    0.29380    0.72040    1.000
    H19      H        0.50000    0.21170    0.69360    1.000
    C45      C        0.50000    0.53950    0.80320    1.000
    C46      C        0.50000    0.66530    0.85170    1.000
    O22      O        0.50000    0.93730    0.03420    1.000
    H20      H        0.50000    0.89130    0.09190    1.000
