data_functionalizedCrystal
_audit_creation_method	'EQeq! by Chris Wilmer'
_symmetry_space_group_name_H-M	'P1'
_symmetry_Int_Tables_number	1
_symmetry_cell_setting	triclinic
loop_
_symmetry_equiv_pos_as_xyz
  x,y,z
_cell_length_a	22.2897
_cell_length_b	16.8927
_cell_length_c	16.4976
_cell_angle_alpha	90
_cell_angle_beta	104.079
_cell_angle_gamma	90
loop_
_atom_site_label
_atom_site_type_symbol
_atom_site_fract_x
_atom_site_fract_y
_atom_site_fract_z
_atom_site_charge
Mof_O 	O 	0.95386	0.91538	0.56764	-0.482
Mof_O 	O 	0.05665	0.91623	0.6063	-0.472
Mof_O 	O 	0.6489	0.86603	0.4625	-0.243
Mof_C 	C 	0.99993	0.66929	0.93365	0.087
Mof_C 	C 	0.99991	0.7503	0.95914	-0.16
Mof_H 	H 	0.9998	0.7946	0.9256	0.079
Mof_C 	C 	0.99979	0.64414	0.85224	-0.192
Mof_C 	C 	0.99867	0.56496	0.82619	0.092
Mof_C 	C 	0.99948	0.5394	0.74311	-0.086
Mof_H 	H 	0.9999	0.572	0.6978	0.067
Mof_C 	C 	0.00064	0.70753	0.78892	0.195
Mof_C 	C 	0.94855	0.7298	0.73213	-0.24
Mof_H 	H 	0.9113	0.7051	0.7322	0.116
Mof_C 	C 	0.94969	0.78873	0.67381	0.14
Mof_H 	H 	0.9133	0.8029	0.6356	-0
Mof_C 	C 	0.0034	0.82605	0.6719	-0.2
Mof_C 	C 	0.05649	0.80244	0.7277	0.139
Mof_H 	H 	0.094	0.8257	0.7261	-0.007
Mof_C 	C 	0.05512	0.74433	0.7866	-0.233
Mof_H 	H 	0.0915	0.7301	0.8249	0.103
Mof_C 	C 	0.0046	0.89093	0.6101	0.436
Mof_C 	C 	0.79607	0.0199	0.3997	-0.37
Mof_H 	H 	0.1906	0.0338	0.6476	0.132
Mof_C 	C 	0.73205	0.0219	0.3941	-0.596
Mof_H 	H 	0.7036	0.037	0.3455	0.226
Mof_C 	C 	0.75687	0.0165	0.5346	-0.157
Mof_H 	H 	0.255	0.0289	0.4166	0.087
Mof_C 	C 	0.81845	0.0153	0.5343	-0.035
Mof_H 	H 	0.8476	0.9744	0.584	-0.02
Mof_C 	C 	0.62224	0.92632	0.4706	0.214
Mof_C 	C 	0.55895	0.9271	0.48567	-0.058
Mof_C 	C 	0.52951	0.85737	0.49205	-0.029
Mof_H 	H 	0.5487	0.8096	0.4858	0.059
Mof_O 	O 	0.04614	0.91538	0.43236	-0.474
Mof_O 	O 	0.94335	0.91623	0.3937	-0.47
Mof_O 	O 	0.3511	0.86603	0.5375	-0.243
Mof_C 	C 	7e-05	0.66929	0.06635	0.076
Mof_C 	C 	9e-05	0.7503	0.04086	-0.009
Mof_H 	H 	0.0002	0.7946	0.0744	0.043
Mof_C 	C 	0.00021	0.64414	0.14776	-0.165
Mof_C 	C 	0.00133	0.56496	0.17381	0.092
Mof_C 	C 	0.00052	0.5394	0.25689	-0.082
Mof_H 	H 	0.0001	0.572	0.3022	0.069
Mof_C 	C 	0.99936	0.70753	0.21108	0.165
Mof_C 	C 	0.05145	0.7298	0.26787	-0.214
Mof_H 	H 	0.0887	0.7051	0.2678	0.111
Mof_C 	C 	0.05031	0.78873	0.32619	0.137
Mof_H 	H 	0.0867	0.8029	0.3644	0.003
Mof_C 	C 	0.9966	0.82605	0.3281	-0.197
Mof_C 	C 	0.94351	0.80244	0.2723	0.13
Mof_H 	H 	0.906	0.8257	0.2739	-0
Mof_C 	C 	0.94488	0.74433	0.2134	-0.215
Mof_H 	H 	0.9085	0.7301	0.1751	0.103
Mof_C 	C 	0.9954	0.89093	0.3899	0.426
Mof_C 	C 	0.20393	0.0199	0.6003	-0.367
Mof_H 	H 	0.8094	0.0338	0.3524	0.136
Mof_C 	C 	0.26795	0.0219	0.6059	-0.592
Mof_H 	H 	0.2964	0.037	0.6545	0.222
Mof_C 	C 	0.24313	0.0165	0.4654	-0.157
Mof_H 	H 	0.745	0.0289	0.5834	0.085
Mof_C 	C 	0.18155	0.0153	0.4657	-0.034
Mof_H 	H 	0.1524	0.9744	0.416	-0.018
Mof_C 	C 	0.37776	0.92632	0.5294	0.214
Mof_C 	C 	0.44105	0.9271	0.51433	-0.057
Mof_C 	C 	0.47049	0.85737	0.50795	-0.029
Mof_H 	H 	0.4513	0.8096	0.5142	0.059
Mof_O 	O 	0.04614	0.08462	0.43236	-0.467
Mof_O 	O 	0.94335	0.08377	0.3937	-0.464
Mof_O 	O 	0.3511	0.13397	0.5375	-0.219
Mof_C 	C 	7e-05	0.33071	0.06635	0.076
Mof_C 	C 	9e-05	0.2497	0.04086	-0.009
Mof_H 	H 	0.0002	0.2054	0.0744	0.043
Mof_C 	C 	0.00021	0.35586	0.14776	-0.163
Mof_C 	C 	0.00133	0.43504	0.17381	0.091
Mof_C 	C 	0.00052	0.4606	0.25689	-0.081
Mof_H 	H 	0.0001	0.428	0.3022	0.069
Mof_C 	C 	0.99936	0.29247	0.21108	0.16
Mof_C 	C 	0.05145	0.2702	0.26787	-0.207
Mof_H 	H 	0.0887	0.2949	0.2678	0.109
Mof_C 	C 	0.05031	0.21127	0.32619	0.129
Mof_H 	H 	0.0867	0.1971	0.3644	0.011
Mof_C 	C 	0.9966	0.17395	0.3281	-0.188
Mof_C 	C 	0.94351	0.19756	0.2723	0.123
Mof_H 	H 	0.906	0.1743	0.2739	0.004
Mof_C 	C 	0.94488	0.25567	0.2134	-0.209
Mof_H 	H 	0.9085	0.2699	0.1751	0.102
Mof_C 	C 	0.9954	0.10907	0.3899	0.421
Mof_C 	C 	0.20393	0.9801	0.6003	0.448
Mof_H 	H 	0.8094	0.9662	0.3524	-0.13
Mof_C 	C 	0.26795	0.9781	0.6059	0.424
Mof_H 	H 	0.2964	0.963	0.6545	-0.104
Mof_C 	C 	0.24313	0.9835	0.4654	-0.001
Mof_H 	H 	0.745	0.9711	0.5834	0.03
Mof_C 	C 	0.18155	0.9847	0.4657	0.103
Mof_H 	H 	0.1524	0.0256	0.416	0.034
Mof_C 	C 	0.37776	0.07368	0.5294	0.215
Mof_C 	C 	0.44105	0.0729	0.51433	-0.059
Mof_C 	C 	0.47049	0.14263	0.50795	-0.029
Mof_H 	H 	0.4513	0.1904	0.5142	0.059
Mof_O 	O 	0.95386	0.08462	0.56764	-0.476
Mof_O 	O 	0.05665	0.08377	0.6063	-0.467
Mof_O 	O 	0.6489	0.13397	0.4625	-0.218
Mof_C 	C 	0.99993	0.33071	0.93365	0.086
Mof_C 	C 	0.99991	0.2497	0.95914	-0.16
Mof_H 	H 	0.9998	0.2054	0.9256	0.079
Mof_C 	C 	0.99979	0.35586	0.85224	-0.191
Mof_C 	C 	0.99867	0.43504	0.82619	0.092
Mof_C 	C 	0.99948	0.4606	0.74311	-0.085
Mof_H 	H 	0.9999	0.428	0.6978	0.067
Mof_C 	C 	0.00064	0.29247	0.78892	0.19
Mof_C 	C 	0.94855	0.2702	0.73213	-0.233
Mof_H 	H 	0.9113	0.2949	0.7322	0.114
Mof_C 	C 	0.94969	0.21127	0.67381	0.132
Mof_H 	H 	0.9133	0.1971	0.6356	0.007
Mof_C 	C 	0.0034	0.17395	0.6719	-0.191
Mof_C 	C 	0.05649	0.19756	0.7277	0.132
Mof_H 	H 	0.094	0.1743	0.7261	-0.003
Mof_C 	C 	0.05512	0.25567	0.7866	-0.227
Mof_H 	H 	0.0915	0.2699	0.8249	0.102
Mof_C 	C 	0.0046	0.10907	0.6101	0.431
Mof_C 	C 	0.79607	0.9801	0.3997	0.45
Mof_H 	H 	0.1906	0.9662	0.6476	-0.131
Mof_C 	C 	0.73205	0.9781	0.3941	0.427
Mof_H 	H 	0.7036	0.963	0.3455	-0.103
Mof_C 	C 	0.75687	0.9835	0.5346	0
Mof_H 	H 	0.255	0.9711	0.4166	0.032
Mof_C 	C 	0.81845	0.9847	0.5343	0.104
Mof_H 	H 	0.8476	0.0256	0.584	0.033
Mof_C 	C 	0.62224	0.07368	0.4706	0.215
Mof_C 	C 	0.55895	0.0729	0.48567	-0.06
Mof_C 	C 	0.52951	0.14263	0.49205	-0.029
Mof_H 	H 	0.5487	0.1904	0.4858	0.058
Mof_Zn	Zn	0.98348	0.5	0.99467	0.762
Mof_N 	N 	0.99893	0.5	0.8765	-0.355
Mof_Zn	Zn	0.01652	0.5	0.00533	0.803
Mof_N 	N 	0.00107	0.5	0.1235	-0.341
Mof_Zn	Zn	0.93155	4.18959e-33	0.47638	1.216
Mof_N 	N 	0.83788	0	0.4663	-0.247
Mof_N 	N 	0.64933	0	0.46695	-0.195
Mof_C 	C 	0.71431	0	0.4649	0.172
Mof_C 	C 	0.52987	-4.18959e-33	0.4921	0.023
Mof_Zn	Zn	0.06845	0	0.52362	1.217
Mof_N 	N 	0.16212	0	0.5337	-0.248
Mof_N 	N 	0.35067	-8.37919e-33	0.53305	-0.195
Mof_C 	C 	0.28569	0	0.5351	0.173
Mof_C 	C 	0.47013	8.37919e-33	0.5079	0.023
Mof_N 	N 	-0	0.62072	-0	-0.322
Mof_N 	N 	-0	0.37928	-0	-0.322
Mof_O 	O 	0.45386	0.41538	0.56764	-0.476
Mof_O 	O 	0.55665	0.41623	0.6063	-0.47
Mof_O 	O 	0.1489	0.36603	0.4625	-0.231
Mof_C 	C 	0.49993	0.16929	0.93365	0.085
Mof_C 	C 	0.49991	0.2503	0.95914	-0.151
Mof_H 	H 	0.4998	0.2946	0.9256	0.077
Mof_C 	C 	0.49979	0.14414	0.85224	-0.186
Mof_C 	C 	0.49867	0.06496	0.82619	0.092
Mof_C 	C 	0.49948	0.0394	0.74311	-0.09
Mof_H 	H 	0.4999	0.072	0.6978	0.069
Mof_C 	C 	0.50064	0.20753	0.78892	0.181
Mof_C 	C 	0.44855	0.2298	0.73213	-0.227
Mof_H 	H 	0.4113	0.2051	0.7322	0.114
Mof_C 	C 	0.44969	0.28873	0.67381	0.136
Mof_H 	H 	0.4133	0.3029	0.6356	0.005
Mof_C 	C 	0.5034	0.32605	0.6719	-0.196
Mof_C 	C 	0.55649	0.30244	0.7277	0.132
Mof_H 	H 	0.594	0.3257	0.7261	-0.004
Mof_C 	C 	0.55512	0.24433	0.7866	-0.225
Mof_H 	H 	0.5915	0.2301	0.8249	0.1
Mof_C 	C 	0.5046	0.39093	0.6101	0.429
Mof_C 	C 	0.29607	0.5199	0.3997	-0.022
Mof_H 	H 	0.6906	0.5338	0.6476	0.02
Mof_C 	C 	0.23205	0.5219	0.3941	-0.162
Mof_H 	H 	0.2036	0.537	0.3455	0.086
Mof_C 	C 	0.25687	0.5165	0.5346	-0.091
Mof_H 	H 	0.755	0.5289	0.4166	0.063
Mof_C 	C 	0.31845	0.5153	0.5343	0.024
Mof_H 	H 	0.3476	0.4744	0.584	0.003
Mof_C 	C 	0.12224	0.42632	0.4706	0.216
Mof_C 	C 	0.05895	0.4271	0.48567	-0.068
Mof_C 	C 	0.02951	0.35737	0.49205	-0.014
Mof_H 	H 	0.0487	0.3096	0.4858	0.056
Mof_O 	O 	0.54614	0.41538	0.43236	-0.475
Mof_O 	O 	0.44335	0.41623	0.3937	-0.468
Mof_O 	O 	0.8511	0.36603	0.5375	-0.229
Mof_C 	C 	0.50007	0.16929	0.06635	0.081
Mof_C 	C 	0.50009	0.2503	0.04086	-0.019
Mof_H 	H 	0.5002	0.2946	0.0744	0.045
Mof_C 	C 	0.50021	0.14414	0.14776	-0.174
Mof_C 	C 	0.50133	0.06496	0.17381	0.095
Mof_C 	C 	0.50052	0.0394	0.25689	-0.089
Mof_H 	H 	0.5001	0.072	0.3022	0.07
Mof_C 	C 	0.49936	0.20753	0.21108	0.179
Mof_C 	C 	0.55145	0.2298	0.26787	-0.224
Mof_H 	H 	0.5887	0.2051	0.2678	0.115
Mof_C 	C 	0.55031	0.28873	0.32619	0.137
Mof_H 	H 	0.5867	0.3029	0.3644	0.006
Mof_C 	C 	0.4966	0.32605	0.3281	-0.194
Mof_C 	C 	0.44351	0.30244	0.2723	0.133
Mof_H 	H 	0.406	0.3257	0.2739	0
Mof_C 	C 	0.44488	0.24433	0.2134	-0.221
Mof_H 	H 	0.4085	0.2301	0.1751	0.107
Mof_C 	C 	0.4954	0.39093	0.3899	0.43
Mof_C 	C 	0.70393	0.5199	0.6003	-0.022
Mof_H 	H 	0.3094	0.5338	0.3524	0.023
Mof_C 	C 	0.76795	0.5219	0.6059	-0.163
Mof_H 	H 	0.7964	0.537	0.6545	0.084
Mof_C 	C 	0.74313	0.5165	0.4654	-0.092
Mof_H 	H 	0.245	0.5289	0.5834	0.061
Mof_C 	C 	0.68155	0.5153	0.4657	0.024
Mof_H 	H 	0.6524	0.4744	0.416	0.004
Mof_C 	C 	0.87776	0.42632	0.5294	0.21
Mof_C 	C 	0.94105	0.4271	0.51433	-0.051
Mof_C 	C 	0.97049	0.35737	0.50795	-0.043
Mof_H 	H 	0.9513	0.3096	0.5142	0.064
Mof_O 	O 	0.54614	0.58462	0.43236	-0.475
Mof_O 	O 	0.44335	0.58377	0.3937	-0.467
Mof_O 	O 	0.8511	0.63397	0.5375	-0.231
Mof_C 	C 	0.50007	0.83071	0.06635	0.08
Mof_C 	C 	0.50009	0.7497	0.04086	-0.019
Mof_H 	H 	0.5002	0.7054	0.0744	0.045
Mof_C 	C 	0.50021	0.85586	0.14776	-0.173
Mof_C 	C 	0.50133	0.93504	0.17381	0.095
Mof_C 	C 	0.50052	0.9606	0.25689	-0.078
Mof_H 	H 	0.5001	0.928	0.3022	0.067
Mof_C 	C 	0.49936	0.79247	0.21108	0.178
Mof_C 	C 	0.55145	0.7702	0.26787	-0.223
Mof_H 	H 	0.5887	0.7949	0.2678	0.113
Mof_C 	C 	0.55031	0.71127	0.32619	0.135
Mof_H 	H 	0.5867	0.6971	0.3644	0.005
Mof_C 	C 	0.4966	0.67395	0.3281	-0.193
Mof_C 	C 	0.44351	0.69756	0.2723	0.132
Mof_H 	H 	0.406	0.6743	0.2739	0
Mof_C 	C 	0.44488	0.75567	0.2134	-0.22
Mof_H 	H 	0.4085	0.7699	0.1751	0.107
Mof_C 	C 	0.4954	0.60907	0.3899	0.429
Mof_C 	C 	0.70393	0.4801	0.6003	0.102
Mof_H 	H 	0.3094	0.4662	0.3524	-0.017
Mof_C 	C 	0.76795	0.4781	0.6059	-0.008
Mof_H 	H 	0.7964	0.463	0.6545	0.034
Mof_C 	C 	0.74313	0.4835	0.4654	-0.068
Mof_H 	H 	0.245	0.4711	0.5834	0.054
Mof_C 	C 	0.68155	0.4847	0.4657	0.045
Mof_H 	H 	0.6524	0.5256	0.416	0.012
Mof_C 	C 	0.87776	0.57368	0.5294	0.212
Mof_C 	C 	0.94105	0.5729	0.51433	-0.052
Mof_C 	C 	0.97049	0.64263	0.50795	-0.043
Mof_H 	H 	0.9513	0.6904	0.5142	0.061
Mof_O 	O 	0.45386	0.58462	0.56764	-0.476
Mof_O 	O 	0.55665	0.58377	0.6063	-0.469
Mof_O 	O 	0.1489	0.63397	0.4625	-0.233
Mof_C 	C 	0.49993	0.83071	0.93365	0.085
Mof_C 	C 	0.49991	0.7497	0.95914	-0.151
Mof_H 	H 	0.4998	0.7054	0.9256	0.077
Mof_C 	C 	0.49979	0.85586	0.85224	-0.184
Mof_C 	C 	0.49867	0.93504	0.82619	0.091
Mof_C 	C 	0.49948	0.9606	0.74311	-0.079
Mof_H 	H 	0.4999	0.928	0.6978	0.066
Mof_C 	C 	0.50064	0.79247	0.78892	0.18
Mof_C 	C 	0.44855	0.7702	0.73213	-0.226
Mof_H 	H 	0.4113	0.7949	0.7322	0.111
Mof_C 	C 	0.44969	0.71127	0.67381	0.135
Mof_H 	H 	0.4133	0.6971	0.6356	0.004
Mof_C 	C 	0.5034	0.67395	0.6719	-0.195
Mof_C 	C 	0.55649	0.69756	0.7277	0.131
Mof_H 	H 	0.594	0.6743	0.7261	-0.004
Mof_C 	C 	0.55512	0.75567	0.7866	-0.223
Mof_H 	H 	0.5915	0.7699	0.8249	0.1
Mof_C 	C 	0.5046	0.60907	0.6101	0.428
Mof_C 	C 	0.29607	0.4801	0.3997	0.102
Mof_H 	H 	0.6906	0.4662	0.6476	-0.02
Mof_C 	C 	0.23205	0.4781	0.3941	-0.008
Mof_H 	H 	0.2036	0.463	0.3455	0.037
Mof_C 	C 	0.25687	0.4835	0.5346	-0.068
Mof_H 	H 	0.755	0.4711	0.4166	0.056
Mof_C 	C 	0.31845	0.4847	0.5343	0.045
Mof_H 	H 	0.3476	0.5256	0.584	0.01
Mof_C 	C 	0.12224	0.57368	0.4706	0.218
Mof_C 	C 	0.05895	0.5729	0.48567	-0.069
Mof_C 	C 	0.02951	0.64263	0.49205	-0.014
Mof_H 	H 	0.0487	0.6904	0.4858	0.053
Mof_Zn	Zn	0.48348	0	0.99467	0.764
Mof_N 	N 	0.49893	8.37919e-33	0.8765	-0.355
Mof_Zn	Zn	0.51652	6.54624e-35	0.00533	0.801
Mof_N 	N 	0.50107	0	0.1235	-0.344
Mof_Zn	Zn	0.43155	0.5	0.47638	1.217
Mof_N 	N 	0.33788	0.5	0.4663	-0.246
Mof_N 	N 	0.14933	0.5	0.46695	-0.196
Mof_C 	C 	0.21431	0.5	0.4649	0.176
Mof_C 	C 	0.02987	0.5	0.4921	0.037
Mof_Zn	Zn	0.56845	0.5	0.52362	1.217
Mof_N 	N 	0.66212	0.5	0.5337	-0.246
Mof_N 	N 	0.85067	0.5	0.53305	-0.194
Mof_C 	C 	0.78569	0.5	0.5351	0.175
Mof_C 	C 	0.97013	0.5	0.5079	0.013
Mof_N 	N 	0.5	0.12072	-0	-0.325
Mof_N 	N 	0.5	0.87928	-0	-0.324
_end
