data_functionalizedCrystal
_audit_creation_method	'EQeq! by Chris Wilmer'
_symmetry_space_group_name_H-M	'P1'
_symmetry_Int_Tables_number	1
_symmetry_cell_setting	triclinic
loop_
_symmetry_equiv_pos_as_xyz
  x,y,z
_cell_length_a	9.0541
_cell_length_b	10.4443
_cell_length_c	18.2006
_cell_angle_alpha	90
_cell_angle_beta	90
_cell_angle_gamma	90
loop_
_atom_site_label
_atom_site_type_symbol
_atom_site_fract_x
_atom_site_fract_y
_atom_site_fract_z
_atom_site_charge
Mof_Zn	Zn	0.13211	0.01884	0.59969	1.195
Mof_Zn	Zn	0.63211	0.98116	0.40031	1.194
Mof_Zn	Zn	0.13211	0.48116	0.09969	1.196
Mof_Zn	Zn	0.63211	0.51884	0.90031	1.194
Mof_H 	H 	0.3278	0.0384	0.4702	-0.038
Mof_H 	H 	0.7274	0.6355	0.6079	0.004
Mof_H 	H 	0.3266	0.6968	0.7336	0.184
Mof_H 	H 	0.2398	0.7974	0.6948	0.159
Mof_H 	H 	0.9666	0.6845	0.7109	0.064
Mof_H 	H 	0.8523	0.5385	0.7864	-0.019
Mof_H 	H 	0.6039	0.8036	0.8712	-0.01
Mof_H 	H 	0.7073	0.9571	0.7959	0.069
Mof_H 	H 	0.8278	0.9616	0.5298	-0.035
Mof_H 	H 	0.2274	0.3645	0.3921	0.007
Mof_H 	H 	0.8266	0.3032	0.2664	0.177
Mof_H 	H 	0.7398	0.2026	0.3052	0.155
Mof_H 	H 	0.4666	0.3155	0.2891	0.07
Mof_H 	H 	0.3523	0.4615	0.2136	-0.016
Mof_H 	H 	0.1039	0.1964	0.1288	-0.006
Mof_H 	H 	0.2073	0.0429	0.2041	0.07
Mof_H 	H 	0.3278	0.4616	0.9702	-0.034
Mof_H 	H 	0.7274	0.8645	0.1079	0.004
Mof_H 	H 	0.3266	0.8032	0.2336	0.184
Mof_H 	H 	0.2398	0.7026	0.1948	0.159
Mof_H 	H 	0.9666	0.8155	0.2109	0.063
Mof_H 	H 	0.8523	0.9615	0.2864	-0.02
Mof_H 	H 	0.6039	0.6964	0.3712	-0.01
Mof_H 	H 	0.7073	0.5429	0.2959	0.068
Mof_H 	H 	0.8278	0.5384	0.0298	-0.031
Mof_H 	H 	0.2274	0.1355	0.8921	0.006
Mof_H 	H 	0.8266	0.1968	0.7664	0.177
Mof_H 	H 	0.7398	0.2974	0.8052	0.154
Mof_H 	H 	0.4666	0.1845	0.7891	0.07
Mof_H 	H 	0.3523	0.0385	0.7136	-0.016
Mof_H 	H 	0.1039	0.3036	0.6288	-0.006
Mof_H 	H 	0.2073	0.4571	0.7041	0.071
Mof_C 	C 	0.3733	0.9759	0.4988	0.091
Mof_C 	C 	0.6469	0.6894	0.601	0.103
Mof_C 	C 	0.4215	0.7571	0.6461	0.154
Mof_C 	C 	0.4143	0.8413	0.58431	-0.043
Mof_C 	C 	0.531	0.8382	0.53635	0.112
Mof_C 	C 	0.9204	0.9343	0.6956	0.278
Mof_C 	C 	0.8928	0.7108	0.7431	-0.091
Mof_C 	C 	0.8495	0.8374	0.7459	-0.012
Mof_C 	C 	0.8242	0.624	0.7889	0.059
Mof_C 	C 	0.6777	0.7798	0.8385	0.059
Mof_C 	C 	0.7396	0.8727	0.7937	-0.088
Mof_C 	C 	0.8733	0.0241	0.5012	0.07
Mof_C 	C 	0.1469	0.3106	0.399	0.107
Mof_C 	C 	0.9215	0.2429	0.3539	0.139
Mof_C 	C 	0.9143	0.1587	0.41569	-0.06
Mof_C 	C 	0.031	0.1618	0.46365	0.132
Mof_C 	C 	0.4204	0.0657	0.3044	0.31
Mof_C 	C 	0.3928	0.2892	0.2569	-0.084
Mof_C 	C 	0.3495	0.1626	0.2541	-0.017
Mof_C 	C 	0.3242	0.376	0.2111	0.06
Mof_C 	C 	0.1777	0.2202	0.1615	0.059
Mof_C 	C 	0.2396	0.1273	0.2063	-0.081
Mof_C 	C 	0.3733	0.5241	0.9988	0.085
Mof_C 	C 	0.6469	0.8106	0.101	0.104
Mof_C 	C 	0.4215	0.7429	0.1461	0.154
Mof_C 	C 	0.4143	0.6587	0.08431	-0.043
Mof_C 	C 	0.531	0.6618	0.03635	0.113
Mof_C 	C 	0.9204	0.5657	0.1956	0.285
Mof_C 	C 	0.8928	0.7892	0.2431	-0.089
Mof_C 	C 	0.8495	0.6626	0.2459	-0.014
Mof_C 	C 	0.8242	0.876	0.2889	0.058
Mof_C 	C 	0.6777	0.7202	0.3385	0.058
Mof_C 	C 	0.7396	0.6273	0.2937	-0.087
Mof_C 	C 	0.8733	0.4759	0.0012	0.062
Mof_C 	C 	0.1469	0.1894	0.899	0.107
Mof_C 	C 	0.9215	0.2571	0.8539	0.14
Mof_C 	C 	0.9143	0.3413	0.91569	-0.062
Mof_C 	C 	0.031	0.3382	0.96365	0.134
Mof_C 	C 	0.4204	0.4343	0.8044	0.312
Mof_C 	C 	0.3928	0.2108	0.7569	-0.083
Mof_C 	C 	0.3495	0.3374	0.7541	-0.018
Mof_C 	C 	0.3242	0.124	0.7111	0.06
Mof_C 	C 	0.1777	0.2798	0.6615	0.059
Mof_C 	C 	0.2396	0.3727	0.7063	-0.081
Mof_N 	N 	0.505	0.926	0.48101	-0.296
Mof_N 	N 	0.6532	0.7634	0.54224	-0.168
Mof_N 	N 	0.3117	0.9301	0.5601	-0.261
Mof_N 	N 	0.5411	0.6814	0.65165	-0.15
Mof_N 	N 	0.3169	0.7495	0.6976	-0.331
Mof_N 	N 	0.7202	0.6571	0.83634	-0.271
Mof_N 	N 	0.005	0.074	0.51899	-0.288
Mof_N 	N 	0.1532	0.2366	0.45776	-0.168
Mof_N 	N 	0.8117	0.0699	0.4399	-0.259
Mof_N 	N 	0.0411	0.3186	0.34835	-0.138
Mof_N 	N 	0.8169	0.2505	0.3024	-0.327
Mof_N 	N 	0.2202	0.3429	0.16366	-0.269
Mof_N 	N 	0.505	0.574	0.98101	-0.295
Mof_N 	N 	0.6532	0.7366	0.04224	-0.168
Mof_N 	N 	0.3117	0.5699	0.0601	-0.261
Mof_N 	N 	0.5411	0.8186	0.15165	-0.15
Mof_N 	N 	0.3169	0.7505	0.1976	-0.331
Mof_N 	N 	0.7202	0.8429	0.33634	-0.271
Mof_N 	N 	0.005	0.426	0.01899	-0.284
Mof_N 	N 	0.1532	0.2634	0.95776	-0.168
Mof_N 	N 	0.8117	0.4301	0.9399	-0.258
Mof_N 	N 	0.0411	0.1814	0.84835	-0.139
Mof_N 	N 	0.8169	0.2495	0.8024	-0.327
Mof_N 	N 	0.2202	0.1571	0.66366	-0.269
Mof_O 	O 	0.0379	0.8937	0.66284	-0.442
Mof_O 	O 	0.8667	0.0402	0.68735	-0.32
Mof_O 	O 	0.5379	0.1063	0.33716	-0.47
Mof_O 	O 	0.3667	0.9598	0.31265	-0.32
Mof_O 	O 	0.0379	0.6063	0.16284	-0.447
Mof_O 	O 	0.8667	0.4598	0.18735	-0.324
Mof_O 	O 	0.5379	0.3937	0.83716	-0.471
Mof_O 	O 	0.3667	0.5402	0.81265	-0.323
_end
