data_functionalizedCrystal
_audit_creation_method	'EQeq! by Chris Wilmer'
_symmetry_space_group_name_H-M	'P1'
_symmetry_Int_Tables_number	1
_symmetry_cell_setting	triclinic
loop_
_symmetry_equiv_pos_as_xyz
  x,y,z
_cell_length_a	10.8981
_cell_length_b	14.4092
_cell_length_c	23.3902
_cell_angle_alpha	80.6932
_cell_angle_beta	76.5284
_cell_angle_gamma	67.7799
loop_
_atom_site_label
_atom_site_type_symbol
_atom_site_fract_x
_atom_site_fract_y
_atom_site_fract_z
_atom_site_charge
Mof_Cu	Cu	0.64459	0.80756	0.1025	0.868
Mof_Cu	Cu	0.3448	0.93862	0.13886	0.829
Mof_Cu	Cu	0.55465	0.69244	0.3975	0.867
Mof_Cu	Cu	0.42228	0.56138	0.36114	0.828
Mof_Cu	Cu	0.35541	0.19244	0.8975	0.867
Mof_Cu	Cu	0.6552	0.06138	0.86114	0.828
Mof_Cu	Cu	0.44535	0.30756	0.6025	0.866
Mof_Cu	Cu	0.57772	0.43862	0.63886	0.827
Mof_Mo	Mo	0.14227	0.53698	0.97814	0.97
Mof_Mo	Mo	0.10265	0.38615	0.13485	1.032
Mof_Mo	Mo	0.98235	0.62763	0.10409	1.351
Mof_Mo	Mo	0.89059	0.74801	0.96441	1.369
Mof_Mo	Mo	0.65739	0.96302	0.52186	0.968
Mof_Mo	Mo	0.62365	0.11385	0.36515	1.035
Mof_Mo	Mo	0.71407	0.87237	0.39591	1.352
Mof_Mo	Mo	0.60301	0.75199	0.53559	1.375
Mof_Mo	Mo	0.85773	0.46302	0.02186	0.97
Mof_Mo	Mo	0.89735	0.61385	0.86515	1.032
Mof_Mo	Mo	0.01765	0.37237	0.89591	1.351
Mof_Mo	Mo	0.10941	0.25199	0.03559	1.369
Mof_Mo	Mo	0.34261	0.03698	0.47814	0.968
Mof_Mo	Mo	0.37635	0.88615	0.63485	1.035
Mof_Mo	Mo	0.28593	0.12763	0.60409	1.352
Mof_Mo	Mo	0.39699	0.24801	0.46441	1.375
Mof_H 	H 	0.5934	0.7362	0.005	-0.026
Mof_H 	H 	0.4706	0.6437	0.9871	0.067
Mof_H 	H 	0.3441	0.5823	0.0635	-0.057
Mof_H 	H 	0.336	0.6225	0.1555	0.085
Mof_H 	H 	0.6761	0.5318	0.164	0.104
Mof_H 	H 	0.7702	0.3678	0.1658	-0.079
Mof_H 	H 	0.7201	0.2656	0.2482	0.047
Mof_H 	H 	0.567	0.348	0.326	-0.076
Mof_H 	H 	0.7153	0.8704	0.199	-0.04
Mof_H 	H 	0.67	0.018	0.24	0.098
Mof_H 	H 	0.558	0.182	0.194	-0.049
Mof_H 	H 	0.529	0.168	0.102	0.131
Mof_H 	H 	0.784	0.064	0.048	0.094
Mof_H 	H 	0.954	0.119	0.013	-0.046
Mof_H 	H 	0.015	0.151	0.907	0.036
Mof_H 	H 	0.8941	0.1218	0.848	-0.039
Mof_H 	H 	0.3346	0.7638	0.495	-0.028
Mof_H 	H 	0.1014	0.8563	0.5129	0.072
Mof_H 	H 	0.9899	0.9177	0.4365	-0.064
Mof_H 	H 	0.114	0.8775	0.3445	0.089
Mof_H 	H 	0.3719	0.9682	0.336	0.116
Mof_H 	H 	0.3038	0.1322	0.3342	-0.089
Mof_H 	H 	0.2339	0.2344	0.2518	0.052
Mof_H 	H 	0.241	0.152	0.174	-0.079
Mof_H 	H 	0.7847	0.6296	0.301	-0.04
Mof_H 	H 	0.928	0.482	0.26	0.098
Mof_H 	H 	0.934	0.318	0.306	-0.048
Mof_H 	H 	0.799	0.332	0.398	0.131
Mof_H 	H 	0.896	0.436	0.452	0.091
Mof_H 	H 	0.086	0.381	0.487	-0.042
Mof_H 	H 	0.073	0.349	0.593	0.036
Mof_H 	H 	0.8639	0.3782	0.652	-0.039
Mof_H 	H 	0.4066	0.2638	0.995	-0.026
Mof_H 	H 	0.5294	0.3563	0.0129	0.067
Mof_H 	H 	0.6559	0.4177	0.9365	-0.057
Mof_H 	H 	0.664	0.3775	0.8445	0.085
Mof_H 	H 	0.3239	0.4682	0.836	0.104
Mof_H 	H 	0.2298	0.6322	0.8342	-0.079
Mof_H 	H 	0.2799	0.7344	0.7518	0.047
Mof_H 	H 	0.433	0.652	0.674	-0.076
Mof_H 	H 	0.2847	0.1296	0.801	-0.04
Mof_H 	H 	0.33	0.982	0.76	0.098
Mof_H 	H 	0.442	0.818	0.806	-0.049
Mof_H 	H 	0.471	0.832	0.898	0.131
Mof_H 	H 	0.216	0.936	0.952	0.094
Mof_H 	H 	0.046	0.881	0.987	-0.046
Mof_H 	H 	0.985	0.849	0.093	0.036
Mof_H 	H 	0.1059	0.8782	0.152	-0.039
Mof_H 	H 	0.6654	0.2362	0.505	-0.028
Mof_H 	H 	0.8986	0.1437	0.4871	0.072
Mof_H 	H 	0.0101	0.0823	0.5635	-0.064
Mof_H 	H 	0.886	0.1225	0.6555	0.089
Mof_H 	H 	0.6281	0.0318	0.664	0.116
Mof_H 	H 	0.6962	0.8678	0.6658	-0.089
Mof_H 	H 	0.7661	0.7656	0.7482	0.052
Mof_H 	H 	0.759	0.848	0.826	-0.079
Mof_H 	H 	0.2153	0.3704	0.699	-0.04
Mof_H 	H 	0.072	0.518	0.74	0.098
Mof_H 	H 	0.066	0.682	0.694	-0.048
Mof_H 	H 	0.201	0.668	0.602	0.131
Mof_H 	H 	0.104	0.564	0.548	0.091
Mof_H 	H 	0.914	0.619	0.513	-0.042
Mof_H 	H 	0.927	0.651	0.407	0.036
Mof_H 	H 	0.1361	0.6218	0.348	-0.039
Mof_C 	C 	0.53869	0.71224	0.03498	0.072
Mof_C 	C 	0.4674	0.65819	0.02341	-0.202
Mof_C 	C 	0.39225	0.61885	0.07025	0.089
Mof_C 	C 	0.39237	0.63565	0.12721	-0.22
Mof_C 	C 	0.4642	0.69224	0.13496	0.067
Mof_C 	C 	0.45407	0.71975	0.19471	-0.027
Mof_C 	C 	0.47871	0.65019	0.24419	-0.018
Mof_C 	C 	0.55317	0.54068	0.24118	0.097
Mof_C 	C 	0.64944	0.49777	0.19295	-0.252
Mof_C 	C 	0.71365	0.39437	0.19513	0.15
Mof_C 	C 	0.68096	0.33633	0.24535	-0.22
Mof_C 	C 	0.58872	0.38465	0.29251	0.111
Mof_C 	C 	0.67359	0.93546	0.18176	0.119
Mof_C 	C 	0.65401	0.02318	0.205	-0.246
Mof_C 	C 	0.59295	0.11464	0.17546	0.129
Mof_C 	C 	0.55572	0.11476	0.1226	-0.267
Mof_C 	C 	0.5803	0.02356	0.10224	0.092
Mof_C 	C 	0.54169	0.01463	0.04679	-0.025
Mof_C 	C 	0.60606	0.03388	0.9892	0
Mof_C 	C 	0.72411	0.06666	0.97132	0.075
Mof_C 	C 	0.7971	0.0785	0.0091	-0.191
Mof_C 	C 	0.9058	0.1093	0.9869	0.084
Mof_C 	C 	0.94296	0.12678	0.9271	-0.148
Mof_C 	C 	0.86735	0.1129	0.8908	0.054
Mof_C 	C 	0.28591	0.78776	0.46502	0.078
Mof_C 	C 	0.149	0.84181	0.47659	-0.212
Mof_C 	C 	0.08135	0.88115	0.42975	0.103
Mof_C 	C 	0.15523	0.86435	0.37279	-0.229
Mof_C 	C 	0.2914	0.80776	0.36504	0.07
Mof_C 	C 	0.36853	0.78025	0.30529	-0.027
Mof_C 	C 	0.37309	0.84981	0.25581	-0.022
Mof_C 	C 	0.33503	0.95932	0.25882	0.109
Mof_C 	C 	0.34016	0.00223	0.30705	-0.277
Mof_C 	C 	0.30315	0.10563	0.30487	0.172
Mof_C 	C 	0.26264	0.16367	0.25465	-0.234
Mof_C 	C 	0.26588	0.11535	0.20749	0.118
Mof_C 	C 	0.79081	0.56454	0.31824	0.119
Mof_C 	C 	0.88219	0.47682	0.295	-0.246
Mof_C 	C 	0.88305	0.38536	0.32454	0.129
Mof_C 	C 	0.79308	0.38524	0.3774	-0.267
Mof_C 	C 	0.7061	0.47644	0.39776	0.092
Mof_C 	C 	0.60311	0.48537	0.45321	-0.022
Mof_C 	C 	0.62914	0.46612	0.5108	-0.001
Mof_C 	C 	0.76209	0.43334	0.52868	0.071
Mof_C 	C 	0.8847	0.4215	0.4909	-0.181
Mof_C 	C 	0.002	0.3907	0.5131	0.074
Mof_C 	C 	0.99684	0.37322	0.5729	-0.145
Mof_C 	C 	0.87105	0.3871	0.6092	0.052
Mof_C 	C 	0.46131	0.28776	0.96502	0.072
Mof_C 	C 	0.5326	0.34181	0.97659	-0.202
Mof_C 	C 	0.60775	0.38115	0.92975	0.089
Mof_C 	C 	0.60763	0.36435	0.87279	-0.22
Mof_C 	C 	0.5358	0.30776	0.86504	0.067
Mof_C 	C 	0.54593	0.28025	0.80529	-0.027
Mof_C 	C 	0.52129	0.34981	0.75581	-0.018
Mof_C 	C 	0.44683	0.45932	0.75882	0.097
Mof_C 	C 	0.35056	0.50223	0.80705	-0.252
Mof_C 	C 	0.28635	0.60563	0.80487	0.15
Mof_C 	C 	0.31904	0.66367	0.75465	-0.22
Mof_C 	C 	0.41128	0.61535	0.70749	0.111
Mof_C 	C 	0.32641	0.06454	0.81824	0.119
Mof_C 	C 	0.34599	0.97682	0.795	-0.246
Mof_C 	C 	0.40705	0.88536	0.82454	0.129
Mof_C 	C 	0.44428	0.88524	0.8774	-0.267
Mof_C 	C 	0.4197	0.97644	0.89776	0.092
Mof_C 	C 	0.45831	0.98537	0.95321	-0.025
Mof_C 	C 	0.39394	0.96612	0.0108	0
Mof_C 	C 	0.27589	0.93334	0.02868	0.075
Mof_C 	C 	0.2029	0.9215	0.9909	-0.191
Mof_C 	C 	0.0942	0.8907	0.0131	0.084
Mof_C 	C 	0.05704	0.87322	0.0729	-0.148
Mof_C 	C 	0.13265	0.8871	0.1092	0.054
Mof_C 	C 	0.71409	0.21224	0.53498	0.078
Mof_C 	C 	0.851	0.15819	0.52341	-0.212
Mof_C 	C 	0.91865	0.11885	0.57025	0.103
Mof_C 	C 	0.84477	0.13565	0.62721	-0.229
Mof_C 	C 	0.7086	0.19224	0.63496	0.07
Mof_C 	C 	0.63147	0.21975	0.69471	-0.027
Mof_C 	C 	0.62691	0.15019	0.74419	-0.022
Mof_C 	C 	0.66497	0.04068	0.74118	0.109
Mof_C 	C 	0.65984	0.99777	0.69295	-0.277
Mof_C 	C 	0.69685	0.89437	0.69513	0.172
Mof_C 	C 	0.73736	0.83633	0.74535	-0.234
Mof_C 	C 	0.73412	0.88465	0.79251	0.118
Mof_C 	C 	0.20919	0.43546	0.68176	0.119
Mof_C 	C 	0.11781	0.52318	0.705	-0.246
Mof_C 	C 	0.11695	0.61464	0.67546	0.129
Mof_C 	C 	0.20692	0.61476	0.6226	-0.267
Mof_C 	C 	0.2939	0.52356	0.60224	0.092
Mof_C 	C 	0.39689	0.51463	0.54679	-0.022
Mof_C 	C 	0.37086	0.53388	0.4892	-0.001
Mof_C 	C 	0.23791	0.56666	0.47132	0.071
Mof_C 	C 	0.1153	0.5785	0.5091	-0.181
Mof_C 	C 	0.998	0.6093	0.4869	0.074
Mof_C 	C 	0.00316	0.62678	0.4271	-0.145
Mof_C 	C 	0.12895	0.6129	0.3908	0.052
Mof_N 	N 	0.5378	0.73089	0.08971	-0.275
Mof_N 	N 	0.5253	0.4849	0.2915	-0.269
Mof_N 	N 	0.40939	0.81854	0.20128	-0.221
Mof_N 	N 	0.63513	0.93443	0.13151	-0.264
Mof_N 	N 	0.439	0.98197	0.05643	-0.224
Mof_N 	N 	0.76164	0.08383	0.91209	-0.255
Mof_N 	N 	0.3584	0.76911	0.41029	-0.276
Mof_N 	N 	0.3017	0.0151	0.2085	-0.274
Mof_N 	N 	0.42921	0.68146	0.29872	-0.222
Mof_N 	N 	0.70107	0.56557	0.36849	-0.264
Mof_N 	N 	0.4774	0.51803	0.44357	-0.225
Mof_N 	N 	0.75756	0.41617	0.58791	-0.254
Mof_N 	N 	0.4622	0.26911	0.91029	-0.275
Mof_N 	N 	0.4747	0.5151	0.7085	-0.269
Mof_N 	N 	0.59061	0.18146	0.79872	-0.221
Mof_N 	N 	0.36487	0.06557	0.86849	-0.264
Mof_N 	N 	0.561	0.01803	0.94357	-0.224
Mof_N 	N 	0.23836	0.91617	0.08791	-0.255
Mof_N 	N 	0.6416	0.23089	0.58971	-0.276
Mof_N 	N 	0.6983	0.9849	0.7915	-0.274
Mof_N 	N 	0.57079	0.31854	0.70128	-0.222
Mof_N 	N 	0.29893	0.43443	0.63151	-0.264
Mof_N 	N 	0.5226	0.48197	0.55643	-0.225
Mof_N 	N 	0.24244	0.58383	0.41209	-0.254
Mof_O 	O 	0.13396	0.50433	0.05915	-0.658
Mof_O 	O 	0.82466	0.71539	0.12629	-0.623
Mof_O 	O 	0.02068	0.67982	0.01922	-0.694
Mof_O 	O 	0.75901	0.81398	0.0166	-0.602
Mof_O 	O 	0.78857	0.71591	0.92115	-0.617
Mof_O 	O 	0.95996	0.5148	0.15208	-0.624
Mof_O 	O 	0.02944	0.61892	0.925	-0.665
Mof_O 	O 	0.69744	0.99567	0.44085	-0.658
Mof_O 	O 	0.66634	0.78461	0.37371	-0.623
Mof_O 	O 	0.71972	0.82018	0.48078	-0.696
Mof_O 	O 	0.58959	0.68602	0.4834	-0.603
Mof_O 	O 	0.42563	0.78409	0.57885	-0.618
Mof_O 	O 	0.62684	0.9852	0.34792	-0.625
Mof_O 	O 	0.57336	0.88108	0.575	-0.666
Mof_O 	O 	0.86604	0.49567	0.94085	-0.658
Mof_O 	O 	0.17534	0.28461	0.87371	-0.623
Mof_O 	O 	0.97932	0.32018	0.98078	-0.694
Mof_O 	O 	0.24099	0.18602	0.9834	-0.602
Mof_O 	O 	0.21143	0.28409	0.07885	-0.617
Mof_O 	O 	0.04004	0.4852	0.84792	-0.624
Mof_O 	O 	0.97056	0.38108	0.075	-0.665
Mof_O 	O 	0.30256	0.00433	0.55915	-0.658
Mof_O 	O 	0.33366	0.21539	0.62629	-0.623
Mof_O 	O 	0.28028	0.17982	0.51922	-0.696
Mof_O 	O 	0.41041	0.31398	0.5166	-0.603
Mof_O 	O 	0.57437	0.21591	0.42115	-0.618
Mof_O 	O 	0.37316	0.0148	0.65208	-0.625
Mof_O 	O 	0.42664	0.11892	0.425	-0.666
_end
