# CIF file generated by openbabel 3.1.0, see https://openbabel.org
data_I
_chemical_name_common 'image0'
_cell_length_a 14.3847
_cell_length_b 12.2888
_cell_length_c 16.6029
_cell_angle_alpha 90
_cell_angle_beta 90
_cell_angle_gamma 90
_space_group_name_H-M_alt 'P 1'
_space_group_name_Hall 'P 1'
loop_
    _symmetry_equiv_pos_as_xyz
    x,y,z
loop_
    _atom_site_label
    _atom_site_type_symbol
    _atom_site_fract_x
    _atom_site_fract_y
    _atom_site_fract_z
    _atom_site_occupancy
    Mn1      Mn       0.10689    0.47768    0.92615    1.000
    O1       O        0.29030    0.52250    0.52250    1.000
    O2       O        0.29580    0.37400    0.45090    1.000
    O3       O        0.09850    0.33460    0.84110    1.000
    O4       O        0.99940    0.07400    0.62910    1.000
    C1       C        0.14810    0.28160    0.54440    1.000
    H1       H        0.14970    0.25780    0.49120    1.000
    O5       O        0.01700    0.11930    0.50070    1.000
    C2       C        0.26520    0.42660    0.50920    1.000
    C3       C        0.19520    0.40830    0.64650    1.000
    H2       H        0.22640    0.47140    0.66150    1.000
    C4       C        0.14070    0.39050    0.78890    1.000
    C5       C        0.20050    0.37230    0.56700    1.000
    C6       C        0.03360    0.13360    0.57420    1.000
    O6       O        0.17940    0.47820    0.80620    1.000
    C7       C        0.09340    0.26070    0.67940    1.000
    H3       H        0.05890    0.22250    0.71740    1.000
    C8       C        0.09320    0.22630    0.60030    1.000
    C9       C        0.14410    0.35150    0.70330    1.000
    Mn2      Mn       0.39311    0.52232    0.42615    1.000
    O7       O        0.20970    0.47750    0.02250    1.000
    O8       O        0.20420    0.62600    0.95090    1.000
    O9       O        0.40150    0.66540    0.34110    1.000
    O10      O        0.50060    0.92600    0.12910    1.000
    C10      C        0.35190    0.71840    0.04440    1.000
    H4       H        0.35030    0.74220    0.99120    1.000
    O11      O        0.48300    0.88070    0.00070    1.000
    C11      C        0.23480    0.57340    0.00920    1.000
    C12      C        0.30480    0.59170    0.14650    1.000
    H5       H        0.27360    0.52860    0.16150    1.000
    C13      C        0.35930    0.60950    0.28890    1.000
    C14      C        0.29950    0.62770    0.06700    1.000
    C15      C        0.46640    0.86640    0.07420    1.000
    O12      O        0.32060    0.52180    0.30620    1.000
    C16      C        0.40660    0.73930    0.17940    1.000
    H6       H        0.44110    0.77750    0.21740    1.000
    C17      C        0.40680    0.77370    0.10030    1.000
    C18      C        0.35590    0.64850    0.20330    1.000
    Mn3      Mn       0.89311    0.97768    0.57385    1.000
    O13      O        0.70970    0.02250    0.97750    1.000
    O14      O        0.70420    0.87400    0.04910    1.000
    O15      O        0.90150    0.83460    0.65890    1.000
    O16      O        0.00060    0.57400    0.87090    1.000
    C19      C        0.85190    0.78160    0.95560    1.000
    H7       H        0.85030    0.75780    0.00880    1.000
    O17      O        0.98300    0.61930    0.99930    1.000
    C20      C        0.73480    0.92660    0.99080    1.000
    C21      C        0.80480    0.90830    0.85350    1.000
    H8       H        0.77360    0.97140    0.83850    1.000
    C22      C        0.85930    0.89050    0.71110    1.000
    C23      C        0.79950    0.87230    0.93300    1.000
    C24      C        0.96640    0.63360    0.92580    1.000
    O18      O        0.82060    0.97820    0.69380    1.000
    C25      C        0.90660    0.76070    0.82060    1.000
    H9       H        0.94110    0.72250    0.78260    1.000
    C26      C        0.90680    0.72630    0.89970    1.000
    C27      C        0.85590    0.85150    0.79670    1.000
    Mn4      Mn       0.60689    0.02232    0.07385    1.000
    O19      O        0.79030    0.97750    0.47750    1.000
    O20      O        0.79580    0.12600    0.54910    1.000
    O21      O        0.59850    0.16540    0.15890    1.000
    O22      O        0.49940    0.42600    0.37090    1.000
    C28      C        0.64810    0.21840    0.45560    1.000
    H10      H        0.64970    0.24220    0.50880    1.000
    O23      O        0.51700    0.38070    0.49930    1.000
    C29      C        0.76520    0.07340    0.49080    1.000
    C30      C        0.69520    0.09170    0.35350    1.000
    H11      H        0.72640    0.02860    0.33850    1.000
    C31      C        0.64070    0.10950    0.21110    1.000
    C32      C        0.70050    0.12770    0.43300    1.000
    C33      C        0.53360    0.36640    0.42580    1.000
    O24      O        0.67940    0.02180    0.19380    1.000
    C34      C        0.59340    0.23930    0.32060    1.000
    H12      H        0.55890    0.27750    0.28260    1.000
    C35      C        0.59320    0.27370    0.39970    1.000
    C36      C        0.64410    0.14850    0.29670    1.000
    Mn5      Mn       0.89311    0.52232    0.07385    1.000
    O25      O        0.70970    0.47750    0.47750    1.000
    O26      O        0.70420    0.62600    0.54910    1.000
    O27      O        0.90150    0.66540    0.15890    1.000
    O28      O        0.00060    0.92600    0.37090    1.000
    C37      C        0.85190    0.71840    0.45560    1.000
    H13      H        0.85030    0.74220    0.50880    1.000
    O29      O        0.98300    0.88070    0.49930    1.000
    C38      C        0.73480    0.57340    0.49080    1.000
    C39      C        0.80480    0.59170    0.35350    1.000
    H14      H        0.77360    0.52860    0.33850    1.000
    C40      C        0.85930    0.60950    0.21110    1.000
    C41      C        0.79950    0.62770    0.43300    1.000
    C42      C        0.96640    0.86640    0.42580    1.000
    O30      O        0.82060    0.52180    0.19380    1.000
    C43      C        0.90660    0.73930    0.32060    1.000
    H15      H        0.94110    0.77750    0.28260    1.000
    C44      C        0.90680    0.77370    0.39970    1.000
    C45      C        0.85590    0.64850    0.29670    1.000
    Mn6      Mn       0.60689    0.47768    0.57385    1.000
    O31      O        0.79030    0.52250    0.97750    1.000
    O32      O        0.79580    0.37400    0.04910    1.000
    O33      O        0.59850    0.33460    0.65890    1.000
    O34      O        0.49940    0.07400    0.87090    1.000
    C46      C        0.64810    0.28160    0.95560    1.000
    H16      H        0.64970    0.25780    0.00880    1.000
    O35      O        0.51700    0.11930    0.99930    1.000
    C47      C        0.76520    0.42660    0.99080    1.000
    C48      C        0.69520    0.40830    0.85350    1.000
    H17      H        0.72640    0.47140    0.83850    1.000
    C49      C        0.64070    0.39050    0.71110    1.000
    C50      C        0.70050    0.37230    0.93300    1.000
    C51      C        0.53360    0.13360    0.92580    1.000
    O36      O        0.67940    0.47820    0.69380    1.000
    C52      C        0.59340    0.26070    0.82060    1.000
    H18      H        0.55890    0.22250    0.78260    1.000
    C53      C        0.59320    0.22630    0.89970    1.000
    C54      C        0.64410    0.35150    0.79670    1.000
    Mn7      Mn       0.10689    0.02232    0.42615    1.000
    O37      O        0.29030    0.97750    0.02250    1.000
    O38      O        0.29580    0.12600    0.95090    1.000
    O39      O        0.09850    0.16540    0.34110    1.000
    O40      O        0.99940    0.42600    0.12910    1.000
    C55      C        0.14810    0.21840    0.04440    1.000
    H19      H        0.14970    0.24220    0.99120    1.000
    O41      O        0.01700    0.38070    0.00070    1.000
    C56      C        0.26520    0.07340    0.00920    1.000
    C57      C        0.19520    0.09170    0.14650    1.000
    H20      H        0.22640    0.02860    0.16150    1.000
    C58      C        0.14070    0.10950    0.28890    1.000
    C59      C        0.20050    0.12770    0.06700    1.000
    C60      C        0.03360    0.36640    0.07420    1.000
    O42      O        0.17940    0.02180    0.30620    1.000
    C61      C        0.09340    0.23930    0.17940    1.000
    H21      H        0.05890    0.27750    0.21740    1.000
    C62      C        0.09320    0.27370    0.10030    1.000
    C63      C        0.14410    0.14850    0.20330    1.000
    Mn8      Mn       0.39311    0.97768    0.92615    1.000
    O43      O        0.20970    0.02250    0.52250    1.000
    O44      O        0.20420    0.87400    0.45090    1.000
    O45      O        0.40150    0.83460    0.84110    1.000
    O46      O        0.50060    0.57400    0.62910    1.000
    C64      C        0.35190    0.78160    0.54440    1.000
    H22      H        0.35030    0.75780    0.49120    1.000
    O47      O        0.48300    0.61930    0.50070    1.000
    C65      C        0.23480    0.92660    0.50920    1.000
    C66      C        0.30480    0.90830    0.64650    1.000
    H23      H        0.27360    0.97140    0.66150    1.000
    C67      C        0.35930    0.89050    0.78890    1.000
    C68      C        0.29950    0.87230    0.56700    1.000
    C69      C        0.46640    0.63360    0.57420    1.000
    O48      O        0.32060    0.97820    0.80620    1.000
    C70      C        0.40660    0.76070    0.67940    1.000
    H24      H        0.44110    0.72250    0.71740    1.000
    C71      C        0.40680    0.72630    0.60030    1.000
    C72      C        0.35590    0.85150    0.70330    1.000
