data_functionalizedCrystal
_audit_creation_method	'EQeq! by Chris Wilmer'
_symmetry_space_group_name_H-M	'P1'
_symmetry_Int_Tables_number	1
_symmetry_cell_setting	triclinic
loop_
_symmetry_equiv_pos_as_xyz
  x,y,z
_cell_length_a	15.4979
_cell_length_b	15.4979
_cell_length_c	12.3052
_cell_angle_alpha	90
_cell_angle_beta	90
_cell_angle_gamma	90
loop_
_atom_site_label
_atom_site_type_symbol
_atom_site_fract_x
_atom_site_fract_y
_atom_site_fract_z
_atom_site_charge
Mof_O 	O 	0.6082	0.3773	0.6167	-0.897
Mof_O 	O 	0.5918	0.2924	0.7553	-0.802
Mof_C 	C 	0.5828	0.3626	0.7098	0.763
Mof_C 	C 	0.54	0.43149	0.7687	-0.293
Mof_C 	C 	0.54	0.43149	0.8841	0.048
Mof_H 	H 	0.5681	0.3833	0.9246	0.023
Mof_O 	O 	0.1082	0.8773	0.1167	-0.857
Mof_O 	O 	0.0918	0.7924	0.2553	-0.793
Mof_C 	C 	0.0828	0.8626	0.2098	0.74
Mof_C 	C 	0.04	0.93149	0.2687	-0.303
Mof_C 	C 	0.04	0.93149	0.3841	0.125
Mof_H 	H 	0.0681	0.8833	0.4246	-0.028
Mof_O 	O 	0.8918	0.1227	0.1167	-0.863
Mof_O 	O 	0.9082	0.2076	0.2553	-0.794
Mof_C 	C 	0.9172	0.1374	0.2098	0.742
Mof_C 	C 	0.96	0.06851	0.2687	-0.315
Mof_C 	C 	0.96	0.06851	0.3841	0.112
Mof_H 	H 	0.9319	0.1167	0.4246	-0.027
Mof_O 	O 	0.3918	0.6227	0.6167	-0.899
Mof_O 	O 	0.4082	0.7076	0.7553	-0.801
Mof_C 	C 	0.4172	0.6374	0.7098	0.763
Mof_C 	C 	0.46	0.56851	0.7687	-0.294
Mof_C 	C 	0.46	0.56851	0.8841	0.048
Mof_H 	H 	0.4319	0.6167	0.9246	0.024
Mof_O 	O 	0.6227	0.1082	0.8667	-0.974
Mof_O 	O 	0.7076	0.0918	0.0053	-0.92
Mof_C 	C 	0.6374	0.0828	0.9598	1.085
Mof_C 	C 	0.56851	0.04	0.0187	-0.715
Mof_C 	C 	0.56851	0.04	0.1341	0.302
Mof_H 	H 	0.6167	0.0681	0.1746	-0.09
Mof_O 	O 	0.1227	0.6082	0.3667	-0.9
Mof_O 	O 	0.2076	0.5918	0.5053	-0.809
Mof_C 	C 	0.1374	0.5828	0.4598	0.775
Mof_C 	C 	0.06851	0.54	0.5187	-0.349
Mof_C 	C 	0.06851	0.54	0.6341	0.145
Mof_H 	H 	0.1167	0.5681	0.6746	-0.037
Mof_O 	O 	0.8773	0.3918	0.3667	-0.897
Mof_O 	O 	0.7924	0.4082	0.5053	-0.806
Mof_C 	C 	0.8626	0.4172	0.4598	0.774
Mof_C 	C 	0.93149	0.46	0.5187	-0.341
Mof_C 	C 	0.93149	0.46	0.6341	0.153
Mof_H 	H 	0.8833	0.4319	0.6746	-0.037
Mof_O 	O 	0.3773	0.8918	0.8667	-0.968
Mof_O 	O 	0.2924	0.9082	0.0053	-0.918
Mof_C 	C 	0.3626	0.9172	0.9598	1.09
Mof_C 	C 	0.43149	0.96	0.0187	-0.7
Mof_C 	C 	0.43149	0.96	0.1341	0.324
Mof_H 	H 	0.3833	0.9319	0.1746	-0.091
Mof_O 	O 	0.8918	0.3773	0.1333	-0.804
Mof_O 	O 	0.9082	0.2924	0.9947	-0.586
Mof_C 	C 	0.9172	0.3626	0.0402	0.405
Mof_C 	C 	0.96	0.43149	0.9813	0.094
Mof_C 	C 	0.96	0.43149	0.8659	-0.099
Mof_H 	H 	0.9319	0.3833	0.8254	0.045
Mof_O 	O 	0.3918	0.8773	0.6333	-0.898
Mof_O 	O 	0.4082	0.7924	0.4947	-0.805
Mof_C 	C 	0.4172	0.8626	0.5402	0.764
Mof_C 	C 	0.46	0.93149	0.4813	-0.292
Mof_C 	C 	0.46	0.93149	0.3659	0.093
Mof_H 	H 	0.4319	0.8833	0.3254	-0.019
Mof_O 	O 	0.6082	0.1227	0.6333	-0.906
Mof_O 	O 	0.5918	0.2076	0.4947	-0.809
Mof_C 	C 	0.5828	0.1374	0.5402	0.766
Mof_C 	C 	0.54	0.06851	0.4813	-0.312
Mof_C 	C 	0.54	0.06851	0.3659	0.072
Mof_H 	H 	0.5681	0.1167	0.3254	-0.017
Mof_O 	O 	0.1082	0.6227	0.1333	-0.807
Mof_O 	O 	0.0918	0.7076	0.9947	-0.585
Mof_C 	C 	0.0828	0.6374	0.0402	0.405
Mof_C 	C 	0.04	0.56851	0.9813	0.087
Mof_C 	C 	0.04	0.56851	0.8659	-0.107
Mof_H 	H 	0.0681	0.6167	0.8254	0.046
Mof_O 	O 	0.8773	0.1082	0.8833	-0.801
Mof_O 	O 	0.7924	0.0918	0.7447	-0.793
Mof_C 	C 	0.8626	0.0828	0.7902	0.733
Mof_C 	C 	0.93149	0.04	0.7313	-0.292
Mof_C 	C 	0.93149	0.04	0.6159	0.102
Mof_H 	H 	0.8833	0.0681	0.5754	-0.024
Mof_O 	O 	0.3773	0.6082	0.3833	-0.905
Mof_O 	O 	0.2924	0.5918	0.2447	-0.813
Mof_C 	C 	0.3626	0.5828	0.2902	0.783
Mof_C 	C 	0.43149	0.54	0.2313	-0.371
Mof_C 	C 	0.43149	0.54	0.1159	0.167
Mof_H 	H 	0.3833	0.5681	0.0754	-0.073
Mof_O 	O 	0.6227	0.3918	0.3833	-0.906
Mof_O 	O 	0.7076	0.4082	0.2447	-0.812
Mof_C 	C 	0.6374	0.4172	0.2902	0.783
Mof_C 	C 	0.56851	0.46	0.2313	-0.37
Mof_C 	C 	0.56851	0.46	0.1159	0.167
Mof_H 	H 	0.6167	0.4319	0.0754	-0.072
Mof_O 	O 	0.1227	0.8918	0.8833	-0.794
Mof_O 	O 	0.2076	0.9082	0.7447	-0.788
Mof_C 	C 	0.1374	0.9172	0.7902	0.732
Mof_C 	C 	0.06851	0.96	0.7313	-0.278
Mof_C 	C 	0.06851	0.96	0.6159	0.116
Mof_H 	H 	0.1167	0.9319	0.5754	-0.025
Mof_In	In	0.6805	0.3195	0.5	3.065
Mof_In	In	0.1805	0.8195	-0	2.726
Mof_In	In	0.8195	0.1805	-0	2.727
Mof_In	In	0.3195	0.6805	0.5	3.066
Mof_In	In	0.6805	0.1805	0.75	3.125
Mof_In	In	0.1805	0.6805	0.25	3.002
Mof_In	In	0.8195	0.3195	0.25	3.003
Mof_In	In	0.3195	0.8195	0.75	3.132
Mof_O 	O 	0.7557	0.25	0.625	-1.161
Mof_H 	H 	0.8138	0.25	0.625	0.351
Mof_O 	O 	0.2557	0.75	0.125	-1.109
Mof_H 	H 	0.3138	0.75	0.125	0.327
Mof_O 	O 	0.7443	0.25	0.125	-1.11
Mof_H 	H 	0.6862	0.25	0.125	0.326
Mof_O 	O 	0.2443	0.75	0.625	-1.162
Mof_H 	H 	0.1862	0.75	0.625	0.351
Mof_O 	O 	0.75	0.2557	0.875	-1.088
Mof_H 	H 	0.75	0.3138	0.875	0.348
Mof_O 	O 	0.25	0.7557	0.375	-1.144
Mof_H 	H 	0.25	0.8138	0.375	0.348
Mof_O 	O 	0.75	0.2443	0.375	-1.144
Mof_H 	H 	0.75	0.1862	0.375	0.347
Mof_O 	O 	0.25	0.7443	0.875	-1.089
Mof_H 	H 	0.25	0.6862	0.875	0.348
Mof_C 	C 	0.5	0.5	0.711	0.196
Mof_C 	C 	0.5	0.5	0.9418	0.089
Mof_H 	H 	0.5	0.5	0.6299	-0.017
Mof_C 	C 	-1.50714e-33	-2.13529e-33	0.211	0.171
Mof_C 	C 	-2.95534e-33	-4.27057e-33	0.4418	-0.102
Mof_H 	H 	3.86711e-34	0	0.1299	-0.037
Mof_C 	C 	0.5	-8.54114e-33	0.961	0.632
Mof_C 	C 	0.5	-1.06764e-33	0.1918	-0.246
Mof_H 	H 	0.5	-8.54114e-33	0.8799	-0.143
Mof_C 	C 	5.64296e-33	0.5	0.461	0.225
Mof_C 	C 	-1.92934e-32	0.5	0.6918	-0.15
Mof_H 	H 	-3.13961e-33	0.5	0.3799	-0.036
Mof_C 	C 	-4.15447e-33	0.5	0.039	-0.252
Mof_C 	C 	-2.32174e-32	0.5	0.8082	0.087
Mof_H 	H 	-7.10106e-34	0.5	0.1201	0.101
Mof_C 	C 	0.5	0	0.539	0.176
Mof_C 	C 	0.5	-2.13529e-33	0.3082	-0.029
Mof_H 	H 	0.5	4.27057e-33	0.6201	-0.014
Mof_C 	C 	-1.92173e-33	0	0.789	0.157
Mof_C 	C 	-2.60882e-33	0	0.5582	-0.092
Mof_H 	H 	2.59028e-33	0	0.8701	0.003
Mof_C 	C 	0.5	0.5	0.289	0.248
Mof_C 	C 	0.5	0.5	0.0582	-0.233
Mof_H 	H 	0.5	0.5	0.3701	-0.034
_end
