# CIF file generated by openbabel 3.1.0, see https://openbabel.org
data_I
_chemical_name_common 'image0'
_cell_length_a 8.2965
_cell_length_b 8.5833
_cell_length_c 9.876
_cell_angle_alpha 96.564
_cell_angle_beta 102.938
_cell_angle_gamma 94.199
_space_group_name_H-M_alt 'P 1'
_space_group_name_Hall 'P 1'
loop_
    _symmetry_equiv_pos_as_xyz
    x,y,z
loop_
    _atom_site_label
    _atom_site_type_symbol
    _atom_site_fract_x
    _atom_site_fract_y
    _atom_site_fract_z
    _atom_site_occupancy
    O1       O        0.17720    0.69540    0.51770    1.000
    O2       O        0.31320    0.59120    0.36810    1.000
    C1       C        0.39940    0.85600    0.47450    1.000
    C2       C        0.28870    0.70280    0.45140    1.000
    O3       O        0.28280    0.77820    0.15360    1.000
    O4       O        0.17330    0.00160    0.19170    1.000
    C3       C        0.39590    0.95030    0.36800    1.000
    C4       C        0.27570    0.90650    0.22660    1.000
    O5       O        0.52790    0.66780    0.70040    1.000
    C5       C        0.50270    0.90770    0.60750    1.000
    O6       O        0.48560    0.87580    0.83750    1.000
    C6       C        0.50420    0.81020    0.72610    1.000
    O7       O        0.43140    0.62100    0.95250    1.000
    U1       U        0.42066    0.54345    0.16583    1.000
    O8       O        0.82280    0.30460    0.48230    1.000
    O9       O        0.68680    0.40880    0.63190    1.000
    C7       C        0.60060    0.14400    0.52550    1.000
    C8       C        0.71130    0.29720    0.54860    1.000
    O10      O        0.71720    0.22180    0.84640    1.000
    O11      O        0.82670    0.99840    0.80830    1.000
    C9       C        0.60410    0.04970    0.63200    1.000
    C10      C        0.72430    0.09350    0.77340    1.000
    O12      O        0.47210    0.33220    0.29960    1.000
    C11      C        0.49730    0.09230    0.39250    1.000
    O13      O        0.51440    0.12420    0.16250    1.000
    C12      C        0.49580    0.18980    0.27390    1.000
    O14      O        0.56860    0.37900    0.04750    1.000
    U2       U        0.57934    0.45655    0.83417    1.000
    Co1      Co       0.00000    0.50000    0.50000    1.000
    Co2      Co       0.00000    0.00000    0.00000    1.000
