# CIF file generated by openbabel 3.1.0, see https://openbabel.org
data_I
_chemical_name_common 'image0'
_cell_length_a 12.002
_cell_length_b 15.372
_cell_length_c 18.018
_cell_angle_alpha 90.15
_cell_angle_beta 96.901
_cell_angle_gamma 92.013
_space_group_name_H-M_alt 'P 1'
_space_group_name_Hall 'P 1'
loop_
    _symmetry_equiv_pos_as_xyz
    x,y,z
loop_
    _atom_site_label
    _atom_site_type_symbol
    _atom_site_fract_x
    _atom_site_fract_y
    _atom_site_fract_z
    _atom_site_occupancy
    Y1       Y        0.30664    0.41735    0.77243    1.000
    Y2       Y        0.19166    0.21279    0.46725    1.000
    Y3       Y        0.70413    0.31185    0.46855    1.000
    Y4       Y        0.40160    0.22809    0.07069    1.000
    Y5       Y        0.90127    0.26527    0.06999    1.000
    Y6       Y        0.79283    0.08837    0.76312    1.000
    N1       N        0.45150    0.29640    0.76010    1.000
    C1       C        0.50050    0.26570    0.82380    1.000
    C2       C        0.59480    0.22340    0.83010    1.000
    H1       H        0.62540    0.20580    0.87730    1.000
    N2       N        0.64890    0.20460    0.77070    1.000
    C3       C        0.60890    0.24010    0.70470    1.000
    C4       C        0.50530    0.28500    0.70050    1.000
    H2       H        0.47490    0.30690    0.65470    1.000
    C5       C        0.67460    0.22910    0.63860    1.000
    O1       O        0.74490    0.17370    0.64870    1.000
    O2       O        0.65310    0.28040    0.58640    1.000
    C6       C        0.43060    0.28550    0.88890    1.000
    O3       O        0.34760    0.32980    0.87650    1.000
    O4       O        0.46970    0.25200    0.95280    1.000
    N3       N        0.14480    0.30450    0.77130    1.000
    C7       C        0.09820    0.27540    0.70540    1.000
    C8       C        0.99100    0.23660    0.69640    1.000
    H3       H        0.95800    0.22160    0.64850    1.000
    N4       N        0.93340    0.22010    0.75470    1.000
    C9       C        0.98530    0.24730    0.82340    1.000
    C10      C        0.08830    0.28780    0.82840    1.000
    H4       H        0.12150    0.30520    0.87560    1.000
    C11      C        0.16930    0.28600    0.64350    1.000
    O5       O        0.25410    0.33950    0.65740    1.000
    O6       O        0.14190    0.24200    0.58490    1.000
    C12      C        0.92130    0.22180    0.88770    1.000
    O7       O        0.84280    0.16750    0.87470    1.000
    O8       O        0.95860    0.25400    0.94770    1.000
    N5       N        0.06550    0.07690    0.49290    1.000
    C13      C        0.05730    0.01460    0.44180    1.000
    C14      C        0.99190    0.93830    0.44940    1.000
    H5       H        0.98850    0.89600    0.41200    1.000
    C15      C        0.12310    0.02790    0.37760    1.000
    O9       O        0.16880    0.10000    0.37490    1.000
    O10      O        0.12510    0.96550    0.33470    1.000
    N6       N        0.11680    0.27820    0.34110    1.000
    C16      C        0.00810    0.29460    0.33240    1.000
    C17      C        0.95570    0.31730    0.26160    1.000
    H6       H        0.88400    0.33920    0.25820    1.000
    N7       N        0.00280    0.30940    0.20000    1.000
    C18      C        0.10860    0.29360    0.20700    1.000
    C19      C        0.16900    0.28110    0.27690    1.000
    H7       H        0.24620    0.27450    0.28040    1.000
    C20      C        0.95260    0.28220    0.40090    1.000
    O11      O        0.00860    0.25070    0.45690    1.000
    O12      O        0.84960    0.30580    0.39390    1.000
    C21      C        0.16520    0.27060    0.13960    1.000
    O13      O        0.09890    0.26340    0.08070    1.000
    O14      O        0.26820    0.25860    0.14790    1.000
    N8       N        0.62160    0.22650    0.34670    1.000
    C22      C        0.51020    0.21440    0.33630    1.000
    C23      C        0.45070    0.19130    0.26800    1.000
    H8       H        0.37590    0.17210    0.26540    1.000
    N9       N        0.50080    0.19680    0.20600    1.000
    C24      C        0.61440    0.20690    0.21610    1.000
    C25      C        0.67250    0.21780    0.28450    1.000
    H9       H        0.75060    0.21940    0.28890    1.000
    C26      C        0.45020    0.23250    0.40470    1.000
    O15      O        0.51430    0.26760    0.45960    1.000
    O16      O        0.34820    0.21870    0.40010    1.000
    C27      C        0.66600    0.22300    0.14340    1.000
    O17      O        0.60080    0.23340    0.08460    1.000
    O18      O        0.76950    0.23020    0.15120    1.000
    N10      N        0.57840    0.43460    0.49550    1.000
    C28      C        0.54640    0.48840    0.43690    1.000
    C29      C        0.47050    0.55060    0.44280    1.000
    H10      H        0.45120    0.58530    0.40130    1.000
    C30      C        0.60330    0.47100    0.36870    1.000
    O19      O        0.65200    0.40320    0.36490    1.000
    O20      O        0.59650    0.53060    0.32220    1.000
    N11      N        0.47070    0.08100    0.02410    1.000
    C31      C        0.42700    0.00960    0.05010    1.000
    C32      C        0.45680    0.92780    0.02490    1.000
    H11      H        0.42420    0.87790    0.04350    1.000
    C33      C        0.35470    0.02050    0.11000    1.000
    O21      O        0.33080    0.09710    0.12300    1.000
    O22      O        0.31710    0.95470    0.14310    1.000
    N12      N        0.97540    0.41780    0.02900    1.000
    C34      C        0.92410    0.48840    0.04850    1.000
    C35      C        0.94700    0.56640    0.01770    1.000
    H12      H        0.90540    0.61310    0.03000    1.000
    C36      C        0.83940    0.47460    0.10280    1.000
    O23      O        0.82240    0.39830    0.12060    1.000
    O24      O        0.79520    0.53920    0.12690    1.000
    O25      O        0.86600    0.35130    0.56060    1.000
    N13      N        0.87840    0.43200    0.54190    1.000
    O26      O        0.80730    0.45540    0.48770    1.000
    O27      O        0.95320    0.48060    0.57380    1.000
    Y7       Y        0.69336    0.58265    0.22757    1.000
    Y8       Y        0.80834    0.78721    0.53275    1.000
    Y9       Y        0.29587    0.68815    0.53145    1.000
    Y10      Y        0.59840    0.77191    0.92931    1.000
    Y11      Y        0.09873    0.73473    0.93001    1.000
    Y12      Y        0.20717    0.91163    0.23688    1.000
    N14      N        0.54850    0.70360    0.23990    1.000
    C37      C        0.49950    0.73430    0.17620    1.000
    C38      C        0.40520    0.77660    0.16990    1.000
    H13      H        0.37460    0.79420    0.12270    1.000
    N15      N        0.35110    0.79540    0.22930    1.000
    C39      C        0.39110    0.75990    0.29530    1.000
    C40      C        0.49470    0.71500    0.29950    1.000
    H14      H        0.52510    0.69310    0.34530    1.000
    C41      C        0.32540    0.77090    0.36140    1.000
    O28      O        0.25510    0.82630    0.35130    1.000
    O29      O        0.34690    0.71960    0.41360    1.000
    C42      C        0.56940    0.71450    0.11110    1.000
    O30      O        0.65240    0.67020    0.12350    1.000
    O31      O        0.53030    0.74800    0.04720    1.000
    N16      N        0.85520    0.69550    0.22870    1.000
    C43      C        0.90180    0.72460    0.29460    1.000
    C44      C        0.00900    0.76340    0.30360    1.000
    H15      H        0.04200    0.77840    0.35150    1.000
    N17      N        0.06660    0.77990    0.24530    1.000
    C45      C        0.01470    0.75270    0.17660    1.000
    C46      C        0.91170    0.71220    0.17160    1.000
    H16      H        0.87850    0.69480    0.12440    1.000
    C47      C        0.83070    0.71400    0.35650    1.000
    O32      O        0.74590    0.66050    0.34260    1.000
    O33      O        0.85810    0.75800    0.41510    1.000
    C48      C        0.07870    0.77820    0.11230    1.000
    O34      O        0.15720    0.83250    0.12530    1.000
    O35      O        0.04140    0.74600    0.05230    1.000
    N18      N        0.93450    0.92310    0.50710    1.000
    C49      C        0.94270    0.98540    0.55820    1.000
    C50      C        0.00810    0.06170    0.55060    1.000
    H17      H        0.01150    0.10400    0.58800    1.000
    C51      C        0.87690    0.97210    0.62240    1.000
    O36      O        0.83120    0.90000    0.62510    1.000
    O37      O        0.87490    0.03450    0.66530    1.000
    N19      N        0.88320    0.72180    0.65890    1.000
    C52      C        0.99190    0.70540    0.66760    1.000
    C53      C        0.04430    0.68270    0.73840    1.000
    H18      H        0.11600    0.66080    0.74180    1.000
    N20      N        0.99720    0.69060    0.80000    1.000
    C54      C        0.89140    0.70640    0.79300    1.000
    C55      C        0.83100    0.71890    0.72310    1.000
    H19      H        0.75380    0.72550    0.71960    1.000
    C56      C        0.04740    0.71780    0.59910    1.000
    O38      O        0.99140    0.74930    0.54310    1.000
    O39      O        0.15040    0.69420    0.60610    1.000
    C57      C        0.83480    0.72940    0.86040    1.000
    O40      O        0.90110    0.73660    0.91930    1.000
    O41      O        0.73180    0.74140    0.85210    1.000
    N21      N        0.37840    0.77350    0.65330    1.000
    C58      C        0.48980    0.78560    0.66370    1.000
    C59      C        0.54930    0.80870    0.73200    1.000
    H20      H        0.62410    0.82790    0.73460    1.000
    N22      N        0.49920    0.80320    0.79400    1.000
    C60      C        0.38560    0.79310    0.78390    1.000
    C61      C        0.32750    0.78220    0.71550    1.000
    H21      H        0.24940    0.78060    0.71110    1.000
    C62      C        0.54980    0.76750    0.59530    1.000
    O42      O        0.48570    0.73240    0.54040    1.000
    O43      O        0.65180    0.78130    0.59990    1.000
    C63      C        0.33400    0.77700    0.85660    1.000
    O44      O        0.39920    0.76660    0.91540    1.000
    O45      O        0.23050    0.76980    0.84880    1.000
    N23      N        0.42160    0.56540    0.50450    1.000
    C64      C        0.45360    0.51160    0.56310    1.000
    C65      C        0.52950    0.44940    0.55720    1.000
    H22      H        0.54880    0.41470    0.59870    1.000
    C66      C        0.39670    0.52900    0.63130    1.000
    O46      O        0.34800    0.59680    0.63510    1.000
    O47      O        0.40350    0.46940    0.67780    1.000
    N24      N        0.52930    0.91900    0.97590    1.000
    C67      C        0.57300    0.99040    0.94990    1.000
    C68      C        0.54320    0.07220    0.97510    1.000
    H23      H        0.57580    0.12210    0.95650    1.000
    C69      C        0.64530    0.97950    0.89000    1.000
    O48      O        0.66920    0.90290    0.87700    1.000
    O49      O        0.68290    0.04530    0.85690    1.000
    N25      N        0.02460    0.58220    0.97100    1.000
    C70      C        0.07590    0.51160    0.95150    1.000
    C71      C        0.05300    0.43360    0.98230    1.000
    H24      H        0.09460    0.38690    0.97000    1.000
    C72      C        0.16060    0.52540    0.89720    1.000
    O50      O        0.17760    0.60170    0.87940    1.000
    O51      O        0.20480    0.46080    0.87310    1.000
    O52      O        0.13400    0.64870    0.43940    1.000
    N26      N        0.12160    0.56800    0.45810    1.000
    O53      O        0.19270    0.54460    0.51230    1.000
    O54      O        0.04680    0.51940    0.42620    1.000
