data_functionalizedCrystal
_audit_creation_method	'EQeq! by Chris Wilmer'
_symmetry_space_group_name_H-M	'P1'
_symmetry_Int_Tables_number	1
_symmetry_cell_setting	triclinic
loop_
_symmetry_equiv_pos_as_xyz
  x,y,z
_cell_length_a	9.9165
_cell_length_b	10.9693
_cell_length_c	13.0528
_cell_angle_alpha	90
_cell_angle_beta	90
_cell_angle_gamma	101.633
loop_
_atom_site_label
_atom_site_type_symbol
_atom_site_fract_x
_atom_site_fract_y
_atom_site_fract_z
_atom_site_charge
Mof_Mn	Mn	0.37357	0.75178	0.88756	0.938
Mof_Mn	Mn	0.87554	0.74682	0.88847	0.931
Mof_Mn	Mn	0.62643	0.24822	0.38756	0.952
Mof_Mn	Mn	0.12446	0.25318	0.38847	0.946
Mof_H 	H 	0.5925	0.6464	0.1869	0.067
Mof_H 	H 	0.3922	0.4813	0.8219	0.012
Mof_H 	H 	0.1029	0.5132	0.6172	0.074
Mof_H 	H 	0.2991	0.3753	0.2046	0.009
Mof_H 	H 	0.0486	0.861	0.0825	0.02
Mof_H 	H 	0.6236	0.2546	0.6311	0.019
Mof_H 	H 	0.0865	0.6372	0.7547	0.014
Mof_H 	H 	0.9576	0.0089	0.7203	0.074
Mof_H 	H 	0.6775	0.8553	0.5911	0.06
Mof_H 	H 	0.6595	0.9794	0.4525	0.014
Mof_H 	H 	0.0424	0.9911	0.2203	0.076
Mof_H 	H 	0.6177	0.1319	0.773	0.054
Mof_H 	H 	0.3764	0.7454	0.1311	0.019
Mof_H 	H 	0.6078	0.5187	0.3219	0.011
Mof_H 	H 	0.3405	0.0206	0.9525	-0.01
Mof_H 	H 	0.9135	0.3628	0.2547	0.009
Mof_H 	H 	0.3894	0.6384	0.5016	0.059
Mof_H 	H 	0.6106	0.3616	0.0016	0.073
Mof_H 	H 	0.4075	0.3536	0.6869	0.057
Mof_H 	H 	0.3225	0.1447	0.0911	0.071
Mof_H 	H 	0.9514	0.139	0.5825	0.018
Mof_H 	H 	0.8971	0.4868	0.1172	0.085
Mof_H 	H 	0.7004	0.4996	0.5654	0.076
Mof_H 	H 	0.7009	0.6247	0.7046	0.013
Mof_H 	H 	0.3847	0.7604	0.6424	0.016
Mof_H 	H 	0.2996	0.5004	0.0654	0.09
Mof_H 	H 	0.6674	0.8684	0.0175	0.025
Mof_H 	H 	0.3469	0.004	0.6551	0.069
Mof_H 	H 	0.3326	0.1316	0.5175	0.019
Mof_H 	H 	0.6531	0.996	0.1551	0.072
Mof_H 	H 	0.3823	0.8681	0.273	0.061
Mof_H 	H 	0.6153	0.2396	0.1424	0.014
Mof_C 	C 	0.9918	0.3929	0.216	0.081
Mof_C 	C 	0.6082	0.3958	0.0667	-0.087
Mof_C 	C 	0.6309	0.0998	0.7087	-0.057
Mof_C 	C 	0.3918	0.6042	0.5667	-0.067
Mof_C 	C 	0.0316	0.11	0.5956	0.054
Mof_C 	C 	0.7804	0.5248	0.6034	-0.083
Mof_C 	C 	0.6634	0.9357	0.6008	-0.069
Mof_C 	C 	0.9646	0.967	0.1796	-0.075
Mof_C 	C 	0.9015	0.4868	0.5764	-0.046
Mof_C 	C 	0.3691	0.828	0.1225	0.052
Mof_C 	C 	0.0985	0.5132	0.0764	-0.013
Mof_C 	C 	0.345	0.988	0.0179	0.097
Mof_C 	C 	0.6008	0.519	0.077	-0.021
Mof_C 	C 	0.1583	0.9028	0.7898	0.381
Mof_C 	C 	0.2181	0.4003	0.1867	0.087
Mof_C 	C 	0.655	0.012	0.5179	0.059
Mof_C 	C 	0.7352	0.9705	0.1413	-0.073
Mof_C 	C 	0.4012	0.4359	0.6755	-0.07
Mof_C 	C 	0.0188	0.5329	0.6343	-0.077
Mof_C 	C 	0.6309	0.172	0.6225	0.043
Mof_C 	C 	0.2196	0.4752	0.1034	-0.102
Mof_C 	C 	0.9812	0.4671	0.1343	-0.094
Mof_C 	C 	0.5988	0.5641	0.1755	-0.089
Mof_C 	C 	0.3691	0.9002	0.2087	-0.073
Mof_C 	C 	0.0354	0.033	0.6796	-0.066
Mof_C 	C 	0.6559	0.8985	0.7909	0.389
Mof_C 	C 	0.3992	0.481	0.577	-0.055
Mof_C 	C 	0.6122	0.3231	0.1513	0.065
Mof_C 	C 	0.5903	0.5991	0.9857	0.337
Mof_C 	C 	0.7819	0.5997	0.6867	0.073
Mof_C 	C 	0.0082	0.6071	0.716	0.068
Mof_C 	C 	0.3937	0.5136	0.7559	0.059
Mof_C 	C 	0.9684	0.89	0.0956	0.062
Mof_C 	C 	0.2548	0.1058	0.5578	0.052
Mof_C 	C 	0.3878	0.6769	0.6513	0.052
Mof_C 	C 	0.6504	0.981	0.6991	-0.06
Mof_C 	C 	0.0912	0.5962	0.9859	0.357
Mof_C 	C 	0.3496	0.019	0.1991	-0.043
Mof_C 	C 	0.1539	0.9926	0.7024	-0.053
Mof_C 	C 	0.9088	0.4038	0.4859	0.385
Mof_C 	C 	0.2648	0.0295	0.6413	-0.064
Mof_C 	C 	0.7452	0.8942	0.0578	0.057
Mof_C 	C 	0.3366	0.0643	0.1008	-0.089
Mof_C 	C 	0.3441	0.1015	0.2909	0.385
Mof_C 	C 	0.8417	0.0972	0.2898	0.379
Mof_C 	C 	0.6063	0.4864	0.2559	0.07
Mof_C 	C 	0.8461	0.0074	0.2024	-0.038
Mof_C 	C 	0.4097	0.4009	0.4857	0.367
Mof_N 	N 	0.3884	0.6325	0.745	-0.176
Mof_N 	N 	0.1401	0.1441	0.5323	-0.178
Mof_N 	N 	0.6116	0.3675	0.245	-0.181
Mof_N 	N 	0.8599	0.8559	0.0323	-0.172
Mof_N 	N 	0.1086	0.3618	0.2427	-0.186
Mof_N 	N 	0.3593	0.8698	0.0267	-0.177
Mof_N 	N 	0.8914	0.6382	0.7427	-0.181
Mof_N 	N 	0.6407	0.1302	0.5267	-0.177
Mof_O 	O 	0.238	0.1448	0.2949	-0.38
Mof_O 	O 	0.983	0.6331	0.9739	-0.391
Mof_O 	O 	0.4419	0.1148	0.3501	-0.387
Mof_O 	O 	0.7324	0.1385	0.2933	-0.38
Mof_O 	O 	0.8058	0.3806	0.4278	-0.385
Mof_O 	O 	0.0595	0.8816	0.8478	-0.388
Mof_O 	O 	0.514	0.3541	0.4806	-0.382
Mof_O 	O 	0.3148	0.3866	0.4211	-0.368
Mof_O 	O 	0.5581	0.8852	0.8501	-0.393
Mof_O 	O 	0.9405	0.1184	0.3478	-0.383
Mof_O 	O 	0.2676	0.8615	0.7933	-0.382
Mof_O 	O 	0.486	0.6459	0.9806	-0.384
Mof_O 	O 	0.1942	0.6194	0.9278	-0.383
Mof_O 	O 	0.762	0.8552	0.7949	-0.384
Mof_O 	O 	0.6852	0.6134	0.9211	-0.366
Mof_O 	O 	0.017	0.3669	0.4739	-0.39
_end
