data_functionalizedCrystal
_audit_creation_method	'EQeq! by Chris Wilmer'
_symmetry_space_group_name_H-M	'P1'
_symmetry_Int_Tables_number	1
_symmetry_cell_setting	triclinic
loop_
_symmetry_equiv_pos_as_xyz
  x,y,z
_cell_length_a	32.1539
_cell_length_b	32.1539
_cell_length_c	32.1539
_cell_angle_alpha	60
_cell_angle_beta	60
_cell_angle_gamma	60
loop_
_atom_site_label
_atom_site_type_symbol
_atom_site_fract_x
_atom_site_fract_y
_atom_site_fract_z
_atom_site_charge
Mof_H 	H 	0.44187	0.15452	0.62266	0.014
Mof_H 	H 	0.80807	0.43492	0.49212	0.016
Mof_H 	H 	0.95896	0.55362	0.34118	0.016
Mof_H 	H 	0.72374	0.63753	0.49199	0.015
Mof_H 	H 	0.80783	0.78963	0.25584	0.016
Mof_H 	H 	0.95965	0.63809	0.13742	0.017
Mof_C 	C 	0.43294	0.0779	0.01176	-0.032
Mof_N 	N 	0.43072	0.15637	0.00296	-0.136
Mof_C 	C 	0.4105	0.11898	0.02896	0.001
Mof_N 	N 	0.42235	0.03416	0.02777	-0.286
Mof_C 	C 	0.11308	0.16574	0.01978	0.082
Mof_H 	H 	0.35406	0.23583	0.02193	0.029
Mof_C 	C 	0.15713	0.16726	0.01839	-0.03
Mof_C 	C 	0.24864	0.26326	0.00977	0.065
Mof_C 	C 	0.32261	0.25641	0.00704	0.059
Mof_N 	N 	0.285	0.23658	0.03124	-0.149
Mof_N 	N 	0.20535	0.2527	0.02483	-0.306
Mof_H 	H 	0.84629	0.23558	0.02077	0.029
Mof_C 	C 	0.93512	0.26369	0.01041	0.068
Mof_C 	C 	0.87172	0.25631	0.00644	0.06
Mof_N 	N 	0.90443	0.23667	0.03118	-0.148
Mof_N 	N 	0.97303	0.25375	0.02634	-0.302
Mof_C 	C 	0.93621	0.07956	0.00957	-0.033
Mof_N 	N 	0.86835	0.15763	0.00011	-0.136
Mof_C 	C 	0.90035	0.12116	0.02596	0
Mof_N 	N 	0.97446	0.03613	0.02607	-0.291
Mof_C 	C 	0.33425	0.98801	0.02086	0.117
Mof_C 	C 	0.15936	0.94443	0.01968	0.075
Mof_C 	C 	0.24846	0.76562	0.01031	-0.033
Mof_N 	N 	0.32699	0.69831	0.00058	-0.137
Mof_C 	C 	0.29003	0.72988	0.02677	0.003
Mof_N 	N 	0.20486	0.80368	0.02691	-0.29
Mof_H 	H 	0.14901	0.50222	0.05298	0.018
Mof_Zn	Zn	0.05066	0.69654	0.02865	1.171
Mof_N 	N 	0.06969	0.64089	0.0067	-0.31
Mof_Zn	Zn	0.04654	0.51374	0.03103	1.17
Mof_N 	N 	0.06986	0.57007	0.00762	-0.298
Mof_C 	C 	0.11508	0.98835	0.01859	0.018
Mof_H 	H 	0.40581	0.6765	0.02008	0.029
Mof_C 	C 	0.33607	0.94373	0.01936	-0.033
Mof_C 	C 	0.43274	0.76612	0.00971	0.065
Mof_C 	C 	0.42617	0.70229	0.00569	0.058
Mof_N 	N 	0.40607	0.73511	0.03045	-0.148
Mof_N 	N 	0.42225	0.80427	0.02563	-0.306
Mof_H 	H 	0.00522	0.61486	0.05231	-0.037
Mof_C 	C 	0.04376	0.60946	0.02525	0.061
Mof_Zn	Zn	0.86374	0.51352	0.03096	1.169
Mof_N 	N 	0.90088	0.52797	0.05478	-0.274
Mof_N 	N 	0.8094	0.572	0.00634	-0.3
Mof_N 	N 	0.97487	0.73341	0.05403	-0.268
Mof_Zn	Zn	0.68367	0.88071	0.02639	1.171
Mof_N 	N 	0.69683	0.80503	0.05247	-0.271
Mof_N 	N 	0.74163	0.8998	0.00637	-0.312
Mof_Zn	Zn	0.68115	0.69621	0.03092	1.172
Mof_N 	N 	0.699	0.73361	0.05147	-0.283
Mof_N 	N 	0.73986	0.64286	0.00508	-0.31
Mof_Zn	Zn	0.86624	0.87886	0.03161	1.171
Mof_N 	N 	0.90356	0.80363	0.05243	-0.287
Mof_N 	N 	0.81242	0.89957	0.00563	-0.294
Mof_N 	N 	0.97148	0.52965	0.05346	-0.286
Mof_H 	H 	0.75003	0.50115	0.05519	0.017
Mof_H 	H 	0.66972	0.98353	0.05077	0.02
Mof_H 	H 	0.97347	0.51022	0.99773	-0.007
Mof_C 	C 	0.95105	0.52127	0.03158	0.02
Mof_H 	H 	0.9771	0.80599	0.99749	-0.006
Mof_C 	C 	0.95447	0.78346	0.03093	0.02
Mof_H 	H 	0.67894	0.80691	0.99585	-0.005
Mof_C 	C 	0.69026	0.78442	0.02954	0.018
Mof_H 	H 	0.78383	0.61792	0.05069	-0.036
Mof_C 	C 	0.77863	0.61158	0.02367	0.058
Mof_H 	H 	0.78797	0.83472	0.05021	-0.034
Mof_C 	C 	0.78143	0.87346	0.02369	0.063
Mof_H 	H 	0.1631	0.22034	0.77701	0.026
Mof_C 	C 	0.11484	0.31666	0.69206	0.098
Mof_C 	C 	0.16056	0.24804	0.7399	0.087
Mof_N 	N 	0.11454	0.28359	0.73897	-0.157
Mof_H 	H 	0.14985	0.35211	0.28495	0.023
Mof_Zn	Zn	0.18095	0.19596	0.53104	1.177
Mof_H 	H 	0.24431	0.12791	0.69514	0.024
Mof_H 	H 	0.35416	0.23554	0.38004	0.028
Mof_C 	C 	0.15883	0.16507	0.64742	0.098
Mof_C 	C 	0.20711	0.13985	0.69282	0.085
Mof_C 	C 	0.10636	0.19023	0.50465	0.099
Mof_N 	N 	0.11341	0.14072	0.53148	-0.16
Mof_C 	C 	0.25679	0.13244	0.46307	0.105
Mof_N 	N 	0.23949	0.16231	0.42363	-0.155
Mof_C 	C 	0.24776	0.26363	0.46905	0.096
Mof_C 	C 	0.32236	0.25631	0.40547	0.085
Mof_N 	N 	0.20582	0.15155	0.6469	-0.157
Mof_C 	C 	0.09074	0.12158	0.52286	0.089
Mof_C 	C 	0.26891	0.14667	0.38282	0.085
Mof_N 	N 	0.28461	0.23661	0.43833	-0.154
Mof_N 	N 	0.14441	0.17937	0.60692	-0.285
Mof_N 	N 	0.12505	0.22104	0.5042	-0.287
Mof_N 	N 	0.23645	0.13824	0.50997	-0.295
Mof_N 	N 	0.20396	0.25364	0.50722	-0.291
Mof_Zn	Zn	0.3645	0.0099	0.0846	1.163
Mof_H 	H 	0.29683	0.07351	0.92496	0.03
Mof_C 	C 	0.30909	0.03628	0.95236	0.055
Mof_C 	C 	0.30111	0.08732	0.13797	0.095
Mof_N 	N 	0.33202	0.07067	0.16355	-0.164
Mof_N 	N 	0.32042	0.03507	0.98811	-0.159
Mof_C 	C 	0.31681	0.10039	0.19014	0.082
Mof_N 	N 	0.30692	0.06665	0.10587	-0.302
Mof_H 	H 	0.40438	0.32247	0.37829	0.027
Mof_C 	C 	0.33472	0.31733	0.64759	0.099
Mof_C 	C 	0.30966	0.24879	0.69276	0.087
Mof_C 	C 	0.43159	0.30915	0.46916	0.096
Mof_C 	C 	0.42448	0.30682	0.40468	0.085
Mof_N 	N 	0.32114	0.28451	0.64693	-0.157
Mof_N 	N 	0.40548	0.33148	0.4373	-0.155
Mof_N 	N 	0.42172	0.32451	0.50747	-0.29
Mof_H 	H 	0.16269	0.07454	0.83035	0.03
Mof_C 	C 	0.16029	0.03735	0.84239	0.051
Mof_N 	N 	0.11433	0.03615	0.85406	-0.173
Mof_C 	C 	0.48711	0.16548	0.69177	0.098
Mof_C 	C 	0.41865	0.14027	0.74035	0.085
Mof_C 	C 	0.47822	0.26408	0.78153	0.001
Mof_N 	N 	0.46919	0.26211	0.85999	-0.117
Mof_N 	N 	0.45431	0.15196	0.73886	-0.158
Mof_C 	C 	0.4954	0.2419	0.82258	-0.002
Mof_N 	N 	0.49458	0.25344	0.73776	-0.278
Mof_H 	H 	0.39053	0.07475	0.69568	0.03
Mof_H 	H 	0.488	0.18478	0.3803	0.027
Mof_C 	C 	0.41808	0.03758	0.69321	0.049
Mof_C 	C 	0.4764	0.07891	0.46991	0.093
Mof_C 	C 	0.47325	0.15325	0.40599	0.083
Mof_N 	N 	0.45387	0.03659	0.6473	-0.174
Mof_N 	N 	0.49755	0.11556	0.43914	-0.156
Mof_N 	N 	0.49176	0.03521	0.50826	-0.293
Mof_H 	H 	0.16097	0.12777	0.92425	0.024
Mof_C 	C 	0.15858	0.14006	0.95161	0.09
Mof_N 	N 	0.11262	0.15187	0.98705	-0.143
Mof_N 	N 	0.07259	0.18015	0.06034	-0.284
Mof_H 	H 	0.2438	0.22317	0.82968	0.026
Mof_C 	C 	0.15809	0.31878	0.86751	0.099
Mof_C 	C 	0.20651	0.25042	0.84213	0.087
Mof_C 	C 	0.24861	0.30784	0.96635	0.03
Mof_N 	N 	0.32673	0.2986	0.96532	-0.101
Mof_N 	N 	0.20522	0.28631	0.85334	-0.157
Mof_C 	C 	0.28975	0.32481	0.94455	-0.009
Mof_N 	N 	0.20515	0.32419	0.95519	-0.286
Mof_Zn	Zn	0.05106	0.32652	0.2141	1.176
Mof_C 	C 	0.07643	0.21939	0.22147	0.1
Mof_N 	N 	0.04984	0.20356	0.27104	-0.158
Mof_C 	C 	0.11694	0.27259	0.27813	0.101
Mof_N 	N 	0.15624	0.2464	0.24761	-0.156
Mof_C 	C 	0.05802	0.15324	0.28978	0.089
Mof_C 	C 	0.19732	0.21926	0.26281	0.086
Mof_N 	N 	0.07724	0.26837	0.19084	-0.29
Mof_N 	N 	0.06982	0.30488	0.27277	-0.296
Mof_H 	H 	0.0893	0.154	0.77272	0.014
Mof_C 	C 	0.38997	0.02766	0.30951	0.048
Mof_H 	H 	0.44215	0.07064	0.85657	0.022
Mof_H 	H 	0.23976	0.27247	0.62171	0.014
Mof_H 	H 	0.37663	0.12472	0.42943	0.023
Mof_H 	H 	0.23837	0.15475	0.97501	0.013
Mof_H 	H 	0.08832	0.27265	0.85868	0.015
Mof_H 	H 	0.32434	0.06955	0.62239	0.022
Mof_H 	H 	0.08948	0.06947	0.97495	0.021
Mof_Zn	Zn	0.04845	0.32869	0.39847	1.174
Mof_H 	H 	0.03287	0.21576	0.44088	0.013
Mof_H 	H 	0.16599	0.23836	0.36808	0.02
Mof_C 	C 	0.07754	0.22019	0.47137	-0.003
Mof_C 	C 	0.05566	0.19599	0.46574	0.002
Mof_C 	C 	0.1172	0.27198	0.32229	-0
Mof_C 	C 	0.16179	0.24202	0.33461	-0.001
Mof_N 	N 	0.06274	0.14622	0.49172	-0.121
Mof_N 	N 	0.2019	0.21596	0.30415	-0.12
Mof_N 	N 	0.0788	0.2694	0.45074	-0.279
Mof_N 	N 	0.07007	0.30432	0.34322	-0.284
Mof_N 	N 	0.38756	0.03199	0.26654	-0.137
Mof_H 	H 	0.37683	0.12238	0.06272	0.022
Mof_H 	H 	0.36718	0.06119	0.32157	0.033
Mof_H 	H 	0.03728	0.1379	0.32992	0.018
Mof_H 	H 	0.23078	0.19684	0.23964	0.029
Mof_C 	C 	0.11377	0.31681	0.86995	0
Mof_N 	N 	0.1668	0.24449	0.84377	-0.119
Mof_C 	C 	0.12002	0.27769	0.85766	0.002
Mof_Zn	Zn	0.1815	0.19605	0.0817	1.173
Mof_H 	H 	0.13899	0.10833	0.19491	0.01
Mof_H 	H 	0.21298	0.19424	0.16855	0.02
Mof_N 	N 	0.20278	0.14087	0.9462	-0.124
Mof_C 	C 	0.1091	0.18758	0.19112	-0.002
Mof_C 	C 	0.11445	0.13595	0.21499	0.002
Mof_C 	C 	0.25706	0.13116	0.13801	-0
Mof_C 	C 	0.24552	0.15932	0.16643	0
Mof_C 	C 	0.20247	0.15445	0.97963	0.029
Mof_N 	N 	0.08867	0.11901	0.26478	-0.122
Mof_N 	N 	0.27577	0.14332	0.19255	-0.12
Mof_N 	N 	0.14327	0.1821	0.05869	-0.275
Mof_N 	N 	0.12963	0.2176	0.14197	-0.279
Mof_N 	N 	0.23606	0.13645	0.10618	-0.283
Mof_Zn	Zn	0.36396	0.01135	0.53167	1.163
Mof_H 	H 	0.36227	0.0424	0.41477	0.007
Mof_N 	N 	0.31029	0.03397	0.70071	-0.134
Mof_C 	C 	0.30087	0.08849	0.46305	-0.006
Mof_C 	C 	0.32803	0.07571	0.41876	-0.002
Mof_C 	C 	0.43278	0.07912	0.46888	-0.003
Mof_N 	N 	0.43153	0.15745	0.40136	-0.119
Mof_C 	C 	0.32367	0.03374	0.65403	-0.049
Mof_N 	N 	0.31174	0.10545	0.37853	-0.122
Mof_C 	C 	0.41069	0.12053	0.43293	-0.005
Mof_N 	N 	0.30708	0.06826	0.51	-0.29
Mof_N 	N 	0.42166	0.03551	0.50687	-0.278
Mof_H 	H 	0.0097	0.08102	0.27183	0.012
Mof_H 	H 	0.40611	0.31792	0.88827	0.031
Mof_C 	C 	0.3364	0.31582	0.69161	-0.002
Mof_N 	N 	0.31057	0.24327	0.73696	-0.12
Mof_C 	C 	0.43345	0.30732	0.78206	0.095
Mof_C 	C 	0.42673	0.30359	0.85643	0.086
Mof_C 	C 	0.32392	0.27679	0.7368	0.001
Mof_N 	N 	0.40667	0.32818	0.81891	-0.155
Mof_N 	N 	0.42282	0.32287	0.73867	-0.296
Mof_N 	N 	0.16767	0.0339	0.94565	-0.137
Mof_C 	C 	0.12111	0.03362	0.9795	-0.017
Mof_C 	C 	0.48569	0.16678	0.64771	-0.003
Mof_N 	N 	0.41315	0.14101	0.70085	-0.121
Mof_C 	C 	0.47487	0.26439	0.46922	-0.001
Mof_N 	N 	0.46528	0.26378	0.40138	-0.118
Mof_C 	C 	0.44667	0.15423	0.65412	-0.001
Mof_C 	C 	0.49091	0.24206	0.43366	-0.003
Mof_N 	N 	0.49121	0.25274	0.50769	-0.283
Mof_H 	H 	0.48686	0.18456	0.94033	0.026
Mof_N 	N 	0.41308	0.03486	0.84325	-0.134
Mof_C 	C 	0.47644	0.07844	0.96725	0.119
Mof_C 	C 	0.4725	0.15277	0.96074	0.108
Mof_C 	C 	0.44668	0.03466	0.85652	-0.048
Mof_N 	N 	0.49739	0.11521	0.94071	-0.164
Mof_N 	N 	0.49222	0.03516	0.95641	-0.301
Mof_H 	H 	0.09496	0.0814	0.54367	0.015
Mof_H 	H 	0.01558	0.10785	0.67186	0.007
Mof_C 	C 	0.11464	0.16643	0.69147	-0.003
Mof_N 	N 	0.16749	0.14048	0.73704	-0.121
Mof_C 	C 	0.12083	0.15377	0.73679	-0.001
Mof_N 	N 	0.07347	0.18112	0.6775	-0.279
Mof_H 	H 	0.25691	0.16935	0.34928	0.029
Mof_H 	H 	0.3399	0.08863	0.2125	0.024
Mof_C 	C 	0.15865	0.31556	0.64767	0
Mof_N 	N 	0.2046	0.24293	0.70007	-0.12
Mof_C 	C 	0.24777	0.30813	0.4681	-0
Mof_N 	N 	0.32631	0.29861	0.40085	-0.118
Mof_C 	C 	0.20405	0.27673	0.65354	0.001
Mof_C 	C 	0.28906	0.32493	0.43218	-0.003
Mof_N 	N 	0.20406	0.32485	0.50597	-0.28
Mof_H 	H 	0.07119	0.19933	0.6048	-0.03
Mof_C 	C 	0.09378	0.18797	0.62724	0.049
Mof_H 	H 	0.07061	0.20043	0.11546	-0.03
Mof_C 	C 	0.093	0.18895	0.08186	0.047
Mof_H 	H 	0.11703	0.29976	0.46171	-0.037
Mof_C 	C 	0.1078	0.26715	0.47136	0.066
Mof_H 	H 	0.11959	0.29682	0.11206	-0.042
Mof_C 	C 	0.10963	0.2647	0.14456	0.064
Mof_H 	H 	0.26181	0.09433	0.57436	-0.039
Mof_C 	C 	0.26781	0.09946	0.53593	0.063
Mof_H 	H 	0.26188	0.0907	0.06155	-0.042
Mof_C 	C 	0.26739	0.09729	0.0882	0.062
Mof_H 	H 	0.04257	0.09165	0.79578	-0.037
Mof_C 	C 	0.00402	0.09771	0.80119	0.058
Mof_H 	H 	0.04165	0.09311	0.06155	-0.043
Mof_C 	C 	0.00311	0.09844	0.08863	0.055
Mof_H 	H 	0.00535	0.34974	0.31845	-0.035
Mof_C 	C 	0.04389	0.32266	0.31209	0.066
Mof_H 	H 	0.02794	0.28881	0.68022	-0.047
Mof_H 	H 	0.14471	0.29294	0.55962	-0.043
Mof_C 	C 	0.18011	0.29091	0.52766	0.062
Mof_C 	C 	0.45845	0.01089	0.99338	0.035
Mof_H 	H 	0.46024	0.29041	0.56098	-0.043
Mof_C 	C 	0.45806	0.28954	0.52883	0.061
Mof_H 	H 	0.46175	0.29057	0.67928	-0.043
Mof_C 	C 	0.46019	0.28923	0.71443	0.061
Mof_C 	C 	0.45772	0.01155	0.52873	0.009
Mof_H 	H 	0.02535	0.29314	0.99409	-0.043
Mof_H 	H 	0.14664	0.29142	0.99177	-0.042
Mof_C 	C 	0.18158	0.2899	0.99082	0.086
Mof_H 	H 	0.39121	0.12824	0.77764	0.025
Mof_H 	H 	0.84505	0.32088	0.88663	0.031
Mof_C 	C 	0.9358	0.30773	0.78179	0.097
Mof_C 	C 	0.87124	0.30544	0.85564	0.087
Mof_N 	N 	0.90419	0.32986	0.8176	-0.154
Mof_N 	N 	0.9744	0.32277	0.73818	-0.295
Mof_Zn	Zn	0.99854	0.0112	0.89845	1.168
Mof_H 	H 	0.84634	0.18392	0.93823	0.026
Mof_C 	C 	0.9309	0.08707	0.83473	0.101
Mof_N 	N 	0.89143	0.06987	0.86495	-0.161
Mof_C 	C 	0.93671	0.07876	0.96567	0.121
Mof_C 	C 	0.87242	0.1528	0.95855	0.108
Mof_C 	C 	0.85046	0.09927	0.84959	0.084
Mof_N 	N 	0.90544	0.11495	0.93906	-0.161
Mof_N 	N 	0.97789	0.0667	0.84037	-0.297
Mof_N 	N 	0.97499	0.03499	0.95571	-0.295
Mof_Zn	Zn	0.5511	0.19601	0.71333	1.176
Mof_C 	C 	0.65765	0.19079	0.63863	0.098
Mof_N 	N 	0.67368	0.14119	0.64575	-0.16
Mof_C 	C 	0.60538	0.1328	0.79031	0.1
Mof_N 	N 	0.63118	0.16351	0.7736	-0.157
Mof_C 	C 	0.72409	0.12251	0.62259	0.089
Mof_C 	C 	0.65824	0.14793	0.803	0.085
Mof_N 	N 	0.52783	0.1798	0.67707	-0.286
Mof_N 	N 	0.60852	0.22129	0.65765	-0.288
Mof_N 	N 	0.57292	0.13882	0.76989	-0.297
Mof_Zn	Zn	0.54893	0.01161	0.53148	1.165
Mof_C 	C 	0.60539	0.087	0.46403	0.098
Mof_N 	N 	0.63224	0.06952	0.42476	-0.162
Mof_C 	C 	0.65867	0.09927	0.38356	0.083
Mof_N 	N 	0.57362	0.06617	0.51133	-0.299
Mof_Zn	Zn	0.99637	0.19621	0.08349	1.177
Mof_C 	C 	0.97109	0.18967	0.1902	0.1
Mof_N 	N 	0.99739	0.14	0.2061	-0.159
Mof_C 	C 	0.92975	0.132	0.13859	0.104
Mof_N 	N 	0.89014	0.16239	0.16476	-0.156
Mof_C 	C 	0.98919	0.12124	0.25644	0.094
Mof_C 	C 	0.84922	0.14696	0.19163	0.085
Mof_N 	N 	0.97037	0.22035	0.1412	-0.289
Mof_N 	N 	0.97668	0.13777	0.10634	-0.294
Mof_N 	N 	0.97487	0.35179	0.22797	-0.268
Mof_N 	N 	0.58065	0.00991	0.25344	-0.137
Mof_N 	N 	0.72094	0.01016	0.14755	-0.138
Mof_C 	C 	0.77651	0.02873	0.26317	0.047
Mof_Zn	Zn	0.6833	0.326	0.3989	1.175
Mof_C 	C 	0.68872	0.21916	0.47317	0.1
Mof_N 	N 	0.73821	0.20298	0.46647	-0.158
Mof_C 	C 	0.74623	0.27253	0.32222	0.097
Mof_N 	N 	0.71489	0.24741	0.33892	-0.157
Mof_C 	C 	0.7566	0.15264	0.49009	0.09
Mof_C 	C 	0.73002	0.22034	0.30967	0.085
Mof_N 	N 	0.69687	0.35152	0.4354	-0.273
Mof_N 	N 	0.6585	0.26832	0.45373	-0.289
Mof_N 	N 	0.7409	0.30471	0.34258	-0.299
Mof_H 	H 	0.89711	0.12597	0.05886	0.02
Mof_H 	H 	0.52338	0.20717	0.43096	0.023
Mof_H 	H 	0.89647	0.20672	0.82926	0.025
Mof_N 	N 	0.6154	0.01043	0.11122	-0.139
Mof_C 	C 	0.73083	0.02809	0.92261	0.05
Mof_Zn	Zn	0.86671	0.32625	0.58314	1.175
Mof_C 	C 	0.94051	0.21891	0.60932	0.101
Mof_N 	N 	0.93328	0.20307	0.5828	-0.158
Mof_C 	C 	0.78928	0.27343	0.64964	0.097
Mof_N 	N 	0.80604	0.24768	0.68941	-0.157
Mof_C 	C 	0.95662	0.15273	0.59104	0.09
Mof_C 	C 	0.77677	0.22047	0.7303	0.086
Mof_N 	N 	0.90329	0.3513	0.50735	-0.272
Mof_N 	N 	0.9215	0.26796	0.60994	-0.29
Mof_N 	N 	0.8097	0.30587	0.60272	-0.297
Mof_N 	N 	0.97345	0.34961	0.436	-0.288
Mof_H 	H 	0.78874	0.19798	0.76387	0.029
Mof_H 	H 	0.55888	0.03085	0.17435	0.027
Mof_C 	C 	0.57386	0.00536	0.15348	0.045
Mof_H 	H 	0.95247	0.13741	0.57034	0.019
Mof_H 	H 	0.7075	0.06178	0.90046	0.035
Mof_H 	H 	0.69401	0.031	0.09079	0.025
Mof_C 	C 	0.72539	0.00544	0.10576	0.044
Mof_N 	N 	0.77208	0.03246	0.91972	-0.135
Mof_H 	H 	0.79669	0.13703	0.48638	0.019
Mof_Zn	Zn	0.68141	0.33072	0.58092	1.175
Mof_H 	H 	0.76859	0.21761	0.56424	0.015
Mof_H 	H 	0.68353	0.24108	0.69835	0.021
Mof_C 	C 	0.68934	0.22125	0.60932	-0.001
Mof_C 	C 	0.74106	0.19745	0.5872	0.003
Mof_C 	C 	0.74562	0.27307	0.64944	0.004
Mof_C 	C 	0.71804	0.24382	0.69411	0.001
Mof_N 	N 	0.75818	0.14763	0.59429	-0.12
Mof_N 	N 	0.73422	0.2175	0.73438	-0.119
Mof_N 	N 	0.6988	0.35066	0.50566	-0.288
Mof_N 	N 	0.65919	0.27042	0.61049	-0.275
Mof_N 	N 	0.74001	0.30517	0.60216	-0.282
Mof_H 	H 	0.70665	0.19819	0.32157	0.029
Mof_H 	H 	0.7883	0.06241	0.24003	0.033
Mof_H 	H 	0.52934	0.20844	0.82592	0.027
Mof_H 	H 	0.64286	0.03153	0.22708	0.028
Mof_C 	C 	0.62237	0.00558	0.2582	0.046
Mof_N 	N 	0.73389	0.03289	0.30454	-0.137
Mof_Zn	Zn	0.86575	0.3291	0.21438	1.176
Mof_H 	H 	0.90907	0.21637	0.30115	0.015
Mof_H 	H 	0.83509	0.23982	0.21653	0.021
Mof_C 	C 	0.93871	0.22006	0.22197	-0.001
Mof_C 	C 	0.93333	0.1962	0.2736	0.004
Mof_C 	C 	0.79057	0.27164	0.2787	0.004
Mof_C 	C 	0.80213	0.24273	0.25104	0.001
Mof_N 	N 	0.95879	0.14631	0.29061	-0.12
Mof_N 	N 	0.77142	0.21706	0.26715	-0.12
Mof_N 	N 	0.90349	0.35029	0.23063	-0.288
Mof_N 	N 	0.91846	0.26931	0.19196	-0.277
Mof_N 	N 	0.81206	0.30306	0.27323	-0.282
Mof_C 	C 	0.93429	0.30811	0.96679	0.029
Mof_N 	N 	0.86723	0.29854	0.96472	-0.101
Mof_C 	C 	0.89855	0.32486	0.94441	-0.008
Mof_N 	N 	0.97205	0.32487	0.95617	-0.285
Mof_H 	H 	0.68156	0.08707	0.35013	0.025
Mof_H 	H 	0.81557	0.16999	0.21406	0.029
Mof_H 	H 	0.81692	0.08727	0.87254	0.027
Mof_H 	H 	0.66896	0.34868	0.28719	0.025
Mof_Zn	Zn	0.99869	0.01131	0.08322	1.161
Mof_H 	H 	0.88138	0.04186	0.17186	0.007
Mof_C 	C 	0.93005	0.08757	0.13917	-0.007
Mof_C 	C 	0.88547	0.0752	0.1686	-0.003
Mof_N 	N 	0.84502	0.10558	0.19455	-0.122
Mof_N 	N 	0.97747	0.06677	0.107	-0.288
Mof_H 	H 	0.7396	0.08236	0.6266	0.016
Mof_Zn	Zn	0.54858	0.19625	0.53119	1.172
Mof_H 	H 	0.66115	0.10864	0.54836	0.01
Mof_H 	H 	0.63658	0.19371	0.41461	0.018
Mof_C 	C 	0.65804	0.1877	0.50241	-0.003
Mof_C 	C 	0.6815	0.13604	0.52516	0.003
Mof_C 	C 	0.60473	0.1315	0.46366	-0.003
Mof_C 	C 	0.63398	0.15909	0.41893	-0.001
Mof_N 	N 	0.73121	0.11876	0.51853	-0.122
Mof_N 	N 	0.66066	0.14264	0.37885	-0.12
Mof_N 	N 	0.52617	0.18127	0.60637	-0.277
Mof_N 	N 	0.60904	0.21804	0.50066	-0.278
Mof_N 	N 	0.57211	0.13754	0.51081	-0.284
Mof_H 	H 	0.68082	0.17089	0.79104	0.03
Mof_Zn	Zn	0.54909	0.01374	0.89858	1.163
Mof_H 	H 	0.637	0.04384	0.89659	0.009
Mof_C 	C 	0.60565	0.0886	0.83399	-0.005
Mof_C 	C 	0.63459	0.07658	0.86184	-0.001
Mof_N 	N 	0.66095	0.10664	0.84571	-0.12
Mof_N 	N 	0.57356	0.06786	0.83943	-0.29
Mof_Zn	Zn	0.9985	0.19553	0.71441	1.174
Mof_H 	H 	0.88218	0.19251	0.74498	0.019
Mof_C 	C 	0.96996	0.18712	0.64201	-0.003
Mof_C 	C 	0.99233	0.13546	0.64741	0.007
Mof_C 	C 	0.93089	0.13092	0.79058	-0.003
Mof_C 	C 	0.88632	0.15825	0.77822	-0.001
Mof_C 	C 	0.93541	0.2634	0.78278	0
Mof_N 	N 	0.86747	0.26285	0.86072	-0.116
Mof_N 	N 	0.98519	0.11851	0.62169	-0.122
Mof_N 	N 	0.84604	0.14208	0.80837	-0.119
Mof_C 	C 	0.89956	0.2413	0.82439	-0.002
Mof_N 	N 	0.96869	0.21719	0.6624	-0.279
Mof_N 	N 	0.97813	0.13684	0.76983	-0.282
Mof_N 	N 	0.97388	0.25176	0.73961	-0.283
Mof_H 	H 	0.7542	0.34938	0.68544	0.026
Mof_H 	H 	0.58328	0.1993	0.60372	-0.029
Mof_C 	C 	0.54947	0.18818	0.6264	0.049
Mof_H 	H 	0.97699	0.29524	0.20979	-0.027
Mof_C 	C 	0.95443	0.32873	0.22144	0.051
Mof_H 	H 	0.67871	0.29506	0.50792	-0.029
Mof_C 	C 	0.69013	0.32867	0.48553	0.051
Mof_H 	H 	0.97574	0.29427	0.50942	-0.028
Mof_C 	C 	0.95329	0.32802	0.4869	0.051
Mof_H 	H 	0.57977	0.30029	0.64914	-0.037
Mof_C 	C 	0.61209	0.26773	0.63995	0.065
Mof_H 	H 	0.92863	0.29927	0.11265	-0.04
Mof_C 	C 	0.93832	0.26672	0.14487	0.065
Mof_H 	H 	0.57971	0.29739	0.4614	-0.038
Mof_C 	C 	0.61205	0.26504	0.47102	0.065
Mof_H 	H 	0.9296	0.29658	0.65201	-0.039
Mof_C 	C 	0.93912	0.26432	0.64229	0.064
Mof_H 	H 	0.52825	0.09405	0.79426	-0.038
Mof_C 	C 	0.55522	0.09935	0.80057	0.062
Mof_H 	H 	0.52759	0.09184	0.57559	-0.038
Mof_C 	C 	0.5548	0.09784	0.53709	0.061
Mof_H 	H 	0.78776	0.34802	0.31748	-0.034
Mof_C 	C 	0.78097	0.32157	0.31193	0.065
Mof_H 	H 	0.78439	0.35048	0.53779	-0.034
Mof_C 	C 	0.77884	0.32351	0.57636	0.066
Mof_C 	C 	0.99552	0.28804	0.71522	0.063
Mof_C 	C 	0.99588	0.01176	0.9925	0.038
Mof_C 	C 	0.99353	0.29098	0.99258	0.09
Mof_H 	H 	0.01549	0.49194	0.67176	0.012
Mof_N 	N 	0.0743	0.35744	0.67775	-0.289
Mof_H 	H 	0.25782	0.50983	0.34866	0.03
Mof_H 	H 	0.39089	0.9929	0.83053	0.028
Mof_C 	C 	0.48657	0.9453	0.86818	0.092
Mof_C 	C 	0.41832	0.99061	0.84267	0.12
Mof_C 	C 	0.4771	0.7657	0.96603	0.031
Mof_N 	N 	0.46832	0.69822	0.96386	-0.1
Mof_N 	N 	0.45373	0.94466	0.85461	-0.158
Mof_C 	C 	0.49408	0.7301	0.94338	-0.009
Mof_N 	N 	0.49331	0.80384	0.95547	-0.284
Mof_H 	H 	0.09336	0.57048	0.54438	0.022
Mof_C 	C 	0.36036	0.93559	0.19114	0.104
Mof_N 	N 	0.31075	0.94248	0.2076	-0.153
Mof_C 	C 	0.29249	0.91912	0.25801	0.095
Mof_N 	N 	0.34843	0.97346	0.06161	-0.281
Mof_N 	N 	0.39043	0.95486	0.14187	-0.28
Mof_H 	H 	0.33933	0.64609	0.21541	0.03
Mof_Zn	Zn	0.18107	0.82872	0.08347	1.174
Mof_H 	H 	0.24454	0.99224	0.92307	0.027
Mof_H 	H 	0.21259	0.71077	0.17122	0.019
Mof_C 	C 	0.20741	0.9898	0.95084	0.125
Mof_C 	C 	0.10726	0.8012	0.19071	0.098
Mof_N 	N 	0.1154	0.82658	0.2071	-0.157
Mof_C 	C 	0.25793	0.75956	0.13893	0.002
Mof_C 	C 	0.24571	0.71494	0.16836	-0
Mof_N 	N 	0.20627	0.9439	0.98654	-0.142
Mof_C 	C 	0.09119	0.81877	0.25732	0.09
Mof_N 	N 	0.27569	0.67485	0.19492	-0.119
Mof_N 	N 	0.14503	0.90398	0.06057	-0.287
Mof_N 	N 	0.12698	0.80026	0.14166	-0.291
Mof_N 	N 	0.23733	0.80646	0.10633	-0.284
Mof_Zn	Zn	0.36378	0.38144	0.53181	1.177
Mof_H 	H 	0.36281	0.46836	0.41357	0.021
Mof_C 	C 	0.35893	0.48833	0.50379	0.098
Mof_N 	N 	0.30908	0.50489	0.52922	-0.158
Mof_C 	C 	0.30082	0.4363	0.463	0.006
Mof_C 	C 	0.32834	0.46533	0.41807	0.001
Mof_C 	C 	0.29099	0.55516	0.52108	0.091
Mof_N 	N 	0.31219	0.49105	0.37781	-0.119
Mof_N 	N 	0.34882	0.35811	0.60725	-0.286
Mof_N 	N 	0.38897	0.4392	0.50308	-0.289
Mof_N 	N 	0.30656	0.40472	0.51022	-0.283
Mof_C 	C 	0.1148	0.98919	0.86754	0.136
Mof_N 	N 	0.07429	0.9748	0.88185	-0.28
Mof_H 	H 	0.15168	0.58394	0.20248	0.025
Mof_C 	C 	0.48672	0.9896	0.64762	0.135
Mof_Zn	Zn	0.36595	0.82848	0.71387	1.176
Mof_H 	H 	0.29689	0.99223	0.77765	0.028
Mof_H 	H 	0.28025	0.84749	0.66909	0.016
Mof_C 	C 	0.33391	0.94462	0.69211	0.091
Mof_C 	C 	0.30902	0.98989	0.74039	0.119
Mof_C 	C 	0.3593	0.80106	0.63998	-0
Mof_C 	C 	0.30769	0.82359	0.64524	0.004
Mof_C 	C 	0.30182	0.76105	0.79017	0.099
Mof_N 	N 	0.33272	0.72128	0.77343	-0.156
Mof_C 	C 	0.43399	0.76606	0.78109	-0
Mof_N 	N 	0.43241	0.69824	0.85925	-0.116
Mof_N 	N 	0.32022	0.94408	0.73915	-0.157
Mof_N 	N 	0.2905	0.81575	0.62029	-0.117
Mof_C 	C 	0.31741	0.68023	0.80288	0.087
Mof_C 	C 	0.41195	0.72987	0.82207	-0.002
Mof_N 	N 	0.34788	0.90425	0.6776	-0.285
Mof_N 	N 	0.3894	0.80052	0.65973	-0.277
Mof_N 	N 	0.30753	0.80814	0.76949	-0.296
Mof_N 	N 	0.42315	0.80427	0.73747	-0.281
Mof_H 	H 	0.00994	0.57001	0.78306	0.02
Mof_Zn	Zn	0.18078	0.38109	0.8985	1.176
Mof_H 	H 	0.13624	0.49237	0.81276	0.014
Mof_C 	C 	0.1065	0.48908	0.8918	-0.001
Mof_C 	C 	0.11211	0.51276	0.8401	0.004
Mof_C 	C 	0.25678	0.43649	0.83433	0.099
Mof_N 	N 	0.24017	0.46225	0.86503	-0.155
Mof_N 	N 	0.08717	0.56272	0.82272	-0.118
Mof_C 	C 	0.27014	0.48855	0.84991	0.087
Mof_N 	N 	0.14354	0.3596	0.8816	-0.286
Mof_N 	N 	0.12621	0.43985	0.92205	-0.279
Mof_N 	N 	0.23568	0.40483	0.83985	-0.297
Mof_H 	H 	0.24889	0.92595	0.54266	0.028
Mof_H 	H 	0.20075	0.39024	0.17348	0.027
Mof_C 	C 	0.11118	0.40063	0.14646	0.095
Mof_C 	C 	0.17479	0.40481	0.15324	0.084
Mof_N 	N 	0.14242	0.37969	0.17294	-0.155
Mof_N 	N 	0.07333	0.38445	0.15675	-0.293
Mof_H 	H 	0.309	0.78151	0.57038	0.023
Mof_Zn	Zn	0.49684	0.8806	0.39894	1.175
Mof_H 	H 	0.38485	0.86066	0.44347	0.016
Mof_C 	C 	0.38822	0.90718	0.47263	0.002
Mof_C 	C 	0.36451	0.88448	0.46741	0.006
Mof_C 	C 	0.44277	0.94692	0.32218	0.103
Mof_N 	N 	0.41681	0.98663	0.33906	-0.134
Mof_N 	N 	0.31458	0.89206	0.49251	-0.116
Mof_N 	N 	0.5209	0.80481	0.43535	-0.274
Mof_N 	N 	0.43745	0.90799	0.45286	-0.277
Mof_N 	N 	0.47474	0.89972	0.34302	-0.297
Mof_H 	H 	0.3247	0.91819	0.97535	0.014
Mof_H 	H 	0.03698	0.62844	0.84099	0.024
Mof_H 	H 	0.23143	0.61958	0.23878	0.03
Mof_H 	H 	0.44147	0.91936	0.77241	0.015
Mof_H 	H 	0.20138	0.52246	0.09202	0.025
Mof_C 	C 	0.07625	0.77107	0.92181	0.101
Mof_N 	N 	0.0494	0.76422	0.90604	-0.155
Mof_C 	C 	0.11671	0.62039	0.97456	0.12
Mof_N 	N 	0.1561	0.63775	0.94783	-0.154
Mof_C 	C 	0.11172	0.62854	0.10263	0.094
Mof_C 	C 	0.17565	0.55417	0.10649	0.083
Mof_C 	C 	0.05751	0.78768	0.85573	0.091
Mof_C 	C 	0.19707	0.60824	0.92101	0.09
Mof_N 	N 	0.14282	0.5917	0.08178	-0.157
Mof_N 	N 	0.07712	0.75185	0.9708	-0.283
Mof_N 	N 	0.0736	0.67219	0.0867	-0.294
Mof_Zn	Zn	0.49382	0.51371	0.58315	1.176
Mof_C 	C 	0.38735	0.51958	0.60931	0.1
Mof_N 	N 	0.37114	0.56899	0.58252	-0.158
Mof_C 	C 	0.44157	0.57713	0.64972	0.097
Mof_N 	N 	0.41568	0.54643	0.68948	-0.157
Mof_C 	C 	0.32078	0.58727	0.59101	0.091
Mof_C 	C 	0.38915	0.5616	0.73061	0.087
Mof_N 	N 	0.51997	0.52707	0.50742	-0.272
Mof_N 	N 	0.43652	0.4894	0.60976	-0.292
Mof_N 	N 	0.47345	0.57154	0.60259	-0.298
Mof_H 	H 	0.36552	0.53739	0.32385	0.031
Mof_Zn	Zn	0.49607	0.69619	0.21602	1.174
Mof_H 	H 	0.40942	0.66416	0.21756	0.018
Mof_C 	C 	0.38856	0.76989	0.22286	0.098
Mof_N 	N 	0.37226	0.7621	0.27264	-0.158
Mof_C 	C 	0.44199	0.61888	0.27937	-0.001
Mof_C 	C 	0.41245	0.63111	0.25203	0
Mof_C 	C 	0.32206	0.78639	0.29086	0.091
Mof_N 	N 	0.38587	0.60112	0.26857	-0.119
Mof_N 	N 	0.52143	0.73277	0.22955	-0.274
Mof_N 	N 	0.43757	0.74992	0.19263	-0.292
Mof_N 	N 	0.47466	0.63941	0.27318	-0.285
Mof_Zn	Zn	0.04935	0.51314	0.39847	1.174
Mof_H 	H 	0.03297	0.59982	0.44074	0.014
Mof_H 	H 	0.16578	0.515	0.36697	0.02
Mof_H 	H 	0.20203	0.47202	0.22612	0.027
Mof_C 	C 	0.07804	0.52062	0.47124	-0.003
Mof_C 	C 	0.05568	0.57228	0.46572	0.003
Mof_C 	C 	0.11645	0.57757	0.3224	0.001
Mof_C 	C 	0.16147	0.54953	0.33402	0.002
Mof_C 	C 	0.11116	0.44565	0.33121	0.095
Mof_C 	C 	0.17573	0.452	0.25734	0.085
Mof_N 	N 	0.06208	0.58927	0.49195	-0.118
Mof_N 	N 	0.20196	0.56526	0.30337	-0.119
Mof_N 	N 	0.14289	0.47177	0.29508	-0.155
Mof_N 	N 	0.07979	0.49063	0.45044	-0.278
Mof_N 	N 	0.06884	0.57238	0.34378	-0.283
Mof_N 	N 	0.0726	0.45621	0.37461	-0.293
Mof_H 	H 	0.24004	0.91948	0.85661	0.015
Mof_H 	H 	0.29272	0.35869	0.42835	0.026
Mof_C 	C 	0.1113	0.40176	0.33079	-0.001
Mof_N 	N 	0.17928	0.41055	0.25276	-0.119
Mof_C 	C 	0.14704	0.38502	0.28939	-0.003
Mof_N 	N 	0.07276	0.38572	0.37413	-0.281
Mof_H 	H 	0.30636	0.78198	0.33112	0.024
Mof_Zn	Zn	0.50086	0.87836	0.21385	1.175
Mof_H 	H 	0.38819	0.86099	0.30161	0.016
Mof_H 	H 	0.41189	0.99604	0.21548	0.023
Mof_C 	C 	0.39121	0.90636	0.22246	-0.001
Mof_C 	C 	0.36779	0.88397	0.27426	0.006
Mof_C 	C 	0.443	0.94695	0.27812	-0.001
Mof_C 	C 	0.41411	0.99179	0.25026	0.038
Mof_N 	N 	0.31799	0.89076	0.29181	-0.116
Mof_N 	N 	0.52057	0.80303	0.23146	-0.287
Mof_N 	N 	0.44026	0.90789	0.19189	-0.274
Mof_N 	N 	0.47508	0.8996	0.27256	-0.28
Mof_H 	H 	0.23057	0.62032	0.89821	0.032
Mof_H 	H 	0.29437	0.72664	0.05993	0.021
Mof_H 	H 	0.03649	0.78391	0.84047	0.024
Mof_Zn	Zn	0.04888	0.69649	0.21402	1.175
Mof_H 	H 	0.0291	0.74129	0.3005	0.014
Mof_C 	C 	0.07614	0.77013	0.22173	-0
Mof_C 	C 	0.05332	0.76484	0.27335	0.004
Mof_C 	C 	0.11662	0.62107	0.27807	0.099
Mof_N 	N 	0.15657	0.6375	0.24686	-0.156
Mof_C 	C 	0.11221	0.62869	0.14636	-0.001
Mof_N 	N 	0.17986	0.55039	0.14827	-0.119
Mof_N 	N 	0.06123	0.78942	0.29088	-0.118
Mof_C 	C 	0.1977	0.60788	0.26203	0.086
Mof_C 	C 	0.1481	0.58758	0.16873	-0.004
Mof_N 	N 	0.07666	0.75078	0.19129	-0.276
Mof_N 	N 	0.06939	0.64181	0.27263	-0.296
Mof_N 	N 	0.07403	0.67245	0.15698	-0.283
Mof_H 	H 	0.30511	0.62725	0.57004	0.023
Mof_Zn	Zn	0.49833	0.51146	0.39857	1.177
Mof_H 	H 	0.38755	0.59804	0.44299	0.015
Mof_C 	C 	0.39017	0.51926	0.47239	0.001
Mof_C 	C 	0.36685	0.57096	0.4668	0.004
Mof_C 	C 	0.44148	0.57539	0.32384	0.104
Mof_N 	N 	0.41481	0.54529	0.34134	-0.154
Mof_N 	N 	0.31682	0.58868	0.49138	-0.118
Mof_C 	C 	0.38824	0.56027	0.31173	0.087
Mof_N 	N 	0.51908	0.52912	0.43602	-0.285
Mof_N 	N 	0.43933	0.48862	0.45307	-0.276
Mof_N 	N 	0.47319	0.57028	0.34458	-0.295
Mof_H 	H 	0.36668	0.53857	0.76423	0.031
Mof_Zn	Zn	0.49847	0.69655	0.58097	1.177
Mof_H 	H 	0.41115	0.66524	0.69905	0.021
Mof_C 	C 	0.39076	0.77033	0.60853	0.098
Mof_N 	N 	0.37471	0.76236	0.58274	-0.157
Mof_C 	C 	0.44204	0.62077	0.64984	0.006
Mof_C 	C 	0.41333	0.63257	0.69469	0.002
Mof_C 	C 	0.32446	0.78617	0.59057	0.091
Mof_N 	N 	0.38685	0.60257	0.73496	-0.118
Mof_N 	N 	0.52058	0.73367	0.50579	-0.288
Mof_N 	N 	0.43973	0.75077	0.60964	-0.288
Mof_N 	N 	0.47422	0.64141	0.60266	-0.282
Mof_H 	H 	0.16545	0.5145	0.94228	0.024
Mof_C 	C 	0.0746	0.5199	0.92316	0.099
Mof_N 	N 	0.04882	0.56968	0.90692	-0.155
Mof_C 	C 	0.11683	0.5762	0.97483	0.021
Mof_C 	C 	0.1613	0.54888	0.9452	-0.002
Mof_C 	C 	0.11108	0.44478	0.10254	-0.004
Mof_N 	N 	0.1783	0.44715	0.11159	-0.12
Mof_C 	C 	0.05709	0.58814	0.85659	0.091
Mof_N 	N 	0.20148	0.56524	0.91856	-0.117
Mof_C 	C 	0.14632	0.46772	0.08591	-0.004
Mof_N 	N 	0.07531	0.48948	0.97228	-0.286
Mof_N 	N 	0.07291	0.45534	0.08635	-0.282
Mof_H 	H 	0.37845	0.72598	0.82556	0.026
Mof_H 	H 	0.29356	0.35857	0.91092	0.028
Mof_N 	N 	0.07241	0.35695	0.88497	-0.273
Mof_H 	H 	0.2583	0.51111	0.87286	0.032
Mof_H 	H 	0.48842	0.67722	0.88725	0.031
Mof_C 	C 	0.4852	0.9452	0.69142	-0.004
Mof_N 	N 	0.41253	0.99776	0.73718	-0.097
Mof_C 	C 	0.47755	0.76685	0.78125	0.097
Mof_C 	C 	0.47398	0.70281	0.85552	0.086
Mof_C 	C 	0.44614	0.95115	0.73671	0.007
Mof_N 	N 	0.49848	0.73582	0.81805	-0.153
Mof_N 	N 	0.49322	0.80519	0.73771	-0.29
Mof_H 	H 	0.52104	0.98207	0.28581	0.025
Mof_C 	C 	0.33585	0.98856	0.64788	0.048
Mof_C 	C 	0.35732	0.9379	0.50409	0.104
Mof_N 	N 	0.30756	0.94568	0.52996	-0.152
Mof_C 	C 	0.28913	0.92158	0.52229	0.095
Mof_N 	N 	0.35041	0.97477	0.60666	-0.272
Mof_N 	N 	0.38768	0.95769	0.50294	-0.282
Mof_H 	H 	0.34057	0.64661	0.79099	0.031
Mof_Zn	Zn	0.18167	0.82856	0.89834	1.175
Mof_H 	H 	0.13893	0.84598	0.81077	0.017
Mof_H 	H 	0.21286	0.71193	0.89621	0.022
Mof_H 	H 	0.35415	0.67695	0.938	0.027
Mof_C 	C 	0.15882	0.94496	0.86883	-0.005
Mof_N 	N 	0.20444	0.99766	0.84315	-0.097
Mof_C 	C 	0.1091	0.80036	0.88996	-0.001
Mof_C 	C 	0.11435	0.82287	0.83836	0.004
Mof_C 	C 	0.2577	0.76116	0.8339	0.002
Mof_C 	C 	0.24579	0.71629	0.86166	0.002
Mof_C 	C 	0.24828	0.76651	0.96594	0.124
Mof_C 	C 	0.32264	0.7026	0.95867	0.111
Mof_C 	C 	0.20414	0.95105	0.85634	0.007
Mof_N 	N 	0.08834	0.81606	0.82147	-0.117
Mof_N 	N 	0.27609	0.676	0.84555	-0.118
Mof_N 	N 	0.28476	0.73552	0.93912	-0.161
Mof_N 	N 	0.14487	0.90386	0.88333	-0.274
Mof_N 	N 	0.12975	0.79885	0.91991	-0.279
Mof_N 	N 	0.23674	0.80861	0.83935	-0.282
Mof_N 	N 	0.20476	0.80502	0.95566	-0.3
Mof_H 	H 	0.25069	0.57103	0.54099	0.022
Mof_Zn	Zn	0.36566	0.37946	0.71566	1.175
Mof_H 	H 	0.27695	0.49182	0.67299	0.015
Mof_H 	H 	0.36424	0.46631	0.74641	0.019
Mof_C 	C 	0.35596	0.48886	0.64251	-0.001
Mof_C 	C 	0.30426	0.51224	0.64813	0.004
Mof_C 	C 	0.30092	0.43602	0.79061	0
Mof_C 	C 	0.32927	0.46433	0.77894	0.002
Mof_N 	N 	0.28692	0.56187	0.62216	-0.118
Mof_N 	N 	0.31326	0.49063	0.80901	-0.118
Mof_N 	N 	0.35109	0.3562	0.67787	-0.274
Mof_N 	N 	0.38639	0.43996	0.66297	-0.278
Mof_N 	N 	0.30616	0.40411	0.76977	-0.283
Mof_H 	H 	0.01021	0.92568	0.78384	0.025
Mof_H 	H 	0.01547	0.9693	0.19595	0.018
Mof_N 	N 	0.074	0.97446	0.05934	-0.273
Mof_H 	H 	0.09589	0.83864	0.27309	0.025
Mof_H 	H 	0.51823	0.50023	0.68535	0.026
Mof_C 	C 	0.4855	0.98937	0.86933	0.048
Mof_H 	H 	0.52038	0.58272	0.2033	0.024
Mof_Zn	Zn	0.36589	0.82637	0.08346	1.174
Mof_H 	H 	0.27868	0.84769	0.19463	0.017
Mof_N 	N 	0.31049	0.99654	0.94666	-0.1
Mof_C 	C 	0.35748	0.80076	0.19176	0.001
Mof_C 	C 	0.30588	0.82373	0.21521	0.004
Mof_C 	C 	0.30132	0.76012	0.13952	0.1
Mof_N 	N 	0.3314	0.72082	0.1662	-0.155
Mof_C 	C 	0.32393	0.94986	0.98021	0.038
Mof_N 	N 	0.28841	0.81614	0.26517	-0.117
Mof_C 	C 	0.31648	0.67956	0.19265	0.086
Mof_N 	N 	0.35065	0.90246	0.05979	-0.269
Mof_N 	N 	0.38789	0.79981	0.1426	-0.278
Mof_N 	N 	0.30626	0.80759	0.10788	-0.296
Mof_Zn	Zn	0.18087	0.38109	0.53107	1.176
Mof_C 	C 	0.10665	0.48875	0.50474	0.101
Mof_N 	N 	0.1131	0.50462	0.53182	-0.157
Mof_C 	C 	0.25725	0.43538	0.46318	0.098
Mof_N 	N 	0.24045	0.46061	0.42345	-0.156
Mof_C 	C 	0.08992	0.55502	0.52329	0.09
Mof_C 	C 	0.26968	0.48771	0.38228	0.086
Mof_N 	N 	0.14465	0.35602	0.60661	-0.274
Mof_N 	N 	0.12566	0.43964	0.50425	-0.288
Mof_N 	N 	0.23709	0.40304	0.51037	-0.298
Mof_H 	H 	0.25236	0.92299	0.27376	0.028
Mof_H 	H 	0.07221	0.4129	0.60433	-0.03
Mof_C 	C 	0.0946	0.37918	0.62693	0.049
Mof_H 	H 	0.36841	0.90008	0.11688	-0.028
Mof_C 	C 	0.3572	0.92269	0.08313	0.05
Mof_H 	H 	0.07203	0.9018	0.11641	-0.031
Mof_C 	C 	0.09436	0.92432	0.08252	0.048
Mof_H 	H 	0.36921	0.41315	0.60523	-0.029
Mof_C 	C 	0.35771	0.37956	0.62768	0.051
Mof_H 	H 	0.07211	0.90165	0.90166	-0.028
Mof_C 	C 	0.09461	0.92416	0.8903	0.053
Mof_H 	H 	0.36801	0.90255	0.60403	-0.028
Mof_C 	C 	0.35678	0.92473	0.62681	0.051
Mof_H 	H 	0.0698	0.41435	0.90233	-0.027
Mof_C 	C 	0.09262	0.38066	0.89105	0.052
Mof_H 	H 	0.46487	0.80671	0.50836	-0.029
Mof_C 	C 	0.49837	0.78431	0.48565	0.051
Mof_H 	H 	0.46346	0.50905	0.50931	-0.028
Mof_C 	C 	0.49711	0.52041	0.48679	0.05
Mof_H 	H 	0.46489	0.80548	0.2114	-0.029
Mof_C 	C 	0.49855	0.78292	0.22278	0.05
Mof_H 	H 	0.46922	0.94708	0.11227	-0.034
Mof_C 	C 	0.43703	0.93746	0.14493	0.068
Mof_H 	H 	0.11687	0.76038	0.11216	-0.042
Mof_C 	C 	0.10759	0.76956	0.14469	0.064
Mof_H 	H 	0.46825	0.40949	0.4629	-0.037
Mof_C 	C 	0.43599	0.44207	0.47214	0.067
Mof_H 	H 	0.46849	0.76056	0.65038	-0.037
Mof_C 	C 	0.43622	0.76985	0.64082	0.066
Mof_H 	H 	0.11607	0.41022	0.00132	-0.063
Mof_C 	C 	0.10677	0.44269	0.96889	0.096
Mof_H 	H 	0.46683	0.94839	0.4622	-0.032
Mof_C 	C 	0.43451	0.93876	0.47176	0.068
Mof_H 	H 	0.11972	0.75948	0.9992	-0.032
Mof_C 	C 	0.1097	0.76923	0.96705	0.067
Mof_H 	H 	0.46583	0.41086	0.65199	-0.039
Mof_C 	C 	0.43335	0.44302	0.64241	0.064
Mof_H 	H 	0.46676	0.75909	0.11342	-0.042
Mof_C 	C 	0.43444	0.76885	0.14573	0.063
Mof_H 	H 	0.11854	0.41108	0.46144	-0.038
Mof_C 	C 	0.10882	0.4434	0.47117	0.064
Mof_H 	H 	0.04275	0.35825	0.79381	-0.032
Mof_C 	C 	0.00417	0.38519	0.80023	0.061
Mof_H 	H 	0.26122	0.87173	0.06225	-0.038
Mof_C 	C 	0.26754	0.8331	0.08913	0.065
Mof_H 	H 	0.26242	0.35961	0.57528	-0.035
Mof_C 	C 	0.26797	0.38613	0.53649	0.067
Mof_H 	H 	0.26263	0.87305	0.79422	-0.031
Mof_C 	C 	0.26801	0.83448	0.8004	0.066
Mof_H 	H 	0.26025	0.35978	0.79535	-0.033
Mof_C 	C 	0.26672	0.38662	0.80067	0.065
Mof_H 	H 	0.51974	0.83495	0.31739	-0.034
Mof_C 	C 	0.49282	0.87355	0.3118	0.066
Mof_H 	H 	0.51822	0.61714	0.53772	-0.034
Mof_C 	C 	0.49164	0.61078	0.57646	0.068
Mof_H 	H 	0.51894	0.6144	0.31892	-0.034
Mof_C 	C 	0.49193	0.60895	0.31282	0.066
Mof_H 	H 	0.00423	0.61756	0.31807	-0.035
Mof_C 	C 	0.04292	0.6112	0.3125	0.064
Mof_H 	H 	0.4609	0.85732	0.99328	-0.041
Mof_C 	C 	0.45924	0.8252	0.99181	0.087
Mof_H 	H 	0.46002	0.97578	0.99459	-0.007
Mof_H 	H 	0.14589	0.85788	0.99463	-0.041
Mof_C 	C 	0.18102	0.8256	0.99287	0.086
Mof_H 	H 	0.02794	0.97645	0.99469	-0.012
Mof_H 	H 	0.45874	0.97635	0.56091	-0.01
Mof_H 	H 	0.46065	0.85813	0.67856	-0.042
Mof_C 	C 	0.45931	0.82595	0.7138	0.062
Mof_H 	H 	0.02018	0.41673	0.11827	-0.045
Mof_C 	C 	0.05208	0.41847	0.12009	0.06
Mof_H 	H 	0.02061	0.73146	0.11892	-0.047
Mof_C 	C 	0.05268	0.69616	0.12056	0.058
Mof_H 	H 	0.01892	0.41806	0.43312	-0.044
Mof_C 	C 	0.05131	0.41958	0.39808	0.06
Mof_Zn	Zn	0.99902	0.3789	0.71434	1.177
Mof_H 	H 	0.88184	0.46799	0.74503	0.022
Mof_C 	C 	0.97044	0.4879	0.6415	-0.002
Mof_C 	C 	0.9924	0.51197	0.64716	0.008
Mof_C 	C 	0.93091	0.43569	0.7901	0.005
Mof_C 	C 	0.88608	0.46485	0.77822	0.002
Mof_N 	N 	0.98498	0.56185	0.62157	-0.118
Mof_N 	N 	0.8457	0.49049	0.8089	-0.118
Mof_N 	N 	0.9695	0.43863	0.66179	-0.277
Mof_N 	N 	0.97825	0.40403	0.76883	-0.279
Mof_Zn	Zn	0.54934	0.82974	0.89799	1.176
Mof_H 	H 	0.63722	0.71188	0.89613	0.022
Mof_C 	C 	0.65673	0.80158	0.89203	0.098
Mof_N 	N 	0.67295	0.82725	0.84222	-0.157
Mof_C 	C 	0.60498	0.76099	0.83424	0.002
Mof_C 	C 	0.6345	0.71631	0.8615	0.001
Mof_C 	C 	0.7232	0.81941	0.82382	0.091
Mof_N 	N 	0.66129	0.67637	0.84478	-0.118
Mof_N 	N 	0.52706	0.90482	0.88273	-0.286
Mof_N 	N 	0.60773	0.80053	0.92238	-0.293
Mof_N 	N 	0.57213	0.80778	0.84077	-0.282
Mof_C 	C 	0.97187	0.93717	0.89246	0.106
Mof_N 	N 	0.99821	0.94452	0.84281	-0.151
Mof_C 	C 	0.98964	0.92146	0.82403	0.1
Mof_N 	N 	0.97151	0.95592	0.92317	-0.283
Mof_H 	H 	0.65999	0.96704	0.55055	0.024
Mof_C 	C 	0.65697	0.93786	0.50389	0.005
Mof_C 	C 	0.68053	0.94323	0.52659	0.008
Mof_N 	N 	0.73054	0.91848	0.5188	-0.114
Mof_N 	N 	0.52759	0.97524	0.60717	-0.28
Mof_N 	N 	0.60773	0.95746	0.50321	-0.267
Mof_H 	H 	0.68196	0.64792	0.78915	0.031
Mof_H 	H 	0.73952	0.84186	0.6266	0.025
Mof_H 	H 	0.81625	0.50911	0.87383	0.031
Mof_C 	C 	0.93377	0.39204	0.24298	0.001
Mof_N 	N 	0.88122	0.46435	0.26931	-0.119
Mof_C 	C 	0.92783	0.43081	0.25558	0.001
Mof_H 	H 	0.89484	0.3586	0.91073	0.029
Mof_C 	C 	0.56151	0.76383	0.42114	-0.001
Mof_N 	N 	0.63409	0.71141	0.37514	-0.119
Mof_C 	C 	0.57099	0.94209	0.33156	-0.005
Mof_C 	C 	0.60013	0.75791	0.37565	0.001
Mof_C 	C 	0.55446	0.97825	0.29011	0.033
Mof_N 	N 	0.55442	0.90387	0.37492	-0.279
Mof_H 	H 	0.90854	0.60031	0.91775	0.02
Mof_H 	H 	0.83402	0.51526	0.94244	0.023
Mof_C 	C 	0.88707	0.54226	0.09548	-0.002
Mof_N 	N 	0.8418	0.56751	0.16839	-0.119
Mof_C 	C 	0.9377	0.52096	0.92192	-0
Mof_C 	C 	0.93271	0.57253	0.89784	0.005
Mof_C 	C 	0.78875	0.57761	0.97406	0.015
Mof_C 	C 	0.80097	0.54976	0.94503	-0.002
Mof_C 	C 	0.79679	0.4447	0.10402	-0.003
Mof_N 	N 	0.71899	0.44471	0.11378	-0.12
Mof_C 	C 	0.84189	0.55449	0.13466	0
Mof_N 	N 	0.95859	0.58925	0.84806	-0.117
Mof_N 	N 	0.77099	0.56579	0.91865	-0.117
Mof_C 	C 	0.75509	0.46655	0.0879	-0.005
Mof_N 	N 	0.91706	0.49111	0.97116	-0.275
Mof_N 	N 	0.83974	0.45669	0.0876	-0.285
Mof_H 	H 	0.79646	0.86878	0.48453	0.025
Mof_Zn	Zn	0.68312	0.69586	0.58202	1.173
Mof_H 	H 	0.76976	0.73791	0.56611	0.014
Mof_H 	H 	0.6852	0.66489	0.69916	0.02
Mof_C 	C 	0.71175	0.71869	0.46617	-0.001
Mof_N 	N 	0.73712	0.67293	0.41373	-0.119
Mof_C 	C 	0.69025	0.76859	0.61081	-0.003
Mof_C 	C 	0.74195	0.76299	0.58868	0.003
Mof_C 	C 	0.74693	0.61947	0.65024	-0.002
Mof_C 	C 	0.71951	0.63169	0.6949	0
Mof_C 	C 	0.61431	0.62812	0.64476	-0
Mof_N 	N 	0.61448	0.54996	0.71243	-0.118
Mof_C 	C 	0.72407	0.67333	0.46027	0
Mof_N 	N 	0.75876	0.78926	0.59524	-0.117
Mof_N 	N 	0.73576	0.60143	0.73512	-0.118
Mof_C 	C 	0.63638	0.58604	0.68043	-0.003
Mof_N 	N 	0.69737	0.73276	0.50716	-0.278
Mof_N 	N 	0.66032	0.74787	0.61234	-0.279
Mof_N 	N 	0.74115	0.64031	0.60292	-0.285
Mof_N 	N 	0.62613	0.6713	0.60645	-0.28
Mof_Zn	Zn	0.86642	0.88067	0.21577	1.176
Mof_C 	C 	0.88889	0.76372	0.24415	0.001
Mof_N 	N 	0.843	0.71121	0.26994	-0.119
Mof_C 	C 	0.941	0.90612	0.22248	0.103
Mof_N 	N 	0.93384	0.87958	0.27204	-0.157
Mof_C 	C 	0.78947	0.94779	0.27885	0.105
Mof_N 	N 	0.80604	0.98769	0.2478	-0.134
Mof_C 	C 	0.79926	0.94268	0.14665	-0.005
Mof_C 	C 	0.84353	0.75781	0.25649	0.001
Mof_C 	C 	0.95713	0.88791	0.29078	0.095
Mof_C 	C 	0.75785	0.97886	0.16842	0.033
Mof_N 	N 	0.90289	0.80483	0.22951	-0.272
Mof_N 	N 	0.92198	0.90671	0.19184	-0.29
Mof_N 	N 	0.81009	0.90068	0.27328	-0.299
Mof_N 	N 	0.84269	0.90466	0.15803	-0.276
Mof_C 	C 	0.71147	0.39207	0.42119	0
Mof_N 	N 	0.73711	0.46475	0.37506	-0.119
Mof_C 	C 	0.61404	0.39987	0.33159	-0
Mof_N 	N 	0.61511	0.40915	0.25342	-0.119
Mof_C 	C 	0.72398	0.43078	0.37571	0.001
Mof_C 	C 	0.63566	0.38278	0.29059	-0.003
Mof_N 	N 	0.62523	0.38318	0.37515	-0.277
Mof_C 	C 	0.93377	0.71924	0.09423	0.001
Mof_N 	N 	0.88124	0.67315	0.16652	-0.119
Mof_C 	C 	0.92784	0.6738	0.13297	0
Mof_C 	C 	0.56056	0.54164	0.46651	0
Mof_N 	N 	0.63334	0.56717	0.4143	-0.119
Mof_C 	C 	0.56856	0.4449	0.64508	0.001
Mof_N 	N 	0.57857	0.44589	0.71248	-0.118
Mof_C 	C 	0.5994	0.55399	0.46078	0.001
Mof_C 	C 	0.55198	0.46665	0.68129	-0.002
Mof_N 	N 	0.55167	0.4562	0.60714	-0.277
Mof_C 	C 	0.56206	0.71853	0.24408	-0
Mof_N 	N 	0.63481	0.67255	0.26967	-0.119
Mof_C 	C 	0.56999	0.62871	0.14704	-0.001
Mof_N 	N 	0.57968	0.55043	0.14803	-0.119
Mof_C 	C 	0.60087	0.67307	0.2566	0.001
Mof_C 	C 	0.55353	0.58719	0.16907	-0.004
Mof_N 	N 	0.5532	0.67228	0.15824	-0.279
Mof_H 	H 	0.95223	0.62689	0.57016	0.024
Mof_C 	C 	0.93331	0.54133	0.42237	-0.001
Mof_N 	N 	0.8807	0.56702	0.37666	-0.119
Mof_C 	C 	0.92729	0.55385	0.37702	0.001
Mof_N 	N 	0.9744	0.52686	0.43632	-0.275
Mof_H 	H 	0.79065	0.53731	0.76414	0.031
Mof_C 	C 	0.71134	0.76412	0.09308	0
Mof_N 	N 	0.73665	0.71197	0.16598	-0.119
Mof_C 	C 	0.68943	0.90717	0.92	0.103
Mof_N 	N 	0.73887	0.88045	0.90372	-0.154
Mof_C 	C 	0.74704	0.94701	0.9745	0.121
Mof_N 	N 	0.71579	0.98687	0.94931	-0.133
Mof_C 	C 	0.61489	0.9427	0.10127	-0.007
Mof_C 	C 	0.72354	0.75843	0.132	-0
Mof_C 	C 	0.75705	0.88898	0.85336	0.094
Mof_C 	C 	0.6363	0.97922	0.08462	0.033
Mof_N 	N 	0.65933	0.90762	0.96916	-0.285
Mof_N 	N 	0.62637	0.90464	0.08442	-0.277
Mof_H 	H 	0.70736	0.62091	0.8979	0.032
Mof_C 	C 	0.88917	0.39165	0.46625	0
Mof_N 	N 	0.84316	0.46409	0.41374	-0.119
Mof_C 	C 	0.79905	0.40012	0.64546	-0
Mof_N 	N 	0.72039	0.40978	0.71257	-0.118
Mof_C 	C 	0.84377	0.43047	0.46031	0.001
Mof_C 	C 	0.75776	0.3833	0.68141	-0.003
Mof_N 	N 	0.84295	0.38315	0.60781	-0.279
Mof_C 	C 	0.93286	0.39036	0.42178	0.098
Mof_C 	C 	0.88714	0.45884	0.37387	0.087
Mof_N 	N 	0.93312	0.42323	0.37484	-0.157
Mof_H 	H 	0.6576	0.71409	0.28227	0.027
Mof_C 	C 	0.56122	0.7623	0.24557	0.097
Mof_C 	C 	0.62988	0.71659	0.2704	0.088
Mof_C 	C 	0.57157	0.94116	0.14592	0.101
Mof_N 	N 	0.59437	0.76261	0.25896	-0.157
Mof_N 	N 	0.54987	0.972	0.17301	-0.135
Mof_N 	N 	0.55681	0.90234	0.15606	-0.296
Mof_H 	H 	0.52733	0.72717	0.90914	0.028
Mof_Zn	Zn	0.86672	0.51181	0.5827	1.178
Mof_H 	H 	0.69244	0.47305	0.7331	0.029
Mof_C 	C 	0.88912	0.54246	0.46641	0.1
Mof_C 	C 	0.84101	0.56772	0.42082	0.087
Mof_C 	C 	0.941	0.51808	0.6088	0.1
Mof_N 	N 	0.93355	0.56772	0.58236	-0.157
Mof_C 	C 	0.79085	0.5754	0.65013	0.105
Mof_N 	N 	0.80805	0.54505	0.68958	-0.155
Mof_C 	C 	0.79899	0.44478	0.64427	0.096
Mof_C 	C 	0.72426	0.45222	0.70774	0.085
Mof_N 	N 	0.84217	0.55597	0.46683	-0.157
Mof_C 	C 	0.95655	0.58668	0.59081	0.092
Mof_C 	C 	0.77862	0.56029	0.73062	0.087
Mof_N 	N 	0.76198	0.47196	0.67481	-0.153
Mof_N 	N 	0.9035	0.52806	0.50695	-0.285
Mof_N 	N 	0.92224	0.48725	0.60937	-0.288
Mof_N 	N 	0.81135	0.56994	0.60304	-0.295
Mof_N 	N 	0.84292	0.45464	0.60624	-0.291
Mof_H 	H 	0.79704	0.86815	0.8376	0.027
Mof_H 	H 	0.74946	0.63499	0.18878	0.027
Mof_H 	H 	0.76679	0.74136	0.91991	0.021
Mof_H 	H 	0.64222	0.52346	0.09124	0.025
Mof_C 	C 	0.71303	0.71962	0.09215	0.097
Mof_C 	C 	0.73769	0.67204	0.16094	0.087
Mof_C 	C 	0.68795	0.77026	0.92298	0.002
Mof_C 	C 	0.73956	0.76503	0.89938	0.005
Mof_C 	C 	0.7451	0.62185	0.97351	0.121
Mof_N 	N 	0.71503	0.63894	0.94696	-0.153
Mof_C 	C 	0.61444	0.629	0.10344	0.093
Mof_C 	C 	0.62172	0.55482	0.10622	0.083
Mof_N 	N 	0.72651	0.67279	0.12534	-0.157
Mof_N 	N 	0.75696	0.78982	0.84937	-0.117
Mof_C 	C 	0.73012	0.609	0.92068	0.089
Mof_N 	N 	0.64148	0.59248	0.08213	-0.158
Mof_N 	N 	0.65766	0.75067	0.97224	-0.273
Mof_N 	N 	0.62448	0.67264	0.08823	-0.296
Mof_H 	H 	0.90854	0.86285	0.91899	0.021
Mof_H 	H 	0.83543	0.99658	0.94298	0.028
Mof_C 	C 	0.88931	0.76297	0.09297	0.097
Mof_C 	C 	0.84137	0.71713	0.16122	0.087
Mof_C 	C 	0.93907	0.90783	0.92278	0
Mof_C 	C 	0.93327	0.88582	0.89887	0.007
Mof_C 	C 	0.79113	0.94705	0.97411	0.017
Mof_C 	C 	0.80264	0.99211	0.94553	0.036
Mof_C 	C 	0.79962	0.94143	0.1031	0.101
Mof_N 	N 	0.84236	0.76316	0.12574	-0.157
Mof_N 	N 	0.95883	0.89305	0.84902	-0.115
Mof_N 	N 	0.76331	0.97233	0.08152	-0.137
Mof_N 	N 	0.91885	0.90886	0.97202	-0.274
Mof_N 	N 	0.84319	0.90283	0.08808	-0.296
Mof_H 	H 	0.74961	0.48779	0.41647	0.026
Mof_H 	H 	0.64175	0.38932	0.733	0.029
Mof_C 	C 	0.71295	0.39129	0.46494	0.097
Mof_C 	C 	0.7378	0.45994	0.41908	0.087
Mof_C 	C 	0.61319	0.40155	0.64364	0.094
Mof_C 	C 	0.62077	0.40424	0.70761	0.085
Mof_N 	N 	0.72632	0.42452	0.46515	-0.157
Mof_N 	N 	0.64027	0.38005	0.67443	-0.156
Mof_N 	N 	0.6233	0.38659	0.60496	-0.295
Mof_C 	C 	0.93274	0.71935	0.24584	0.098
Mof_C 	C 	0.887	0.67137	0.27113	0.087
Mof_N 	N 	0.93301	0.67242	0.25962	-0.156
Mof_N 	N 	0.97335	0.73364	0.23158	-0.285
Mof_H 	H 	0.65619	0.57983	0.33734	0.027
Mof_H 	H 	0.55937	0.47265	0.2255	0.028
Mof_C 	C 	0.55969	0.54322	0.42203	0.098
Mof_C 	C 	0.62838	0.56803	0.3744	0.087
Mof_C 	C 	0.5708	0.44465	0.33147	0.096
Mof_C 	C 	0.5739	0.45183	0.25719	0.085
Mof_N 	N 	0.5929	0.55667	0.3752	-0.157
Mof_N 	N 	0.54983	0.47181	0.29467	-0.154
Mof_N 	N 	0.55555	0.45483	0.37504	-0.294
Mof_H 	H 	0.95323	0.86706	0.33088	0.026
Mof_H 	H 	0.65718	0.63452	0.41688	0.026
Mof_H 	H 	0.55576	0.52498	0.73486	0.029
Mof_C 	C 	0.56098	0.7195	0.46508	0.099
Mof_C 	C 	0.62945	0.67165	0.41931	0.087
Mof_C 	C 	0.56957	0.6298	0.64451	0.095
Mof_C 	C 	0.57153	0.55576	0.70877	0.086
Mof_N 	N 	0.59426	0.67268	0.46542	-0.157
Mof_N 	N 	0.54708	0.59426	0.67607	-0.155
Mof_N 	N 	0.55441	0.67372	0.60621	-0.291
Mof_H 	H 	0.88376	0.58021	0.1906	0.027
Mof_C 	C 	0.93108	0.54363	0.09431	0.099
Mof_C 	C 	0.88598	0.56832	0.16303	0.087
Mof_N 	N 	0.93182	0.55687	0.12731	-0.157
Mof_Zn	Zn	0.68334	0.87833	0.39896	1.177
Mof_H 	H 	0.68327	0.99677	0.36777	0.024
Mof_C 	C 	0.71309	0.7626	0.4219	0.099
Mof_C 	C 	0.73786	0.71704	0.37397	0.087
Mof_C 	C 	0.68798	0.90655	0.47303	0.098
Mof_N 	N 	0.73781	0.88093	0.46514	-0.157
Mof_C 	C 	0.74578	0.94771	0.323	0.002
Mof_C 	C 	0.7179	0.99253	0.33486	0.038
Mof_C 	C 	0.61517	0.94116	0.33218	0.104
Mof_N 	N 	0.72636	0.76301	0.37503	-0.157
Mof_C 	C 	0.75614	0.88883	0.48914	0.093
Mof_N 	N 	0.64178	0.97247	0.29612	-0.133
Mof_N 	N 	0.69902	0.80315	0.43613	-0.287
Mof_N 	N 	0.65774	0.90754	0.45323	-0.287
Mof_N 	N 	0.74038	0.90041	0.34399	-0.282
Mof_N 	N 	0.62533	0.90257	0.37573	-0.29
Mof_H 	H 	0.80417	0.48651	0.28284	0.027
Mof_H 	H 	0.69351	0.38643	0.17535	0.027
Mof_C 	C 	0.88929	0.39083	0.24496	0.098
Mof_C 	C 	0.84134	0.45909	0.27048	0.087
Mof_C 	C 	0.79822	0.40018	0.1475	0.095
Mof_C 	C 	0.72439	0.40205	0.15493	0.084
Mof_N 	N 	0.84233	0.42364	0.2589	-0.157
Mof_N 	N 	0.76264	0.37777	0.17395	-0.155
Mof_N 	N 	0.84197	0.38527	0.15727	-0.294
Mof_Zn	Zn	0.99676	0.38157	0.89868	1.177
Mof_C 	C 	0.97039	0.48897	0.89175	0.101
Mof_N 	N 	0.99713	0.50458	0.84221	-0.157
Mof_C 	C 	0.93078	0.43465	0.8346	0.097
Mof_N 	N 	0.89095	0.45984	0.86586	-0.157
Mof_C 	C 	0.98911	0.55489	0.82322	0.096
Mof_C 	C 	0.84992	0.48702	0.85049	0.087
Mof_N 	N 	0.96958	0.43998	0.9225	-0.291
Mof_N 	N 	0.97781	0.40219	0.84028	-0.294
Mof_Zn	Zn	0.55107	0.82854	0.71363	1.177
Mof_C 	C 	0.65825	0.80193	0.63956	0.101
Mof_N 	N 	0.67398	0.82899	0.64618	-0.156
Mof_C 	C 	0.60548	0.76163	0.78969	0.103
Mof_N 	N 	0.63234	0.72247	0.77198	-0.155
Mof_C 	C 	0.72435	0.8206	0.62305	0.091
Mof_C 	C 	0.65903	0.68126	0.80148	0.088
Mof_N 	N 	0.52559	0.90408	0.67747	-0.272
Mof_N 	N 	0.60918	0.80136	0.65852	-0.288
Mof_N 	N 	0.57342	0.80883	0.76931	-0.295
Mof_H 	H 	0.72307	0.79025	0.13635	0.015
Mof_H 	H 	0.60509	0.63726	0.25647	0.015
Mof_H 	H 	0.67122	0.58061	0.68345	0.024
Mof_H 	H 	0.60425	0.7896	0.33979	0.015
Mof_H 	H 	0.75386	0.98283	0.2021	0.026
Mof_H 	H 	0.80597	0.55413	0.13941	0.014
Mof_C 	C 	0.97044	0.93882	0.19208	0.002
Mof_C 	C 	0.99254	0.94453	0.21598	0.015
Mof_N 	N 	0.98545	0.91881	0.26578	-0.114
Mof_N 	N 	0.9693	0.95902	0.14288	-0.271
Mof_H 	H 	0.95969	0.43525	0.25495	0.016
Mof_H 	H 	0.66147	0.97085	0.8097	0.025
Mof_C 	C 	0.6586	0.9403	0.88871	0.005
Mof_C 	C 	0.6819	0.94598	0.837	0.008
Mof_N 	N 	0.73155	0.92008	0.81959	-0.114
Mof_N 	N 	0.52591	0.97558	0.884	-0.268
Mof_N 	N 	0.60972	0.96071	0.91921	-0.268
Mof_H 	H 	0.72375	0.43482	0.34002	0.014
Mof_H 	H 	0.73881	0.83949	0.7835	0.025
Mof_H 	H 	0.60369	0.55356	0.49262	0.015
Mof_H 	H 	0.58244	0.90284	0.90266	-0.026
Mof_C 	C 	0.54885	0.92529	0.89118	0.055
Mof_H 	H 	0.5827	0.90172	0.60515	-0.028
Mof_C 	C 	0.54902	0.92439	0.6275	0.051
Mof_H 	H 	0.67923	0.80548	0.50927	-0.03
Mof_C 	C 	0.69055	0.78298	0.48676	0.051
Mof_H 	H 	0.97536	0.80707	0.21152	-0.027
Mof_C 	C 	0.95299	0.78447	0.22284	0.051
Mof_H 	H 	0.97668	0.50823	0.50914	-0.028
Mof_C 	C 	0.95412	0.51971	0.48662	0.052
Mof_H 	H 	0.93075	0.40837	0.6514	-0.038
Mof_C 	C 	0.94004	0.44098	0.64169	0.066
Mof_H 	H 	0.57862	0.7601	0.00173	-0.063
Mof_C 	C 	0.61098	0.76953	0.96926	0.098
Mof_H 	H 	0.92957	0.94753	0.00208	-0.055
Mof_C 	C 	0.93915	0.93824	0.96952	0.101
Mof_H 	H 	0.57844	0.94806	0.46283	-0.03
Mof_C 	C 	0.61083	0.9386	0.4723	0.071
Mof_H 	H 	0.92725	0.41176	0.00133	-0.062
Mof_C 	C 	0.93709	0.4439	0.96876	0.094
Mof_H 	H 	0.58081	0.75864	0.65103	-0.038
Mof_C 	C 	0.61303	0.76843	0.64146	0.065
Mof_H 	H 	0.93026	0.94848	0.11301	-0.035
Mof_C 	C 	0.93971	0.93892	0.14546	0.068
Mof_H 	H 	0.58075	0.9498	0.9986	-0.025
Mof_C 	C 	0.61287	0.94023	0.9661	0.071
Mof_H 	H 	0.52767	0.87286	0.79597	-0.032
Mof_C 	C 	0.5547	0.83432	0.80123	0.068
Mof_H 	H 	0.78641	0.61444	0.53839	-0.034
Mof_C 	C 	0.78035	0.60906	0.57693	0.066
Mof_H 	H 	0.78494	0.83559	0.31961	-0.035
Mof_C 	C 	0.77928	0.87433	0.31307	0.068
Mof_H 	H 	0.58641	0.84967	0.4342	-0.042
Mof_C 	C 	0.5883	0.88194	0.39906	0.063
Mof_H 	H 	0.89956	0.41978	0.11872	-0.045
Mof_C 	C 	0.86456	0.42035	0.12074	0.059
Mof_H 	H 	0.58857	0.73162	0.55311	-0.043
Mof_C 	C 	0.58946	0.6963	0.58515	0.06
Mof_H 	H 	0.9018	0.85014	0.12152	-0.043
Mof_C 	C 	0.8667	0.88245	0.12227	0.062
Mof_H 	H 	0.5885	0.41552	0.43396	-0.042
Mof_C 	C 	0.58943	0.41742	0.39885	0.062
Mof_H 	H 	0.58377	0.41979	0.55248	-0.042
Mof_C 	C 	0.5858	0.4206	0.58477	0.062
Mof_H 	H 	0.5851	0.73149	0.1213	-0.044
Mof_C 	C 	0.58714	0.69628	0.1223	0.06
Mof_H 	H 	0.5901	0.84979	0.11659	-0.044
Mof_C 	C 	0.59088	0.88215	0.11856	0.061
Mof_H 	H 	0.90239	0.41495	0.55424	-0.042
Mof_C 	C 	0.86689	0.41714	0.58607	0.061
Mof_H 	H 	0.29756	0.22137	0.695	0.026
Mof_H 	H 	0.32429	0.27203	0.77272	0.014
Mof_H 	H 	0.8846	0.48643	0.33673	0.027
Mof_H 	H 	0.80382	0.57984	0.41839	0.027
Mof_H 	H 	0.80418	0.71455	0.18861	0.027
Mof_H 	H 	0.8845	0.63416	0.2834	0.027
Mof_H 	H 	0.74974	0.71465	0.3368	0.027
_end
