# CIF file generated by openbabel 3.1.0, see https://openbabel.org
data_I
_chemical_name_common 'image0'
_cell_length_a 17.5448
_cell_length_b 13.5781
_cell_length_c 6.6642
_cell_angle_alpha 90
_cell_angle_beta 113.196
_cell_angle_gamma 90
_space_group_name_H-M_alt 'P 1'
_space_group_name_Hall 'P 1'
loop_
    _symmetry_equiv_pos_as_xyz
    x,y,z
loop_
    _atom_site_label
    _atom_site_type_symbol
    _atom_site_fract_x
    _atom_site_fract_y
    _atom_site_fract_z
    _atom_site_occupancy
    O1       O        0.90968    0.08077    0.83347    1.000
    O2       O        0.92285    0.09654    0.51048    1.000
    O3       O        0.73829    0.00569    0.74822    1.000
    O4       O        0.75546    0.12453    0.99284    1.000
    C1       C        0.81407    0.18053    0.55969    1.000
    C2       C        0.75623    0.17603    0.65296    1.000
    C3       C        0.81009    0.25377    0.41260    1.000
    H1       H        0.84900    0.25700    0.34000    1.000
    C4       C        0.89141    0.11366    0.64800    1.000
    C5       C        0.74959    0.09465    0.79948    1.000
    O5       O        0.40968    0.58077    0.83347    1.000
    O6       O        0.42285    0.59654    0.51048    1.000
    O7       O        0.23829    0.50569    0.74822    1.000
    O8       O        0.25546    0.62453    0.99284    1.000
    C6       C        0.31407    0.68053    0.55969    1.000
    C7       C        0.25623    0.67603    0.65296    1.000
    C8       C        0.31009    0.75377    0.41260    1.000
    H2       H        0.34900    0.75700    0.34000    1.000
    C9       C        0.39141    0.61366    0.64800    1.000
    C10      C        0.24959    0.59465    0.79948    1.000
    O9       O        0.09032    0.08077    0.66653    1.000
    O10      O        0.07715    0.09654    0.98952    1.000
    O11      O        0.26171    0.00569    0.75178    1.000
    O12      O        0.24454    0.12453    0.50716    1.000
    C11      C        0.18593    0.18053    0.94031    1.000
    C12      C        0.24377    0.17603    0.84704    1.000
    C13      C        0.18991    0.25377    0.08740    1.000
    H3       H        0.15100    0.25700    0.16000    1.000
    C14      C        0.10859    0.11366    0.85200    1.000
    C15      C        0.25041    0.09465    0.70052    1.000
    O13      O        0.59032    0.58077    0.66653    1.000
    O14      O        0.57715    0.59654    0.98952    1.000
    O15      O        0.76171    0.50569    0.75178    1.000
    O16      O        0.74454    0.62453    0.50716    1.000
    C16      C        0.68593    0.68053    0.94031    1.000
    C17      C        0.74377    0.67603    0.84704    1.000
    C18      C        0.68991    0.75377    0.08740    1.000
    H4       H        0.65100    0.75700    0.16000    1.000
    C19      C        0.60859    0.61366    0.85200    1.000
    C20      C        0.75041    0.59465    0.70052    1.000
    O17      O        0.09032    0.91923    0.16653    1.000
    O18      O        0.07715    0.90346    0.48952    1.000
    O19      O        0.26171    0.99431    0.25178    1.000
    O20      O        0.24454    0.87547    0.00716    1.000
    C21      C        0.18593    0.81947    0.44031    1.000
    C22      C        0.24377    0.82397    0.34704    1.000
    C23      C        0.18991    0.74623    0.58740    1.000
    H5       H        0.15100    0.74300    0.66000    1.000
    C24      C        0.10859    0.88634    0.35200    1.000
    C25      C        0.25041    0.90535    0.20052    1.000
    O21      O        0.59032    0.41923    0.16653    1.000
    O22      O        0.57715    0.40346    0.48952    1.000
    O23      O        0.76171    0.49431    0.25178    1.000
    O24      O        0.74454    0.37547    0.00716    1.000
    C26      C        0.68593    0.31947    0.44031    1.000
    C27      C        0.74377    0.32397    0.34704    1.000
    C28      C        0.68991    0.24623    0.58740    1.000
    H6       H        0.65100    0.24300    0.66000    1.000
    C29      C        0.60859    0.38634    0.35200    1.000
    C30      C        0.75041    0.40535    0.20052    1.000
    O25      O        0.90968    0.91923    0.33347    1.000
    O26      O        0.92285    0.90346    0.01048    1.000
    O27      O        0.73829    0.99431    0.24822    1.000
    O28      O        0.75546    0.87547    0.49284    1.000
    C31      C        0.81407    0.81947    0.05969    1.000
    C32      C        0.75623    0.82397    0.15296    1.000
    C33      C        0.81009    0.74623    0.91260    1.000
    H7       H        0.84900    0.74300    0.84000    1.000
    C34      C        0.89141    0.88634    0.14800    1.000
    C35      C        0.74959    0.90535    0.29948    1.000
    O29      O        0.40968    0.41923    0.33347    1.000
    O30      O        0.42285    0.40346    0.01048    1.000
    O31      O        0.23829    0.49431    0.24822    1.000
    O32      O        0.25546    0.37547    0.49284    1.000
    C36      C        0.31407    0.31947    0.05969    1.000
    C37      C        0.25623    0.32397    0.15296    1.000
    C38      C        0.31009    0.24623    0.91260    1.000
    H8       H        0.34900    0.24300    0.84000    1.000
    C39      C        0.39141    0.38634    0.14800    1.000
    C40      C        0.24959    0.40535    0.29948    1.000
    Al1      Al       0.00000    0.00000    0.00000    1.000
    Al2      Al       0.50000    0.50000    0.00000    1.000
    Al3      Al       0.00000    0.00000    0.50000    1.000
    Al4      Al       0.50000    0.50000    0.50000    1.000
    O33      O        0.00000    0.93793    0.75000    1.000
    O34      O        0.50000    0.43793    0.75000    1.000
    O35      O        0.00000    0.06207    0.25000    1.000
    O36      O        0.50000    0.56207    0.25000    1.000
