data_functionalizedCrystal
_audit_creation_method	'EQeq! by Chris Wilmer'
_symmetry_space_group_name_H-M	'P1'
_symmetry_Int_Tables_number	1
_symmetry_cell_setting	triclinic
loop_
_symmetry_equiv_pos_as_xyz
  x,y,z
_cell_length_a	18.91
_cell_length_b	11.795
_cell_length_c	21.01
_cell_angle_alpha	90
_cell_angle_beta	115.2
_cell_angle_gamma	90
loop_
_atom_site_label
_atom_site_type_symbol
_atom_site_fract_x
_atom_site_fract_y
_atom_site_fract_z
_atom_site_charge
Mof_Zn	Zn	0.4709	0.6494	0.3779	1.211
Mof_O 	O 	0.5986	0.5486	0.3475	-0.464
Mof_O 	O 	0.5859	0.651	0.4314	-0.478
Mof_O 	O 	0.9251	0.592	0.6801	-0.414
Mof_O 	O 	0.8188	0.6912	0.6633	-0.295
Mof_O 	O 	0.9471	0.9329	0.2852	-0.408
Mof_O 	O 	0.9429	0.9932	0.3849	-0.471
Mof_O 	O 	0.4493	0.6909	0.2815	-0.8
Mof_H 	H 	0.3942	0.699	0.254	0.211
Mof_N 	N 	0.8747	0.4069	0.4508	-0.198
Mof_N 	N 	0.9449	0.3747	0.3918	-0.106
Mof_N 	N 	0.9288	0.273	0.4156	-0.28
Mof_C 	C 	0.9118	0.4547	0.413	0.119
Mof_C 	C 	0.8866	0.293	0.4506	0.371
Mof_C 	C 	0.8264	0.4669	0.4783	0.122
Mof_C 	C 	0.7511	0.4938	0.4328	-0.109
Mof_H 	H 	0.7298	0.4679	0.3866	0.083
Mof_C 	C 	0.7071	0.5607	0.4572	-0.047
Mof_C 	C 	0.7401	0.6005	0.5261	-0.034
Mof_H 	H 	0.7111	0.6468	0.542	0.066
Mof_C 	C 	0.8164	0.5712	0.5714	-0.022
Mof_C 	C 	0.8598	0.5026	0.5473	-0.123
Mof_H 	H 	0.9105	0.4811	0.5773	0.121
Mof_C 	C 	0.624	0.589	0.4075	0.359
Mof_C 	C 	0.855	0.6225	0.6443	0.313
Mof_C 	C 	0.9158	0.5752	0.3961	0.044
Mof_C 	C 	0.9296	0.5979	0.3374	-0.078
Mof_H 	H 	0.9331	0.5385	0.3098	0.082
Mof_C 	C 	0.938	0.7086	0.3198	0.041
Mof_H 	H 	0.9488	0.7231	0.2813	0.062
Mof_C 	C 	0.9307	0.7977	0.3594	-0.099
Mof_C 	C 	0.9173	0.7744	0.4185	0.046
Mof_H 	H 	0.9135	0.8338	0.4459	0.039
Mof_C 	C 	0.9098	0.6642	0.4365	-0.082
Mof_H 	H 	0.9007	0.6496	0.4759	0.09
Mof_C 	C 	0.9408	0.9176	0.3411	0.395
Mof_C 	C 	0.8564	0.2068	0.4845	-0.948
Mof_H 	H 	0.8004	0.209	0.4634	0.305
Mof_H 	H 	0.8759	0.2228	0.5338	0.334
Mof_H 	H 	0.8736	0.1328	0.4781	0.312
Mof_Zn	Zn	0.9709	0.1494	0.3779	1.239
Mof_O 	O 	0.0986	0.0486	0.3475	-0.498
Mof_O 	O 	0.0859	0.151	0.4314	-0.529
Mof_O 	O 	0.4251	0.092	0.6801	-0.478
Mof_O 	O 	0.3188	0.1912	0.6633	-0.306
Mof_O 	O 	0.4471	0.4329	0.2852	-0.461
Mof_O 	O 	0.4429	0.4932	0.3849	-0.508
Mof_O 	O 	0.9493	0.1909	0.2815	-0.726
Mof_H 	H 	0.8942	0.199	0.254	0.2
Mof_N 	N 	0.3747	0.9069	0.4508	-0.193
Mof_N 	N 	0.4449	0.8747	0.3918	-0.133
Mof_N 	N 	0.4288	0.773	0.4156	-0.295
Mof_C 	C 	0.4118	0.9547	0.413	0.096
Mof_C 	C 	0.3866	0.793	0.4506	0.332
Mof_C 	C 	0.3264	0.9669	0.4783	0.096
Mof_C 	C 	0.2511	0.9938	0.4328	-0.09
Mof_H 	H 	0.2298	0.9679	0.3866	0.076
Mof_C 	C 	0.2071	0.0607	0.4572	-0.065
Mof_C 	C 	0.2401	0.1005	0.5261	-0.015
Mof_H 	H 	0.2111	0.1468	0.542	0.059
Mof_C 	C 	0.3164	0.0712	0.5714	-0.049
Mof_C 	C 	0.3598	0.0026	0.5473	-0.095
Mof_H 	H 	0.4105	0.9811	0.5773	0.077
Mof_C 	C 	0.124	0.089	0.4075	0.368
Mof_C 	C 	0.355	0.1225	0.6443	0.33
Mof_C 	C 	0.4158	0.0752	0.3961	0.035
Mof_C 	C 	0.4296	0.0979	0.3374	-0.104
Mof_H 	H 	0.4331	0.0385	0.3098	0.065
Mof_C 	C 	0.438	0.2086	0.3198	0.041
Mof_H 	H 	0.4488	0.2231	0.2813	0.029
Mof_C 	C 	0.4307	0.2977	0.3594	-0.131
Mof_C 	C 	0.4173	0.2744	0.4185	0.043
Mof_H 	H 	0.4135	0.3338	0.4459	0.023
Mof_C 	C 	0.4098	0.1642	0.4365	-0.106
Mof_H 	H 	0.4007	0.1496	0.4759	0.08
Mof_C 	C 	0.4408	0.4176	0.3411	0.397
Mof_C 	C 	0.3564	0.7068	0.4845	-0.883
Mof_H 	H 	0.3004	0.709	0.4634	0.284
Mof_H 	H 	0.3759	0.7228	0.5338	0.292
Mof_H 	H 	0.3736	0.6328	0.4781	0.277
Mof_Zn	Zn	0.5291	0.6494	0.1221	1.213
Mof_O 	O 	0.4014	0.5486	0.1525	-0.462
Mof_O 	O 	0.4141	0.651	0.0686	-0.474
Mof_O 	O 	0.0749	0.592	0.8199	-0.523
Mof_O 	O 	0.1812	0.6912	0.8367	-0.314
Mof_O 	O 	0.0529	0.9329	0.2148	-0.497
Mof_O 	O 	0.0571	0.9932	0.1151	-0.54
Mof_O 	O 	0.5507	0.6909	0.2185	-0.8
Mof_H 	H 	0.6058	0.699	0.246	0.211
Mof_N 	N 	0.1253	0.4069	0.0492	-0.191
Mof_N 	N 	0.0551	0.3747	0.1082	-0.158
Mof_N 	N 	0.0712	0.273	0.0844	-0.308
Mof_C 	C 	0.0882	0.4547	0.087	0.076
Mof_C 	C 	0.1134	0.293	0.0494	0.293
Mof_C 	C 	0.1736	0.4669	0.0217	0.099
Mof_C 	C 	0.2489	0.4938	0.0672	-0.094
Mof_H 	H 	0.2702	0.4679	0.1134	0.081
Mof_C 	C 	0.2929	0.5607	0.0428	-0.048
Mof_C 	C 	0.2599	0.6005	0.9739	-0.028
Mof_H 	H 	0.2889	0.6468	0.958	0.062
Mof_C 	C 	0.1836	0.5712	0.9286	-0.055
Mof_C 	C 	0.1402	0.5026	0.9527	-0.104
Mof_H 	H 	0.0895	0.4811	0.9227	0.048
Mof_C 	C 	0.376	0.589	0.0925	0.36
Mof_C 	C 	0.145	0.6225	0.8557	0.336
Mof_C 	C 	0.0842	0.5752	0.1039	0.027
Mof_C 	C 	0.0704	0.5979	0.1626	-0.13
Mof_H 	H 	0.0669	0.5385	0.1902	0.05
Mof_C 	C 	0.062	0.7086	0.1802	0.041
Mof_H 	H 	0.0512	0.7231	0.2187	-0.002
Mof_C 	C 	0.0693	0.7977	0.1406	-0.16
Mof_C 	C 	0.0827	0.7744	0.0815	0.041
Mof_H 	H 	0.0865	0.8338	0.0541	0.009
Mof_C 	C 	0.0902	0.6642	0.0635	-0.128
Mof_H 	H 	0.0993	0.6496	0.0241	0.073
Mof_C 	C 	0.0592	0.9176	0.1589	0.395
Mof_C 	C 	0.1436	0.2068	0.0155	-0.804
Mof_H 	H 	0.1996	0.209	0.0366	0.263
Mof_H 	H 	0.1241	0.2228	0.9662	0.243
Mof_H 	H 	0.1264	0.1328	0.0219	0.239
Mof_Zn	Zn	0.0291	0.1494	0.1221	1.187
Mof_O 	O 	0.9014	0.0486	0.1525	-0.414
Mof_O 	O 	0.9141	0.151	0.0686	-0.421
Mof_O 	O 	0.5749	0.092	0.8199	-0.477
Mof_O 	O 	0.6812	0.1912	0.8367	-0.307
Mof_O 	O 	0.5529	0.4329	0.2148	-0.461
Mof_O 	O 	0.5571	0.4932	0.1151	-0.507
Mof_O 	O 	0.0507	0.1909	0.2185	-0.844
Mof_H 	H 	0.1058	0.199	0.246	0.219
Mof_N 	N 	0.6253	0.9069	0.0492	-0.193
Mof_N 	N 	0.5551	0.8747	0.1082	-0.133
Mof_N 	N 	0.5712	0.773	0.0844	-0.292
Mof_C 	C 	0.5882	0.9547	0.087	0.101
Mof_C 	C 	0.6134	0.793	0.0494	0.326
Mof_C 	C 	0.6736	0.9669	0.0217	0.115
Mof_C 	C 	0.7489	0.9938	0.0672	-0.102
Mof_H 	H 	0.7702	0.9679	0.1134	0.085
Mof_C 	C 	0.7929	0.0607	0.0428	-0.041
Mof_C 	C 	0.7599	0.1005	0.9739	-0.036
Mof_H 	H 	0.7889	0.1468	0.958	0.066
Mof_C 	C 	0.6836	0.0712	0.9286	-0.039
Mof_C 	C 	0.6402	0.0026	0.9527	-0.113
Mof_H 	H 	0.5895	0.9811	0.9227	0.08
Mof_C 	C 	0.876	0.089	0.0925	0.351
Mof_C 	C 	0.645	0.1225	0.8557	0.326
Mof_C 	C 	0.5842	0.0752	0.1039	0.03
Mof_C 	C 	0.5704	0.0979	0.1626	-0.101
Mof_H 	H 	0.5669	0.0385	0.1902	0.063
Mof_C 	C 	0.562	0.2086	0.1802	0.038
Mof_H 	H 	0.5512	0.2231	0.2187	0.03
Mof_C 	C 	0.5693	0.2977	0.1406	-0.129
Mof_C 	C 	0.5827	0.2744	0.0815	0.041
Mof_H 	H 	0.5865	0.3338	0.0541	0.025
Mof_C 	C 	0.5902	0.1642	0.0635	-0.102
Mof_H 	H 	0.5993	0.1496	0.0241	0.08
Mof_C 	C 	0.5592	0.4176	0.1589	0.396
Mof_C 	C 	0.6436	0.7068	0.0155	-0.845
Mof_H 	H 	0.6996	0.709	0.0366	0.277
Mof_H 	H 	0.6241	0.7228	0.9662	0.273
Mof_H 	H 	0.6264	0.6328	0.0219	0.268
Mof_Zn	Zn	0.5291	0.3506	0.6221	1.212
Mof_O 	O 	0.4014	0.4514	0.6525	-0.464
Mof_O 	O 	0.4141	0.349	0.5686	-0.479
Mof_O 	O 	0.0749	0.408	0.3199	-0.524
Mof_O 	O 	0.1812	0.3088	0.3367	-0.314
Mof_O 	O 	0.0529	0.0671	0.7148	-0.496
Mof_O 	O 	0.0571	0.0068	0.6151	-0.542
Mof_O 	O 	0.5507	0.3091	0.7185	-0.8
Mof_H 	H 	0.6058	0.301	0.746	0.211
Mof_N 	N 	0.1253	0.5931	0.5492	-0.19
Mof_N 	N 	0.0551	0.6253	0.6082	-0.159
Mof_N 	N 	0.0712	0.727	0.5844	-0.31
Mof_C 	C 	0.0882	0.5453	0.587	0.074
Mof_C 	C 	0.1134	0.707	0.5494	0.296
Mof_C 	C 	0.1736	0.5331	0.5217	0.081
Mof_C 	C 	0.2489	0.5062	0.5672	-0.079
Mof_H 	H 	0.2702	0.5321	0.6134	0.076
Mof_C 	C 	0.2929	0.4393	0.5428	-0.068
Mof_C 	C 	0.2599	0.3995	0.4739	-0.005
Mof_H 	H 	0.2889	0.3532	0.458	0.056
Mof_C 	C 	0.1836	0.4288	0.4286	-0.068
Mof_C 	C 	0.1402	0.4974	0.4527	-0.082
Mof_H 	H 	0.0895	0.5189	0.4227	0.041
Mof_C 	C 	0.376	0.411	0.5925	0.366
Mof_C 	C 	0.145	0.3775	0.3557	0.341
Mof_C 	C 	0.0842	0.4248	0.6039	0.026
Mof_C 	C 	0.0704	0.4021	0.6626	-0.13
Mof_H 	H 	0.0669	0.4615	0.6902	0.05
Mof_C 	C 	0.062	0.2914	0.6802	0.041
Mof_H 	H 	0.0512	0.2769	0.7187	-0.002
Mof_C 	C 	0.0693	0.2023	0.6406	-0.16
Mof_C 	C 	0.0827	0.2256	0.5815	0.04
Mof_H 	H 	0.0865	0.1662	0.5541	0.006
Mof_C 	C 	0.0902	0.3358	0.5635	-0.129
Mof_H 	H 	0.0993	0.3504	0.5241	0.07
Mof_C 	C 	0.0592	0.0824	0.6589	0.395
Mof_C 	C 	0.1436	0.7932	0.5155	-0.826
Mof_H 	H 	0.1996	0.791	0.5366	0.268
Mof_H 	H 	0.1241	0.7772	0.4662	0.252
Mof_H 	H 	0.1264	0.8672	0.5219	0.244
Mof_Zn	Zn	0.0291	0.8506	0.6221	1.187
Mof_O 	O 	0.9014	0.9514	0.6525	-0.415
Mof_O 	O 	0.9141	0.849	0.5686	-0.423
Mof_O 	O 	0.5749	0.908	0.3199	-0.478
Mof_O 	O 	0.6812	0.8088	0.3367	-0.308
Mof_O 	O 	0.5529	0.5671	0.7148	-0.461
Mof_O 	O 	0.5571	0.5068	0.6151	-0.508
Mof_O 	O 	0.0507	0.8091	0.7185	-0.844
Mof_H 	H 	0.1058	0.801	0.746	0.219
Mof_N 	N 	0.6253	0.0931	0.5492	-0.195
Mof_N 	N 	0.5551	0.1253	0.6082	-0.133
Mof_N 	N 	0.5712	0.227	0.5844	-0.295
Mof_C 	C 	0.5882	0.0453	0.587	0.098
Mof_C 	C 	0.6134	0.207	0.5494	0.335
Mof_C 	C 	0.6736	0.0331	0.5217	0.104
Mof_C 	C 	0.7489	0.0062	0.5672	-0.098
Mof_H 	H 	0.7702	0.0321	0.6134	0.083
Mof_C 	C 	0.7929	0.9393	0.5428	-0.05
Mof_C 	C 	0.7599	0.8995	0.4739	-0.023
Mof_H 	H 	0.7889	0.8532	0.458	0.063
Mof_C 	C 	0.6836	0.9288	0.4286	-0.044
Mof_C 	C 	0.6402	0.9974	0.4527	-0.106
Mof_H 	H 	0.5895	0.0189	0.4227	0.082
Mof_C 	C 	0.876	0.911	0.5925	0.354
Mof_C 	C 	0.645	0.8775	0.3557	0.328
Mof_C 	C 	0.5842	0.9248	0.6039	0.032
Mof_C 	C 	0.5704	0.9021	0.6626	-0.103
Mof_H 	H 	0.5669	0.9615	0.6902	0.063
Mof_C 	C 	0.562	0.7914	0.6802	0.04
Mof_H 	H 	0.5512	0.7769	0.7187	0.029
Mof_C 	C 	0.5693	0.7023	0.6406	-0.13
Mof_C 	C 	0.5827	0.7256	0.5815	0.042
Mof_H 	H 	0.5865	0.6662	0.5541	0.023
Mof_C 	C 	0.5902	0.8358	0.5635	-0.104
Mof_H 	H 	0.5993	0.8504	0.5241	0.079
Mof_C 	C 	0.5592	0.5824	0.6589	0.397
Mof_C 	C 	0.6436	0.2932	0.5155	-0.89
Mof_H 	H 	0.6996	0.291	0.5366	0.289
Mof_H 	H 	0.6241	0.2772	0.4662	0.293
Mof_H 	H 	0.6264	0.3672	0.5219	0.28
Mof_Zn	Zn	0.4709	0.3506	0.8779	1.212
Mof_O 	O 	0.5986	0.4514	0.8475	-0.464
Mof_O 	O 	0.5859	0.349	0.9314	-0.481
Mof_O 	O 	0.9251	0.408	0.1801	-0.414
Mof_O 	O 	0.8188	0.3088	0.1633	-0.296
Mof_O 	O 	0.9471	0.0671	0.7852	-0.408
Mof_O 	O 	0.9429	0.0068	0.8849	-0.471
Mof_O 	O 	0.4493	0.3091	0.7815	-0.8
Mof_H 	H 	0.3942	0.301	0.754	0.211
Mof_N 	N 	0.8747	0.5931	0.9508	-0.198
Mof_N 	N 	0.9449	0.6253	0.8918	-0.107
Mof_N 	N 	0.9288	0.727	0.9156	-0.283
Mof_C 	C 	0.9118	0.5453	0.913	0.116
Mof_C 	C 	0.8866	0.707	0.9506	0.379
Mof_C 	C 	0.8264	0.5331	0.9783	0.101
Mof_C 	C 	0.7511	0.5062	0.9328	-0.093
Mof_H 	H 	0.7298	0.5321	0.8866	0.078
Mof_C 	C 	0.7071	0.4393	0.9572	-0.067
Mof_C 	C 	0.7401	0.3995	0.0261	-0.011
Mof_H 	H 	0.7111	0.3532	0.042	0.06
Mof_C 	C 	0.8164	0.4288	0.0714	-0.036
Mof_C 	C 	0.8598	0.4974	0.0473	-0.099
Mof_H 	H 	0.9105	0.5189	0.0773	0.114
Mof_C 	C 	0.624	0.411	0.9075	0.365
Mof_C 	C 	0.855	0.3775	0.1443	0.319
Mof_C 	C 	0.9158	0.4248	0.8961	0.044
Mof_C 	C 	0.9296	0.4021	0.8374	-0.079
Mof_H 	H 	0.9331	0.4615	0.8098	0.082
Mof_C 	C 	0.938	0.2914	0.8198	0.041
Mof_H 	H 	0.9488	0.2769	0.7813	0.062
Mof_C 	C 	0.9307	0.2023	0.8594	-0.1
Mof_C 	C 	0.9173	0.2256	0.9185	0.045
Mof_H 	H 	0.9135	0.1662	0.9459	0.038
Mof_C 	C 	0.9098	0.3358	0.9365	-0.082
Mof_H 	H 	0.9007	0.3504	0.9759	0.087
Mof_C 	C 	0.9408	0.0824	0.8411	0.395
Mof_C 	C 	0.8564	0.7932	0.9845	-0.995
Mof_H 	H 	0.8004	0.791	0.9634	0.317
Mof_H 	H 	0.8759	0.7772	0.0338	0.354
Mof_H 	H 	0.8736	0.8672	0.9781	0.323
Mof_Zn	Zn	0.9709	0.8506	0.8779	1.238
Mof_O 	O 	0.0986	0.9514	0.8475	-0.502
Mof_O 	O 	0.0859	0.849	0.9314	-0.534
Mof_O 	O 	0.4251	0.908	0.1801	-0.479
Mof_O 	O 	0.3188	0.8088	0.1633	-0.308
Mof_O 	O 	0.4471	0.5671	0.7852	-0.46
Mof_O 	O 	0.4429	0.5068	0.8849	-0.509
Mof_O 	O 	0.9493	0.8091	0.7815	-0.727
Mof_H 	H 	0.8942	0.801	0.754	0.2
Mof_N 	N 	0.3747	0.0931	0.9508	-0.192
Mof_N 	N 	0.4449	0.1253	0.8918	-0.134
Mof_N 	N 	0.4288	0.227	0.9156	-0.296
Mof_C 	C 	0.4118	0.0453	0.913	0.1
Mof_C 	C 	0.3866	0.207	0.9506	0.337
Mof_C 	C 	0.3264	0.0331	0.9783	0.075
Mof_C 	C 	0.2511	0.0062	0.9328	-0.063
Mof_H 	H 	0.2298	0.0321	0.8866	0.068
Mof_C 	C 	0.2071	0.9393	0.9572	-0.097
Mof_C 	C 	0.2401	0.8995	0.0261	0.018
Mof_H 	H 	0.2111	0.8532	0.042	0.051
Mof_C 	C 	0.3164	0.9288	0.0714	-0.068
Mof_C 	C 	0.3598	0.9974	0.0473	-0.068
Mof_H 	H 	0.4105	0.0189	0.0773	0.068
Mof_C 	C 	0.124	0.911	0.9075	0.377
Mof_C 	C 	0.355	0.8775	0.1443	0.337
Mof_C 	C 	0.4158	0.9248	0.8961	0.028
Mof_C 	C 	0.4296	0.9021	0.8374	-0.101
Mof_H 	H 	0.4331	0.9615	0.8098	0.062
Mof_C 	C 	0.438	0.7914	0.8198	0.038
Mof_H 	H 	0.4488	0.7769	0.7813	0.03
Mof_C 	C 	0.4307	0.7023	0.8594	-0.129
Mof_C 	C 	0.4173	0.7256	0.9185	0.039
Mof_H 	H 	0.4135	0.6662	0.9459	0.022
Mof_C 	C 	0.4098	0.8358	0.9365	-0.102
Mof_H 	H 	0.4007	0.8504	0.9759	0.075
Mof_C 	C 	0.4408	0.5824	0.8411	0.396
Mof_C 	C 	0.3564	0.2932	0.9845	-0.91
Mof_H 	H 	0.3004	0.291	0.9634	0.291
Mof_H 	H 	0.3759	0.2772	0.0338	0.303
Mof_H 	H 	0.3736	0.3672	0.9781	0.283
Mof_Zn	Zn	0.5	0.5527	0.25	1.23
Mof_Zn	Zn	0.5	0.8135	0.25	1.225
Mof_Zn	Zn	1.48487e-33	0.0527	0.25	1.187
Mof_Zn	Zn	1.48487e-33	0.3135	0.25	1.183
Mof_Zn	Zn	0.5	0.4473	0.75	1.23
Mof_Zn	Zn	0.5	0.1865	0.75	1.225
Mof_Zn	Zn	4.45461e-33	0.9473	0.75	1.187
Mof_Zn	Zn	5.3624e-17	0.6865	0.75	1.182
_end
