data_functionalizedCrystal
_audit_creation_method	'EQeq! by Chris Wilmer'
_symmetry_space_group_name_H-M	'P1'
_symmetry_Int_Tables_number	1
_symmetry_cell_setting	triclinic
loop_
_symmetry_equiv_pos_as_xyz
  x,y,z
_cell_length_a	9.4003
_cell_length_b	9.4003
_cell_length_c	17.35
_cell_angle_alpha	90
_cell_angle_beta	90
_cell_angle_gamma	120
loop_
_atom_site_label
_atom_site_type_symbol
_atom_site_fract_x
_atom_site_fract_y
_atom_site_fract_z
_atom_site_charge
Mof_Pr	Pr	0.33333	0.66666	0.75	2.54
Mof_Pr	Pr	0.66667	0.33334	0.25	2.535
Mof_Pr	Pr	-0	0	-0	1.836
Mof_Pr	Pr	-0	1.90124e-32	0.5	1.95
Mof_H 	H 	0.5015	0.6718	0.9741	0.096
Mof_H 	H 	0.5754	0.5955	0.9172	0.091
Mof_H 	H 	0.1703	0.4985	0.9741	0.053
Mof_H 	H 	0.0201	0.4246	0.9172	0.012
Mof_H 	H 	0.3282	0.8297	0.9741	0.056
Mof_H 	H 	0.4045	0.9799	0.9172	0.085
Mof_H 	H 	0.5015	0.6718	0.5259	0.098
Mof_H 	H 	0.5754	0.5955	0.5828	0.099
Mof_H 	H 	0.1703	0.4985	0.5259	0.056
Mof_H 	H 	0.0201	0.4246	0.5828	0.021
Mof_H 	H 	0.3282	0.8297	0.5259	0.058
Mof_H 	H 	0.4045	0.9799	0.5828	0.094
Mof_H 	H 	0.8297	0.3282	0.0259	0.038
Mof_H 	H 	0.9799	0.4045	0.0828	0.079
Mof_H 	H 	0.6718	0.5015	0.0259	0.083
Mof_H 	H 	0.5955	0.5754	0.0828	0.085
Mof_H 	H 	0.4985	0.1703	0.0259	0.044
Mof_H 	H 	0.4246	0.0201	0.0828	0.013
Mof_H 	H 	0.8297	0.3282	0.4741	0.056
Mof_H 	H 	0.9799	0.4045	0.4172	0.092
Mof_H 	H 	0.6718	0.5015	0.4741	0.099
Mof_H 	H 	0.5955	0.5754	0.4172	0.097
Mof_H 	H 	0.4985	0.1703	0.4741	0.061
Mof_H 	H 	0.4246	0.0201	0.4172	0.026
Mof_C 	C 	0.6516	0.8341	0.8939	0.482
Mof_C 	C 	0.6	0.6929	0.9466	-0.188
Mof_C 	C 	0.1825	0.3484	0.8939	0.449
Mof_C 	C 	0.0929	0.4	0.9466	-0.115
Mof_C 	C 	0.1659	0.8175	0.8939	0.456
Mof_C 	C 	0.3071	0.9071	0.9466	-0.017
Mof_C 	C 	0.6516	0.8341	0.6061	0.499
Mof_C 	C 	0.6	0.6929	0.5534	-0.251
Mof_C 	C 	0.1825	0.3484	0.6061	0.468
Mof_C 	C 	0.0929	0.4	0.5534	-0.184
Mof_C 	C 	0.1659	0.8175	0.6061	0.474
Mof_C 	C 	0.3071	0.9071	0.5534	-0.081
Mof_C 	C 	0.8175	0.1659	0.1061	0.456
Mof_C 	C 	0.9071	0.3071	0.0534	-0.037
Mof_C 	C 	0.8341	0.6516	0.1061	0.485
Mof_C 	C 	0.6929	0.6	0.0534	-0.228
Mof_C 	C 	0.3484	0.1825	0.1061	0.459
Mof_C 	C 	0.4	0.0929	0.0534	-0.17
Mof_C 	C 	0.8175	0.1659	0.3939	0.469
Mof_C 	C 	0.9071	0.3071	0.4466	-0.063
Mof_C 	C 	0.8341	0.6516	0.3939	0.498
Mof_C 	C 	0.6929	0.6	0.4466	-0.25
Mof_C 	C 	0.3484	0.1825	0.3939	0.471
Mof_C 	C 	0.4	0.0929	0.4466	-0.192
Mof_O 	O 	0.7892	0.9614	0.9035	-0.31
Mof_O 	O 	0.5527	0.8231	0.8428	-0.552
Mof_O 	O 	0.1722	0.2108	0.9035	-0.491
Mof_O 	O 	0.2704	0.4473	0.8428	-0.595
Mof_O 	O 	0.0386	0.8278	0.9035	-0.451
Mof_O 	O 	0.1769	0.7296	0.8428	-0.591
Mof_O 	O 	0.7892	0.9614	0.5965	-0.343
Mof_O 	O 	0.5527	0.8231	0.6572	-0.559
Mof_O 	O 	0.1722	0.2108	0.5965	-0.528
Mof_O 	O 	0.2704	0.4473	0.6572	-0.603
Mof_O 	O 	0.0386	0.8278	0.5965	-0.486
Mof_O 	O 	0.1769	0.7296	0.6572	-0.599
Mof_O 	O 	0.8278	0.0386	0.0965	-0.466
Mof_O 	O 	0.7296	0.1769	0.1572	-0.593
Mof_O 	O 	0.9614	0.7892	0.0965	-0.333
Mof_O 	O 	0.8231	0.5527	0.1572	-0.556
Mof_O 	O 	0.2108	0.1722	0.0965	-0.523
Mof_O 	O 	0.4473	0.2704	0.1572	-0.603
Mof_O 	O 	0.8278	0.0386	0.4035	-0.476
Mof_O 	O 	0.7296	0.1769	0.3428	-0.596
Mof_O 	O 	0.9614	0.7892	0.4035	-0.343
Mof_O 	O 	0.8231	0.5527	0.3428	-0.559
Mof_O 	O 	0.2108	0.1722	0.4035	-0.532
Mof_O 	O 	0.4473	0.2704	0.3428	-0.606
Mof_O 	O 	0.7285	0.7285	-0	-0.218
Mof_O 	O 	-0	0.2715	-0	-0.44
Mof_O 	O 	0.2715	0	-0	-0.425
Mof_O 	O 	0.7285	0.7285	0.5	-0.18
Mof_O 	O 	-5.98538e-18	0.2715	0.5	-0.399
Mof_O 	O 	0.2715	1.90124e-32	0.5	-0.387
_end
