# CIF file generated by openbabel 3.1.0, see https://openbabel.org
data_I
_chemical_name_common 'image0'
_cell_length_a 50.5129
_cell_length_b 50.5129
_cell_length_c 50.5129
_cell_angle_alpha 90
_cell_angle_beta 90
_cell_angle_gamma 90
_space_group_name_H-M_alt 'P 1'
_space_group_name_Hall 'P 1'
loop_
    _symmetry_equiv_pos_as_xyz
    x,y,z
loop_
    _atom_site_label
    _atom_site_type_symbol
    _atom_site_fract_x
    _atom_site_fract_y
    _atom_site_fract_z
    _atom_site_occupancy
    O1       O        0.89000    0.09960    0.03406    1.000
    O2       O        0.92458    0.12037    0.02107    1.000
    O3       O        0.01156    0.06130    0.09270    1.000
    O4       O        0.83688    0.10735    0.01278    1.000
    O5       O        0.84235    0.12737    0.97564    1.000
    O6       O        0.71412    0.07890    0.00514    1.000
    O7       O        0.63961    0.07093    0.04056    1.000
    C1       C        0.91400    0.10440    0.03543    1.000
    C2       C        0.92970    0.08880    0.05544    1.000
    C3       C        0.95720    0.09090    0.05680    1.000
    C4       C        0.82773    0.11582    0.99188    1.000
    C5       C        0.79951    0.11098    0.98392    1.000
    C6       C        0.78198    0.09996    0.00186    1.000
    O8       O        0.89000    0.59960    0.53406    1.000
    O9       O        0.92458    0.62037    0.52107    1.000
    O10      O        0.01156    0.56130    0.59270    1.000
    O11      O        0.83688    0.60735    0.51278    1.000
    O12      O        0.84235    0.62737    0.47564    1.000
    O13      O        0.71412    0.57890    0.50514    1.000
    O14      O        0.63961    0.57093    0.54056    1.000
    C7       C        0.91400    0.60440    0.53543    1.000
    C8       C        0.92970    0.58880    0.55544    1.000
    C9       C        0.95720    0.59090    0.55680    1.000
    C10      C        0.82773    0.61582    0.49188    1.000
    C11      C        0.79951    0.61098    0.48392    1.000
    C12      C        0.78198    0.59996    0.50186    1.000
    O15      O        0.39000    0.09960    0.53406    1.000
    O16      O        0.42458    0.12037    0.52107    1.000
    O17      O        0.51156    0.06130    0.59270    1.000
    O18      O        0.33688    0.10735    0.51278    1.000
    O19      O        0.34235    0.12737    0.47564    1.000
    O20      O        0.21412    0.07890    0.50514    1.000
    O21      O        0.13961    0.07093    0.54056    1.000
    C13      C        0.41400    0.10440    0.53543    1.000
    C14      C        0.42970    0.08880    0.55544    1.000
    C15      C        0.45720    0.09090    0.55680    1.000
    C16      C        0.32773    0.11582    0.49188    1.000
    C17      C        0.29951    0.11098    0.48392    1.000
    C18      C        0.28198    0.09996    0.50186    1.000
    O22      O        0.39000    0.59960    0.03406    1.000
    O23      O        0.42458    0.62037    0.02107    1.000
    O24      O        0.51156    0.56130    0.09270    1.000
    O25      O        0.33688    0.60735    0.01278    1.000
    O26      O        0.34235    0.62737    0.97564    1.000
    O27      O        0.21412    0.57890    0.00514    1.000
    O28      O        0.13961    0.57093    0.04056    1.000
    C19      C        0.41400    0.60440    0.03543    1.000
    C20      C        0.42970    0.58880    0.05544    1.000
    C21      C        0.45720    0.59090    0.05680    1.000
    C22      C        0.32773    0.61582    0.99188    1.000
    C23      C        0.29951    0.61098    0.98392    1.000
    C24      C        0.28198    0.59996    0.00186    1.000
    O29      O        0.86000    0.15040    0.53406    1.000
    O30      O        0.82542    0.12963    0.52107    1.000
    O31      O        0.73844    0.18870    0.59270    1.000
    O32      O        0.91312    0.14265    0.51278    1.000
    O33      O        0.90765    0.12263    0.47564    1.000
    O34      O        0.03588    0.17110    0.50514    1.000
    O35      O        0.11039    0.17907    0.54056    1.000
    C25      C        0.83600    0.14560    0.53543    1.000
    C26      C        0.82030    0.16120    0.55544    1.000
    C27      C        0.79280    0.15910    0.55680    1.000
    C28      C        0.92227    0.13418    0.49188    1.000
    C29      C        0.95049    0.13902    0.48392    1.000
    C30      C        0.96802    0.15004    0.50186    1.000
    O36      O        0.86000    0.65040    0.03406    1.000
    O37      O        0.82542    0.62963    0.02107    1.000
    O38      O        0.73844    0.68870    0.09270    1.000
    O39      O        0.91312    0.64265    0.01278    1.000
    O40      O        0.90765    0.62263    0.97564    1.000
    O41      O        0.03588    0.67110    0.00514    1.000
    O42      O        0.11039    0.67907    0.04056    1.000
    C31      C        0.83600    0.64560    0.03543    1.000
    C32      C        0.82030    0.66120    0.05544    1.000
    C33      C        0.79280    0.65910    0.05680    1.000
    C34      C        0.92227    0.63418    0.99188    1.000
    C35      C        0.95049    0.63902    0.98392    1.000
    C36      C        0.96802    0.65004    0.00186    1.000
    O43      O        0.36000    0.15040    0.03406    1.000
    O44      O        0.32542    0.12963    0.02107    1.000
    O45      O        0.23844    0.18870    0.09270    1.000
    O46      O        0.41312    0.14265    0.01278    1.000
    O47      O        0.40765    0.12263    0.97564    1.000
    O48      O        0.53588    0.17110    0.00514    1.000
    O49      O        0.61039    0.17907    0.04056    1.000
    C37      C        0.33600    0.14560    0.03543    1.000
    C38      C        0.32030    0.16120    0.05544    1.000
    C39      C        0.29280    0.15910    0.05680    1.000
    C40      C        0.42227    0.13418    0.99188    1.000
    C41      C        0.45049    0.13902    0.98392    1.000
    C42      C        0.46802    0.15004    0.00186    1.000
    O50      O        0.36000    0.65040    0.53406    1.000
    O51      O        0.32542    0.62963    0.52107    1.000
    O52      O        0.23844    0.68870    0.59270    1.000
    O53      O        0.41312    0.64265    0.51278    1.000
    O54      O        0.40765    0.62263    0.47564    1.000
    O55      O        0.53588    0.67110    0.50514    1.000
    O56      O        0.61039    0.67907    0.54056    1.000
    C43      C        0.33600    0.64560    0.53543    1.000
    C44      C        0.32030    0.66120    0.55544    1.000
    C45      C        0.29280    0.65910    0.55680    1.000
    C46      C        0.42227    0.63418    0.49188    1.000
    C47      C        0.45049    0.63902    0.48392    1.000
    C48      C        0.46802    0.65004    0.50186    1.000
    O57      O        0.36000    0.59960    0.71594    1.000
    O58      O        0.32542    0.62037    0.72893    1.000
    O59      O        0.23844    0.56130    0.65730    1.000
    O60      O        0.41312    0.60735    0.73722    1.000
    O61      O        0.40765    0.62737    0.77436    1.000
    O62      O        0.53588    0.57890    0.74486    1.000
    O63      O        0.61039    0.57093    0.70944    1.000
    C49      C        0.33600    0.60440    0.71457    1.000
    C50      C        0.32030    0.58880    0.69456    1.000
    C51      C        0.29280    0.59090    0.69320    1.000
    C52      C        0.42227    0.61582    0.75812    1.000
    C53      C        0.45049    0.61098    0.76608    1.000
    C54      C        0.46802    0.59996    0.74814    1.000
    O64      O        0.36000    0.09960    0.21594    1.000
    O65      O        0.32542    0.12037    0.22893    1.000
    O66      O        0.23844    0.06130    0.15730    1.000
    O67      O        0.41312    0.10735    0.23722    1.000
    O68      O        0.40765    0.12737    0.27436    1.000
    O69      O        0.53588    0.07890    0.24486    1.000
    O70      O        0.61039    0.07093    0.20944    1.000
    C55      C        0.33600    0.10440    0.21457    1.000
    C56      C        0.32030    0.08880    0.19456    1.000
    C57      C        0.29280    0.09090    0.19320    1.000
    C58      C        0.42227    0.11582    0.25812    1.000
    C59      C        0.45049    0.11098    0.26608    1.000
    C60      C        0.46802    0.09996    0.24814    1.000
    O71      O        0.86000    0.59960    0.21594    1.000
    O72      O        0.82542    0.62037    0.22893    1.000
    O73      O        0.73844    0.56130    0.15730    1.000
    O74      O        0.91312    0.60735    0.23722    1.000
    O75      O        0.90765    0.62737    0.27436    1.000
    O76      O        0.03588    0.57890    0.24486    1.000
    O77      O        0.11039    0.57093    0.20944    1.000
    C61      C        0.83600    0.60440    0.21457    1.000
    C62      C        0.82030    0.58880    0.19456    1.000
    C63      C        0.79280    0.59090    0.19320    1.000
    C64      C        0.92227    0.61582    0.25812    1.000
    C65      C        0.95049    0.61098    0.26608    1.000
    C66      C        0.96802    0.59996    0.24814    1.000
    O78      O        0.86000    0.09960    0.71594    1.000
    O79      O        0.82542    0.12037    0.72893    1.000
    O80      O        0.73844    0.06130    0.65730    1.000
    O81      O        0.91312    0.10735    0.73722    1.000
    O82      O        0.90765    0.12737    0.77436    1.000
    O83      O        0.03588    0.07890    0.74486    1.000
    O84      O        0.11039    0.07093    0.70944    1.000
    C67      C        0.83600    0.10440    0.71457    1.000
    C68      C        0.82030    0.08880    0.69456    1.000
    C69      C        0.79280    0.09090    0.69320    1.000
    C70      C        0.92227    0.11582    0.75812    1.000
    C71      C        0.95049    0.11098    0.76608    1.000
    C72      C        0.96802    0.09996    0.74814    1.000
    O85      O        0.39000    0.65040    0.21594    1.000
    O86      O        0.42458    0.62963    0.22893    1.000
    O87      O        0.51156    0.68870    0.15730    1.000
    O88      O        0.33688    0.64265    0.23722    1.000
    O89      O        0.34235    0.62263    0.27436    1.000
    O90      O        0.21412    0.67110    0.24486    1.000
    O91      O        0.13961    0.67907    0.20944    1.000
    C73      C        0.41400    0.64560    0.21457    1.000
    C74      C        0.42970    0.66120    0.19456    1.000
    C75      C        0.45720    0.65910    0.19320    1.000
    C76      C        0.32773    0.63418    0.25812    1.000
    C77      C        0.29951    0.63902    0.26608    1.000
    C78      C        0.28198    0.65004    0.24814    1.000
    O92      O        0.39000    0.15040    0.71594    1.000
    O93      O        0.42458    0.12963    0.72893    1.000
    O94      O        0.51156    0.18870    0.65730    1.000
    O95      O        0.33688    0.14265    0.73722    1.000
    O96      O        0.34235    0.12263    0.77436    1.000
    O97      O        0.21412    0.17110    0.74486    1.000
    O98      O        0.13961    0.17907    0.70944    1.000
    C79      C        0.41400    0.14560    0.71457    1.000
    C80      C        0.42970    0.16120    0.69456    1.000
    C81      C        0.45720    0.15910    0.69320    1.000
    C82      C        0.32773    0.13418    0.75812    1.000
    C83      C        0.29951    0.13902    0.76608    1.000
    C84      C        0.28198    0.15004    0.74814    1.000
    O99      O        0.89000    0.65040    0.71594    1.000
    O100     O        0.92458    0.62963    0.72893    1.000
    O101     O        0.01156    0.68870    0.65730    1.000
    O102     O        0.83688    0.64265    0.73722    1.000
    O103     O        0.84235    0.62263    0.77436    1.000
    O104     O        0.71412    0.67110    0.74486    1.000
    O105     O        0.63961    0.67907    0.70944    1.000
    C85      C        0.91400    0.64560    0.71457    1.000
    C86      C        0.92970    0.66120    0.69456    1.000
    C87      C        0.95720    0.65910    0.69320    1.000
    C88      C        0.82773    0.63418    0.75812    1.000
    C89      C        0.79951    0.63902    0.76608    1.000
    C90      C        0.78198    0.65004    0.74814    1.000
    O106     O        0.89000    0.15040    0.21594    1.000
    O107     O        0.92458    0.12963    0.22893    1.000
    O108     O        0.01156    0.18870    0.15730    1.000
    O109     O        0.83688    0.14265    0.23722    1.000
    O110     O        0.84235    0.12263    0.27436    1.000
    O111     O        0.71412    0.17110    0.24486    1.000
    O112     O        0.63961    0.17907    0.20944    1.000
    C91      C        0.91400    0.14560    0.21457    1.000
    C92      C        0.92970    0.16120    0.19456    1.000
    C93      C        0.95720    0.15910    0.19320    1.000
    C94      C        0.82773    0.13418    0.25812    1.000
    C95      C        0.79951    0.13902    0.26608    1.000
    C96      C        0.78198    0.15004    0.24814    1.000
    O113     O        0.03406    0.89000    0.09960    1.000
    O114     O        0.02107    0.92458    0.12037    1.000
    O115     O        0.09270    0.01156    0.06130    1.000
    O116     O        0.01278    0.83688    0.10735    1.000
    O117     O        0.97564    0.84235    0.12737    1.000
    O118     O        0.00514    0.71412    0.07890    1.000
    O119     O        0.04056    0.63961    0.07093    1.000
    C97      C        0.03543    0.91400    0.10440    1.000
    C98      C        0.05544    0.92970    0.08880    1.000
    C99      C        0.05680    0.95720    0.09090    1.000
    C100     C        0.99188    0.82773    0.11582    1.000
    C101     C        0.98392    0.79951    0.11098    1.000
    C102     C        0.00186    0.78198    0.09996    1.000
    O120     O        0.03406    0.39000    0.59960    1.000
    O121     O        0.02107    0.42458    0.62037    1.000
    O122     O        0.09270    0.51156    0.56130    1.000
    O123     O        0.01278    0.33688    0.60735    1.000
    O124     O        0.97564    0.34235    0.62737    1.000
    O125     O        0.00514    0.21412    0.57890    1.000
    O126     O        0.04056    0.13961    0.57093    1.000
    C103     C        0.03543    0.41400    0.60440    1.000
    C104     C        0.05544    0.42970    0.58880    1.000
    C105     C        0.05680    0.45720    0.59090    1.000
    C106     C        0.99188    0.32773    0.61582    1.000
    C107     C        0.98392    0.29951    0.61098    1.000
    C108     C        0.00186    0.28198    0.59996    1.000
    O127     O        0.53406    0.89000    0.59960    1.000
    O128     O        0.52107    0.92458    0.62037    1.000
    O129     O        0.59270    0.01156    0.56130    1.000
    O130     O        0.51278    0.83688    0.60735    1.000
    O131     O        0.47564    0.84235    0.62737    1.000
    O132     O        0.50514    0.71412    0.57890    1.000
    O133     O        0.54056    0.63961    0.57093    1.000
    C109     C        0.53543    0.91400    0.60440    1.000
    C110     C        0.55544    0.92970    0.58880    1.000
    C111     C        0.55680    0.95720    0.59090    1.000
    C112     C        0.49188    0.82773    0.61582    1.000
    C113     C        0.48392    0.79951    0.61098    1.000
    C114     C        0.50186    0.78198    0.59996    1.000
    O134     O        0.53406    0.39000    0.09960    1.000
    O135     O        0.52107    0.42458    0.12037    1.000
    O136     O        0.59270    0.51156    0.06130    1.000
    O137     O        0.51278    0.33688    0.10735    1.000
    O138     O        0.47564    0.34235    0.12737    1.000
    O139     O        0.50514    0.21412    0.07890    1.000
    O140     O        0.54056    0.13961    0.07093    1.000
    C115     C        0.53543    0.41400    0.10440    1.000
    C116     C        0.55544    0.42970    0.08880    1.000
    C117     C        0.55680    0.45720    0.09090    1.000
    C118     C        0.49188    0.32773    0.11582    1.000
    C119     C        0.48392    0.29951    0.11098    1.000
    C120     C        0.50186    0.28198    0.09996    1.000
    O141     O        0.53406    0.86000    0.15040    1.000
    O142     O        0.52107    0.82542    0.12963    1.000
    O143     O        0.59270    0.73844    0.18870    1.000
    O144     O        0.51278    0.91312    0.14265    1.000
    O145     O        0.47564    0.90765    0.12263    1.000
    O146     O        0.50514    0.03588    0.17110    1.000
    O147     O        0.54056    0.11039    0.17907    1.000
    C121     C        0.53543    0.83600    0.14560    1.000
    C122     C        0.55544    0.82030    0.16120    1.000
    C123     C        0.55680    0.79280    0.15910    1.000
    C124     C        0.49188    0.92227    0.13418    1.000
    C125     C        0.48392    0.95049    0.13902    1.000
    C126     C        0.50186    0.96802    0.15004    1.000
    O148     O        0.53406    0.36000    0.65040    1.000
    O149     O        0.52107    0.32542    0.62963    1.000
    O150     O        0.59270    0.23844    0.68870    1.000
    O151     O        0.51278    0.41312    0.64265    1.000
    O152     O        0.47564    0.40765    0.62263    1.000
    O153     O        0.50514    0.53588    0.67110    1.000
    O154     O        0.54056    0.61039    0.67907    1.000
    C127     C        0.53543    0.33600    0.64560    1.000
    C128     C        0.55544    0.32030    0.66120    1.000
    C129     C        0.55680    0.29280    0.65910    1.000
    C130     C        0.49188    0.42227    0.63418    1.000
    C131     C        0.48392    0.45049    0.63902    1.000
    C132     C        0.50186    0.46802    0.65004    1.000
    O155     O        0.03406    0.86000    0.65040    1.000
    O156     O        0.02107    0.82542    0.62963    1.000
    O157     O        0.09270    0.73844    0.68870    1.000
    O158     O        0.01278    0.91312    0.64265    1.000
    O159     O        0.97564    0.90765    0.62263    1.000
    O160     O        0.00514    0.03588    0.67110    1.000
    O161     O        0.04056    0.11039    0.67907    1.000
    C133     C        0.03543    0.83600    0.64560    1.000
    C134     C        0.05544    0.82030    0.66120    1.000
    C135     C        0.05680    0.79280    0.65910    1.000
    C136     C        0.99188    0.92227    0.63418    1.000
    C137     C        0.98392    0.95049    0.63902    1.000
    C138     C        0.00186    0.96802    0.65004    1.000
    O162     O        0.03406    0.36000    0.15040    1.000
    O163     O        0.02107    0.32542    0.12963    1.000
    O164     O        0.09270    0.23844    0.18870    1.000
    O165     O        0.01278    0.41312    0.14265    1.000
    O166     O        0.97564    0.40765    0.12263    1.000
    O167     O        0.00514    0.53588    0.17110    1.000
    O168     O        0.04056    0.61039    0.17907    1.000
    C139     C        0.03543    0.33600    0.14560    1.000
    C140     C        0.05544    0.32030    0.16120    1.000
    C141     C        0.05680    0.29280    0.15910    1.000
    C142     C        0.99188    0.42227    0.13418    1.000
    C143     C        0.98392    0.45049    0.13902    1.000
    C144     C        0.00186    0.46802    0.15004    1.000
    O169     O        0.71594    0.36000    0.59960    1.000
    O170     O        0.72893    0.32542    0.62037    1.000
    O171     O        0.65730    0.23844    0.56130    1.000
    O172     O        0.73722    0.41312    0.60735    1.000
    O173     O        0.77436    0.40765    0.62737    1.000
    O174     O        0.74486    0.53588    0.57890    1.000
    O175     O        0.70944    0.61039    0.57093    1.000
    C145     C        0.71457    0.33600    0.60440    1.000
    C146     C        0.69456    0.32030    0.58880    1.000
    C147     C        0.69320    0.29280    0.59090    1.000
    C148     C        0.75812    0.42227    0.61582    1.000
    C149     C        0.76608    0.45049    0.61098    1.000
    C150     C        0.74814    0.46802    0.59996    1.000
    O176     O        0.71594    0.86000    0.09960    1.000
    O177     O        0.72893    0.82542    0.12037    1.000
    O178     O        0.65730    0.73844    0.06130    1.000
    O179     O        0.73722    0.91312    0.10735    1.000
    O180     O        0.77436    0.90765    0.12737    1.000
    O181     O        0.74486    0.03588    0.07890    1.000
    O182     O        0.70944    0.11039    0.07093    1.000
    C151     C        0.71457    0.83600    0.10440    1.000
    C152     C        0.69456    0.82030    0.08880    1.000
    C153     C        0.69320    0.79280    0.09090    1.000
    C154     C        0.75812    0.92227    0.11582    1.000
    C155     C        0.76608    0.95049    0.11098    1.000
    C156     C        0.74814    0.96802    0.09996    1.000
    O183     O        0.21594    0.36000    0.09960    1.000
    O184     O        0.22893    0.32542    0.12037    1.000
    O185     O        0.15730    0.23844    0.06130    1.000
    O186     O        0.23722    0.41312    0.10735    1.000
    O187     O        0.27436    0.40765    0.12737    1.000
    O188     O        0.24486    0.53588    0.07890    1.000
    O189     O        0.20944    0.61039    0.07093    1.000
    C157     C        0.21457    0.33600    0.10440    1.000
    C158     C        0.19456    0.32030    0.08880    1.000
    C159     C        0.19320    0.29280    0.09090    1.000
    C160     C        0.25812    0.42227    0.11582    1.000
    C161     C        0.26608    0.45049    0.11098    1.000
    C162     C        0.24814    0.46802    0.09996    1.000
    O190     O        0.21594    0.86000    0.59960    1.000
    O191     O        0.22893    0.82542    0.62037    1.000
    O192     O        0.15730    0.73844    0.56130    1.000
    O193     O        0.23722    0.91312    0.60735    1.000
    O194     O        0.27436    0.90765    0.62737    1.000
    O195     O        0.24486    0.03588    0.57890    1.000
    O196     O        0.20944    0.11039    0.57093    1.000
    C163     C        0.21457    0.83600    0.60440    1.000
    C164     C        0.19456    0.82030    0.58880    1.000
    C165     C        0.19320    0.79280    0.59090    1.000
    C166     C        0.25812    0.92227    0.61582    1.000
    C167     C        0.26608    0.95049    0.61098    1.000
    C168     C        0.24814    0.96802    0.59996    1.000
    O197     O        0.21594    0.39000    0.65040    1.000
    O198     O        0.22893    0.42458    0.62963    1.000
    O199     O        0.15730    0.51156    0.68870    1.000
    O200     O        0.23722    0.33688    0.64265    1.000
    O201     O        0.27436    0.34235    0.62263    1.000
    O202     O        0.24486    0.21412    0.67110    1.000
    O203     O        0.20944    0.13961    0.67907    1.000
    C169     C        0.21457    0.41400    0.64560    1.000
    C170     C        0.19456    0.42970    0.66120    1.000
    C171     C        0.19320    0.45720    0.65910    1.000
    C172     C        0.25812    0.32773    0.63418    1.000
    C173     C        0.26608    0.29951    0.63902    1.000
    C174     C        0.24814    0.28198    0.65004    1.000
    O204     O        0.21594    0.89000    0.15040    1.000
    O205     O        0.22893    0.92458    0.12963    1.000
    O206     O        0.15730    0.01156    0.18870    1.000
    O207     O        0.23722    0.83688    0.14265    1.000
    O208     O        0.27436    0.84235    0.12263    1.000
    O209     O        0.24486    0.71412    0.17110    1.000
    O210     O        0.20944    0.63961    0.17907    1.000
    C175     C        0.21457    0.91400    0.14560    1.000
    C176     C        0.19456    0.92970    0.16120    1.000
    C177     C        0.19320    0.95720    0.15910    1.000
    C178     C        0.25812    0.82773    0.13418    1.000
    C179     C        0.26608    0.79951    0.13902    1.000
    C180     C        0.24814    0.78198    0.15004    1.000
    O211     O        0.71594    0.39000    0.15040    1.000
    O212     O        0.72893    0.42458    0.12963    1.000
    O213     O        0.65730    0.51156    0.18870    1.000
    O214     O        0.73722    0.33688    0.14265    1.000
    O215     O        0.77436    0.34235    0.12263    1.000
    O216     O        0.74486    0.21412    0.17110    1.000
    O217     O        0.70944    0.13961    0.17907    1.000
    C181     C        0.71457    0.41400    0.14560    1.000
    C182     C        0.69456    0.42970    0.16120    1.000
    C183     C        0.69320    0.45720    0.15910    1.000
    C184     C        0.75812    0.32773    0.13418    1.000
    C185     C        0.76608    0.29951    0.13902    1.000
    C186     C        0.74814    0.28198    0.15004    1.000
    O218     O        0.71594    0.89000    0.65040    1.000
    O219     O        0.72893    0.92458    0.62963    1.000
    O220     O        0.65730    0.01156    0.68870    1.000
    O221     O        0.73722    0.83688    0.64265    1.000
    O222     O        0.77436    0.84235    0.62263    1.000
    O223     O        0.74486    0.71412    0.67110    1.000
    O224     O        0.70944    0.63961    0.67907    1.000
    C187     C        0.71457    0.91400    0.64560    1.000
    C188     C        0.69456    0.92970    0.66120    1.000
    C189     C        0.69320    0.95720    0.65910    1.000
    C190     C        0.75812    0.82773    0.63418    1.000
    C191     C        0.76608    0.79951    0.63902    1.000
    C192     C        0.74814    0.78198    0.65004    1.000
    O225     O        0.09960    0.03406    0.89000    1.000
    O226     O        0.12037    0.02107    0.92458    1.000
    O227     O        0.06130    0.09270    0.01156    1.000
    O228     O        0.10735    0.01278    0.83688    1.000
    O229     O        0.12737    0.97564    0.84235    1.000
    O230     O        0.07890    0.00514    0.71412    1.000
    O231     O        0.07093    0.04056    0.63961    1.000
    C193     C        0.10440    0.03543    0.91400    1.000
    C194     C        0.08880    0.05544    0.92970    1.000
    C195     C        0.09090    0.05680    0.95720    1.000
    C196     C        0.11582    0.99188    0.82773    1.000
    C197     C        0.11098    0.98392    0.79951    1.000
    C198     C        0.09996    0.00186    0.78198    1.000
    O232     O        0.09960    0.53406    0.39000    1.000
    O233     O        0.12037    0.52107    0.42458    1.000
    O234     O        0.06130    0.59270    0.51156    1.000
    O235     O        0.10735    0.51278    0.33688    1.000
    O236     O        0.12737    0.47564    0.34235    1.000
    O237     O        0.07890    0.50514    0.21412    1.000
    O238     O        0.07093    0.54056    0.13961    1.000
    C199     C        0.10440    0.53543    0.41400    1.000
    C200     C        0.08880    0.55544    0.42970    1.000
    C201     C        0.09090    0.55680    0.45720    1.000
    C202     C        0.11582    0.49188    0.32773    1.000
    C203     C        0.11098    0.48392    0.29951    1.000
    C204     C        0.09996    0.50186    0.28198    1.000
    O239     O        0.59960    0.03406    0.39000    1.000
    O240     O        0.62037    0.02107    0.42458    1.000
    O241     O        0.56130    0.09270    0.51156    1.000
    O242     O        0.60735    0.01278    0.33688    1.000
    O243     O        0.62737    0.97564    0.34235    1.000
    O244     O        0.57890    0.00514    0.21412    1.000
    O245     O        0.57093    0.04056    0.13961    1.000
    C205     C        0.60440    0.03543    0.41400    1.000
    C206     C        0.58880    0.05544    0.42970    1.000
    C207     C        0.59090    0.05680    0.45720    1.000
    C208     C        0.61582    0.99188    0.32773    1.000
    C209     C        0.61098    0.98392    0.29951    1.000
    C210     C        0.59996    0.00186    0.28198    1.000
    O246     O        0.59960    0.53406    0.89000    1.000
    O247     O        0.62037    0.52107    0.92458    1.000
    O248     O        0.56130    0.59270    0.01156    1.000
    O249     O        0.60735    0.51278    0.83688    1.000
    O250     O        0.62737    0.47564    0.84235    1.000
    O251     O        0.57890    0.50514    0.71412    1.000
    O252     O        0.57093    0.54056    0.63961    1.000
    C211     C        0.60440    0.53543    0.91400    1.000
    C212     C        0.58880    0.55544    0.92970    1.000
    C213     C        0.59090    0.55680    0.95720    1.000
    C214     C        0.61582    0.49188    0.82773    1.000
    C215     C        0.61098    0.48392    0.79951    1.000
    C216     C        0.59996    0.50186    0.78198    1.000
    O253     O        0.15040    0.53406    0.86000    1.000
    O254     O        0.12963    0.52107    0.82542    1.000
    O255     O        0.18870    0.59270    0.73844    1.000
    O256     O        0.14265    0.51278    0.91312    1.000
    O257     O        0.12263    0.47564    0.90765    1.000
    O258     O        0.17110    0.50514    0.03588    1.000
    O259     O        0.17907    0.54056    0.11039    1.000
    C217     C        0.14560    0.53543    0.83600    1.000
    C218     C        0.16120    0.55544    0.82030    1.000
    C219     C        0.15910    0.55680    0.79280    1.000
    C220     C        0.13418    0.49188    0.92227    1.000
    C221     C        0.13902    0.48392    0.95049    1.000
    C222     C        0.15004    0.50186    0.96802    1.000
    O260     O        0.15040    0.03406    0.36000    1.000
    O261     O        0.12963    0.02107    0.32542    1.000
    O262     O        0.18870    0.09270    0.23844    1.000
    O263     O        0.14265    0.01278    0.41312    1.000
    O264     O        0.12263    0.97564    0.40765    1.000
    O265     O        0.17110    0.00514    0.53588    1.000
    O266     O        0.17907    0.04056    0.61039    1.000
    C223     C        0.14560    0.03543    0.33600    1.000
    C224     C        0.16120    0.05544    0.32030    1.000
    C225     C        0.15910    0.05680    0.29280    1.000
    C226     C        0.13418    0.99188    0.42227    1.000
    C227     C        0.13902    0.98392    0.45049    1.000
    C228     C        0.15004    0.00186    0.46802    1.000
    O267     O        0.65040    0.53406    0.36000    1.000
    O268     O        0.62963    0.52107    0.32542    1.000
    O269     O        0.68870    0.59270    0.23844    1.000
    O270     O        0.64265    0.51278    0.41312    1.000
    O271     O        0.62263    0.47564    0.40765    1.000
    O272     O        0.67110    0.50514    0.53588    1.000
    O273     O        0.67907    0.54056    0.61039    1.000
    C229     C        0.64560    0.53543    0.33600    1.000
    C230     C        0.66120    0.55544    0.32030    1.000
    C231     C        0.65910    0.55680    0.29280    1.000
    C232     C        0.63418    0.49188    0.42227    1.000
    C233     C        0.63902    0.48392    0.45049    1.000
    C234     C        0.65004    0.50186    0.46802    1.000
    O274     O        0.65040    0.03406    0.86000    1.000
    O275     O        0.62963    0.02107    0.82542    1.000
    O276     O        0.68870    0.09270    0.73844    1.000
    O277     O        0.64265    0.01278    0.91312    1.000
    O278     O        0.62263    0.97564    0.90765    1.000
    O279     O        0.67110    0.00514    0.03588    1.000
    O280     O        0.67907    0.04056    0.11039    1.000
    C235     C        0.64560    0.03543    0.83600    1.000
    C236     C        0.66120    0.05544    0.82030    1.000
    C237     C        0.65910    0.05680    0.79280    1.000
    C238     C        0.63418    0.99188    0.92227    1.000
    C239     C        0.63902    0.98392    0.95049    1.000
    C240     C        0.65004    0.00186    0.96802    1.000
    O281     O        0.59960    0.71594    0.36000    1.000
    O282     O        0.62037    0.72893    0.32542    1.000
    O283     O        0.56130    0.65730    0.23844    1.000
    O284     O        0.60735    0.73722    0.41312    1.000
    O285     O        0.62737    0.77436    0.40765    1.000
    O286     O        0.57890    0.74486    0.53588    1.000
    O287     O        0.57093    0.70944    0.61039    1.000
    C241     C        0.60440    0.71457    0.33600    1.000
    C242     C        0.58880    0.69456    0.32030    1.000
    C243     C        0.59090    0.69320    0.29280    1.000
    C244     C        0.61582    0.75812    0.42227    1.000
    C245     C        0.61098    0.76608    0.45049    1.000
    C246     C        0.59996    0.74814    0.46802    1.000
    O288     O        0.59960    0.21594    0.86000    1.000
    O289     O        0.62037    0.22893    0.82542    1.000
    O290     O        0.56130    0.15730    0.73844    1.000
    O291     O        0.60735    0.23722    0.91312    1.000
    O292     O        0.62737    0.27436    0.90765    1.000
    O293     O        0.57890    0.24486    0.03588    1.000
    O294     O        0.57093    0.20944    0.11039    1.000
    C247     C        0.60440    0.21457    0.83600    1.000
    C248     C        0.58880    0.19456    0.82030    1.000
    C249     C        0.59090    0.19320    0.79280    1.000
    C250     C        0.61582    0.25812    0.92227    1.000
    C251     C        0.61098    0.26608    0.95049    1.000
    C252     C        0.59996    0.24814    0.96802    1.000
    O295     O        0.09960    0.71594    0.86000    1.000
    O296     O        0.12037    0.72893    0.82542    1.000
    O297     O        0.06130    0.65730    0.73844    1.000
    O298     O        0.10735    0.73722    0.91312    1.000
    O299     O        0.12737    0.77436    0.90765    1.000
    O300     O        0.07890    0.74486    0.03588    1.000
    O301     O        0.07093    0.70944    0.11039    1.000
    C253     C        0.10440    0.71457    0.83600    1.000
    C254     C        0.08880    0.69456    0.82030    1.000
    C255     C        0.09090    0.69320    0.79280    1.000
    C256     C        0.11582    0.75812    0.92227    1.000
    C257     C        0.11098    0.76608    0.95049    1.000
    C258     C        0.09996    0.74814    0.96802    1.000
    O302     O        0.09960    0.21594    0.36000    1.000
    O303     O        0.12037    0.22893    0.32542    1.000
    O304     O        0.06130    0.15730    0.23844    1.000
    O305     O        0.10735    0.23722    0.41312    1.000
    O306     O        0.12737    0.27436    0.40765    1.000
    O307     O        0.07890    0.24486    0.53588    1.000
    O308     O        0.07093    0.20944    0.61039    1.000
    C259     C        0.10440    0.21457    0.33600    1.000
    C260     C        0.08880    0.19456    0.32030    1.000
    C261     C        0.09090    0.19320    0.29280    1.000
    C262     C        0.11582    0.25812    0.42227    1.000
    C263     C        0.11098    0.26608    0.45049    1.000
    C264     C        0.09996    0.24814    0.46802    1.000
    O309     O        0.65040    0.21594    0.39000    1.000
    O310     O        0.62963    0.22893    0.42458    1.000
    O311     O        0.68870    0.15730    0.51156    1.000
    O312     O        0.64265    0.23722    0.33688    1.000
    O313     O        0.62263    0.27436    0.34235    1.000
    O314     O        0.67110    0.24486    0.21412    1.000
    O315     O        0.67907    0.20944    0.13961    1.000
    C265     C        0.64560    0.21457    0.41400    1.000
    C266     C        0.66120    0.19456    0.42970    1.000
    C267     C        0.65910    0.19320    0.45720    1.000
    C268     C        0.63418    0.25812    0.32773    1.000
    C269     C        0.63902    0.26608    0.29951    1.000
    C270     C        0.65004    0.24814    0.28198    1.000
    O316     O        0.65040    0.71594    0.89000    1.000
    O317     O        0.62963    0.72893    0.92458    1.000
    O318     O        0.68870    0.65730    0.01156    1.000
    O319     O        0.64265    0.73722    0.83688    1.000
    O320     O        0.62263    0.77436    0.84235    1.000
    O321     O        0.67110    0.74486    0.71412    1.000
    O322     O        0.67907    0.70944    0.63961    1.000
    C271     C        0.64560    0.71457    0.91400    1.000
    C272     C        0.66120    0.69456    0.92970    1.000
    C273     C        0.65910    0.69320    0.95720    1.000
    C274     C        0.63418    0.75812    0.82773    1.000
    C275     C        0.63902    0.76608    0.79951    1.000
    C276     C        0.65004    0.74814    0.78198    1.000
    O323     O        0.15040    0.21594    0.89000    1.000
    O324     O        0.12963    0.22893    0.92458    1.000
    O325     O        0.18870    0.15730    0.01156    1.000
    O326     O        0.14265    0.23722    0.83688    1.000
    O327     O        0.12263    0.27436    0.84235    1.000
    O328     O        0.17110    0.24486    0.71412    1.000
    O329     O        0.17907    0.20944    0.63961    1.000
    C277     C        0.14560    0.21457    0.91400    1.000
    C278     C        0.16120    0.19456    0.92970    1.000
    C279     C        0.15910    0.19320    0.95720    1.000
    C280     C        0.13418    0.25812    0.82773    1.000
    C281     C        0.13902    0.26608    0.79951    1.000
    C282     C        0.15004    0.24814    0.78198    1.000
    O330     O        0.15040    0.71594    0.39000    1.000
    O331     O        0.12963    0.72893    0.42458    1.000
    O332     O        0.18870    0.65730    0.51156    1.000
    O333     O        0.14265    0.73722    0.33688    1.000
    O334     O        0.12263    0.77436    0.34235    1.000
    O335     O        0.17110    0.74486    0.21412    1.000
    O336     O        0.17907    0.70944    0.13961    1.000
    C283     C        0.14560    0.71457    0.41400    1.000
    C284     C        0.16120    0.69456    0.42970    1.000
    C285     C        0.15910    0.69320    0.45720    1.000
    C286     C        0.13418    0.75812    0.32773    1.000
    C287     C        0.13902    0.76608    0.29951    1.000
    C288     C        0.15004    0.74814    0.28198    1.000
    O337     O        0.84960    0.14000    0.46594    1.000
    O338     O        0.87037    0.17458    0.47893    1.000
    O339     O        0.81130    0.26156    0.40730    1.000
    O340     O        0.85735    0.08688    0.48722    1.000
    O341     O        0.87737    0.09235    0.52436    1.000
    O342     O        0.82890    0.96412    0.49486    1.000
    O343     O        0.82093    0.88961    0.45944    1.000
    C289     C        0.85440    0.16400    0.46457    1.000
    C290     C        0.83880    0.17970    0.44456    1.000
    C291     C        0.84090    0.20720    0.44320    1.000
    C292     C        0.86582    0.07773    0.50812    1.000
    C293     C        0.86098    0.04951    0.51608    1.000
    C294     C        0.84996    0.03198    0.49814    1.000
    O344     O        0.84960    0.64000    0.96594    1.000
    O345     O        0.87037    0.67458    0.97893    1.000
    O346     O        0.81130    0.76156    0.90730    1.000
    O347     O        0.85735    0.58688    0.98722    1.000
    O348     O        0.87737    0.59235    0.02436    1.000
    O349     O        0.82890    0.46412    0.99486    1.000
    O350     O        0.82093    0.38961    0.95944    1.000
    C295     C        0.85440    0.66400    0.96457    1.000
    C296     C        0.83880    0.67970    0.94456    1.000
    C297     C        0.84090    0.70720    0.94320    1.000
    C298     C        0.86582    0.57773    0.00812    1.000
    C299     C        0.86098    0.54951    0.01608    1.000
    C300     C        0.84996    0.53198    0.99814    1.000
    O351     O        0.34960    0.14000    0.96594    1.000
    O352     O        0.37037    0.17458    0.97893    1.000
    O353     O        0.31130    0.26156    0.90730    1.000
    O354     O        0.35735    0.08688    0.98722    1.000
    O355     O        0.37737    0.09235    0.02436    1.000
    O356     O        0.32890    0.96412    0.99486    1.000
    O357     O        0.32093    0.88961    0.95944    1.000
    C301     C        0.35440    0.16400    0.96457    1.000
    C302     C        0.33880    0.17970    0.94456    1.000
    C303     C        0.34090    0.20720    0.94320    1.000
    C304     C        0.36582    0.07773    0.00812    1.000
    C305     C        0.36098    0.04951    0.01608    1.000
    C306     C        0.34996    0.03198    0.99814    1.000
    O358     O        0.34960    0.64000    0.46594    1.000
    O359     O        0.37037    0.67458    0.47893    1.000
    O360     O        0.31130    0.76156    0.40730    1.000
    O361     O        0.35735    0.58688    0.48722    1.000
    O362     O        0.37737    0.59235    0.52436    1.000
    O363     O        0.32890    0.46412    0.49486    1.000
    O364     O        0.32093    0.38961    0.45944    1.000
    C307     C        0.35440    0.66400    0.46457    1.000
    C308     C        0.33880    0.67970    0.44456    1.000
    C309     C        0.34090    0.70720    0.44320    1.000
    C310     C        0.36582    0.57773    0.50812    1.000
    C311     C        0.36098    0.54951    0.51608    1.000
    C312     C        0.34996    0.53198    0.49814    1.000
    O365     O        0.90040    0.11000    0.96594    1.000
    O366     O        0.87963    0.07542    0.97893    1.000
    O367     O        0.93870    0.98844    0.90730    1.000
    O368     O        0.89265    0.16312    0.98722    1.000
    O369     O        0.87263    0.15765    0.02436    1.000
    O370     O        0.92110    0.28588    0.99486    1.000
    O371     O        0.92907    0.36039    0.95944    1.000
    C313     C        0.89560    0.08600    0.96457    1.000
    C314     C        0.91120    0.07030    0.94456    1.000
    C315     C        0.90910    0.04280    0.94320    1.000
    C316     C        0.88418    0.17227    0.00812    1.000
    C317     C        0.88902    0.20049    0.01608    1.000
    C318     C        0.90004    0.21802    0.99814    1.000
    O372     O        0.90040    0.61000    0.46594    1.000
    O373     O        0.87963    0.57542    0.47893    1.000
    O374     O        0.93870    0.48844    0.40730    1.000
    O375     O        0.89265    0.66312    0.48722    1.000
    O376     O        0.87263    0.65765    0.52436    1.000
    O377     O        0.92110    0.78588    0.49486    1.000
    O378     O        0.92907    0.86039    0.45944    1.000
    C319     C        0.89560    0.58600    0.46457    1.000
    C320     C        0.91120    0.57030    0.44456    1.000
    C321     C        0.90910    0.54280    0.44320    1.000
    C322     C        0.88418    0.67227    0.50812    1.000
    C323     C        0.88902    0.70049    0.51608    1.000
    C324     C        0.90004    0.71802    0.49814    1.000
    O379     O        0.40040    0.11000    0.46594    1.000
    O380     O        0.37963    0.07542    0.47893    1.000
    O381     O        0.43870    0.98844    0.40730    1.000
    O382     O        0.39265    0.16312    0.48722    1.000
    O383     O        0.37263    0.15765    0.52436    1.000
    O384     O        0.42110    0.28588    0.49486    1.000
    O385     O        0.42907    0.36039    0.45944    1.000
    C325     C        0.39560    0.08600    0.46457    1.000
    C326     C        0.41120    0.07030    0.44456    1.000
    C327     C        0.40910    0.04280    0.44320    1.000
    C328     C        0.38418    0.17227    0.50812    1.000
    C329     C        0.38902    0.20049    0.51608    1.000
    C330     C        0.40004    0.21802    0.49814    1.000
    O386     O        0.40040    0.61000    0.96594    1.000
    O387     O        0.37963    0.57542    0.97893    1.000
    O388     O        0.43870    0.48844    0.90730    1.000
    O389     O        0.39265    0.66312    0.98722    1.000
    O390     O        0.37263    0.65765    0.02436    1.000
    O391     O        0.42110    0.78588    0.99486    1.000
    O392     O        0.42907    0.86039    0.95944    1.000
    C331     C        0.39560    0.58600    0.96457    1.000
    C332     C        0.41120    0.57030    0.94456    1.000
    C333     C        0.40910    0.54280    0.94320    1.000
    C334     C        0.38418    0.67227    0.00812    1.000
    C335     C        0.38902    0.70049    0.01608    1.000
    C336     C        0.40004    0.71802    0.99814    1.000
    O393     O        0.34960    0.61000    0.78406    1.000
    O394     O        0.37037    0.57542    0.77107    1.000
    O395     O        0.31130    0.48844    0.84270    1.000
    O396     O        0.35735    0.66312    0.76278    1.000
    O397     O        0.37737    0.65765    0.72564    1.000
    O398     O        0.32890    0.78588    0.75514    1.000
    O399     O        0.32093    0.86039    0.79056    1.000
    C337     C        0.35440    0.58600    0.78543    1.000
    C338     C        0.33880    0.57030    0.80544    1.000
    C339     C        0.34090    0.54280    0.80680    1.000
    C340     C        0.36582    0.67227    0.74188    1.000
    C341     C        0.36098    0.70049    0.73392    1.000
    C342     C        0.34996    0.71802    0.75186    1.000
    O400     O        0.34960    0.11000    0.28406    1.000
    O401     O        0.37037    0.07542    0.27107    1.000
    O402     O        0.31130    0.98844    0.34270    1.000
    O403     O        0.35735    0.16312    0.26278    1.000
    O404     O        0.37737    0.15765    0.22564    1.000
    O405     O        0.32890    0.28588    0.25514    1.000
    O406     O        0.32093    0.36039    0.29056    1.000
    C343     C        0.35440    0.08600    0.28543    1.000
    C344     C        0.33880    0.07030    0.30544    1.000
    C345     C        0.34090    0.04280    0.30680    1.000
    C346     C        0.36582    0.17227    0.24188    1.000
    C347     C        0.36098    0.20049    0.23392    1.000
    C348     C        0.34996    0.21802    0.25186    1.000
    O407     O        0.84960    0.61000    0.28406    1.000
    O408     O        0.87037    0.57542    0.27107    1.000
    O409     O        0.81130    0.48844    0.34270    1.000
    O410     O        0.85735    0.66312    0.26278    1.000
    O411     O        0.87737    0.65765    0.22564    1.000
    O412     O        0.82890    0.78588    0.25514    1.000
    O413     O        0.82093    0.86039    0.29056    1.000
    C349     C        0.85440    0.58600    0.28543    1.000
    C350     C        0.83880    0.57030    0.30544    1.000
    C351     C        0.84090    0.54280    0.30680    1.000
    C352     C        0.86582    0.67227    0.24188    1.000
    C353     C        0.86098    0.70049    0.23392    1.000
    C354     C        0.84996    0.71802    0.25186    1.000
    O414     O        0.84960    0.11000    0.78406    1.000
    O415     O        0.87037    0.07542    0.77107    1.000
    O416     O        0.81130    0.98844    0.84270    1.000
    O417     O        0.85735    0.16312    0.76278    1.000
    O418     O        0.87737    0.15765    0.72564    1.000
    O419     O        0.82890    0.28588    0.75514    1.000
    O420     O        0.82093    0.36039    0.79056    1.000
    C355     C        0.85440    0.08600    0.78543    1.000
    C356     C        0.83880    0.07030    0.80544    1.000
    C357     C        0.84090    0.04280    0.80680    1.000
    C358     C        0.86582    0.17227    0.74188    1.000
    C359     C        0.86098    0.20049    0.73392    1.000
    C360     C        0.84996    0.21802    0.75186    1.000
    O421     O        0.40040    0.64000    0.28406    1.000
    O422     O        0.37963    0.67458    0.27107    1.000
    O423     O        0.43870    0.76156    0.34270    1.000
    O424     O        0.39265    0.58688    0.26278    1.000
    O425     O        0.37263    0.59235    0.22564    1.000
    O426     O        0.42110    0.46412    0.25514    1.000
    O427     O        0.42907    0.38961    0.29056    1.000
    C361     C        0.39560    0.66400    0.28543    1.000
    C362     C        0.41120    0.67970    0.30544    1.000
    C363     C        0.40910    0.70720    0.30680    1.000
    C364     C        0.38418    0.57773    0.24188    1.000
    C365     C        0.38902    0.54951    0.23392    1.000
    C366     C        0.40004    0.53198    0.25186    1.000
    O428     O        0.40040    0.14000    0.78406    1.000
    O429     O        0.37963    0.17458    0.77107    1.000
    O430     O        0.43870    0.26156    0.84270    1.000
    O431     O        0.39265    0.08688    0.76278    1.000
    O432     O        0.37263    0.09235    0.72564    1.000
    O433     O        0.42110    0.96412    0.75514    1.000
    O434     O        0.42907    0.88961    0.79056    1.000
    C367     C        0.39560    0.16400    0.78543    1.000
    C368     C        0.41120    0.17970    0.80544    1.000
    C369     C        0.40910    0.20720    0.80680    1.000
    C370     C        0.38418    0.07773    0.74188    1.000
    C371     C        0.38902    0.04951    0.73392    1.000
    C372     C        0.40004    0.03198    0.75186    1.000
    O435     O        0.90040    0.64000    0.78406    1.000
    O436     O        0.87963    0.67458    0.77107    1.000
    O437     O        0.93870    0.76156    0.84270    1.000
    O438     O        0.89265    0.58688    0.76278    1.000
    O439     O        0.87263    0.59235    0.72564    1.000
    O440     O        0.92110    0.46412    0.75514    1.000
    O441     O        0.92907    0.38961    0.79056    1.000
    C373     C        0.89560    0.66400    0.78543    1.000
    C374     C        0.91120    0.67970    0.80544    1.000
    C375     C        0.90910    0.70720    0.80680    1.000
    C376     C        0.88418    0.57773    0.74188    1.000
    C377     C        0.88902    0.54951    0.73392    1.000
    C378     C        0.90004    0.53198    0.75186    1.000
    O442     O        0.90040    0.14000    0.28406    1.000
    O443     O        0.87963    0.17458    0.27107    1.000
    O444     O        0.93870    0.26156    0.34270    1.000
    O445     O        0.89265    0.08688    0.26278    1.000
    O446     O        0.87263    0.09235    0.22564    1.000
    O447     O        0.92110    0.96412    0.25514    1.000
    O448     O        0.92907    0.88961    0.29056    1.000
    C379     C        0.89560    0.16400    0.28543    1.000
    C380     C        0.91120    0.17970    0.30544    1.000
    C381     C        0.90910    0.20720    0.30680    1.000
    C382     C        0.88418    0.07773    0.24188    1.000
    C383     C        0.88902    0.04951    0.23392    1.000
    C384     C        0.90004    0.03198    0.25186    1.000
    O449     O        0.64000    0.28406    0.40040    1.000
    O450     O        0.67458    0.27107    0.37963    1.000
    O451     O        0.76156    0.34270    0.43870    1.000
    O452     O        0.58688    0.26278    0.39265    1.000
    O453     O        0.59235    0.22564    0.37263    1.000
    O454     O        0.46412    0.25514    0.42110    1.000
    O455     O        0.38961    0.29056    0.42907    1.000
    C385     C        0.66400    0.28543    0.39560    1.000
    C386     C        0.67970    0.30544    0.41120    1.000
    C387     C        0.70720    0.30680    0.40910    1.000
    C388     C        0.57773    0.24188    0.38418    1.000
    C389     C        0.54951    0.23392    0.38902    1.000
    C390     C        0.53198    0.25186    0.40004    1.000
    O456     O        0.64000    0.78406    0.90040    1.000
    O457     O        0.67458    0.77107    0.87963    1.000
    O458     O        0.76156    0.84270    0.93870    1.000
    O459     O        0.58688    0.76278    0.89265    1.000
    O460     O        0.59235    0.72564    0.87263    1.000
    O461     O        0.46412    0.75514    0.92110    1.000
    O462     O        0.38961    0.79056    0.92907    1.000
    C391     C        0.66400    0.78543    0.89560    1.000
    C392     C        0.67970    0.80544    0.91120    1.000
    C393     C        0.70720    0.80680    0.90910    1.000
    C394     C        0.57773    0.74188    0.88418    1.000
    C395     C        0.54951    0.73392    0.88902    1.000
    C396     C        0.53198    0.75186    0.90004    1.000
    O463     O        0.14000    0.28406    0.90040    1.000
    O464     O        0.17458    0.27107    0.87963    1.000
    O465     O        0.26156    0.34270    0.93870    1.000
    O466     O        0.08688    0.26278    0.89265    1.000
    O467     O        0.09235    0.22564    0.87263    1.000
    O468     O        0.96412    0.25514    0.92110    1.000
    O469     O        0.88961    0.29056    0.92907    1.000
    C397     C        0.16400    0.28543    0.89560    1.000
    C398     C        0.17970    0.30544    0.91120    1.000
    C399     C        0.20720    0.30680    0.90910    1.000
    C400     C        0.07773    0.24188    0.88418    1.000
    C401     C        0.04951    0.23392    0.88902    1.000
    C402     C        0.03198    0.25186    0.90004    1.000
    O470     O        0.14000    0.78406    0.40040    1.000
    O471     O        0.17458    0.77107    0.37963    1.000
    O472     O        0.26156    0.84270    0.43870    1.000
    O473     O        0.08688    0.76278    0.39265    1.000
    O474     O        0.09235    0.72564    0.37263    1.000
    O475     O        0.96412    0.75514    0.42110    1.000
    O476     O        0.88961    0.79056    0.42907    1.000
    C403     C        0.16400    0.78543    0.39560    1.000
    C404     C        0.17970    0.80544    0.41120    1.000
    C405     C        0.20720    0.80680    0.40910    1.000
    C406     C        0.07773    0.74188    0.38418    1.000
    C407     C        0.04951    0.73392    0.38902    1.000
    C408     C        0.03198    0.75186    0.40004    1.000
    O477     O        0.61000    0.78406    0.34960    1.000
    O478     O        0.57542    0.77107    0.37037    1.000
    O479     O        0.48844    0.84270    0.31130    1.000
    O480     O        0.66312    0.76278    0.35735    1.000
    O481     O        0.65765    0.72564    0.37737    1.000
    O482     O        0.78588    0.75514    0.32890    1.000
    O483     O        0.86039    0.79056    0.32093    1.000
    C409     C        0.58600    0.78543    0.35440    1.000
    C410     C        0.57030    0.80544    0.33880    1.000
    C411     C        0.54280    0.80680    0.34090    1.000
    C412     C        0.67227    0.74188    0.36582    1.000
    C413     C        0.70049    0.73392    0.36098    1.000
    C414     C        0.71802    0.75186    0.34996    1.000
    O484     O        0.61000    0.28406    0.84960    1.000
    O485     O        0.57542    0.27107    0.87037    1.000
    O486     O        0.48844    0.34270    0.81130    1.000
    O487     O        0.66312    0.26278    0.85735    1.000
    O488     O        0.65765    0.22564    0.87737    1.000
    O489     O        0.78588    0.25514    0.82890    1.000
    O490     O        0.86039    0.29056    0.82093    1.000
    C415     C        0.58600    0.28543    0.85440    1.000
    C416     C        0.57030    0.30544    0.83880    1.000
    C417     C        0.54280    0.30680    0.84090    1.000
    C418     C        0.67227    0.24188    0.86582    1.000
    C419     C        0.70049    0.23392    0.86098    1.000
    C420     C        0.71802    0.25186    0.84996    1.000
    O491     O        0.11000    0.78406    0.84960    1.000
    O492     O        0.07542    0.77107    0.87037    1.000
    O493     O        0.98844    0.84270    0.81130    1.000
    O494     O        0.16312    0.76278    0.85735    1.000
    O495     O        0.15765    0.72564    0.87737    1.000
    O496     O        0.28588    0.75514    0.82890    1.000
    O497     O        0.36039    0.79056    0.82093    1.000
    C421     C        0.08600    0.78543    0.85440    1.000
    C422     C        0.07030    0.80544    0.83880    1.000
    C423     C        0.04280    0.80680    0.84090    1.000
    C424     C        0.17227    0.74188    0.86582    1.000
    C425     C        0.20049    0.73392    0.86098    1.000
    C426     C        0.21802    0.75186    0.84996    1.000
    O498     O        0.11000    0.28406    0.34960    1.000
    O499     O        0.07542    0.27107    0.37037    1.000
    O500     O        0.98844    0.34270    0.31130    1.000
    O501     O        0.16312    0.26278    0.35735    1.000
    O502     O        0.15765    0.22564    0.37737    1.000
    O503     O        0.28588    0.25514    0.32890    1.000
    O504     O        0.36039    0.29056    0.32093    1.000
    C427     C        0.08600    0.28543    0.35440    1.000
    C428     C        0.07030    0.30544    0.33880    1.000
    C429     C        0.04280    0.30680    0.34090    1.000
    C430     C        0.17227    0.24188    0.36582    1.000
    C431     C        0.20049    0.23392    0.36098    1.000
    C432     C        0.21802    0.25186    0.34996    1.000
    O505     O        0.11000    0.96594    0.90040    1.000
    O506     O        0.07542    0.97893    0.87963    1.000
    O507     O        0.98844    0.90730    0.93870    1.000
    O508     O        0.16312    0.98722    0.89265    1.000
    O509     O        0.15765    0.02436    0.87263    1.000
    O510     O        0.28588    0.99486    0.92110    1.000
    O511     O        0.36039    0.95944    0.92907    1.000
    C433     C        0.08600    0.96457    0.89560    1.000
    C434     C        0.07030    0.94456    0.91120    1.000
    C435     C        0.04280    0.94320    0.90910    1.000
    C436     C        0.17227    0.00812    0.88418    1.000
    C437     C        0.20049    0.01608    0.88902    1.000
    C438     C        0.21802    0.99814    0.90004    1.000
    O512     O        0.11000    0.46594    0.40040    1.000
    O513     O        0.07542    0.47893    0.37963    1.000
    O514     O        0.98844    0.40730    0.43870    1.000
    O515     O        0.16312    0.48722    0.39265    1.000
    O516     O        0.15765    0.52436    0.37263    1.000
    O517     O        0.28588    0.49486    0.42110    1.000
    O518     O        0.36039    0.45944    0.42907    1.000
    C439     C        0.08600    0.46457    0.39560    1.000
    C440     C        0.07030    0.44456    0.41120    1.000
    C441     C        0.04280    0.44320    0.40910    1.000
    C442     C        0.17227    0.50812    0.38418    1.000
    C443     C        0.20049    0.51608    0.38902    1.000
    C444     C        0.21802    0.49814    0.40004    1.000
    O519     O        0.61000    0.96594    0.40040    1.000
    O520     O        0.57542    0.97893    0.37963    1.000
    O521     O        0.48844    0.90730    0.43870    1.000
    O522     O        0.66312    0.98722    0.39265    1.000
    O523     O        0.65765    0.02436    0.37263    1.000
    O524     O        0.78588    0.99486    0.42110    1.000
    O525     O        0.86039    0.95944    0.42907    1.000
    C445     C        0.58600    0.96457    0.39560    1.000
    C446     C        0.57030    0.94456    0.41120    1.000
    C447     C        0.54280    0.94320    0.40910    1.000
    C448     C        0.67227    0.00812    0.38418    1.000
    C449     C        0.70049    0.01608    0.38902    1.000
    C450     C        0.71802    0.99814    0.40004    1.000
    O526     O        0.61000    0.46594    0.90040    1.000
    O527     O        0.57542    0.47893    0.87963    1.000
    O528     O        0.48844    0.40730    0.93870    1.000
    O529     O        0.66312    0.48722    0.89265    1.000
    O530     O        0.65765    0.52436    0.87263    1.000
    O531     O        0.78588    0.49486    0.92110    1.000
    O532     O        0.86039    0.45944    0.92907    1.000
    C451     C        0.58600    0.46457    0.89560    1.000
    C452     C        0.57030    0.44456    0.91120    1.000
    C453     C        0.54280    0.44320    0.90910    1.000
    C454     C        0.67227    0.50812    0.88418    1.000
    C455     C        0.70049    0.51608    0.88902    1.000
    C456     C        0.71802    0.49814    0.90004    1.000
    O533     O        0.14000    0.46594    0.84960    1.000
    O534     O        0.17458    0.47893    0.87037    1.000
    O535     O        0.26156    0.40730    0.81130    1.000
    O536     O        0.08688    0.48722    0.85735    1.000
    O537     O        0.09235    0.52436    0.87737    1.000
    O538     O        0.96412    0.49486    0.82890    1.000
    O539     O        0.88961    0.45944    0.82093    1.000
    C457     C        0.16400    0.46457    0.85440    1.000
    C458     C        0.17970    0.44456    0.83880    1.000
    C459     C        0.20720    0.44320    0.84090    1.000
    C460     C        0.07773    0.50812    0.86582    1.000
    C461     C        0.04951    0.51608    0.86098    1.000
    C462     C        0.03198    0.49814    0.84996    1.000
    O540     O        0.14000    0.96594    0.34960    1.000
    O541     O        0.17458    0.97893    0.37037    1.000
    O542     O        0.26156    0.90730    0.31130    1.000
    O543     O        0.08688    0.98722    0.35735    1.000
    O544     O        0.09235    0.02436    0.37737    1.000
    O545     O        0.96412    0.99486    0.32890    1.000
    O546     O        0.88961    0.95944    0.32093    1.000
    C463     C        0.16400    0.96457    0.35440    1.000
    C464     C        0.17970    0.94456    0.33880    1.000
    C465     C        0.20720    0.94320    0.34090    1.000
    C466     C        0.07773    0.00812    0.36582    1.000
    C467     C        0.04951    0.01608    0.36098    1.000
    C468     C        0.03198    0.99814    0.34996    1.000
    O547     O        0.64000    0.46594    0.34960    1.000
    O548     O        0.67458    0.47893    0.37037    1.000
    O549     O        0.76156    0.40730    0.31130    1.000
    O550     O        0.58688    0.48722    0.35735    1.000
    O551     O        0.59235    0.52436    0.37737    1.000
    O552     O        0.46412    0.49486    0.32890    1.000
    O553     O        0.38961    0.45944    0.32093    1.000
    C469     C        0.66400    0.46457    0.35440    1.000
    C470     C        0.67970    0.44456    0.33880    1.000
    C471     C        0.70720    0.44320    0.34090    1.000
    C472     C        0.57773    0.50812    0.36582    1.000
    C473     C        0.54951    0.51608    0.36098    1.000
    C474     C        0.53198    0.49814    0.34996    1.000
    O554     O        0.64000    0.96594    0.84960    1.000
    O555     O        0.67458    0.97893    0.87037    1.000
    O556     O        0.76156    0.90730    0.81130    1.000
    O557     O        0.58688    0.98722    0.85735    1.000
    O558     O        0.59235    0.02436    0.87737    1.000
    O559     O        0.46412    0.99486    0.82890    1.000
    O560     O        0.38961    0.95944    0.82093    1.000
    C475     C        0.66400    0.96457    0.85440    1.000
    C476     C        0.67970    0.94456    0.83880    1.000
    C477     C        0.70720    0.94320    0.84090    1.000
    C478     C        0.57773    0.00812    0.86582    1.000
    C479     C        0.54951    0.01608    0.86098    1.000
    C480     C        0.53198    0.99814    0.84996    1.000
    O561     O        0.78406    0.34960    0.61000    1.000
    O562     O        0.77107    0.37037    0.57542    1.000
    O563     O        0.84270    0.31130    0.48844    1.000
    O564     O        0.76278    0.35735    0.66312    1.000
    O565     O        0.72564    0.37737    0.65765    1.000
    O566     O        0.75514    0.32890    0.78588    1.000
    O567     O        0.79056    0.32093    0.86039    1.000
    C481     C        0.78543    0.35440    0.58600    1.000
    C482     C        0.80544    0.33880    0.57030    1.000
    C483     C        0.80680    0.34090    0.54280    1.000
    C484     C        0.74188    0.36582    0.67227    1.000
    C485     C        0.73392    0.36098    0.70049    1.000
    C486     C        0.75186    0.34996    0.71802    1.000
    O568     O        0.78406    0.84960    0.11000    1.000
    O569     O        0.77107    0.87037    0.07542    1.000
    O570     O        0.84270    0.81130    0.98844    1.000
    O571     O        0.76278    0.85735    0.16312    1.000
    O572     O        0.72564    0.87737    0.15765    1.000
    O573     O        0.75514    0.82890    0.28588    1.000
    O574     O        0.79056    0.82093    0.36039    1.000
    C487     C        0.78543    0.85440    0.08600    1.000
    C488     C        0.80544    0.83880    0.07030    1.000
    C489     C        0.80680    0.84090    0.04280    1.000
    C490     C        0.74188    0.86582    0.17227    1.000
    C491     C        0.73392    0.86098    0.20049    1.000
    C492     C        0.75186    0.84996    0.21802    1.000
    O575     O        0.28406    0.34960    0.11000    1.000
    O576     O        0.27107    0.37037    0.07542    1.000
    O577     O        0.34270    0.31130    0.98844    1.000
    O578     O        0.26278    0.35735    0.16312    1.000
    O579     O        0.22564    0.37737    0.15765    1.000
    O580     O        0.25514    0.32890    0.28588    1.000
    O581     O        0.29056    0.32093    0.36039    1.000
    C493     C        0.28543    0.35440    0.08600    1.000
    C494     C        0.30544    0.33880    0.07030    1.000
    C495     C        0.30680    0.34090    0.04280    1.000
    C496     C        0.24188    0.36582    0.17227    1.000
    C497     C        0.23392    0.36098    0.20049    1.000
    C498     C        0.25186    0.34996    0.21802    1.000
    O582     O        0.28406    0.84960    0.61000    1.000
    O583     O        0.27107    0.87037    0.57542    1.000
    O584     O        0.34270    0.81130    0.48844    1.000
    O585     O        0.26278    0.85735    0.66312    1.000
    O586     O        0.22564    0.87737    0.65765    1.000
    O587     O        0.25514    0.82890    0.78588    1.000
    O588     O        0.29056    0.82093    0.86039    1.000
    C499     C        0.28543    0.85440    0.58600    1.000
    C500     C        0.30544    0.83880    0.57030    1.000
    C501     C        0.30680    0.84090    0.54280    1.000
    C502     C        0.24188    0.86582    0.67227    1.000
    C503     C        0.23392    0.86098    0.70049    1.000
    C504     C        0.25186    0.84996    0.71802    1.000
    O589     O        0.28406    0.40040    0.64000    1.000
    O590     O        0.27107    0.37963    0.67458    1.000
    O591     O        0.34270    0.43870    0.76156    1.000
    O592     O        0.26278    0.39265    0.58688    1.000
    O593     O        0.22564    0.37263    0.59235    1.000
    O594     O        0.25514    0.42110    0.46412    1.000
    O595     O        0.29056    0.42907    0.38961    1.000
    C505     C        0.28543    0.39560    0.66400    1.000
    C506     C        0.30544    0.41120    0.67970    1.000
    C507     C        0.30680    0.40910    0.70720    1.000
    C508     C        0.24188    0.38418    0.57773    1.000
    C509     C        0.23392    0.38902    0.54951    1.000
    C510     C        0.25186    0.40004    0.53198    1.000
    O596     O        0.28406    0.90040    0.14000    1.000
    O597     O        0.27107    0.87963    0.17458    1.000
    O598     O        0.34270    0.93870    0.26156    1.000
    O599     O        0.26278    0.89265    0.08688    1.000
    O600     O        0.22564    0.87263    0.09235    1.000
    O601     O        0.25514    0.92110    0.96412    1.000
    O602     O        0.29056    0.92907    0.88961    1.000
    C511     C        0.28543    0.89560    0.16400    1.000
    C512     C        0.30544    0.91120    0.17970    1.000
    C513     C        0.30680    0.90910    0.20720    1.000
    C514     C        0.24188    0.88418    0.07773    1.000
    C515     C        0.23392    0.88902    0.04951    1.000
    C516     C        0.25186    0.90004    0.03198    1.000
    O603     O        0.78406    0.40040    0.14000    1.000
    O604     O        0.77107    0.37963    0.17458    1.000
    O605     O        0.84270    0.43870    0.26156    1.000
    O606     O        0.76278    0.39265    0.08688    1.000
    O607     O        0.72564    0.37263    0.09235    1.000
    O608     O        0.75514    0.42110    0.96412    1.000
    O609     O        0.79056    0.42907    0.88961    1.000
    C517     C        0.78543    0.39560    0.16400    1.000
    C518     C        0.80544    0.41120    0.17970    1.000
    C519     C        0.80680    0.40910    0.20720    1.000
    C520     C        0.74188    0.38418    0.07773    1.000
    C521     C        0.73392    0.38902    0.04951    1.000
    C522     C        0.75186    0.40004    0.03198    1.000
    O610     O        0.78406    0.90040    0.64000    1.000
    O611     O        0.77107    0.87963    0.67458    1.000
    O612     O        0.84270    0.93870    0.76156    1.000
    O613     O        0.76278    0.89265    0.58688    1.000
    O614     O        0.72564    0.87263    0.59235    1.000
    O615     O        0.75514    0.92110    0.46412    1.000
    O616     O        0.79056    0.92907    0.38961    1.000
    C523     C        0.78543    0.89560    0.66400    1.000
    C524     C        0.80544    0.91120    0.67970    1.000
    C525     C        0.80680    0.90910    0.70720    1.000
    C526     C        0.74188    0.88418    0.57773    1.000
    C527     C        0.73392    0.88902    0.54951    1.000
    C528     C        0.75186    0.90004    0.53198    1.000
    O617     O        0.46594    0.84960    0.14000    1.000
    O618     O        0.47893    0.87037    0.17458    1.000
    O619     O        0.40730    0.81130    0.26156    1.000
    O620     O        0.48722    0.85735    0.08688    1.000
    O621     O        0.52436    0.87737    0.09235    1.000
    O622     O        0.49486    0.82890    0.96412    1.000
    O623     O        0.45944    0.82093    0.88961    1.000
    C529     C        0.46457    0.85440    0.16400    1.000
    C530     C        0.44456    0.83880    0.17970    1.000
    C531     C        0.44320    0.84090    0.20720    1.000
    C532     C        0.50812    0.86582    0.07773    1.000
    C533     C        0.51608    0.86098    0.04951    1.000
    C534     C        0.49814    0.84996    0.03198    1.000
    O624     O        0.46594    0.34960    0.64000    1.000
    O625     O        0.47893    0.37037    0.67458    1.000
    O626     O        0.40730    0.31130    0.76156    1.000
    O627     O        0.48722    0.35735    0.58688    1.000
    O628     O        0.52436    0.37737    0.59235    1.000
    O629     O        0.49486    0.32890    0.46412    1.000
    O630     O        0.45944    0.32093    0.38961    1.000
    C535     C        0.46457    0.35440    0.66400    1.000
    C536     C        0.44456    0.33880    0.67970    1.000
    C537     C        0.44320    0.34090    0.70720    1.000
    C538     C        0.50812    0.36582    0.57773    1.000
    C539     C        0.51608    0.36098    0.54951    1.000
    C540     C        0.49814    0.34996    0.53198    1.000
    O631     O        0.96594    0.84960    0.64000    1.000
    O632     O        0.97893    0.87037    0.67458    1.000
    O633     O        0.90730    0.81130    0.76156    1.000
    O634     O        0.98722    0.85735    0.58688    1.000
    O635     O        0.02436    0.87737    0.59235    1.000
    O636     O        0.99486    0.82890    0.46412    1.000
    O637     O        0.95944    0.82093    0.38961    1.000
    C541     C        0.96457    0.85440    0.66400    1.000
    C542     C        0.94456    0.83880    0.67970    1.000
    C543     C        0.94320    0.84090    0.70720    1.000
    C544     C        0.00812    0.86582    0.57773    1.000
    C545     C        0.01608    0.86098    0.54951    1.000
    C546     C        0.99814    0.84996    0.53198    1.000
    O638     O        0.96594    0.34960    0.14000    1.000
    O639     O        0.97893    0.37037    0.17458    1.000
    O640     O        0.90730    0.31130    0.26156    1.000
    O641     O        0.98722    0.35735    0.08688    1.000
    O642     O        0.02436    0.37737    0.09235    1.000
    O643     O        0.99486    0.32890    0.96412    1.000
    O644     O        0.95944    0.32093    0.88961    1.000
    C547     C        0.96457    0.35440    0.16400    1.000
    C548     C        0.94456    0.33880    0.17970    1.000
    C549     C        0.94320    0.34090    0.20720    1.000
    C550     C        0.00812    0.36582    0.07773    1.000
    C551     C        0.01608    0.36098    0.04951    1.000
    C552     C        0.99814    0.34996    0.03198    1.000
    O645     O        0.96594    0.90040    0.11000    1.000
    O646     O        0.97893    0.87963    0.07542    1.000
    O647     O        0.90730    0.93870    0.98844    1.000
    O648     O        0.98722    0.89265    0.16312    1.000
    O649     O        0.02436    0.87263    0.15765    1.000
    O650     O        0.99486    0.92110    0.28588    1.000
    O651     O        0.95944    0.92907    0.36039    1.000
    C553     C        0.96457    0.89560    0.08600    1.000
    C554     C        0.94456    0.91120    0.07030    1.000
    C555     C        0.94320    0.90910    0.04280    1.000
    C556     C        0.00812    0.88418    0.17227    1.000
    C557     C        0.01608    0.88902    0.20049    1.000
    C558     C        0.99814    0.90004    0.21802    1.000
    O652     O        0.96594    0.40040    0.61000    1.000
    O653     O        0.97893    0.37963    0.57542    1.000
    O654     O        0.90730    0.43870    0.48844    1.000
    O655     O        0.98722    0.39265    0.66312    1.000
    O656     O        0.02436    0.37263    0.65765    1.000
    O657     O        0.99486    0.42110    0.78588    1.000
    O658     O        0.95944    0.42907    0.86039    1.000
    C559     C        0.96457    0.39560    0.58600    1.000
    C560     C        0.94456    0.41120    0.57030    1.000
    C561     C        0.94320    0.40910    0.54280    1.000
    C562     C        0.00812    0.38418    0.67227    1.000
    C563     C        0.01608    0.38902    0.70049    1.000
    C564     C        0.99814    0.40004    0.71802    1.000
    O659     O        0.46594    0.90040    0.61000    1.000
    O660     O        0.47893    0.87963    0.57542    1.000
    O661     O        0.40730    0.93870    0.48844    1.000
    O662     O        0.48722    0.89265    0.66312    1.000
    O663     O        0.52436    0.87263    0.65765    1.000
    O664     O        0.49486    0.92110    0.78588    1.000
    O665     O        0.45944    0.92907    0.86039    1.000
    C565     C        0.46457    0.89560    0.58600    1.000
    C566     C        0.44456    0.91120    0.57030    1.000
    C567     C        0.44320    0.90910    0.54280    1.000
    C568     C        0.50812    0.88418    0.67227    1.000
    C569     C        0.51608    0.88902    0.70049    1.000
    C570     C        0.49814    0.90004    0.71802    1.000
    O666     O        0.46594    0.40040    0.11000    1.000
    O667     O        0.47893    0.37963    0.07542    1.000
    O668     O        0.40730    0.43870    0.98844    1.000
    O669     O        0.48722    0.39265    0.16312    1.000
    O670     O        0.52436    0.37263    0.15765    1.000
    O671     O        0.49486    0.42110    0.28588    1.000
    O672     O        0.45944    0.42907    0.36039    1.000
    C571     C        0.46457    0.39560    0.08600    1.000
    C572     C        0.44456    0.41120    0.07030    1.000
    C573     C        0.44320    0.40910    0.04280    1.000
    C574     C        0.50812    0.38418    0.17227    1.000
    C575     C        0.51608    0.38902    0.20049    1.000
    C576     C        0.49814    0.40004    0.21802    1.000
    O673     O        0.11000    0.90040    0.96594    1.000
    O674     O        0.07542    0.87963    0.97893    1.000
    O675     O        0.98844    0.93870    0.90730    1.000
    O676     O        0.16312    0.89265    0.98722    1.000
    O677     O        0.15765    0.87263    0.02436    1.000
    O678     O        0.28588    0.92110    0.99486    1.000
    O679     O        0.36039    0.92907    0.95944    1.000
    C577     C        0.08600    0.89560    0.96457    1.000
    C578     C        0.07030    0.91120    0.94456    1.000
    C579     C        0.04280    0.90910    0.94320    1.000
    C580     C        0.17227    0.88418    0.00812    1.000
    C581     C        0.20049    0.88902    0.01608    1.000
    C582     C        0.21802    0.90004    0.99814    1.000
    O680     O        0.11000    0.40040    0.46594    1.000
    O681     O        0.07542    0.37963    0.47893    1.000
    O682     O        0.98844    0.43870    0.40730    1.000
    O683     O        0.16312    0.39265    0.48722    1.000
    O684     O        0.15765    0.37263    0.52436    1.000
    O685     O        0.28588    0.42110    0.49486    1.000
    O686     O        0.36039    0.42907    0.45944    1.000
    C583     C        0.08600    0.39560    0.46457    1.000
    C584     C        0.07030    0.41120    0.44456    1.000
    C585     C        0.04280    0.40910    0.44320    1.000
    C586     C        0.17227    0.38418    0.50812    1.000
    C587     C        0.20049    0.38902    0.51608    1.000
    C588     C        0.21802    0.40004    0.49814    1.000
    O687     O        0.61000    0.90040    0.46594    1.000
    O688     O        0.57542    0.87963    0.47893    1.000
    O689     O        0.48844    0.93870    0.40730    1.000
    O690     O        0.66312    0.89265    0.48722    1.000
    O691     O        0.65765    0.87263    0.52436    1.000
    O692     O        0.78588    0.92110    0.49486    1.000
    O693     O        0.86039    0.92907    0.45944    1.000
    C589     C        0.58600    0.89560    0.46457    1.000
    C590     C        0.57030    0.91120    0.44456    1.000
    C591     C        0.54280    0.90910    0.44320    1.000
    C592     C        0.67227    0.88418    0.50812    1.000
    C593     C        0.70049    0.88902    0.51608    1.000
    C594     C        0.71802    0.90004    0.49814    1.000
    O694     O        0.61000    0.40040    0.96594    1.000
    O695     O        0.57542    0.37963    0.97893    1.000
    O696     O        0.48844    0.43870    0.90730    1.000
    O697     O        0.66312    0.39265    0.98722    1.000
    O698     O        0.65765    0.37263    0.02436    1.000
    O699     O        0.78588    0.42110    0.99486    1.000
    O700     O        0.86039    0.42907    0.95944    1.000
    C595     C        0.58600    0.39560    0.96457    1.000
    C596     C        0.57030    0.41120    0.94456    1.000
    C597     C        0.54280    0.40910    0.94320    1.000
    C598     C        0.67227    0.38418    0.00812    1.000
    C599     C        0.70049    0.38902    0.01608    1.000
    C600     C        0.71802    0.40004    0.99814    1.000
    O701     O        0.14000    0.84960    0.46594    1.000
    O702     O        0.17458    0.87037    0.47893    1.000
    O703     O        0.26156    0.81130    0.40730    1.000
    O704     O        0.08688    0.85735    0.48722    1.000
    O705     O        0.09235    0.87737    0.52436    1.000
    O706     O        0.96412    0.82890    0.49486    1.000
    O707     O        0.88961    0.82093    0.45944    1.000
    C601     C        0.16400    0.85440    0.46457    1.000
    C602     C        0.17970    0.83880    0.44456    1.000
    C603     C        0.20720    0.84090    0.44320    1.000
    C604     C        0.07773    0.86582    0.50812    1.000
    C605     C        0.04951    0.86098    0.51608    1.000
    C606     C        0.03198    0.84996    0.49814    1.000
    O708     O        0.14000    0.34960    0.96594    1.000
    O709     O        0.17458    0.37037    0.97893    1.000
    O710     O        0.26156    0.31130    0.90730    1.000
    O711     O        0.08688    0.35735    0.98722    1.000
    O712     O        0.09235    0.37737    0.02436    1.000
    O713     O        0.96412    0.32890    0.99486    1.000
    O714     O        0.88961    0.32093    0.95944    1.000
    C607     C        0.16400    0.35440    0.96457    1.000
    C608     C        0.17970    0.33880    0.94456    1.000
    C609     C        0.20720    0.34090    0.94320    1.000
    C610     C        0.07773    0.36582    0.00812    1.000
    C611     C        0.04951    0.36098    0.01608    1.000
    C612     C        0.03198    0.34996    0.99814    1.000
    O715     O        0.64000    0.84960    0.96594    1.000
    O716     O        0.67458    0.87037    0.97893    1.000
    O717     O        0.76156    0.81130    0.90730    1.000
    O718     O        0.58688    0.85735    0.98722    1.000
    O719     O        0.59235    0.87737    0.02436    1.000
    O720     O        0.46412    0.82890    0.99486    1.000
    O721     O        0.38961    0.82093    0.95944    1.000
    C613     C        0.66400    0.85440    0.96457    1.000
    C614     C        0.67970    0.83880    0.94456    1.000
    C615     C        0.70720    0.84090    0.94320    1.000
    C616     C        0.57773    0.86582    0.00812    1.000
    C617     C        0.54951    0.86098    0.01608    1.000
    C618     C        0.53198    0.84996    0.99814    1.000
    O722     O        0.64000    0.34960    0.46594    1.000
    O723     O        0.67458    0.37037    0.47893    1.000
    O724     O        0.76156    0.31130    0.40730    1.000
    O725     O        0.58688    0.35735    0.48722    1.000
    O726     O        0.59235    0.37737    0.52436    1.000
    O727     O        0.46412    0.32890    0.49486    1.000
    O728     O        0.38961    0.32093    0.45944    1.000
    C619     C        0.66400    0.35440    0.46457    1.000
    C620     C        0.67970    0.33880    0.44456    1.000
    C621     C        0.70720    0.34090    0.44320    1.000
    C622     C        0.57773    0.36582    0.50812    1.000
    C623     C        0.54951    0.36098    0.51608    1.000
    C624     C        0.53198    0.34996    0.49814    1.000
    O729     O        0.64000    0.40040    0.28406    1.000
    O730     O        0.67458    0.37963    0.27107    1.000
    O731     O        0.76156    0.43870    0.34270    1.000
    O732     O        0.58688    0.39265    0.26278    1.000
    O733     O        0.59235    0.37263    0.22564    1.000
    O734     O        0.46412    0.42110    0.25514    1.000
    O735     O        0.38961    0.42907    0.29056    1.000
    C625     C        0.66400    0.39560    0.28543    1.000
    C626     C        0.67970    0.41120    0.30544    1.000
    C627     C        0.70720    0.40910    0.30680    1.000
    C628     C        0.57773    0.38418    0.24188    1.000
    C629     C        0.54951    0.38902    0.23392    1.000
    C630     C        0.53198    0.40004    0.25186    1.000
    O736     O        0.64000    0.90040    0.78406    1.000
    O737     O        0.67458    0.87963    0.77107    1.000
    O738     O        0.76156    0.93870    0.84270    1.000
    O739     O        0.58688    0.89265    0.76278    1.000
    O740     O        0.59235    0.87263    0.72564    1.000
    O741     O        0.46412    0.92110    0.75514    1.000
    O742     O        0.38961    0.92907    0.79056    1.000
    C631     C        0.66400    0.89560    0.78543    1.000
    C632     C        0.67970    0.91120    0.80544    1.000
    C633     C        0.70720    0.90910    0.80680    1.000
    C634     C        0.57773    0.88418    0.74188    1.000
    C635     C        0.54951    0.88902    0.73392    1.000
    C636     C        0.53198    0.90004    0.75186    1.000
    O743     O        0.14000    0.40040    0.78406    1.000
    O744     O        0.17458    0.37963    0.77107    1.000
    O745     O        0.26156    0.43870    0.84270    1.000
    O746     O        0.08688    0.39265    0.76278    1.000
    O747     O        0.09235    0.37263    0.72564    1.000
    O748     O        0.96412    0.42110    0.75514    1.000
    O749     O        0.88961    0.42907    0.79056    1.000
    C637     C        0.16400    0.39560    0.78543    1.000
    C638     C        0.17970    0.41120    0.80544    1.000
    C639     C        0.20720    0.40910    0.80680    1.000
    C640     C        0.07773    0.38418    0.74188    1.000
    C641     C        0.04951    0.38902    0.73392    1.000
    C642     C        0.03198    0.40004    0.75186    1.000
    O750     O        0.14000    0.90040    0.28406    1.000
    O751     O        0.17458    0.87963    0.27107    1.000
    O752     O        0.26156    0.93870    0.34270    1.000
    O753     O        0.08688    0.89265    0.26278    1.000
    O754     O        0.09235    0.87263    0.22564    1.000
    O755     O        0.96412    0.92110    0.25514    1.000
    O756     O        0.88961    0.92907    0.29056    1.000
    C643     C        0.16400    0.89560    0.28543    1.000
    C644     C        0.17970    0.91120    0.30544    1.000
    C645     C        0.20720    0.90910    0.30680    1.000
    C646     C        0.07773    0.88418    0.24188    1.000
    C647     C        0.04951    0.88902    0.23392    1.000
    C648     C        0.03198    0.90004    0.25186    1.000
    O757     O        0.61000    0.34960    0.78406    1.000
    O758     O        0.57542    0.37037    0.77107    1.000
    O759     O        0.48844    0.31130    0.84270    1.000
    O760     O        0.66312    0.35735    0.76278    1.000
    O761     O        0.65765    0.37737    0.72564    1.000
    O762     O        0.78588    0.32890    0.75514    1.000
    O763     O        0.86039    0.32093    0.79056    1.000
    C649     C        0.58600    0.35440    0.78543    1.000
    C650     C        0.57030    0.33880    0.80544    1.000
    C651     C        0.54280    0.34090    0.80680    1.000
    C652     C        0.67227    0.36582    0.74188    1.000
    C653     C        0.70049    0.36098    0.73392    1.000
    C654     C        0.71802    0.34996    0.75186    1.000
    O764     O        0.61000    0.84960    0.28406    1.000
    O765     O        0.57542    0.87037    0.27107    1.000
    O766     O        0.48844    0.81130    0.34270    1.000
    O767     O        0.66312    0.85735    0.26278    1.000
    O768     O        0.65765    0.87737    0.22564    1.000
    O769     O        0.78588    0.82890    0.25514    1.000
    O770     O        0.86039    0.82093    0.29056    1.000
    C655     C        0.58600    0.85440    0.28543    1.000
    C656     C        0.57030    0.83880    0.30544    1.000
    C657     C        0.54280    0.84090    0.30680    1.000
    C658     C        0.67227    0.86582    0.24188    1.000
    C659     C        0.70049    0.86098    0.23392    1.000
    C660     C        0.71802    0.84996    0.25186    1.000
    O771     O        0.11000    0.34960    0.28406    1.000
    O772     O        0.07542    0.37037    0.27107    1.000
    O773     O        0.98844    0.31130    0.34270    1.000
    O774     O        0.16312    0.35735    0.26278    1.000
    O775     O        0.15765    0.37737    0.22564    1.000
    O776     O        0.28588    0.32890    0.25514    1.000
    O777     O        0.36039    0.32093    0.29056    1.000
    C661     C        0.08600    0.35440    0.28543    1.000
    C662     C        0.07030    0.33880    0.30544    1.000
    C663     C        0.04280    0.34090    0.30680    1.000
    C664     C        0.17227    0.36582    0.24188    1.000
    C665     C        0.20049    0.36098    0.23392    1.000
    C666     C        0.21802    0.34996    0.25186    1.000
    O778     O        0.11000    0.84960    0.78406    1.000
    O779     O        0.07542    0.87037    0.77107    1.000
    O780     O        0.98844    0.81130    0.84270    1.000
    O781     O        0.16312    0.85735    0.76278    1.000
    O782     O        0.15765    0.87737    0.72564    1.000
    O783     O        0.28588    0.82890    0.75514    1.000
    O784     O        0.36039    0.82093    0.79056    1.000
    C667     C        0.08600    0.85440    0.78543    1.000
    C668     C        0.07030    0.83880    0.80544    1.000
    C669     C        0.04280    0.84090    0.80680    1.000
    C670     C        0.17227    0.86582    0.74188    1.000
    C671     C        0.20049    0.86098    0.73392    1.000
    C672     C        0.21802    0.84996    0.75186    1.000
    O785     O        0.96594    0.11000    0.90040    1.000
    O786     O        0.97893    0.07542    0.87963    1.000
    O787     O        0.90730    0.98844    0.93870    1.000
    O788     O        0.98722    0.16312    0.89265    1.000
    O789     O        0.02436    0.15765    0.87263    1.000
    O790     O        0.99486    0.28588    0.92110    1.000
    O791     O        0.95944    0.36039    0.92907    1.000
    C673     C        0.96457    0.08600    0.89560    1.000
    C674     C        0.94456    0.07030    0.91120    1.000
    C675     C        0.94320    0.04280    0.90910    1.000
    C676     C        0.00812    0.17227    0.88418    1.000
    C677     C        0.01608    0.20049    0.88902    1.000
    C678     C        0.99814    0.21802    0.90004    1.000
    O792     O        0.96594    0.61000    0.40040    1.000
    O793     O        0.97893    0.57542    0.37963    1.000
    O794     O        0.90730    0.48844    0.43870    1.000
    O795     O        0.98722    0.66312    0.39265    1.000
    O796     O        0.02436    0.65765    0.37263    1.000
    O797     O        0.99486    0.78588    0.42110    1.000
    O798     O        0.95944    0.86039    0.42907    1.000
    C679     C        0.96457    0.58600    0.39560    1.000
    C680     C        0.94456    0.57030    0.41120    1.000
    C681     C        0.94320    0.54280    0.40910    1.000
    C682     C        0.00812    0.67227    0.38418    1.000
    C683     C        0.01608    0.70049    0.38902    1.000
    C684     C        0.99814    0.71802    0.40004    1.000
    O799     O        0.46594    0.11000    0.40040    1.000
    O800     O        0.47893    0.07542    0.37963    1.000
    O801     O        0.40730    0.98844    0.43870    1.000
    O802     O        0.48722    0.16312    0.39265    1.000
    O803     O        0.52436    0.15765    0.37263    1.000
    O804     O        0.49486    0.28588    0.42110    1.000
    O805     O        0.45944    0.36039    0.42907    1.000
    C685     C        0.46457    0.08600    0.39560    1.000
    C686     C        0.44456    0.07030    0.41120    1.000
    C687     C        0.44320    0.04280    0.40910    1.000
    C688     C        0.50812    0.17227    0.38418    1.000
    C689     C        0.51608    0.20049    0.38902    1.000
    C690     C        0.49814    0.21802    0.40004    1.000
    O806     O        0.46594    0.61000    0.90040    1.000
    O807     O        0.47893    0.57542    0.87963    1.000
    O808     O        0.40730    0.48844    0.93870    1.000
    O809     O        0.48722    0.66312    0.89265    1.000
    O810     O        0.52436    0.65765    0.87263    1.000
    O811     O        0.49486    0.78588    0.92110    1.000
    O812     O        0.45944    0.86039    0.92907    1.000
    C691     C        0.46457    0.58600    0.89560    1.000
    C692     C        0.44456    0.57030    0.91120    1.000
    C693     C        0.44320    0.54280    0.90910    1.000
    C694     C        0.50812    0.67227    0.88418    1.000
    C695     C        0.51608    0.70049    0.88902    1.000
    C696     C        0.49814    0.71802    0.90004    1.000
    O813     O        0.46594    0.14000    0.84960    1.000
    O814     O        0.47893    0.17458    0.87037    1.000
    O815     O        0.40730    0.26156    0.81130    1.000
    O816     O        0.48722    0.08688    0.85735    1.000
    O817     O        0.52436    0.09235    0.87737    1.000
    O818     O        0.49486    0.96412    0.82890    1.000
    O819     O        0.45944    0.88961    0.82093    1.000
    C697     C        0.46457    0.16400    0.85440    1.000
    C698     C        0.44456    0.17970    0.83880    1.000
    C699     C        0.44320    0.20720    0.84090    1.000
    C700     C        0.50812    0.07773    0.86582    1.000
    C701     C        0.51608    0.04951    0.86098    1.000
    C702     C        0.49814    0.03198    0.84996    1.000
    O820     O        0.46594    0.64000    0.34960    1.000
    O821     O        0.47893    0.67458    0.37037    1.000
    O822     O        0.40730    0.76156    0.31130    1.000
    O823     O        0.48722    0.58688    0.35735    1.000
    O824     O        0.52436    0.59235    0.37737    1.000
    O825     O        0.49486    0.46412    0.32890    1.000
    O826     O        0.45944    0.38961    0.32093    1.000
    C703     C        0.46457    0.66400    0.35440    1.000
    C704     C        0.44456    0.67970    0.33880    1.000
    C705     C        0.44320    0.70720    0.34090    1.000
    C706     C        0.50812    0.57773    0.36582    1.000
    C707     C        0.51608    0.54951    0.36098    1.000
    C708     C        0.49814    0.53198    0.34996    1.000
    O827     O        0.96594    0.14000    0.34960    1.000
    O828     O        0.97893    0.17458    0.37037    1.000
    O829     O        0.90730    0.26156    0.31130    1.000
    O830     O        0.98722    0.08688    0.35735    1.000
    O831     O        0.02436    0.09235    0.37737    1.000
    O832     O        0.99486    0.96412    0.32890    1.000
    O833     O        0.95944    0.88961    0.32093    1.000
    C709     C        0.96457    0.16400    0.35440    1.000
    C710     C        0.94456    0.17970    0.33880    1.000
    C711     C        0.94320    0.20720    0.34090    1.000
    C712     C        0.00812    0.07773    0.36582    1.000
    C713     C        0.01608    0.04951    0.36098    1.000
    C714     C        0.99814    0.03198    0.34996    1.000
    O834     O        0.96594    0.64000    0.84960    1.000
    O835     O        0.97893    0.67458    0.87037    1.000
    O836     O        0.90730    0.76156    0.81130    1.000
    O837     O        0.98722    0.58688    0.85735    1.000
    O838     O        0.02436    0.59235    0.87737    1.000
    O839     O        0.99486    0.46412    0.82890    1.000
    O840     O        0.95944    0.38961    0.82093    1.000
    C715     C        0.96457    0.66400    0.85440    1.000
    C716     C        0.94456    0.67970    0.83880    1.000
    C717     C        0.94320    0.70720    0.84090    1.000
    C718     C        0.00812    0.57773    0.86582    1.000
    C719     C        0.01608    0.54951    0.86098    1.000
    C720     C        0.99814    0.53198    0.84996    1.000
    O841     O        0.28406    0.64000    0.40040    1.000
    O842     O        0.27107    0.67458    0.37963    1.000
    O843     O        0.34270    0.76156    0.43870    1.000
    O844     O        0.26278    0.58688    0.39265    1.000
    O845     O        0.22564    0.59235    0.37263    1.000
    O846     O        0.25514    0.46412    0.42110    1.000
    O847     O        0.29056    0.38961    0.42907    1.000
    C721     C        0.28543    0.66400    0.39560    1.000
    C722     C        0.30544    0.67970    0.41120    1.000
    C723     C        0.30680    0.70720    0.40910    1.000
    C724     C        0.24188    0.57773    0.38418    1.000
    C725     C        0.23392    0.54951    0.38902    1.000
    C726     C        0.25186    0.53198    0.40004    1.000
    O848     O        0.28406    0.14000    0.90040    1.000
    O849     O        0.27107    0.17458    0.87963    1.000
    O850     O        0.34270    0.26156    0.93870    1.000
    O851     O        0.26278    0.08688    0.89265    1.000
    O852     O        0.22564    0.09235    0.87263    1.000
    O853     O        0.25514    0.96412    0.92110    1.000
    O854     O        0.29056    0.88961    0.92907    1.000
    C727     C        0.28543    0.16400    0.89560    1.000
    C728     C        0.30544    0.17970    0.91120    1.000
    C729     C        0.30680    0.20720    0.90910    1.000
    C730     C        0.24188    0.07773    0.88418    1.000
    C731     C        0.23392    0.04951    0.88902    1.000
    C732     C        0.25186    0.03198    0.90004    1.000
    O855     O        0.78406    0.64000    0.90040    1.000
    O856     O        0.77107    0.67458    0.87963    1.000
    O857     O        0.84270    0.76156    0.93870    1.000
    O858     O        0.76278    0.58688    0.89265    1.000
    O859     O        0.72564    0.59235    0.87263    1.000
    O860     O        0.75514    0.46412    0.92110    1.000
    O861     O        0.79056    0.38961    0.92907    1.000
    C733     C        0.78543    0.66400    0.89560    1.000
    C734     C        0.80544    0.67970    0.91120    1.000
    C735     C        0.80680    0.70720    0.90910    1.000
    C736     C        0.74188    0.57773    0.88418    1.000
    C737     C        0.73392    0.54951    0.88902    1.000
    C738     C        0.75186    0.53198    0.90004    1.000
    O862     O        0.78406    0.14000    0.40040    1.000
    O863     O        0.77107    0.17458    0.37963    1.000
    O864     O        0.84270    0.26156    0.43870    1.000
    O865     O        0.76278    0.08688    0.39265    1.000
    O866     O        0.72564    0.09235    0.37263    1.000
    O867     O        0.75514    0.96412    0.42110    1.000
    O868     O        0.79056    0.88961    0.42907    1.000
    C739     C        0.78543    0.16400    0.39560    1.000
    C740     C        0.80544    0.17970    0.41120    1.000
    C741     C        0.80680    0.20720    0.40910    1.000
    C742     C        0.74188    0.07773    0.38418    1.000
    C743     C        0.73392    0.04951    0.38902    1.000
    C744     C        0.75186    0.03198    0.40004    1.000
    O869     O        0.78406    0.61000    0.34960    1.000
    O870     O        0.77107    0.57542    0.37037    1.000
    O871     O        0.84270    0.48844    0.31130    1.000
    O872     O        0.76278    0.66312    0.35735    1.000
    O873     O        0.72564    0.65765    0.37737    1.000
    O874     O        0.75514    0.78588    0.32890    1.000
    O875     O        0.79056    0.86039    0.32093    1.000
    C745     C        0.78543    0.58600    0.35440    1.000
    C746     C        0.80544    0.57030    0.33880    1.000
    C747     C        0.80680    0.54280    0.34090    1.000
    C748     C        0.74188    0.67227    0.36582    1.000
    C749     C        0.73392    0.70049    0.36098    1.000
    C750     C        0.75186    0.71802    0.34996    1.000
    O876     O        0.78406    0.11000    0.84960    1.000
    O877     O        0.77107    0.07542    0.87037    1.000
    O878     O        0.84270    0.98844    0.81130    1.000
    O879     O        0.76278    0.16312    0.85735    1.000
    O880     O        0.72564    0.15765    0.87737    1.000
    O881     O        0.75514    0.28588    0.82890    1.000
    O882     O        0.79056    0.36039    0.82093    1.000
    C751     C        0.78543    0.08600    0.85440    1.000
    C752     C        0.80544    0.07030    0.83880    1.000
    C753     C        0.80680    0.04280    0.84090    1.000
    C754     C        0.74188    0.17227    0.86582    1.000
    C755     C        0.73392    0.20049    0.86098    1.000
    C756     C        0.75186    0.21802    0.84996    1.000
    O883     O        0.28406    0.61000    0.84960    1.000
    O884     O        0.27107    0.57542    0.87037    1.000
    O885     O        0.34270    0.48844    0.81130    1.000
    O886     O        0.26278    0.66312    0.85735    1.000
    O887     O        0.22564    0.65765    0.87737    1.000
    O888     O        0.25514    0.78588    0.82890    1.000
    O889     O        0.29056    0.86039    0.82093    1.000
    C757     C        0.28543    0.58600    0.85440    1.000
    C758     C        0.30544    0.57030    0.83880    1.000
    C759     C        0.30680    0.54280    0.84090    1.000
    C760     C        0.24188    0.67227    0.86582    1.000
    C761     C        0.23392    0.70049    0.86098    1.000
    C762     C        0.25186    0.71802    0.84996    1.000
    O890     O        0.28406    0.11000    0.34960    1.000
    O891     O        0.27107    0.07542    0.37037    1.000
    O892     O        0.34270    0.98844    0.31130    1.000
    O893     O        0.26278    0.16312    0.35735    1.000
    O894     O        0.22564    0.15765    0.37737    1.000
    O895     O        0.25514    0.28588    0.32890    1.000
    O896     O        0.29056    0.36039    0.32093    1.000
    C763     C        0.28543    0.08600    0.35440    1.000
    C764     C        0.30544    0.07030    0.33880    1.000
    C765     C        0.30680    0.04280    0.34090    1.000
    C766     C        0.24188    0.17227    0.36582    1.000
    C767     C        0.23392    0.20049    0.36098    1.000
    C768     C        0.25186    0.21802    0.34996    1.000
    O897     O        0.90040    0.96594    0.11000    1.000
    O898     O        0.87963    0.97893    0.07542    1.000
    O899     O        0.93870    0.90730    0.98844    1.000
    O900     O        0.89265    0.98722    0.16312    1.000
    O901     O        0.87263    0.02436    0.15765    1.000
    O902     O        0.92110    0.99486    0.28588    1.000
    O903     O        0.92907    0.95944    0.36039    1.000
    C769     C        0.89560    0.96457    0.08600    1.000
    C770     C        0.91120    0.94456    0.07030    1.000
    C771     C        0.90910    0.94320    0.04280    1.000
    C772     C        0.88418    0.00812    0.17227    1.000
    C773     C        0.88902    0.01608    0.20049    1.000
    C774     C        0.90004    0.99814    0.21802    1.000
    O904     O        0.90040    0.46594    0.61000    1.000
    O905     O        0.87963    0.47893    0.57542    1.000
    O906     O        0.93870    0.40730    0.48844    1.000
    O907     O        0.89265    0.48722    0.66312    1.000
    O908     O        0.87263    0.52436    0.65765    1.000
    O909     O        0.92110    0.49486    0.78588    1.000
    O910     O        0.92907    0.45944    0.86039    1.000
    C775     C        0.89560    0.46457    0.58600    1.000
    C776     C        0.91120    0.44456    0.57030    1.000
    C777     C        0.90910    0.44320    0.54280    1.000
    C778     C        0.88418    0.50812    0.67227    1.000
    C779     C        0.88902    0.51608    0.70049    1.000
    C780     C        0.90004    0.49814    0.71802    1.000
    O911     O        0.40040    0.96594    0.61000    1.000
    O912     O        0.37963    0.97893    0.57542    1.000
    O913     O        0.43870    0.90730    0.48844    1.000
    O914     O        0.39265    0.98722    0.66312    1.000
    O915     O        0.37263    0.02436    0.65765    1.000
    O916     O        0.42110    0.99486    0.78588    1.000
    O917     O        0.42907    0.95944    0.86039    1.000
    C781     C        0.39560    0.96457    0.58600    1.000
    C782     C        0.41120    0.94456    0.57030    1.000
    C783     C        0.40910    0.94320    0.54280    1.000
    C784     C        0.38418    0.00812    0.67227    1.000
    C785     C        0.38902    0.01608    0.70049    1.000
    C786     C        0.40004    0.99814    0.71802    1.000
    O918     O        0.40040    0.46594    0.11000    1.000
    O919     O        0.37963    0.47893    0.07542    1.000
    O920     O        0.43870    0.40730    0.98844    1.000
    O921     O        0.39265    0.48722    0.16312    1.000
    O922     O        0.37263    0.52436    0.15765    1.000
    O923     O        0.42110    0.49486    0.28588    1.000
    O924     O        0.42907    0.45944    0.36039    1.000
    C787     C        0.39560    0.46457    0.08600    1.000
    C788     C        0.41120    0.44456    0.07030    1.000
    C789     C        0.40910    0.44320    0.04280    1.000
    C790     C        0.38418    0.50812    0.17227    1.000
    C791     C        0.38902    0.51608    0.20049    1.000
    C792     C        0.40004    0.49814    0.21802    1.000
    O925     O        0.84960    0.46594    0.14000    1.000
    O926     O        0.87037    0.47893    0.17458    1.000
    O927     O        0.81130    0.40730    0.26156    1.000
    O928     O        0.85735    0.48722    0.08688    1.000
    O929     O        0.87737    0.52436    0.09235    1.000
    O930     O        0.82890    0.49486    0.96412    1.000
    O931     O        0.82093    0.45944    0.88961    1.000
    C793     C        0.85440    0.46457    0.16400    1.000
    C794     C        0.83880    0.44456    0.17970    1.000
    C795     C        0.84090    0.44320    0.20720    1.000
    C796     C        0.86582    0.50812    0.07773    1.000
    C797     C        0.86098    0.51608    0.04951    1.000
    C798     C        0.84996    0.49814    0.03198    1.000
    O932     O        0.84960    0.96594    0.64000    1.000
    O933     O        0.87037    0.97893    0.67458    1.000
    O934     O        0.81130    0.90730    0.76156    1.000
    O935     O        0.85735    0.98722    0.58688    1.000
    O936     O        0.87737    0.02436    0.59235    1.000
    O937     O        0.82890    0.99486    0.46412    1.000
    O938     O        0.82093    0.95944    0.38961    1.000
    C799     C        0.85440    0.96457    0.66400    1.000
    C800     C        0.83880    0.94456    0.67970    1.000
    C801     C        0.84090    0.94320    0.70720    1.000
    C802     C        0.86582    0.00812    0.57773    1.000
    C803     C        0.86098    0.01608    0.54951    1.000
    C804     C        0.84996    0.99814    0.53198    1.000
    O939     O        0.34960    0.46594    0.64000    1.000
    O940     O        0.37037    0.47893    0.67458    1.000
    O941     O        0.31130    0.40730    0.76156    1.000
    O942     O        0.35735    0.48722    0.58688    1.000
    O943     O        0.37737    0.52436    0.59235    1.000
    O944     O        0.32890    0.49486    0.46412    1.000
    O945     O        0.32093    0.45944    0.38961    1.000
    C805     C        0.35440    0.46457    0.66400    1.000
    C806     C        0.33880    0.44456    0.67970    1.000
    C807     C        0.34090    0.44320    0.70720    1.000
    C808     C        0.36582    0.50812    0.57773    1.000
    C809     C        0.36098    0.51608    0.54951    1.000
    C810     C        0.34996    0.49814    0.53198    1.000
    O946     O        0.34960    0.96594    0.14000    1.000
    O947     O        0.37037    0.97893    0.17458    1.000
    O948     O        0.31130    0.90730    0.26156    1.000
    O949     O        0.35735    0.98722    0.08688    1.000
    O950     O        0.37737    0.02436    0.09235    1.000
    O951     O        0.32890    0.99486    0.96412    1.000
    O952     O        0.32093    0.95944    0.88961    1.000
    C811     C        0.35440    0.96457    0.16400    1.000
    C812     C        0.33880    0.94456    0.17970    1.000
    C813     C        0.34090    0.94320    0.20720    1.000
    C814     C        0.36582    0.00812    0.07773    1.000
    C815     C        0.36098    0.01608    0.04951    1.000
    C816     C        0.34996    0.99814    0.03198    1.000
    O953     O        0.40040    0.28406    0.64000    1.000
    O954     O        0.37963    0.27107    0.67458    1.000
    O955     O        0.43870    0.34270    0.76156    1.000
    O956     O        0.39265    0.26278    0.58688    1.000
    O957     O        0.37263    0.22564    0.59235    1.000
    O958     O        0.42110    0.25514    0.46412    1.000
    O959     O        0.42907    0.29056    0.38961    1.000
    C817     C        0.39560    0.28543    0.66400    1.000
    C818     C        0.41120    0.30544    0.67970    1.000
    C819     C        0.40910    0.30680    0.70720    1.000
    C820     C        0.38418    0.24188    0.57773    1.000
    C821     C        0.38902    0.23392    0.54951    1.000
    C822     C        0.40004    0.25186    0.53198    1.000
    O960     O        0.40040    0.78406    0.14000    1.000
    O961     O        0.37963    0.77107    0.17458    1.000
    O962     O        0.43870    0.84270    0.26156    1.000
    O963     O        0.39265    0.76278    0.08688    1.000
    O964     O        0.37263    0.72564    0.09235    1.000
    O965     O        0.42110    0.75514    0.96412    1.000
    O966     O        0.42907    0.79056    0.88961    1.000
    C823     C        0.39560    0.78543    0.16400    1.000
    C824     C        0.41120    0.80544    0.17970    1.000
    C825     C        0.40910    0.80680    0.20720    1.000
    C826     C        0.38418    0.74188    0.07773    1.000
    C827     C        0.38902    0.73392    0.04951    1.000
    C828     C        0.40004    0.75186    0.03198    1.000
    O967     O        0.90040    0.28406    0.14000    1.000
    O968     O        0.87963    0.27107    0.17458    1.000
    O969     O        0.93870    0.34270    0.26156    1.000
    O970     O        0.89265    0.26278    0.08688    1.000
    O971     O        0.87263    0.22564    0.09235    1.000
    O972     O        0.92110    0.25514    0.96412    1.000
    O973     O        0.92907    0.29056    0.88961    1.000
    C829     C        0.89560    0.28543    0.16400    1.000
    C830     C        0.91120    0.30544    0.17970    1.000
    C831     C        0.90910    0.30680    0.20720    1.000
    C832     C        0.88418    0.24188    0.07773    1.000
    C833     C        0.88902    0.23392    0.04951    1.000
    C834     C        0.90004    0.25186    0.03198    1.000
    O974     O        0.90040    0.78406    0.64000    1.000
    O975     O        0.87963    0.77107    0.67458    1.000
    O976     O        0.93870    0.84270    0.76156    1.000
    O977     O        0.89265    0.76278    0.58688    1.000
    O978     O        0.87263    0.72564    0.59235    1.000
    O979     O        0.92110    0.75514    0.46412    1.000
    O980     O        0.92907    0.79056    0.38961    1.000
    C835     C        0.89560    0.78543    0.66400    1.000
    C836     C        0.91120    0.80544    0.67970    1.000
    C837     C        0.90910    0.80680    0.70720    1.000
    C838     C        0.88418    0.74188    0.57773    1.000
    C839     C        0.88902    0.73392    0.54951    1.000
    C840     C        0.90004    0.75186    0.53198    1.000
    O981     O        0.34960    0.78406    0.61000    1.000
    O982     O        0.37037    0.77107    0.57542    1.000
    O983     O        0.31130    0.84270    0.48844    1.000
    O984     O        0.35735    0.76278    0.66312    1.000
    O985     O        0.37737    0.72564    0.65765    1.000
    O986     O        0.32890    0.75514    0.78588    1.000
    O987     O        0.32093    0.79056    0.86039    1.000
    C841     C        0.35440    0.78543    0.58600    1.000
    C842     C        0.33880    0.80544    0.57030    1.000
    C843     C        0.34090    0.80680    0.54280    1.000
    C844     C        0.36582    0.74188    0.67227    1.000
    C845     C        0.36098    0.73392    0.70049    1.000
    C846     C        0.34996    0.75186    0.71802    1.000
    O988     O        0.34960    0.28406    0.11000    1.000
    O989     O        0.37037    0.27107    0.07542    1.000
    O990     O        0.31130    0.34270    0.98844    1.000
    O991     O        0.35735    0.26278    0.16312    1.000
    O992     O        0.37737    0.22564    0.15765    1.000
    O993     O        0.32890    0.25514    0.28588    1.000
    O994     O        0.32093    0.29056    0.36039    1.000
    C847     C        0.35440    0.28543    0.08600    1.000
    C848     C        0.33880    0.30544    0.07030    1.000
    C849     C        0.34090    0.30680    0.04280    1.000
    C850     C        0.36582    0.24188    0.17227    1.000
    C851     C        0.36098    0.23392    0.20049    1.000
    C852     C        0.34996    0.25186    0.21802    1.000
    O995     O        0.84960    0.78406    0.11000    1.000
    O996     O        0.87037    0.77107    0.07542    1.000
    O997     O        0.81130    0.84270    0.98844    1.000
    O998     O        0.85735    0.76278    0.16312    1.000
    O999     O        0.87737    0.72564    0.15765    1.000
    O1000    O        0.82890    0.75514    0.28588    1.000
    O1001    O        0.82093    0.79056    0.36039    1.000
    C853     C        0.85440    0.78543    0.08600    1.000
    C854     C        0.83880    0.80544    0.07030    1.000
    C855     C        0.84090    0.80680    0.04280    1.000
    C856     C        0.86582    0.74188    0.17227    1.000
    C857     C        0.86098    0.73392    0.20049    1.000
    C858     C        0.84996    0.75186    0.21802    1.000
    O1002    O        0.84960    0.28406    0.61000    1.000
    O1003    O        0.87037    0.27107    0.57542    1.000
    O1004    O        0.81130    0.34270    0.48844    1.000
    O1005    O        0.85735    0.26278    0.66312    1.000
    O1006    O        0.87737    0.22564    0.65765    1.000
    O1007    O        0.82890    0.25514    0.78588    1.000
    O1008    O        0.82093    0.29056    0.86039    1.000
    C859     C        0.85440    0.28543    0.58600    1.000
    C860     C        0.83880    0.30544    0.57030    1.000
    C861     C        0.84090    0.30680    0.54280    1.000
    C862     C        0.86582    0.24188    0.67227    1.000
    C863     C        0.86098    0.23392    0.70049    1.000
    C864     C        0.84996    0.25186    0.71802    1.000
    O1009    O        0.15040    0.86000    0.53406    1.000
    O1010    O        0.12963    0.82542    0.52107    1.000
    O1011    O        0.18870    0.73844    0.59270    1.000
    O1012    O        0.14265    0.91312    0.51278    1.000
    O1013    O        0.12263    0.90765    0.47564    1.000
    O1014    O        0.17110    0.03588    0.50514    1.000
    O1015    O        0.17907    0.11039    0.54056    1.000
    C865     C        0.14560    0.83600    0.53543    1.000
    C866     C        0.16120    0.82030    0.55544    1.000
    C867     C        0.15910    0.79280    0.55680    1.000
    C868     C        0.13418    0.92227    0.49188    1.000
    C869     C        0.13902    0.95049    0.48392    1.000
    C870     C        0.15004    0.96802    0.50186    1.000
    O1016    O        0.15040    0.36000    0.03406    1.000
    O1017    O        0.12963    0.32542    0.02107    1.000
    O1018    O        0.18870    0.23844    0.09270    1.000
    O1019    O        0.14265    0.41312    0.01278    1.000
    O1020    O        0.12263    0.40765    0.97564    1.000
    O1021    O        0.17110    0.53588    0.00514    1.000
    O1022    O        0.17907    0.61039    0.04056    1.000
    C871     C        0.14560    0.33600    0.03543    1.000
    C872     C        0.16120    0.32030    0.05544    1.000
    C873     C        0.15910    0.29280    0.05680    1.000
    C874     C        0.13418    0.42227    0.99188    1.000
    C875     C        0.13902    0.45049    0.98392    1.000
    C876     C        0.15004    0.46802    0.00186    1.000
    O1023    O        0.65040    0.86000    0.03406    1.000
    O1024    O        0.62963    0.82542    0.02107    1.000
    O1025    O        0.68870    0.73844    0.09270    1.000
    O1026    O        0.64265    0.91312    0.01278    1.000
    O1027    O        0.62263    0.90765    0.97564    1.000
    O1028    O        0.67110    0.03588    0.00514    1.000
    O1029    O        0.67907    0.11039    0.04056    1.000
    C877     C        0.64560    0.83600    0.03543    1.000
    C878     C        0.66120    0.82030    0.05544    1.000
    C879     C        0.65910    0.79280    0.05680    1.000
    C880     C        0.63418    0.92227    0.99188    1.000
    C881     C        0.63902    0.95049    0.98392    1.000
    C882     C        0.65004    0.96802    0.00186    1.000
    O1030    O        0.65040    0.36000    0.53406    1.000
    O1031    O        0.62963    0.32542    0.52107    1.000
    O1032    O        0.68870    0.23844    0.59270    1.000
    O1033    O        0.64265    0.41312    0.51278    1.000
    O1034    O        0.62263    0.40765    0.47564    1.000
    O1035    O        0.67110    0.53588    0.50514    1.000
    O1036    O        0.67907    0.61039    0.54056    1.000
    C883     C        0.64560    0.33600    0.53543    1.000
    C884     C        0.66120    0.32030    0.55544    1.000
    C885     C        0.65910    0.29280    0.55680    1.000
    C886     C        0.63418    0.42227    0.49188    1.000
    C887     C        0.63902    0.45049    0.48392    1.000
    C888     C        0.65004    0.46802    0.50186    1.000
    O1037    O        0.09960    0.89000    0.03406    1.000
    O1038    O        0.12037    0.92458    0.02107    1.000
    O1039    O        0.06130    0.01156    0.09270    1.000
    O1040    O        0.10735    0.83688    0.01278    1.000
    O1041    O        0.12737    0.84235    0.97564    1.000
    O1042    O        0.07890    0.71412    0.00514    1.000
    O1043    O        0.07093    0.63961    0.04056    1.000
    C889     C        0.10440    0.91400    0.03543    1.000
    C890     C        0.08880    0.92970    0.05544    1.000
    C891     C        0.09090    0.95720    0.05680    1.000
    C892     C        0.11582    0.82773    0.99188    1.000
    C893     C        0.11098    0.79951    0.98392    1.000
    C894     C        0.09996    0.78198    0.00186    1.000
    O1044    O        0.09960    0.39000    0.53406    1.000
    O1045    O        0.12037    0.42458    0.52107    1.000
    O1046    O        0.06130    0.51156    0.59270    1.000
    O1047    O        0.10735    0.33688    0.51278    1.000
    O1048    O        0.12737    0.34235    0.47564    1.000
    O1049    O        0.07890    0.21412    0.50514    1.000
    O1050    O        0.07093    0.13961    0.54056    1.000
    C895     C        0.10440    0.41400    0.53543    1.000
    C896     C        0.08880    0.42970    0.55544    1.000
    C897     C        0.09090    0.45720    0.55680    1.000
    C898     C        0.11582    0.32773    0.49188    1.000
    C899     C        0.11098    0.29951    0.48392    1.000
    C900     C        0.09996    0.28198    0.50186    1.000
    O1051    O        0.59960    0.89000    0.53406    1.000
    O1052    O        0.62037    0.92458    0.52107    1.000
    O1053    O        0.56130    0.01156    0.59270    1.000
    O1054    O        0.60735    0.83688    0.51278    1.000
    O1055    O        0.62737    0.84235    0.47564    1.000
    O1056    O        0.57890    0.71412    0.50514    1.000
    O1057    O        0.57093    0.63961    0.54056    1.000
    C901     C        0.60440    0.91400    0.53543    1.000
    C902     C        0.58880    0.92970    0.55544    1.000
    C903     C        0.59090    0.95720    0.55680    1.000
    C904     C        0.61582    0.82773    0.49188    1.000
    C905     C        0.61098    0.79951    0.48392    1.000
    C906     C        0.59996    0.78198    0.50186    1.000
    O1058    O        0.59960    0.39000    0.03406    1.000
    O1059    O        0.62037    0.42458    0.02107    1.000
    O1060    O        0.56130    0.51156    0.09270    1.000
    O1061    O        0.60735    0.33688    0.01278    1.000
    O1062    O        0.62737    0.34235    0.97564    1.000
    O1063    O        0.57890    0.21412    0.00514    1.000
    O1064    O        0.57093    0.13961    0.04056    1.000
    C907     C        0.60440    0.41400    0.03543    1.000
    C908     C        0.58880    0.42970    0.05544    1.000
    C909     C        0.59090    0.45720    0.05680    1.000
    C910     C        0.61582    0.32773    0.99188    1.000
    C911     C        0.61098    0.29951    0.98392    1.000
    C912     C        0.59996    0.28198    0.00186    1.000
    O1065    O        0.65040    0.39000    0.21594    1.000
    O1066    O        0.62963    0.42458    0.22893    1.000
    O1067    O        0.68870    0.51156    0.15730    1.000
    O1068    O        0.64265    0.33688    0.23722    1.000
    O1069    O        0.62263    0.34235    0.27436    1.000
    O1070    O        0.67110    0.21412    0.24486    1.000
    O1071    O        0.67907    0.13961    0.20944    1.000
    C913     C        0.64560    0.41400    0.21457    1.000
    C914     C        0.66120    0.42970    0.19456    1.000
    C915     C        0.65910    0.45720    0.19320    1.000
    C916     C        0.63418    0.32773    0.25812    1.000
    C917     C        0.63902    0.29951    0.26608    1.000
    C918     C        0.65004    0.28198    0.24814    1.000
    O1072    O        0.65040    0.89000    0.71594    1.000
    O1073    O        0.62963    0.92458    0.72893    1.000
    O1074    O        0.68870    0.01156    0.65730    1.000
    O1075    O        0.64265    0.83688    0.73722    1.000
    O1076    O        0.62263    0.84235    0.77436    1.000
    O1077    O        0.67110    0.71412    0.74486    1.000
    O1078    O        0.67907    0.63961    0.70944    1.000
    C919     C        0.64560    0.91400    0.71457    1.000
    C920     C        0.66120    0.92970    0.69456    1.000
    C921     C        0.65910    0.95720    0.69320    1.000
    C922     C        0.63418    0.82773    0.75812    1.000
    C923     C        0.63902    0.79951    0.76608    1.000
    C924     C        0.65004    0.78198    0.74814    1.000
    O1079    O        0.15040    0.39000    0.71594    1.000
    O1080    O        0.12963    0.42458    0.72893    1.000
    O1081    O        0.18870    0.51156    0.65730    1.000
    O1082    O        0.14265    0.33688    0.73722    1.000
    O1083    O        0.12263    0.34235    0.77436    1.000
    O1084    O        0.17110    0.21412    0.74486    1.000
    O1085    O        0.17907    0.13961    0.70944    1.000
    C925     C        0.14560    0.41400    0.71457    1.000
    C926     C        0.16120    0.42970    0.69456    1.000
    C927     C        0.15910    0.45720    0.69320    1.000
    C928     C        0.13418    0.32773    0.75812    1.000
    C929     C        0.13902    0.29951    0.76608    1.000
    C930     C        0.15004    0.28198    0.74814    1.000
    O1086    O        0.15040    0.89000    0.21594    1.000
    O1087    O        0.12963    0.92458    0.22893    1.000
    O1088    O        0.18870    0.01156    0.15730    1.000
    O1089    O        0.14265    0.83688    0.23722    1.000
    O1090    O        0.12263    0.84235    0.27436    1.000
    O1091    O        0.17110    0.71412    0.24486    1.000
    O1092    O        0.17907    0.63961    0.20944    1.000
    C931     C        0.14560    0.91400    0.21457    1.000
    C932     C        0.16120    0.92970    0.19456    1.000
    C933     C        0.15910    0.95720    0.19320    1.000
    C934     C        0.13418    0.82773    0.25812    1.000
    C935     C        0.13902    0.79951    0.26608    1.000
    C936     C        0.15004    0.78198    0.24814    1.000
    O1093    O        0.59960    0.36000    0.71594    1.000
    O1094    O        0.62037    0.32542    0.72893    1.000
    O1095    O        0.56130    0.23844    0.65730    1.000
    O1096    O        0.60735    0.41312    0.73722    1.000
    O1097    O        0.62737    0.40765    0.77436    1.000
    O1098    O        0.57890    0.53588    0.74486    1.000
    O1099    O        0.57093    0.61039    0.70944    1.000
    C937     C        0.60440    0.33600    0.71457    1.000
    C938     C        0.58880    0.32030    0.69456    1.000
    C939     C        0.59090    0.29280    0.69320    1.000
    C940     C        0.61582    0.42227    0.75812    1.000
    C941     C        0.61098    0.45049    0.76608    1.000
    C942     C        0.59996    0.46802    0.74814    1.000
    O1100    O        0.59960    0.86000    0.21594    1.000
    O1101    O        0.62037    0.82542    0.22893    1.000
    O1102    O        0.56130    0.73844    0.15730    1.000
    O1103    O        0.60735    0.91312    0.23722    1.000
    O1104    O        0.62737    0.90765    0.27436    1.000
    O1105    O        0.57890    0.03588    0.24486    1.000
    O1106    O        0.57093    0.11039    0.20944    1.000
    C943     C        0.60440    0.83600    0.21457    1.000
    C944     C        0.58880    0.82030    0.19456    1.000
    C945     C        0.59090    0.79280    0.19320    1.000
    C946     C        0.61582    0.92227    0.25812    1.000
    C947     C        0.61098    0.95049    0.26608    1.000
    C948     C        0.59996    0.96802    0.24814    1.000
    O1107    O        0.09960    0.36000    0.21594    1.000
    O1108    O        0.12037    0.32542    0.22893    1.000
    O1109    O        0.06130    0.23844    0.15730    1.000
    O1110    O        0.10735    0.41312    0.23722    1.000
    O1111    O        0.12737    0.40765    0.27436    1.000
    O1112    O        0.07890    0.53588    0.24486    1.000
    O1113    O        0.07093    0.61039    0.20944    1.000
    C949     C        0.10440    0.33600    0.21457    1.000
    C950     C        0.08880    0.32030    0.19456    1.000
    C951     C        0.09090    0.29280    0.19320    1.000
    C952     C        0.11582    0.42227    0.25812    1.000
    C953     C        0.11098    0.45049    0.26608    1.000
    C954     C        0.09996    0.46802    0.24814    1.000
    O1114    O        0.09960    0.86000    0.71594    1.000
    O1115    O        0.12037    0.82542    0.72893    1.000
    O1116    O        0.06130    0.73844    0.65730    1.000
    O1117    O        0.10735    0.91312    0.73722    1.000
    O1118    O        0.12737    0.90765    0.77436    1.000
    O1119    O        0.07890    0.03588    0.74486    1.000
    O1120    O        0.07093    0.11039    0.70944    1.000
    C955     C        0.10440    0.83600    0.71457    1.000
    C956     C        0.08880    0.82030    0.69456    1.000
    C957     C        0.09090    0.79280    0.69320    1.000
    C958     C        0.11582    0.92227    0.75812    1.000
    C959     C        0.11098    0.95049    0.76608    1.000
    C960     C        0.09996    0.96802    0.74814    1.000
    O1121    O        0.36000    0.71594    0.59960    1.000
    O1122    O        0.32542    0.72893    0.62037    1.000
    O1123    O        0.23844    0.65730    0.56130    1.000
    O1124    O        0.41312    0.73722    0.60735    1.000
    O1125    O        0.40765    0.77436    0.62737    1.000
    O1126    O        0.53588    0.74486    0.57890    1.000
    O1127    O        0.61039    0.70944    0.57093    1.000
    C961     C        0.33600    0.71457    0.60440    1.000
    C962     C        0.32030    0.69456    0.58880    1.000
    C963     C        0.29280    0.69320    0.59090    1.000
    C964     C        0.42227    0.75812    0.61582    1.000
    C965     C        0.45049    0.76608    0.61098    1.000
    C966     C        0.46802    0.74814    0.59996    1.000
    O1128    O        0.36000    0.21594    0.09960    1.000
    O1129    O        0.32542    0.22893    0.12037    1.000
    O1130    O        0.23844    0.15730    0.06130    1.000
    O1131    O        0.41312    0.23722    0.10735    1.000
    O1132    O        0.40765    0.27436    0.12737    1.000
    O1133    O        0.53588    0.24486    0.07890    1.000
    O1134    O        0.61039    0.20944    0.07093    1.000
    C967     C        0.33600    0.21457    0.10440    1.000
    C968     C        0.32030    0.19456    0.08880    1.000
    C969     C        0.29280    0.19320    0.09090    1.000
    C970     C        0.42227    0.25812    0.11582    1.000
    C971     C        0.45049    0.26608    0.11098    1.000
    C972     C        0.46802    0.24814    0.09996    1.000
    O1135    O        0.86000    0.71594    0.09960    1.000
    O1136    O        0.82542    0.72893    0.12037    1.000
    O1137    O        0.73844    0.65730    0.06130    1.000
    O1138    O        0.91312    0.73722    0.10735    1.000
    O1139    O        0.90765    0.77436    0.12737    1.000
    O1140    O        0.03588    0.74486    0.07890    1.000
    O1141    O        0.11039    0.70944    0.07093    1.000
    C973     C        0.83600    0.71457    0.10440    1.000
    C974     C        0.82030    0.69456    0.08880    1.000
    C975     C        0.79280    0.69320    0.09090    1.000
    C976     C        0.92227    0.75812    0.11582    1.000
    C977     C        0.95049    0.76608    0.11098    1.000
    C978     C        0.96802    0.74814    0.09996    1.000
    O1142    O        0.86000    0.21594    0.59960    1.000
    O1143    O        0.82542    0.22893    0.62037    1.000
    O1144    O        0.73844    0.15730    0.56130    1.000
    O1145    O        0.91312    0.23722    0.60735    1.000
    O1146    O        0.90765    0.27436    0.62737    1.000
    O1147    O        0.03588    0.24486    0.57890    1.000
    O1148    O        0.11039    0.20944    0.57093    1.000
    C979     C        0.83600    0.21457    0.60440    1.000
    C980     C        0.82030    0.19456    0.58880    1.000
    C981     C        0.79280    0.19320    0.59090    1.000
    C982     C        0.92227    0.25812    0.61582    1.000
    C983     C        0.95049    0.26608    0.61098    1.000
    C984     C        0.96802    0.24814    0.59996    1.000
    O1149    O        0.39000    0.21594    0.65040    1.000
    O1150    O        0.42458    0.22893    0.62963    1.000
    O1151    O        0.51156    0.15730    0.68870    1.000
    O1152    O        0.33688    0.23722    0.64265    1.000
    O1153    O        0.34235    0.27436    0.62263    1.000
    O1154    O        0.21412    0.24486    0.67110    1.000
    O1155    O        0.13961    0.20944    0.67907    1.000
    C985     C        0.41400    0.21457    0.64560    1.000
    C986     C        0.42970    0.19456    0.66120    1.000
    C987     C        0.45720    0.19320    0.65910    1.000
    C988     C        0.32773    0.25812    0.63418    1.000
    C989     C        0.29951    0.26608    0.63902    1.000
    C990     C        0.28198    0.24814    0.65004    1.000
    O1156    O        0.39000    0.71594    0.15040    1.000
    O1157    O        0.42458    0.72893    0.12963    1.000
    O1158    O        0.51156    0.65730    0.18870    1.000
    O1159    O        0.33688    0.73722    0.14265    1.000
    O1160    O        0.34235    0.77436    0.12263    1.000
    O1161    O        0.21412    0.74486    0.17110    1.000
    O1162    O        0.13961    0.70944    0.17907    1.000
    C991     C        0.41400    0.71457    0.14560    1.000
    C992     C        0.42970    0.69456    0.16120    1.000
    C993     C        0.45720    0.69320    0.15910    1.000
    C994     C        0.32773    0.75812    0.13418    1.000
    C995     C        0.29951    0.76608    0.13902    1.000
    C996     C        0.28198    0.74814    0.15004    1.000
    O1163    O        0.89000    0.21594    0.15040    1.000
    O1164    O        0.92458    0.22893    0.12963    1.000
    O1165    O        0.01156    0.15730    0.18870    1.000
    O1166    O        0.83688    0.23722    0.14265    1.000
    O1167    O        0.84235    0.27436    0.12263    1.000
    O1168    O        0.71412    0.24486    0.17110    1.000
    O1169    O        0.63961    0.20944    0.17907    1.000
    C997     C        0.91400    0.21457    0.14560    1.000
    C998     C        0.92970    0.19456    0.16120    1.000
    C999     C        0.95720    0.19320    0.15910    1.000
    C1000    C        0.82773    0.25812    0.13418    1.000
    C1001    C        0.79951    0.26608    0.13902    1.000
    C1002    C        0.78198    0.24814    0.15004    1.000
    O1170    O        0.89000    0.71594    0.65040    1.000
    O1171    O        0.92458    0.72893    0.62963    1.000
    O1172    O        0.01156    0.65730    0.68870    1.000
    O1173    O        0.83688    0.73722    0.64265    1.000
    O1174    O        0.84235    0.77436    0.62263    1.000
    O1175    O        0.71412    0.74486    0.67110    1.000
    O1176    O        0.63961    0.70944    0.67907    1.000
    C1003    C        0.91400    0.71457    0.64560    1.000
    C1004    C        0.92970    0.69456    0.66120    1.000
    C1005    C        0.95720    0.69320    0.65910    1.000
    C1006    C        0.82773    0.75812    0.63418    1.000
    C1007    C        0.79951    0.76608    0.63902    1.000
    C1008    C        0.78198    0.74814    0.65004    1.000
    O1177    O        0.89000    0.03406    0.09960    1.000
    O1178    O        0.92458    0.02107    0.12037    1.000
    O1179    O        0.01156    0.09270    0.06130    1.000
    O1180    O        0.83688    0.01278    0.10735    1.000
    O1181    O        0.84235    0.97564    0.12737    1.000
    O1182    O        0.71412    0.00514    0.07890    1.000
    O1183    O        0.63961    0.04056    0.07093    1.000
    C1009    C        0.91400    0.03543    0.10440    1.000
    C1010    C        0.92970    0.05544    0.08880    1.000
    C1011    C        0.95720    0.05680    0.09090    1.000
    C1012    C        0.82773    0.99188    0.11582    1.000
    C1013    C        0.79951    0.98392    0.11098    1.000
    C1014    C        0.78198    0.00186    0.09996    1.000
    O1184    O        0.89000    0.53406    0.59960    1.000
    O1185    O        0.92458    0.52107    0.62037    1.000
    O1186    O        0.01156    0.59270    0.56130    1.000
    O1187    O        0.83688    0.51278    0.60735    1.000
    O1188    O        0.84235    0.47564    0.62737    1.000
    O1189    O        0.71412    0.50514    0.57890    1.000
    O1190    O        0.63961    0.54056    0.57093    1.000
    C1015    C        0.91400    0.53543    0.60440    1.000
    C1016    C        0.92970    0.55544    0.58880    1.000
    C1017    C        0.95720    0.55680    0.59090    1.000
    C1018    C        0.82773    0.49188    0.61582    1.000
    C1019    C        0.79951    0.48392    0.61098    1.000
    C1020    C        0.78198    0.50186    0.59996    1.000
    O1191    O        0.39000    0.03406    0.59960    1.000
    O1192    O        0.42458    0.02107    0.62037    1.000
    O1193    O        0.51156    0.09270    0.56130    1.000
    O1194    O        0.33688    0.01278    0.60735    1.000
    O1195    O        0.34235    0.97564    0.62737    1.000
    O1196    O        0.21412    0.00514    0.57890    1.000
    O1197    O        0.13961    0.04056    0.57093    1.000
    C1021    C        0.41400    0.03543    0.60440    1.000
    C1022    C        0.42970    0.05544    0.58880    1.000
    C1023    C        0.45720    0.05680    0.59090    1.000
    C1024    C        0.32773    0.99188    0.61582    1.000
    C1025    C        0.29951    0.98392    0.61098    1.000
    C1026    C        0.28198    0.00186    0.59996    1.000
    O1198    O        0.39000    0.53406    0.09960    1.000
    O1199    O        0.42458    0.52107    0.12037    1.000
    O1200    O        0.51156    0.59270    0.06130    1.000
    O1201    O        0.33688    0.51278    0.10735    1.000
    O1202    O        0.34235    0.47564    0.12737    1.000
    O1203    O        0.21412    0.50514    0.07890    1.000
    O1204    O        0.13961    0.54056    0.07093    1.000
    C1027    C        0.41400    0.53543    0.10440    1.000
    C1028    C        0.42970    0.55544    0.08880    1.000
    C1029    C        0.45720    0.55680    0.09090    1.000
    C1030    C        0.32773    0.49188    0.11582    1.000
    C1031    C        0.29951    0.48392    0.11098    1.000
    C1032    C        0.28198    0.50186    0.09996    1.000
    O1205    O        0.86000    0.53406    0.15040    1.000
    O1206    O        0.82542    0.52107    0.12963    1.000
    O1207    O        0.73844    0.59270    0.18870    1.000
    O1208    O        0.91312    0.51278    0.14265    1.000
    O1209    O        0.90765    0.47564    0.12263    1.000
    O1210    O        0.03588    0.50514    0.17110    1.000
    O1211    O        0.11039    0.54056    0.17907    1.000
    C1033    C        0.83600    0.53543    0.14560    1.000
    C1034    C        0.82030    0.55544    0.16120    1.000
    C1035    C        0.79280    0.55680    0.15910    1.000
    C1036    C        0.92227    0.49188    0.13418    1.000
    C1037    C        0.95049    0.48392    0.13902    1.000
    C1038    C        0.96802    0.50186    0.15004    1.000
    O1212    O        0.86000    0.03406    0.65040    1.000
    O1213    O        0.82542    0.02107    0.62963    1.000
    O1214    O        0.73844    0.09270    0.68870    1.000
    O1215    O        0.91312    0.01278    0.64265    1.000
    O1216    O        0.90765    0.97564    0.62263    1.000
    O1217    O        0.03588    0.00514    0.67110    1.000
    O1218    O        0.11039    0.04056    0.67907    1.000
    C1039    C        0.83600    0.03543    0.64560    1.000
    C1040    C        0.82030    0.05544    0.66120    1.000
    C1041    C        0.79280    0.05680    0.65910    1.000
    C1042    C        0.92227    0.99188    0.63418    1.000
    C1043    C        0.95049    0.98392    0.63902    1.000
    C1044    C        0.96802    0.00186    0.65004    1.000
    O1219    O        0.36000    0.53406    0.65040    1.000
    O1220    O        0.32542    0.52107    0.62963    1.000
    O1221    O        0.23844    0.59270    0.68870    1.000
    O1222    O        0.41312    0.51278    0.64265    1.000
    O1223    O        0.40765    0.47564    0.62263    1.000
    O1224    O        0.53588    0.50514    0.67110    1.000
    O1225    O        0.61039    0.54056    0.67907    1.000
    C1045    C        0.33600    0.53543    0.64560    1.000
    C1046    C        0.32030    0.55544    0.66120    1.000
    C1047    C        0.29280    0.55680    0.65910    1.000
    C1048    C        0.42227    0.49188    0.63418    1.000
    C1049    C        0.45049    0.48392    0.63902    1.000
    C1050    C        0.46802    0.50186    0.65004    1.000
    O1226    O        0.36000    0.03406    0.15040    1.000
    O1227    O        0.32542    0.02107    0.12963    1.000
    O1228    O        0.23844    0.09270    0.18870    1.000
    O1229    O        0.41312    0.01278    0.14265    1.000
    O1230    O        0.40765    0.97564    0.12263    1.000
    O1231    O        0.53588    0.00514    0.17110    1.000
    O1232    O        0.61039    0.04056    0.17907    1.000
    C1051    C        0.33600    0.03543    0.14560    1.000
    C1052    C        0.32030    0.05544    0.16120    1.000
    C1053    C        0.29280    0.05680    0.15910    1.000
    C1054    C        0.42227    0.99188    0.13418    1.000
    C1055    C        0.45049    0.98392    0.13902    1.000
    C1056    C        0.46802    0.00186    0.15004    1.000
    O1233    O        0.21594    0.65040    0.39000    1.000
    O1234    O        0.22893    0.62963    0.42458    1.000
    O1235    O        0.15730    0.68870    0.51156    1.000
    O1236    O        0.23722    0.64265    0.33688    1.000
    O1237    O        0.27436    0.62263    0.34235    1.000
    O1238    O        0.24486    0.67110    0.21412    1.000
    O1239    O        0.20944    0.67907    0.13961    1.000
    C1057    C        0.21457    0.64560    0.41400    1.000
    C1058    C        0.19456    0.66120    0.42970    1.000
    C1059    C        0.19320    0.65910    0.45720    1.000
    C1060    C        0.25812    0.63418    0.32773    1.000
    C1061    C        0.26608    0.63902    0.29951    1.000
    C1062    C        0.24814    0.65004    0.28198    1.000
    O1240    O        0.21594    0.15040    0.89000    1.000
    O1241    O        0.22893    0.12963    0.92458    1.000
    O1242    O        0.15730    0.18870    0.01156    1.000
    O1243    O        0.23722    0.14265    0.83688    1.000
    O1244    O        0.27436    0.12263    0.84235    1.000
    O1245    O        0.24486    0.17110    0.71412    1.000
    O1246    O        0.20944    0.17907    0.63961    1.000
    C1063    C        0.21457    0.14560    0.91400    1.000
    C1064    C        0.19456    0.16120    0.92970    1.000
    C1065    C        0.19320    0.15910    0.95720    1.000
    C1066    C        0.25812    0.13418    0.82773    1.000
    C1067    C        0.26608    0.13902    0.79951    1.000
    C1068    C        0.24814    0.15004    0.78198    1.000
    O1247    O        0.71594    0.65040    0.89000    1.000
    O1248    O        0.72893    0.62963    0.92458    1.000
    O1249    O        0.65730    0.68870    0.01156    1.000
    O1250    O        0.73722    0.64265    0.83688    1.000
    O1251    O        0.77436    0.62263    0.84235    1.000
    O1252    O        0.74486    0.67110    0.71412    1.000
    O1253    O        0.70944    0.67907    0.63961    1.000
    C1069    C        0.71457    0.64560    0.91400    1.000
    C1070    C        0.69456    0.66120    0.92970    1.000
    C1071    C        0.69320    0.65910    0.95720    1.000
    C1072    C        0.75812    0.63418    0.82773    1.000
    C1073    C        0.76608    0.63902    0.79951    1.000
    C1074    C        0.74814    0.65004    0.78198    1.000
    O1254    O        0.71594    0.15040    0.39000    1.000
    O1255    O        0.72893    0.12963    0.42458    1.000
    O1256    O        0.65730    0.18870    0.51156    1.000
    O1257    O        0.73722    0.14265    0.33688    1.000
    O1258    O        0.77436    0.12263    0.34235    1.000
    O1259    O        0.74486    0.17110    0.21412    1.000
    O1260    O        0.70944    0.17907    0.13961    1.000
    C1075    C        0.71457    0.14560    0.41400    1.000
    C1076    C        0.69456    0.16120    0.42970    1.000
    C1077    C        0.69320    0.15910    0.45720    1.000
    C1078    C        0.75812    0.13418    0.32773    1.000
    C1079    C        0.76608    0.13902    0.29951    1.000
    C1080    C        0.74814    0.15004    0.28198    1.000
    O1261    O        0.71594    0.59960    0.36000    1.000
    O1262    O        0.72893    0.62037    0.32542    1.000
    O1263    O        0.65730    0.56130    0.23844    1.000
    O1264    O        0.73722    0.60735    0.41312    1.000
    O1265    O        0.77436    0.62737    0.40765    1.000
    O1266    O        0.74486    0.57890    0.53588    1.000
    O1267    O        0.70944    0.57093    0.61039    1.000
    C1081    C        0.71457    0.60440    0.33600    1.000
    C1082    C        0.69456    0.58880    0.32030    1.000
    C1083    C        0.69320    0.59090    0.29280    1.000
    C1084    C        0.75812    0.61582    0.42227    1.000
    C1085    C        0.76608    0.61098    0.45049    1.000
    C1086    C        0.74814    0.59996    0.46802    1.000
    O1268    O        0.71594    0.09960    0.86000    1.000
    O1269    O        0.72893    0.12037    0.82542    1.000
    O1270    O        0.65730    0.06130    0.73844    1.000
    O1271    O        0.73722    0.10735    0.91312    1.000
    O1272    O        0.77436    0.12737    0.90765    1.000
    O1273    O        0.74486    0.07890    0.03588    1.000
    O1274    O        0.70944    0.07093    0.11039    1.000
    C1087    C        0.71457    0.10440    0.83600    1.000
    C1088    C        0.69456    0.08880    0.82030    1.000
    C1089    C        0.69320    0.09090    0.79280    1.000
    C1090    C        0.75812    0.11582    0.92227    1.000
    C1091    C        0.76608    0.11098    0.95049    1.000
    C1092    C        0.74814    0.09996    0.96802    1.000
    O1275    O        0.21594    0.59960    0.86000    1.000
    O1276    O        0.22893    0.62037    0.82542    1.000
    O1277    O        0.15730    0.56130    0.73844    1.000
    O1278    O        0.23722    0.60735    0.91312    1.000
    O1279    O        0.27436    0.62737    0.90765    1.000
    O1280    O        0.24486    0.57890    0.03588    1.000
    O1281    O        0.20944    0.57093    0.11039    1.000
    C1093    C        0.21457    0.60440    0.83600    1.000
    C1094    C        0.19456    0.58880    0.82030    1.000
    C1095    C        0.19320    0.59090    0.79280    1.000
    C1096    C        0.25812    0.61582    0.92227    1.000
    C1097    C        0.26608    0.61098    0.95049    1.000
    C1098    C        0.24814    0.59996    0.96802    1.000
    O1282    O        0.21594    0.09960    0.36000    1.000
    O1283    O        0.22893    0.12037    0.32542    1.000
    O1284    O        0.15730    0.06130    0.23844    1.000
    O1285    O        0.23722    0.10735    0.41312    1.000
    O1286    O        0.27436    0.12737    0.40765    1.000
    O1287    O        0.24486    0.07890    0.53588    1.000
    O1288    O        0.20944    0.07093    0.61039    1.000
    C1099    C        0.21457    0.10440    0.33600    1.000
    C1100    C        0.19456    0.08880    0.32030    1.000
    C1101    C        0.19320    0.09090    0.29280    1.000
    C1102    C        0.25812    0.11582    0.42227    1.000
    C1103    C        0.26608    0.11098    0.45049    1.000
    C1104    C        0.24814    0.09996    0.46802    1.000
    O1289    O        0.53406    0.15040    0.86000    1.000
    O1290    O        0.52107    0.12963    0.82542    1.000
    O1291    O        0.59270    0.18870    0.73844    1.000
    O1292    O        0.51278    0.14265    0.91312    1.000
    O1293    O        0.47564    0.12263    0.90765    1.000
    O1294    O        0.50514    0.17110    0.03588    1.000
    O1295    O        0.54056    0.17907    0.11039    1.000
    C1105    C        0.53543    0.14560    0.83600    1.000
    C1106    C        0.55544    0.16120    0.82030    1.000
    C1107    C        0.55680    0.15910    0.79280    1.000
    C1108    C        0.49188    0.13418    0.92227    1.000
    C1109    C        0.48392    0.13902    0.95049    1.000
    C1110    C        0.50186    0.15004    0.96802    1.000
    O1296    O        0.53406    0.65040    0.36000    1.000
    O1297    O        0.52107    0.62963    0.32542    1.000
    O1298    O        0.59270    0.68870    0.23844    1.000
    O1299    O        0.51278    0.64265    0.41312    1.000
    O1300    O        0.47564    0.62263    0.40765    1.000
    O1301    O        0.50514    0.67110    0.53588    1.000
    O1302    O        0.54056    0.67907    0.61039    1.000
    C1111    C        0.53543    0.64560    0.33600    1.000
    C1112    C        0.55544    0.66120    0.32030    1.000
    C1113    C        0.55680    0.65910    0.29280    1.000
    C1114    C        0.49188    0.63418    0.42227    1.000
    C1115    C        0.48392    0.63902    0.45049    1.000
    C1116    C        0.50186    0.65004    0.46802    1.000
    O1303    O        0.03406    0.15040    0.36000    1.000
    O1304    O        0.02107    0.12963    0.32542    1.000
    O1305    O        0.09270    0.18870    0.23844    1.000
    O1306    O        0.01278    0.14265    0.41312    1.000
    O1307    O        0.97564    0.12263    0.40765    1.000
    O1308    O        0.00514    0.17110    0.53588    1.000
    O1309    O        0.04056    0.17907    0.61039    1.000
    C1117    C        0.03543    0.14560    0.33600    1.000
    C1118    C        0.05544    0.16120    0.32030    1.000
    C1119    C        0.05680    0.15910    0.29280    1.000
    C1120    C        0.99188    0.13418    0.42227    1.000
    C1121    C        0.98392    0.13902    0.45049    1.000
    C1122    C        0.00186    0.15004    0.46802    1.000
    O1310    O        0.03406    0.65040    0.86000    1.000
    O1311    O        0.02107    0.62963    0.82542    1.000
    O1312    O        0.09270    0.68870    0.73844    1.000
    O1313    O        0.01278    0.64265    0.91312    1.000
    O1314    O        0.97564    0.62263    0.90765    1.000
    O1315    O        0.00514    0.67110    0.03588    1.000
    O1316    O        0.04056    0.67907    0.11039    1.000
    C1123    C        0.03543    0.64560    0.83600    1.000
    C1124    C        0.05544    0.66120    0.82030    1.000
    C1125    C        0.05680    0.65910    0.79280    1.000
    C1126    C        0.99188    0.63418    0.92227    1.000
    C1127    C        0.98392    0.63902    0.95049    1.000
    C1128    C        0.00186    0.65004    0.96802    1.000
    O1317    O        0.03406    0.09960    0.89000    1.000
    O1318    O        0.02107    0.12037    0.92458    1.000
    O1319    O        0.09270    0.06130    0.01156    1.000
    O1320    O        0.01278    0.10735    0.83688    1.000
    O1321    O        0.97564    0.12737    0.84235    1.000
    O1322    O        0.00514    0.07890    0.71412    1.000
    O1323    O        0.04056    0.07093    0.63961    1.000
    C1129    C        0.03543    0.10440    0.91400    1.000
    C1130    C        0.05544    0.08880    0.92970    1.000
    C1131    C        0.05680    0.09090    0.95720    1.000
    C1132    C        0.99188    0.11582    0.82773    1.000
    C1133    C        0.98392    0.11098    0.79951    1.000
    C1134    C        0.00186    0.09996    0.78198    1.000
    O1324    O        0.03406    0.59960    0.39000    1.000
    O1325    O        0.02107    0.62037    0.42458    1.000
    O1326    O        0.09270    0.56130    0.51156    1.000
    O1327    O        0.01278    0.60735    0.33688    1.000
    O1328    O        0.97564    0.62737    0.34235    1.000
    O1329    O        0.00514    0.57890    0.21412    1.000
    O1330    O        0.04056    0.57093    0.13961    1.000
    C1135    C        0.03543    0.60440    0.41400    1.000
    C1136    C        0.05544    0.58880    0.42970    1.000
    C1137    C        0.05680    0.59090    0.45720    1.000
    C1138    C        0.99188    0.61582    0.32773    1.000
    C1139    C        0.98392    0.61098    0.29951    1.000
    C1140    C        0.00186    0.59996    0.28198    1.000
    O1331    O        0.53406    0.09960    0.39000    1.000
    O1332    O        0.52107    0.12037    0.42458    1.000
    O1333    O        0.59270    0.06130    0.51156    1.000
    O1334    O        0.51278    0.10735    0.33688    1.000
    O1335    O        0.47564    0.12737    0.34235    1.000
    O1336    O        0.50514    0.07890    0.21412    1.000
    O1337    O        0.54056    0.07093    0.13961    1.000
    C1141    C        0.53543    0.10440    0.41400    1.000
    C1142    C        0.55544    0.08880    0.42970    1.000
    C1143    C        0.55680    0.09090    0.45720    1.000
    C1144    C        0.49188    0.11582    0.32773    1.000
    C1145    C        0.48392    0.11098    0.29951    1.000
    C1146    C        0.50186    0.09996    0.28198    1.000
    O1338    O        0.53406    0.59960    0.89000    1.000
    O1339    O        0.52107    0.62037    0.92458    1.000
    O1340    O        0.59270    0.56130    0.01156    1.000
    O1341    O        0.51278    0.60735    0.83688    1.000
    O1342    O        0.47564    0.62737    0.84235    1.000
    O1343    O        0.50514    0.57890    0.71412    1.000
    O1344    O        0.54056    0.57093    0.63961    1.000
    C1147    C        0.53543    0.60440    0.91400    1.000
    C1148    C        0.55544    0.58880    0.92970    1.000
    C1149    C        0.55680    0.59090    0.95720    1.000
    C1150    C        0.49188    0.61582    0.82773    1.000
    C1151    C        0.48392    0.61098    0.79951    1.000
    C1152    C        0.50186    0.59996    0.78198    1.000
    In1      In       0.87812    0.12188    0.00000    1.000
    In2      In       0.87812    0.62188    0.50000    1.000
    In3      In       0.37812    0.12188    0.50000    1.000
    In4      In       0.37812    0.62188    0.00000    1.000
    In5      In       0.87188    0.12812    0.50000    1.000
    In6      In       0.87188    0.62812    0.00000    1.000
    In7      In       0.37188    0.12812    0.00000    1.000
    In8      In       0.37188    0.62812    0.50000    1.000
    In9      In       0.37188    0.62188    0.75000    1.000
    In10     In       0.37188    0.12188    0.25000    1.000
    In11     In       0.87188    0.62188    0.25000    1.000
    In12     In       0.87188    0.12188    0.75000    1.000
    In13     In       0.37812    0.62812    0.25000    1.000
    In14     In       0.37812    0.12812    0.75000    1.000
    In15     In       0.87812    0.62812    0.75000    1.000
    In16     In       0.87812    0.12812    0.25000    1.000
    In17     In       0.00000    0.87812    0.12188    1.000
    In18     In       0.00000    0.37812    0.62188    1.000
    In19     In       0.50000    0.87812    0.62188    1.000
    In20     In       0.50000    0.37812    0.12188    1.000
    In21     In       0.50000    0.87188    0.12812    1.000
    In22     In       0.50000    0.37188    0.62812    1.000
    In23     In       0.00000    0.87188    0.62812    1.000
    In24     In       0.00000    0.37188    0.12812    1.000
    In25     In       0.75000    0.37188    0.62188    1.000
    In26     In       0.75000    0.87188    0.12188    1.000
    In27     In       0.25000    0.37188    0.12188    1.000
    In28     In       0.25000    0.87188    0.62188    1.000
    In29     In       0.25000    0.37812    0.62812    1.000
    In30     In       0.25000    0.87812    0.12812    1.000
    In31     In       0.75000    0.37812    0.12812    1.000
    In32     In       0.75000    0.87812    0.62812    1.000
    In33     In       0.12188    0.00000    0.87812    1.000
    In34     In       0.12188    0.50000    0.37812    1.000
    In35     In       0.62188    0.00000    0.37812    1.000
    In36     In       0.62188    0.50000    0.87812    1.000
    In37     In       0.12812    0.50000    0.87188    1.000
    In38     In       0.12812    0.00000    0.37188    1.000
    In39     In       0.62812    0.50000    0.37188    1.000
    In40     In       0.62812    0.00000    0.87188    1.000
    In41     In       0.62188    0.75000    0.37188    1.000
    In42     In       0.62188    0.25000    0.87188    1.000
    In43     In       0.12188    0.75000    0.87188    1.000
    In44     In       0.12188    0.25000    0.37188    1.000
    In45     In       0.62812    0.25000    0.37812    1.000
    In46     In       0.62812    0.75000    0.87812    1.000
    In47     In       0.12812    0.25000    0.87812    1.000
    In48     In       0.12812    0.75000    0.37812    1.000
    In49     In       0.12188    0.87812    0.00000    1.000
    In50     In       0.12188    0.37812    0.50000    1.000
    In51     In       0.62188    0.87812    0.50000    1.000
    In52     In       0.62188    0.37812    0.00000    1.000
    In53     In       0.12812    0.87188    0.50000    1.000
    In54     In       0.12812    0.37188    0.00000    1.000
    In55     In       0.62812    0.87188    0.00000    1.000
    In56     In       0.62812    0.37188    0.50000    1.000
    In57     In       0.62812    0.37812    0.25000    1.000
    In58     In       0.62812    0.87812    0.75000    1.000
    In59     In       0.12812    0.37812    0.75000    1.000
    In60     In       0.12812    0.87812    0.25000    1.000
    In61     In       0.62188    0.37188    0.75000    1.000
    In62     In       0.62188    0.87188    0.25000    1.000
    In63     In       0.12188    0.37188    0.25000    1.000
    In64     In       0.12188    0.87188    0.75000    1.000
    In65     In       0.00000    0.12188    0.87812    1.000
    In66     In       0.00000    0.62188    0.37812    1.000
    In67     In       0.50000    0.12188    0.37812    1.000
    In68     In       0.50000    0.62188    0.87812    1.000
    In69     In       0.50000    0.12812    0.87188    1.000
    In70     In       0.50000    0.62812    0.37188    1.000
    In71     In       0.00000    0.12812    0.37188    1.000
    In72     In       0.00000    0.62812    0.87188    1.000
    In73     In       0.25000    0.62812    0.37812    1.000
    In74     In       0.25000    0.12812    0.87812    1.000
    In75     In       0.75000    0.62812    0.87812    1.000
    In76     In       0.75000    0.12812    0.37812    1.000
    In77     In       0.75000    0.62188    0.37188    1.000
    In78     In       0.75000    0.12188    0.87188    1.000
    In79     In       0.25000    0.62188    0.87188    1.000
    In80     In       0.25000    0.12188    0.37188    1.000
    In81     In       0.87812    0.00000    0.12188    1.000
    In82     In       0.87812    0.50000    0.62188    1.000
    In83     In       0.37812    0.00000    0.62188    1.000
    In84     In       0.37812    0.50000    0.12188    1.000
    In85     In       0.87188    0.50000    0.12812    1.000
    In86     In       0.87188    0.00000    0.62812    1.000
    In87     In       0.37188    0.50000    0.62812    1.000
    In88     In       0.37188    0.00000    0.12812    1.000
    In89     In       0.37812    0.25000    0.62812    1.000
    In90     In       0.37812    0.75000    0.12812    1.000
    In91     In       0.87812    0.25000    0.12812    1.000
    In92     In       0.87812    0.75000    0.62812    1.000
    In93     In       0.37188    0.75000    0.62188    1.000
    In94     In       0.37188    0.25000    0.12188    1.000
    In95     In       0.87188    0.75000    0.12188    1.000
    In96     In       0.87188    0.25000    0.62188    1.000
    Ni1      Ni       0.67677    0.07323    0.02346    1.000
    Ni2      Ni       0.67677    0.57323    0.52346    1.000
    Ni3      Ni       0.07323    0.17677    0.52346    1.000
    Ni4      Ni       0.57323    0.17677    0.02346    1.000
    Ni5      Ni       0.57323    0.67677    0.52346    1.000
    Ni6      Ni       0.57323    0.57323    0.72654    1.000
    Ni7      Ni       0.57323    0.07323    0.22654    1.000
    Ni8      Ni       0.07323    0.57323    0.22654    1.000
    Ni9      Ni       0.07323    0.07323    0.72654    1.000
    Ni10     Ni       0.17677    0.67677    0.22654    1.000
    Ni11     Ni       0.17677    0.17677    0.72654    1.000
    Ni12     Ni       0.02346    0.67677    0.07323    1.000
    Ni13     Ni       0.02346    0.17677    0.57323    1.000
    Ni14     Ni       0.52346    0.67677    0.57323    1.000
    Ni15     Ni       0.52346    0.07323    0.17677    1.000
    Ni16     Ni       0.52346    0.57323    0.67677    1.000
    Ni17     Ni       0.72654    0.57323    0.57323    1.000
    Ni18     Ni       0.72654    0.07323    0.07323    1.000
    Ni19     Ni       0.22654    0.57323    0.07323    1.000
    Ni20     Ni       0.22654    0.07323    0.57323    1.000
    Ni21     Ni       0.22654    0.17677    0.67677    1.000
    Ni22     Ni       0.72654    0.17677    0.17677    1.000
    Ni23     Ni       0.07323    0.02346    0.67677    1.000
    Ni24     Ni       0.57323    0.02346    0.17677    1.000
    Ni25     Ni       0.57323    0.52346    0.67677    1.000
    Ni26     Ni       0.17677    0.52346    0.07323    1.000
    Ni27     Ni       0.17677    0.02346    0.57323    1.000
    Ni28     Ni       0.67677    0.52346    0.57323    1.000
    Ni29     Ni       0.57323    0.72654    0.57323    1.000
    Ni30     Ni       0.57323    0.22654    0.07323    1.000
    Ni31     Ni       0.07323    0.72654    0.07323    1.000
    Ni32     Ni       0.07323    0.22654    0.57323    1.000
    Ni33     Ni       0.67677    0.22654    0.17677    1.000
    Ni34     Ni       0.67677    0.72654    0.67677    1.000
    Ni35     Ni       0.17677    0.72654    0.17677    1.000
    Ni36     Ni       0.82323    0.92677    0.47654    1.000
    Ni37     Ni       0.82323    0.42677    0.97654    1.000
    Ni38     Ni       0.92677    0.32323    0.97654    1.000
    Ni39     Ni       0.42677    0.32323    0.47654    1.000
    Ni40     Ni       0.32323    0.82323    0.77345    1.000
    Ni41     Ni       0.32323    0.32323    0.27346    1.000
    Ni42     Ni       0.42677    0.42677    0.27346    1.000
    Ni43     Ni       0.42677    0.92677    0.77345    1.000
    Ni44     Ni       0.92677    0.42677    0.77345    1.000
    Ni45     Ni       0.92677    0.92677    0.27346    1.000
    Ni46     Ni       0.42677    0.27346    0.42677    1.000
    Ni47     Ni       0.42677    0.77345    0.92677    1.000
    Ni48     Ni       0.92677    0.27346    0.92677    1.000
    Ni49     Ni       0.92677    0.77345    0.42677    1.000
    Ni50     Ni       0.82323    0.77345    0.32323    1.000
    Ni51     Ni       0.82323    0.27346    0.82323    1.000
    Ni52     Ni       0.32323    0.27346    0.32323    1.000
    Ni53     Ni       0.32323    0.97654    0.92677    1.000
    Ni54     Ni       0.32323    0.47654    0.42677    1.000
    Ni55     Ni       0.92677    0.47654    0.82323    1.000
    Ni56     Ni       0.42677    0.47654    0.32323    1.000
    Ni57     Ni       0.77345    0.32323    0.82323    1.000
    Ni58     Ni       0.27346    0.32323    0.32323    1.000
    Ni59     Ni       0.27346    0.42677    0.42677    1.000
    Ni60     Ni       0.27346    0.92677    0.92677    1.000
    Ni61     Ni       0.77345    0.42677    0.92677    1.000
    Ni62     Ni       0.77345    0.92677    0.42677    1.000
    Ni63     Ni       0.47654    0.82323    0.92677    1.000
    Ni64     Ni       0.47654    0.32323    0.42677    1.000
    Ni65     Ni       0.97654    0.92677    0.32323    1.000
    Ni66     Ni       0.97654    0.42677    0.82323    1.000
    Ni67     Ni       0.32323    0.92677    0.97654    1.000
    Ni68     Ni       0.32323    0.42677    0.47654    1.000
    Ni69     Ni       0.92677    0.82323    0.47654    1.000
    Ni70     Ni       0.42677    0.82323    0.97654    1.000
    Ni71     Ni       0.82323    0.32323    0.77345    1.000
    Ni72     Ni       0.82323    0.82323    0.27346    1.000
    Ni73     Ni       0.97654    0.32323    0.92677    1.000
    Ni74     Ni       0.97654    0.82323    0.42677    1.000
    Ni75     Ni       0.47654    0.92677    0.82323    1.000
    Ni76     Ni       0.47654    0.42677    0.32323    1.000
    Ni77     Ni       0.77345    0.82323    0.32323    1.000
    Ni78     Ni       0.27346    0.82323    0.82323    1.000
    Ni79     Ni       0.92677    0.97654    0.32323    1.000
    Ni80     Ni       0.42677    0.97654    0.82323    1.000
    Ni81     Ni       0.82323    0.47654    0.92677    1.000
    Ni82     Ni       0.82323    0.97654    0.42677    1.000
    Ni83     Ni       0.32323    0.77345    0.82323    1.000
    Ni84     Ni       0.17677    0.07323    0.52346    1.000
    Ni85     Ni       0.17677    0.57323    0.02346    1.000
    Ni86     Ni       0.07323    0.67677    0.02346    1.000
    Ni87     Ni       0.67677    0.17677    0.22654    1.000
    Ni88     Ni       0.67677    0.67677    0.72654    1.000
    Ni89     Ni       0.17677    0.22654    0.67677    1.000
    Ni90     Ni       0.67677    0.02346    0.07323    1.000
    Ni91     Ni       0.07323    0.52346    0.17677    1.000
    Ni92     Ni       0.22654    0.67677    0.17677    1.000
    Ni93     Ni       0.72654    0.67677    0.67677    1.000
    Ni94     Ni       0.52346    0.17677    0.07323    1.000
    Ni95     Ni       0.02346    0.07323    0.67677    1.000
    Ni96     Ni       0.02346    0.57323    0.17677    1.000
    Ni97     Ni       0.04095    0.04095    0.09350    1.000
    O1345    O        0.06830    0.06830    0.10610    1.000
    Ni98     Ni       0.05488    0.05488    0.09750    1.000
    Ni99     Ni       0.04095    0.54095    0.59350    1.000
    O1346    O        0.06830    0.56830    0.60610    1.000
    Ni100    Ni       0.05488    0.55488    0.59750    1.000
    Ni101    Ni       0.54095    0.04095    0.59350    1.000
    O1347    O        0.56830    0.06830    0.60610    1.000
    Ni102    Ni       0.55488    0.05488    0.59750    1.000
    Ni103    Ni       0.54095    0.54095    0.09350    1.000
    O1348    O        0.56830    0.56830    0.10610    1.000
    Ni104    Ni       0.55488    0.55488    0.09750    1.000
    Ni105    Ni       0.70905    0.20905    0.59350    1.000
    O1349    O        0.68170    0.18170    0.60610    1.000
    Ni106    Ni       0.69512    0.19512    0.59750    1.000
    Ni107    Ni       0.70905    0.70905    0.09350    1.000
    O1350    O        0.68170    0.68170    0.10610    1.000
    Ni108    Ni       0.69512    0.69512    0.09750    1.000
    Ni109    Ni       0.20905    0.54095    0.65650    1.000
    O1351    O        0.18170    0.56830    0.64390    1.000
    Ni110    Ni       0.19512    0.55488    0.65250    1.000
    Ni111    Ni       0.20905    0.04095    0.15650    1.000
    O1352    O        0.18170    0.06830    0.14390    1.000
    Ni112    Ni       0.19512    0.05488    0.15250    1.000
    Ni113    Ni       0.54095    0.70905    0.15650    1.000
    O1353    O        0.56830    0.68170    0.14390    1.000
    Ni114    Ni       0.55488    0.69512    0.15250    1.000
    Ni115    Ni       0.04095    0.70905    0.65650    1.000
    O1354    O        0.06830    0.68170    0.64390    1.000
    Ni116    Ni       0.05488    0.69512    0.65250    1.000
    Ni117    Ni       0.09350    0.04095    0.04095    1.000
    O1355    O        0.10610    0.06830    0.06830    1.000
    Ni118    Ni       0.09750    0.05488    0.05488    1.000
    Ni119    Ni       0.09350    0.54095    0.54095    1.000
    O1356    O        0.10610    0.56830    0.56830    1.000
    Ni120    Ni       0.09750    0.55488    0.55488    1.000
    Ni121    Ni       0.59350    0.04095    0.54095    1.000
    O1357    O        0.60610    0.06830    0.56830    1.000
    Ni122    Ni       0.59750    0.05488    0.55488    1.000
    Ni123    Ni       0.59350    0.54095    0.04095    1.000
    O1358    O        0.60610    0.56830    0.06830    1.000
    Ni124    Ni       0.59750    0.55488    0.05488    1.000
    Ni125    Ni       0.59350    0.70905    0.20905    1.000
    O1359    O        0.60610    0.68170    0.18170    1.000
    Ni126    Ni       0.59750    0.69512    0.19512    1.000
    Ni127    Ni       0.09350    0.70905    0.70905    1.000
    O1360    O        0.10610    0.68170    0.68170    1.000
    Ni128    Ni       0.09750    0.69512    0.69512    1.000
    Ni129    Ni       0.65650    0.20905    0.54095    1.000
    O1361    O        0.64390    0.18170    0.56830    1.000
    Ni130    Ni       0.65250    0.19512    0.55488    1.000
    Ni131    Ni       0.65650    0.70905    0.04095    1.000
    O1362    O        0.64390    0.68170    0.06830    1.000
    Ni132    Ni       0.65250    0.69512    0.05488    1.000
    Ni133    Ni       0.15650    0.54095    0.70905    1.000
    O1363    O        0.14390    0.56830    0.68170    1.000
    Ni134    Ni       0.15250    0.55488    0.69512    1.000
    Ni135    Ni       0.15650    0.04095    0.20905    1.000
    O1364    O        0.14390    0.06830    0.18170    1.000
    Ni136    Ni       0.15250    0.05488    0.19512    1.000
    Ni137    Ni       0.04095    0.09350    0.04095    1.000
    O1365    O        0.06830    0.10610    0.06830    1.000
    Ni138    Ni       0.05488    0.09750    0.05488    1.000
    Ni139    Ni       0.04095    0.59350    0.54095    1.000
    O1366    O        0.06830    0.60610    0.56830    1.000
    Ni140    Ni       0.05488    0.59750    0.55488    1.000
    Ni141    Ni       0.54095    0.09350    0.54095    1.000
    O1367    O        0.56830    0.10610    0.56830    1.000
    Ni142    Ni       0.55488    0.09750    0.55488    1.000
    Ni143    Ni       0.54095    0.59350    0.04095    1.000
    O1368    O        0.56830    0.60610    0.06830    1.000
    Ni144    Ni       0.55488    0.59750    0.05488    1.000
    Ni145    Ni       0.20905    0.59350    0.70905    1.000
    O1369    O        0.18170    0.60610    0.68170    1.000
    Ni146    Ni       0.19512    0.59750    0.69512    1.000
    Ni147    Ni       0.20905    0.09350    0.20905    1.000
    O1370    O        0.18170    0.10610    0.18170    1.000
    Ni148    Ni       0.19512    0.09750    0.19512    1.000
    Ni149    Ni       0.54095    0.65650    0.20905    1.000
    O1371    O        0.56830    0.64390    0.18170    1.000
    Ni150    Ni       0.55488    0.65250    0.19512    1.000
    Ni151    Ni       0.04095    0.65650    0.70905    1.000
    O1372    O        0.06830    0.64390    0.68170    1.000
    Ni152    Ni       0.05488    0.65250    0.69512    1.000
    Ni153    Ni       0.70905    0.15650    0.54095    1.000
    O1373    O        0.68170    0.14390    0.56830    1.000
    Ni154    Ni       0.69512    0.15250    0.55488    1.000
    Ni155    Ni       0.70905    0.65650    0.04095    1.000
    O1374    O        0.68170    0.64390    0.06830    1.000
    Ni156    Ni       0.69512    0.65250    0.05488    1.000
    Ni157    Ni       0.79095    0.29095    0.40650    1.000
    O1375    O        0.81830    0.31830    0.39390    1.000
    Ni158    Ni       0.80488    0.30488    0.40250    1.000
    Ni159    Ni       0.79095    0.79095    0.90650    1.000
    O1376    O        0.81830    0.81830    0.89390    1.000
    Ni160    Ni       0.80488    0.80488    0.90250    1.000
    Ni161    Ni       0.95905    0.95905    0.90650    1.000
    O1377    O        0.93170    0.93170    0.89390    1.000
    Ni162    Ni       0.94512    0.94512    0.90250    1.000
    Ni163    Ni       0.95905    0.45905    0.40650    1.000
    O1378    O        0.93170    0.43170    0.39390    1.000
    Ni164    Ni       0.94512    0.44512    0.40250    1.000
    Ni165    Ni       0.45905    0.95905    0.40650    1.000
    O1379    O        0.43170    0.93170    0.39390    1.000
    Ni166    Ni       0.44512    0.94512    0.40250    1.000
    Ni167    Ni       0.45905    0.45905    0.90650    1.000
    O1380    O        0.43170    0.43170    0.89390    1.000
    Ni168    Ni       0.44512    0.44512    0.90250    1.000
    Ni169    Ni       0.29095    0.45905    0.84350    1.000
    O1381    O        0.31830    0.43170    0.85610    1.000
    Ni170    Ni       0.30488    0.44512    0.84750    1.000
    Ni171    Ni       0.29095    0.95905    0.34350    1.000
    O1382    O        0.31830    0.93170    0.35610    1.000
    Ni172    Ni       0.30488    0.94512    0.34750    1.000
    Ni173    Ni       0.45905    0.79095    0.34350    1.000
    O1383    O        0.43170    0.81830    0.35610    1.000
    Ni174    Ni       0.44512    0.80488    0.34750    1.000
    Ni175    Ni       0.95905    0.79095    0.84350    1.000
    O1384    O        0.93170    0.81830    0.85610    1.000
    Ni176    Ni       0.94512    0.80488    0.84750    1.000
    Ni177    Ni       0.79095    0.34350    0.45905    1.000
    O1385    O        0.81830    0.35610    0.43170    1.000
    Ni178    Ni       0.80488    0.34750    0.44512    1.000
    Ni179    Ni       0.79095    0.84350    0.95905    1.000
    O1386    O        0.81830    0.85610    0.93170    1.000
    Ni180    Ni       0.80488    0.84750    0.94512    1.000
    Ni181    Ni       0.45905    0.84350    0.29095    1.000
    O1387    O        0.43170    0.85610    0.31830    1.000
    Ni182    Ni       0.44512    0.84750    0.30488    1.000
    Ni183    Ni       0.95905    0.84350    0.79095    1.000
    O1388    O        0.93170    0.85610    0.81830    1.000
    Ni184    Ni       0.94512    0.84750    0.80488    1.000
    Ni185    Ni       0.95905    0.90650    0.95905    1.000
    O1389    O        0.93170    0.89390    0.93170    1.000
    Ni186    Ni       0.94512    0.90250    0.94512    1.000
    Ni187    Ni       0.95905    0.40650    0.45905    1.000
    O1390    O        0.93170    0.39390    0.43170    1.000
    Ni188    Ni       0.94512    0.40250    0.44512    1.000
    Ni189    Ni       0.45905    0.90650    0.45905    1.000
    O1391    O        0.43170    0.89390    0.43170    1.000
    Ni190    Ni       0.44512    0.90250    0.44512    1.000
    Ni191    Ni       0.45905    0.40650    0.95905    1.000
    O1392    O        0.43170    0.39390    0.93170    1.000
    Ni192    Ni       0.44512    0.40250    0.94512    1.000
    Ni193    Ni       0.29095    0.40650    0.79095    1.000
    O1393    O        0.31830    0.39390    0.81830    1.000
    Ni194    Ni       0.30488    0.40250    0.80488    1.000
    Ni195    Ni       0.29095    0.90650    0.29095    1.000
    O1394    O        0.31830    0.89390    0.31830    1.000
    Ni196    Ni       0.30488    0.90250    0.30488    1.000
    Ni197    Ni       0.84350    0.29095    0.45905    1.000
    O1395    O        0.85610    0.31830    0.43170    1.000
    Ni198    Ni       0.84750    0.30488    0.44512    1.000
    Ni199    Ni       0.84350    0.79095    0.95905    1.000
    O1396    O        0.85610    0.81830    0.93170    1.000
    Ni200    Ni       0.84750    0.80488    0.94512    1.000
    Ni201    Ni       0.34350    0.45905    0.79095    1.000
    O1397    O        0.35610    0.43170    0.81830    1.000
    Ni202    Ni       0.34750    0.44512    0.80488    1.000
    Ni203    Ni       0.34350    0.95905    0.29095    1.000
    O1398    O        0.35610    0.93170    0.31830    1.000
    Ni204    Ni       0.34750    0.94512    0.30488    1.000
    Ni205    Ni       0.40650    0.79095    0.29095    1.000
    O1399    O        0.39390    0.81830    0.31830    1.000
    Ni206    Ni       0.40250    0.80488    0.30488    1.000
    Ni207    Ni       0.90650    0.79095    0.79095    1.000
    O1400    O        0.89390    0.81830    0.81830    1.000
    Ni208    Ni       0.90250    0.80488    0.80488    1.000
    Ni209    Ni       0.90650    0.95905    0.95905    1.000
    O1401    O        0.89390    0.93170    0.93170    1.000
    Ni210    Ni       0.90250    0.94512    0.94512    1.000
    Ni211    Ni       0.90650    0.45905    0.45905    1.000
    O1402    O        0.89390    0.43170    0.43170    1.000
    Ni212    Ni       0.90250    0.44512    0.44512    1.000
    Ni213    Ni       0.40650    0.95905    0.45905    1.000
    O1403    O        0.39390    0.93170    0.43170    1.000
    Ni214    Ni       0.40250    0.94512    0.44512    1.000
    Ni215    Ni       0.40650    0.45905    0.95905    1.000
    O1404    O        0.39390    0.43170    0.93170    1.000
    Ni216    Ni       0.40250    0.44512    0.94512    1.000
    Ni217    Ni       0.29095    0.79095    0.40650    1.000
    O1405    O        0.31830    0.81830    0.39390    1.000
    Ni218    Ni       0.30488    0.80488    0.40250    1.000
    Ni219    Ni       0.29095    0.29095    0.90650    1.000
    O1406    O        0.31830    0.31830    0.89390    1.000
    Ni220    Ni       0.30488    0.30488    0.90250    1.000
    Ni221    Ni       0.79095    0.45905    0.34350    1.000
    O1407    O        0.81830    0.43170    0.35610    1.000
    Ni222    Ni       0.80488    0.44512    0.34750    1.000
    Ni223    Ni       0.79095    0.95905    0.84350    1.000
    O1408    O        0.81830    0.93170    0.85610    1.000
    Ni224    Ni       0.80488    0.94512    0.84750    1.000
    Ni225    Ni       0.45905    0.29095    0.84350    1.000
    O1409    O        0.43170    0.31830    0.85610    1.000
    Ni226    Ni       0.44512    0.30488    0.84750    1.000
    Ni227    Ni       0.95905    0.29095    0.34350    1.000
    O1410    O        0.93170    0.31830    0.35610    1.000
    Ni228    Ni       0.94512    0.30488    0.34750    1.000
    Ni229    Ni       0.40650    0.29095    0.79095    1.000
    O1411    O        0.39390    0.31830    0.81830    1.000
    Ni230    Ni       0.40250    0.30488    0.80488    1.000
    Ni231    Ni       0.90650    0.29095    0.29095    1.000
    O1412    O        0.89390    0.31830    0.31830    1.000
    Ni232    Ni       0.90250    0.30488    0.30488    1.000
    Ni233    Ni       0.34350    0.79095    0.45905    1.000
    O1413    O        0.35610    0.81830    0.43170    1.000
    Ni234    Ni       0.34750    0.80488    0.44512    1.000
    Ni235    Ni       0.34350    0.29095    0.95905    1.000
    O1414    O        0.35610    0.31830    0.93170    1.000
    Ni236    Ni       0.34750    0.30488    0.94512    1.000
    Ni237    Ni       0.84350    0.45905    0.29095    1.000
    O1415    O        0.85610    0.43170    0.31830    1.000
    Ni238    Ni       0.84750    0.44512    0.30488    1.000
    Ni239    Ni       0.84350    0.95905    0.79095    1.000
    O1416    O        0.85610    0.93170    0.81830    1.000
    Ni240    Ni       0.84750    0.94512    0.80488    1.000
    Ni241    Ni       0.79095    0.40650    0.29095    1.000
    O1417    O        0.81830    0.39390    0.31830    1.000
    Ni242    Ni       0.80488    0.40250    0.30488    1.000
    Ni243    Ni       0.79095    0.90650    0.79095    1.000
    O1418    O        0.81830    0.89390    0.81830    1.000
    Ni244    Ni       0.80488    0.90250    0.80488    1.000
    Ni245    Ni       0.45905    0.34350    0.79095    1.000
    O1419    O        0.43170    0.35610    0.81830    1.000
    Ni246    Ni       0.44512    0.34750    0.80488    1.000
    Ni247    Ni       0.95905    0.34350    0.29095    1.000
    O1420    O        0.93170    0.35610    0.31830    1.000
    Ni248    Ni       0.94512    0.34750    0.30488    1.000
    Ni249    Ni       0.29095    0.84350    0.45905    1.000
    O1421    O        0.31830    0.85610    0.43170    1.000
    Ni250    Ni       0.30488    0.84750    0.44512    1.000
    Ni251    Ni       0.29095    0.34350    0.95905    1.000
    O1422    O        0.31830    0.35610    0.93170    1.000
    Ni252    Ni       0.30488    0.34750    0.94512    1.000
    Ni253    Ni       0.20905    0.70905    0.59350    1.000
    O1423    O        0.18170    0.68170    0.60610    1.000
    Ni254    Ni       0.19512    0.69512    0.59750    1.000
    Ni255    Ni       0.20905    0.20905    0.09350    1.000
    O1424    O        0.18170    0.18170    0.10610    1.000
    Ni256    Ni       0.19512    0.19512    0.09750    1.000
    Ni257    Ni       0.70905    0.54095    0.15650    1.000
    O1425    O        0.68170    0.56830    0.14390    1.000
    Ni258    Ni       0.69512    0.55488    0.15250    1.000
    Ni259    Ni       0.70905    0.04095    0.65650    1.000
    O1426    O        0.68170    0.06830    0.64390    1.000
    Ni260    Ni       0.69512    0.05488    0.65250    1.000
    Ni261    Ni       0.54095    0.20905    0.65650    1.000
    O1427    O        0.56830    0.18170    0.64390    1.000
    Ni262    Ni       0.55488    0.19512    0.65250    1.000
    Ni263    Ni       0.04095    0.20905    0.15650    1.000
    O1428    O        0.06830    0.18170    0.14390    1.000
    Ni264    Ni       0.05488    0.19512    0.15250    1.000
    Ni265    Ni       0.20905    0.65650    0.54095    1.000
    O1429    O        0.18170    0.64390    0.56830    1.000
    Ni266    Ni       0.19512    0.65250    0.55488    1.000
    Ni267    Ni       0.20905    0.15650    0.04095    1.000
    O1430    O        0.18170    0.14390    0.06830    1.000
    Ni268    Ni       0.19512    0.15250    0.05488    1.000
    Ni269    Ni       0.54095    0.15650    0.70905    1.000
    O1431    O        0.56830    0.14390    0.68170    1.000
    Ni270    Ni       0.55488    0.15250    0.69512    1.000
    Ni271    Ni       0.04095    0.15650    0.20905    1.000
    O1432    O        0.06830    0.14390    0.18170    1.000
    Ni272    Ni       0.05488    0.15250    0.19512    1.000
    Ni273    Ni       0.70905    0.59350    0.20905    1.000
    O1433    O        0.68170    0.60610    0.18170    1.000
    Ni274    Ni       0.69512    0.59750    0.19512    1.000
    Ni275    Ni       0.70905    0.09350    0.70905    1.000
    O1434    O        0.68170    0.10610    0.68170    1.000
    Ni276    Ni       0.69512    0.09750    0.69512    1.000
    Ni277    Ni       0.15650    0.70905    0.54095    1.000
    O1435    O        0.14390    0.68170    0.56830    1.000
    Ni278    Ni       0.15250    0.69512    0.55488    1.000
    Ni279    Ni       0.15650    0.20905    0.04095    1.000
    O1436    O        0.14390    0.18170    0.06830    1.000
    Ni280    Ni       0.15250    0.19512    0.05488    1.000
    Ni281    Ni       0.65650    0.54095    0.20905    1.000
    O1437    O        0.64390    0.56830    0.18170    1.000
    Ni282    Ni       0.65250    0.55488    0.19512    1.000
    Ni283    Ni       0.65650    0.04095    0.70905    1.000
    O1438    O        0.64390    0.06830    0.68170    1.000
    Ni284    Ni       0.65250    0.05488    0.69512    1.000
    Ni285    Ni       0.59350    0.20905    0.70905    1.000
    O1439    O        0.60610    0.18170    0.68170    1.000
    Ni286    Ni       0.59750    0.19512    0.69512    1.000
    Ni287    Ni       0.09350    0.20905    0.20905    1.000
    O1440    O        0.10610    0.18170    0.18170    1.000
    Ni288    Ni       0.09750    0.19512    0.19512    1.000
    O1441    O        0.69673    0.05327    0.05327    1.000
    O1442    O        0.05327    0.19673    0.55327    1.000
    O1443    O        0.55327    0.55327    0.69673    1.000
    O1444    O        0.19673    0.69673    0.19673    1.000
    O1445    O        0.05327    0.69673    0.05327    1.000
    O1446    O        0.55327    0.05327    0.19673    1.000
    O1447    O        0.69673    0.55327    0.55327    1.000
    O1448    O        0.19673    0.19673    0.69673    1.000
    O1449    O        0.05327    0.05327    0.69673    1.000
    O1450    O        0.19673    0.55327    0.05327    1.000
    O1451    O        0.55327    0.69673    0.55327    1.000
    O1452    O        0.69673    0.19673    0.19673    1.000
    O1453    O        0.69673    0.69673    0.69673    1.000
    O1454    O        0.80327    0.94673    0.44673    1.000
    O1455    O        0.94673    0.30327    0.94673    1.000
    O1456    O        0.30327    0.80327    0.80327    1.000
    O1457    O        0.30327    0.30327    0.30327    1.000
    O1458    O        0.44673    0.44673    0.30327    1.000
    O1459    O        0.44673    0.30327    0.44673    1.000
    O1460    O        0.80327    0.80327    0.30327    1.000
    O1461    O        0.30327    0.94673    0.94673    1.000
    O1462    O        0.94673    0.44673    0.80327    1.000
    O1463    O        0.80327    0.30327    0.80327    1.000
    O1464    O        0.30327    0.44673    0.44673    1.000
    O1465    O        0.44673    0.80327    0.94673    1.000
    O1466    O        0.94673    0.94673    0.30327    1.000
    O1467    O        0.94673    0.80327    0.44673    1.000
    O1468    O        0.44673    0.94673    0.80327    1.000
    O1469    O        0.80327    0.44673    0.94673    1.000
    O1470    O        0.19673    0.05327    0.55327    1.000
    O1471    O        0.05327    0.55327    0.19673    1.000
    O1472    O        0.55327    0.19673    0.05327    1.000
    C1153    C        0.91540    0.07042    0.07042    1.000
    C1154    C        0.97070    0.07500    0.07500    1.000
    C1155    C        0.99900    0.07570    0.07570    1.000
    C1156    C        0.62937    0.06023    0.06023    1.000
    C1157    C        0.60526    0.07101    0.07101    1.000
    C1158    C        0.91540    0.57042    0.57042    1.000
    C1159    C        0.97070    0.57500    0.57500    1.000
    C1160    C        0.99900    0.57570    0.57570    1.000
    C1161    C        0.62937    0.56023    0.56023    1.000
    C1162    C        0.60526    0.57101    0.57101    1.000
    C1163    C        0.41540    0.07042    0.57042    1.000
    C1164    C        0.47070    0.07500    0.57500    1.000
    C1165    C        0.49900    0.07570    0.57570    1.000
    C1166    C        0.12937    0.06023    0.56023    1.000
    C1167    C        0.10526    0.07101    0.57101    1.000
    C1168    C        0.41540    0.57042    0.07042    1.000
    C1169    C        0.47070    0.57500    0.07500    1.000
    C1170    C        0.49900    0.57570    0.07570    1.000
    C1171    C        0.12937    0.56023    0.06023    1.000
    C1172    C        0.10526    0.57101    0.07101    1.000
    C1173    C        0.83460    0.17958    0.57042    1.000
    C1174    C        0.77930    0.17500    0.57500    1.000
    C1175    C        0.75100    0.17430    0.57570    1.000
    C1176    C        0.12063    0.18977    0.56023    1.000
    C1177    C        0.14474    0.17899    0.57101    1.000
    C1178    C        0.83460    0.67958    0.07042    1.000
    C1179    C        0.77930    0.67500    0.07500    1.000
    C1180    C        0.75100    0.67430    0.07570    1.000
    C1181    C        0.12063    0.68977    0.06023    1.000
    C1182    C        0.14474    0.67899    0.07101    1.000
    C1183    C        0.33460    0.57042    0.67958    1.000
    C1184    C        0.27930    0.57500    0.67500    1.000
    C1185    C        0.25100    0.57570    0.67430    1.000
    C1186    C        0.62063    0.56023    0.68977    1.000
    C1187    C        0.64474    0.57101    0.67899    1.000
    C1188    C        0.33460    0.07042    0.17958    1.000
    C1189    C        0.27930    0.07500    0.17500    1.000
    C1190    C        0.25100    0.07570    0.17430    1.000
    C1191    C        0.62063    0.06023    0.18977    1.000
    C1192    C        0.64474    0.07101    0.17899    1.000
    C1193    C        0.41540    0.67958    0.17958    1.000
    C1194    C        0.47070    0.67500    0.17500    1.000
    C1195    C        0.49900    0.67430    0.17430    1.000
    C1196    C        0.12937    0.68977    0.18977    1.000
    C1197    C        0.10526    0.67899    0.17899    1.000
    C1198    C        0.91540    0.67958    0.67958    1.000
    C1199    C        0.97070    0.67500    0.67500    1.000
    C1200    C        0.99900    0.67430    0.67430    1.000
    C1201    C        0.62937    0.68977    0.68977    1.000
    C1202    C        0.60526    0.67899    0.67899    1.000
    C1203    C        0.91540    0.17958    0.17958    1.000
    C1204    C        0.97070    0.17500    0.17500    1.000
    C1205    C        0.99900    0.17430    0.17430    1.000
    C1206    C        0.62937    0.18977    0.18977    1.000
    C1207    C        0.60526    0.17899    0.17899    1.000
    C1208    C        0.07042    0.91540    0.07042    1.000
    C1209    C        0.07500    0.97070    0.07500    1.000
    C1210    C        0.07570    0.99900    0.07570    1.000
    C1211    C        0.06023    0.62937    0.06023    1.000
    C1212    C        0.07101    0.60526    0.07101    1.000
    C1213    C        0.07042    0.41540    0.57042    1.000
    C1214    C        0.07500    0.47070    0.57500    1.000
    C1215    C        0.07570    0.49900    0.57570    1.000
    C1216    C        0.06023    0.12937    0.56023    1.000
    C1217    C        0.07101    0.10526    0.57101    1.000
    C1218    C        0.57042    0.91540    0.57042    1.000
    C1219    C        0.57500    0.97070    0.57500    1.000
    C1220    C        0.57570    0.99900    0.57570    1.000
    C1221    C        0.56023    0.62937    0.56023    1.000
    C1222    C        0.57101    0.60526    0.57101    1.000
    C1223    C        0.57042    0.41540    0.07042    1.000
    C1224    C        0.57500    0.47070    0.07500    1.000
    C1225    C        0.57570    0.49900    0.07570    1.000
    C1226    C        0.56023    0.12937    0.06023    1.000
    C1227    C        0.57101    0.10526    0.07101    1.000
    C1228    C        0.57042    0.83460    0.17958    1.000
    C1229    C        0.57500    0.77930    0.17500    1.000
    C1230    C        0.57570    0.75100    0.17430    1.000
    C1231    C        0.56023    0.12063    0.18977    1.000
    C1232    C        0.57101    0.14474    0.17899    1.000
    C1233    C        0.07042    0.83460    0.67958    1.000
    C1234    C        0.07500    0.77930    0.67500    1.000
    C1235    C        0.07570    0.75100    0.67430    1.000
    C1236    C        0.06023    0.12063    0.68977    1.000
    C1237    C        0.07101    0.14474    0.67899    1.000
    C1238    C        0.67958    0.33460    0.57042    1.000
    C1239    C        0.67500    0.27930    0.57500    1.000
    C1240    C        0.67430    0.25100    0.57570    1.000
    C1241    C        0.68977    0.62063    0.56023    1.000
    C1242    C        0.67899    0.64474    0.57101    1.000
    C1243    C        0.67958    0.83460    0.07042    1.000
    C1244    C        0.67500    0.77930    0.07500    1.000
    C1245    C        0.67430    0.75100    0.07570    1.000
    C1246    C        0.68977    0.12063    0.06023    1.000
    C1247    C        0.67899    0.14474    0.07101    1.000
    C1248    C        0.17958    0.41540    0.67958    1.000
    C1249    C        0.17500    0.47070    0.67500    1.000
    C1250    C        0.17430    0.49900    0.67430    1.000
    C1251    C        0.18977    0.12937    0.68977    1.000
    C1252    C        0.17899    0.10526    0.67899    1.000
    C1253    C        0.17958    0.91540    0.17958    1.000
    C1254    C        0.17500    0.97070    0.17500    1.000
    C1255    C        0.17430    0.99900    0.17430    1.000
    C1256    C        0.18977    0.62937    0.18977    1.000
    C1257    C        0.17899    0.60526    0.17899    1.000
    C1258    C        0.07042    0.07042    0.91540    1.000
    C1259    C        0.07500    0.07500    0.97070    1.000
    C1260    C        0.07570    0.07570    0.99900    1.000
    C1261    C        0.06023    0.06023    0.62937    1.000
    C1262    C        0.07101    0.07101    0.60526    1.000
    C1263    C        0.07042    0.57042    0.41540    1.000
    C1264    C        0.07500    0.57500    0.47070    1.000
    C1265    C        0.07570    0.57570    0.49900    1.000
    C1266    C        0.06023    0.56023    0.12937    1.000
    C1267    C        0.07101    0.57101    0.10526    1.000
    C1268    C        0.57042    0.07042    0.41540    1.000
    C1269    C        0.57500    0.07500    0.47070    1.000
    C1270    C        0.57570    0.07570    0.49900    1.000
    C1271    C        0.56023    0.06023    0.12937    1.000
    C1272    C        0.57101    0.07101    0.10526    1.000
    C1273    C        0.57042    0.57042    0.91540    1.000
    C1274    C        0.57500    0.57500    0.97070    1.000
    C1275    C        0.57570    0.57570    0.99900    1.000
    C1276    C        0.56023    0.56023    0.62937    1.000
    C1277    C        0.57101    0.57101    0.60526    1.000
    C1278    C        0.17958    0.57042    0.83460    1.000
    C1279    C        0.17500    0.57500    0.77930    1.000
    C1280    C        0.17430    0.57570    0.75100    1.000
    C1281    C        0.18977    0.56023    0.12063    1.000
    C1282    C        0.17899    0.57101    0.14474    1.000
    C1283    C        0.17958    0.07042    0.33460    1.000
    C1284    C        0.17500    0.07500    0.27930    1.000
    C1285    C        0.17430    0.07570    0.25100    1.000
    C1286    C        0.18977    0.06023    0.62063    1.000
    C1287    C        0.17899    0.07101    0.64474    1.000
    C1288    C        0.57042    0.67958    0.33460    1.000
    C1289    C        0.57500    0.67500    0.27930    1.000
    C1290    C        0.57570    0.67430    0.25100    1.000
    C1291    C        0.56023    0.68977    0.62063    1.000
    C1292    C        0.57101    0.67899    0.64474    1.000
    C1293    C        0.07042    0.67958    0.83460    1.000
    C1294    C        0.07500    0.67500    0.77930    1.000
    C1295    C        0.07570    0.67430    0.75100    1.000
    C1296    C        0.06023    0.68977    0.12063    1.000
    C1297    C        0.07101    0.67899    0.14474    1.000
    C1298    C        0.67958    0.17958    0.41540    1.000
    C1299    C        0.67500    0.17500    0.47070    1.000
    C1300    C        0.67430    0.17430    0.49900    1.000
    C1301    C        0.68977    0.18977    0.12937    1.000
    C1302    C        0.67899    0.17899    0.10526    1.000
    C1303    C        0.67958    0.67958    0.91540    1.000
    C1304    C        0.67500    0.67500    0.97070    1.000
    C1305    C        0.67430    0.67430    0.99900    1.000
    C1306    C        0.68977    0.68977    0.62937    1.000
    C1307    C        0.67899    0.67899    0.60526    1.000
    C1308    C        0.17958    0.17958    0.91540    1.000
    C1309    C        0.17500    0.17500    0.97070    1.000
    C1310    C        0.17430    0.17430    0.99900    1.000
    C1311    C        0.18977    0.18977    0.62937    1.000
    C1312    C        0.17899    0.17899    0.60526    1.000
    C1313    C        0.82042    0.16540    0.42958    1.000
    C1314    C        0.82500    0.22070    0.42500    1.000
    C1315    C        0.82570    0.24900    0.42430    1.000
    C1316    C        0.81023    0.87937    0.43977    1.000
    C1317    C        0.82101    0.85526    0.42899    1.000
    C1318    C        0.82042    0.66540    0.92958    1.000
    C1319    C        0.82500    0.72070    0.92500    1.000
    C1320    C        0.82570    0.74900    0.92430    1.000
    C1321    C        0.81023    0.37937    0.93977    1.000
    C1322    C        0.82101    0.35526    0.92899    1.000
    C1323    C        0.92958    0.08460    0.92958    1.000
    C1324    C        0.92500    0.02930    0.92500    1.000
    C1325    C        0.92430    0.00100    0.92430    1.000
    C1326    C        0.93977    0.37063    0.93977    1.000
    C1327    C        0.92899    0.39474    0.92899    1.000
    C1328    C        0.92958    0.58460    0.42958    1.000
    C1329    C        0.92500    0.52930    0.42500    1.000
    C1330    C        0.92430    0.50100    0.42430    1.000
    C1331    C        0.93977    0.87063    0.43977    1.000
    C1332    C        0.92899    0.89474    0.42899    1.000
    C1333    C        0.42958    0.08460    0.42958    1.000
    C1334    C        0.42500    0.02930    0.42500    1.000
    C1335    C        0.42430    0.00100    0.42430    1.000
    C1336    C        0.43977    0.37063    0.43977    1.000
    C1337    C        0.42899    0.39474    0.42899    1.000
    C1338    C        0.42958    0.58460    0.92958    1.000
    C1339    C        0.42500    0.52930    0.92500    1.000
    C1340    C        0.42430    0.50100    0.92430    1.000
    C1341    C        0.43977    0.87063    0.93977    1.000
    C1342    C        0.42899    0.89474    0.92899    1.000
    C1343    C        0.32042    0.58460    0.82042    1.000
    C1344    C        0.32500    0.52930    0.82500    1.000
    C1345    C        0.32570    0.50100    0.82570    1.000
    C1346    C        0.31023    0.87063    0.81023    1.000
    C1347    C        0.32101    0.89474    0.82101    1.000
    C1348    C        0.32042    0.08460    0.32042    1.000
    C1349    C        0.32500    0.02930    0.32500    1.000
    C1350    C        0.32570    0.00100    0.32570    1.000
    C1351    C        0.31023    0.37063    0.31023    1.000
    C1352    C        0.32101    0.39474    0.32101    1.000
    C1353    C        0.42958    0.66540    0.32042    1.000
    C1354    C        0.42500    0.72070    0.32500    1.000
    C1355    C        0.42430    0.74900    0.32570    1.000
    C1356    C        0.43977    0.37937    0.31023    1.000
    C1357    C        0.42899    0.35526    0.32101    1.000
    C1358    C        0.92958    0.66540    0.82042    1.000
    C1359    C        0.92500    0.72070    0.82500    1.000
    C1360    C        0.92430    0.74900    0.82570    1.000
    C1361    C        0.93977    0.37937    0.81023    1.000
    C1362    C        0.92899    0.35526    0.82101    1.000
    C1363    C        0.66540    0.32042    0.42958    1.000
    C1364    C        0.72070    0.32500    0.42500    1.000
    C1365    C        0.74900    0.32570    0.42430    1.000
    C1366    C        0.37937    0.31023    0.43977    1.000
    C1367    C        0.35526    0.32101    0.42899    1.000
    C1368    C        0.66540    0.82042    0.92958    1.000
    C1369    C        0.72070    0.82500    0.92500    1.000
    C1370    C        0.74900    0.82570    0.92430    1.000
    C1371    C        0.37937    0.81023    0.93977    1.000
    C1372    C        0.35526    0.82101    0.92899    1.000
    C1373    C        0.58460    0.82042    0.32042    1.000
    C1374    C        0.52930    0.82500    0.32500    1.000
    C1375    C        0.50100    0.82570    0.32570    1.000
    C1376    C        0.87063    0.81023    0.31023    1.000
    C1377    C        0.89474    0.82101    0.32101    1.000
    C1378    C        0.08460    0.82042    0.82042    1.000
    C1379    C        0.02930    0.82500    0.82500    1.000
    C1380    C        0.00100    0.82570    0.82570    1.000
    C1381    C        0.37063    0.81023    0.81023    1.000
    C1382    C        0.39474    0.82101    0.82101    1.000
    C1383    C        0.08460    0.32042    0.32042    1.000
    C1384    C        0.02930    0.32500    0.32500    1.000
    C1385    C        0.00100    0.32570    0.32570    1.000
    C1386    C        0.37063    0.31023    0.31023    1.000
    C1387    C        0.39474    0.32101    0.32101    1.000
    C1388    C        0.08460    0.92958    0.92958    1.000
    C1389    C        0.02930    0.92500    0.92500    1.000
    C1390    C        0.00100    0.92430    0.92430    1.000
    C1391    C        0.37063    0.93977    0.93977    1.000
    C1392    C        0.39474    0.92899    0.92899    1.000
    C1393    C        0.08460    0.42958    0.42958    1.000
    C1394    C        0.02930    0.42500    0.42500    1.000
    C1395    C        0.00100    0.42430    0.42430    1.000
    C1396    C        0.37063    0.43977    0.43977    1.000
    C1397    C        0.39474    0.42899    0.42899    1.000
    C1398    C        0.58460    0.92958    0.42958    1.000
    C1399    C        0.52930    0.92500    0.42500    1.000
    C1400    C        0.50100    0.92430    0.42430    1.000
    C1401    C        0.87063    0.93977    0.43977    1.000
    C1402    C        0.89474    0.92899    0.42899    1.000
    C1403    C        0.58460    0.42958    0.92958    1.000
    C1404    C        0.52930    0.42500    0.92500    1.000
    C1405    C        0.50100    0.42430    0.92430    1.000
    C1406    C        0.87063    0.43977    0.93977    1.000
    C1407    C        0.89474    0.42899    0.92899    1.000
    C1408    C        0.16540    0.42958    0.82042    1.000
    C1409    C        0.22070    0.42500    0.82500    1.000
    C1410    C        0.24900    0.42430    0.82570    1.000
    C1411    C        0.87937    0.43977    0.81023    1.000
    C1412    C        0.85526    0.42899    0.82101    1.000
    C1413    C        0.16540    0.92958    0.32042    1.000
    C1414    C        0.22070    0.92500    0.32500    1.000
    C1415    C        0.24900    0.92430    0.32570    1.000
    C1416    C        0.87937    0.93977    0.31023    1.000
    C1417    C        0.85526    0.92899    0.32101    1.000
    C1418    C        0.82042    0.32042    0.58460    1.000
    C1419    C        0.82500    0.32500    0.52930    1.000
    C1420    C        0.82570    0.32570    0.50100    1.000
    C1421    C        0.81023    0.31023    0.87063    1.000
    C1422    C        0.82101    0.32101    0.89474    1.000
    C1423    C        0.82042    0.82042    0.08460    1.000
    C1424    C        0.82500    0.82500    0.02930    1.000
    C1425    C        0.82570    0.82570    0.00100    1.000
    C1426    C        0.81023    0.81023    0.37063    1.000
    C1427    C        0.82101    0.82101    0.39474    1.000
    C1428    C        0.32042    0.32042    0.08460    1.000
    C1429    C        0.32500    0.32500    0.02930    1.000
    C1430    C        0.32570    0.32570    0.00100    1.000
    C1431    C        0.31023    0.31023    0.37063    1.000
    C1432    C        0.32101    0.32101    0.39474    1.000
    C1433    C        0.32042    0.42958    0.66540    1.000
    C1434    C        0.32500    0.42500    0.72070    1.000
    C1435    C        0.32570    0.42430    0.74900    1.000
    C1436    C        0.31023    0.43977    0.37937    1.000
    C1437    C        0.32101    0.42899    0.35526    1.000
    C1438    C        0.32042    0.92958    0.16540    1.000
    C1439    C        0.32500    0.92500    0.22070    1.000
    C1440    C        0.32570    0.92430    0.24900    1.000
    C1441    C        0.31023    0.93977    0.87937    1.000
    C1442    C        0.32101    0.92899    0.85526    1.000
    C1443    C        0.42958    0.82042    0.16540    1.000
    C1444    C        0.42500    0.82500    0.22070    1.000
    C1445    C        0.42430    0.82570    0.24900    1.000
    C1446    C        0.43977    0.81023    0.87937    1.000
    C1447    C        0.42899    0.82101    0.85526    1.000
    C1448    C        0.92958    0.82042    0.66540    1.000
    C1449    C        0.92500    0.82500    0.72070    1.000
    C1450    C        0.92430    0.82570    0.74900    1.000
    C1451    C        0.93977    0.81023    0.37937    1.000
    C1452    C        0.92899    0.82101    0.35526    1.000
    C1453    C        0.92958    0.92958    0.08460    1.000
    C1454    C        0.92500    0.92500    0.02930    1.000
    C1455    C        0.92430    0.92430    0.00100    1.000
    C1456    C        0.93977    0.93977    0.37063    1.000
    C1457    C        0.92899    0.92899    0.39474    1.000
    C1458    C        0.92958    0.42958    0.58460    1.000
    C1459    C        0.92500    0.42500    0.52930    1.000
    C1460    C        0.92430    0.42430    0.50100    1.000
    C1461    C        0.93977    0.43977    0.87063    1.000
    C1462    C        0.92899    0.42899    0.89474    1.000
    C1463    C        0.42958    0.92958    0.58460    1.000
    C1464    C        0.42500    0.92500    0.52930    1.000
    C1465    C        0.42430    0.92430    0.50100    1.000
    C1466    C        0.43977    0.93977    0.87063    1.000
    C1467    C        0.42899    0.92899    0.89474    1.000
    C1468    C        0.42958    0.42958    0.08460    1.000
    C1469    C        0.42500    0.42500    0.02930    1.000
    C1470    C        0.42430    0.42430    0.00100    1.000
    C1471    C        0.43977    0.43977    0.37063    1.000
    C1472    C        0.42899    0.42899    0.39474    1.000
    C1473    C        0.16540    0.82042    0.42958    1.000
    C1474    C        0.22070    0.82500    0.42500    1.000
    C1475    C        0.24900    0.82570    0.42430    1.000
    C1476    C        0.87937    0.81023    0.43977    1.000
    C1477    C        0.85526    0.82101    0.42899    1.000
    C1478    C        0.16540    0.32042    0.92958    1.000
    C1479    C        0.22070    0.32500    0.92500    1.000
    C1480    C        0.24900    0.32570    0.92430    1.000
    C1481    C        0.87937    0.31023    0.93977    1.000
    C1482    C        0.85526    0.32101    0.92899    1.000
    C1483    C        0.66540    0.42958    0.32042    1.000
    C1484    C        0.72070    0.42500    0.32500    1.000
    C1485    C        0.74900    0.42430    0.32570    1.000
    C1486    C        0.37937    0.43977    0.31023    1.000
    C1487    C        0.35526    0.42899    0.32101    1.000
    C1488    C        0.66540    0.92958    0.82042    1.000
    C1489    C        0.72070    0.92500    0.82500    1.000
    C1490    C        0.74900    0.92430    0.82570    1.000
    C1491    C        0.37937    0.93977    0.81023    1.000
    C1492    C        0.35526    0.92899    0.82101    1.000
    C1493    C        0.58460    0.32042    0.82042    1.000
    C1494    C        0.52930    0.32500    0.82500    1.000
    C1495    C        0.50100    0.32570    0.82570    1.000
    C1496    C        0.87063    0.31023    0.81023    1.000
    C1497    C        0.89474    0.32101    0.82101    1.000
    C1498    C        0.42958    0.16540    0.82042    1.000
    C1499    C        0.42500    0.22070    0.82500    1.000
    C1500    C        0.42430    0.24900    0.82570    1.000
    C1501    C        0.43977    0.87937    0.81023    1.000
    C1502    C        0.42899    0.85526    0.82101    1.000
    C1503    C        0.92958    0.16540    0.32042    1.000
    C1504    C        0.92500    0.22070    0.32500    1.000
    C1505    C        0.92430    0.24900    0.32570    1.000
    C1506    C        0.93977    0.87937    0.31023    1.000
    C1507    C        0.92899    0.85526    0.32101    1.000
    C1508    C        0.32042    0.66540    0.42958    1.000
    C1509    C        0.32500    0.72070    0.42500    1.000
    C1510    C        0.32570    0.74900    0.42430    1.000
    C1511    C        0.31023    0.37937    0.43977    1.000
    C1512    C        0.32101    0.35526    0.42899    1.000
    C1513    C        0.32042    0.16540    0.92958    1.000
    C1514    C        0.32500    0.22070    0.92500    1.000
    C1515    C        0.32570    0.24900    0.92430    1.000
    C1516    C        0.31023    0.87937    0.93977    1.000
    C1517    C        0.32101    0.85526    0.92899    1.000
    C1518    C        0.82042    0.58460    0.32042    1.000
    C1519    C        0.82500    0.52930    0.32500    1.000
    C1520    C        0.82570    0.50100    0.32570    1.000
    C1521    C        0.81023    0.87063    0.31023    1.000
    C1522    C        0.82101    0.89474    0.32101    1.000
    C1523    C        0.82042    0.08460    0.82042    1.000
    C1524    C        0.82500    0.02930    0.82500    1.000
    C1525    C        0.82570    0.00100    0.82570    1.000
    C1526    C        0.81023    0.37063    0.81023    1.000
    C1527    C        0.82101    0.39474    0.82101    1.000
    C1528    C        0.82042    0.42958    0.16540    1.000
    C1529    C        0.82500    0.42500    0.22070    1.000
    C1530    C        0.82570    0.42430    0.24900    1.000
    C1531    C        0.81023    0.43977    0.87937    1.000
    C1532    C        0.82101    0.42899    0.85526    1.000
    C1533    C        0.82042    0.92958    0.66540    1.000
    C1534    C        0.82500    0.92500    0.72070    1.000
    C1535    C        0.82570    0.92430    0.74900    1.000
    C1536    C        0.81023    0.93977    0.37937    1.000
    C1537    C        0.82101    0.92899    0.35526    1.000
    C1538    C        0.42958    0.32042    0.66540    1.000
    C1539    C        0.42500    0.32500    0.72070    1.000
    C1540    C        0.42430    0.32570    0.74900    1.000
    C1541    C        0.43977    0.31023    0.37937    1.000
    C1542    C        0.42899    0.32101    0.35526    1.000
    C1543    C        0.92958    0.32042    0.16540    1.000
    C1544    C        0.92500    0.32500    0.22070    1.000
    C1545    C        0.92430    0.32570    0.24900    1.000
    C1546    C        0.93977    0.31023    0.87937    1.000
    C1547    C        0.92899    0.32101    0.85526    1.000
    C1548    C        0.32042    0.82042    0.58460    1.000
    C1549    C        0.32500    0.82500    0.52930    1.000
    C1550    C        0.32570    0.82570    0.50100    1.000
    C1551    C        0.31023    0.81023    0.87063    1.000
    C1552    C        0.32101    0.82101    0.89474    1.000
    C1553    C        0.17958    0.83460    0.57042    1.000
    C1554    C        0.17500    0.77930    0.57500    1.000
    C1555    C        0.17430    0.75100    0.57570    1.000
    C1556    C        0.18977    0.12063    0.56023    1.000
    C1557    C        0.17899    0.14474    0.57101    1.000
    C1558    C        0.17958    0.33460    0.07042    1.000
    C1559    C        0.17500    0.27930    0.07500    1.000
    C1560    C        0.17430    0.25100    0.07570    1.000
    C1561    C        0.18977    0.62063    0.06023    1.000
    C1562    C        0.17899    0.64474    0.07101    1.000
    C1563    C        0.67958    0.41540    0.17958    1.000
    C1564    C        0.67500    0.47070    0.17500    1.000
    C1565    C        0.67430    0.49900    0.17430    1.000
    C1566    C        0.68977    0.12937    0.18977    1.000
    C1567    C        0.67899    0.10526    0.17899    1.000
    C1568    C        0.67958    0.91540    0.67958    1.000
    C1569    C        0.67500    0.97070    0.67500    1.000
    C1570    C        0.67430    0.99900    0.67430    1.000
    C1571    C        0.68977    0.62937    0.68977    1.000
    C1572    C        0.67899    0.60526    0.67899    1.000
    C1573    C        0.57042    0.33460    0.67958    1.000
    C1574    C        0.57500    0.27930    0.67500    1.000
    C1575    C        0.57570    0.25100    0.67430    1.000
    C1576    C        0.56023    0.62063    0.68977    1.000
    C1577    C        0.57101    0.64474    0.67899    1.000
    C1578    C        0.07042    0.33460    0.17958    1.000
    C1579    C        0.07500    0.27930    0.17500    1.000
    C1580    C        0.07570    0.25100    0.17430    1.000
    C1581    C        0.06023    0.62063    0.18977    1.000
    C1582    C        0.07101    0.64474    0.17899    1.000
    C1583    C        0.33460    0.67958    0.57042    1.000
    C1584    C        0.27930    0.67500    0.57500    1.000
    C1585    C        0.25100    0.67430    0.57570    1.000
    C1586    C        0.62063    0.68977    0.56023    1.000
    C1587    C        0.64474    0.67899    0.57101    1.000
    C1588    C        0.33460    0.17958    0.07042    1.000
    C1589    C        0.27930    0.17500    0.07500    1.000
    C1590    C        0.25100    0.17430    0.07570    1.000
    C1591    C        0.62063    0.18977    0.06023    1.000
    C1592    C        0.64474    0.17899    0.07101    1.000
    C1593    C        0.41540    0.17958    0.67958    1.000
    C1594    C        0.47070    0.17500    0.67500    1.000
    C1595    C        0.49900    0.17430    0.67430    1.000
    C1596    C        0.12937    0.18977    0.68977    1.000
    C1597    C        0.10526    0.17899    0.67899    1.000
    C1598    C        0.83460    0.57042    0.17958    1.000
    C1599    C        0.77930    0.57500    0.17500    1.000
    C1600    C        0.75100    0.57570    0.17430    1.000
    C1601    C        0.12063    0.56023    0.18977    1.000
    C1602    C        0.14474    0.57101    0.17899    1.000
    C1603    C        0.83460    0.07042    0.67958    1.000
    C1604    C        0.77930    0.07500    0.67500    1.000
    C1605    C        0.75100    0.07570    0.67430    1.000
    C1606    C        0.12063    0.06023    0.68977    1.000
    C1607    C        0.14474    0.07101    0.67899    1.000
    C1608    C        0.17958    0.67958    0.41540    1.000
    C1609    C        0.17500    0.67500    0.47070    1.000
    C1610    C        0.17430    0.67430    0.49900    1.000
    C1611    C        0.18977    0.68977    0.12937    1.000
    C1612    C        0.17899    0.67899    0.10526    1.000
    C1613    C        0.67958    0.57042    0.33460    1.000
    C1614    C        0.67500    0.57500    0.27930    1.000
    C1615    C        0.67430    0.57570    0.25100    1.000
    C1616    C        0.68977    0.56023    0.62063    1.000
    C1617    C        0.67899    0.57101    0.64474    1.000
    C1618    C        0.67958    0.07042    0.83460    1.000
    C1619    C        0.67500    0.07500    0.77930    1.000
    C1620    C        0.67430    0.07570    0.75100    1.000
    C1621    C        0.68977    0.06023    0.12063    1.000
    C1622    C        0.67899    0.07101    0.14474    1.000
    C1623    C        0.57042    0.17958    0.83460    1.000
    C1624    C        0.57500    0.17500    0.77930    1.000
    C1625    C        0.57570    0.17430    0.75100    1.000
    C1626    C        0.56023    0.18977    0.12063    1.000
    C1627    C        0.57101    0.17899    0.14474    1.000
    C1628    C        0.07042    0.17958    0.33460    1.000
    C1629    C        0.07500    0.17500    0.27930    1.000
    C1630    C        0.07570    0.17430    0.25100    1.000
    C1631    C        0.06023    0.18977    0.62063    1.000
    C1632    C        0.07101    0.17899    0.64474    1.000
    C1633    C        0.79164    0.11720    0.95836    1.000
    C1634    C        0.75598    0.09451    0.99402    1.000
    C1635    C        0.73656    0.08266    0.01344    1.000
    C1636    C        0.29164    0.11720    0.45836    1.000
    C1637    C        0.25598    0.09451    0.49402    1.000
    C1638    C        0.23656    0.08266    0.51344    1.000
    C1639    C        0.95836    0.13280    0.45836    1.000
    C1640    C        0.99402    0.15549    0.49402    1.000
    C1641    C        0.01344    0.16734    0.51344    1.000
    C1642    C        0.95836    0.63280    0.95836    1.000
    C1643    C        0.99402    0.65549    0.99402    1.000
    C1644    C        0.01344    0.66734    0.01344    1.000
    C1645    C        0.45836    0.61720    0.79164    1.000
    C1646    C        0.49402    0.59451    0.75598    1.000
    C1647    C        0.51344    0.58266    0.73656    1.000
    C1648    C        0.45836    0.11720    0.29164    1.000
    C1649    C        0.49402    0.09451    0.25598    1.000
    C1650    C        0.51344    0.08266    0.23656    1.000
    C1651    C        0.29164    0.63280    0.29164    1.000
    C1652    C        0.25598    0.65549    0.25598    1.000
    C1653    C        0.23656    0.66734    0.23656    1.000
    C1654    C        0.29164    0.13280    0.79164    1.000
    C1655    C        0.25598    0.15549    0.75598    1.000
    C1656    C        0.23656    0.16734    0.73656    1.000
    C1657    C        0.79164    0.63280    0.79164    1.000
    C1658    C        0.75598    0.65549    0.75598    1.000
    C1659    C        0.73656    0.66734    0.73656    1.000
    C1660    C        0.79164    0.13280    0.29164    1.000
    C1661    C        0.75598    0.15549    0.25598    1.000
    C1662    C        0.73656    0.16734    0.23656    1.000
    C1663    C        0.95836    0.79164    0.11720    1.000
    C1664    C        0.99402    0.75598    0.09451    1.000
    C1665    C        0.01344    0.73656    0.08266    1.000
    C1666    C        0.95836    0.29164    0.61720    1.000
    C1667    C        0.99402    0.25598    0.59451    1.000
    C1668    C        0.01344    0.23656    0.58266    1.000
    C1669    C        0.45836    0.95836    0.13280    1.000
    C1670    C        0.49402    0.99402    0.15549    1.000
    C1671    C        0.51344    0.01344    0.16734    1.000
    C1672    C        0.45836    0.45836    0.63280    1.000
    C1673    C        0.49402    0.49402    0.65549    1.000
    C1674    C        0.51344    0.51344    0.66734    1.000
    C1675    C        0.95836    0.95836    0.63280    1.000
    C1676    C        0.99402    0.99402    0.65549    1.000
    C1677    C        0.01344    0.01344    0.66734    1.000
    C1678    C        0.79164    0.45836    0.61720    1.000
    C1679    C        0.75598    0.49402    0.59451    1.000
    C1680    C        0.73656    0.51344    0.58266    1.000
    C1681    C        0.29164    0.45836    0.11720    1.000
    C1682    C        0.25598    0.49402    0.09451    1.000
    C1683    C        0.23656    0.51344    0.08266    1.000
    C1684    C        0.29164    0.29164    0.63280    1.000
    C1685    C        0.25598    0.25598    0.65549    1.000
    C1686    C        0.23656    0.23656    0.66734    1.000
    C1687    C        0.29164    0.79164    0.13280    1.000
    C1688    C        0.25598    0.75598    0.15549    1.000
    C1689    C        0.23656    0.73656    0.16734    1.000
    C1690    C        0.79164    0.29164    0.13280    1.000
    C1691    C        0.75598    0.25598    0.15549    1.000
    C1692    C        0.73656    0.23656    0.16734    1.000
    C1693    C        0.79164    0.79164    0.63280    1.000
    C1694    C        0.75598    0.75598    0.65549    1.000
    C1695    C        0.73656    0.73656    0.66734    1.000
    C1696    C        0.11720    0.95836    0.79164    1.000
    C1697    C        0.09451    0.99402    0.75598    1.000
    C1698    C        0.08266    0.01344    0.73656    1.000
    C1699    C        0.11720    0.45836    0.29164    1.000
    C1700    C        0.09451    0.49402    0.25598    1.000
    C1701    C        0.08266    0.51344    0.23656    1.000
    C1702    C        0.13280    0.45836    0.95836    1.000
    C1703    C        0.15549    0.49402    0.99402    1.000
    C1704    C        0.16734    0.51344    0.01344    1.000
    C1705    C        0.63280    0.45836    0.45836    1.000
    C1706    C        0.65549    0.49402    0.49402    1.000
    C1707    C        0.66734    0.51344    0.51344    1.000
    C1708    C        0.63280    0.95836    0.95836    1.000
    C1709    C        0.65549    0.99402    0.99402    1.000
    C1710    C        0.66734    0.01344    0.01344    1.000
    C1711    C        0.61720    0.79164    0.45836    1.000
    C1712    C        0.59451    0.75598    0.49402    1.000
    C1713    C        0.58266    0.73656    0.51344    1.000
    C1714    C        0.61720    0.29164    0.95836    1.000
    C1715    C        0.59451    0.25598    0.99402    1.000
    C1716    C        0.58266    0.23656    0.01344    1.000
    C1717    C        0.63280    0.29164    0.29164    1.000
    C1718    C        0.65549    0.25598    0.25598    1.000
    C1719    C        0.66734    0.23656    0.23656    1.000
    C1720    C        0.63280    0.79164    0.79164    1.000
    C1721    C        0.65549    0.75598    0.75598    1.000
    C1722    C        0.66734    0.73656    0.73656    1.000
    C1723    C        0.13280    0.29164    0.79164    1.000
    C1724    C        0.15549    0.25598    0.75598    1.000
    C1725    C        0.16734    0.23656    0.73656    1.000
    C1726    C        0.13280    0.79164    0.29164    1.000
    C1727    C        0.15549    0.75598    0.25598    1.000
    C1728    C        0.16734    0.73656    0.23656    1.000
    C1729    C        0.86720    0.04164    0.54164    1.000
    C1730    C        0.84451    0.00598    0.50598    1.000
    C1731    C        0.83266    0.98656    0.48656    1.000
    C1732    C        0.36720    0.04164    0.04164    1.000
    C1733    C        0.34451    0.00598    0.00598    1.000
    C1734    C        0.33266    0.98656    0.98656    1.000
    C1735    C        0.36720    0.54164    0.54164    1.000
    C1736    C        0.34451    0.50598    0.50598    1.000
    C1737    C        0.33266    0.48656    0.48656    1.000
    C1738    C        0.88280    0.20836    0.04164    1.000
    C1739    C        0.90549    0.24402    0.00598    1.000
    C1740    C        0.91734    0.26344    0.98656    1.000
    C1741    C        0.88280    0.70836    0.54164    1.000
    C1742    C        0.90549    0.74402    0.50598    1.000
    C1743    C        0.91734    0.76344    0.48656    1.000
    C1744    C        0.38280    0.20836    0.54164    1.000
    C1745    C        0.40549    0.24402    0.50598    1.000
    C1746    C        0.41734    0.26344    0.48656    1.000
    C1747    C        0.36720    0.70836    0.70836    1.000
    C1748    C        0.34451    0.74402    0.74402    1.000
    C1749    C        0.33266    0.76344    0.76344    1.000
    C1750    C        0.36720    0.20836    0.20836    1.000
    C1751    C        0.34451    0.24402    0.24402    1.000
    C1752    C        0.33266    0.26344    0.26344    1.000
    C1753    C        0.86720    0.70836    0.20836    1.000
    C1754    C        0.84451    0.74402    0.24402    1.000
    C1755    C        0.83266    0.76344    0.26344    1.000
    C1756    C        0.86720    0.20836    0.70836    1.000
    C1757    C        0.84451    0.24402    0.74402    1.000
    C1758    C        0.83266    0.26344    0.76344    1.000
    C1759    C        0.38280    0.54164    0.20836    1.000
    C1760    C        0.40549    0.50598    0.24402    1.000
    C1761    C        0.41734    0.48656    0.26344    1.000
    C1762    C        0.38280    0.04164    0.70836    1.000
    C1763    C        0.40549    0.00598    0.74402    1.000
    C1764    C        0.41734    0.98656    0.76344    1.000
    C1765    C        0.54164    0.20836    0.38280    1.000
    C1766    C        0.50598    0.24402    0.40549    1.000
    C1767    C        0.48656    0.26344    0.41734    1.000
    C1768    C        0.54164    0.70836    0.88280    1.000
    C1769    C        0.50598    0.74402    0.90549    1.000
    C1770    C        0.48656    0.76344    0.91734    1.000
    C1771    C        0.70836    0.70836    0.36720    1.000
    C1772    C        0.74402    0.74402    0.34451    1.000
    C1773    C        0.76344    0.76344    0.33266    1.000
    C1774    C        0.70836    0.20836    0.86720    1.000
    C1775    C        0.74402    0.24402    0.84451    1.000
    C1776    C        0.76344    0.26344    0.83266    1.000
    C1777    C        0.20836    0.70836    0.86720    1.000
    C1778    C        0.24402    0.74402    0.84451    1.000
    C1779    C        0.26344    0.76344    0.83266    1.000
    C1780    C        0.20836    0.20836    0.36720    1.000
    C1781    C        0.24402    0.24402    0.34451    1.000
    C1782    C        0.26344    0.26344    0.33266    1.000
    C1783    C        0.20836    0.04164    0.88280    1.000
    C1784    C        0.24402    0.00598    0.90549    1.000
    C1785    C        0.26344    0.98656    0.91734    1.000
    C1786    C        0.20836    0.54164    0.38280    1.000
    C1787    C        0.24402    0.50598    0.40549    1.000
    C1788    C        0.26344    0.48656    0.41734    1.000
    C1789    C        0.70836    0.04164    0.38280    1.000
    C1790    C        0.74402    0.00598    0.40549    1.000
    C1791    C        0.76344    0.98656    0.41734    1.000
    C1792    C        0.04164    0.54164    0.86720    1.000
    C1793    C        0.00598    0.50598    0.84451    1.000
    C1794    C        0.98656    0.48656    0.83266    1.000
    C1795    C        0.04164    0.04164    0.36720    1.000
    C1796    C        0.00598    0.00598    0.34451    1.000
    C1797    C        0.98656    0.98656    0.33266    1.000
    C1798    C        0.54164    0.54164    0.36720    1.000
    C1799    C        0.50598    0.50598    0.34451    1.000
    C1800    C        0.48656    0.48656    0.33266    1.000
    C1801    C        0.70836    0.36720    0.70836    1.000
    C1802    C        0.74402    0.34451    0.74402    1.000
    C1803    C        0.76344    0.33266    0.76344    1.000
    C1804    C        0.70836    0.86720    0.20836    1.000
    C1805    C        0.74402    0.84451    0.24402    1.000
    C1806    C        0.76344    0.83266    0.26344    1.000
    C1807    C        0.20836    0.36720    0.20836    1.000
    C1808    C        0.24402    0.34451    0.24402    1.000
    C1809    C        0.26344    0.33266    0.26344    1.000
    C1810    C        0.20836    0.86720    0.70836    1.000
    C1811    C        0.24402    0.84451    0.74402    1.000
    C1812    C        0.26344    0.83266    0.76344    1.000
    C1813    C        0.20836    0.38280    0.54164    1.000
    C1814    C        0.24402    0.40549    0.50598    1.000
    C1815    C        0.26344    0.41734    0.48656    1.000
    C1816    C        0.70836    0.38280    0.04164    1.000
    C1817    C        0.74402    0.40549    0.00598    1.000
    C1818    C        0.76344    0.41734    0.98656    1.000
    C1819    C        0.54164    0.86720    0.04164    1.000
    C1820    C        0.50598    0.84451    0.00598    1.000
    C1821    C        0.48656    0.83266    0.98656    1.000
    C1822    C        0.54164    0.36720    0.54164    1.000
    C1823    C        0.50598    0.34451    0.50598    1.000
    C1824    C        0.48656    0.33266    0.48656    1.000
    C1825    C        0.04164    0.88280    0.20836    1.000
    C1826    C        0.00598    0.90549    0.24402    1.000
    C1827    C        0.98656    0.91734    0.26344    1.000
    C1828    C        0.04164    0.38280    0.70836    1.000
    C1829    C        0.00598    0.40549    0.74402    1.000
    C1830    C        0.98656    0.41734    0.76344    1.000
    C1831    C        0.54164    0.38280    0.20836    1.000
    C1832    C        0.50598    0.40549    0.24402    1.000
    C1833    C        0.48656    0.41734    0.26344    1.000
    C1834    C        0.20836    0.88280    0.04164    1.000
    C1835    C        0.24402    0.90549    0.00598    1.000
    C1836    C        0.26344    0.91734    0.98656    1.000
    C1837    C        0.70836    0.88280    0.54164    1.000
    C1838    C        0.74402    0.90549    0.50598    1.000
    C1839    C        0.76344    0.91734    0.48656    1.000
    C1840    C        0.04164    0.86720    0.54164    1.000
    C1841    C        0.00598    0.84451    0.50598    1.000
    C1842    C        0.98656    0.83266    0.48656    1.000
    C1843    C        0.04164    0.36720    0.04164    1.000
    C1844    C        0.00598    0.34451    0.00598    1.000
    C1845    C        0.98656    0.33266    0.98656    1.000
    C1846    C        0.54164    0.88280    0.70836    1.000
    C1847    C        0.50598    0.90549    0.74402    1.000
    C1848    C        0.48656    0.91734    0.76344    1.000
    C1849    C        0.04164    0.20836    0.88280    1.000
    C1850    C        0.00598    0.24402    0.90549    1.000
    C1851    C        0.98656    0.26344    0.91734    1.000
    C1852    C        0.04164    0.70836    0.38280    1.000
    C1853    C        0.00598    0.74402    0.40549    1.000
    C1854    C        0.98656    0.76344    0.41734    1.000
    C1855    C        0.54164    0.04164    0.86720    1.000
    C1856    C        0.50598    0.00598    0.84451    1.000
    C1857    C        0.48656    0.98656    0.83266    1.000
    C1858    C        0.70836    0.54164    0.88280    1.000
    C1859    C        0.74402    0.50598    0.90549    1.000
    C1860    C        0.76344    0.48656    0.91734    1.000
    C1861    C        0.88280    0.04164    0.20836    1.000
    C1862    C        0.90549    0.00598    0.24402    1.000
    C1863    C        0.91734    0.98656    0.26344    1.000
    C1864    C        0.88280    0.54164    0.70836    1.000
    C1865    C        0.90549    0.50598    0.74402    1.000
    C1866    C        0.91734    0.48656    0.76344    1.000
    C1867    C        0.86720    0.54164    0.04164    1.000
    C1868    C        0.84451    0.50598    0.00598    1.000
    C1869    C        0.83266    0.48656    0.98656    1.000
    C1870    C        0.38280    0.70836    0.04164    1.000
    C1871    C        0.40549    0.74402    0.00598    1.000
    C1872    C        0.41734    0.76344    0.98656    1.000
    C1873    C        0.13280    0.95836    0.45836    1.000
    C1874    C        0.15549    0.99402    0.49402    1.000
    C1875    C        0.16734    0.01344    0.51344    1.000
    C1876    C        0.11720    0.79164    0.95836    1.000
    C1877    C        0.09451    0.75598    0.99402    1.000
    C1878    C        0.08266    0.73656    0.01344    1.000
    C1879    C        0.11720    0.29164    0.45836    1.000
    C1880    C        0.09451    0.25598    0.49402    1.000
    C1881    C        0.08266    0.23656    0.51344    1.000
    C1882    C        0.61720    0.45836    0.79164    1.000
    C1883    C        0.59451    0.49402    0.75598    1.000
    C1884    C        0.58266    0.51344    0.73656    1.000
    C1885    C        0.61720    0.95836    0.29164    1.000
    C1886    C        0.59451    0.99402    0.25598    1.000
    C1887    C        0.58266    0.01344    0.23656    1.000
    C1888    C        0.45836    0.79164    0.61720    1.000
    C1889    C        0.49402    0.75598    0.59451    1.000
    C1890    C        0.51344    0.73656    0.58266    1.000
    C1891    C        0.45836    0.29164    0.11720    1.000
    C1892    C        0.49402    0.25598    0.09451    1.000
    C1893    C        0.51344    0.23656    0.08266    1.000
    C1894    C        0.79164    0.95836    0.11720    1.000
    C1895    C        0.75598    0.99402    0.09451    1.000
    C1896    C        0.73656    0.01344    0.08266    1.000
    C1897    C        0.29164    0.95836    0.61720    1.000
    C1898    C        0.25598    0.99402    0.59451    1.000
    C1899    C        0.23656    0.01344    0.58266    1.000
    C1900    C        0.95836    0.45836    0.13280    1.000
    C1901    C        0.99402    0.49402    0.15549    1.000
    C1902    C        0.01344    0.51344    0.16734    1.000
    C1903    C        0.79164    0.61720    0.45836    1.000
    C1904    C        0.75598    0.59451    0.49402    1.000
    C1905    C        0.73656    0.58266    0.51344    1.000
    C1906    C        0.29164    0.61720    0.95836    1.000
    C1907    C        0.25598    0.59451    0.99402    1.000
    C1908    C        0.23656    0.58266    0.01344    1.000
    C1909    C        0.45836    0.13280    0.95836    1.000
    C1910    C        0.49402    0.15549    0.99402    1.000
    C1911    C        0.51344    0.16734    0.01344    1.000
    C1912    C        0.45836    0.63280    0.45836    1.000
    C1913    C        0.49402    0.65549    0.49402    1.000
    C1914    C        0.51344    0.66734    0.51344    1.000
    C1915    C        0.95836    0.11720    0.79164    1.000
    C1916    C        0.99402    0.09451    0.75598    1.000
    C1917    C        0.01344    0.08266    0.73656    1.000
    C1918    C        0.95836    0.61720    0.29164    1.000
    C1919    C        0.99402    0.59451    0.25598    1.000
    C1920    C        0.01344    0.58266    0.23656    1.000
    C1921    C        0.59383    0.09383    0.06027    1.000
    C1922    C        0.59383    0.59383    0.56027    1.000
    C1923    C        0.15617    0.15617    0.56027    1.000
    C1924    C        0.15617    0.65617    0.06027    1.000
    C1925    C        0.65617    0.15617    0.06027    1.000
    C1926    C        0.65617    0.65617    0.56027    1.000
    C1927    C        0.65617    0.59383    0.68973    1.000
    C1928    C        0.15617    0.59383    0.18973    1.000
    C1929    C        0.09383    0.65617    0.18973    1.000
    C1930    C        0.09383    0.15617    0.68973    1.000
    C1931    C        0.06027    0.59383    0.09383    1.000
    C1932    C        0.56027    0.59383    0.59383    1.000
    C1933    C        0.56027    0.15617    0.15617    1.000
    C1934    C        0.56027    0.65617    0.65617    1.000
    C1935    C        0.06027    0.15617    0.65617    1.000
    C1936    C        0.06027    0.65617    0.15617    1.000
    C1937    C        0.68973    0.65617    0.59383    1.000
    C1938    C        0.68973    0.15617    0.09383    1.000
    C1939    C        0.18973    0.09383    0.65617    1.000
    C1940    C        0.18973    0.59383    0.15617    1.000
    C1941    C        0.09383    0.06027    0.59383    1.000
    C1942    C        0.09383    0.56027    0.09383    1.000
    C1943    C        0.15617    0.56027    0.15617    1.000
    C1944    C        0.15617    0.06027    0.65617    1.000
    C1945    C        0.65617    0.56027    0.65617    1.000
    C1946    C        0.65617    0.06027    0.15617    1.000
    C1947    C        0.59383    0.68973    0.65617    1.000
    C1948    C        0.59383    0.18973    0.15617    1.000
    C1949    C        0.65617    0.18973    0.09383    1.000
    C1950    C        0.15617    0.18973    0.59383    1.000
    C1951    C        0.84383    0.84383    0.43973    1.000
    C1952    C        0.84383    0.34383    0.93973    1.000
    C1953    C        0.34383    0.84383    0.93973    1.000
    C1954    C        0.34383    0.34383    0.43973    1.000
    C1955    C        0.90617    0.40617    0.93973    1.000
    C1956    C        0.90617    0.90617    0.43973    1.000
    C1957    C        0.34383    0.90617    0.81027    1.000
    C1958    C        0.84383    0.90617    0.31027    1.000
    C1959    C        0.40617    0.34383    0.31027    1.000
    C1960    C        0.40617    0.84383    0.81027    1.000
    C1961    C        0.34383    0.31027    0.40617    1.000
    C1962    C        0.84383    0.31027    0.90617    1.000
    C1963    C        0.90617    0.81027    0.34383    1.000
    C1964    C        0.90617    0.31027    0.84383    1.000
    C1965    C        0.40617    0.93973    0.90617    1.000
    C1966    C        0.40617    0.43973    0.40617    1.000
    C1967    C        0.84383    0.43973    0.84383    1.000
    C1968    C        0.84383    0.93973    0.34383    1.000
    C1969    C        0.34383    0.43973    0.34383    1.000
    C1970    C        0.34383    0.93973    0.84383    1.000
    C1971    C        0.81027    0.34383    0.90617    1.000
    C1972    C        0.81027    0.84383    0.40617    1.000
    C1973    C        0.31027    0.40617    0.34383    1.000
    C1974    C        0.31027    0.90617    0.84383    1.000
    C1975    C        0.43973    0.84383    0.84383    1.000
    C1976    C        0.43973    0.34383    0.34383    1.000
    C1977    C        0.93973    0.84383    0.34383    1.000
    C1978    C        0.93973    0.34383    0.84383    1.000
    C1979    C        0.93973    0.90617    0.40617    1.000
    C1980    C        0.43973    0.90617    0.90617    1.000
    C1981    C        0.40617    0.90617    0.93973    1.000
    C1982    C        0.40617    0.40617    0.43973    1.000
    C1983    C        0.34383    0.40617    0.31027    1.000
    C1984    C        0.84383    0.40617    0.81027    1.000
    C1985    C        0.90617    0.34383    0.81027    1.000
    C1986    C        0.90617    0.84383    0.31027    1.000
    C1987    C        0.93973    0.40617    0.90617    1.000
    C1988    C        0.43973    0.40617    0.40617    1.000
    C1989    C        0.31027    0.34383    0.40617    1.000
    C1990    C        0.31027    0.84383    0.90617    1.000
    C1991    C        0.81027    0.90617    0.34383    1.000
    C1992    C        0.81027    0.40617    0.84383    1.000
    C1993    C        0.90617    0.93973    0.40617    1.000
    C1994    C        0.90617    0.43973    0.90617    1.000
    C1995    C        0.40617    0.31027    0.34383    1.000
    C1996    C        0.40617    0.81027    0.84383    1.000
    C1997    C        0.34383    0.81027    0.90617    1.000
    C1998    C        0.84383    0.81027    0.40617    1.000
    C1999    C        0.09383    0.59383    0.06027    1.000
    C2000    C        0.09383    0.09383    0.56027    1.000
    C2001    C        0.65617    0.09383    0.18973    1.000
    C2002    C        0.15617    0.09383    0.68973    1.000
    C2003    C        0.59383    0.65617    0.68973    1.000
    C2004    C        0.59383    0.15617    0.18973    1.000
    C2005    C        0.65617    0.68973    0.59383    1.000
    C2006    C        0.15617    0.68973    0.09383    1.000
    C2007    C        0.09383    0.18973    0.65617    1.000
    C2008    C        0.09383    0.68973    0.15617    1.000
    C2009    C        0.59383    0.06027    0.09383    1.000
    C2010    C        0.59383    0.56027    0.59383    1.000
    C2011    C        0.18973    0.65617    0.09383    1.000
    C2012    C        0.18973    0.15617    0.59383    1.000
    C2013    C        0.68973    0.59383    0.65617    1.000
    C2014    C        0.68973    0.09383    0.15617    1.000
    C2015    C        0.06027    0.09383    0.59383    1.000
    C2016    C        0.56027    0.09383    0.09383    1.000
