data_functionalizedCrystal
_audit_creation_method	'EQeq! by Chris Wilmer'
_symmetry_space_group_name_H-M	'P1'
_symmetry_Int_Tables_number	1
_symmetry_cell_setting	triclinic
loop_
_symmetry_equiv_pos_as_xyz
  x,y,z
_cell_length_a	21.9944
_cell_length_b	16.6621
_cell_length_c	25.6363
_cell_angle_alpha	90
_cell_angle_beta	115.34
_cell_angle_gamma	90
loop_
_atom_site_label
_atom_site_type_symbol
_atom_site_fract_x
_atom_site_fract_y
_atom_site_fract_z
_atom_site_charge
Mof_Ag	Ag	0.77378	0.70901	0.36815	0.524
Mof_Ag	Ag	0.29535	0.00221	0.86757	0.536
Mof_C 	C 	0.1537	0.22	0.001	0.1
Mof_C 	C 	0.1279	0.0072	0.5019	0.095
Mof_C 	C 	0.9223	0.3998	0.8922	0.067
Mof_H 	H 	0.9021	0.4036	0.8522	-0.026
Mof_C 	C 	0.1278	0.0617	0.4109	-0.153
Mof_H 	H 	0.0852	0.0404	0.3896	0.085
Mof_C 	C 	0.9031	0.8166	0.3889	0.082
Mof_H 	H 	0.885	0.8103	0.3491	-0.009
Mof_C 	C 	0.9819	0.387	0.0095	-0.133
Mof_H 	H 	0.0008	0.3834	0.0495	0.072
Mof_C 	C 	0.0748	0.3014	0.0067	0.093
Mof_C 	C 	0.1594	0.052	0.4694	0.069
Mof_C 	C 	0.1585	0.9859	0.6512	0.063
Mof_C 	C 	0.2434	0.1335	0.9965	-0.138
Mof_H 	H 	0.264	0.1326	0.0366	0.087
Mof_C 	C 	0.2711	0.0932	0.9647	0.089
Mof_H 	H 	0.3114	0.066	0.9847	-0.014
Mof_C 	C 	0.2228	0.0858	0.4988	-0.154
Mof_H 	H 	0.2455	0.0813	0.5387	0.078
Mof_C 	C 	0.0497	0.9227	0.5051	0.103
Mof_C 	C 	0.1839	0.1754	0.9666	0.069
Mof_C 	C 	0.9607	0.8616	0.4153	-0.132
Mof_H 	H 	0.9809	0.8844	0.3935	0.083
Mof_C 	C 	0.2513	0.1257	0.4683	0.082
Mof_H 	H 	0.2938	0.1477	0.4886	-0.024
Mof_C 	C 	0.1277	0.9754	0.5876	0.099
Mof_C 	C 	0.9573	0.834	0.5054	-0.133
Mof_H 	H 	0.9751	0.8374	0.5454	0.084
Mof_C 	C 	0.1903	0.2431	0.1519	0.06
Mof_C 	C 	0.2524	0.2069	0.1809	-0.143
Mof_H 	H 	0.2759	0.188	0.1606	0.083
Mof_C 	C 	0.1582	0.2518	0.0877	0.095
Mof_C 	C 	0.1605	0.1037	0.3843	0.08
Mof_H 	H 	0.1383	0.1108	0.3445	-0.022
Mof_C 	C 	0.9821	0.3579	0.9183	-0.138
Mof_H 	H 	0.0015	0.3351	0.896	0.079
Mof_C 	C 	0.9887	0.8726	0.4748	0.067
Mof_C 	C 	0.0127	0.3502	0.9774	0.054
Mof_C 	C 	0.2119	0.0376	0.6777	-0.137
Mof_H 	H 	0.228	0.068	0.6559	0.07
Mof_C 	C 	0.1869	0.2571	0.2425	0.081
Mof_H 	H 	0.1641	0.2748	0.2637	-0.027
Mof_C 	C 	0.8991	0.7907	0.4744	0.089
Mof_H 	H 	0.878	0.7664	0.495	-0.014
Mof_C 	C 	0.279	0.1992	0.24	0.084
Mof_H 	H 	0.3214	0.1762	0.2592	-0.017
Mof_C 	C 	0.9222	0.4288	0.9791	0.072
Mof_H 	H 	0.9021	0.4538	0.0002	-0.01
Mof_C 	C 	0.1562	0.2679	0.1834	-0.15
Mof_H 	H 	0.1138	0.2913	0.1654	0.075
Mof_C 	C 	0.1554	0.1753	0.9073	-0.141
Mof_H 	H 	0.1164	0.2043	0.8863	0.081
Mof_C 	C 	0.1335	0.9453	0.685	-0.146
Mof_H 	H 	0.0953	0.9133	0.6685	0.085
Mof_C 	C 	0.241	0.0436	0.7369	0.07
Mof_H 	H 	0.2764	0.0795	0.7544	-0.017
Mof_C 	C 	0.1673	0.9539	0.7441	0.091
Mof_H 	H 	0.1514	0.9252	0.7668	-0.023
Mof_C 	C 	0.1857	0.1314	0.8793	0.084
Mof_H 	H 	0.1651	0.1298	0.8391	-0.007
Mof_N 	N 	0.8714	0.7813	0.4175	-0.193
Mof_N 	N 	0.2219	0.1348	0.4116	-0.217
Mof_N 	N 	0.2207	0.0001	0.7708	-0.2
Mof_N 	N 	0.0741	0.961	0.4723	-0.137
Mof_N 	N 	0.156	0.0175	0.5591	-0.141
Mof_N 	N 	0.0748	0.9273	0.5628	-0.137
Mof_N 	N 	0.2438	0.0906	0.9072	-0.189
Mof_N 	N 	0.2465	0.2234	0.2712	-0.201
Mof_N 	N 	0.892	0.4351	0.9217	-0.208
Mof_N 	N 	0.1862	0.2129	0.0585	-0.138
Mof_N 	N 	0.1037	0.299	0.0641	-0.149
Mof_N 	N 	0.0976	0.2606	0.9732	-0.14
Mof_Ag	Ag	0.27378	0.20901	0.36815	0.523
Mof_Ag	Ag	0.79535	0.50221	0.86757	0.534
Mof_C 	C 	0.6537	0.72	0.001	0.101
Mof_C 	C 	0.6279	0.5072	0.5019	0.095
Mof_C 	C 	0.4223	0.8998	0.8922	0.067
Mof_H 	H 	0.4021	0.9036	0.8522	-0.026
Mof_C 	C 	0.6278	0.5617	0.4109	-0.153
Mof_H 	H 	0.5852	0.5404	0.3896	0.085
Mof_C 	C 	0.4031	0.3166	0.3889	0.082
Mof_H 	H 	0.385	0.3103	0.3491	-0.009
Mof_C 	C 	0.4819	0.887	0.0095	-0.136
Mof_H 	H 	0.5008	0.8834	0.0495	0.074
Mof_C 	C 	0.5748	0.8014	0.0067	0.094
Mof_C 	C 	0.6594	0.552	0.4694	0.069
Mof_C 	C 	0.6585	0.4859	0.6512	0.062
Mof_C 	C 	0.7434	0.6335	0.9965	-0.139
Mof_H 	H 	0.764	0.6326	0.0366	0.088
Mof_C 	C 	0.7711	0.5932	0.9647	0.09
Mof_H 	H 	0.8114	0.566	0.9847	-0.014
Mof_C 	C 	0.7228	0.5858	0.4988	-0.154
Mof_H 	H 	0.7455	0.5813	0.5387	0.078
Mof_C 	C 	0.5497	0.4227	0.5051	0.103
Mof_C 	C 	0.6839	0.6754	0.9666	0.069
Mof_C 	C 	0.4607	0.3616	0.4153	-0.132
Mof_H 	H 	0.4809	0.3844	0.3935	0.083
Mof_C 	C 	0.7513	0.6257	0.4683	0.082
Mof_H 	H 	0.7938	0.6477	0.4886	-0.024
Mof_C 	C 	0.6277	0.4754	0.5876	0.099
Mof_C 	C 	0.4573	0.334	0.5054	-0.133
Mof_H 	H 	0.4751	0.3374	0.5454	0.084
Mof_C 	C 	0.6903	0.7431	0.1519	0.06
Mof_C 	C 	0.7524	0.7069	0.1809	-0.143
Mof_H 	H 	0.7759	0.688	0.1606	0.083
Mof_C 	C 	0.6582	0.7518	0.0877	0.095
Mof_C 	C 	0.6605	0.6037	0.3843	0.08
Mof_H 	H 	0.6383	0.6108	0.3445	-0.022
Mof_C 	C 	0.4821	0.8579	0.9183	-0.136
Mof_H 	H 	0.5015	0.8351	0.896	0.078
Mof_C 	C 	0.4887	0.3726	0.4748	0.067
Mof_C 	C 	0.5127	0.8502	0.9774	0.053
Mof_C 	C 	0.7119	0.5376	0.6777	-0.137
Mof_H 	H 	0.728	0.568	0.6559	0.07
Mof_C 	C 	0.6869	0.7571	0.2425	0.081
Mof_H 	H 	0.6641	0.7748	0.2637	-0.027
Mof_C 	C 	0.3991	0.2907	0.4744	0.089
Mof_H 	H 	0.378	0.2664	0.495	-0.014
Mof_C 	C 	0.779	0.6992	0.24	0.084
Mof_H 	H 	0.8214	0.6762	0.2592	-0.017
Mof_C 	C 	0.4222	0.9288	0.9791	0.077
Mof_H 	H 	0.4021	0.9538	0.0002	-0.013
Mof_C 	C 	0.6562	0.7679	0.1834	-0.15
Mof_H 	H 	0.6138	0.7913	0.1654	0.075
Mof_C 	C 	0.6554	0.6753	0.9073	-0.141
Mof_H 	H 	0.6164	0.7043	0.8863	0.081
Mof_C 	C 	0.6335	0.4453	0.685	-0.146
Mof_H 	H 	0.5953	0.4133	0.6685	0.085
Mof_C 	C 	0.741	0.5436	0.7369	0.07
Mof_H 	H 	0.7764	0.5795	0.7544	-0.017
Mof_C 	C 	0.6673	0.4539	0.7441	0.091
Mof_H 	H 	0.6514	0.4252	0.7668	-0.023
Mof_C 	C 	0.6857	0.6314	0.8793	0.084
Mof_H 	H 	0.6651	0.6298	0.8391	-0.007
Mof_N 	N 	0.3714	0.2813	0.4175	-0.193
Mof_N 	N 	0.7219	0.6348	0.4116	-0.217
Mof_N 	N 	0.7207	0.5001	0.7708	-0.2
Mof_N 	N 	0.5741	0.461	0.4723	-0.137
Mof_N 	N 	0.656	0.5175	0.5591	-0.141
Mof_N 	N 	0.5748	0.4273	0.5628	-0.137
Mof_N 	N 	0.7438	0.5906	0.9072	-0.189
Mof_N 	N 	0.7465	0.7234	0.2712	-0.201
Mof_N 	N 	0.392	0.9351	0.9217	-0.209
Mof_N 	N 	0.6862	0.7129	0.0585	-0.138
Mof_N 	N 	0.6037	0.799	0.0641	-0.149
Mof_N 	N 	0.5976	0.7606	0.9732	-0.141
Mof_Ag	Ag	0.22622	0.70901	0.13185	0.523
Mof_Ag	Ag	0.70465	0.00221	0.63243	0.535
Mof_C 	C 	0.8463	0.22	0.499	0.101
Mof_C 	C 	0.8721	0.0072	0.9981	0.093
Mof_C 	C 	0.0777	0.3998	0.6078	0.066
Mof_H 	H 	0.0979	0.4036	0.6478	-0.026
Mof_C 	C 	0.8722	0.0617	0.0891	-0.154
Mof_H 	H 	0.9148	0.0404	0.1104	0.086
Mof_C 	C 	0.0969	0.8166	0.1111	0.081
Mof_H 	H 	0.115	0.8103	0.1509	-0.009
Mof_C 	C 	0.0181	0.387	0.4905	-0.135
Mof_H 	H 	0.9992	0.3834	0.4505	0.074
Mof_C 	C 	0.9252	0.3014	0.4933	0.094
Mof_C 	C 	0.8406	0.052	0.0306	0.07
Mof_C 	C 	0.8415	0.9859	0.8488	0.063
Mof_C 	C 	0.7566	0.1335	0.5035	-0.138
Mof_H 	H 	0.736	0.1326	0.4634	0.087
Mof_C 	C 	0.7289	0.0932	0.5353	0.089
Mof_H 	H 	0.6886	0.066	0.5153	-0.014
Mof_C 	C 	0.7772	0.0858	0.0012	-0.153
Mof_H 	H 	0.7545	0.0813	0.9613	0.077
Mof_C 	C 	0.9503	0.9227	0.9949	0.103
Mof_C 	C 	0.8161	0.1754	0.5334	0.069
Mof_C 	C 	0.0393	0.8616	0.0847	-0.131
Mof_H 	H 	0.0191	0.8844	0.1065	0.083
Mof_C 	C 	0.7487	0.1257	0.0317	0.081
Mof_H 	H 	0.7062	0.1477	0.0114	-0.024
Mof_C 	C 	0.8723	0.9754	0.9124	0.099
Mof_C 	C 	0.0427	0.834	0.9946	-0.13
Mof_H 	H 	0.0249	0.8374	0.9546	0.083
Mof_C 	C 	0.8097	0.2431	0.3481	0.06
Mof_C 	C 	0.7476	0.2069	0.3191	-0.143
Mof_H 	H 	0.7241	0.188	0.3394	0.083
Mof_C 	C 	0.8418	0.2518	0.4123	0.095
Mof_C 	C 	0.8395	0.1037	0.1157	0.081
Mof_H 	H 	0.8617	0.1108	0.1555	-0.022
Mof_C 	C 	0.0179	0.3579	0.5817	-0.135
Mof_H 	H 	0.9985	0.3351	0.604	0.078
Mof_C 	C 	0.0113	0.8726	0.0252	0.065
Mof_C 	C 	0.9873	0.3502	0.5226	0.053
Mof_C 	C 	0.7881	0.0376	0.8223	-0.137
Mof_H 	H 	0.772	0.068	0.8441	0.07
Mof_C 	C 	0.8131	0.2571	0.2575	0.081
Mof_H 	H 	0.8359	0.2748	0.2363	-0.027
Mof_C 	C 	0.1009	0.7907	0.0256	0.087
Mof_H 	H 	0.122	0.7664	0.005	-0.013
Mof_C 	C 	0.721	0.1992	0.26	0.084
Mof_H 	H 	0.6786	0.1762	0.2408	-0.017
Mof_C 	C 	0.0778	0.4288	0.5209	0.075
Mof_H 	H 	0.0979	0.4538	0.4998	-0.012
Mof_C 	C 	0.8438	0.2679	0.3166	-0.15
Mof_H 	H 	0.8862	0.2913	0.3346	0.075
Mof_C 	C 	0.8446	0.1753	0.5927	-0.14
Mof_H 	H 	0.8836	0.2043	0.6137	0.081
Mof_C 	C 	0.8665	0.9453	0.815	-0.146
Mof_H 	H 	0.9047	0.9133	0.8315	0.085
Mof_C 	C 	0.759	0.0436	0.7631	0.07
Mof_H 	H 	0.7236	0.0795	0.7456	-0.017
Mof_C 	C 	0.8327	0.9539	0.7559	0.091
Mof_H 	H 	0.8486	0.9252	0.7332	-0.023
Mof_C 	C 	0.8143	0.1314	0.6207	0.084
Mof_H 	H 	0.8349	0.1298	0.6609	-0.007
Mof_N 	N 	0.1286	0.7813	0.0825	-0.192
Mof_N 	N 	0.7781	0.1348	0.0884	-0.217
Mof_N 	N 	0.7793	0.0001	0.7292	-0.2
Mof_N 	N 	0.9259	0.961	0.0277	-0.136
Mof_N 	N 	0.844	0.0175	0.9409	-0.141
Mof_N 	N 	0.9252	0.9273	0.9372	-0.137
Mof_N 	N 	0.7562	0.0906	0.5928	-0.189
Mof_N 	N 	0.7535	0.2234	0.2288	-0.201
Mof_N 	N 	0.108	0.4351	0.5783	-0.208
Mof_N 	N 	0.8138	0.2129	0.4415	-0.138
Mof_N 	N 	0.8963	0.299	0.4359	-0.149
Mof_N 	N 	0.9024	0.2606	0.5268	-0.141
Mof_Ag	Ag	0.72622	0.20901	0.13185	0.523
Mof_Ag	Ag	0.20465	0.50221	0.63243	0.534
Mof_C 	C 	0.3463	0.72	0.499	0.101
Mof_C 	C 	0.3721	0.5072	0.9981	0.095
Mof_C 	C 	0.5777	0.8998	0.6078	0.066
Mof_H 	H 	0.5979	0.9036	0.6478	-0.026
Mof_C 	C 	0.3722	0.5617	0.0891	-0.153
Mof_H 	H 	0.4148	0.5404	0.1104	0.085
Mof_C 	C 	0.5969	0.3166	0.1111	0.082
Mof_H 	H 	0.615	0.3103	0.1509	-0.009
Mof_C 	C 	0.5181	0.887	0.4905	-0.135
Mof_H 	H 	0.4992	0.8834	0.4505	0.074
Mof_C 	C 	0.4252	0.8014	0.4933	0.094
Mof_C 	C 	0.3406	0.552	0.0306	0.069
Mof_C 	C 	0.3415	0.4859	0.8488	0.062
Mof_C 	C 	0.2566	0.6335	0.5035	-0.138
Mof_H 	H 	0.236	0.6326	0.4634	0.087
Mof_C 	C 	0.2289	0.5932	0.5353	0.089
Mof_H 	H 	0.1886	0.566	0.5153	-0.014
Mof_C 	C 	0.2772	0.5858	0.0012	-0.155
Mof_H 	H 	0.2545	0.5813	0.9613	0.078
Mof_C 	C 	0.4503	0.4227	0.9949	0.103
Mof_C 	C 	0.3161	0.6754	0.5334	0.069
Mof_C 	C 	0.5393	0.3616	0.0847	-0.132
Mof_H 	H 	0.5191	0.3844	0.1065	0.083
Mof_C 	C 	0.2487	0.6257	0.0317	0.082
Mof_H 	H 	0.2062	0.6477	0.0114	-0.025
Mof_C 	C 	0.3723	0.4754	0.9124	0.099
Mof_C 	C 	0.5427	0.334	0.9946	-0.134
Mof_H 	H 	0.5249	0.3374	0.9546	0.084
Mof_C 	C 	0.3097	0.7431	0.3481	0.06
Mof_C 	C 	0.2476	0.7069	0.3191	-0.143
Mof_H 	H 	0.2241	0.688	0.3394	0.083
Mof_C 	C 	0.3418	0.7518	0.4123	0.095
Mof_C 	C 	0.3395	0.6037	0.1157	0.08
Mof_H 	H 	0.3617	0.6108	0.1555	-0.023
Mof_C 	C 	0.5179	0.8579	0.5817	-0.135
Mof_H 	H 	0.4985	0.8351	0.604	0.078
Mof_C 	C 	0.5113	0.3726	0.0252	0.067
Mof_C 	C 	0.4873	0.8502	0.5226	0.053
Mof_C 	C 	0.2881	0.5376	0.8223	-0.137
Mof_H 	H 	0.272	0.568	0.8441	0.07
Mof_C 	C 	0.3131	0.7571	0.2575	0.081
Mof_H 	H 	0.3359	0.7748	0.2363	-0.027
Mof_C 	C 	0.6009	0.2907	0.0256	0.089
Mof_H 	H 	0.622	0.2664	0.005	-0.014
Mof_C 	C 	0.221	0.6992	0.26	0.084
Mof_H 	H 	0.1786	0.6762	0.2408	-0.017
Mof_C 	C 	0.5778	0.9288	0.5209	0.075
Mof_H 	H 	0.5979	0.9538	0.4998	-0.012
Mof_C 	C 	0.3438	0.7679	0.3166	-0.15
Mof_H 	H 	0.3862	0.7913	0.3346	0.075
Mof_C 	C 	0.3446	0.6753	0.5927	-0.14
Mof_H 	H 	0.3836	0.7043	0.6137	0.081
Mof_C 	C 	0.3665	0.4453	0.815	-0.146
Mof_H 	H 	0.4047	0.4133	0.8315	0.085
Mof_C 	C 	0.259	0.5436	0.7631	0.07
Mof_H 	H 	0.2236	0.5795	0.7456	-0.017
Mof_C 	C 	0.3327	0.4539	0.7559	0.091
Mof_H 	H 	0.3486	0.4252	0.7332	-0.023
Mof_C 	C 	0.3143	0.6314	0.6207	0.084
Mof_H 	H 	0.3349	0.6298	0.6609	-0.007
Mof_N 	N 	0.6286	0.2813	0.0825	-0.193
Mof_N 	N 	0.2781	0.6348	0.0884	-0.217
Mof_N 	N 	0.2793	0.5001	0.7292	-0.2
Mof_N 	N 	0.4259	0.461	0.0277	-0.137
Mof_N 	N 	0.344	0.5175	0.9409	-0.141
Mof_N 	N 	0.4252	0.4273	0.9372	-0.137
Mof_N 	N 	0.2562	0.5906	0.5928	-0.189
Mof_N 	N 	0.2535	0.7234	0.2288	-0.201
Mof_N 	N 	0.608	0.9351	0.5783	-0.209
Mof_N 	N 	0.3138	0.7129	0.4415	-0.138
Mof_N 	N 	0.3963	0.799	0.4359	-0.149
Mof_N 	N 	0.4024	0.7606	0.5268	-0.141
Mof_Ag	Ag	0.22622	0.29099	0.63185	0.523
Mof_Ag	Ag	0.70465	0.99779	0.13243	0.535
Mof_C 	C 	0.8463	0.78	0.999	0.1
Mof_C 	C 	0.8721	0.9928	0.4981	0.095
Mof_C 	C 	0.0777	0.6002	0.1078	0.067
Mof_H 	H 	0.0979	0.5964	0.1478	-0.026
Mof_C 	C 	0.8722	0.9383	0.5891	-0.153
Mof_H 	H 	0.9148	0.9596	0.6104	0.085
Mof_C 	C 	0.0969	0.1834	0.6111	0.082
Mof_H 	H 	0.115	0.1897	0.6509	-0.009
Mof_C 	C 	0.0181	0.613	0.9905	-0.133
Mof_H 	H 	0.9992	0.6166	0.9505	0.072
Mof_C 	C 	0.9252	0.6986	0.9933	0.093
Mof_C 	C 	0.8406	0.948	0.5306	0.069
Mof_C 	C 	0.8415	0.0141	0.3488	0.063
Mof_C 	C 	0.7566	0.8665	0.0035	-0.138
Mof_H 	H 	0.736	0.8674	0.9634	0.087
Mof_C 	C 	0.7289	0.9068	0.0353	0.089
Mof_H 	H 	0.6886	0.934	0.0153	-0.014
Mof_C 	C 	0.7772	0.9142	0.5012	-0.154
Mof_H 	H 	0.7545	0.9187	0.4613	0.078
Mof_C 	C 	0.9503	0.0773	0.4949	0.103
Mof_C 	C 	0.8161	0.8246	0.0334	0.069
Mof_C 	C 	0.0393	0.1384	0.5847	-0.132
Mof_H 	H 	0.0191	0.1156	0.6065	0.083
Mof_C 	C 	0.7487	0.8743	0.5317	0.082
Mof_H 	H 	0.7062	0.8523	0.5114	-0.024
Mof_C 	C 	0.8723	0.0246	0.4124	0.099
Mof_C 	C 	0.0427	0.166	0.4946	-0.133
Mof_H 	H 	0.0249	0.1626	0.4546	0.084
Mof_C 	C 	0.8097	0.7569	0.8481	0.06
Mof_C 	C 	0.7476	0.7931	0.8191	-0.143
Mof_H 	H 	0.7241	0.812	0.8394	0.083
Mof_C 	C 	0.8418	0.7482	0.9123	0.095
Mof_C 	C 	0.8395	0.8963	0.6157	0.08
Mof_H 	H 	0.8617	0.8892	0.6555	-0.022
Mof_C 	C 	0.0179	0.6421	0.0817	-0.138
Mof_H 	H 	0.9985	0.6649	0.104	0.079
Mof_C 	C 	0.0113	0.1274	0.5252	0.067
Mof_C 	C 	0.9873	0.6498	0.0226	0.054
Mof_C 	C 	0.7881	0.9624	0.3223	-0.137
Mof_H 	H 	0.772	0.932	0.3441	0.07
Mof_C 	C 	0.8131	0.7429	0.7575	0.081
Mof_H 	H 	0.8359	0.7252	0.7363	-0.027
Mof_C 	C 	0.1009	0.2093	0.5256	0.089
Mof_H 	H 	0.122	0.2336	0.505	-0.014
Mof_C 	C 	0.721	0.8008	0.76	0.084
Mof_H 	H 	0.6786	0.8238	0.7408	-0.017
Mof_C 	C 	0.0778	0.5712	0.0209	0.072
Mof_H 	H 	0.0979	0.5462	0.9998	-0.01
Mof_C 	C 	0.8438	0.7321	0.8166	-0.15
Mof_H 	H 	0.8862	0.7087	0.8346	0.075
Mof_C 	C 	0.8446	0.8247	0.0927	-0.141
Mof_H 	H 	0.8836	0.7957	0.1137	0.081
Mof_C 	C 	0.8665	0.0547	0.315	-0.146
Mof_H 	H 	0.9047	0.0867	0.3315	0.085
Mof_C 	C 	0.759	0.9564	0.2631	0.07
Mof_H 	H 	0.7236	0.9205	0.2456	-0.017
Mof_C 	C 	0.8327	0.0461	0.2559	0.091
Mof_H 	H 	0.8486	0.0748	0.2332	-0.023
Mof_C 	C 	0.8143	0.8686	0.1207	0.084
Mof_H 	H 	0.8349	0.8702	0.1609	-0.007
Mof_N 	N 	0.1286	0.2187	0.5825	-0.193
Mof_N 	N 	0.7781	0.8652	0.5884	-0.217
Mof_N 	N 	0.7793	0.9999	0.2292	-0.2
Mof_N 	N 	0.9259	0.039	0.5277	-0.137
Mof_N 	N 	0.844	0.9825	0.4409	-0.141
Mof_N 	N 	0.9252	0.0727	0.4372	-0.137
Mof_N 	N 	0.7562	0.9094	0.0928	-0.189
Mof_N 	N 	0.7535	0.7766	0.7288	-0.201
Mof_N 	N 	0.108	0.5649	0.0783	-0.208
Mof_N 	N 	0.8138	0.7871	0.9415	-0.138
Mof_N 	N 	0.8963	0.701	0.9359	-0.149
Mof_N 	N 	0.9024	0.7394	0.0268	-0.14
Mof_Ag	Ag	0.72622	0.79099	0.63185	0.523
Mof_Ag	Ag	0.20465	0.49779	0.13243	0.534
Mof_C 	C 	0.3463	0.28	0.999	0.101
Mof_C 	C 	0.3721	0.4928	0.4981	0.095
Mof_C 	C 	0.5777	0.1002	0.1078	0.067
Mof_H 	H 	0.5979	0.0964	0.1478	-0.026
Mof_C 	C 	0.3722	0.4383	0.5891	-0.153
Mof_H 	H 	0.4148	0.4596	0.6104	0.085
Mof_C 	C 	0.5969	0.6834	0.6111	0.082
Mof_H 	H 	0.615	0.6897	0.6509	-0.009
Mof_C 	C 	0.5181	0.113	0.9905	-0.136
Mof_H 	H 	0.4992	0.1166	0.9505	0.074
Mof_C 	C 	0.4252	0.1986	0.9933	0.094
Mof_C 	C 	0.3406	0.448	0.5306	0.069
Mof_C 	C 	0.3415	0.5141	0.3488	0.062
Mof_C 	C 	0.2566	0.3665	0.0035	-0.139
Mof_H 	H 	0.236	0.3674	0.9634	0.088
Mof_C 	C 	0.2289	0.4068	0.0353	0.09
Mof_H 	H 	0.1886	0.434	0.0153	-0.014
Mof_C 	C 	0.2772	0.4142	0.5012	-0.154
Mof_H 	H 	0.2545	0.4187	0.4613	0.078
Mof_C 	C 	0.4503	0.5773	0.4949	0.103
Mof_C 	C 	0.3161	0.3246	0.0334	0.069
Mof_C 	C 	0.5393	0.6384	0.5847	-0.132
Mof_H 	H 	0.5191	0.6156	0.6065	0.083
Mof_C 	C 	0.2487	0.3743	0.5317	0.082
Mof_H 	H 	0.2062	0.3523	0.5114	-0.024
Mof_C 	C 	0.3723	0.5246	0.4124	0.099
Mof_C 	C 	0.5427	0.666	0.4946	-0.133
Mof_H 	H 	0.5249	0.6626	0.4546	0.084
Mof_C 	C 	0.3097	0.2569	0.8481	0.06
Mof_C 	C 	0.2476	0.2931	0.8191	-0.143
Mof_H 	H 	0.2241	0.312	0.8394	0.083
Mof_C 	C 	0.3418	0.2482	0.9123	0.095
Mof_C 	C 	0.3395	0.3963	0.6157	0.08
Mof_H 	H 	0.3617	0.3892	0.6555	-0.022
Mof_C 	C 	0.5179	0.1421	0.0817	-0.136
Mof_H 	H 	0.4985	0.1649	0.104	0.078
Mof_C 	C 	0.5113	0.6274	0.5252	0.067
Mof_C 	C 	0.4873	0.1498	0.0226	0.053
Mof_C 	C 	0.2881	0.4624	0.3223	-0.137
Mof_H 	H 	0.272	0.432	0.3441	0.07
Mof_C 	C 	0.3131	0.2429	0.7575	0.081
Mof_H 	H 	0.3359	0.2252	0.7363	-0.027
Mof_C 	C 	0.6009	0.7093	0.5256	0.089
Mof_H 	H 	0.622	0.7336	0.505	-0.014
Mof_C 	C 	0.221	0.3008	0.76	0.084
Mof_H 	H 	0.1786	0.3238	0.7408	-0.017
Mof_C 	C 	0.5778	0.0712	0.0209	0.077
Mof_H 	H 	0.5979	0.0462	0.9998	-0.013
Mof_C 	C 	0.3438	0.2321	0.8166	-0.15
Mof_H 	H 	0.3862	0.2087	0.8346	0.075
Mof_C 	C 	0.3446	0.3247	0.0927	-0.141
Mof_H 	H 	0.3836	0.2957	0.1137	0.081
Mof_C 	C 	0.3665	0.5547	0.315	-0.146
Mof_H 	H 	0.4047	0.5867	0.3315	0.085
Mof_C 	C 	0.259	0.4564	0.2631	0.07
Mof_H 	H 	0.2236	0.4205	0.2456	-0.017
Mof_C 	C 	0.3327	0.5461	0.2559	0.091
Mof_H 	H 	0.3486	0.5748	0.2332	-0.023
Mof_C 	C 	0.3143	0.3686	0.1207	0.084
Mof_H 	H 	0.3349	0.3702	0.1609	-0.007
Mof_N 	N 	0.6286	0.7187	0.5825	-0.193
Mof_N 	N 	0.2781	0.3652	0.5884	-0.217
Mof_N 	N 	0.2793	0.4999	0.2292	-0.2
Mof_N 	N 	0.4259	0.539	0.5277	-0.137
Mof_N 	N 	0.344	0.4825	0.4409	-0.141
Mof_N 	N 	0.4252	0.5727	0.4372	-0.137
Mof_N 	N 	0.2562	0.4094	0.0928	-0.189
Mof_N 	N 	0.2535	0.2766	0.7288	-0.201
Mof_N 	N 	0.608	0.0649	0.0783	-0.209
Mof_N 	N 	0.3138	0.2871	0.9415	-0.138
Mof_N 	N 	0.3963	0.201	0.9359	-0.149
Mof_N 	N 	0.4024	0.2394	0.0268	-0.141
Mof_Ag	Ag	0.77378	0.29099	0.86815	0.523
Mof_Ag	Ag	0.29535	0.99779	0.36757	0.535
Mof_C 	C 	0.1537	0.78	0.501	0.101
Mof_C 	C 	0.1279	0.9928	0.0019	0.093
Mof_C 	C 	0.9223	0.6002	0.3922	0.066
Mof_H 	H 	0.9021	0.5964	0.3522	-0.026
Mof_C 	C 	0.1278	0.9383	0.9109	-0.154
Mof_H 	H 	0.0852	0.9596	0.8896	0.086
Mof_C 	C 	0.9031	0.1834	0.8889	0.081
Mof_H 	H 	0.885	0.1897	0.8491	-0.009
Mof_C 	C 	0.9819	0.613	0.5095	-0.135
Mof_H 	H 	0.0008	0.6166	0.5495	0.074
Mof_C 	C 	0.0748	0.6986	0.5067	0.094
Mof_C 	C 	0.1594	0.948	0.9694	0.07
Mof_C 	C 	0.1585	0.0141	0.1512	0.063
Mof_C 	C 	0.2434	0.8665	0.4965	-0.138
Mof_H 	H 	0.264	0.8674	0.5366	0.087
Mof_C 	C 	0.2711	0.9068	0.4647	0.089
Mof_H 	H 	0.3114	0.934	0.4847	-0.014
Mof_C 	C 	0.2228	0.9142	0.9988	-0.153
Mof_H 	H 	0.2455	0.9187	0.0387	0.077
Mof_C 	C 	0.0497	0.0773	0.0051	0.103
Mof_C 	C 	0.1839	0.8246	0.4666	0.069
Mof_C 	C 	0.9607	0.1384	0.9153	-0.131
Mof_H 	H 	0.9809	0.1156	0.8935	0.083
Mof_C 	C 	0.2513	0.8743	0.9683	0.081
Mof_H 	H 	0.2938	0.8523	0.9886	-0.024
Mof_C 	C 	0.1277	0.0246	0.0876	0.099
Mof_C 	C 	0.9573	0.166	0.0054	-0.13
Mof_H 	H 	0.9751	0.1626	0.0454	0.083
Mof_C 	C 	0.1903	0.7569	0.6519	0.06
Mof_C 	C 	0.2524	0.7931	0.6809	-0.143
Mof_H 	H 	0.2759	0.812	0.6606	0.083
Mof_C 	C 	0.1582	0.7482	0.5877	0.095
Mof_C 	C 	0.1605	0.8963	0.8843	0.081
Mof_H 	H 	0.1383	0.8892	0.8445	-0.022
Mof_C 	C 	0.9821	0.6421	0.4183	-0.135
Mof_H 	H 	0.0015	0.6649	0.396	0.078
Mof_C 	C 	0.9887	0.1274	0.9748	0.065
Mof_C 	C 	0.0127	0.6498	0.4774	0.053
Mof_C 	C 	0.2119	0.9624	0.1777	-0.137
Mof_H 	H 	0.228	0.932	0.1559	0.07
Mof_C 	C 	0.1869	0.7429	0.7425	0.081
Mof_H 	H 	0.1641	0.7252	0.7637	-0.027
Mof_C 	C 	0.8991	0.2093	0.9744	0.087
Mof_H 	H 	0.878	0.2336	0.995	-0.013
Mof_C 	C 	0.279	0.8008	0.74	0.084
Mof_H 	H 	0.3214	0.8238	0.7592	-0.017
Mof_C 	C 	0.9222	0.5712	0.4791	0.075
Mof_H 	H 	0.9021	0.5462	0.5002	-0.012
Mof_C 	C 	0.1562	0.7321	0.6834	-0.15
Mof_H 	H 	0.1138	0.7087	0.6654	0.075
Mof_C 	C 	0.1554	0.8247	0.4073	-0.14
Mof_H 	H 	0.1164	0.7957	0.3863	0.081
Mof_C 	C 	0.1335	0.0547	0.185	-0.146
Mof_H 	H 	0.0953	0.0867	0.1685	0.085
Mof_C 	C 	0.241	0.9564	0.2369	0.07
Mof_H 	H 	0.2764	0.9205	0.2544	-0.017
Mof_C 	C 	0.1673	0.0461	0.2441	0.091
Mof_H 	H 	0.1514	0.0748	0.2668	-0.023
Mof_C 	C 	0.1857	0.8686	0.3793	0.084
Mof_H 	H 	0.1651	0.8702	0.3391	-0.007
Mof_N 	N 	0.8714	0.2187	0.9175	-0.192
Mof_N 	N 	0.2219	0.8652	0.9116	-0.217
Mof_N 	N 	0.2207	0.9999	0.2708	-0.2
Mof_N 	N 	0.0741	0.039	0.9723	-0.136
Mof_N 	N 	0.156	0.9825	0.0591	-0.141
Mof_N 	N 	0.0748	0.0727	0.0628	-0.137
Mof_N 	N 	0.2438	0.9094	0.4072	-0.189
Mof_N 	N 	0.2465	0.7766	0.7712	-0.201
Mof_N 	N 	0.892	0.5649	0.4217	-0.208
Mof_N 	N 	0.1862	0.7871	0.5585	-0.138
Mof_N 	N 	0.1037	0.701	0.5641	-0.149
Mof_N 	N 	0.0976	0.7394	0.4732	-0.141
Mof_Ag	Ag	0.27378	0.79099	0.86815	0.523
Mof_Ag	Ag	0.79535	0.49779	0.36757	0.534
Mof_C 	C 	0.6537	0.28	0.501	0.101
Mof_C 	C 	0.6279	0.4928	0.0019	0.095
Mof_C 	C 	0.4223	0.1002	0.3922	0.066
Mof_H 	H 	0.4021	0.0964	0.3522	-0.026
Mof_C 	C 	0.6278	0.4383	0.9109	-0.153
Mof_H 	H 	0.5852	0.4596	0.8896	0.085
Mof_C 	C 	0.4031	0.6834	0.8889	0.082
Mof_H 	H 	0.385	0.6897	0.8491	-0.009
Mof_C 	C 	0.4819	0.113	0.5095	-0.135
Mof_H 	H 	0.5008	0.1166	0.5495	0.074
Mof_C 	C 	0.5748	0.1986	0.5067	0.094
Mof_C 	C 	0.6594	0.448	0.9694	0.069
Mof_C 	C 	0.6585	0.5141	0.1512	0.062
Mof_C 	C 	0.7434	0.3665	0.4965	-0.138
Mof_H 	H 	0.764	0.3674	0.5366	0.087
Mof_C 	C 	0.7711	0.4068	0.4647	0.089
Mof_H 	H 	0.8114	0.434	0.4847	-0.014
Mof_C 	C 	0.7228	0.4142	0.9988	-0.155
Mof_H 	H 	0.7455	0.4187	0.0387	0.078
Mof_C 	C 	0.5497	0.5773	0.0051	0.103
Mof_C 	C 	0.6839	0.3246	0.4666	0.069
Mof_C 	C 	0.4607	0.6384	0.9153	-0.132
Mof_H 	H 	0.4809	0.6156	0.8935	0.083
Mof_C 	C 	0.7513	0.3743	0.9683	0.082
Mof_H 	H 	0.7938	0.3523	0.9886	-0.025
Mof_C 	C 	0.6277	0.5246	0.0876	0.099
Mof_C 	C 	0.4573	0.666	0.0054	-0.134
Mof_H 	H 	0.4751	0.6626	0.0454	0.084
Mof_C 	C 	0.6903	0.2569	0.6519	0.06
Mof_C 	C 	0.7524	0.2931	0.6809	-0.143
Mof_H 	H 	0.7759	0.312	0.6606	0.083
Mof_C 	C 	0.6582	0.2482	0.5877	0.095
Mof_C 	C 	0.6605	0.3963	0.8843	0.08
Mof_H 	H 	0.6383	0.3892	0.8445	-0.023
Mof_C 	C 	0.4821	0.1421	0.4183	-0.135
Mof_H 	H 	0.5015	0.1649	0.396	0.078
Mof_C 	C 	0.4887	0.6274	0.9748	0.067
Mof_C 	C 	0.5127	0.1498	0.4774	0.053
Mof_C 	C 	0.7119	0.4624	0.1777	-0.137
Mof_H 	H 	0.728	0.432	0.1559	0.07
Mof_C 	C 	0.6869	0.2429	0.7425	0.081
Mof_H 	H 	0.6641	0.2252	0.7637	-0.027
Mof_C 	C 	0.3991	0.7093	0.9744	0.089
Mof_H 	H 	0.378	0.7336	0.995	-0.014
Mof_C 	C 	0.779	0.3008	0.74	0.084
Mof_H 	H 	0.8214	0.3238	0.7592	-0.017
Mof_C 	C 	0.4222	0.0712	0.4791	0.075
Mof_H 	H 	0.4021	0.0462	0.5002	-0.012
Mof_C 	C 	0.6562	0.2321	0.6834	-0.15
Mof_H 	H 	0.6138	0.2087	0.6654	0.075
Mof_C 	C 	0.6554	0.3247	0.4073	-0.14
Mof_H 	H 	0.6164	0.2957	0.3863	0.081
Mof_C 	C 	0.6335	0.5547	0.185	-0.146
Mof_H 	H 	0.5953	0.5867	0.1685	0.085
Mof_C 	C 	0.741	0.4564	0.2369	0.07
Mof_H 	H 	0.7764	0.4205	0.2544	-0.017
Mof_C 	C 	0.6673	0.5461	0.2441	0.091
Mof_H 	H 	0.6514	0.5748	0.2668	-0.023
Mof_C 	C 	0.6857	0.3686	0.3793	0.084
Mof_H 	H 	0.6651	0.3702	0.3391	-0.007
Mof_N 	N 	0.3714	0.7187	0.9175	-0.193
Mof_N 	N 	0.7219	0.3652	0.9116	-0.217
Mof_N 	N 	0.7207	0.4999	0.2708	-0.2
Mof_N 	N 	0.5741	0.539	0.9723	-0.137
Mof_N 	N 	0.656	0.4825	0.0591	-0.141
Mof_N 	N 	0.5748	0.5727	0.0628	-0.137
Mof_N 	N 	0.7438	0.4094	0.4072	-0.189
Mof_N 	N 	0.7465	0.2766	0.7712	-0.201
Mof_N 	N 	0.392	0.0649	0.4217	-0.209
Mof_N 	N 	0.6862	0.2871	0.5585	-0.138
Mof_N 	N 	0.6037	0.201	0.5641	-0.149
Mof_N 	N 	0.5976	0.2394	0.4732	-0.141
_end
