# CIF file generated by openbabel 3.1.0, see https://openbabel.org
data_I
_chemical_name_common 'image0'
_cell_length_a 28.6315
_cell_length_b 9.2743
_cell_length_c 9.2833
_cell_angle_alpha 90
_cell_angle_beta 116.615
_cell_angle_gamma 90
_space_group_name_H-M_alt 'P 1'
_space_group_name_Hall 'P 1'
loop_
    _symmetry_equiv_pos_as_xyz
    x,y,z
loop_
    _atom_site_label
    _atom_site_type_symbol
    _atom_site_fract_x
    _atom_site_fract_y
    _atom_site_fract_z
    _atom_site_occupancy
    Cu1      Cu       0.18764    0.82690    0.31030    1.000
    O1       O        0.12710    0.06640    0.33400    1.000
    O2       O        0.13720    0.17600    0.56210    1.000
    N1       N        0.22080    0.01100    0.73290    1.000
    N2       N        0.25770    0.90820    0.78840    1.000
    N3       N        0.25120    0.82470    0.66520    1.000
    N4       N        0.21090    0.87220    0.53260    1.000
    N5       N        0.14220    0.66140    0.31890    1.000
    C1       C        0.14820    0.08440    0.48050    1.000
    C2       C        0.19280    0.98640    0.57670    1.000
    C3       C        0.11100    0.71980    0.37720    1.000
    C4       C        0.07400    0.64380    0.40470    1.000
    C5       C        0.06917    0.49740    0.36890    1.000
    C6       C        0.10070    0.43350    0.30860    1.000
    C7       C        0.13660    0.51930    0.28540    1.000
    C8       C        0.02973    0.40770    0.39570    1.000
    H1       H        0.11471    0.82105    0.40141    1.000
    H2       H        0.05266    0.69030    0.44649    1.000
    H3       H        0.09778    0.33250    0.28353    1.000
    H4       H        0.15835    0.47530    0.24373    1.000
    H5       H        0.04751    0.34796    0.48906    1.000
    H6       H        0.00576    0.47011    0.41195    1.000
    H7       H        0.02411    0.25380    0.23120    1.000
    Cu2      Cu       0.68764    0.32690    0.31030    1.000
    O3       O        0.62710    0.56640    0.33400    1.000
    O4       O        0.63720    0.67600    0.56210    1.000
    N6       N        0.72080    0.51100    0.73290    1.000
    N7       N        0.75770    0.40820    0.78840    1.000
    N8       N        0.75120    0.32470    0.66520    1.000
    N9       N        0.71090    0.37220    0.53260    1.000
    N10      N        0.64220    0.16140    0.31890    1.000
    C9       C        0.64820    0.58440    0.48050    1.000
    C10      C        0.69280    0.48640    0.57670    1.000
    C11      C        0.61100    0.21980    0.37720    1.000
    C12      C        0.57400    0.14380    0.40470    1.000
    C13      C        0.56917    0.99740    0.36890    1.000
    C14      C        0.60070    0.93350    0.30860    1.000
    C15      C        0.63660    0.01930    0.28540    1.000
    C16      C        0.52973    0.90770    0.39570    1.000
    H8       H        0.61471    0.32105    0.40141    1.000
    H9       H        0.55266    0.19030    0.44649    1.000
    H10      H        0.59778    0.83250    0.28353    1.000
    H11      H        0.65835    0.97530    0.24373    1.000
    H12      H        0.54751    0.84796    0.48906    1.000
    H13      H        0.50576    0.97011    0.41195    1.000
    H14      H        0.52411    0.75380    0.23120    1.000
    Cu3      Cu       0.81236    0.82690    0.18970    1.000
    O5       O        0.87290    0.06640    0.16600    1.000
    O6       O        0.86280    0.17600    0.93790    1.000
    N11      N        0.77920    0.01100    0.76710    1.000
    N12      N        0.74230    0.90820    0.71160    1.000
    N13      N        0.74880    0.82470    0.83480    1.000
    N14      N        0.78910    0.87220    0.96740    1.000
    N15      N        0.85780    0.66140    0.18110    1.000
    C17      C        0.85180    0.08440    0.01950    1.000
    C18      C        0.80720    0.98640    0.92330    1.000
    C19      C        0.88900    0.71980    0.12280    1.000
    C20      C        0.92600    0.64380    0.09530    1.000
    C21      C        0.93083    0.49740    0.13110    1.000
    C22      C        0.89930    0.43350    0.19140    1.000
    C23      C        0.86340    0.51930    0.21460    1.000
    C24      C        0.97027    0.40770    0.10430    1.000
    H15      H        0.88529    0.82105    0.09859    1.000
    H16      H        0.94734    0.69030    0.05351    1.000
    H17      H        0.90222    0.33250    0.21647    1.000
    H18      H        0.84165    0.47530    0.25627    1.000
    H19      H        0.95249    0.34796    0.01094    1.000
    H20      H        0.99424    0.47011    0.08805    1.000
    H21      H        0.97589    0.25380    0.26880    1.000
    Cu4      Cu       0.31236    0.32690    0.18970    1.000
    O7       O        0.37290    0.56640    0.16600    1.000
    O8       O        0.36280    0.67600    0.93790    1.000
    N16      N        0.27920    0.51100    0.76710    1.000
    N17      N        0.24230    0.40820    0.71160    1.000
    N18      N        0.24880    0.32470    0.83480    1.000
    N19      N        0.28910    0.37220    0.96740    1.000
    N20      N        0.35780    0.16140    0.18110    1.000
    C25      C        0.35180    0.58440    0.01950    1.000
    C26      C        0.30720    0.48640    0.92330    1.000
    C27      C        0.38900    0.21980    0.12280    1.000
    C28      C        0.42600    0.14380    0.09530    1.000
    C29      C        0.43083    0.99740    0.13110    1.000
    C30      C        0.39930    0.93350    0.19140    1.000
    C31      C        0.36340    0.01930    0.21460    1.000
    C32      C        0.47027    0.90770    0.10430    1.000
    H22      H        0.38529    0.32105    0.09859    1.000
    H23      H        0.44734    0.19030    0.05351    1.000
    H24      H        0.40222    0.83250    0.21647    1.000
    H25      H        0.34165    0.97530    0.25627    1.000
    H26      H        0.45249    0.84796    0.01094    1.000
    H27      H        0.49424    0.97011    0.08805    1.000
    H28      H        0.47589    0.75380    0.26880    1.000
    Cu5      Cu       0.81236    0.17310    0.68970    1.000
    O9       O        0.87290    0.93360    0.66600    1.000
    O10      O        0.86280    0.82400    0.43790    1.000
    N21      N        0.77920    0.98900    0.26710    1.000
    N22      N        0.74230    0.09180    0.21160    1.000
    N23      N        0.74880    0.17530    0.33480    1.000
    N24      N        0.78910    0.12780    0.46740    1.000
    N25      N        0.85780    0.33860    0.68110    1.000
    C33      C        0.85180    0.91560    0.51950    1.000
    C34      C        0.80720    0.01360    0.42330    1.000
    C35      C        0.88900    0.28020    0.62280    1.000
    C36      C        0.92600    0.35620    0.59530    1.000
    C37      C        0.93083    0.50260    0.63110    1.000
    C38      C        0.89930    0.56650    0.69140    1.000
    C39      C        0.86340    0.48070    0.71460    1.000
    C40      C        0.97027    0.59230    0.60430    1.000
    H29      H        0.88529    0.17895    0.59859    1.000
    H30      H        0.94734    0.30970    0.55351    1.000
    H31      H        0.90222    0.66750    0.71647    1.000
    H32      H        0.84165    0.52470    0.75627    1.000
    H33      H        0.95249    0.65204    0.51094    1.000
    H34      H        0.99424    0.52989    0.58805    1.000
    H35      H        0.97589    0.74620    0.76880    1.000
    Cu6      Cu       0.31236    0.67310    0.68970    1.000
    O11      O        0.37290    0.43360    0.66600    1.000
    O12      O        0.36280    0.32400    0.43790    1.000
    N26      N        0.27920    0.48900    0.26710    1.000
    N27      N        0.24230    0.59180    0.21160    1.000
    N28      N        0.24880    0.67530    0.33480    1.000
    N29      N        0.28910    0.62780    0.46740    1.000
    N30      N        0.35780    0.83860    0.68110    1.000
    C41      C        0.35180    0.41560    0.51950    1.000
    C42      C        0.30720    0.51360    0.42330    1.000
    C43      C        0.38900    0.78020    0.62280    1.000
    C44      C        0.42600    0.85620    0.59530    1.000
    C45      C        0.43083    0.00260    0.63110    1.000
    C46      C        0.39930    0.06650    0.69140    1.000
    C47      C        0.36340    0.98070    0.71460    1.000
    C48      C        0.47027    0.09230    0.60430    1.000
    H36      H        0.38529    0.67895    0.59859    1.000
    H37      H        0.44734    0.80970    0.55351    1.000
    H38      H        0.40222    0.16750    0.71647    1.000
    H39      H        0.34165    0.02470    0.75627    1.000
    H40      H        0.45249    0.15204    0.51094    1.000
    H41      H        0.49424    0.02989    0.58805    1.000
    H42      H        0.47589    0.24620    0.76880    1.000
    Cu7      Cu       0.18764    0.17310    0.81030    1.000
    O13      O        0.12710    0.93360    0.83400    1.000
    O14      O        0.13720    0.82400    0.06210    1.000
    N31      N        0.22080    0.98900    0.23290    1.000
    N32      N        0.25770    0.09180    0.28840    1.000
    N33      N        0.25120    0.17530    0.16520    1.000
    N34      N        0.21090    0.12780    0.03260    1.000
    N35      N        0.14220    0.33860    0.81890    1.000
    C49      C        0.14820    0.91560    0.98050    1.000
    C50      C        0.19280    0.01360    0.07670    1.000
    C51      C        0.11100    0.28020    0.87720    1.000
    C52      C        0.07400    0.35620    0.90470    1.000
    C53      C        0.06917    0.50260    0.86890    1.000
    C54      C        0.10070    0.56650    0.80860    1.000
    C55      C        0.13660    0.48070    0.78540    1.000
    C56      C        0.02973    0.59230    0.89570    1.000
    H43      H        0.11471    0.17895    0.90141    1.000
    H44      H        0.05266    0.30970    0.94649    1.000
    H45      H        0.09778    0.66750    0.78353    1.000
    H46      H        0.15835    0.52470    0.74373    1.000
    H47      H        0.04751    0.65204    0.98906    1.000
    H48      H        0.00576    0.52989    0.91195    1.000
    H49      H        0.02411    0.74620    0.73120    1.000
    Cu8      Cu       0.68764    0.67310    0.81030    1.000
    O15      O        0.62710    0.43360    0.83400    1.000
    O16      O        0.63720    0.32400    0.06210    1.000
    N36      N        0.72080    0.48900    0.23290    1.000
    N37      N        0.75770    0.59180    0.28840    1.000
    N38      N        0.75120    0.67530    0.16520    1.000
    N39      N        0.71090    0.62780    0.03260    1.000
    N40      N        0.64220    0.83860    0.81890    1.000
    C57      C        0.64820    0.41560    0.98050    1.000
    C58      C        0.69280    0.51360    0.07670    1.000
    C59      C        0.61100    0.78020    0.87720    1.000
    C60      C        0.57400    0.85620    0.90470    1.000
    C61      C        0.56917    0.00260    0.86890    1.000
    C62      C        0.60070    0.06650    0.80860    1.000
    C63      C        0.63660    0.98070    0.78540    1.000
    C64      C        0.52973    0.09230    0.89570    1.000
    H50      H        0.61471    0.67895    0.90141    1.000
    H51      H        0.55266    0.80970    0.94649    1.000
    H52      H        0.59778    0.16750    0.78353    1.000
    H53      H        0.65835    0.02470    0.74373    1.000
    H54      H        0.54751    0.15204    0.98906    1.000
    H55      H        0.50576    0.02989    0.91195    1.000
    H56      H        0.52411    0.24620    0.73120    1.000
    C65      C        0.00000    0.31360    0.25000    1.000
    C66      C        0.50000    0.81360    0.25000    1.000
    C67      C        0.00000    0.68640    0.75000    1.000
    C68      C        0.50000    0.18640    0.75000    1.000
