# CIF file generated by openbabel 3.1.0, see https://openbabel.org
data_I
_chemical_name_common 'ZILBED_clean'
_cell_length_a 10.599
_cell_length_b 17.0218
_cell_length_c 18.3064
_cell_angle_alpha 106.073
_cell_angle_beta 90
_cell_angle_gamma 90
_space_group_name_H-M_alt 'P 1'
_space_group_name_Hall 'P 1'
loop_
    _symmetry_equiv_pos_as_xyz
    x,y,z
loop_
    _atom_site_label
    _atom_site_type_symbol
    _atom_site_fract_x
    _atom_site_fract_y
    _atom_site_fract_z
    _atom_site_occupancy
    Co1      Co       0.53495    0.11880    0.60276    1.000
    Co2      Co       0.50009    0.86882    0.85284    1.000
    Co3      Co       0.46505    0.61880    0.10276    1.000
    Co4      Co       0.49991    0.36882    0.35284    1.000
    H1       H        0.41570    0.97390    0.37240    1.000
    H2       H        0.94520    0.90080    0.08890    1.000
    H3       H        0.40620    0.38770    0.08440    1.000
    H4       H        0.68120    0.95610    0.98050    1.000
    H5       H        0.68170    0.27800    0.22530    1.000
    H6       H        0.38170    0.41160    0.21370    1.000
    H7       H        0.40030    0.85280    0.12320    1.000
    H8       H        0.93780    0.72090    0.88760    1.000
    H9       H        0.70860    0.98910    0.11200    1.000
    H10      H        0.71540    0.25250    0.09700    1.000
    H11      H        0.88400    0.95800    0.85860    1.000
    H12      H        0.39210    0.94810    0.24130    1.000
    H13      H        0.77110    0.30040    0.98960    1.000
    H14      H        0.11030    0.77690    0.84760    1.000
    H15      H        0.38940    0.29720    0.96390    1.000
    H16      H        0.06210    0.01740    0.81520    1.000
    H17      H        0.76780    0.93560    0.21380    1.000
    H18      H        0.44640    0.07440    0.74470    1.000
    H19      H        0.37960    0.82700    0.99140    1.000
    H20      H        0.13760    0.94470    0.57370    1.000
    H21      H        0.72460    0.72550    0.91760    1.000
    H22      H        0.41600    0.25530    0.83140    1.000
    H23      H        0.11170    0.96450    0.03810    1.000
    H24      H        0.30610    0.01770    0.53870    1.000
    H25      H        0.28080    0.00640    0.78640    1.000
    H26      H        0.86860    0.78470    0.13090    1.000
    H27      H        0.79260    0.26930    0.85720    1.000
    H28      H        0.79630    0.95850    0.34500    1.000
    H29      H        0.89740    0.77340    0.66270    1.000
    H30      H        0.69690    0.72840    0.16940    1.000
    H31      H        0.06750    0.83120    0.62410    1.000
    H32      H        0.55920    0.66510    0.96120    1.000
    H33      H        0.58430    0.47390    0.87240    1.000
    H34      H        0.05480    0.40080    0.58890    1.000
    H35      H        0.59380    0.88770    0.58440    1.000
    H36      H        0.31880    0.45610    0.48050    1.000
    H37      H        0.31830    0.77800    0.72530    1.000
    H38      H        0.61830    0.91160    0.71370    1.000
    H39      H        0.59970    0.35280    0.62320    1.000
    H40      H        0.06220    0.22090    0.38760    1.000
    H41      H        0.29140    0.48910    0.61200    1.000
    H42      H        0.28460    0.75250    0.59700    1.000
    H43      H        0.11600    0.45800    0.35860    1.000
    H44      H        0.60790    0.44810    0.74130    1.000
    H45      H        0.22890    0.80040    0.48960    1.000
    H46      H        0.88970    0.27690    0.34760    1.000
    H47      H        0.61060    0.79720    0.46390    1.000
    H48      H        0.93790    0.51740    0.31520    1.000
    H49      H        0.23220    0.43560    0.71380    1.000
    H50      H        0.55360    0.57440    0.24470    1.000
    H51      H        0.62040    0.32700    0.49140    1.000
    H52      H        0.86240    0.44470    0.07370    1.000
    H53      H        0.27540    0.22550    0.41760    1.000
    H54      H        0.58400    0.75530    0.33140    1.000
    H55      H        0.88830    0.46450    0.53810    1.000
    H56      H        0.69390    0.51770    0.03870    1.000
    H57      H        0.71920    0.50640    0.28640    1.000
    H58      H        0.13140    0.28470    0.63090    1.000
    H59      H        0.20740    0.76930    0.35720    1.000
    H60      H        0.20370    0.45850    0.84500    1.000
    H61      H        0.10260    0.27340    0.16270    1.000
    H62      H        0.30310    0.22840    0.66940    1.000
    H63      H        0.93250    0.33120    0.12410    1.000
    H64      H        0.44080    0.16510    0.46120    1.000
    C1       C        0.48820    0.96740    0.34070    1.000
    C2       C        0.97590    0.87680    0.03900    1.000
    C3       C        0.46330    0.36340    0.11180    1.000
    C4       C        0.24350    0.91310    0.91190    1.000
    C5       C        0.76130    0.82440    0.79380    1.000
    C6       C        0.56310    0.92340    0.13250    1.000
    C7       C        0.07700    0.93290    0.71400    1.000
    C8       C        0.92230    0.80440    0.99340    1.000
    C9       C        0.62450    0.99830    0.45840    1.000
    C10      C        0.62260    0.24280    0.74840    1.000
    C11      C        0.62240    0.93550    0.00990    1.000
    C12      C        0.60720    0.97440    0.37250    1.000
    C13      C        0.62490    0.30010    0.19610    1.000
    C14      C        0.12460    0.87630    0.93890    1.000
    C15      C        0.86960    0.85940    0.76570    1.000
    C16      C        0.44960    0.37780    0.18960    1.000
    C17      C        0.45960    0.87480    0.09520    1.000
    C18      C        0.55700    0.31540    0.07470    1.000
    C19      C        0.57960    0.93860    0.21560    1.000
    C20      C        0.97430    0.76920    0.91980    1.000
    C21      C        0.64090    0.95440    0.08910    1.000
    C22      C        0.60790    0.26590    0.83300    1.000
    C23      C        0.64470    0.28400    0.12010    1.000
    C24      C        0.92000    0.93220    0.81050    1.000
    C25      C        0.81280    0.76540    0.01950    1.000
    C26      C        0.47420    0.95100    0.26280    1.000
    C27      C        0.18390    0.97280    0.68620    1.000
    C28      C        0.69830    0.29230    0.95810    1.000
    C29      C        0.57590    0.29770    0.99080    1.000
    C30      C        0.07380    0.80330    0.89560    1.000
    C31      C        0.47190    0.28890    0.94280    1.000
    C32      C        0.02650    0.96840    0.78390    1.000
    C33      C        0.69620    0.94310    0.24620    1.000
    C34      C        0.38230    0.04850    0.71000    1.000
    C35      C        0.44750    0.86020    0.01640    1.000
    C36      C        0.19690    0.97260    0.61080    1.000
    C37      C        0.72060    0.72670    0.96970    1.000
    C38      C        0.48740    0.26800    0.86390    1.000
    C39      C        0.07740    0.91390    0.00910    1.000
    C40      C        0.30070    0.01500    0.58980    1.000
    C41      C        0.28210    0.00880    0.73520    1.000
    C42      C        0.80380    0.76190    0.09550    1.000
    C43      C        0.71070    0.27490    0.87910    1.000
    C44      C        0.71400    0.95860    0.32440    1.000
    C45      C        0.92930    0.82340    0.69440    1.000
    C46      C        0.70420    0.72640    0.11720    1.000
    C47      C        0.02870    0.85810    0.67120    1.000
    C48      C        0.62300    0.69010    0.99640    1.000
    C49      C        0.51180    0.46740    0.84070    1.000
    C50      C        0.02410    0.37680    0.53900    1.000
    C51      C        0.53670    0.86340    0.61180    1.000
    C52      C        0.75650    0.41310    0.41190    1.000
    C53      C        0.23870    0.32440    0.29380    1.000
    C54      C        0.43690    0.42340    0.63250    1.000
    C55      C        0.92300    0.43290    0.21400    1.000
    C56      C        0.07770    0.30440    0.49340    1.000
    C57      C        0.37550    0.49830    0.95840    1.000
    C58      C        0.37740    0.74280    0.24840    1.000
    C59      C        0.37760    0.43550    0.50990    1.000
    C60      C        0.39280    0.47440    0.87250    1.000
    C61      C        0.37510    0.80010    0.69610    1.000
    C62      C        0.87540    0.37630    0.43890    1.000
    C63      C        0.13040    0.35940    0.26570    1.000
    C64      C        0.55040    0.87780    0.68960    1.000
    C65      C        0.54040    0.37480    0.59520    1.000
    C66      C        0.44300    0.81540    0.57470    1.000
    C67      C        0.42040    0.43860    0.71560    1.000
    C68      C        0.02570    0.26920    0.41980    1.000
    C69      C        0.35910    0.45440    0.58910    1.000
    C70      C        0.39210    0.76590    0.33300    1.000
    C71      C        0.35530    0.78400    0.62010    1.000
    C72      C        0.08000    0.43220    0.31050    1.000
    C73      C        0.18720    0.26540    0.51950    1.000
    C74      C        0.52580    0.45100    0.76280    1.000
    C75      C        0.81610    0.47280    0.18620    1.000
    C76      C        0.30170    0.79230    0.45810    1.000
    C77      C        0.42410    0.79770    0.49080    1.000
    C78      C        0.92620    0.30330    0.39560    1.000
    C79      C        0.52810    0.78890    0.44280    1.000
    C80      C        0.97350    0.46840    0.28390    1.000
    C81      C        0.30380    0.44310    0.74620    1.000
    C82      C        0.61770    0.54850    0.21000    1.000
    C83      C        0.55250    0.36020    0.51640    1.000
    C84      C        0.80310    0.47260    0.11080    1.000
    C85      C        0.27940    0.22670    0.46970    1.000
    C86      C        0.51260    0.76800    0.36390    1.000
    C87      C        0.92260    0.41390    0.50910    1.000
    C88      C        0.69930    0.51500    0.08980    1.000
    C89      C        0.71790    0.50880    0.23520    1.000
    C90      C        0.19620    0.26190    0.59550    1.000
    C91      C        0.28930    0.77490    0.37910    1.000
    C92      C        0.28600    0.45860    0.82440    1.000
    C93      C        0.07070    0.32340    0.19440    1.000
    C94      C        0.29580    0.22640    0.61720    1.000
    C95      C        0.97130    0.35810    0.17120    1.000
    C96      C        0.37700    0.19010    0.49640    1.000
    N1       N        0.52560    0.34740    0.23270    1.000
    N2       N        0.38810    0.05010    0.63720    1.000
    N3       N        0.61040    0.68680    0.06780    1.000
    N4       N        0.52780    0.89090    0.97460    1.000
    N5       N        0.47440    0.84740    0.73270    1.000
    N6       N        0.61190    0.55010    0.13720    1.000
    N7       N        0.38960    0.18680    0.56780    1.000
    N8       N        0.47220    0.39090    0.47460    1.000
    O1       O        0.53580    0.19670    0.71000    1.000
    O2       O        0.53770    0.03980    0.49520    1.000
    O3       O        0.68980    0.87450    0.84060    1.000
    O4       O        0.30950    0.86280    0.86440    1.000
    O5       O        0.71790    0.97310    0.48460    1.000
    O6       O        0.26650    0.98810    0.93730    1.000
    O7       O        0.74060    0.74900    0.76930    1.000
    O8       O        0.72160    0.26370    0.71880    1.000
    O9       O        0.46420    0.69670    0.21000    1.000
    O10      O        0.46230    0.53980    0.99520    1.000
    O11      O        0.31020    0.37450    0.34060    1.000
    O12      O        0.69050    0.36280    0.36440    1.000
    O13      O        0.28210    0.47310    0.98460    1.000
    O14      O        0.73350    0.48810    0.43730    1.000
    O15      O        0.25940    0.24900    0.26930    1.000
    O16      O        0.27840    0.76370    0.21880    1.000
