data_functionalizedCrystal
_audit_creation_method	'EQeq! by Chris Wilmer'
_symmetry_space_group_name_H-M	'P1'
_symmetry_Int_Tables_number	1
_symmetry_cell_setting	triclinic
loop_
_symmetry_equiv_pos_as_xyz
  x,y,z
_cell_length_a	7.6634
_cell_length_b	9.6825
_cell_length_c	27.1105
_cell_angle_alpha	90
_cell_angle_beta	90
_cell_angle_gamma	90
loop_
_atom_site_label
_atom_site_type_symbol
_atom_site_fract_x
_atom_site_fract_y
_atom_site_fract_z
_atom_site_charge
Mof_Fe	Fe	0.5	0.5	0.94365	1.03
Mof_Fe	Fe	0.5	0.5	0.55635	1.046
Mof_Fe	Fe	0.5	0.5	0.05635	1.048
Mof_Fe	Fe	0.5	0.5	0.44365	1.046
Mof_Ag	Ag	9.94807e-33	2.50977e-32	0.75	0.498
Mof_Ag	Ag	-2.9584e-33	0	0.25	0.498
Mof_H 	H 	0.038	0.6298	0.8775	0.258
Mof_H 	H 	0.006	0.7871	0.8931	0.253
Mof_H 	H 	0.0311	0.6713	0.9346	0.281
Mof_H 	H 	0.6921	0.2162	0.024	-0.013
Mof_H 	H 	0.4647	0.8146	0.798	0.236
Mof_H 	H 	0.2952	0.7321	0.8159	0.24
Mof_H 	H 	0.3481	0.8741	0.8421	0.247
Mof_H 	H 	0.962	0.3702	0.8775	0.294
Mof_H 	H 	0.994	0.2129	0.8931	0.276
Mof_H 	H 	0.9689	0.3287	0.9346	0.312
Mof_H 	H 	0.3079	0.7838	0.024	-0.005
Mof_H 	H 	0.5353	0.1854	0.798	0.214
Mof_H 	H 	0.7048	0.2679	0.8159	0.225
Mof_H 	H 	0.6519	0.1259	0.8421	0.212
Mof_H 	H 	0.962	0.6298	0.6225	0.295
Mof_H 	H 	0.994	0.7871	0.6069	0.291
Mof_H 	H 	0.9689	0.6713	0.5654	0.32
Mof_H 	H 	0.3079	0.2162	0.476	-0.009
Mof_H 	H 	0.5353	0.8146	0.702	0.239
Mof_H 	H 	0.7048	0.7321	0.6841	0.243
Mof_H 	H 	0.6519	0.8741	0.6579	0.25
Mof_H 	H 	0.038	0.3702	0.6225	0.247
Mof_H 	H 	0.006	0.2129	0.6069	0.23
Mof_H 	H 	0.0311	0.3287	0.5654	0.269
Mof_H 	H 	0.6921	0.7838	0.476	-0.002
Mof_H 	H 	0.4647	0.1854	0.702	0.211
Mof_H 	H 	0.2952	0.2679	0.6841	0.222
Mof_H 	H 	0.3481	0.1259	0.6579	0.209
Mof_H 	H 	0.962	0.3702	0.1225	0.296
Mof_H 	H 	0.994	0.2129	0.1069	0.281
Mof_H 	H 	0.9689	0.3287	0.0654	0.32
Mof_H 	H 	0.3079	0.7838	0.976	-0.021
Mof_H 	H 	0.5353	0.1854	0.202	0.214
Mof_H 	H 	0.7048	0.2679	0.1841	0.226
Mof_H 	H 	0.6519	0.1259	0.1579	0.213
Mof_H 	H 	0.038	0.6298	0.1225	0.26
Mof_H 	H 	0.006	0.7871	0.1069	0.257
Mof_H 	H 	0.0311	0.6713	0.0654	0.288
Mof_H 	H 	0.6921	0.2162	0.976	-0.029
Mof_H 	H 	0.4647	0.8146	0.202	0.237
Mof_H 	H 	0.2952	0.7321	0.1841	0.24
Mof_H 	H 	0.3481	0.8741	0.1579	0.248
Mof_H 	H 	0.038	0.3702	0.3775	0.247
Mof_H 	H 	0.006	0.2129	0.3931	0.23
Mof_H 	H 	0.0311	0.3287	0.4346	0.269
Mof_H 	H 	0.6921	0.7838	0.524	-0.002
Mof_H 	H 	0.4647	0.1854	0.298	0.21
Mof_H 	H 	0.2952	0.2679	0.3159	0.222
Mof_H 	H 	0.3481	0.1259	0.3421	0.209
Mof_H 	H 	0.962	0.6298	0.3775	0.295
Mof_H 	H 	0.994	0.7871	0.3931	0.291
Mof_H 	H 	0.9689	0.6713	0.4346	0.32
Mof_H 	H 	0.3079	0.2162	0.524	-0.009
Mof_H 	H 	0.5353	0.8146	0.298	0.239
Mof_H 	H 	0.7048	0.7321	0.3159	0.243
Mof_H 	H 	0.6519	0.8741	0.3421	0.25
Mof_C 	C 	0.983	0.6906	0.9019	-0.824
Mof_C 	C 	0.792	0.6659	0.9023	0.514
Mof_C 	C 	0.6844	0.7246	0.8652	-0.433
Mof_C 	C 	0.5032	0.7107	0.8635	0.494
Mof_C 	C 	0.3931	0.7899	0.8266	-0.781
Mof_C 	C 	0.7671	0.8076	0.8291	0.183
Mof_C 	C 	0.017	0.3094	0.9019	-0.929
Mof_C 	C 	0.208	0.3341	0.9023	0.537
Mof_C 	C 	0.3156	0.2754	0.8652	-0.445
Mof_C 	C 	0.4968	0.2893	0.8635	0.48
Mof_C 	C 	0.6069	0.2101	0.8266	-0.744
Mof_C 	C 	0.2329	0.1924	0.8291	0.167
Mof_C 	C 	0.017	0.6906	0.5981	-0.932
Mof_C 	C 	0.208	0.6659	0.5977	0.549
Mof_C 	C 	0.3156	0.7246	0.6348	-0.449
Mof_C 	C 	0.4968	0.7107	0.6365	0.504
Mof_C 	C 	0.6069	0.7899	0.6734	-0.79
Mof_C 	C 	0.2329	0.8076	0.6709	0.186
Mof_C 	C 	0.983	0.3094	0.5981	-0.791
Mof_C 	C 	0.792	0.3341	0.5977	0.496
Mof_C 	C 	0.6844	0.2754	0.6348	-0.424
Mof_C 	C 	0.5032	0.2893	0.6365	0.471
Mof_C 	C 	0.3931	0.2101	0.6734	-0.735
Mof_C 	C 	0.7671	0.1924	0.6709	0.164
Mof_C 	C 	0.017	0.3094	0.0981	-0.936
Mof_C 	C 	0.208	0.3341	0.0977	0.541
Mof_C 	C 	0.3156	0.2754	0.1348	-0.446
Mof_C 	C 	0.4968	0.2893	0.1365	0.482
Mof_C 	C 	0.6069	0.2101	0.1734	-0.746
Mof_C 	C 	0.2329	0.1924	0.1709	0.168
Mof_C 	C 	0.983	0.6906	0.0981	-0.831
Mof_C 	C 	0.792	0.6659	0.0977	0.518
Mof_C 	C 	0.6844	0.7246	0.1348	-0.434
Mof_C 	C 	0.5032	0.7107	0.1365	0.497
Mof_C 	C 	0.3931	0.7899	0.1734	-0.783
Mof_C 	C 	0.7671	0.8076	0.1709	0.184
Mof_C 	C 	0.983	0.3094	0.4019	-0.791
Mof_C 	C 	0.792	0.3341	0.4023	0.496
Mof_C 	C 	0.6844	0.2754	0.3652	-0.424
Mof_C 	C 	0.5032	0.2893	0.3635	0.471
Mof_C 	C 	0.3931	0.2101	0.3266	-0.735
Mof_C 	C 	0.7671	0.1924	0.3291	0.164
Mof_C 	C 	0.017	0.6906	0.4019	-0.932
Mof_C 	C 	0.208	0.6659	0.4023	0.549
Mof_C 	C 	0.3156	0.7246	0.3652	-0.449
Mof_C 	C 	0.4968	0.7107	0.3635	0.504
Mof_C 	C 	0.6069	0.7899	0.3266	-0.79
Mof_C 	C 	0.2329	0.8076	0.3291	0.186
Mof_C 	C 	0.601	0.2399	-0	0.11
Mof_C 	C 	0.399	0.7601	-0	0.125
Mof_C 	C 	0.399	0.2399	0.5	0.082
Mof_C 	C 	0.601	0.7601	0.5	0.097
Mof_N 	N 	0.8345	0.8713	0.7984	-0.233
Mof_N 	N 	0.1655	0.1287	0.7984	-0.257
Mof_N 	N 	0.1655	0.8713	0.7016	-0.235
Mof_N 	N 	0.8345	0.1287	0.7016	-0.252
Mof_N 	N 	0.1655	0.1287	0.2016	-0.258
Mof_N 	N 	0.8345	0.8713	0.2016	-0.233
Mof_N 	N 	0.8345	0.1287	0.2984	-0.253
Mof_N 	N 	0.1655	0.8713	0.2984	-0.235
Mof_O 	O 	0.7347	0.5886	0.93563	-0.437
Mof_O 	O 	0.4177	0.6372	0.89281	-0.435
Mof_O 	O 	0.2653	0.4114	0.93563	-0.448
Mof_O 	O 	0.5823	0.3628	0.89281	-0.436
Mof_O 	O 	0.2653	0.5886	0.56437	-0.444
Mof_O 	O 	0.5823	0.6372	0.60719	-0.439
Mof_O 	O 	0.7347	0.4114	0.56437	-0.431
Mof_O 	O 	0.4177	0.3628	0.60719	-0.432
Mof_O 	O 	0.2653	0.4114	0.06437	-0.444
Mof_O 	O 	0.5823	0.3628	0.10719	-0.437
Mof_O 	O 	0.7347	0.5886	0.06437	-0.433
Mof_O 	O 	0.4177	0.6372	0.10719	-0.436
Mof_O 	O 	0.7347	0.4114	0.43563	-0.431
Mof_O 	O 	0.4177	0.3628	0.39281	-0.432
Mof_O 	O 	0.2653	0.5886	0.43563	-0.444
Mof_O 	O 	0.5823	0.6372	0.39281	-0.439
Mof_O 	O 	0.5748	0.3865	-0	-0.41
Mof_O 	O 	0.4252	0.6135	-0	-0.409
Mof_O 	O 	0.4252	0.3865	0.5	-0.413
Mof_O 	O 	0.5748	0.6135	0.5	-0.414
_end
