data_functionalizedCrystal
_audit_creation_method	'EQeq! by Chris Wilmer'
_symmetry_space_group_name_H-M	'P1'
_symmetry_Int_Tables_number	1
_symmetry_cell_setting	triclinic
loop_
_symmetry_equiv_pos_as_xyz
  x,y,z
_cell_length_a	32.0784
_cell_length_b	18.4491
_cell_length_c	41.2495
_cell_angle_alpha	90
_cell_angle_beta	118.55
_cell_angle_gamma	90
loop_
_atom_site_label
_atom_site_type_symbol
_atom_site_fract_x
_atom_site_fract_y
_atom_site_fract_z
_atom_site_charge
Mof_Cu	Cu	0.21781	0.17692	0.22179	0.902
Mof_Cu	Cu	0.27816	0.25088	0.2809	0.901
Mof_Cu	Cu	0.99395	0.96391	0.27988	0.904
Mof_O 	O 	0.26109	0.8335	0.24829	-0.401
Mof_O 	O 	0.31278	0.7702	0.29822	-0.396
Mof_O 	O 	0.23385	0.2317	0.29916	-0.419
Mof_O 	O 	0.30635	0.1532	0.29937	-0.421
Mof_O 	O 	0.04557	0.891	0.29632	-0.41
Mof_O 	O 	0.1831	0.1685	0.24977	-0.411
Mof_O 	O 	0.256	0.0933	0.24852	-0.415
Mof_O 	O 	0.05396	0.0358	0.25045	-0.425
Mof_O 	O 	0.04207	0.0402	0.29915	-0.397
Mof_O 	O 	0.0522	0.8879	0.24452	-0.41
Mof_O 	O 	0.23654	0.6984	0.29581	-0.394
Mof_O 	O 	0.18448	0.7609	0.24471	-0.402
Mof_C 	C 	0.0653	0.0554	0.28137	0.369
Mof_C 	C 	0.20119	0.7408	0.27753	0.33
Mof_C 	C 	0.2248	0.743	0.46139	-0.027
Mof_C 	C 	0.1926	0.2159	0.42408	-0
Mof_C 	C 	0.29603	0.8295	0.28019	0.335
Mof_C 	C 	0.3165	0.8987	0.29922	-0.067
Mof_C 	C 	0.168	0.1759	0.29978	-0.077
Mof_C 	C 	0.28755	0.1002	0.28127	0.374
Mof_C 	C 	0.4694	0.9869	0.46231	-0.026
Mof_C 	C 	0.2195	0.2341	0.46158	-0.025
Mof_C 	C 	0.12867	0.1323	0.28228	0.021
Mof_H 	H 	0.1187	0.1174	0.2581	0.054
Mof_C 	C 	0.29806	0.9639	0.28154	0.007
Mof_H 	H 	0.2747	0.9638	0.2569	0.059
Mof_C 	C 	0.10373	0.1101	0.30023	-0.081
Mof_C 	C 	0.12043	0.7983	0.33202	-0.036
Mof_H 	H 	0.1033	0.8115	0.344	0.061
Mof_C 	C 	0.06376	0.8697	0.27714	0.362
Mof_C 	C 	0.1741	0.1996	0.39217	-0.03
Mof_C 	C 	0.5015	0.9363	0.48406	0.012
Mof_C 	C 	0.19694	0.1956	0.28124	0.362
Mof_C 	C 	0.353	0.8986	0.33627	-0.044
Mof_H 	H 	0.3654	0.8552	0.3486	0.062
Mof_C 	C 	0.3495	0.0284	0.33571	-0.048
Mof_H 	H 	0.3601	0.0725	0.3478	0.065
Mof_C 	C 	0.1177	0.1341	0.33629	-0.031
Mof_H 	H 	0.1008	0.12	0.3483	0.059
Mof_C 	C 	0.10413	0.8206	0.29518	-0.077
Mof_C 	C 	0.2492	0.4235	0.4607	0.027
Mof_C 	C 	0.1295	0.7955	0.27695	0.01
Mof_H 	H 	0.118	0.8057	0.252	0.058
Mof_C 	C 	0.4353	0.9752	0.42386	0.001
Mof_C 	C 	0.1833	0.1987	0.33617	-0.034
Mof_H 	H 	0.2106	0.2267	0.3484	0.058
Mof_C 	C 	0.1708	0.7562	0.29569	-0.056
Mof_C 	C 	0.2004	0.752	0.4813	0.012
Mof_C 	C 	0.3133	0.0273	0.2993	-0.056
Mof_C 	C 	0.3701	0.9647	0.35407	0.032
Mof_C 	C 	0.1994	0.7399	0.42143	0.003
Mof_C 	C 	0.2511	0.2944	0.47395	0.013
Mof_C 	C 	0.5005	0.8057	0.497	0.017
Mof_C 	C 	0.1859	0.7357	0.3323	-0.047
Mof_H 	H 	0.2129	0.7071	0.3444	0.064
Mof_C 	C 	0.4067	0.9676	0.39215	-0.034
Mof_C 	C 	0.5323	0.8172	0.5334	0.038
Mof_C 	C 	0.5343	0.7735	0.5602	-0.09
Mof_H 	H 	0.5569	0.7799	0.5848	0.061
Mof_C 	C 	0.279	0.4373	0.497	0.021
Mof_C 	C 	0.2205	0.193	0.49087	0.01
Mof_C 	C 	0.339	0.356	0.4941	0.017
Mof_C 	C 	0.46865	0.0534	0.47927	0.013
Mof_C 	C 	0.2746	0.7412	0.47993	0.014
Mof_C 	C 	0.6381	0.8668	0.5283	-0.078
Mof_H 	H 	0.6595	0.8723	0.5533	0.061
Mof_C 	C 	0.1571	0.179	0.35393	0.022
Mof_C 	C 	0.2558	0.348	0.44711	-0.088
Mof_H 	H 	0.2342	0.3384	0.421	0.061
Mof_C 	C 	0.1389	0.8296	0.4798	0.025
Mof_C 	C 	0.385	0.3526	0.5049	-0.063
Mof_H 	H 	0.4065	0.3602	0.5296	0.052
Mof_C 	C 	0.1637	0.8399	0.5189	0.029
Mof_C 	C 	0.108	0.8866	0.4564	-0.076
Mof_H 	H 	0.0911	0.8829	0.4308	0.055
Mof_C 	C 	0.1548	0.6507	0.5465	-0.068
Mof_H 	H 	0.172	0.6541	0.5721	0.057
Mof_C 	C 	0.1618	0.7568	0.35091	0.03
Mof_C 	C 	0.18	0.7435	0.38886	-0.034
Mof_C 	C 	0.1608	0.7056	0.5243	0.021
Mof_C 	C 	0.558	0.8571	0.4785	0.022
Mof_C 	C 	0.146	0.7581	0.4657	-0.087
Mof_H 	H 	0.1281	0.7536	0.4388	0.061
Mof_C 	C 	0.5068	0.8597	0.4705	-0.078
Mof_H 	H 	0.4842	0.8511	0.4444	0.058
Mof_C 	C 	0.1355	0.6992	0.4856	0.033
Mof_C 	C 	0.3128	0.3728	0.5163	-0.077
Mof_H 	H 	0.3342	0.3814	0.5426	0.058
Mof_C 	C 	0.2787	0.5035	0.5134	-0.066
Mof_H 	H 	0.3005	0.5138	0.5378	0.058
Mof_C 	C 	0.4678	0.7511	0.4867	-0.063
Mof_H 	H 	0.4459	0.7451	0.4619	0.053
Mof_C 	C 	0.2142	0.4765	0.4391	-0.08
Mof_H 	H 	0.1932	0.4677	0.4143	0.06
Mof_C 	C 	0.5761	0.8409	0.4545	-0.071
Mof_H 	H 	0.5554	0.8295	0.43	0.057
Mof_C 	C 	0.3088	0.3458	0.4579	0.04
Mof_C 	C 	0.3234	0.3341	0.4323	-0.097
Mof_H 	H 	0.3013	0.3297	0.4074	0.063
Mof_C 	C 	0.5658	0.8813	0.53865	-0.093
Mof_H 	H 	0.5882	0.8899	0.5647	0.062
Mof_C 	C 	0.5896	0.8686	0.517	0.034
Mof_C 	C 	0.1581	0.8981	0.5339	-0.079
Mof_H 	H 	0.1739	0.9004	0.5595	0.058
Mof_C 	C 	0.2443	0.5527	0.4915	-0.035
Mof_H 	H 	0.2424	0.597	0.5014	0.049
Mof_C 	C 	0.1939	0.7694	0.5377	-0.085
Mof_H 	H 	0.2117	0.7727	0.5646	0.06
Mof_C 	C 	0.5006	0.7178	0.5494	-0.019
Mof_H 	H 	0.5004	0.6875	0.5674	0.034
Mof_C 	C 	0.4666	0.7062	0.5118	-0.04
Mof_H 	H 	0.4445	0.669	0.5049	0.047
Mof_C 	C 	0.1063	0.9464	0.4755	-0.031
Mof_H 	H 	0.0873	0.9849	0.4619	0.038
Mof_C 	C 	0.6248	0.8417	0.467	-0.03
Mof_H 	H 	0.6365	0.8319	0.4507	0.045
Mof_C 	C 	0.3688	0.3291	0.4429	-0.001
Mof_H 	H 	0.3788	0.3196	0.4255	0.028
Mof_C 	C 	0.4024	0.3378	0.4797	-0.05
Mof_H 	H 	0.4348	0.3341	0.4875	0.05
Mof_C 	C 	0.1043	0.6424	0.47	-0.08
Mof_H 	H 	0.0863	0.6387	0.4445	0.061
Mof_C 	C 	0.1001	0.5913	0.4924	-0.02
Mof_H 	H 	0.0798	0.5524	0.4814	0.043
Mof_C 	C 	0.1253	0.5949	0.5314	-0.031
Mof_H 	H 	0.1213	0.5598	0.5459	0.046
Mof_C 	C 	0.212	0.5369	0.4544	-0.015
Mof_H 	H 	0.1886	0.5706	0.4405	0.039
Mof_C 	C 	0.6558	0.857	0.5036	-0.023
Mof_H 	H 	0.6882	0.8607	0.5117	0.045
Mof_C 	C 	0.1323	0.9541	0.5161	-0.027
Mof_H 	H 	0.1304	0.9957	0.5281	0.041
Mof_Cu	Cu	0.71781	0.67692	0.22179	0.903
Mof_Cu	Cu	0.77816	0.75088	0.2809	0.902
Mof_Cu	Cu	0.49395	0.46391	0.27988	0.906
Mof_O 	O 	0.76109	0.3335	0.24829	-0.4
Mof_O 	O 	0.81278	0.2702	0.29822	-0.395
Mof_O 	O 	0.73385	0.7317	0.29916	-0.418
Mof_O 	O 	0.80635	0.6532	0.29937	-0.42
Mof_O 	O 	0.54557	0.391	0.29632	-0.409
Mof_O 	O 	0.6831	0.6685	0.24977	-0.411
Mof_O 	O 	0.756	0.5933	0.24852	-0.415
Mof_O 	O 	0.55396	0.5358	0.25045	-0.425
Mof_O 	O 	0.54207	0.5402	0.29915	-0.397
Mof_O 	O 	0.5522	0.3879	0.24452	-0.41
Mof_O 	O 	0.73654	0.1984	0.29581	-0.394
Mof_O 	O 	0.68448	0.2609	0.24471	-0.402
Mof_C 	C 	0.5653	0.5554	0.28137	0.369
Mof_C 	C 	0.70119	0.2408	0.27753	0.33
Mof_C 	C 	0.7248	0.243	0.46139	-0.027
Mof_C 	C 	0.6926	0.7159	0.42408	-0
Mof_C 	C 	0.79603	0.3295	0.28019	0.335
Mof_C 	C 	0.8165	0.3987	0.29922	-0.067
Mof_C 	C 	0.668	0.6759	0.29978	-0.077
Mof_C 	C 	0.78755	0.6002	0.28127	0.374
Mof_C 	C 	0.9694	0.4869	0.46231	-0.026
Mof_C 	C 	0.7195	0.7341	0.46158	-0.025
Mof_C 	C 	0.62867	0.6323	0.28228	0.022
Mof_H 	H 	0.6187	0.6174	0.2581	0.053
Mof_C 	C 	0.79806	0.4639	0.28154	0.007
Mof_H 	H 	0.7747	0.4638	0.2569	0.059
Mof_C 	C 	0.60373	0.6101	0.30023	-0.081
Mof_C 	C 	0.62043	0.2983	0.33202	-0.036
Mof_H 	H 	0.6033	0.3115	0.344	0.061
Mof_C 	C 	0.56376	0.3697	0.27714	0.362
Mof_C 	C 	0.6741	0.6996	0.39217	-0.03
Mof_C 	C 	0.0015	0.4363	0.48406	0.012
Mof_C 	C 	0.69694	0.6956	0.28124	0.362
Mof_C 	C 	0.853	0.3986	0.33627	-0.044
Mof_H 	H 	0.8654	0.3552	0.3486	0.062
Mof_C 	C 	0.8495	0.5284	0.33571	-0.048
Mof_H 	H 	0.8601	0.5725	0.3478	0.065
Mof_C 	C 	0.6177	0.6341	0.33629	-0.031
Mof_H 	H 	0.6008	0.62	0.3483	0.059
Mof_C 	C 	0.60413	0.3206	0.29518	-0.077
Mof_C 	C 	0.7492	0.9235	0.4607	0.027
Mof_C 	C 	0.6295	0.2955	0.27695	0.01
Mof_H 	H 	0.618	0.3057	0.252	0.058
Mof_C 	C 	0.9353	0.4752	0.42386	0.001
Mof_C 	C 	0.6833	0.6987	0.33617	-0.034
Mof_H 	H 	0.7106	0.7267	0.3484	0.058
Mof_C 	C 	0.6708	0.2562	0.29569	-0.056
Mof_C 	C 	0.7004	0.252	0.4813	0.012
Mof_C 	C 	0.8133	0.5273	0.2993	-0.056
Mof_C 	C 	0.8701	0.4647	0.35407	0.032
Mof_C 	C 	0.6994	0.2399	0.42143	0.003
Mof_C 	C 	0.7511	0.7944	0.47395	0.013
Mof_C 	C 	0.0005	0.3057	0.497	0.017
Mof_C 	C 	0.6859	0.2357	0.3323	-0.047
Mof_H 	H 	0.7129	0.2071	0.3444	0.064
Mof_C 	C 	0.9067	0.4676	0.39215	-0.034
Mof_C 	C 	0.0323	0.3172	0.5334	0.038
Mof_C 	C 	0.0343	0.2735	0.5602	-0.09
Mof_H 	H 	0.0569	0.2799	0.5848	0.061
Mof_C 	C 	0.779	0.9373	0.497	0.021
Mof_C 	C 	0.7205	0.693	0.49087	0.01
Mof_C 	C 	0.839	0.856	0.4941	0.017
Mof_C 	C 	0.96865	0.5534	0.47927	0.013
Mof_C 	C 	0.7746	0.2412	0.47993	0.014
Mof_C 	C 	0.1381	0.3668	0.5283	-0.078
Mof_H 	H 	0.1595	0.3723	0.5533	0.061
Mof_C 	C 	0.6571	0.679	0.35393	0.022
Mof_C 	C 	0.7558	0.848	0.44711	-0.088
Mof_H 	H 	0.7342	0.8384	0.421	0.061
Mof_C 	C 	0.6389	0.3296	0.4798	0.025
Mof_C 	C 	0.885	0.8526	0.5049	-0.063
Mof_H 	H 	0.9065	0.8602	0.5296	0.052
Mof_C 	C 	0.6637	0.3399	0.5189	0.029
Mof_C 	C 	0.608	0.3866	0.4564	-0.076
Mof_H 	H 	0.5911	0.3829	0.4308	0.055
Mof_C 	C 	0.6548	0.1507	0.5465	-0.068
Mof_H 	H 	0.672	0.1541	0.5721	0.057
Mof_C 	C 	0.6618	0.2568	0.35091	0.03
Mof_C 	C 	0.68	0.2435	0.38886	-0.034
Mof_C 	C 	0.6608	0.2056	0.5243	0.021
Mof_C 	C 	0.058	0.3571	0.4785	0.022
Mof_C 	C 	0.646	0.2581	0.4657	-0.087
Mof_H 	H 	0.6281	0.2536	0.4388	0.061
Mof_C 	C 	0.0068	0.3597	0.4705	-0.078
Mof_H 	H 	0.9842	0.3511	0.4444	0.058
Mof_C 	C 	0.6355	0.1992	0.4856	0.033
Mof_C 	C 	0.8128	0.8728	0.5163	-0.077
Mof_H 	H 	0.8342	0.8814	0.5426	0.058
Mof_C 	C 	0.7787	0.0035	0.5134	-0.066
Mof_H 	H 	0.8005	0.0138	0.5378	0.058
Mof_C 	C 	0.9678	0.2511	0.4867	-0.063
Mof_H 	H 	0.9459	0.2451	0.4619	0.053
Mof_C 	C 	0.7142	0.9765	0.4391	-0.08
Mof_H 	H 	0.6932	0.9677	0.4143	0.06
Mof_C 	C 	0.0761	0.3409	0.4545	-0.071
Mof_H 	H 	0.0554	0.3295	0.43	0.057
Mof_C 	C 	0.8088	0.8458	0.4579	0.04
Mof_C 	C 	0.8234	0.8341	0.4323	-0.097
Mof_H 	H 	0.8013	0.8297	0.4074	0.063
Mof_C 	C 	0.0658	0.3813	0.53865	-0.093
Mof_H 	H 	0.0882	0.3899	0.5647	0.062
Mof_C 	C 	0.0896	0.3686	0.517	0.034
Mof_C 	C 	0.6581	0.3981	0.5339	-0.079
Mof_H 	H 	0.6739	0.4004	0.5595	0.058
Mof_C 	C 	0.7443	0.0527	0.4915	-0.035
Mof_H 	H 	0.7424	0.097	0.5014	0.049
Mof_C 	C 	0.6939	0.2694	0.5377	-0.085
Mof_H 	H 	0.7117	0.2727	0.5646	0.06
Mof_C 	C 	0.0006	0.2178	0.5494	-0.019
Mof_H 	H 	0.0004	0.1875	0.5674	0.034
Mof_C 	C 	0.9666	0.2062	0.5118	-0.04
Mof_H 	H 	0.9445	0.169	0.5049	0.047
Mof_C 	C 	0.6063	0.4464	0.4755	-0.031
Mof_H 	H 	0.5873	0.4849	0.4619	0.038
Mof_C 	C 	0.1248	0.3417	0.467	-0.029
Mof_H 	H 	0.1365	0.3319	0.4507	0.045
Mof_C 	C 	0.8688	0.8291	0.4429	-0.002
Mof_H 	H 	0.8788	0.8196	0.4255	0.028
Mof_C 	C 	0.9024	0.8378	0.4797	-0.05
Mof_H 	H 	0.9348	0.8341	0.4875	0.05
Mof_C 	C 	0.6043	0.1424	0.47	-0.08
Mof_H 	H 	0.5863	0.1387	0.4445	0.061
Mof_C 	C 	0.6001	0.0913	0.4924	-0.02
Mof_H 	H 	0.5798	0.0524	0.4814	0.043
Mof_C 	C 	0.6253	0.0949	0.5314	-0.031
Mof_H 	H 	0.6213	0.0598	0.5459	0.046
Mof_C 	C 	0.712	0.0369	0.4544	-0.015
Mof_H 	H 	0.6886	0.0706	0.4405	0.039
Mof_C 	C 	0.1558	0.357	0.5036	-0.023
Mof_H 	H 	0.1882	0.3607	0.5117	0.045
Mof_C 	C 	0.6323	0.4541	0.5161	-0.027
Mof_H 	H 	0.6304	0.4957	0.5281	0.041
Mof_Cu	Cu	0.78219	0.17692	0.27821	0.903
Mof_Cu	Cu	0.72184	0.25088	0.21909	0.902
Mof_Cu	Cu	0.00605	0.96391	0.22012	0.905
Mof_O 	O 	0.73891	0.8335	0.25171	-0.4
Mof_O 	O 	0.68722	0.7702	0.20178	-0.395
Mof_O 	O 	0.76615	0.2317	0.20084	-0.418
Mof_O 	O 	0.69365	0.1532	0.20063	-0.42
Mof_O 	O 	0.95443	0.891	0.20368	-0.409
Mof_O 	O 	0.8169	0.1685	0.25023	-0.411
Mof_O 	O 	0.744	0.0933	0.25148	-0.415
Mof_O 	O 	0.94604	0.0358	0.24955	-0.425
Mof_O 	O 	0.95793	0.0402	0.20085	-0.397
Mof_O 	O 	0.9478	0.8879	0.25548	-0.41
Mof_O 	O 	0.76346	0.6984	0.20419	-0.394
Mof_O 	O 	0.81552	0.7609	0.25529	-0.402
Mof_C 	C 	0.9347	0.0554	0.21863	0.369
Mof_C 	C 	0.79881	0.7408	0.22247	0.33
Mof_C 	C 	0.7752	0.743	0.03861	-0.027
Mof_C 	C 	0.8074	0.2159	0.07592	-0
Mof_C 	C 	0.70397	0.8295	0.21981	0.335
Mof_C 	C 	0.6835	0.8987	0.20078	-0.067
Mof_C 	C 	0.832	0.1759	0.20022	-0.077
Mof_C 	C 	0.71245	0.1002	0.21873	0.374
Mof_C 	C 	0.5306	0.9869	0.03769	-0.026
Mof_C 	C 	0.7805	0.2341	0.03842	-0.025
Mof_C 	C 	0.87133	0.1323	0.21772	0.022
Mof_H 	H 	0.8813	0.1174	0.2419	0.054
Mof_C 	C 	0.70194	0.9639	0.21846	0.007
Mof_H 	H 	0.7253	0.9638	0.2431	0.059
Mof_C 	C 	0.89627	0.1101	0.19977	-0.081
Mof_C 	C 	0.87957	0.7983	0.16798	-0.036
Mof_H 	H 	0.8967	0.8115	0.156	0.061
Mof_C 	C 	0.93624	0.8697	0.22286	0.362
Mof_C 	C 	0.8259	0.1996	0.10783	-0.03
Mof_C 	C 	0.4985	0.9363	0.01594	0.012
Mof_C 	C 	0.80306	0.1956	0.21876	0.362
Mof_C 	C 	0.647	0.8986	0.16373	-0.044
Mof_H 	H 	0.6346	0.8552	0.1514	0.062
Mof_C 	C 	0.6505	0.0284	0.16429	-0.048
Mof_H 	H 	0.6399	0.0725	0.1522	0.065
Mof_C 	C 	0.8823	0.1341	0.16371	-0.031
Mof_H 	H 	0.8992	0.12	0.1517	0.059
Mof_C 	C 	0.89587	0.8206	0.20482	-0.077
Mof_C 	C 	0.7508	0.4235	0.0393	0.027
Mof_C 	C 	0.8705	0.7955	0.22305	0.01
Mof_H 	H 	0.882	0.8057	0.248	0.058
Mof_C 	C 	0.5647	0.9752	0.07614	0.001
Mof_C 	C 	0.8167	0.1987	0.16383	-0.034
Mof_H 	H 	0.7894	0.2267	0.1516	0.058
Mof_C 	C 	0.8292	0.7562	0.20431	-0.056
Mof_C 	C 	0.7996	0.752	0.0187	0.012
Mof_C 	C 	0.6867	0.0273	0.2007	-0.056
Mof_C 	C 	0.6299	0.9647	0.14593	0.032
Mof_C 	C 	0.8006	0.7399	0.07857	0.003
Mof_C 	C 	0.7489	0.2944	0.02605	0.013
Mof_C 	C 	0.4995	0.8057	0.003	0.017
Mof_C 	C 	0.8141	0.7357	0.1677	-0.047
Mof_H 	H 	0.7871	0.7071	0.1556	0.064
Mof_C 	C 	0.5933	0.9676	0.10785	-0.034
Mof_C 	C 	0.4677	0.8172	0.9666	0.038
Mof_C 	C 	0.4657	0.7735	0.9398	-0.09
Mof_H 	H 	0.4431	0.7799	0.9152	0.061
Mof_C 	C 	0.721	0.4373	0.003	0.022
Mof_C 	C 	0.7795	0.193	0.00913	0.01
Mof_C 	C 	0.661	0.356	0.0059	0.017
Mof_C 	C 	0.53135	0.0534	0.02073	0.014
Mof_C 	C 	0.7254	0.7412	0.02007	0.014
Mof_C 	C 	0.3619	0.8668	0.9717	-0.079
Mof_H 	H 	0.3405	0.8723	0.9467	0.061
Mof_C 	C 	0.8429	0.179	0.14607	0.022
Mof_C 	C 	0.7442	0.348	0.05289	-0.088
Mof_H 	H 	0.7658	0.3384	0.079	0.061
Mof_C 	C 	0.8611	0.8296	0.0202	0.025
Mof_C 	C 	0.615	0.3526	0.9951	-0.063
Mof_H 	H 	0.5935	0.3602	0.9704	0.052
Mof_C 	C 	0.8363	0.8399	0.9811	0.029
Mof_C 	C 	0.892	0.8866	0.0436	-0.076
Mof_H 	H 	0.9089	0.8829	0.0692	0.055
Mof_C 	C 	0.8452	0.6507	0.9535	-0.068
Mof_H 	H 	0.828	0.6541	0.9279	0.057
Mof_C 	C 	0.8382	0.7568	0.14909	0.03
Mof_C 	C 	0.82	0.7435	0.11114	-0.034
Mof_C 	C 	0.8392	0.7056	0.9757	0.022
Mof_C 	C 	0.442	0.8571	0.0215	0.022
Mof_C 	C 	0.854	0.7581	0.0343	-0.087
Mof_H 	H 	0.8719	0.7536	0.0612	0.06
Mof_C 	C 	0.4932	0.8597	0.0295	-0.078
Mof_H 	H 	0.5158	0.8511	0.0556	0.058
Mof_C 	C 	0.8645	0.6992	0.0144	0.033
Mof_C 	C 	0.6872	0.3728	0.9837	-0.077
Mof_H 	H 	0.6658	0.3814	0.9574	0.058
Mof_C 	C 	0.7213	0.5035	0.9866	-0.066
Mof_H 	H 	0.6995	0.5138	0.9622	0.058
Mof_C 	C 	0.5322	0.7511	0.0133	-0.063
Mof_H 	H 	0.5541	0.7451	0.0381	0.053
Mof_C 	C 	0.7858	0.4765	0.0609	-0.079
Mof_H 	H 	0.8068	0.4677	0.0857	0.06
Mof_C 	C 	0.4239	0.8409	0.0455	-0.071
Mof_H 	H 	0.4446	0.8295	0.07	0.057
Mof_C 	C 	0.6912	0.3458	0.0421	0.04
Mof_C 	C 	0.6766	0.3341	0.0677	-0.096
Mof_H 	H 	0.6987	0.3297	0.0926	0.063
Mof_C 	C 	0.4342	0.8813	0.96135	-0.093
Mof_H 	H 	0.4118	0.8899	0.9353	0.062
Mof_C 	C 	0.4104	0.8686	0.983	0.035
Mof_C 	C 	0.8419	0.8981	0.9661	-0.08
Mof_H 	H 	0.8261	0.9004	0.9405	0.059
Mof_C 	C 	0.7557	0.5527	0.0085	-0.035
Mof_H 	H 	0.7576	0.597	0.9986	0.049
Mof_C 	C 	0.8061	0.7694	0.9623	-0.085
Mof_H 	H 	0.7883	0.7727	0.9354	0.06
Mof_C 	C 	0.4994	0.7178	0.9506	-0.019
Mof_H 	H 	0.4996	0.6875	0.9326	0.034
Mof_C 	C 	0.5334	0.7062	0.9882	-0.04
Mof_H 	H 	0.5555	0.669	0.9951	0.047
Mof_C 	C 	0.8937	0.9464	0.0245	-0.031
Mof_H 	H 	0.9127	0.9849	0.0381	0.038
Mof_C 	C 	0.3752	0.8417	0.033	-0.03
Mof_H 	H 	0.3635	0.8319	0.0493	0.045
Mof_C 	C 	0.6312	0.3291	0.0571	-0.002
Mof_H 	H 	0.6212	0.3196	0.0745	0.028
Mof_C 	C 	0.5976	0.3378	0.0203	-0.049
Mof_H 	H 	0.5652	0.3341	0.0125	0.05
Mof_C 	C 	0.8957	0.6424	0.03	-0.08
Mof_H 	H 	0.9137	0.6387	0.0555	0.061
Mof_C 	C 	0.8999	0.5913	0.0076	-0.02
Mof_H 	H 	0.9202	0.5524	0.0186	0.043
Mof_C 	C 	0.8747	0.5949	0.9686	-0.031
Mof_H 	H 	0.8787	0.5598	0.9541	0.046
Mof_C 	C 	0.788	0.5369	0.0456	-0.016
Mof_H 	H 	0.8114	0.5706	0.0595	0.039
Mof_C 	C 	0.3442	0.857	0.9964	-0.022
Mof_H 	H 	0.3118	0.8607	0.9883	0.044
Mof_C 	C 	0.8677	0.9541	0.9839	-0.026
Mof_H 	H 	0.8696	0.9957	0.9719	0.041
Mof_Cu	Cu	0.28219	0.67692	0.27821	0.903
Mof_Cu	Cu	0.22184	0.75088	0.2191	0.902
Mof_Cu	Cu	0.50605	0.46391	0.22012	0.906
Mof_O 	O 	0.23891	0.3335	0.25171	-0.4
Mof_O 	O 	0.18722	0.2702	0.20178	-0.395
Mof_O 	O 	0.26615	0.7317	0.20084	-0.418
Mof_O 	O 	0.19365	0.6532	0.20063	-0.42
Mof_O 	O 	0.45443	0.391	0.20368	-0.409
Mof_O 	O 	0.3169	0.6685	0.25023	-0.411
Mof_O 	O 	0.244	0.5933	0.25148	-0.415
Mof_O 	O 	0.44604	0.5358	0.24955	-0.425
Mof_O 	O 	0.45793	0.5402	0.20085	-0.397
Mof_O 	O 	0.4478	0.3879	0.25548	-0.41
Mof_O 	O 	0.26346	0.1984	0.20419	-0.394
Mof_O 	O 	0.31552	0.2609	0.25529	-0.402
Mof_C 	C 	0.4347	0.5554	0.21863	0.369
Mof_C 	C 	0.29881	0.2408	0.22247	0.33
Mof_C 	C 	0.2752	0.243	0.03861	-0.027
Mof_C 	C 	0.3074	0.7159	0.07592	-0
Mof_C 	C 	0.20397	0.3295	0.21981	0.335
Mof_C 	C 	0.1835	0.3987	0.20078	-0.067
Mof_C 	C 	0.332	0.6759	0.20022	-0.077
Mof_C 	C 	0.21245	0.6002	0.21873	0.374
Mof_C 	C 	0.0306	0.4869	0.03769	-0.026
Mof_C 	C 	0.2805	0.7341	0.03842	-0.025
Mof_C 	C 	0.37133	0.6323	0.21772	0.022
Mof_H 	H 	0.3813	0.6174	0.2419	0.053
Mof_C 	C 	0.20194	0.4639	0.21846	0.007
Mof_H 	H 	0.2253	0.4638	0.2431	0.059
Mof_C 	C 	0.39627	0.6101	0.19977	-0.081
Mof_C 	C 	0.37957	0.2983	0.16798	-0.036
Mof_H 	H 	0.3967	0.3115	0.156	0.061
Mof_C 	C 	0.43624	0.3697	0.22286	0.362
Mof_C 	C 	0.3259	0.6996	0.10783	-0.03
Mof_C 	C 	0.9985	0.4363	0.01594	0.012
Mof_C 	C 	0.30306	0.6956	0.21876	0.362
Mof_C 	C 	0.147	0.3986	0.16373	-0.044
Mof_H 	H 	0.1346	0.3552	0.1514	0.062
Mof_C 	C 	0.1505	0.5284	0.16429	-0.048
Mof_H 	H 	0.1399	0.5725	0.1522	0.065
Mof_C 	C 	0.3823	0.6341	0.16371	-0.031
Mof_H 	H 	0.3992	0.62	0.1517	0.059
Mof_C 	C 	0.39587	0.3206	0.20482	-0.077
Mof_C 	C 	0.2508	0.9235	0.0393	0.027
Mof_C 	C 	0.3705	0.2955	0.22305	0.01
Mof_H 	H 	0.382	0.3057	0.248	0.058
Mof_C 	C 	0.0647	0.4752	0.07614	0.001
Mof_C 	C 	0.3167	0.6987	0.16383	-0.034
Mof_H 	H 	0.2894	0.7267	0.1516	0.058
Mof_C 	C 	0.3292	0.2562	0.20431	-0.056
Mof_C 	C 	0.2996	0.252	0.0187	0.012
Mof_C 	C 	0.1867	0.5273	0.2007	-0.056
Mof_C 	C 	0.1299	0.4647	0.14593	0.032
Mof_C 	C 	0.3006	0.2399	0.07857	0.003
Mof_C 	C 	0.2489	0.7944	0.02605	0.013
Mof_C 	C 	0.9995	0.3057	0.003	0.018
Mof_C 	C 	0.3141	0.2357	0.1677	-0.047
Mof_H 	H 	0.2871	0.2071	0.1556	0.064
Mof_C 	C 	0.0933	0.4676	0.10785	-0.034
Mof_C 	C 	0.9677	0.3172	0.9666	0.037
Mof_C 	C 	0.9657	0.2735	0.9398	-0.089
Mof_H 	H 	0.9431	0.2799	0.9152	0.06
Mof_C 	C 	0.221	0.9373	0.003	0.021
Mof_C 	C 	0.2795	0.693	0.00913	0.009
Mof_C 	C 	0.161	0.856	0.0059	0.016
Mof_C 	C 	0.03135	0.5534	0.02073	0.013
Mof_C 	C 	0.2254	0.2412	0.02007	0.014
Mof_C 	C 	0.8619	0.3668	0.9717	-0.078
Mof_H 	H 	0.8405	0.3723	0.9467	0.06
Mof_C 	C 	0.3429	0.679	0.14607	0.022
Mof_C 	C 	0.2442	0.848	0.05289	-0.089
Mof_H 	H 	0.2658	0.8384	0.079	0.062
Mof_C 	C 	0.3611	0.3296	0.0202	0.025
Mof_C 	C 	0.115	0.8526	0.9951	-0.061
Mof_H 	H 	0.0935	0.8602	0.9704	0.051
Mof_C 	C 	0.3363	0.3399	0.9811	0.029
Mof_C 	C 	0.392	0.3866	0.0436	-0.077
Mof_H 	H 	0.4089	0.3829	0.0692	0.055
Mof_C 	C 	0.3452	0.1507	0.9535	-0.068
Mof_H 	H 	0.328	0.1541	0.9279	0.057
Mof_C 	C 	0.3382	0.2568	0.14909	0.03
Mof_C 	C 	0.32	0.2435	0.11114	-0.034
Mof_C 	C 	0.3392	0.2056	0.9757	0.021
Mof_C 	C 	0.942	0.3571	0.0215	0.023
Mof_C 	C 	0.354	0.2581	0.0343	-0.087
Mof_H 	H 	0.3719	0.2536	0.0612	0.061
Mof_C 	C 	0.9932	0.3597	0.0295	-0.078
Mof_H 	H 	0.0158	0.3511	0.0556	0.058
Mof_C 	C 	0.3645	0.1992	0.0144	0.033
Mof_C 	C 	0.1872	0.8728	0.9837	-0.076
Mof_H 	H 	0.1658	0.8814	0.9574	0.057
Mof_C 	C 	0.2213	0.0035	0.9866	-0.066
Mof_H 	H 	0.1995	0.0138	0.9622	0.058
Mof_C 	C 	0.0322	0.2511	0.0133	-0.064
Mof_H 	H 	0.0541	0.2451	0.0381	0.053
Mof_C 	C 	0.2858	0.9765	0.0609	-0.08
Mof_H 	H 	0.3068	0.9677	0.0857	0.06
Mof_C 	C 	0.9239	0.3409	0.0455	-0.071
Mof_H 	H 	0.9446	0.3295	0.07	0.057
Mof_C 	C 	0.1912	0.8458	0.0421	0.041
Mof_C 	C 	0.1766	0.8341	0.0677	-0.098
Mof_H 	H 	0.1987	0.8297	0.0926	0.064
Mof_C 	C 	0.9342	0.3813	0.96135	-0.092
Mof_H 	H 	0.9118	0.3899	0.9353	0.062
Mof_C 	C 	0.9104	0.3686	0.983	0.034
Mof_C 	C 	0.3419	0.3981	0.9661	-0.079
Mof_H 	H 	0.3261	0.4004	0.9405	0.058
Mof_C 	C 	0.2557	0.0527	0.0085	-0.035
Mof_H 	H 	0.2576	0.097	0.9986	0.049
Mof_C 	C 	0.3061	0.2694	0.9623	-0.084
Mof_H 	H 	0.2883	0.2727	0.9354	0.06
Mof_C 	C 	0.9994	0.2178	0.9506	-0.019
Mof_H 	H 	0.9996	0.1875	0.9326	0.034
Mof_C 	C 	0.0334	0.2062	0.9882	-0.04
Mof_H 	H 	0.0555	0.169	0.9951	0.047
Mof_C 	C 	0.3937	0.4464	0.0245	-0.031
Mof_H 	H 	0.4127	0.4849	0.0381	0.038
Mof_C 	C 	0.8752	0.3417	0.033	-0.029
Mof_H 	H 	0.8635	0.3319	0.0493	0.044
Mof_C 	C 	0.1312	0.8291	0.0571	-0
Mof_H 	H 	0.1212	0.8196	0.0745	0.027
Mof_C 	C 	0.0976	0.8378	0.0203	-0.051
Mof_H 	H 	0.0652	0.8341	0.0125	0.05
Mof_C 	C 	0.3957	0.1424	0.03	-0.081
Mof_H 	H 	0.4137	0.1387	0.0555	0.061
Mof_C 	C 	0.3999	0.0913	0.0076	-0.019
Mof_H 	H 	0.4202	0.0524	0.0186	0.043
Mof_C 	C 	0.3747	0.0949	0.9686	-0.032
Mof_H 	H 	0.3787	0.0598	0.9541	0.046
Mof_C 	C 	0.288	0.0369	0.0456	-0.015
Mof_H 	H 	0.3114	0.0706	0.0595	0.039
Mof_C 	C 	0.8442	0.357	0.9964	-0.024
Mof_H 	H 	0.8118	0.3607	0.9883	0.045
Mof_C 	C 	0.3677	0.4541	0.9839	-0.027
Mof_H 	H 	0.3696	0.4957	0.9719	0.041
Mof_Cu	Cu	0.78219	0.82308	0.77821	0.903
Mof_Cu	Cu	0.72184	0.74912	0.7191	0.902
Mof_Cu	Cu	0.00605	0.03609	0.72012	0.905
Mof_O 	O 	0.73891	0.1665	0.75171	-0.4
Mof_O 	O 	0.68722	0.2298	0.70178	-0.395
Mof_O 	O 	0.76615	0.7683	0.70084	-0.418
Mof_O 	O 	0.69365	0.8468	0.70063	-0.42
Mof_O 	O 	0.95443	0.109	0.70368	-0.409
Mof_O 	O 	0.8169	0.8315	0.75023	-0.411
Mof_O 	O 	0.744	0.9067	0.75148	-0.415
Mof_O 	O 	0.94604	0.9642	0.74955	-0.425
Mof_O 	O 	0.95793	0.9598	0.70085	-0.397
Mof_O 	O 	0.9478	0.1121	0.75548	-0.41
Mof_O 	O 	0.76346	0.3016	0.70419	-0.394
Mof_O 	O 	0.81552	0.2391	0.75529	-0.402
Mof_C 	C 	0.9347	0.9446	0.71863	0.369
Mof_C 	C 	0.79881	0.2592	0.72247	0.33
Mof_C 	C 	0.7752	0.257	0.53861	-0.027
Mof_C 	C 	0.8074	0.7841	0.57592	-0
Mof_C 	C 	0.70397	0.1705	0.71981	0.335
Mof_C 	C 	0.6835	0.1013	0.70078	-0.067
Mof_C 	C 	0.832	0.8241	0.70022	-0.077
Mof_C 	C 	0.71245	0.8998	0.71873	0.374
Mof_C 	C 	0.5306	0.0131	0.53769	-0.026
Mof_C 	C 	0.7805	0.7659	0.53842	-0.025
Mof_C 	C 	0.87133	0.8677	0.71772	0.021
Mof_H 	H 	0.8813	0.8826	0.7419	0.054
Mof_C 	C 	0.70194	0.0361	0.71846	0.007
Mof_H 	H 	0.7253	0.0362	0.7431	0.059
Mof_C 	C 	0.89627	0.8899	0.69977	-0.081
Mof_C 	C 	0.87957	0.2017	0.66798	-0.036
Mof_H 	H 	0.8967	0.1885	0.656	0.061
Mof_C 	C 	0.93624	0.1303	0.72286	0.362
Mof_C 	C 	0.8259	0.8004	0.60783	-0.03
Mof_C 	C 	0.4985	0.0637	0.51594	0.012
Mof_C 	C 	0.80306	0.8044	0.71876	0.362
Mof_C 	C 	0.647	0.1014	0.66373	-0.044
Mof_H 	H 	0.6346	0.1448	0.6514	0.062
Mof_C 	C 	0.6505	0.9716	0.66429	-0.048
Mof_H 	H 	0.6399	0.9275	0.6522	0.065
Mof_C 	C 	0.8823	0.8659	0.66371	-0.031
Mof_H 	H 	0.8992	0.88	0.6517	0.059
Mof_C 	C 	0.89587	0.1794	0.70482	-0.077
Mof_C 	C 	0.7508	0.5765	0.5393	0.027
Mof_C 	C 	0.8705	0.2045	0.72305	0.01
Mof_H 	H 	0.882	0.1943	0.748	0.058
Mof_C 	C 	0.5647	0.0248	0.57614	0.001
Mof_C 	C 	0.8167	0.8013	0.66383	-0.034
Mof_H 	H 	0.7894	0.7733	0.6516	0.058
Mof_C 	C 	0.8292	0.2438	0.70431	-0.056
Mof_C 	C 	0.7996	0.248	0.5187	0.012
Mof_C 	C 	0.6867	0.9727	0.7007	-0.056
Mof_C 	C 	0.6299	0.0353	0.64593	0.032
Mof_C 	C 	0.8006	0.2601	0.57857	0.003
Mof_C 	C 	0.7489	0.7056	0.52605	0.013
Mof_C 	C 	0.4995	0.1943	0.503	0.017
Mof_C 	C 	0.8141	0.2643	0.6677	-0.047
Mof_H 	H 	0.7871	0.2929	0.6556	0.064
Mof_C 	C 	0.5933	0.0324	0.60785	-0.034
Mof_C 	C 	0.4677	0.1828	0.4666	0.038
Mof_C 	C 	0.4657	0.2265	0.4398	-0.09
Mof_H 	H 	0.4431	0.2201	0.4152	0.061
Mof_C 	C 	0.721	0.5627	0.503	0.021
Mof_C 	C 	0.7795	0.807	0.50913	0.01
Mof_C 	C 	0.661	0.644	0.5059	0.017
Mof_C 	C 	0.53135	0.9466	0.52073	0.013
Mof_C 	C 	0.7254	0.2588	0.52007	0.014
Mof_C 	C 	0.3619	0.1332	0.4717	-0.078
Mof_H 	H 	0.3405	0.1277	0.4467	0.061
Mof_C 	C 	0.8429	0.821	0.64607	0.022
Mof_C 	C 	0.7442	0.652	0.55289	-0.088
Mof_H 	H 	0.7658	0.6616	0.579	0.061
Mof_C 	C 	0.8611	0.1704	0.5202	0.025
Mof_C 	C 	0.615	0.6474	0.4951	-0.063
Mof_H 	H 	0.5935	0.6398	0.4704	0.052
Mof_C 	C 	0.8363	0.1601	0.4811	0.029
Mof_C 	C 	0.892	0.1134	0.5436	-0.076
Mof_H 	H 	0.9089	0.1171	0.5692	0.055
Mof_C 	C 	0.8452	0.3493	0.4535	-0.068
Mof_H 	H 	0.828	0.3459	0.4279	0.057
Mof_C 	C 	0.8382	0.2432	0.64909	0.03
Mof_C 	C 	0.82	0.2565	0.61114	-0.034
Mof_C 	C 	0.8392	0.2944	0.4757	0.021
Mof_C 	C 	0.442	0.1429	0.5215	0.022
Mof_C 	C 	0.854	0.2419	0.5343	-0.087
Mof_H 	H 	0.8719	0.2464	0.5612	0.061
Mof_C 	C 	0.4932	0.1403	0.5295	-0.078
Mof_H 	H 	0.5158	0.1489	0.5556	0.058
Mof_C 	C 	0.8645	0.3008	0.5144	0.033
Mof_C 	C 	0.6872	0.6272	0.4837	-0.077
Mof_H 	H 	0.6658	0.6186	0.4574	0.058
Mof_C 	C 	0.7213	0.4965	0.4866	-0.066
Mof_H 	H 	0.6995	0.4862	0.4622	0.058
Mof_C 	C 	0.5322	0.2489	0.5133	-0.063
Mof_H 	H 	0.5541	0.2549	0.5381	0.053
Mof_C 	C 	0.7858	0.5235	0.5609	-0.08
Mof_H 	H 	0.8068	0.5323	0.5857	0.06
Mof_C 	C 	0.4239	0.1591	0.5455	-0.071
Mof_H 	H 	0.4446	0.1705	0.57	0.057
Mof_C 	C 	0.6912	0.6542	0.5421	0.04
Mof_C 	C 	0.6766	0.6659	0.5677	-0.097
Mof_H 	H 	0.6987	0.6703	0.5926	0.063
Mof_C 	C 	0.4342	0.1187	0.46135	-0.093
Mof_H 	H 	0.4118	0.1101	0.4353	0.062
Mof_C 	C 	0.4104	0.1314	0.483	0.034
Mof_C 	C 	0.8419	0.1019	0.4661	-0.079
Mof_H 	H 	0.8261	0.0996	0.4405	0.058
Mof_C 	C 	0.7557	0.4473	0.5085	-0.035
Mof_H 	H 	0.7576	0.403	0.4986	0.049
Mof_C 	C 	0.8061	0.2306	0.4623	-0.085
Mof_H 	H 	0.7883	0.2273	0.4354	0.06
Mof_C 	C 	0.4994	0.2822	0.4506	-0.019
Mof_H 	H 	0.4996	0.3125	0.4326	0.034
Mof_C 	C 	0.5334	0.2938	0.4882	-0.04
Mof_H 	H 	0.5555	0.331	0.4951	0.047
Mof_C 	C 	0.8937	0.0536	0.5245	-0.031
Mof_H 	H 	0.9127	0.0151	0.5381	0.038
Mof_C 	C 	0.3752	0.1583	0.533	-0.03
Mof_H 	H 	0.3635	0.1681	0.5493	0.045
Mof_C 	C 	0.6312	0.6709	0.5571	-0.001
Mof_H 	H 	0.6212	0.6804	0.5745	0.028
Mof_C 	C 	0.5976	0.6622	0.5203	-0.05
Mof_H 	H 	0.5652	0.6659	0.5125	0.05
Mof_C 	C 	0.8957	0.3576	0.53	-0.08
Mof_H 	H 	0.9137	0.3613	0.5555	0.061
Mof_C 	C 	0.8999	0.4087	0.5076	-0.02
Mof_H 	H 	0.9202	0.4476	0.5186	0.043
Mof_C 	C 	0.8747	0.4051	0.4686	-0.031
Mof_H 	H 	0.8787	0.4402	0.4541	0.046
Mof_C 	C 	0.788	0.4631	0.5456	-0.015
Mof_H 	H 	0.8114	0.4294	0.5595	0.039
Mof_C 	C 	0.3442	0.143	0.4964	-0.023
Mof_H 	H 	0.3118	0.1393	0.4883	0.045
Mof_C 	C 	0.8677	0.0459	0.4839	-0.027
Mof_H 	H 	0.8696	0.0043	0.4719	0.041
Mof_Cu	Cu	0.28219	0.32308	0.77821	0.903
Mof_Cu	Cu	0.22184	0.24912	0.7191	0.902
Mof_Cu	Cu	0.50605	0.53609	0.72012	0.906
Mof_O 	O 	0.23891	0.6665	0.75171	-0.4
Mof_O 	O 	0.18722	0.7298	0.70178	-0.395
Mof_O 	O 	0.26615	0.2683	0.70084	-0.418
Mof_O 	O 	0.19365	0.3468	0.70063	-0.42
Mof_O 	O 	0.45443	0.609	0.70368	-0.409
Mof_O 	O 	0.3169	0.3315	0.75023	-0.411
Mof_O 	O 	0.244	0.4067	0.75148	-0.415
Mof_O 	O 	0.44604	0.4642	0.74955	-0.425
Mof_O 	O 	0.45793	0.4598	0.70085	-0.397
Mof_O 	O 	0.4478	0.6121	0.75548	-0.41
Mof_O 	O 	0.26346	0.8016	0.70419	-0.394
Mof_O 	O 	0.31552	0.7391	0.75529	-0.402
Mof_C 	C 	0.4347	0.4446	0.71863	0.369
Mof_C 	C 	0.29881	0.7592	0.72247	0.33
Mof_C 	C 	0.2752	0.757	0.53861	-0.027
Mof_C 	C 	0.3074	0.2841	0.57592	-0
Mof_C 	C 	0.20397	0.6705	0.71981	0.335
Mof_C 	C 	0.1835	0.6013	0.70078	-0.067
Mof_C 	C 	0.332	0.3241	0.70022	-0.077
Mof_C 	C 	0.21245	0.3998	0.71873	0.374
Mof_C 	C 	0.0306	0.5131	0.53769	-0.026
Mof_C 	C 	0.2805	0.2659	0.53842	-0.025
Mof_C 	C 	0.37133	0.3677	0.71772	0.022
Mof_H 	H 	0.3813	0.3826	0.7419	0.053
Mof_C 	C 	0.20194	0.5361	0.71846	0.007
Mof_H 	H 	0.2253	0.5362	0.7431	0.059
Mof_C 	C 	0.39627	0.3899	0.69977	-0.081
Mof_C 	C 	0.37957	0.7017	0.66798	-0.036
Mof_H 	H 	0.3967	0.6885	0.656	0.061
Mof_C 	C 	0.43624	0.6303	0.72286	0.362
Mof_C 	C 	0.3259	0.3004	0.60783	-0.03
Mof_C 	C 	0.9985	0.5637	0.51594	0.012
Mof_C 	C 	0.30306	0.3044	0.71876	0.362
Mof_C 	C 	0.147	0.6014	0.66373	-0.044
Mof_H 	H 	0.1346	0.6448	0.6514	0.062
Mof_C 	C 	0.1505	0.4716	0.66429	-0.048
Mof_H 	H 	0.1399	0.4275	0.6522	0.065
Mof_C 	C 	0.3823	0.3659	0.66371	-0.031
Mof_H 	H 	0.3992	0.38	0.6517	0.059
Mof_C 	C 	0.39587	0.6794	0.70482	-0.077
Mof_C 	C 	0.2508	0.0765	0.5393	0.027
Mof_C 	C 	0.3705	0.7045	0.72305	0.01
Mof_H 	H 	0.382	0.6943	0.748	0.058
Mof_C 	C 	0.0647	0.5248	0.57614	0.001
Mof_C 	C 	0.3167	0.3013	0.66383	-0.034
Mof_H 	H 	0.2894	0.2733	0.6516	0.058
Mof_C 	C 	0.3292	0.7438	0.70431	-0.056
Mof_C 	C 	0.2996	0.748	0.5187	0.012
Mof_C 	C 	0.1867	0.4727	0.7007	-0.056
Mof_C 	C 	0.1299	0.5353	0.64593	0.032
Mof_C 	C 	0.3006	0.7601	0.57857	0.003
Mof_C 	C 	0.2489	0.2056	0.52605	0.013
Mof_C 	C 	0.9995	0.6943	0.503	0.017
Mof_C 	C 	0.3141	0.7643	0.6677	-0.047
Mof_H 	H 	0.2871	0.7929	0.6556	0.064
Mof_C 	C 	0.0933	0.5324	0.60785	-0.034
Mof_C 	C 	0.9677	0.6828	0.4666	0.038
Mof_C 	C 	0.9657	0.7265	0.4398	-0.09
Mof_H 	H 	0.9431	0.7201	0.4152	0.061
Mof_C 	C 	0.221	0.0627	0.503	0.021
Mof_C 	C 	0.2795	0.307	0.50913	0.01
Mof_C 	C 	0.161	0.144	0.5059	0.017
Mof_C 	C 	0.03135	0.4466	0.52073	0.013
Mof_C 	C 	0.2254	0.7588	0.52007	0.014
Mof_C 	C 	0.8619	0.6332	0.4717	-0.078
Mof_H 	H 	0.8405	0.6277	0.4467	0.061
Mof_C 	C 	0.3429	0.321	0.64607	0.022
Mof_C 	C 	0.2442	0.152	0.55289	-0.088
Mof_H 	H 	0.2658	0.1616	0.579	0.061
Mof_C 	C 	0.3611	0.6704	0.5202	0.025
Mof_C 	C 	0.115	0.1474	0.4951	-0.063
Mof_H 	H 	0.0935	0.1398	0.4704	0.052
Mof_C 	C 	0.3363	0.6601	0.4811	0.029
Mof_C 	C 	0.392	0.6134	0.5436	-0.076
Mof_H 	H 	0.4089	0.6171	0.5692	0.055
Mof_C 	C 	0.3452	0.8493	0.4535	-0.068
Mof_H 	H 	0.328	0.8459	0.4279	0.057
Mof_C 	C 	0.3382	0.7432	0.64909	0.03
Mof_C 	C 	0.32	0.7565	0.61114	-0.034
Mof_C 	C 	0.3392	0.7944	0.4757	0.021
Mof_C 	C 	0.942	0.6429	0.5215	0.022
Mof_C 	C 	0.354	0.7419	0.5343	-0.087
Mof_H 	H 	0.3719	0.7464	0.5612	0.061
Mof_C 	C 	0.9932	0.6403	0.5295	-0.078
Mof_H 	H 	0.0158	0.6489	0.5556	0.058
Mof_C 	C 	0.3645	0.8008	0.5144	0.033
Mof_C 	C 	0.1872	0.1272	0.4837	-0.077
Mof_H 	H 	0.1658	0.1186	0.4574	0.058
Mof_C 	C 	0.2213	0.9965	0.4866	-0.066
Mof_H 	H 	0.1995	0.9862	0.4622	0.058
Mof_C 	C 	0.0322	0.7489	0.5133	-0.063
Mof_H 	H 	0.0541	0.7549	0.5381	0.053
Mof_C 	C 	0.2858	0.0235	0.5609	-0.08
Mof_H 	H 	0.3068	0.0323	0.5857	0.06
Mof_C 	C 	0.9239	0.6591	0.5455	-0.071
Mof_H 	H 	0.9446	0.6705	0.57	0.057
Mof_C 	C 	0.1912	0.1542	0.5421	0.04
Mof_C 	C 	0.1766	0.1659	0.5677	-0.097
Mof_H 	H 	0.1987	0.1703	0.5926	0.063
Mof_C 	C 	0.9342	0.6187	0.46135	-0.093
Mof_H 	H 	0.9118	0.6101	0.4353	0.062
Mof_C 	C 	0.9104	0.6314	0.483	0.034
Mof_C 	C 	0.3419	0.6019	0.4661	-0.079
Mof_H 	H 	0.3261	0.5996	0.4405	0.058
Mof_C 	C 	0.2557	0.9473	0.5085	-0.035
Mof_H 	H 	0.2576	0.903	0.4986	0.049
Mof_C 	C 	0.3061	0.7306	0.4623	-0.085
Mof_H 	H 	0.2883	0.7273	0.4354	0.06
Mof_C 	C 	0.9994	0.7822	0.4506	-0.019
Mof_H 	H 	0.9996	0.8125	0.4326	0.034
Mof_C 	C 	0.0334	0.7938	0.4882	-0.04
Mof_H 	H 	0.0555	0.831	0.4951	0.047
Mof_C 	C 	0.3937	0.5536	0.5245	-0.031
Mof_H 	H 	0.4127	0.5151	0.5381	0.038
Mof_C 	C 	0.8752	0.6583	0.533	-0.029
Mof_H 	H 	0.8635	0.6681	0.5493	0.045
Mof_C 	C 	0.1312	0.1709	0.5571	-0.002
Mof_H 	H 	0.1212	0.1804	0.5745	0.028
Mof_C 	C 	0.0976	0.1622	0.5203	-0.05
Mof_H 	H 	0.0652	0.1659	0.5125	0.05
Mof_C 	C 	0.3957	0.8576	0.53	-0.08
Mof_H 	H 	0.4137	0.8613	0.5555	0.061
Mof_C 	C 	0.3999	0.9087	0.5076	-0.02
Mof_H 	H 	0.4202	0.9476	0.5186	0.043
Mof_C 	C 	0.3747	0.9051	0.4686	-0.031
Mof_H 	H 	0.3787	0.9402	0.4541	0.046
Mof_C 	C 	0.288	0.9631	0.5456	-0.015
Mof_H 	H 	0.3114	0.9294	0.5595	0.039
Mof_C 	C 	0.8442	0.643	0.4964	-0.023
Mof_H 	H 	0.8118	0.6393	0.4883	0.045
Mof_C 	C 	0.3677	0.5459	0.4839	-0.027
Mof_H 	H 	0.3696	0.5043	0.4719	0.041
Mof_Cu	Cu	0.21781	0.82308	0.72179	0.903
Mof_Cu	Cu	0.27816	0.74912	0.78091	0.902
Mof_Cu	Cu	0.99395	0.03609	0.77988	0.905
Mof_O 	O 	0.26109	0.1665	0.74829	-0.4
Mof_O 	O 	0.31278	0.2298	0.79822	-0.395
Mof_O 	O 	0.23385	0.7683	0.79916	-0.418
Mof_O 	O 	0.30635	0.8468	0.79937	-0.42
Mof_O 	O 	0.04557	0.109	0.79632	-0.409
Mof_O 	O 	0.1831	0.8315	0.74977	-0.411
Mof_O 	O 	0.256	0.9067	0.74852	-0.415
Mof_O 	O 	0.05396	0.9642	0.75045	-0.425
Mof_O 	O 	0.04207	0.9598	0.79915	-0.397
Mof_O 	O 	0.0522	0.1121	0.74452	-0.41
Mof_O 	O 	0.23654	0.3016	0.79581	-0.394
Mof_O 	O 	0.18448	0.2391	0.74471	-0.402
Mof_C 	C 	0.0653	0.9446	0.78137	0.369
Mof_C 	C 	0.20119	0.2592	0.77753	0.33
Mof_C 	C 	0.2248	0.257	0.96139	-0.027
Mof_C 	C 	0.1926	0.7841	0.92408	-0
Mof_C 	C 	0.29603	0.1705	0.78019	0.335
Mof_C 	C 	0.3165	0.1013	0.79922	-0.067
Mof_C 	C 	0.168	0.8241	0.79978	-0.077
Mof_C 	C 	0.28755	0.8998	0.78127	0.374
Mof_C 	C 	0.4694	0.0131	0.96231	-0.026
Mof_C 	C 	0.2195	0.7659	0.96158	-0.025
Mof_C 	C 	0.12867	0.8677	0.78228	0.022
Mof_H 	H 	0.1187	0.8826	0.7581	0.054
Mof_C 	C 	0.29806	0.0361	0.78154	0.007
Mof_H 	H 	0.2747	0.0362	0.7569	0.059
Mof_C 	C 	0.10373	0.8899	0.80023	-0.081
Mof_C 	C 	0.12043	0.2017	0.83202	-0.036
Mof_H 	H 	0.1033	0.1885	0.844	0.061
Mof_C 	C 	0.06376	0.1303	0.77714	0.362
Mof_C 	C 	0.1741	0.8004	0.89217	-0.03
Mof_C 	C 	0.5015	0.0637	0.98406	0.012
Mof_C 	C 	0.19694	0.8044	0.78124	0.362
Mof_C 	C 	0.353	0.1014	0.83627	-0.044
Mof_H 	H 	0.3654	0.1448	0.8486	0.062
Mof_C 	C 	0.3495	0.9716	0.83571	-0.048
Mof_H 	H 	0.3601	0.9275	0.8478	0.065
Mof_C 	C 	0.1177	0.8659	0.83629	-0.031
Mof_H 	H 	0.1008	0.88	0.8483	0.059
Mof_C 	C 	0.10413	0.1794	0.79518	-0.077
Mof_C 	C 	0.2492	0.5765	0.9607	0.027
Mof_C 	C 	0.1295	0.2045	0.77695	0.01
Mof_H 	H 	0.118	0.1943	0.752	0.058
Mof_C 	C 	0.4353	0.0248	0.92386	0.001
Mof_C 	C 	0.1833	0.8013	0.83617	-0.034
Mof_H 	H 	0.2106	0.7733	0.8484	0.058
Mof_C 	C 	0.1708	0.2438	0.79569	-0.056
Mof_C 	C 	0.2004	0.248	0.9813	0.012
Mof_C 	C 	0.3133	0.9727	0.7993	-0.056
Mof_C 	C 	0.3701	0.0353	0.85407	0.032
Mof_C 	C 	0.1994	0.2601	0.92143	0.003
Mof_C 	C 	0.2511	0.7056	0.97395	0.013
Mof_C 	C 	0.5005	0.1943	0.997	0.017
Mof_C 	C 	0.1859	0.2643	0.8323	-0.047
Mof_H 	H 	0.2129	0.2929	0.8444	0.064
Mof_C 	C 	0.4067	0.0324	0.89215	-0.034
Mof_C 	C 	0.5323	0.1828	0.0334	0.038
Mof_C 	C 	0.5343	0.2265	0.0602	-0.09
Mof_H 	H 	0.5569	0.2201	0.0848	0.061
Mof_C 	C 	0.279	0.5627	0.997	0.022
Mof_C 	C 	0.2205	0.807	0.99087	0.01
Mof_C 	C 	0.339	0.644	0.9941	0.017
Mof_C 	C 	0.46865	0.9466	0.97927	0.014
Mof_C 	C 	0.2746	0.2588	0.97993	0.014
Mof_C 	C 	0.6381	0.1332	0.0283	-0.079
Mof_H 	H 	0.6595	0.1277	0.0533	0.061
Mof_C 	C 	0.1571	0.821	0.85393	0.022
Mof_C 	C 	0.2558	0.652	0.94711	-0.088
Mof_H 	H 	0.2342	0.6616	0.921	0.061
Mof_C 	C 	0.1389	0.1704	0.9798	0.025
Mof_C 	C 	0.385	0.6474	0.0049	-0.063
Mof_H 	H 	0.4065	0.6398	0.0296	0.052
Mof_C 	C 	0.1637	0.1601	0.0189	0.029
Mof_C 	C 	0.108	0.1134	0.9564	-0.076
Mof_H 	H 	0.0911	0.1171	0.9308	0.055
Mof_C 	C 	0.1548	0.3493	0.0465	-0.068
Mof_H 	H 	0.172	0.3459	0.0721	0.057
Mof_C 	C 	0.1618	0.2432	0.85091	0.03
Mof_C 	C 	0.18	0.2565	0.88886	-0.034
Mof_C 	C 	0.1608	0.2944	0.0243	0.022
Mof_C 	C 	0.558	0.1429	0.9785	0.022
Mof_C 	C 	0.146	0.2419	0.9657	-0.087
Mof_H 	H 	0.1281	0.2464	0.9388	0.06
Mof_C 	C 	0.5068	0.1403	0.9705	-0.078
Mof_H 	H 	0.4842	0.1489	0.9444	0.058
Mof_C 	C 	0.1355	0.3008	0.9856	0.033
Mof_C 	C 	0.3128	0.6272	0.0163	-0.077
Mof_H 	H 	0.3342	0.6186	0.0426	0.058
Mof_C 	C 	0.2787	0.4965	0.0134	-0.066
Mof_H 	H 	0.3005	0.4862	0.0378	0.058
Mof_C 	C 	0.4678	0.2489	0.9867	-0.063
Mof_H 	H 	0.4459	0.2549	0.9619	0.053
Mof_C 	C 	0.2142	0.5235	0.9391	-0.079
Mof_H 	H 	0.1932	0.5323	0.9143	0.06
Mof_C 	C 	0.5761	0.1591	0.9545	-0.071
Mof_H 	H 	0.5554	0.1705	0.93	0.057
Mof_C 	C 	0.3088	0.6542	0.9579	0.04
Mof_C 	C 	0.3234	0.6659	0.9323	-0.096
Mof_H 	H 	0.3013	0.6703	0.9074	0.063
Mof_C 	C 	0.5658	0.1187	0.03865	-0.093
Mof_H 	H 	0.5882	0.1101	0.0647	0.062
Mof_C 	C 	0.5896	0.1314	0.017	0.035
Mof_C 	C 	0.1581	0.1019	0.0339	-0.08
Mof_H 	H 	0.1739	0.0996	0.0595	0.059
Mof_C 	C 	0.2443	0.4473	0.9915	-0.035
Mof_H 	H 	0.2424	0.403	0.0014	0.049
Mof_C 	C 	0.1939	0.2306	0.0377	-0.085
Mof_H 	H 	0.2117	0.2273	0.0646	0.06
Mof_C 	C 	0.5006	0.2822	0.0494	-0.019
Mof_H 	H 	0.5004	0.3125	0.0674	0.034
Mof_C 	C 	0.4666	0.2938	0.0118	-0.04
Mof_H 	H 	0.4445	0.331	0.0049	0.047
Mof_C 	C 	0.1063	0.0536	0.9755	-0.031
Mof_H 	H 	0.0873	0.0151	0.9619	0.038
Mof_C 	C 	0.6248	0.1583	0.967	-0.03
Mof_H 	H 	0.6365	0.1681	0.9507	0.045
Mof_C 	C 	0.3688	0.6709	0.9429	-0.002
Mof_H 	H 	0.3788	0.6804	0.9255	0.028
Mof_C 	C 	0.4024	0.6622	0.9797	-0.049
Mof_H 	H 	0.4348	0.6659	0.9875	0.05
Mof_C 	C 	0.1043	0.3576	0.97	-0.08
Mof_H 	H 	0.0863	0.3613	0.9445	0.061
Mof_C 	C 	0.1001	0.4087	0.9924	-0.02
Mof_H 	H 	0.0798	0.4476	0.9814	0.043
Mof_C 	C 	0.1253	0.4051	0.0314	-0.031
Mof_H 	H 	0.1213	0.4402	0.0459	0.046
Mof_C 	C 	0.212	0.4631	0.9544	-0.016
Mof_H 	H 	0.1886	0.4294	0.9405	0.039
Mof_C 	C 	0.6558	0.143	0.0036	-0.022
Mof_H 	H 	0.6882	0.1393	0.0117	0.044
Mof_C 	C 	0.1323	0.0459	0.0161	-0.026
Mof_H 	H 	0.1304	0.0043	0.0281	0.041
Mof_Cu	Cu	0.71781	0.32308	0.72179	0.903
Mof_Cu	Cu	0.77816	0.24912	0.7809	0.902
Mof_Cu	Cu	0.49395	0.53609	0.77988	0.906
Mof_O 	O 	0.76109	0.6665	0.74829	-0.4
Mof_O 	O 	0.81278	0.7298	0.79822	-0.395
Mof_O 	O 	0.73385	0.2683	0.79916	-0.418
Mof_O 	O 	0.80635	0.3468	0.79937	-0.42
Mof_O 	O 	0.54557	0.609	0.79632	-0.409
Mof_O 	O 	0.6831	0.3315	0.74977	-0.411
Mof_O 	O 	0.756	0.4067	0.74852	-0.415
Mof_O 	O 	0.55396	0.4642	0.75045	-0.425
Mof_O 	O 	0.54207	0.4598	0.79915	-0.397
Mof_O 	O 	0.5522	0.6121	0.74452	-0.41
Mof_O 	O 	0.73654	0.8016	0.79581	-0.394
Mof_O 	O 	0.68448	0.7391	0.74471	-0.402
Mof_C 	C 	0.5653	0.4446	0.78137	0.369
Mof_C 	C 	0.70119	0.7592	0.77753	0.33
Mof_C 	C 	0.7248	0.757	0.96139	-0.027
Mof_C 	C 	0.6926	0.2841	0.92408	-0
Mof_C 	C 	0.79603	0.6705	0.78019	0.335
Mof_C 	C 	0.8165	0.6013	0.79922	-0.067
Mof_C 	C 	0.668	0.3241	0.79978	-0.077
Mof_C 	C 	0.78755	0.3998	0.78127	0.374
Mof_C 	C 	0.9694	0.5131	0.96231	-0.026
Mof_C 	C 	0.7195	0.2659	0.96158	-0.025
Mof_C 	C 	0.62867	0.3677	0.78228	0.022
Mof_H 	H 	0.6187	0.3826	0.7581	0.053
Mof_C 	C 	0.79806	0.5361	0.78154	0.007
Mof_H 	H 	0.7747	0.5362	0.7569	0.059
Mof_C 	C 	0.60373	0.3899	0.80023	-0.081
Mof_C 	C 	0.62043	0.7017	0.83202	-0.036
Mof_H 	H 	0.6033	0.6885	0.844	0.061
Mof_C 	C 	0.56376	0.6303	0.77714	0.362
Mof_C 	C 	0.6741	0.3004	0.89217	-0.03
Mof_C 	C 	0.0015	0.5637	0.98406	0.012
Mof_C 	C 	0.69694	0.3044	0.78124	0.362
Mof_C 	C 	0.853	0.6014	0.83627	-0.044
Mof_H 	H 	0.8654	0.6448	0.8486	0.062
Mof_C 	C 	0.8495	0.4716	0.83571	-0.048
Mof_H 	H 	0.8601	0.4275	0.8478	0.065
Mof_C 	C 	0.6177	0.3659	0.83629	-0.031
Mof_H 	H 	0.6008	0.38	0.8483	0.059
Mof_C 	C 	0.60413	0.6794	0.79518	-0.077
Mof_C 	C 	0.7492	0.0765	0.9607	0.027
Mof_C 	C 	0.6295	0.7045	0.77695	0.01
Mof_H 	H 	0.618	0.6943	0.752	0.058
Mof_C 	C 	0.9353	0.5248	0.92386	0.001
Mof_C 	C 	0.6833	0.3013	0.83617	-0.034
Mof_H 	H 	0.7106	0.2733	0.8484	0.058
Mof_C 	C 	0.6708	0.7438	0.79569	-0.056
Mof_C 	C 	0.7004	0.748	0.9813	0.012
Mof_C 	C 	0.8133	0.4727	0.7993	-0.056
Mof_C 	C 	0.8701	0.5353	0.85407	0.032
Mof_C 	C 	0.6994	0.7601	0.92143	0.003
Mof_C 	C 	0.7511	0.2056	0.97395	0.013
Mof_C 	C 	0.0005	0.6943	0.997	0.018
Mof_C 	C 	0.6859	0.7643	0.8323	-0.047
Mof_H 	H 	0.7129	0.7929	0.8444	0.064
Mof_C 	C 	0.9067	0.5324	0.89215	-0.034
Mof_C 	C 	0.0323	0.6828	0.0334	0.037
Mof_C 	C 	0.0343	0.7265	0.0602	-0.089
Mof_H 	H 	0.0569	0.7201	0.0848	0.06
Mof_C 	C 	0.779	0.0627	0.997	0.021
Mof_C 	C 	0.7205	0.307	0.99087	0.009
Mof_C 	C 	0.839	0.144	0.9941	0.016
Mof_C 	C 	0.96865	0.4466	0.97927	0.013
Mof_C 	C 	0.7746	0.7588	0.97993	0.014
Mof_C 	C 	0.1381	0.6332	0.0283	-0.078
Mof_H 	H 	0.1595	0.6277	0.0533	0.06
Mof_C 	C 	0.6571	0.321	0.85393	0.022
Mof_C 	C 	0.7558	0.152	0.94711	-0.089
Mof_H 	H 	0.7342	0.1616	0.921	0.062
Mof_C 	C 	0.6389	0.6704	0.9798	0.025
Mof_C 	C 	0.885	0.1474	0.0049	-0.061
Mof_H 	H 	0.9065	0.1398	0.0296	0.051
Mof_C 	C 	0.6637	0.6601	0.0189	0.029
Mof_C 	C 	0.608	0.6134	0.9564	-0.077
Mof_H 	H 	0.5911	0.6171	0.9308	0.055
Mof_C 	C 	0.6548	0.8493	0.0465	-0.068
Mof_H 	H 	0.672	0.8459	0.0721	0.057
Mof_C 	C 	0.6618	0.7432	0.85091	0.03
Mof_C 	C 	0.68	0.7565	0.88886	-0.034
Mof_C 	C 	0.6608	0.7944	0.0243	0.021
Mof_C 	C 	0.058	0.6429	0.9785	0.023
Mof_C 	C 	0.646	0.7419	0.9657	-0.087
Mof_H 	H 	0.6281	0.7464	0.9388	0.061
Mof_C 	C 	0.0068	0.6403	0.9705	-0.078
Mof_H 	H 	0.9842	0.6489	0.9444	0.058
Mof_C 	C 	0.6355	0.8008	0.9856	0.033
Mof_C 	C 	0.8128	0.1272	0.0163	-0.076
Mof_H 	H 	0.8342	0.1186	0.0426	0.057
Mof_C 	C 	0.7787	0.9965	0.0134	-0.066
Mof_H 	H 	0.8005	0.9862	0.0378	0.058
Mof_C 	C 	0.9678	0.7489	0.9867	-0.064
Mof_H 	H 	0.9459	0.7549	0.9619	0.053
Mof_C 	C 	0.7142	0.0235	0.9391	-0.08
Mof_H 	H 	0.6932	0.0323	0.9143	0.06
Mof_C 	C 	0.0761	0.6591	0.9545	-0.071
Mof_H 	H 	0.0554	0.6705	0.93	0.057
Mof_C 	C 	0.8088	0.1542	0.9579	0.041
Mof_C 	C 	0.8234	0.1659	0.9323	-0.098
Mof_H 	H 	0.8013	0.1703	0.9074	0.064
Mof_C 	C 	0.0658	0.6187	0.03865	-0.092
Mof_H 	H 	0.0882	0.6101	0.0647	0.062
Mof_C 	C 	0.0896	0.6314	0.017	0.034
Mof_C 	C 	0.6581	0.6019	0.0339	-0.079
Mof_H 	H 	0.6739	0.5996	0.0595	0.058
Mof_C 	C 	0.7443	0.9473	0.9915	-0.035
Mof_H 	H 	0.7424	0.903	0.0014	0.049
Mof_C 	C 	0.6939	0.7306	0.0377	-0.084
Mof_H 	H 	0.7117	0.7273	0.0646	0.06
Mof_C 	C 	0.0006	0.7822	0.0494	-0.019
Mof_H 	H 	0.0004	0.8125	0.0674	0.034
Mof_C 	C 	0.9666	0.7938	0.0118	-0.04
Mof_H 	H 	0.9445	0.831	0.0049	0.047
Mof_C 	C 	0.6063	0.5536	0.9755	-0.031
Mof_H 	H 	0.5873	0.5151	0.9619	0.038
Mof_C 	C 	0.1248	0.6583	0.967	-0.029
Mof_H 	H 	0.1365	0.6681	0.9507	0.044
Mof_C 	C 	0.8688	0.1709	0.9429	-0
Mof_H 	H 	0.8788	0.1804	0.9255	0.027
Mof_C 	C 	0.9024	0.1622	0.9797	-0.051
Mof_H 	H 	0.9348	0.1659	0.9875	0.05
Mof_C 	C 	0.6043	0.8576	0.97	-0.081
Mof_H 	H 	0.5863	0.8613	0.9445	0.061
Mof_C 	C 	0.6001	0.9087	0.9924	-0.019
Mof_H 	H 	0.5798	0.9476	0.9814	0.043
Mof_C 	C 	0.6253	0.9051	0.0314	-0.032
Mof_H 	H 	0.6213	0.9402	0.0459	0.046
Mof_C 	C 	0.712	0.9631	0.9544	-0.015
Mof_H 	H 	0.6886	0.9294	0.9405	0.039
Mof_C 	C 	0.1558	0.643	0.0036	-0.024
Mof_H 	H 	0.1882	0.6393	0.0117	0.045
Mof_C 	C 	0.6323	0.5459	0.0161	-0.027
Mof_H 	H 	0.6304	0.5043	0.0281	0.041
_end
