data_functionalizedCrystal
_audit_creation_method	'EQeq! by Chris Wilmer'
_symmetry_space_group_name_H-M	'P1'
_symmetry_Int_Tables_number	1
_symmetry_cell_setting	triclinic
loop_
_symmetry_equiv_pos_as_xyz
  x,y,z
_cell_length_a	34.9443
_cell_length_b	34.9443
_cell_length_c	23.436
_cell_angle_alpha	90
_cell_angle_beta	90
_cell_angle_gamma	120
loop_
_atom_site_label
_atom_site_type_symbol
_atom_site_fract_x
_atom_site_fract_y
_atom_site_fract_z
_atom_site_charge
Mof_O 	O 	0.36102	0.21979	0.59987	-0.409
Mof_O 	O 	0.38965	0.23421	0.68855	-0.419
Mof_C 	C 	0.38721	0.2448	0.63856	0.366
Mof_C 	C 	0.41846	0.29178	0.61997	-0.131
Mof_C 	C 	0.44675	0.32259	0.66104	0.065
Mof_H 	H 	0.4461	0.314	0.6987	0.015
Mof_C 	C 	0.4753	0.36555	0.64453	-0.162
Mof_H 	H 	0.4948	0.3856	0.6711	0.095
Mof_C 	C 	0.4754	0.37955	0.58871	0.123
Mof_C 	C 	0.44733	0.34894	0.54863	-0.161
Mof_H 	H 	0.4479	0.3576	0.511	0.088
Mof_C 	C 	0.41838	0.30526	0.5647	0.07
Mof_H 	H 	0.399	0.2852	0.5381	0.02
Mof_C 	C 	0.50385	0.42645	0.57032	-0.087
Mof_C 	C 	0.48593	0.44621	0.53565	-0.037
Mof_H 	H 	0.4567	0.4293	0.5239	0.042
Mof_H 	H 	0.5652	0.3897	0.5618	-0.234
Mof_H 	H 	0.628	0.4169	0.6468	0.475
Mof_O 	O 	0.02769	0.55312	0.9332	-0.409
Mof_O 	O 	0.05632	0.56754	0.02188	-0.419
Mof_C 	C 	0.05388	0.57813	0.97189	0.367
Mof_C 	C 	0.08513	0.62511	0.9533	-0.132
Mof_C 	C 	0.11342	0.65592	0.99437	0.066
Mof_H 	H 	0.11277	0.64733	0.03203	0.014
Mof_C 	C 	0.14197	0.69888	0.97786	-0.162
Mof_H 	H 	0.16147	0.71893	0.00443	0.095
Mof_C 	C 	0.14207	0.71288	0.92204	0.123
Mof_C 	C 	0.114	0.68227	0.88196	-0.161
Mof_H 	H 	0.11457	0.69093	0.84433	0.088
Mof_C 	C 	0.08505	0.63859	0.89803	0.071
Mof_H 	H 	0.06567	0.61853	0.87143	0.02
Mof_C 	C 	0.17052	0.75978	0.90365	-0.087
Mof_C 	C 	0.1526	0.77954	0.86898	-0.037
Mof_H 	H 	0.12337	0.76263	0.85723	0.042
Mof_H 	H 	0.23187	0.72303	0.89513	-0.234
Mof_H 	H 	0.29467	0.75023	0.98013	0.475
Mof_O 	O 	0.69435	0.88646	0.26654	-0.409
Mof_O 	O 	0.72298	0.90088	0.35522	-0.419
Mof_C 	C 	0.72054	0.91147	0.30523	0.366
Mof_C 	C 	0.75179	0.95845	0.28664	-0.131
Mof_C 	C 	0.78008	0.98926	0.32771	0.065
Mof_H 	H 	0.77943	0.98067	0.36537	0.015
Mof_C 	C 	0.80863	0.03222	0.3112	-0.162
Mof_H 	H 	0.82813	0.05227	0.33777	0.095
Mof_C 	C 	0.80873	0.04622	0.25538	0.123
Mof_C 	C 	0.78066	0.01561	0.2153	-0.16
Mof_H 	H 	0.78123	0.02427	0.17767	0.088
Mof_C 	C 	0.75171	0.97193	0.23137	0.07
Mof_H 	H 	0.73233	0.95187	0.20477	0.02
Mof_C 	C 	0.83718	0.09312	0.23699	-0.087
Mof_C 	C 	0.81926	0.11288	0.20232	-0.037
Mof_H 	H 	0.79003	0.09597	0.19057	0.042
Mof_H 	H 	0.89853	0.05637	0.22847	-0.233
Mof_H 	H 	0.96133	0.08357	0.31347	0.476
Mof_O 	O 	0.78021	0.14123	0.59987	-0.408
Mof_O 	O 	0.76579	0.15544	0.68855	-0.418
Mof_C 	C 	0.7552	0.14241	0.63856	0.367
Mof_C 	C 	0.70822	0.12668	0.61997	-0.13
Mof_C 	C 	0.67741	0.12416	0.66104	0.066
Mof_H 	H 	0.686	0.1321	0.6987	0.016
Mof_C 	C 	0.63445	0.10975	0.64453	-0.161
Mof_H 	H 	0.6144	0.1092	0.6711	0.096
Mof_C 	C 	0.62045	0.09585	0.58871	0.124
Mof_C 	C 	0.65106	0.09839	0.54863	-0.16
Mof_H 	H 	0.6424	0.0903	0.511	0.089
Mof_C 	C 	0.69474	0.11312	0.5647	0.071
Mof_H 	H 	0.7148	0.1138	0.5381	0.021
Mof_C 	C 	0.57355	0.0774	0.57032	-0.086
Mof_C 	C 	0.55379	0.03972	0.53565	-0.036
Mof_H 	H 	0.5707	0.0274	0.5239	0.043
Mof_H 	H 	0.6103	0.1755	0.5618	-0.233
Mof_H 	H 	0.5831	0.2111	0.6468	0.476
Mof_O 	O 	0.44688	0.47456	0.9332	-0.408
Mof_O 	O 	0.43246	0.48877	0.02188	-0.418
Mof_C 	C 	0.42187	0.47574	0.97189	0.367
Mof_C 	C 	0.37489	0.46001	0.9533	-0.13
Mof_C 	C 	0.34408	0.45749	0.99437	0.067
Mof_H 	H 	0.35267	0.46543	0.03203	0.016
Mof_C 	C 	0.30112	0.44308	0.97786	-0.161
Mof_H 	H 	0.28107	0.44253	0.00443	0.096
Mof_C 	C 	0.28712	0.42918	0.92204	0.124
Mof_C 	C 	0.31773	0.43172	0.88196	-0.16
Mof_H 	H 	0.30907	0.42363	0.84433	0.089
Mof_C 	C 	0.36141	0.44645	0.89803	0.071
Mof_H 	H 	0.38147	0.44713	0.87143	0.021
Mof_C 	C 	0.24022	0.41073	0.90365	-0.086
Mof_C 	C 	0.22046	0.37305	0.86898	-0.036
Mof_H 	H 	0.23737	0.36073	0.85723	0.043
Mof_H 	H 	0.27697	0.50883	0.89513	-0.233
Mof_H 	H 	0.24977	0.54443	0.98013	0.476
Mof_O 	O 	0.11354	0.8079	0.26654	-0.408
Mof_O 	O 	0.09912	0.82211	0.35522	-0.418
Mof_C 	C 	0.08853	0.80908	0.30523	0.367
Mof_C 	C 	0.04155	0.79335	0.28664	-0.13
Mof_C 	C 	0.01074	0.79083	0.32771	0.066
Mof_H 	H 	0.01933	0.79877	0.36537	0.016
Mof_C 	C 	0.96778	0.77642	0.3112	-0.161
Mof_H 	H 	0.94773	0.77587	0.33777	0.096
Mof_C 	C 	0.95378	0.76252	0.25538	0.124
Mof_C 	C 	0.98439	0.76506	0.2153	-0.16
Mof_H 	H 	0.97573	0.75697	0.17767	0.089
Mof_C 	C 	0.02807	0.77979	0.23137	0.071
Mof_H 	H 	0.04813	0.78047	0.20477	0.021
Mof_C 	C 	0.90688	0.74407	0.23699	-0.086
Mof_C 	C 	0.88712	0.70639	0.20232	-0.036
Mof_H 	H 	0.90403	0.69407	0.19057	0.043
Mof_H 	H 	0.94363	0.84217	0.22847	-0.233
Mof_H 	H 	0.91643	0.87777	0.31347	0.476
Mof_O 	O 	0.85877	0.63898	0.59987	-0.408
Mof_O 	O 	0.84456	0.61035	0.68855	-0.418
Mof_C 	C 	0.85759	0.61279	0.63856	0.367
Mof_C 	C 	0.87332	0.58154	0.61997	-0.13
Mof_C 	C 	0.87584	0.55325	0.66104	0.066
Mof_H 	H 	0.8679	0.5539	0.6987	0.016
Mof_C 	C 	0.89025	0.5247	0.64453	-0.161
Mof_H 	H 	0.8908	0.5052	0.6711	0.096
Mof_C 	C 	0.90415	0.5246	0.58871	0.124
Mof_C 	C 	0.90161	0.55267	0.54863	-0.16
Mof_H 	H 	0.9097	0.5521	0.511	0.089
Mof_C 	C 	0.88688	0.58162	0.5647	0.071
Mof_H 	H 	0.8862	0.601	0.5381	0.021
Mof_C 	C 	0.9226	0.49615	0.57032	-0.086
Mof_C 	C 	0.96028	0.51407	0.53565	-0.036
Mof_H 	H 	0.9726	0.5433	0.5239	0.043
Mof_H 	H 	0.8245	0.4348	0.5618	-0.233
Mof_H 	H 	0.7889	0.372	0.6468	0.476
Mof_O 	O 	0.52544	0.97231	0.9332	-0.408
Mof_O 	O 	0.51123	0.94368	0.02188	-0.418
Mof_C 	C 	0.52426	0.94612	0.97189	0.367
Mof_C 	C 	0.53999	0.91487	0.9533	-0.131
Mof_C 	C 	0.54251	0.88658	0.99437	0.067
Mof_H 	H 	0.53457	0.88723	0.03203	0.015
Mof_C 	C 	0.55692	0.85803	0.97786	-0.161
Mof_H 	H 	0.55747	0.83853	0.00443	0.096
Mof_C 	C 	0.57082	0.85793	0.92204	0.124
Mof_C 	C 	0.56828	0.886	0.88196	-0.16
Mof_H 	H 	0.57637	0.88543	0.84433	0.089
Mof_C 	C 	0.55355	0.91495	0.89803	0.072
Mof_H 	H 	0.55287	0.93433	0.87143	0.021
Mof_C 	C 	0.58927	0.82948	0.90365	-0.086
Mof_C 	C 	0.62695	0.8474	0.86898	-0.036
Mof_H 	H 	0.63927	0.87663	0.85723	0.043
Mof_H 	H 	0.49117	0.76813	0.89513	-0.233
Mof_H 	H 	0.45557	0.70533	0.98013	0.476
Mof_O 	O 	0.1921	0.30565	0.26654	-0.408
Mof_O 	O 	0.17789	0.27702	0.35522	-0.418
Mof_C 	C 	0.19092	0.27946	0.30523	0.367
Mof_C 	C 	0.20665	0.24821	0.28664	-0.13
Mof_C 	C 	0.20917	0.21992	0.32771	0.066
Mof_H 	H 	0.20123	0.22057	0.36537	0.016
Mof_C 	C 	0.22358	0.19137	0.3112	-0.161
Mof_H 	H 	0.22413	0.17187	0.33777	0.096
Mof_C 	C 	0.23748	0.19127	0.25538	0.124
Mof_C 	C 	0.23494	0.21934	0.2153	-0.16
Mof_H 	H 	0.24303	0.21877	0.17767	0.089
Mof_C 	C 	0.22021	0.24829	0.23137	0.071
Mof_H 	H 	0.21953	0.26767	0.20477	0.021
Mof_C 	C 	0.25593	0.16282	0.23699	-0.086
Mof_C 	C 	0.29361	0.18074	0.20232	-0.036
Mof_H 	H 	0.30593	0.20997	0.19057	0.043
Mof_H 	H 	0.15783	0.10147	0.22847	-0.233
Mof_H 	H 	0.12223	0.03867	0.31347	0.476
Mof_O 	O 	0.21979	0.36102	0.40013	-0.408
Mof_O 	O 	0.23421	0.38965	0.31145	-0.418
Mof_C 	C 	0.2448	0.38721	0.36144	0.367
Mof_C 	C 	0.29178	0.41846	0.38003	-0.13
Mof_C 	C 	0.32259	0.44675	0.33896	0.066
Mof_H 	H 	0.314	0.4461	0.3013	0.016
Mof_C 	C 	0.36555	0.4753	0.35547	-0.161
Mof_H 	H 	0.3856	0.4948	0.3289	0.096
Mof_C 	C 	0.37955	0.4754	0.41129	0.124
Mof_C 	C 	0.34894	0.44733	0.45137	-0.16
Mof_H 	H 	0.3576	0.4479	0.489	0.089
Mof_C 	C 	0.30526	0.41838	0.4353	0.071
Mof_H 	H 	0.2852	0.399	0.4619	0.021
Mof_C 	C 	0.42645	0.50385	0.42968	-0.086
Mof_C 	C 	0.44621	0.48593	0.46435	-0.036
Mof_H 	H 	0.4293	0.4567	0.4761	0.043
Mof_H 	H 	0.3897	0.5652	0.4382	-0.233
Mof_H 	H 	0.4169	0.628	0.3532	0.476
Mof_O 	O 	0.88646	0.69435	0.73346	-0.408
Mof_O 	O 	0.90088	0.72298	0.64478	-0.418
Mof_C 	C 	0.91147	0.72054	0.69477	0.367
Mof_C 	C 	0.95845	0.75179	0.71336	-0.13
Mof_C 	C 	0.98926	0.78008	0.67229	0.066
Mof_H 	H 	0.98067	0.77943	0.63463	0.016
Mof_C 	C 	0.03222	0.80863	0.6888	-0.161
Mof_H 	H 	0.05227	0.82813	0.66223	0.096
Mof_C 	C 	0.04622	0.80873	0.74462	0.124
Mof_C 	C 	0.01561	0.78066	0.7847	-0.159
Mof_H 	H 	0.02427	0.78123	0.82233	0.089
Mof_C 	C 	0.97193	0.75171	0.76863	0.071
Mof_H 	H 	0.95187	0.73233	0.79523	0.021
Mof_C 	C 	0.09312	0.83718	0.76301	-0.086
Mof_C 	C 	0.11288	0.81926	0.79768	-0.036
Mof_H 	H 	0.09597	0.79003	0.80943	0.043
Mof_H 	H 	0.05637	0.89853	0.77153	-0.233
Mof_H 	H 	0.08357	0.96133	0.68653	0.476
Mof_O 	O 	0.55312	0.02769	0.0668	-0.408
Mof_O 	O 	0.56754	0.05632	0.97812	-0.418
Mof_C 	C 	0.57813	0.05388	0.02811	0.368
Mof_C 	C 	0.62511	0.08513	0.0467	-0.131
Mof_C 	C 	0.65592	0.11342	0.00563	0.067
Mof_H 	H 	0.64733	0.11277	0.96797	0.015
Mof_C 	C 	0.69888	0.14197	0.02214	-0.161
Mof_H 	H 	0.71893	0.16147	0.99557	0.096
Mof_C 	C 	0.71288	0.14207	0.07796	0.124
Mof_C 	C 	0.68227	0.114	0.11804	-0.16
Mof_H 	H 	0.69093	0.11457	0.15567	0.089
Mof_C 	C 	0.63859	0.08505	0.10197	0.072
Mof_H 	H 	0.61853	0.06567	0.12857	0.021
Mof_C 	C 	0.75978	0.17052	0.09635	-0.086
Mof_C 	C 	0.77954	0.1526	0.13102	-0.036
Mof_H 	H 	0.76263	0.12337	0.14277	0.043
Mof_H 	H 	0.72303	0.23187	0.10487	-0.233
Mof_H 	H 	0.75023	0.29467	0.01987	0.476
Mof_O 	O 	0.14123	0.78021	0.40013	-0.408
Mof_O 	O 	0.15544	0.76579	0.31145	-0.418
Mof_C 	C 	0.14241	0.7552	0.36144	0.367
Mof_C 	C 	0.12668	0.70822	0.38003	-0.13
Mof_C 	C 	0.12416	0.67741	0.33896	0.066
Mof_H 	H 	0.1321	0.686	0.3013	0.016
Mof_C 	C 	0.10975	0.63445	0.35547	-0.161
Mof_H 	H 	0.1092	0.6144	0.3289	0.096
Mof_C 	C 	0.09585	0.62045	0.41129	0.124
Mof_C 	C 	0.09839	0.65106	0.45137	-0.16
Mof_H 	H 	0.0903	0.6424	0.489	0.089
Mof_C 	C 	0.11312	0.69474	0.4353	0.071
Mof_H 	H 	0.1138	0.7148	0.4619	0.021
Mof_C 	C 	0.0774	0.57355	0.42968	-0.086
Mof_C 	C 	0.03972	0.55379	0.46435	-0.036
Mof_H 	H 	0.0274	0.5707	0.4761	0.043
Mof_H 	H 	0.1755	0.6103	0.4382	-0.233
Mof_H 	H 	0.2111	0.5831	0.3532	0.476
Mof_O 	O 	0.8079	0.11354	0.73346	-0.408
Mof_O 	O 	0.82211	0.09912	0.64478	-0.418
Mof_C 	C 	0.80908	0.08853	0.69477	0.367
Mof_C 	C 	0.79335	0.04155	0.71336	-0.13
Mof_C 	C 	0.79083	0.01074	0.67229	0.066
Mof_H 	H 	0.79877	0.01933	0.63463	0.016
Mof_C 	C 	0.77642	0.96778	0.6888	-0.161
Mof_H 	H 	0.77587	0.94773	0.66223	0.096
Mof_C 	C 	0.76252	0.95378	0.74462	0.124
Mof_C 	C 	0.76506	0.98439	0.7847	-0.16
Mof_H 	H 	0.75697	0.97573	0.82233	0.089
Mof_C 	C 	0.77979	0.02807	0.76863	0.071
Mof_H 	H 	0.78047	0.04813	0.79523	0.021
Mof_C 	C 	0.74407	0.90688	0.76301	-0.086
Mof_C 	C 	0.70639	0.88712	0.79768	-0.036
Mof_H 	H 	0.69407	0.90403	0.80943	0.043
Mof_H 	H 	0.84217	0.94363	0.77153	-0.233
Mof_H 	H 	0.87777	0.91643	0.68653	0.476
Mof_O 	O 	0.47456	0.44688	0.0668	-0.408
Mof_O 	O 	0.48877	0.43246	0.97812	-0.418
Mof_C 	C 	0.47574	0.42187	0.02811	0.367
Mof_C 	C 	0.46001	0.37489	0.0467	-0.13
Mof_C 	C 	0.45749	0.34408	0.00563	0.067
Mof_H 	H 	0.46543	0.35267	0.96797	0.016
Mof_C 	C 	0.44308	0.30112	0.02214	-0.161
Mof_H 	H 	0.44253	0.28107	0.99557	0.096
Mof_C 	C 	0.42918	0.28712	0.07796	0.124
Mof_C 	C 	0.43172	0.31773	0.11804	-0.16
Mof_H 	H 	0.42363	0.30907	0.15567	0.089
Mof_C 	C 	0.44645	0.36141	0.10197	0.071
Mof_H 	H 	0.44713	0.38147	0.12857	0.021
Mof_C 	C 	0.41073	0.24022	0.09635	-0.086
Mof_C 	C 	0.37305	0.22046	0.13102	-0.036
Mof_H 	H 	0.36073	0.23737	0.14277	0.043
Mof_H 	H 	0.50883	0.27697	0.10487	-0.233
Mof_H 	H 	0.54443	0.24977	0.01987	0.476
Mof_O 	O 	0.63898	0.85877	0.40013	-0.408
Mof_O 	O 	0.61035	0.84456	0.31145	-0.418
Mof_C 	C 	0.61279	0.85759	0.36144	0.367
Mof_C 	C 	0.58154	0.87332	0.38003	-0.13
Mof_C 	C 	0.55325	0.87584	0.33896	0.066
Mof_H 	H 	0.5539	0.8679	0.3013	0.016
Mof_C 	C 	0.5247	0.89025	0.35547	-0.161
Mof_H 	H 	0.5052	0.8908	0.3289	0.096
Mof_C 	C 	0.5246	0.90415	0.41129	0.124
Mof_C 	C 	0.55267	0.90161	0.45137	-0.16
Mof_H 	H 	0.5521	0.9097	0.489	0.089
Mof_C 	C 	0.58162	0.88688	0.4353	0.071
Mof_H 	H 	0.601	0.8862	0.4619	0.021
Mof_C 	C 	0.49615	0.9226	0.42968	-0.086
Mof_C 	C 	0.51407	0.96028	0.46435	-0.036
Mof_H 	H 	0.5433	0.9726	0.4761	0.043
Mof_H 	H 	0.4348	0.8245	0.4382	-0.233
Mof_H 	H 	0.372	0.7889	0.3532	0.476
Mof_O 	O 	0.30565	0.1921	0.73346	-0.408
Mof_O 	O 	0.27702	0.17789	0.64478	-0.418
Mof_C 	C 	0.27946	0.19092	0.69477	0.367
Mof_C 	C 	0.24821	0.20665	0.71336	-0.13
Mof_C 	C 	0.21992	0.20917	0.67229	0.066
Mof_H 	H 	0.22057	0.20123	0.63463	0.016
Mof_C 	C 	0.19137	0.22358	0.6888	-0.161
Mof_H 	H 	0.17187	0.22413	0.66223	0.096
Mof_C 	C 	0.19127	0.23748	0.74462	0.124
Mof_C 	C 	0.21934	0.23494	0.7847	-0.16
Mof_H 	H 	0.21877	0.24303	0.82233	0.089
Mof_C 	C 	0.24829	0.22021	0.76863	0.071
Mof_H 	H 	0.26767	0.21953	0.79523	0.021
Mof_C 	C 	0.16282	0.25593	0.76301	-0.086
Mof_C 	C 	0.18074	0.29361	0.79768	-0.036
Mof_H 	H 	0.20997	0.30593	0.80943	0.043
Mof_H 	H 	0.10147	0.15783	0.77153	-0.233
Mof_H 	H 	0.03867	0.12223	0.68653	0.476
Mof_O 	O 	0.97231	0.52544	0.0668	-0.408
Mof_O 	O 	0.94368	0.51123	0.97812	-0.418
Mof_C 	C 	0.94612	0.52426	0.02811	0.367
Mof_C 	C 	0.91487	0.53999	0.0467	-0.131
Mof_C 	C 	0.88658	0.54251	0.00563	0.067
Mof_H 	H 	0.88723	0.53457	0.96797	0.015
Mof_C 	C 	0.85803	0.55692	0.02214	-0.161
Mof_H 	H 	0.83853	0.55747	0.99557	0.096
Mof_C 	C 	0.85793	0.57082	0.07796	0.124
Mof_C 	C 	0.886	0.56828	0.11804	-0.16
Mof_H 	H 	0.88543	0.57637	0.15567	0.089
Mof_C 	C 	0.91495	0.55355	0.10197	0.072
Mof_H 	H 	0.93433	0.55287	0.12857	0.021
Mof_C 	C 	0.82948	0.58927	0.09635	-0.086
Mof_C 	C 	0.8474	0.62695	0.13102	-0.036
Mof_H 	H 	0.87663	0.63927	0.14277	0.043
Mof_H 	H 	0.76813	0.49117	0.10487	-0.233
Mof_H 	H 	0.70533	0.45557	0.01987	0.476
Mof_O 	O 	0.63898	0.78021	0.40013	-0.408
Mof_O 	O 	0.61035	0.76579	0.31145	-0.418
Mof_C 	C 	0.61279	0.7552	0.36144	0.367
Mof_C 	C 	0.58154	0.70822	0.38003	-0.13
Mof_C 	C 	0.55325	0.67741	0.33896	0.066
Mof_H 	H 	0.5539	0.686	0.3013	0.016
Mof_C 	C 	0.5247	0.63445	0.35547	-0.161
Mof_H 	H 	0.5052	0.6144	0.3289	0.096
Mof_C 	C 	0.5246	0.62045	0.41129	0.124
Mof_C 	C 	0.55267	0.65106	0.45137	-0.16
Mof_H 	H 	0.5521	0.6424	0.489	0.089
Mof_C 	C 	0.58162	0.69474	0.4353	0.071
Mof_H 	H 	0.601	0.7148	0.4619	0.021
Mof_C 	C 	0.49615	0.57355	0.42968	-0.086
Mof_C 	C 	0.51407	0.55379	0.46435	-0.036
Mof_H 	H 	0.5433	0.5707	0.4761	0.043
Mof_H 	H 	0.4348	0.6103	0.4382	-0.233
Mof_H 	H 	0.372	0.5831	0.3532	0.476
Mof_O 	O 	0.30565	0.11354	0.73346	-0.408
Mof_O 	O 	0.27702	0.09912	0.64478	-0.418
Mof_C 	C 	0.27946	0.08853	0.69477	0.367
Mof_C 	C 	0.24821	0.04155	0.71336	-0.13
Mof_C 	C 	0.21992	0.01074	0.67229	0.066
Mof_H 	H 	0.22057	0.01933	0.63463	0.016
Mof_C 	C 	0.19137	0.96778	0.6888	-0.161
Mof_H 	H 	0.17187	0.94773	0.66223	0.096
Mof_C 	C 	0.19127	0.95378	0.74462	0.124
Mof_C 	C 	0.21934	0.98439	0.7847	-0.159
Mof_H 	H 	0.21877	0.97573	0.82233	0.089
Mof_C 	C 	0.24829	0.02807	0.76863	0.071
Mof_H 	H 	0.26767	0.04813	0.79523	0.021
Mof_C 	C 	0.16282	0.90688	0.76301	-0.086
Mof_C 	C 	0.18074	0.88712	0.79768	-0.036
Mof_H 	H 	0.20997	0.90403	0.80943	0.043
Mof_H 	H 	0.10147	0.94363	0.77153	-0.233
Mof_H 	H 	0.03867	0.91643	0.68653	0.476
Mof_O 	O 	0.97231	0.44688	0.0668	-0.408
Mof_O 	O 	0.94368	0.43246	0.97812	-0.418
Mof_C 	C 	0.94612	0.42187	0.02811	0.368
Mof_C 	C 	0.91487	0.37489	0.0467	-0.131
Mof_C 	C 	0.88658	0.34408	0.00563	0.067
Mof_H 	H 	0.88723	0.35267	0.96797	0.015
Mof_C 	C 	0.85803	0.30112	0.02214	-0.161
Mof_H 	H 	0.83853	0.28107	0.99557	0.096
Mof_C 	C 	0.85793	0.28712	0.07796	0.124
Mof_C 	C 	0.886	0.31773	0.11804	-0.16
Mof_H 	H 	0.88543	0.30907	0.15567	0.089
Mof_C 	C 	0.91495	0.36141	0.10197	0.072
Mof_H 	H 	0.93433	0.38147	0.12857	0.021
Mof_C 	C 	0.82948	0.24022	0.09635	-0.086
Mof_C 	C 	0.8474	0.22046	0.13102	-0.036
Mof_H 	H 	0.87663	0.23737	0.14277	0.043
Mof_H 	H 	0.76813	0.27697	0.10487	-0.233
Mof_H 	H 	0.70533	0.24977	0.01987	0.476
Mof_O 	O 	0.21979	0.85877	0.40013	-0.408
Mof_O 	O 	0.23421	0.84456	0.31145	-0.418
Mof_C 	C 	0.2448	0.85759	0.36144	0.367
Mof_C 	C 	0.29178	0.87332	0.38003	-0.13
Mof_C 	C 	0.32259	0.87584	0.33896	0.066
Mof_H 	H 	0.314	0.8679	0.3013	0.016
Mof_C 	C 	0.36555	0.89025	0.35547	-0.161
Mof_H 	H 	0.3856	0.8908	0.3289	0.096
Mof_C 	C 	0.37955	0.90415	0.41129	0.124
Mof_C 	C 	0.34894	0.90161	0.45137	-0.16
Mof_H 	H 	0.3576	0.9097	0.489	0.089
Mof_C 	C 	0.30526	0.88688	0.4353	0.071
Mof_H 	H 	0.2852	0.8862	0.4619	0.021
Mof_C 	C 	0.42645	0.9226	0.42968	-0.086
Mof_C 	C 	0.44621	0.96028	0.46435	-0.036
Mof_H 	H 	0.4293	0.9726	0.4761	0.043
Mof_H 	H 	0.3897	0.8245	0.4382	-0.233
Mof_H 	H 	0.4169	0.7889	0.3532	0.476
Mof_O 	O 	0.88646	0.1921	0.73346	-0.408
Mof_O 	O 	0.90088	0.17789	0.64478	-0.418
Mof_C 	C 	0.91147	0.19092	0.69477	0.367
Mof_C 	C 	0.95845	0.20665	0.71336	-0.13
Mof_C 	C 	0.98926	0.20917	0.67229	0.066
Mof_H 	H 	0.98067	0.20123	0.63463	0.016
Mof_C 	C 	0.03222	0.22358	0.6888	-0.161
Mof_H 	H 	0.05227	0.22413	0.66223	0.096
Mof_C 	C 	0.04622	0.23748	0.74462	0.124
Mof_C 	C 	0.01561	0.23494	0.7847	-0.16
Mof_H 	H 	0.02427	0.24303	0.82233	0.089
Mof_C 	C 	0.97193	0.22021	0.76863	0.071
Mof_H 	H 	0.95187	0.21953	0.79523	0.021
Mof_C 	C 	0.09312	0.25593	0.76301	-0.086
Mof_C 	C 	0.11288	0.29361	0.79768	-0.036
Mof_H 	H 	0.09597	0.30593	0.80943	0.043
Mof_H 	H 	0.05637	0.15783	0.77153	-0.233
Mof_H 	H 	0.08357	0.12223	0.68653	0.476
Mof_O 	O 	0.55312	0.52544	0.0668	-0.408
Mof_O 	O 	0.56754	0.51123	0.97812	-0.418
Mof_C 	C 	0.57813	0.52426	0.02811	0.367
Mof_C 	C 	0.62511	0.53999	0.0467	-0.13
Mof_C 	C 	0.65592	0.54251	0.00563	0.067
Mof_H 	H 	0.64733	0.53457	0.96797	0.016
Mof_C 	C 	0.69888	0.55692	0.02214	-0.161
Mof_H 	H 	0.71893	0.55747	0.99557	0.096
Mof_C 	C 	0.71288	0.57082	0.07796	0.124
Mof_C 	C 	0.68227	0.56828	0.11804	-0.16
Mof_H 	H 	0.69093	0.57637	0.15567	0.089
Mof_C 	C 	0.63859	0.55355	0.10197	0.071
Mof_H 	H 	0.61853	0.55287	0.12857	0.021
Mof_C 	C 	0.75978	0.58927	0.09635	-0.086
Mof_C 	C 	0.77954	0.62695	0.13102	-0.036
Mof_H 	H 	0.76263	0.63927	0.14277	0.043
Mof_H 	H 	0.72303	0.49117	0.10487	-0.233
Mof_H 	H 	0.75023	0.45557	0.01987	0.476
Mof_O 	O 	0.14123	0.36102	0.40013	-0.408
Mof_O 	O 	0.15544	0.38965	0.31145	-0.418
Mof_C 	C 	0.14241	0.38721	0.36144	0.367
Mof_C 	C 	0.12668	0.41846	0.38003	-0.13
Mof_C 	C 	0.12416	0.44675	0.33896	0.066
Mof_H 	H 	0.1321	0.4461	0.3013	0.016
Mof_C 	C 	0.10975	0.4753	0.35547	-0.161
Mof_H 	H 	0.1092	0.4948	0.3289	0.096
Mof_C 	C 	0.09585	0.4754	0.41129	0.124
Mof_C 	C 	0.09839	0.44733	0.45137	-0.16
Mof_H 	H 	0.0903	0.4479	0.489	0.089
Mof_C 	C 	0.11312	0.41838	0.4353	0.071
Mof_H 	H 	0.1138	0.399	0.4619	0.021
Mof_C 	C 	0.0774	0.50385	0.42968	-0.086
Mof_C 	C 	0.03972	0.48593	0.46435	-0.036
Mof_H 	H 	0.0274	0.4567	0.4761	0.043
Mof_H 	H 	0.1755	0.5652	0.4382	-0.233
Mof_H 	H 	0.2111	0.628	0.3532	0.476
Mof_O 	O 	0.8079	0.69435	0.73346	-0.408
Mof_O 	O 	0.82211	0.72298	0.64478	-0.418
Mof_C 	C 	0.80908	0.72054	0.69477	0.367
Mof_C 	C 	0.79335	0.75179	0.71336	-0.13
Mof_C 	C 	0.79083	0.78008	0.67229	0.066
Mof_H 	H 	0.79877	0.77943	0.63463	0.016
Mof_C 	C 	0.77642	0.80863	0.6888	-0.161
Mof_H 	H 	0.77587	0.82813	0.66223	0.096
Mof_C 	C 	0.76252	0.80873	0.74462	0.124
Mof_C 	C 	0.76506	0.78066	0.7847	-0.16
Mof_H 	H 	0.75697	0.78123	0.82233	0.089
Mof_C 	C 	0.77979	0.75171	0.76863	0.071
Mof_H 	H 	0.78047	0.73233	0.79523	0.021
Mof_C 	C 	0.74407	0.83718	0.76301	-0.086
Mof_C 	C 	0.70639	0.81926	0.79768	-0.036
Mof_H 	H 	0.69407	0.79003	0.80943	0.043
Mof_H 	H 	0.84217	0.89853	0.77153	-0.233
Mof_H 	H 	0.87777	0.96133	0.68653	0.476
Mof_O 	O 	0.47456	0.02769	0.0668	-0.408
Mof_O 	O 	0.48877	0.05632	0.97812	-0.418
Mof_C 	C 	0.47574	0.05388	0.02811	0.367
Mof_C 	C 	0.46001	0.08513	0.0467	-0.131
Mof_C 	C 	0.45749	0.11342	0.00563	0.067
Mof_H 	H 	0.46543	0.11277	0.96797	0.015
Mof_C 	C 	0.44308	0.14197	0.02214	-0.161
Mof_H 	H 	0.44253	0.16147	0.99557	0.096
Mof_C 	C 	0.42918	0.14207	0.07796	0.124
Mof_C 	C 	0.43172	0.114	0.11804	-0.16
Mof_H 	H 	0.42363	0.11457	0.15567	0.089
Mof_C 	C 	0.44645	0.08505	0.10197	0.072
Mof_H 	H 	0.44713	0.06567	0.12857	0.021
Mof_C 	C 	0.41073	0.17052	0.09635	-0.086
Mof_C 	C 	0.37305	0.1526	0.13102	-0.036
Mof_H 	H 	0.36073	0.12337	0.14277	0.043
Mof_H 	H 	0.50883	0.23187	0.10487	-0.233
Mof_H 	H 	0.54443	0.29467	0.01987	0.476
Mof_O 	O 	0.78021	0.63898	0.59987	-0.408
Mof_O 	O 	0.76579	0.61035	0.68855	-0.418
Mof_C 	C 	0.7552	0.61279	0.63856	0.367
Mof_C 	C 	0.70822	0.58154	0.61997	-0.13
Mof_C 	C 	0.67741	0.55325	0.66104	0.066
Mof_H 	H 	0.686	0.5539	0.6987	0.016
Mof_C 	C 	0.63445	0.5247	0.64453	-0.161
Mof_H 	H 	0.6144	0.5052	0.6711	0.096
Mof_C 	C 	0.62045	0.5246	0.58871	0.124
Mof_C 	C 	0.65106	0.55267	0.54863	-0.16
Mof_H 	H 	0.6424	0.5521	0.511	0.089
Mof_C 	C 	0.69474	0.58162	0.5647	0.071
Mof_H 	H 	0.7148	0.601	0.5381	0.021
Mof_C 	C 	0.57355	0.49615	0.57032	-0.086
Mof_C 	C 	0.55379	0.51407	0.53565	-0.036
Mof_H 	H 	0.5707	0.5433	0.5239	0.043
Mof_H 	H 	0.6103	0.4348	0.5618	-0.233
Mof_H 	H 	0.5831	0.372	0.6468	0.476
Mof_O 	O 	0.44688	0.97231	0.9332	-0.408
Mof_O 	O 	0.43246	0.94368	0.02188	-0.418
Mof_C 	C 	0.42187	0.94612	0.97189	0.368
Mof_C 	C 	0.37489	0.91487	0.9533	-0.131
Mof_C 	C 	0.34408	0.88658	0.99437	0.067
Mof_H 	H 	0.35267	0.88723	0.03203	0.015
Mof_C 	C 	0.30112	0.85803	0.97786	-0.161
Mof_H 	H 	0.28107	0.83853	0.00443	0.096
Mof_C 	C 	0.28712	0.85793	0.92204	0.124
Mof_C 	C 	0.31773	0.886	0.88196	-0.16
Mof_H 	H 	0.30907	0.88543	0.84433	0.089
Mof_C 	C 	0.36141	0.91495	0.89803	0.072
Mof_H 	H 	0.38147	0.93433	0.87143	0.021
Mof_C 	C 	0.24022	0.82948	0.90365	-0.086
Mof_C 	C 	0.22046	0.8474	0.86898	-0.036
Mof_H 	H 	0.23737	0.87663	0.85723	0.043
Mof_H 	H 	0.27697	0.76813	0.89513	-0.233
Mof_H 	H 	0.24977	0.70533	0.98013	0.476
Mof_O 	O 	0.11354	0.30565	0.26654	-0.408
Mof_O 	O 	0.09912	0.27702	0.35522	-0.418
Mof_C 	C 	0.08853	0.27946	0.30523	0.367
Mof_C 	C 	0.04155	0.24821	0.28664	-0.13
Mof_C 	C 	0.01074	0.21992	0.32771	0.066
Mof_H 	H 	0.01933	0.22057	0.36537	0.016
Mof_C 	C 	0.96778	0.19137	0.3112	-0.161
Mof_H 	H 	0.94773	0.17187	0.33777	0.096
Mof_C 	C 	0.95378	0.19127	0.25538	0.124
Mof_C 	C 	0.98439	0.21934	0.2153	-0.159
Mof_H 	H 	0.97573	0.21877	0.17767	0.089
Mof_C 	C 	0.02807	0.24829	0.23137	0.071
Mof_H 	H 	0.04813	0.26767	0.20477	0.021
Mof_C 	C 	0.90688	0.16282	0.23699	-0.086
Mof_C 	C 	0.88712	0.18074	0.20232	-0.036
Mof_H 	H 	0.90403	0.20997	0.19057	0.043
Mof_H 	H 	0.94363	0.10147	0.22847	-0.233
Mof_H 	H 	0.91643	0.03867	0.31347	0.476
Mof_O 	O 	0.85877	0.21979	0.59987	-0.408
Mof_O 	O 	0.84456	0.23421	0.68855	-0.418
Mof_C 	C 	0.85759	0.2448	0.63856	0.367
Mof_C 	C 	0.87332	0.29178	0.61997	-0.13
Mof_C 	C 	0.87584	0.32259	0.66104	0.066
Mof_H 	H 	0.8679	0.314	0.6987	0.016
Mof_C 	C 	0.89025	0.36555	0.64453	-0.161
Mof_H 	H 	0.8908	0.3856	0.6711	0.096
Mof_C 	C 	0.90415	0.37955	0.58871	0.124
Mof_C 	C 	0.90161	0.34894	0.54863	-0.16
Mof_H 	H 	0.9097	0.3576	0.511	0.089
Mof_C 	C 	0.88688	0.30526	0.5647	0.071
Mof_H 	H 	0.8862	0.2852	0.5381	0.021
Mof_C 	C 	0.9226	0.42645	0.57032	-0.086
Mof_C 	C 	0.96028	0.44621	0.53565	-0.036
Mof_H 	H 	0.9726	0.4293	0.5239	0.043
Mof_H 	H 	0.8245	0.3897	0.5618	-0.233
Mof_H 	H 	0.7889	0.4169	0.6468	0.476
Mof_O 	O 	0.52544	0.55312	0.9332	-0.408
Mof_O 	O 	0.51123	0.56754	0.02188	-0.418
Mof_C 	C 	0.52426	0.57813	0.97189	0.367
Mof_C 	C 	0.53999	0.62511	0.9533	-0.13
Mof_C 	C 	0.54251	0.65592	0.99437	0.067
Mof_H 	H 	0.53457	0.64733	0.03203	0.016
Mof_C 	C 	0.55692	0.69888	0.97786	-0.161
Mof_H 	H 	0.55747	0.71893	0.00443	0.096
Mof_C 	C 	0.57082	0.71288	0.92204	0.124
Mof_C 	C 	0.56828	0.68227	0.88196	-0.16
Mof_H 	H 	0.57637	0.69093	0.84433	0.089
Mof_C 	C 	0.55355	0.63859	0.89803	0.071
Mof_H 	H 	0.55287	0.61853	0.87143	0.021
Mof_C 	C 	0.58927	0.75978	0.90365	-0.086
Mof_C 	C 	0.62695	0.77954	0.86898	-0.036
Mof_H 	H 	0.63927	0.76263	0.85723	0.043
Mof_H 	H 	0.49117	0.72303	0.89513	-0.233
Mof_H 	H 	0.45557	0.75023	0.98013	0.476
Mof_O 	O 	0.1921	0.88646	0.26654	-0.408
Mof_O 	O 	0.17789	0.90088	0.35522	-0.418
Mof_C 	C 	0.19092	0.91147	0.30523	0.367
Mof_C 	C 	0.20665	0.95845	0.28664	-0.13
Mof_C 	C 	0.20917	0.98926	0.32771	0.066
Mof_H 	H 	0.20123	0.98067	0.36537	0.016
Mof_C 	C 	0.22358	0.03222	0.3112	-0.161
Mof_H 	H 	0.22413	0.05227	0.33777	0.096
Mof_C 	C 	0.23748	0.04622	0.25538	0.124
Mof_C 	C 	0.23494	0.01561	0.2153	-0.16
Mof_H 	H 	0.24303	0.02427	0.17767	0.089
Mof_C 	C 	0.22021	0.97193	0.23137	0.071
Mof_H 	H 	0.21953	0.95187	0.20477	0.021
Mof_C 	C 	0.25593	0.09312	0.23699	-0.086
Mof_C 	C 	0.29361	0.11288	0.20232	-0.036
Mof_H 	H 	0.30593	0.09597	0.19057	0.043
Mof_H 	H 	0.15783	0.05637	0.22847	-0.233
Mof_H 	H 	0.12223	0.08357	0.31347	0.476
Mof_O 	O 	0.36102	0.14123	0.59987	-0.408
Mof_O 	O 	0.38965	0.15544	0.68855	-0.418
Mof_C 	C 	0.38721	0.14241	0.63856	0.367
Mof_C 	C 	0.41846	0.12668	0.61997	-0.13
Mof_C 	C 	0.44675	0.12416	0.66104	0.066
Mof_H 	H 	0.4461	0.1321	0.6987	0.016
Mof_C 	C 	0.4753	0.10975	0.64453	-0.161
Mof_H 	H 	0.4948	0.1092	0.6711	0.096
Mof_C 	C 	0.4754	0.09585	0.58871	0.124
Mof_C 	C 	0.44733	0.09839	0.54863	-0.16
Mof_H 	H 	0.4479	0.0903	0.511	0.089
Mof_C 	C 	0.41838	0.11312	0.5647	0.071
Mof_H 	H 	0.399	0.1138	0.5381	0.021
Mof_C 	C 	0.50385	0.0774	0.57032	-0.086
Mof_C 	C 	0.48593	0.03972	0.53565	-0.036
Mof_H 	H 	0.4567	0.0274	0.5239	0.043
Mof_H 	H 	0.5652	0.1755	0.5618	-0.233
Mof_H 	H 	0.628	0.2111	0.6468	0.476
Mof_O 	O 	0.02769	0.47456	0.9332	-0.408
Mof_O 	O 	0.05632	0.48877	0.02188	-0.418
Mof_C 	C 	0.05388	0.47574	0.97189	0.367
Mof_C 	C 	0.08513	0.46001	0.9533	-0.131
Mof_C 	C 	0.11342	0.45749	0.99437	0.067
Mof_H 	H 	0.11277	0.46543	0.03203	0.015
Mof_C 	C 	0.14197	0.44308	0.97786	-0.161
Mof_H 	H 	0.16147	0.44253	0.00443	0.096
Mof_C 	C 	0.14207	0.42918	0.92204	0.124
Mof_C 	C 	0.114	0.43172	0.88196	-0.16
Mof_H 	H 	0.11457	0.42363	0.84433	0.089
Mof_C 	C 	0.08505	0.44645	0.89803	0.072
Mof_H 	H 	0.06567	0.44713	0.87143	0.021
Mof_C 	C 	0.17052	0.41073	0.90365	-0.086
Mof_C 	C 	0.1526	0.37305	0.86898	-0.036
Mof_H 	H 	0.12337	0.36073	0.85723	0.043
Mof_H 	H 	0.23187	0.50883	0.89513	-0.233
Mof_H 	H 	0.29467	0.54443	0.98013	0.476
Mof_O 	O 	0.69435	0.8079	0.26654	-0.408
Mof_O 	O 	0.72298	0.82211	0.35522	-0.418
Mof_C 	C 	0.72054	0.80908	0.30523	0.367
Mof_C 	C 	0.75179	0.79335	0.28664	-0.13
Mof_C 	C 	0.78008	0.79083	0.32771	0.066
Mof_H 	H 	0.77943	0.79877	0.36537	0.016
Mof_C 	C 	0.80863	0.77642	0.3112	-0.161
Mof_H 	H 	0.82813	0.77587	0.33777	0.096
Mof_C 	C 	0.80873	0.76252	0.25538	0.124
Mof_C 	C 	0.78066	0.76506	0.2153	-0.16
Mof_H 	H 	0.78123	0.75697	0.17767	0.089
Mof_C 	C 	0.75171	0.77979	0.23137	0.071
Mof_H 	H 	0.73233	0.78047	0.20477	0.021
Mof_C 	C 	0.83718	0.74407	0.23699	-0.086
Mof_C 	C 	0.81926	0.70639	0.20232	-0.036
Mof_H 	H 	0.79003	0.69407	0.19057	0.043
Mof_H 	H 	0.89853	0.84217	0.22847	-0.233
Mof_H 	H 	0.96133	0.87777	0.31347	0.476
Mof_Cu	Cu	0.35014	0.17507	0.71875	0.904
Mof_Cu	Cu	0.01681	0.5084	0.05208	0.904
Mof_Cu	Cu	0.68347	0.84174	0.38542	0.904
Mof_Cu	Cu	0.82493	0.17507	0.71875	0.904
Mof_Cu	Cu	0.4916	0.5084	0.05208	0.904
Mof_Cu	Cu	0.15826	0.84174	0.38542	0.904
Mof_Cu	Cu	0.82493	0.64986	0.71875	0.904
Mof_Cu	Cu	0.4916	0.98319	0.05208	0.904
Mof_Cu	Cu	0.15826	0.31653	0.38542	0.904
Mof_Cu	Cu	0.17507	0.35014	0.28125	0.904
Mof_Cu	Cu	0.84174	0.68347	0.61458	0.904
Mof_Cu	Cu	0.5084	0.01681	0.94792	0.904
Mof_Cu	Cu	0.17507	0.82493	0.28125	0.904
Mof_Cu	Cu	0.84174	0.15826	0.61458	0.904
Mof_Cu	Cu	0.5084	0.4916	0.94792	0.904
Mof_Cu	Cu	0.64986	0.82493	0.28125	0.904
Mof_Cu	Cu	0.31653	0.15826	0.61458	0.904
Mof_Cu	Cu	0.98319	0.4916	0.94792	0.904
Mof_O 	O 	0.56683	0.43317	0.62184	-0.368
Mof_C 	C 	0.50994	0.49006	0.518	0.003
Mof_C 	C 	0.54808	0.45192	0.58701	0.175
Mof_C 	C 	0.58743	0.41257	0.586	0.868
Mof_C 	C 	0.60596	0.39404	0.6232	-1.522
Mof_H 	H 	0.6193	0.3807	0.6011	0.468
Mof_O 	O 	0.2335	0.7665	0.95517	-0.368
Mof_C 	C 	0.17661	0.82339	0.85133	0.003
Mof_C 	C 	0.21475	0.78525	0.92034	0.175
Mof_C 	C 	0.2541	0.7459	0.91933	0.869
Mof_C 	C 	0.27263	0.72737	0.95653	-1.523
Mof_H 	H 	0.28597	0.71403	0.93443	0.468
Mof_O 	O 	0.90016	0.09984	0.28851	-0.368
Mof_C 	C 	0.84327	0.15673	0.18467	0.003
Mof_C 	C 	0.88141	0.11859	0.25368	0.175
Mof_C 	C 	0.92076	0.07924	0.25267	0.869
Mof_C 	C 	0.93929	0.06071	0.28987	-1.523
Mof_H 	H 	0.95263	0.04737	0.26777	0.468
Mof_O 	O 	0.56683	0.13366	0.62184	-0.368
Mof_C 	C 	0.50994	0.01988	0.518	0.003
Mof_C 	C 	0.54808	0.09616	0.58701	0.175
Mof_C 	C 	0.58743	0.17486	0.586	0.868
Mof_C 	C 	0.60596	0.21192	0.6232	-1.522
Mof_H 	H 	0.6193	0.2386	0.6011	0.468
Mof_O 	O 	0.2335	0.46699	0.95517	-0.368
Mof_C 	C 	0.17661	0.35321	0.85133	0.003
Mof_C 	C 	0.21475	0.42949	0.92034	0.175
Mof_C 	C 	0.2541	0.50819	0.91933	0.869
Mof_C 	C 	0.27263	0.54525	0.95653	-1.522
Mof_H 	H 	0.28597	0.57193	0.93443	0.468
Mof_O 	O 	0.90016	0.80033	0.28851	-0.368
Mof_C 	C 	0.84327	0.68655	0.18467	0.003
Mof_C 	C 	0.88141	0.76283	0.25368	0.175
Mof_C 	C 	0.92076	0.84153	0.25267	0.868
Mof_C 	C 	0.93929	0.87859	0.28987	-1.522
Mof_H 	H 	0.95263	0.90527	0.26777	0.468
Mof_O 	O 	0.86634	0.43317	0.62184	-0.368
Mof_C 	C 	0.98012	0.49006	0.518	0.003
Mof_C 	C 	0.90384	0.45192	0.58701	0.175
Mof_C 	C 	0.82514	0.41257	0.586	0.868
Mof_C 	C 	0.78808	0.39404	0.6232	-1.522
Mof_H 	H 	0.7614	0.3807	0.6011	0.468
Mof_O 	O 	0.53301	0.7665	0.95517	-0.368
Mof_C 	C 	0.64679	0.82339	0.85133	0.003
Mof_C 	C 	0.57051	0.78525	0.92034	0.175
Mof_C 	C 	0.49181	0.7459	0.91933	0.869
Mof_C 	C 	0.45475	0.72737	0.95653	-1.522
Mof_H 	H 	0.42807	0.71403	0.93443	0.468
Mof_O 	O 	0.19967	0.09984	0.28851	-0.368
Mof_C 	C 	0.31345	0.15673	0.18467	0.003
Mof_C 	C 	0.23717	0.11859	0.25368	0.175
Mof_C 	C 	0.15847	0.07924	0.25267	0.868
Mof_C 	C 	0.12141	0.06071	0.28987	-1.522
Mof_H 	H 	0.09473	0.04737	0.26777	0.468
Mof_O 	O 	0.43317	0.56683	0.37816	-0.368
Mof_C 	C 	0.49006	0.50994	0.482	0.003
Mof_C 	C 	0.45192	0.54808	0.41299	0.175
Mof_C 	C 	0.41257	0.58743	0.414	0.868
Mof_C 	C 	0.39404	0.60596	0.3768	-1.522
Mof_H 	H 	0.3807	0.6193	0.3989	0.468
Mof_O 	O 	0.09984	0.90016	0.71149	-0.368
Mof_C 	C 	0.15673	0.84327	0.81533	0.003
Mof_C 	C 	0.11859	0.88141	0.74632	0.175
Mof_C 	C 	0.07924	0.92076	0.74733	0.869
Mof_C 	C 	0.06071	0.93929	0.71013	-1.523
Mof_H 	H 	0.04737	0.95263	0.73223	0.468
Mof_O 	O 	0.7665	0.2335	0.04483	-0.368
Mof_C 	C 	0.82339	0.17661	0.14867	0.003
Mof_C 	C 	0.78525	0.21475	0.07966	0.175
Mof_C 	C 	0.7459	0.2541	0.08067	0.869
Mof_C 	C 	0.72737	0.27263	0.04347	-1.523
Mof_H 	H 	0.71403	0.28597	0.06557	0.468
Mof_O 	O 	0.13366	0.56683	0.37816	-0.368
Mof_C 	C 	0.01988	0.50994	0.482	0.003
Mof_C 	C 	0.09616	0.54808	0.41299	0.175
Mof_C 	C 	0.17486	0.58743	0.414	0.868
Mof_C 	C 	0.21192	0.60596	0.3768	-1.522
Mof_H 	H 	0.2386	0.6193	0.3989	0.468
Mof_O 	O 	0.80033	0.90016	0.71149	-0.368
Mof_C 	C 	0.68655	0.84327	0.81533	0.003
Mof_C 	C 	0.76283	0.88141	0.74632	0.175
Mof_C 	C 	0.84153	0.92076	0.74733	0.868
Mof_C 	C 	0.87859	0.93929	0.71013	-1.522
Mof_H 	H 	0.90527	0.95263	0.73223	0.468
Mof_O 	O 	0.46699	0.2335	0.04483	-0.368
Mof_C 	C 	0.35321	0.17661	0.14867	0.003
Mof_C 	C 	0.42949	0.21475	0.07966	0.175
Mof_C 	C 	0.50819	0.2541	0.08067	0.869
Mof_C 	C 	0.54525	0.27263	0.04347	-1.522
Mof_H 	H 	0.57193	0.28597	0.06557	0.468
Mof_O 	O 	0.43317	0.86634	0.37816	-0.368
Mof_C 	C 	0.49006	0.98012	0.482	0.003
Mof_C 	C 	0.45192	0.90384	0.41299	0.175
Mof_C 	C 	0.41257	0.82514	0.414	0.868
Mof_C 	C 	0.39404	0.78808	0.3768	-1.522
Mof_H 	H 	0.3807	0.7614	0.3989	0.468
Mof_O 	O 	0.09984	0.19967	0.71149	-0.368
Mof_C 	C 	0.15673	0.31345	0.81533	0.003
Mof_C 	C 	0.11859	0.23717	0.74632	0.175
Mof_C 	C 	0.07924	0.15847	0.74733	0.868
Mof_C 	C 	0.06071	0.12141	0.71013	-1.522
Mof_H 	H 	0.04737	0.09473	0.73223	0.468
Mof_O 	O 	0.7665	0.53301	0.04483	-0.368
Mof_C 	C 	0.82339	0.64679	0.14867	0.003
Mof_C 	C 	0.78525	0.57051	0.07966	0.175
Mof_C 	C 	0.7459	0.49181	0.08067	0.869
Mof_C 	C 	0.72737	0.45475	0.04347	-1.522
Mof_H 	H 	0.71403	0.42807	0.06557	0.468
_end
