# CIF file generated by openbabel 3.1.0, see https://openbabel.org
data_I
_chemical_name_common 'image0'
_cell_length_a 10.4385
_cell_length_b 27.184
_cell_length_c 9.3482
_cell_angle_alpha 90
_cell_angle_beta 90
_cell_angle_gamma 90
_space_group_name_H-M_alt 'P 1'
_space_group_name_Hall 'P 1'
loop_
    _symmetry_equiv_pos_as_xyz
    x,y,z
loop_
    _atom_site_label
    _atom_site_type_symbol
    _atom_site_fract_x
    _atom_site_fract_y
    _atom_site_fract_z
    _atom_site_occupancy
    C1       C        0.50030    0.07810    0.07560    1.000
    C2       C        0.47200    0.13030    0.12420    1.000
    C3       C        0.57190    0.16340    0.15600    1.000
    H1       H        0.65690    0.15430    0.14280    1.000
    C4       C        0.34700    0.14560    0.14130    1.000
    H2       H        0.28040    0.12420    0.11880    1.000
    C5       C        0.31900    0.19280    0.19200    1.000
    H3       H        0.23460    0.20280    0.20470    1.000
    C6       C        0.42080    0.22460    0.22320    1.000
    C7       C        0.54150    0.20930    0.20800    1.000
    C8       C        0.71400    0.26470    0.11800    1.000
    H4       H        0.75250    0.23590    0.07610    1.000
    H5       H        0.78000    0.28750    0.14460    1.000
    H6       H        0.65820    0.27990    0.04910    1.000
    O1       O        0.61320    0.06690    0.06640    1.000
    O2       O        0.41250    0.05180    0.04520    1.000
    C9       C        0.99970    0.92190    0.07560    1.000
    C10      C        0.02800    0.86970    0.12420    1.000
    C11      C        0.92810    0.83660    0.15600    1.000
    H7       H        0.84310    0.84570    0.14280    1.000
    C12      C        0.15300    0.85440    0.14130    1.000
    H8       H        0.21960    0.87580    0.11880    1.000
    C13      C        0.18100    0.80720    0.19200    1.000
    H9       H        0.26540    0.79720    0.20470    1.000
    C14      C        0.07920    0.77540    0.22320    1.000
    C15      C        0.95850    0.79070    0.20800    1.000
    C16      C        0.78600    0.73530    0.11800    1.000
    H10      H        0.74750    0.76410    0.07610    1.000
    H11      H        0.72000    0.71250    0.14460    1.000
    H12      H        0.84180    0.72010    0.04910    1.000
    O3       O        0.88680    0.93310    0.06640    1.000
    O4       O        0.08750    0.94820    0.04520    1.000
    C17      C        0.99970    0.57810    0.42440    1.000
    C18      C        0.02800    0.63030    0.37580    1.000
    C19      C        0.92810    0.66340    0.34400    1.000
    H13      H        0.84310    0.65430    0.35720    1.000
    C20      C        0.15300    0.64560    0.35870    1.000
    H14      H        0.21960    0.62420    0.38120    1.000
    C21      C        0.18100    0.69280    0.30800    1.000
    H15      H        0.26540    0.70280    0.29530    1.000
    C22      C        0.07920    0.72460    0.27680    1.000
    C23      C        0.95850    0.70930    0.29200    1.000
    C24      C        0.78600    0.76470    0.38200    1.000
    H16      H        0.74750    0.73590    0.42390    1.000
    H17      H        0.72000    0.78750    0.35540    1.000
    H18      H        0.84180    0.77990    0.45090    1.000
    O5       O        0.88680    0.56690    0.43360    1.000
    O6       O        0.08750    0.55180    0.45480    1.000
    C25      C        0.50030    0.42190    0.42440    1.000
    C26      C        0.47200    0.36970    0.37580    1.000
    C27      C        0.57190    0.33660    0.34400    1.000
    H19      H        0.65690    0.34570    0.35720    1.000
    C28      C        0.34700    0.35440    0.35870    1.000
    H20      H        0.28040    0.37580    0.38120    1.000
    C29      C        0.31900    0.30720    0.30800    1.000
    H21      H        0.23460    0.29720    0.29530    1.000
    C30      C        0.42080    0.27540    0.27680    1.000
    C31      C        0.54150    0.29070    0.29200    1.000
    C32      C        0.71400    0.23530    0.38200    1.000
    H22      H        0.75250    0.26410    0.42390    1.000
    H23      H        0.78000    0.21250    0.35540    1.000
    H24      H        0.65820    0.22010    0.45090    1.000
    O7       O        0.61320    0.43310    0.43360    1.000
    O8       O        0.41250    0.44820    0.45480    1.000
    C33      C        0.49970    0.92190    0.92440    1.000
    C34      C        0.52800    0.86970    0.87580    1.000
    C35      C        0.42810    0.83660    0.84400    1.000
    H25      H        0.34310    0.84570    0.85720    1.000
    C36      C        0.65300    0.85440    0.85870    1.000
    H26      H        0.71960    0.87580    0.88120    1.000
    C37      C        0.68100    0.80720    0.80800    1.000
    H27      H        0.76540    0.79720    0.79530    1.000
    C38      C        0.57920    0.77540    0.77680    1.000
    C39      C        0.45850    0.79070    0.79200    1.000
    C40      C        0.28600    0.73530    0.88200    1.000
    H28      H        0.24750    0.76410    0.92390    1.000
    H29      H        0.22000    0.71250    0.85540    1.000
    H30      H        0.34180    0.72010    0.95090    1.000
    O9       O        0.38680    0.93310    0.93360    1.000
    O10      O        0.58750    0.94820    0.95480    1.000
    C41      C        0.00030    0.07810    0.92440    1.000
    C42      C        0.97200    0.13030    0.87580    1.000
    C43      C        0.07190    0.16340    0.84400    1.000
    H31      H        0.15690    0.15430    0.85720    1.000
    C44      C        0.84700    0.14560    0.85870    1.000
    H32      H        0.78040    0.12420    0.88120    1.000
    C45      C        0.81900    0.19280    0.80800    1.000
    H33      H        0.73460    0.20280    0.79530    1.000
    C46      C        0.92080    0.22460    0.77680    1.000
    C47      C        0.04150    0.20930    0.79200    1.000
    C48      C        0.21400    0.26470    0.88200    1.000
    H34      H        0.25250    0.23590    0.92390    1.000
    H35      H        0.28000    0.28750    0.85540    1.000
    H36      H        0.15820    0.27990    0.95090    1.000
    O11      O        0.11320    0.06690    0.93360    1.000
    O12      O        0.91250    0.05180    0.95480    1.000
    C49      C        0.00030    0.42190    0.57560    1.000
    C50      C        0.97200    0.36970    0.62420    1.000
    C51      C        0.07190    0.33660    0.65600    1.000
    H37      H        0.15690    0.34570    0.64280    1.000
    C52      C        0.84700    0.35440    0.64130    1.000
    H38      H        0.78040    0.37580    0.61880    1.000
    C53      C        0.81900    0.30720    0.69200    1.000
    H39      H        0.73460    0.29720    0.70470    1.000
    C54      C        0.92080    0.27540    0.72320    1.000
    C55      C        0.04150    0.29070    0.70800    1.000
    C56      C        0.21400    0.23530    0.61800    1.000
    H40      H        0.25250    0.26410    0.57610    1.000
    H41      H        0.28000    0.21250    0.64460    1.000
    H42      H        0.15820    0.22010    0.54910    1.000
    O13      O        0.11320    0.43310    0.56640    1.000
    O14      O        0.91250    0.44820    0.54520    1.000
    C57      C        0.49970    0.57810    0.57560    1.000
    C58      C        0.52800    0.63030    0.62420    1.000
    C59      C        0.42810    0.66340    0.65600    1.000
    H43      H        0.34310    0.65430    0.64280    1.000
    C60      C        0.65300    0.64560    0.64130    1.000
    H44      H        0.71960    0.62420    0.61880    1.000
    C61      C        0.68100    0.69280    0.69200    1.000
    H45      H        0.76540    0.70280    0.70470    1.000
    C62      C        0.57920    0.72460    0.72320    1.000
    C63      C        0.45850    0.70930    0.70800    1.000
    C64      C        0.28600    0.76470    0.61800    1.000
    H46      H        0.24750    0.73590    0.57610    1.000
    H47      H        0.22000    0.78750    0.64460    1.000
    H48      H        0.34180    0.77990    0.54910    1.000
    O15      O        0.38680    0.56690    0.56640    1.000
    O16      O        0.58750    0.55180    0.54520    1.000
    Eu1      Eu       0.75000    0.00000    0.02597    1.000
    Eu2      Eu       0.75000    0.50000    0.47403    1.000
    Eu3      Eu       0.25000    0.00000    0.97403    1.000
    Eu4      Eu       0.25000    0.50000    0.52597    1.000
    C65      C        0.63900    0.25000    0.25000    1.000
    C66      C        0.86100    0.75000    0.25000    1.000
    C67      C        0.36100    0.75000    0.75000    1.000
    C68      C        0.13900    0.25000    0.75000    1.000
