data_functionalizedCrystal
_audit_creation_method	'EQeq! by Chris Wilmer'
_symmetry_space_group_name_H-M	'P1'
_symmetry_Int_Tables_number	1
_symmetry_cell_setting	triclinic
loop_
_symmetry_equiv_pos_as_xyz
  x,y,z
_cell_length_a	12.932
_cell_length_b	14.338
_cell_length_c	14.51
_cell_angle_alpha	104.743
_cell_angle_beta	108.981
_cell_angle_gamma	108.119
loop_
_atom_site_label
_atom_site_type_symbol
_atom_site_fract_x
_atom_site_fract_y
_atom_site_fract_z
_atom_site_charge
Mof_Eu	Eu	0.49806	0.89729	0.56945	2.084
Mof_Mo	Mo	0.14214	0.71242	0.46809	1.385
Mof_Mo	Mo	0.10426	0.4787	0.31954	0.797
Mof_Mo	Mo	0.95852	0.26434	0.35082	1.203
Mof_Mo	Mo	0.38727	0.64102	0.88939	1.779
Mof_Mo	Mo	0.35948	0.40858	0.74064	0.983
Mof_Mo	Mo	0.46854	0.26825	0.85139	1.056
Mof_Na	Na	0.5468	0.9426	0.9067	2.257
Mof_O 	O 	0.6531	0.9291	0.5119	-0.613
Mof_O 	O 	0.6307	0.0212	0.4101	-0.548
Mof_O 	O 	0.4086	0.9088	0.4063	-0.747
Mof_O 	O 	0.3517	0.9436	0.2672	-0.719
Mof_O 	O 	0.2912	0.7603	0.4866	-0.691
Mof_O 	O 	0.1486	0.5629	0.4946	-0.97
Mof_O 	O 	0.0651	0.598	0.3308	-0.676
Mof_O 	O 	0.9767	0.6178	0.4791	-0.872
Mof_O 	O 	0.1789	0.7638	0.6175	-0.565
Mof_O 	O 	0.9423	0.4166	0.3532	-0.877
Mof_O 	O 	0.1075	0.3624	0.3579	-0.693
Mof_O 	O 	0.4372	0.849	0.7064	-0.626
Mof_O 	O 	0.5519	0.6412	0.007	-1.071
Mof_O 	O 	0.3497	0.4772	0.896	-0.936
Mof_O 	O 	0.4296	0.5628	0.7891	-0.66
Mof_O 	O 	0.3801	0.6781	0.0236	-0.803
Mof_O 	O 	0.4594	0.7654	0.8952	-0.88
Mof_O 	O 	0.5301	0.4447	0.8842	-0.9
Mof_O 	O 	0.3301	0.2862	0.7731	-0.578
Mof_N 	N 	0.9017	0.8673	0.4231	-0.154
Mof_C 	C 	0.9286	0.8979	0.3502	0.062
Mof_H 	H 	0.9832	0.8795	0.3273	-0.006
Mof_C 	C 	0.8739	0.9574	0.3096	-0.112
Mof_H 	H 	0.8914	0.9806	0.2584	-0.024
Mof_C 	C 	0.7954	0.9825	0.3428	-0.018
Mof_H 	H 	0.7583	0.0237	0.3159	-0.001
Mof_C 	C 	0.7705	0.9464	0.4171	-0.213
Mof_C 	C 	0.8217	0.8876	0.4557	0.116
Mof_H 	H 	0.802	0.8612	0.5045	-0.048
Mof_C 	C 	0.6759	0.9681	0.4496	0.456
Mof_C 	C 	0.2508	0.7625	0.2481	-0.689
Mof_H 	H 	0.2369	0.7408	0.1737	0.109
Mof_H 	H 	0.1746	0.755	0.2521	0.128
Mof_H 	H 	0.2809	0.7171	0.2782	0.137
Mof_C 	C 	0.3428	0.877	0.3096	0.589
Mof_O 	O 	0.3734	0.9724	0.904	-0.738
Mof_Eu	Eu	0.50194	0.10271	0.43055	2.156
Mof_Mo	Mo	0.85786	0.28758	0.53191	1.669
Mof_Mo	Mo	0.89574	0.5213	0.68046	1.129
Mof_Mo	Mo	0.04148	0.73566	0.64918	0.718
Mof_Mo	Mo	0.61273	0.35898	0.11061	1.316
Mof_Mo	Mo	0.64052	0.59142	0.25936	1.017
Mof_Mo	Mo	0.53146	0.73175	0.14861	0.976
Mof_Na	Na	0.4532	0.0574	0.0933	1.648
Mof_O 	O 	0.3469	0.0709	0.4881	-0.661
Mof_O 	O 	0.3693	0.9788	0.5899	-0.645
Mof_O 	O 	0.5914	0.0912	0.5937	-0.736
Mof_O 	O 	0.6483	0.0564	0.7328	-0.651
Mof_O 	O 	0.7088	0.2397	0.5134	-0.75
Mof_O 	O 	0.8514	0.4371	0.5054	-0.949
Mof_O 	O 	0.9349	0.402	0.6692	-0.624
Mof_O 	O 	0.0233	0.3822	0.5209	-1.145
Mof_O 	O 	0.8211	0.2362	0.3825	-0.633
Mof_O 	O 	0.0577	0.5834	0.6468	-1.025
Mof_O 	O 	0.8925	0.6376	0.6421	-0.519
Mof_O 	O 	0.5628	0.151	0.2936	-0.58
Mof_O 	O 	0.4481	0.3588	0.993	-0.86
Mof_O 	O 	0.6503	0.5228	0.104	-0.994
Mof_O 	O 	0.5704	0.4372	0.2109	-0.638
Mof_O 	O 	0.6199	0.3219	0.9764	-0.549
Mof_O 	O 	0.5406	0.2346	0.1048	-0.826
Mof_O 	O 	0.4699	0.5553	0.1158	-1
Mof_O 	O 	0.6699	0.7138	0.2269	-0.57
Mof_N 	N 	0.0983	0.1327	0.5769	-0.24
Mof_C 	C 	0.0714	0.1021	0.6498	0.124
Mof_H 	H 	0.0168	0.1205	0.6727	-0.101
Mof_C 	C 	0.1261	0.0426	0.6904	-0.287
Mof_H 	H 	0.1086	0.0194	0.7416	0.053
Mof_C 	C 	0.2046	0.0175	0.6572	0.24
Mof_H 	H 	0.2417	0.9763	0.6841	-0.135
Mof_C 	C 	0.2295	0.0536	0.5829	-0.359
Mof_C 	C 	0.1783	0.1124	0.5443	0.168
Mof_H 	H 	0.198	0.1388	0.4955	-0.114
Mof_C 	C 	0.3241	0.0319	0.5504	0.597
Mof_C 	C 	0.7492	0.2375	0.7519	-0.845
Mof_H 	H 	0.7631	0.2592	0.8263	0.234
Mof_H 	H 	0.8254	0.245	0.7479	0.248
Mof_H 	H 	0.7191	0.2829	0.7218	0.201
Mof_C 	C 	0.6572	0.123	0.6904	0.658
Mof_O 	O 	0.6266	0.0276	0.096	-0.82
Mof_Al	Al	1.2799e-17	0.5	0.5	3.719
Mof_Al	Al	0.5	0.5	-0	3.672
_end
