data_functionalizedCrystal
_audit_creation_method	'EQeq! by Chris Wilmer'
_symmetry_space_group_name_H-M	'P1'
_symmetry_Int_Tables_number	1
_symmetry_cell_setting	triclinic
loop_
_symmetry_equiv_pos_as_xyz
  x,y,z
_cell_length_a	18.3094
_cell_length_b	18.3094
_cell_length_c	19.8946
_cell_angle_alpha	90
_cell_angle_beta	90
_cell_angle_gamma	120
loop_
_atom_site_label
_atom_site_type_symbol
_atom_site_fract_x
_atom_site_fract_y
_atom_site_fract_z
_atom_site_charge
Mof_Sm	Sm	0.41655	0.5073	0.55584	2.604
Mof_O 	O 	0.3152	0.3629	0.5181	-0.573
Mof_O 	O 	0.3304	0.5737	0.7038	-0.599
Mof_O 	O 	0.3773	0.4901	0.6678	-0.647
Mof_C 	C 	0.3505	0.5187	0.7135	0.601
Mof_C 	C 	0.409	0.5297	0.9008	0.571
Mof_C 	C 	0.3464	0.4833	0.7813	-0.403
Mof_H 	H 	0.3738	0.4491	0.7837	0.159
Mof_C 	C 	0.3541	0.5306	0.8463	-0.385
Mof_H 	H 	0.3549	0.5841	0.8406	0.136
Mof_C 	C 	0.3659	0.3537	0.4826	0.48
Mof_C 	C 	0.3381	0.2658	0.4528	-0.132
Mof_H 	H 	0.2834	0.2219	0.4701	0.072
Mof_C 	C 	0.2712	0.4526	0.8285	0.694
Mof_C 	C 	0.1992	0.467	0.8117	-1.238
Mof_H 	H 	0.2205	0.5199	0.7887	0.401
Mof_H 	H 	0.1715	0.468	0.8524	0.377
Mof_H 	H 	0.1597	0.4222	0.7833	0.363
Mof_C 	C 	0.2439	0.3696	0.8654	-1.18
Mof_H 	H 	0.2032	0.3235	0.8387	0.341
Mof_H 	H 	0.2193	0.3701	0.9078	0.359
Mof_H 	H 	0.2922	0.3631	0.8727	0.367
Mof_C 	C 	0.3919	0.2302	0.4244	-0.14
Mof_H 	H 	0.3647	0.1687	0.4275	-0.048
Mof_O 	O 	0.5369	0.3501	0.4085	-0.737
Mof_O 	O 	0.5175	0.2274	0.4382	-0.734
Mof_C 	C 	0.4868	0.2742	0.4264	0.568
Mof_C 	C 	0.2748	0.1955	0.3367	-1.004
Mof_H 	H 	0.2529	0.142	0.3589	0.257
Mof_H 	H 	0.2941	0.1922	0.2926	0.261
Mof_H 	H 	0.2313	0.21	0.3332	0.27
Mof_O 	O 	0.4381	0.4157	0.4681	-0.742
Mof_O 	O 	0.4259	0.5797	0.9501	-0.623
Mof_O 	O 	0.4347	0.4775	0.8949	-0.637
Mof_C 	C 	0.3462	0.2611	0.3762	0.09
Mof_C 	C 	0.391	0.3393	0.3323	-0.119
Mof_H 	H 	0.3504	0.3525	0.314	-0.009
Mof_H 	H 	0.4195	0.3289	0.2962	-0.031
Mof_H 	H 	0.4314	0.3859	0.3588	-0.067
Mof_C 	C 	0.3324	0.2372	0.3907	0.39
Mof_C 	C 	0.361	0.3027	0.3365	-0.522
Mof_H 	H 	0.3319	0.3339	0.3409	0.184
Mof_H 	H 	0.3489	0.2757	0.2933	0.173
Mof_H 	H 	0.4206	0.3405	0.3405	0.278
Mof_C 	C 	0.3398	0.2699	0.4594	-0.14
Mof_H 	H 	0.2948	0.228	0.488	0.003
Mof_C 	C 	0.3964	0.2363	0.4341	-0.19
Mof_H 	H 	0.3742	0.1789	0.4514	0.14
Mof_C 	C 	0.2579	0.1593	0.3653	0.075
Mof_H 	H 	0.2138	0.1712	0.3543	0.025
Mof_H 	H 	0.2383	0.1165	0.3993	-0.123
Mof_H 	H 	0.2734	0.14	0.3259	0.038
Mof_Sm	Sm	0.4927	0.90925	0.55584	2.604
Mof_O 	O 	0.6371	0.9523	0.5181	-0.574
Mof_O 	O 	0.4263	0.7567	0.7038	-0.601
Mof_O 	O 	0.5099	0.8872	0.6678	-0.648
Mof_C 	C 	0.4813	0.8318	0.7135	0.6
Mof_C 	C 	0.4703	0.8793	0.9008	0.569
Mof_C 	C 	0.5167	0.8631	0.7813	-0.404
Mof_H 	H 	0.5509	0.9247	0.7837	0.159
Mof_C 	C 	0.4694	0.8235	0.8463	-0.386
Mof_H 	H 	0.4159	0.7708	0.8406	0.135
Mof_C 	C 	0.6463	0.0122	0.4826	0.48
Mof_C 	C 	0.7342	0.0723	0.4528	-0.132
Mof_H 	H 	0.7781	0.0615	0.4701	0.07
Mof_C 	C 	0.5474	0.8186	0.8285	0.694
Mof_C 	C 	0.533	0.7322	0.8117	-1.237
Mof_H 	H 	0.4801	0.7006	0.7887	0.401
Mof_H 	H 	0.532	0.7035	0.8524	0.377
Mof_H 	H 	0.5778	0.7375	0.7833	0.363
Mof_C 	C 	0.6304	0.8743	0.8654	-1.181
Mof_H 	H 	0.6765	0.8797	0.8387	0.342
Mof_H 	H 	0.6299	0.8492	0.9078	0.36
Mof_H 	H 	0.6369	0.9291	0.8727	0.369
Mof_C 	C 	0.7698	0.1617	0.4244	-0.139
Mof_H 	H 	0.8313	0.196	0.4275	-0.047
Mof_O 	O 	0.6499	0.1868	0.4085	-0.738
Mof_O 	O 	0.7726	0.2901	0.4382	-0.734
Mof_C 	C 	0.7258	0.2126	0.4264	0.568
Mof_C 	C 	0.8045	0.0793	0.3367	-1.004
Mof_H 	H 	0.858	0.1109	0.3589	0.258
Mof_H 	H 	0.8078	0.1019	0.2926	0.261
Mof_H 	H 	0.79	0.0213	0.3332	0.27
Mof_O 	O 	0.5843	0.0224	0.4681	-0.742
Mof_O 	O 	0.4203	0.8462	0.9501	-0.622
Mof_O 	O 	0.5225	0.9572	0.8949	-0.635
Mof_C 	C 	0.7389	0.0851	0.3762	0.092
Mof_C 	C 	0.6607	0.0517	0.3323	-0.119
Mof_H 	H 	0.6475	0.9979	0.314	-0.01
Mof_H 	H 	0.6711	0.0906	0.2962	-0.031
Mof_H 	H 	0.6141	0.0455	0.3588	-0.067
Mof_C 	C 	0.7628	0.0952	0.3907	0.387
Mof_C 	C 	0.6973	0.0583	0.3365	-0.519
Mof_H 	H 	0.6661	0.998	0.3409	0.182
Mof_H 	H 	0.7243	0.0732	0.2933	0.172
Mof_H 	H 	0.6595	0.0801	0.3405	0.277
Mof_C 	C 	0.7301	0.0699	0.4594	-0.14
Mof_H 	H 	0.772	0.0668	0.488	0.005
Mof_C 	C 	0.7637	0.1601	0.4341	-0.19
Mof_H 	H 	0.8211	0.1953	0.4514	0.14
Mof_C 	C 	0.8407	0.0986	0.3653	0.075
Mof_H 	H 	0.8288	0.0426	0.3543	0.025
Mof_H 	H 	0.8835	0.1218	0.3993	-0.123
Mof_H 	H 	0.86	0.1334	0.3259	0.038
Mof_Sm	Sm	0.09075	0.58345	0.55584	2.604
Mof_O 	O 	0.0477	0.6848	0.5181	-0.574
Mof_O 	O 	0.2433	0.6696	0.7038	-0.601
Mof_O 	O 	0.1128	0.6227	0.6678	-0.648
Mof_C 	C 	0.1682	0.6495	0.7135	0.6
Mof_C 	C 	0.1207	0.591	0.9008	0.57
Mof_C 	C 	0.1369	0.6536	0.7813	-0.405
Mof_H 	H 	0.0753	0.6262	0.7837	0.159
Mof_C 	C 	0.1765	0.6459	0.8463	-0.386
Mof_H 	H 	0.2292	0.6451	0.8406	0.135
Mof_C 	C 	0.9878	0.6341	0.4826	0.48
Mof_C 	C 	0.9277	0.6619	0.4528	-0.132
Mof_H 	H 	0.9385	0.7166	0.4701	0.07
Mof_C 	C 	0.1814	0.7288	0.8285	0.696
Mof_C 	C 	0.2678	0.8008	0.8117	-1.24
Mof_H 	H 	0.2994	0.7795	0.7887	0.402
Mof_H 	H 	0.2965	0.8285	0.8524	0.378
Mof_H 	H 	0.2625	0.8403	0.7833	0.364
Mof_C 	C 	0.1257	0.7561	0.8654	-1.184
Mof_H 	H 	0.1203	0.7968	0.8387	0.343
Mof_H 	H 	0.1508	0.7807	0.9078	0.362
Mof_H 	H 	0.0709	0.7078	0.8727	0.37
Mof_C 	C 	0.8383	0.6081	0.4244	-0.139
Mof_H 	H 	0.804	0.6353	0.4275	-0.047
Mof_O 	O 	0.8132	0.4631	0.4085	-0.737
Mof_O 	O 	0.7099	0.4825	0.4382	-0.734
Mof_C 	C 	0.7874	0.5132	0.4264	0.568
Mof_C 	C 	0.9207	0.7252	0.3367	-1.003
Mof_H 	H 	0.8891	0.7471	0.3589	0.257
Mof_H 	H 	0.8981	0.7059	0.2926	0.261
Mof_H 	H 	0.9787	0.7687	0.3332	0.27
Mof_O 	O 	0.9776	0.5619	0.4681	-0.742
Mof_O 	O 	0.1538	0.5741	0.9501	-0.622
Mof_O 	O 	0.0428	0.5653	0.8949	-0.635
Mof_C 	C 	0.9149	0.6538	0.3762	0.092
Mof_C 	C 	0.9483	0.609	0.3323	-0.118
Mof_H 	H 	0.0021	0.6496	0.314	-0.01
Mof_H 	H 	0.9094	0.5805	0.2962	-0.031
Mof_H 	H 	0.9545	0.5686	0.3588	-0.067
Mof_C 	C 	0.9048	0.6676	0.3907	0.387
Mof_C 	C 	0.9417	0.639	0.3365	-0.518
Mof_H 	H 	0.002	0.6681	0.3409	0.182
Mof_H 	H 	0.9268	0.6511	0.2933	0.172
Mof_H 	H 	0.9199	0.5794	0.3405	0.276
Mof_C 	C 	0.9301	0.6602	0.4594	-0.14
Mof_H 	H 	0.9332	0.7052	0.488	0.005
Mof_C 	C 	0.8399	0.6036	0.4341	-0.19
Mof_H 	H 	0.8047	0.6258	0.4514	0.14
Mof_C 	C 	0.9014	0.7421	0.3653	0.075
Mof_H 	H 	0.9574	0.7862	0.3543	0.025
Mof_H 	H 	0.8782	0.7617	0.3993	-0.123
Mof_H 	H 	0.8666	0.7266	0.3259	0.037
Mof_Sm	Sm	0.5073	0.41655	0.94416	2.602
Mof_O 	O 	0.3629	0.3152	0.9819	-0.574
Mof_O 	O 	0.5737	0.3304	0.7962	-0.6
Mof_O 	O 	0.4901	0.3773	0.8322	-0.648
Mof_C 	C 	0.5187	0.3505	0.7865	0.6
Mof_C 	C 	0.5297	0.409	0.5992	0.57
Mof_C 	C 	0.4833	0.3464	0.7187	-0.404
Mof_H 	H 	0.4491	0.3738	0.7163	0.158
Mof_C 	C 	0.5306	0.3541	0.6537	-0.386
Mof_H 	H 	0.5841	0.3549	0.6594	0.135
Mof_C 	C 	0.3537	0.3659	0.0174	0.481
Mof_C 	C 	0.2658	0.3381	0.0472	-0.132
Mof_H 	H 	0.2219	0.2834	0.0299	0.072
Mof_C 	C 	0.4526	0.2712	0.6715	0.692
Mof_C 	C 	0.467	0.1992	0.6883	-1.235
Mof_H 	H 	0.5199	0.2205	0.7113	0.4
Mof_H 	H 	0.468	0.1715	0.6476	0.376
Mof_H 	H 	0.4222	0.1597	0.7167	0.362
Mof_C 	C 	0.3696	0.2439	0.6346	-1.177
Mof_H 	H 	0.3235	0.2032	0.6613	0.341
Mof_H 	H 	0.3701	0.2193	0.5922	0.358
Mof_H 	H 	0.3631	0.2922	0.6273	0.367
Mof_C 	C 	0.2302	0.3919	0.0756	-0.14
Mof_H 	H 	0.1687	0.3647	0.0725	-0.048
Mof_O 	O 	0.3501	0.5369	0.0915	-0.737
Mof_O 	O 	0.2274	0.5175	0.0618	-0.734
Mof_C 	C 	0.2742	0.4868	0.0736	0.568
Mof_C 	C 	0.1955	0.2748	0.1633	-1.004
Mof_H 	H 	0.142	0.2529	0.1411	0.257
Mof_H 	H 	0.1922	0.2941	0.2074	0.261
Mof_H 	H 	0.21	0.2313	0.1668	0.27
Mof_O 	O 	0.4157	0.4381	0.0319	-0.742
Mof_O 	O 	0.5797	0.4259	0.5499	-0.624
Mof_O 	O 	0.4775	0.4347	0.6051	-0.637
Mof_C 	C 	0.2611	0.3462	0.1238	0.09
Mof_C 	C 	0.3393	0.391	0.1677	-0.119
Mof_H 	H 	0.3525	0.3504	0.186	-0.009
Mof_H 	H 	0.3289	0.4195	0.2038	-0.031
Mof_H 	H 	0.3859	0.4314	0.1412	-0.067
Mof_C 	C 	0.2372	0.3324	0.1093	0.39
Mof_C 	C 	0.3027	0.361	0.1635	-0.522
Mof_H 	H 	0.3339	0.3319	0.1591	0.184
Mof_H 	H 	0.2757	0.3489	0.2067	0.173
Mof_H 	H 	0.3405	0.4206	0.1595	0.278
Mof_C 	C 	0.2699	0.3398	0.0406	-0.14
Mof_H 	H 	0.228	0.2948	0.012	0.004
Mof_C 	C 	0.2363	0.3964	0.0659	-0.19
Mof_H 	H 	0.1789	0.3742	0.0486	0.14
Mof_C 	C 	0.1593	0.2579	0.1347	0.075
Mof_H 	H 	0.1712	0.2138	0.1457	0.025
Mof_H 	H 	0.1165	0.2383	0.1007	-0.123
Mof_H 	H 	0.14	0.2734	0.1741	0.037
Mof_Sm	Sm	0.90925	0.4927	0.94416	2.598
Mof_O 	O 	0.9523	0.6371	0.9819	-0.574
Mof_O 	O 	0.7567	0.4263	0.7962	-0.6
Mof_O 	O 	0.8872	0.5099	0.8322	-0.648
Mof_C 	C 	0.8318	0.4813	0.7865	0.6
Mof_C 	C 	0.8793	0.4703	0.5992	0.57
Mof_C 	C 	0.8631	0.5167	0.7187	-0.404
Mof_H 	H 	0.9247	0.5509	0.7163	0.158
Mof_C 	C 	0.8235	0.4694	0.6537	-0.386
Mof_H 	H 	0.7708	0.4159	0.6594	0.135
Mof_C 	C 	0.0122	0.6463	0.0174	0.478
Mof_C 	C 	0.0723	0.7342	0.0472	-0.132
Mof_H 	H 	0.0615	0.7781	0.0299	0.071
Mof_C 	C 	0.8186	0.5474	0.6715	0.692
Mof_C 	C 	0.7322	0.533	0.6883	-1.235
Mof_H 	H 	0.7006	0.4801	0.7113	0.4
Mof_H 	H 	0.7035	0.532	0.6476	0.376
Mof_H 	H 	0.7375	0.5778	0.7167	0.363
Mof_C 	C 	0.8743	0.6304	0.6346	-1.177
Mof_H 	H 	0.8797	0.6765	0.6613	0.34
Mof_H 	H 	0.8492	0.6299	0.5922	0.358
Mof_H 	H 	0.9291	0.6369	0.6273	0.366
Mof_C 	C 	0.1617	0.7698	0.0756	-0.14
Mof_H 	H 	0.196	0.8313	0.0725	-0.048
Mof_O 	O 	0.1868	0.6499	0.0915	-0.737
Mof_O 	O 	0.2901	0.7726	0.0618	-0.734
Mof_C 	C 	0.2126	0.7258	0.0736	0.568
Mof_C 	C 	0.0793	0.8045	0.1633	-1.004
Mof_H 	H 	0.1109	0.858	0.1411	0.256
Mof_H 	H 	0.1019	0.8078	0.2074	0.261
Mof_H 	H 	0.0213	0.79	0.1668	0.269
Mof_O 	O 	0.0224	0.5843	0.0319	-0.742
Mof_O 	O 	0.8462	0.4203	0.5499	-0.624
Mof_O 	O 	0.9572	0.5225	0.6051	-0.638
Mof_C 	C 	0.0851	0.7389	0.1238	0.088
Mof_C 	C 	0.0517	0.6607	0.1677	-0.12
Mof_H 	H 	0.9979	0.6475	0.186	-0.009
Mof_H 	H 	0.0906	0.6711	0.2038	-0.031
Mof_H 	H 	0.0455	0.6141	0.1412	-0.069
Mof_C 	C 	0.0952	0.7628	0.1093	0.395
Mof_C 	C 	0.0583	0.6973	0.1635	-0.53
Mof_H 	H 	0.998	0.6661	0.1591	0.189
Mof_H 	H 	0.0732	0.7243	0.2067	0.175
Mof_H 	H 	0.0801	0.6595	0.1595	0.282
Mof_C 	C 	0.0699	0.7301	0.0406	-0.141
Mof_H 	H 	0.0668	0.772	0.012	0.003
Mof_C 	C 	0.1601	0.7637	0.0659	-0.191
Mof_H 	H 	0.1953	0.8211	0.0486	0.14
Mof_C 	C 	0.0986	0.8407	0.1347	0.076
Mof_H 	H 	0.0426	0.8288	0.1457	0.024
Mof_H 	H 	0.1218	0.8835	0.1007	-0.124
Mof_H 	H 	0.1334	0.86	0.1741	0.037
Mof_Sm	Sm	0.58345	0.09075	0.94416	2.598
Mof_O 	O 	0.6848	0.0477	0.9819	-0.576
Mof_O 	O 	0.6696	0.2433	0.7962	-0.6
Mof_O 	O 	0.6227	0.1128	0.8322	-0.648
Mof_C 	C 	0.6495	0.1682	0.7865	0.599
Mof_C 	C 	0.591	0.1207	0.5992	0.57
Mof_C 	C 	0.6536	0.1369	0.7187	-0.403
Mof_H 	H 	0.6262	0.0753	0.7163	0.158
Mof_C 	C 	0.6459	0.1765	0.6537	-0.386
Mof_H 	H 	0.6451	0.2292	0.6594	0.135
Mof_C 	C 	0.6341	0.9878	0.0174	0.481
Mof_C 	C 	0.6619	0.9277	0.0472	-0.132
Mof_H 	H 	0.7166	0.9385	0.0299	0.074
Mof_C 	C 	0.7288	0.1814	0.6715	0.692
Mof_C 	C 	0.8008	0.2678	0.6883	-1.235
Mof_H 	H 	0.7795	0.2994	0.7113	0.4
Mof_H 	H 	0.8285	0.2965	0.6476	0.376
Mof_H 	H 	0.8403	0.2625	0.7167	0.362
Mof_C 	C 	0.7561	0.1257	0.6346	-1.176
Mof_H 	H 	0.7968	0.1203	0.6613	0.34
Mof_H 	H 	0.7807	0.1508	0.5922	0.358
Mof_H 	H 	0.7078	0.0709	0.6273	0.366
Mof_C 	C 	0.6081	0.8383	0.0756	-0.14
Mof_H 	H 	0.6353	0.804	0.0725	-0.049
Mof_O 	O 	0.4631	0.8132	0.0915	-0.737
Mof_O 	O 	0.4825	0.7099	0.0618	-0.735
Mof_C 	C 	0.5132	0.7874	0.0736	0.568
Mof_C 	C 	0.7252	0.9207	0.1633	-1.005
Mof_H 	H 	0.7471	0.8891	0.1411	0.256
Mof_H 	H 	0.7059	0.8981	0.2074	0.261
Mof_H 	H 	0.7687	0.9787	0.1668	0.27
Mof_O 	O 	0.5619	0.9776	0.0319	-0.742
Mof_O 	O 	0.5741	0.1538	0.5499	-0.624
Mof_O 	O 	0.5653	0.0428	0.6051	-0.638
Mof_C 	C 	0.6538	0.9149	0.1238	0.088
Mof_C 	C 	0.609	0.9483	0.1677	-0.12
Mof_H 	H 	0.6496	0.0021	0.186	-0.009
Mof_H 	H 	0.5805	0.9094	0.2038	-0.031
Mof_H 	H 	0.5686	0.9545	0.1412	-0.069
Mof_C 	C 	0.6676	0.9048	0.1093	0.395
Mof_C 	C 	0.639	0.9417	0.1635	-0.53
Mof_H 	H 	0.6681	0.002	0.1591	0.189
Mof_H 	H 	0.6511	0.9268	0.2067	0.175
Mof_H 	H 	0.5794	0.9199	0.1595	0.282
Mof_C 	C 	0.6602	0.9301	0.0406	-0.142
Mof_H 	H 	0.7052	0.9332	0.012	0.001
Mof_C 	C 	0.6036	0.8399	0.0659	-0.191
Mof_H 	H 	0.6258	0.8047	0.0486	0.141
Mof_C 	C 	0.7421	0.9014	0.1347	0.076
Mof_H 	H 	0.7862	0.9574	0.1457	0.025
Mof_H 	H 	0.7617	0.8782	0.1007	-0.123
Mof_H 	H 	0.7266	0.8666	0.1741	0.038
Mof_Sm	Sm	0.58345	0.4927	0.44416	2.603
Mof_O 	O 	0.6848	0.6371	0.4819	-0.574
Mof_O 	O 	0.6696	0.4263	0.2962	-0.6
Mof_O 	O 	0.6227	0.5099	0.3322	-0.648
Mof_C 	C 	0.6495	0.4813	0.2865	0.6
Mof_C 	C 	0.591	0.4703	0.0992	0.57
Mof_C 	C 	0.6536	0.5167	0.2187	-0.404
Mof_H 	H 	0.6262	0.5509	0.2163	0.158
Mof_C 	C 	0.6459	0.4694	0.1537	-0.386
Mof_H 	H 	0.6451	0.4159	0.1594	0.135
Mof_C 	C 	0.6341	0.6463	0.5174	0.48
Mof_C 	C 	0.6619	0.7342	0.5472	-0.132
Mof_H 	H 	0.7166	0.7781	0.5299	0.072
Mof_C 	C 	0.7288	0.5474	0.1715	0.694
Mof_C 	C 	0.8008	0.533	0.1883	-1.238
Mof_H 	H 	0.7795	0.4801	0.2113	0.401
Mof_H 	H 	0.8285	0.532	0.1476	0.377
Mof_H 	H 	0.8403	0.5778	0.2167	0.363
Mof_C 	C 	0.7561	0.6304	0.1346	-1.18
Mof_H 	H 	0.7968	0.6765	0.1613	0.341
Mof_H 	H 	0.7807	0.6299	0.0922	0.359
Mof_H 	H 	0.7078	0.6369	0.1273	0.367
Mof_C 	C 	0.6081	0.7698	0.5756	-0.14
Mof_H 	H 	0.6353	0.8313	0.5725	-0.048
Mof_O 	O 	0.4631	0.6499	0.5915	-0.737
Mof_O 	O 	0.4825	0.7726	0.5618	-0.734
Mof_C 	C 	0.5132	0.7258	0.5736	0.568
Mof_C 	C 	0.7252	0.8045	0.6633	-1.004
Mof_H 	H 	0.7471	0.858	0.6411	0.257
Mof_H 	H 	0.7059	0.8078	0.7074	0.261
Mof_H 	H 	0.7687	0.79	0.6668	0.27
Mof_O 	O 	0.5619	0.5843	0.5319	-0.742
Mof_O 	O 	0.5741	0.4203	0.0499	-0.623
Mof_O 	O 	0.5653	0.5225	0.1051	-0.637
Mof_C 	C 	0.6538	0.7389	0.6238	0.09
Mof_C 	C 	0.609	0.6607	0.6677	-0.119
Mof_H 	H 	0.6496	0.6475	0.686	-0.009
Mof_H 	H 	0.5805	0.6711	0.7038	-0.031
Mof_H 	H 	0.5686	0.6141	0.6412	-0.067
Mof_C 	C 	0.6676	0.7628	0.6093	0.39
Mof_C 	C 	0.639	0.6973	0.6635	-0.522
Mof_H 	H 	0.6681	0.6661	0.6591	0.184
Mof_H 	H 	0.6511	0.7243	0.7067	0.173
Mof_H 	H 	0.5794	0.6595	0.6595	0.278
Mof_C 	C 	0.6602	0.7301	0.5406	-0.14
Mof_H 	H 	0.7052	0.772	0.512	0.003
Mof_C 	C 	0.6036	0.7637	0.5659	-0.19
Mof_H 	H 	0.6258	0.8211	0.5486	0.14
Mof_C 	C 	0.7421	0.8407	0.6347	0.075
Mof_H 	H 	0.7862	0.8288	0.6457	0.025
Mof_H 	H 	0.7617	0.8835	0.6007	-0.123
Mof_H 	H 	0.7266	0.86	0.6741	0.038
Mof_Sm	Sm	0.5073	0.09075	0.44416	2.604
Mof_O 	O 	0.3629	0.0477	0.4819	-0.574
Mof_O 	O 	0.5737	0.2433	0.2962	-0.601
Mof_O 	O 	0.4901	0.1128	0.3322	-0.648
Mof_C 	C 	0.5187	0.1682	0.2865	0.6
Mof_C 	C 	0.5297	0.1207	0.0992	0.569
Mof_C 	C 	0.4833	0.1369	0.2187	-0.404
Mof_H 	H 	0.4491	0.0753	0.2163	0.159
Mof_C 	C 	0.5306	0.1765	0.1537	-0.386
Mof_H 	H 	0.5841	0.2292	0.1594	0.135
Mof_C 	C 	0.3537	0.9878	0.5174	0.48
Mof_C 	C 	0.2658	0.9277	0.5472	-0.132
Mof_H 	H 	0.2219	0.9385	0.5299	0.07
Mof_C 	C 	0.4526	0.1814	0.1715	0.694
Mof_C 	C 	0.467	0.2678	0.1883	-1.237
Mof_H 	H 	0.5199	0.2994	0.2113	0.401
Mof_H 	H 	0.468	0.2965	0.1476	0.377
Mof_H 	H 	0.4222	0.2625	0.2167	0.363
Mof_C 	C 	0.3696	0.1257	0.1346	-1.181
Mof_H 	H 	0.3235	0.1203	0.1613	0.342
Mof_H 	H 	0.3701	0.1508	0.0922	0.36
Mof_H 	H 	0.3631	0.0709	0.1273	0.369
Mof_C 	C 	0.2302	0.8383	0.5756	-0.139
Mof_H 	H 	0.1687	0.804	0.5725	-0.047
Mof_O 	O 	0.3501	0.8132	0.5915	-0.738
Mof_O 	O 	0.2274	0.7099	0.5618	-0.734
Mof_C 	C 	0.2742	0.7874	0.5736	0.568
Mof_C 	C 	0.1955	0.9207	0.6633	-1.004
Mof_H 	H 	0.142	0.8891	0.6411	0.258
Mof_H 	H 	0.1922	0.8981	0.7074	0.261
Mof_H 	H 	0.21	0.9787	0.6668	0.27
Mof_O 	O 	0.4157	0.9776	0.5319	-0.742
Mof_O 	O 	0.5797	0.1538	0.0499	-0.622
Mof_O 	O 	0.4775	0.0428	0.1051	-0.635
Mof_C 	C 	0.2611	0.9149	0.6238	0.092
Mof_C 	C 	0.3393	0.9483	0.6677	-0.119
Mof_H 	H 	0.3525	0.0021	0.686	-0.01
Mof_H 	H 	0.3289	0.9094	0.7038	-0.031
Mof_H 	H 	0.3859	0.9545	0.6412	-0.067
Mof_C 	C 	0.2372	0.9048	0.6093	0.387
Mof_C 	C 	0.3027	0.9417	0.6635	-0.519
Mof_H 	H 	0.3339	0.002	0.6591	0.182
Mof_H 	H 	0.2757	0.9268	0.7067	0.172
Mof_H 	H 	0.3405	0.9199	0.6595	0.277
Mof_C 	C 	0.2699	0.9301	0.5406	-0.14
Mof_H 	H 	0.228	0.9332	0.512	0.005
Mof_C 	C 	0.2363	0.8399	0.5659	-0.19
Mof_H 	H 	0.1789	0.8047	0.5486	0.14
Mof_C 	C 	0.1593	0.9014	0.6347	0.075
Mof_H 	H 	0.1712	0.9574	0.6457	0.025
Mof_H 	H 	0.1165	0.8782	0.6007	-0.123
Mof_H 	H 	0.14	0.8666	0.6741	0.038
Mof_Sm	Sm	0.90925	0.41655	0.44416	2.604
Mof_O 	O 	0.9523	0.3152	0.4819	-0.574
Mof_O 	O 	0.7567	0.3304	0.2962	-0.601
Mof_O 	O 	0.8872	0.3773	0.3322	-0.648
Mof_C 	C 	0.8318	0.3505	0.2865	0.6
Mof_C 	C 	0.8793	0.409	0.0992	0.57
Mof_C 	C 	0.8631	0.3464	0.2187	-0.405
Mof_H 	H 	0.9247	0.3738	0.2163	0.159
Mof_C 	C 	0.8235	0.3541	0.1537	-0.386
Mof_H 	H 	0.7708	0.3549	0.1594	0.135
Mof_C 	C 	0.0122	0.3659	0.5174	0.48
Mof_C 	C 	0.0723	0.3381	0.5472	-0.132
Mof_H 	H 	0.0615	0.2834	0.5299	0.07
Mof_C 	C 	0.8186	0.2712	0.1715	0.696
Mof_C 	C 	0.7322	0.1992	0.1883	-1.24
Mof_H 	H 	0.7006	0.2205	0.2113	0.402
Mof_H 	H 	0.7035	0.1715	0.1476	0.378
Mof_H 	H 	0.7375	0.1597	0.2167	0.364
Mof_C 	C 	0.8743	0.2439	0.1346	-1.184
Mof_H 	H 	0.8797	0.2032	0.1613	0.343
Mof_H 	H 	0.8492	0.2193	0.0922	0.362
Mof_H 	H 	0.9291	0.2922	0.1273	0.37
Mof_C 	C 	0.1617	0.3919	0.5756	-0.139
Mof_H 	H 	0.196	0.3647	0.5725	-0.047
Mof_O 	O 	0.1868	0.5369	0.5915	-0.737
Mof_O 	O 	0.2901	0.5175	0.5618	-0.734
Mof_C 	C 	0.2126	0.4868	0.5736	0.568
Mof_C 	C 	0.0793	0.2748	0.6633	-1.003
Mof_H 	H 	0.1109	0.2529	0.6411	0.257
Mof_H 	H 	0.1019	0.2941	0.7074	0.261
Mof_H 	H 	0.0213	0.2313	0.6668	0.27
Mof_O 	O 	0.0224	0.4381	0.5319	-0.742
Mof_O 	O 	0.8462	0.4259	0.0499	-0.622
Mof_O 	O 	0.9572	0.4347	0.1051	-0.635
Mof_C 	C 	0.0851	0.3462	0.6238	0.092
Mof_C 	C 	0.0517	0.391	0.6677	-0.118
Mof_H 	H 	0.9979	0.3504	0.686	-0.01
Mof_H 	H 	0.0906	0.4195	0.7038	-0.031
Mof_H 	H 	0.0455	0.4314	0.6412	-0.067
Mof_C 	C 	0.0952	0.3324	0.6093	0.387
Mof_C 	C 	0.0583	0.361	0.6635	-0.518
Mof_H 	H 	0.998	0.3319	0.6591	0.182
Mof_H 	H 	0.0732	0.3489	0.7067	0.172
Mof_H 	H 	0.0801	0.4206	0.6595	0.276
Mof_C 	C 	0.0699	0.3398	0.5406	-0.14
Mof_H 	H 	0.0668	0.2948	0.512	0.005
Mof_C 	C 	0.1601	0.3964	0.5659	-0.19
Mof_H 	H 	0.1953	0.3742	0.5486	0.14
Mof_C 	C 	0.0986	0.2579	0.6347	0.075
Mof_H 	H 	0.0426	0.2138	0.6457	0.025
Mof_H 	H 	0.1218	0.2383	0.6007	-0.123
Mof_H 	H 	0.1334	0.2734	0.6741	0.037
Mof_Sm	Sm	0.4927	0.58345	0.05584	2.602
Mof_O 	O 	0.6371	0.6848	0.0181	-0.574
Mof_O 	O 	0.4263	0.6696	0.2038	-0.6
Mof_O 	O 	0.5099	0.6227	0.1678	-0.648
Mof_C 	C 	0.4813	0.6495	0.2135	0.6
Mof_C 	C 	0.4703	0.591	0.4008	0.57
Mof_C 	C 	0.5167	0.6536	0.2813	-0.404
Mof_H 	H 	0.5509	0.6262	0.2837	0.158
Mof_C 	C 	0.4694	0.6459	0.3463	-0.386
Mof_H 	H 	0.4159	0.6451	0.3406	0.135
Mof_C 	C 	0.6463	0.6341	0.9826	0.481
Mof_C 	C 	0.7342	0.6619	0.9528	-0.132
Mof_H 	H 	0.7781	0.7166	0.9701	0.072
Mof_C 	C 	0.5474	0.7288	0.3285	0.692
Mof_C 	C 	0.533	0.8008	0.3117	-1.235
Mof_H 	H 	0.4801	0.7795	0.2887	0.4
Mof_H 	H 	0.532	0.8285	0.3524	0.376
Mof_H 	H 	0.5778	0.8403	0.2833	0.362
Mof_C 	C 	0.6304	0.7561	0.3654	-1.177
Mof_H 	H 	0.6765	0.7968	0.3387	0.341
Mof_H 	H 	0.6299	0.7807	0.4078	0.358
Mof_H 	H 	0.6369	0.7078	0.3727	0.367
Mof_C 	C 	0.7698	0.6081	0.9244	-0.14
Mof_H 	H 	0.8313	0.6353	0.9275	-0.048
Mof_O 	O 	0.6499	0.4631	0.9085	-0.737
Mof_O 	O 	0.7726	0.4825	0.9382	-0.734
Mof_C 	C 	0.7258	0.5132	0.9264	0.568
Mof_C 	C 	0.8045	0.7252	0.8367	-1.004
Mof_H 	H 	0.858	0.7471	0.8589	0.257
Mof_H 	H 	0.8078	0.7059	0.7926	0.261
Mof_H 	H 	0.79	0.7687	0.8332	0.27
Mof_O 	O 	0.5843	0.5619	0.9681	-0.742
Mof_O 	O 	0.4203	0.5741	0.4501	-0.624
Mof_O 	O 	0.5225	0.5653	0.3949	-0.637
Mof_C 	C 	0.7389	0.6538	0.8762	0.09
Mof_C 	C 	0.6607	0.609	0.8323	-0.119
Mof_H 	H 	0.6475	0.6496	0.814	-0.009
Mof_H 	H 	0.6711	0.5805	0.7962	-0.031
Mof_H 	H 	0.6141	0.5686	0.8588	-0.067
Mof_C 	C 	0.7628	0.6676	0.8907	0.39
Mof_C 	C 	0.6973	0.639	0.8365	-0.522
Mof_H 	H 	0.6661	0.6681	0.8409	0.184
Mof_H 	H 	0.7243	0.6511	0.7933	0.173
Mof_H 	H 	0.6595	0.5794	0.8405	0.278
Mof_C 	C 	0.7301	0.6602	0.9594	-0.14
Mof_H 	H 	0.772	0.7052	0.988	0.004
Mof_C 	C 	0.7637	0.6036	0.9341	-0.19
Mof_H 	H 	0.8211	0.6258	0.9514	0.14
Mof_C 	C 	0.8407	0.7421	0.8653	0.075
Mof_H 	H 	0.8288	0.7862	0.8543	0.025
Mof_H 	H 	0.8835	0.7617	0.8993	-0.123
Mof_H 	H 	0.86	0.7266	0.8259	0.037
Mof_Sm	Sm	0.09075	0.5073	0.05584	2.598
Mof_O 	O 	0.0477	0.3629	0.0181	-0.574
Mof_O 	O 	0.2433	0.5737	0.2038	-0.6
Mof_O 	O 	0.1128	0.4901	0.1678	-0.648
Mof_C 	C 	0.1682	0.5187	0.2135	0.6
Mof_C 	C 	0.1207	0.5297	0.4008	0.57
Mof_C 	C 	0.1369	0.4833	0.2813	-0.404
Mof_H 	H 	0.0753	0.4491	0.2837	0.158
Mof_C 	C 	0.1765	0.5306	0.3463	-0.386
Mof_H 	H 	0.2292	0.5841	0.3406	0.135
Mof_C 	C 	0.9878	0.3537	0.9826	0.478
Mof_C 	C 	0.9277	0.2658	0.9528	-0.132
Mof_H 	H 	0.9385	0.2219	0.9701	0.071
Mof_C 	C 	0.1814	0.4526	0.3285	0.692
Mof_C 	C 	0.2678	0.467	0.3117	-1.235
Mof_H 	H 	0.2994	0.5199	0.2887	0.4
Mof_H 	H 	0.2965	0.468	0.3524	0.376
Mof_H 	H 	0.2625	0.4222	0.2833	0.363
Mof_C 	C 	0.1257	0.3696	0.3654	-1.177
Mof_H 	H 	0.1203	0.3235	0.3387	0.34
Mof_H 	H 	0.1508	0.3701	0.4078	0.358
Mof_H 	H 	0.0709	0.3631	0.3727	0.366
Mof_C 	C 	0.8383	0.2302	0.9244	-0.14
Mof_H 	H 	0.804	0.1687	0.9275	-0.048
Mof_O 	O 	0.8132	0.3501	0.9085	-0.737
Mof_O 	O 	0.7099	0.2274	0.9382	-0.734
Mof_C 	C 	0.7874	0.2742	0.9264	0.568
Mof_C 	C 	0.9207	0.1955	0.8367	-1.004
Mof_H 	H 	0.8891	0.142	0.8589	0.256
Mof_H 	H 	0.8981	0.1922	0.7926	0.261
Mof_H 	H 	0.9787	0.21	0.8332	0.269
Mof_O 	O 	0.9776	0.4157	0.9681	-0.742
Mof_O 	O 	0.1538	0.5797	0.4501	-0.624
Mof_O 	O 	0.0428	0.4775	0.3949	-0.638
Mof_C 	C 	0.9149	0.2611	0.8762	0.088
Mof_C 	C 	0.9483	0.3393	0.8323	-0.12
Mof_H 	H 	0.0021	0.3525	0.814	-0.009
Mof_H 	H 	0.9094	0.3289	0.7962	-0.031
Mof_H 	H 	0.9545	0.3859	0.8588	-0.069
Mof_C 	C 	0.9048	0.2372	0.8907	0.395
Mof_C 	C 	0.9417	0.3027	0.8365	-0.53
Mof_H 	H 	0.002	0.3339	0.8409	0.189
Mof_H 	H 	0.9268	0.2757	0.7933	0.175
Mof_H 	H 	0.9199	0.3405	0.8405	0.282
Mof_C 	C 	0.9301	0.2699	0.9594	-0.141
Mof_H 	H 	0.9332	0.228	0.988	0.003
Mof_C 	C 	0.8399	0.2363	0.9341	-0.191
Mof_H 	H 	0.8047	0.1789	0.9514	0.14
Mof_C 	C 	0.9014	0.1593	0.8653	0.076
Mof_H 	H 	0.9574	0.1712	0.8543	0.024
Mof_H 	H 	0.8782	0.1165	0.8993	-0.124
Mof_H 	H 	0.8666	0.14	0.8259	0.037
Mof_Sm	Sm	0.41655	0.90925	0.05584	2.598
Mof_O 	O 	0.3152	0.9523	0.0181	-0.576
Mof_O 	O 	0.3304	0.7567	0.2038	-0.6
Mof_O 	O 	0.3773	0.8872	0.1678	-0.648
Mof_C 	C 	0.3505	0.8318	0.2135	0.599
Mof_C 	C 	0.409	0.8793	0.4008	0.57
Mof_C 	C 	0.3464	0.8631	0.2813	-0.403
Mof_H 	H 	0.3738	0.9247	0.2837	0.158
Mof_C 	C 	0.3541	0.8235	0.3463	-0.386
Mof_H 	H 	0.3549	0.7708	0.3406	0.135
Mof_C 	C 	0.3659	0.0122	0.9826	0.481
Mof_C 	C 	0.3381	0.0723	0.9528	-0.132
Mof_H 	H 	0.2834	0.0615	0.9701	0.074
Mof_C 	C 	0.2712	0.8186	0.3285	0.692
Mof_C 	C 	0.1992	0.7322	0.3117	-1.235
Mof_H 	H 	0.2205	0.7006	0.2887	0.4
Mof_H 	H 	0.1715	0.7035	0.3524	0.376
Mof_H 	H 	0.1597	0.7375	0.2833	0.362
Mof_C 	C 	0.2439	0.8743	0.3654	-1.176
Mof_H 	H 	0.2032	0.8797	0.3387	0.34
Mof_H 	H 	0.2193	0.8492	0.4078	0.358
Mof_H 	H 	0.2922	0.9291	0.3727	0.366
Mof_C 	C 	0.3919	0.1617	0.9244	-0.14
Mof_H 	H 	0.3647	0.196	0.9275	-0.049
Mof_O 	O 	0.5369	0.1868	0.9085	-0.737
Mof_O 	O 	0.5175	0.2901	0.9382	-0.735
Mof_C 	C 	0.4868	0.2126	0.9264	0.568
Mof_C 	C 	0.2748	0.0793	0.8367	-1.005
Mof_H 	H 	0.2529	0.1109	0.8589	0.256
Mof_H 	H 	0.2941	0.1019	0.7926	0.261
Mof_H 	H 	0.2313	0.0213	0.8332	0.27
Mof_O 	O 	0.4381	0.0224	0.9681	-0.742
Mof_O 	O 	0.4259	0.8462	0.4501	-0.624
Mof_O 	O 	0.4347	0.9572	0.3949	-0.638
Mof_C 	C 	0.3462	0.0851	0.8762	0.088
Mof_C 	C 	0.391	0.0517	0.8323	-0.12
Mof_H 	H 	0.3504	0.9979	0.814	-0.009
Mof_H 	H 	0.4195	0.0906	0.7962	-0.031
Mof_H 	H 	0.4314	0.0455	0.8588	-0.069
Mof_C 	C 	0.3324	0.0952	0.8907	0.395
Mof_C 	C 	0.361	0.0583	0.8365	-0.53
Mof_H 	H 	0.3319	0.998	0.8409	0.189
Mof_H 	H 	0.3489	0.0732	0.7933	0.175
Mof_H 	H 	0.4206	0.0801	0.8405	0.282
Mof_C 	C 	0.3398	0.0699	0.9594	-0.142
Mof_H 	H 	0.2948	0.0668	0.988	0.001
Mof_C 	C 	0.3964	0.1601	0.9341	-0.191
Mof_H 	H 	0.3742	0.1953	0.9514	0.141
Mof_C 	C 	0.2579	0.0986	0.8653	0.076
Mof_H 	H 	0.2138	0.0426	0.8543	0.025
Mof_H 	H 	0.2383	0.1218	0.8993	-0.123
Mof_H 	H 	0.2734	0.1334	0.8259	0.038
Mof_Sm	Sm	0.33333	0.66667	0.61872	2.271
Mof_Sm	Sm	0.66667	0.33333	0.88128	2.27
Mof_Sm	Sm	0.66667	0.33333	0.38128	2.271
Mof_Sm	Sm	0.33333	0.66667	0.11872	2.27
_end
