data_functionalizedCrystal
_audit_creation_method	'EQeq! by Chris Wilmer'
_symmetry_space_group_name_H-M	'P1'
_symmetry_Int_Tables_number	1
_symmetry_cell_setting	triclinic
loop_
_symmetry_equiv_pos_as_xyz
  x,y,z
_cell_length_a	29.1508
_cell_length_b	29.1508
_cell_length_c	36.1349
_cell_angle_alpha	90
_cell_angle_beta	90
_cell_angle_gamma	120
loop_
_atom_site_label
_atom_site_type_symbol
_atom_site_fract_x
_atom_site_fract_y
_atom_site_fract_z
_atom_site_charge
Mof_C 	C 	0.4164	0.2673	0.6428	-0.156
Mof_H 	H 	0.4268	0.2631	0.6187	0.093
Mof_C 	C 	0.3704	0.2262	0.6587	0.129
Mof_O 	O 	0.3175	0.1204	0.4648	-0.168
Mof_C 	C 	0.3556	0.233	0.6924	-0.158
Mof_H 	H 	0.3272	0.204	0.7049	0.11
Mof_C 	C 	0.428	0.323	0.6937	-0.105
Mof_C 	C 	0.382	0.2829	0.7091	0.071
Mof_H 	H 	0.3683	0.2893	0.7312	0.039
Mof_O 	O 	0.0867	0.0814	0.6468	-0.178
Mof_C 	C 	0.4456	0.3124	0.6612	0.076
Mof_H 	H 	0.4794	0.3377	0.6518	0.036
Mof_C 	C 	0.4601	0.3738	0.7123	0.29
Mof_O 	O 	0.5041	0.4065	0.6961	-0.177
Mof_O 	O 	0.4463	0.3845	0.7426	-0.182
Mof_C 	C 	0.3369	0.211	0.5415	0.048
Mof_H 	H 	0.3344	0.2383	0.5289	0.044
Mof_C 	C 	0.3422	0.2122	0.5783	-0.129
Mof_H 	H 	0.3446	0.2414	0.5916	0.083
Mof_C 	C 	0.1985	0.0581	0.6454	0.035
Mof_H 	H 	0.1791	0.0205	0.6457	0.042
Mof_C 	C 	0.2535	0.084	0.6456	-0.111
Mof_H 	H 	0.2723	0.0651	0.6445	0.076
Mof_C 	C 	0.08307	0.60063	0.97613	-0.141
Mof_H 	H 	0.09347	0.59643	0.95203	0.087
Mof_C 	C 	0.03707	0.55953	0.99203	0.111
Mof_O 	O 	0.98417	0.45373	0.79813	-0.169
Mof_C 	C 	0.02227	0.56633	0.02573	-0.136
Mof_H 	H 	0.99387	0.53733	0.03823	0.101
Mof_C 	C 	0.09467	0.65633	0.02703	-0.092
Mof_C 	C 	0.04867	0.61623	0.04243	0.055
Mof_H 	H 	0.03497	0.62263	0.06453	0.044
Mof_O 	O 	0.75337	0.41473	0.98013	-0.18
Mof_C 	C 	0.11227	0.64573	0.99453	0.058
Mof_H 	H 	0.14607	0.67103	0.98513	0.04
Mof_C 	C 	0.12677	0.70713	0.04563	0.284
Mof_O 	O 	0.17077	0.73983	0.02943	-0.176
Mof_O 	O 	0.11297	0.71783	0.07593	-0.181
Mof_C 	C 	0.00357	0.54433	0.87483	0.043
Mof_H 	H 	0.00107	0.57163	0.86223	0.045
Mof_C 	C 	0.00887	0.54553	0.91163	-0.125
Mof_H 	H 	0.01127	0.57473	0.92493	0.081
Mof_C 	C 	0.86517	0.39143	0.97873	0.031
Mof_H 	H 	0.84577	0.35383	0.97903	0.042
Mof_C 	C 	0.92017	0.41733	0.97893	-0.108
Mof_H 	H 	0.93897	0.39843	0.97783	0.073
Mof_C 	C 	0.74973	0.93397	0.30947	-0.161
Mof_H 	H 	0.76013	0.92977	0.28537	0.094
Mof_C 	C 	0.70373	0.89287	0.32537	0.13
Mof_O 	O 	0.65083	0.78707	0.13147	-0.168
Mof_C 	C 	0.68893	0.89967	0.35907	-0.16
Mof_H 	H 	0.66053	0.87067	0.37157	0.11
Mof_C 	C 	0.76133	0.98967	0.36037	-0.106
Mof_C 	C 	0.71533	0.94957	0.37577	0.071
Mof_H 	H 	0.70163	0.95597	0.39787	0.039
Mof_O 	O 	0.42003	0.74807	0.31347	-0.18
Mof_C 	C 	0.77893	0.97907	0.32787	0.082
Mof_H 	H 	0.81273	0.00437	0.31847	0.031
Mof_C 	C 	0.79343	0.04047	0.37897	0.287
Mof_O 	O 	0.83743	0.07317	0.36277	-0.179
Mof_O 	O 	0.77963	0.05117	0.40927	-0.184
Mof_C 	C 	0.67023	0.87767	0.20817	0.047
Mof_H 	H 	0.66773	0.90497	0.19557	0.044
Mof_C 	C 	0.67553	0.87887	0.24497	-0.13
Mof_H 	H 	0.67793	0.90807	0.25827	0.082
Mof_C 	C 	0.53183	0.72477	0.31207	0.034
Mof_H 	H 	0.51243	0.68717	0.31237	0.042
Mof_C 	C 	0.58683	0.75067	0.31227	-0.112
Mof_H 	H 	0.60563	0.73177	0.31117	0.076
Mof_C 	C 	0.7327	0.1491	0.6428	-0.158
Mof_H 	H 	0.7369	0.1637	0.6187	0.092
Mof_C 	C 	0.7738	0.1442	0.6587	0.128
Mof_O 	O 	0.8796	0.1971	0.4648	-0.169
Mof_C 	C 	0.767	0.1226	0.6924	-0.159
Mof_H 	H 	0.796	0.1232	0.7049	0.109
Mof_C 	C 	0.677	0.105	0.6937	-0.107
Mof_C 	C 	0.7171	0.0991	0.7091	0.07
Mof_H 	H 	0.7107	0.079	0.7312	0.038
Mof_O 	O 	0.9186	0.0053	0.6468	-0.181
Mof_C 	C 	0.6876	0.1332	0.6612	0.075
Mof_H 	H 	0.6623	0.1417	0.6518	0.035
Mof_C 	C 	0.6262	0.0863	0.7123	0.289
Mof_O 	O 	0.5935	0.0976	0.6961	-0.179
Mof_O 	O 	0.6155	0.0618	0.7426	-0.184
Mof_C 	C 	0.789	0.1259	0.5415	0.047
Mof_H 	H 	0.7617	0.0961	0.5289	0.043
Mof_C 	C 	0.7878	0.13	0.5783	-0.13
Mof_H 	H 	0.7586	0.1032	0.5916	0.082
Mof_C 	C 	0.9419	0.1404	0.6454	0.034
Mof_H 	H 	0.9795	0.1586	0.6457	0.041
Mof_C 	C 	0.916	0.1695	0.6456	-0.112
Mof_H 	H 	0.9349	0.2072	0.6445	0.076
Mof_C 	C 	0.39937	0.48243	0.97613	-0.147
Mof_H 	H 	0.40357	0.49703	0.95203	0.089
Mof_C 	C 	0.44047	0.47753	0.99203	0.117
Mof_O 	O 	0.54627	0.53043	0.79813	-0.168
Mof_C 	C 	0.43367	0.45593	0.02573	-0.147
Mof_H 	H 	0.46267	0.45653	0.03823	0.106
Mof_C 	C 	0.34367	0.43833	0.02703	-0.096
Mof_C 	C 	0.38377	0.43243	0.04243	0.062
Mof_H 	H 	0.37737	0.41233	0.06453	0.042
Mof_O 	O 	0.58527	0.33863	0.98013	-0.18
Mof_C 	C 	0.35427	0.46653	0.99453	0.063
Mof_H 	H 	0.32897	0.47503	0.98513	0.039
Mof_C 	C 	0.29287	0.41963	0.04563	0.286
Mof_O 	O 	0.26017	0.43093	0.02943	-0.177
Mof_O 	O 	0.28217	0.39513	0.07593	-0.182
Mof_C 	C 	0.45567	0.45923	0.87483	0.046
Mof_H 	H 	0.42837	0.42943	0.86223	0.044
Mof_C 	C 	0.45447	0.46333	0.91163	-0.128
Mof_H 	H 	0.42527	0.43653	0.92493	0.081
Mof_C 	C 	0.60857	0.47373	0.97873	0.033
Mof_H 	H 	0.64617	0.49193	0.97903	0.042
Mof_C 	C 	0.58267	0.50283	0.97893	-0.111
Mof_H 	H 	0.60157	0.54053	0.97783	0.075
Mof_C 	C 	0.06603	0.81577	0.30947	-0.161
Mof_H 	H 	0.07023	0.83037	0.28537	0.094
Mof_C 	C 	0.10713	0.81087	0.32537	0.13
Mof_O 	O 	0.21293	0.86377	0.13147	-0.168
Mof_C 	C 	0.10033	0.78927	0.35907	-0.16
Mof_H 	H 	0.12933	0.78987	0.37157	0.11
Mof_C 	C 	0.01033	0.77167	0.36037	-0.106
Mof_C 	C 	0.05043	0.76577	0.37577	0.071
Mof_H 	H 	0.04403	0.74567	0.39787	0.039
Mof_O 	O 	0.25193	0.67197	0.31347	-0.18
Mof_C 	C 	0.02093	0.79987	0.32787	0.082
Mof_H 	H 	0.99563	0.80837	0.31847	0.032
Mof_C 	C 	0.95953	0.75297	0.37897	0.287
Mof_O 	O 	0.92683	0.76427	0.36277	-0.178
Mof_O 	O 	0.94883	0.72847	0.40927	-0.184
Mof_C 	C 	0.12233	0.79257	0.20817	0.047
Mof_H 	H 	0.09503	0.76277	0.19557	0.044
Mof_C 	C 	0.12113	0.79667	0.24497	-0.13
Mof_H 	H 	0.09193	0.76987	0.25827	0.083
Mof_C 	C 	0.27523	0.80707	0.31207	0.034
Mof_H 	H 	0.31283	0.82527	0.31237	0.042
Mof_C 	C 	0.24933	0.83617	0.31227	-0.112
Mof_H 	H 	0.26823	0.87387	0.31117	0.076
Mof_C 	C 	0.8509	0.5836	0.6428	-0.158
Mof_H 	H 	0.8363	0.5732	0.6187	0.092
Mof_C 	C 	0.8558	0.6296	0.6587	0.128
Mof_O 	O 	0.8029	0.6825	0.4648	-0.169
Mof_C 	C 	0.8774	0.6444	0.6924	-0.159
Mof_H 	H 	0.8768	0.6728	0.7049	0.109
Mof_C 	C 	0.895	0.572	0.6937	-0.107
Mof_C 	C 	0.9009	0.618	0.7091	0.07
Mof_H 	H 	0.921	0.6317	0.7312	0.038
Mof_O 	O 	0.9947	0.9133	0.6468	-0.18
Mof_C 	C 	0.8668	0.5544	0.6612	0.075
Mof_H 	H 	0.8583	0.5206	0.6518	0.035
Mof_C 	C 	0.9137	0.5399	0.7123	0.289
Mof_O 	O 	0.9024	0.4959	0.6961	-0.179
Mof_O 	O 	0.9382	0.5537	0.7426	-0.184
Mof_C 	C 	0.8741	0.6631	0.5415	0.047
Mof_H 	H 	0.9039	0.6656	0.5289	0.043
Mof_C 	C 	0.87	0.6578	0.5783	-0.13
Mof_H 	H 	0.8968	0.6554	0.5916	0.082
Mof_C 	C 	0.8596	0.8015	0.6454	0.034
Mof_H 	H 	0.8414	0.8209	0.6457	0.042
Mof_C 	C 	0.8305	0.7465	0.6456	-0.112
Mof_H 	H 	0.7928	0.7277	0.6445	0.076
Mof_C 	C 	0.51757	0.91693	0.97613	-0.142
Mof_H 	H 	0.50297	0.90653	0.95203	0.087
Mof_C 	C 	0.52247	0.96293	0.99203	0.111
Mof_O 	O 	0.46957	0.01583	0.79813	-0.169
Mof_C 	C 	0.54407	0.97773	0.02573	-0.135
Mof_H 	H 	0.54347	0.00613	0.03823	0.1
Mof_C 	C 	0.56167	0.90533	0.02703	-0.092
Mof_C 	C 	0.56757	0.95133	0.04243	0.055
Mof_H 	H 	0.58767	0.96503	0.06453	0.045
Mof_O 	O 	0.66137	0.24663	0.98013	-0.18
Mof_C 	C 	0.53347	0.88773	0.99453	0.058
Mof_H 	H 	0.52497	0.85393	0.98513	0.04
Mof_C 	C 	0.58037	0.87323	0.04563	0.284
Mof_O 	O 	0.56907	0.82923	0.02943	-0.176
Mof_O 	O 	0.60487	0.88703	0.07593	-0.181
Mof_C 	C 	0.54077	0.99643	0.87483	0.043
Mof_H 	H 	0.57057	0.99893	0.86223	0.046
Mof_C 	C 	0.53667	0.99113	0.91163	-0.125
Mof_H 	H 	0.56347	0.98873	0.92493	0.081
Mof_C 	C 	0.52627	0.13483	0.97873	0.031
Mof_H 	H 	0.50807	0.15423	0.97903	0.042
Mof_C 	C 	0.49717	0.07983	0.97893	-0.108
Mof_H 	H 	0.45947	0.06103	0.97783	0.073
Mof_C 	C 	0.18423	0.25027	0.30947	-0.158
Mof_H 	H 	0.16963	0.23987	0.28537	0.093
Mof_C 	C 	0.18913	0.29627	0.32537	0.128
Mof_O 	O 	0.13623	0.34917	0.13147	-0.168
Mof_C 	C 	0.21073	0.31107	0.35907	-0.159
Mof_H 	H 	0.21013	0.33947	0.37157	0.109
Mof_C 	C 	0.22833	0.23867	0.36037	-0.106
Mof_C 	C 	0.23423	0.28467	0.37577	0.07
Mof_H 	H 	0.25433	0.29837	0.39787	0.038
Mof_O 	O 	0.32803	0.57997	0.31347	-0.18
Mof_C 	C 	0.20013	0.22107	0.32787	0.075
Mof_H 	H 	0.19163	0.18727	0.31847	0.035
Mof_C 	C 	0.24703	0.20657	0.37897	0.289
Mof_O 	O 	0.23573	0.16257	0.36277	-0.178
Mof_O 	O 	0.27153	0.22037	0.40927	-0.183
Mof_C 	C 	0.20743	0.32977	0.20817	0.047
Mof_H 	H 	0.23723	0.33227	0.19557	0.043
Mof_C 	C 	0.20333	0.32447	0.24497	-0.13
Mof_H 	H 	0.23013	0.32207	0.25827	0.082
Mof_C 	C 	0.19293	0.46817	0.31207	0.034
Mof_H 	H 	0.17473	0.48757	0.31237	0.042
Mof_C 	C 	0.16383	0.41317	0.31227	-0.112
Mof_H 	H 	0.12613	0.39437	0.31117	0.076
Mof_C 	C 	0.7327	0.5836	0.6428	-0.157
Mof_H 	H 	0.7369	0.5732	0.6187	0.092
Mof_C 	C 	0.7738	0.6296	0.6587	0.128
Mof_O 	O 	0.8796	0.6825	0.4648	-0.169
Mof_C 	C 	0.767	0.6444	0.6924	-0.159
Mof_H 	H 	0.796	0.6728	0.7049	0.109
Mof_C 	C 	0.677	0.572	0.6937	-0.106
Mof_C 	C 	0.7171	0.618	0.7091	0.07
Mof_H 	H 	0.7107	0.6317	0.7312	0.038
Mof_O 	O 	0.9186	0.9133	0.6468	-0.179
Mof_C 	C 	0.6876	0.5544	0.6612	0.075
Mof_H 	H 	0.6623	0.5206	0.6518	0.035
Mof_C 	C 	0.6262	0.5399	0.7123	0.289
Mof_O 	O 	0.5935	0.4959	0.6961	-0.178
Mof_O 	O 	0.6155	0.5537	0.7426	-0.183
Mof_C 	C 	0.789	0.6631	0.5415	0.047
Mof_H 	H 	0.7617	0.6656	0.5289	0.043
Mof_C 	C 	0.7878	0.6578	0.5783	-0.13
Mof_H 	H 	0.7586	0.6554	0.5916	0.082
Mof_C 	C 	0.9419	0.8015	0.6454	0.034
Mof_H 	H 	0.9795	0.8209	0.6457	0.041
Mof_C 	C 	0.916	0.7465	0.6456	-0.112
Mof_H 	H 	0.9349	0.7277	0.6445	0.075
Mof_C 	C 	0.39937	0.91693	0.97613	-0.142
Mof_H 	H 	0.40357	0.90653	0.95203	0.087
Mof_C 	C 	0.44047	0.96293	0.99203	0.11
Mof_O 	O 	0.54627	0.01583	0.79813	-0.169
Mof_C 	C 	0.43367	0.97773	0.02573	-0.135
Mof_H 	H 	0.46267	0.00613	0.03823	0.1
Mof_C 	C 	0.34367	0.90533	0.02703	-0.091
Mof_C 	C 	0.38377	0.95133	0.04243	0.055
Mof_H 	H 	0.37737	0.96503	0.06453	0.045
Mof_O 	O 	0.58527	0.24663	0.98013	-0.18
Mof_C 	C 	0.35427	0.88773	0.99453	0.058
Mof_H 	H 	0.32897	0.85393	0.98513	0.04
Mof_C 	C 	0.29287	0.87323	0.04563	0.284
Mof_O 	O 	0.26017	0.82923	0.02943	-0.176
Mof_O 	O 	0.28217	0.88703	0.07593	-0.181
Mof_C 	C 	0.45567	0.99643	0.87483	0.043
Mof_H 	H 	0.42837	0.99893	0.86223	0.046
Mof_C 	C 	0.45447	0.99113	0.91163	-0.125
Mof_H 	H 	0.42527	0.98873	0.92493	0.081
Mof_C 	C 	0.60857	0.13483	0.97873	0.031
Mof_H 	H 	0.64617	0.15423	0.97903	0.042
Mof_C 	C 	0.58267	0.07983	0.97893	-0.108
Mof_H 	H 	0.60157	0.06103	0.97783	0.073
Mof_C 	C 	0.06603	0.25027	0.30947	-0.161
Mof_H 	H 	0.07023	0.23987	0.28537	0.094
Mof_C 	C 	0.10713	0.29627	0.32537	0.13
Mof_O 	O 	0.21293	0.34917	0.13147	-0.168
Mof_C 	C 	0.10033	0.31107	0.35907	-0.16
Mof_H 	H 	0.12933	0.33947	0.37157	0.11
Mof_C 	C 	0.01033	0.23867	0.36037	-0.106
Mof_C 	C 	0.05043	0.28467	0.37577	0.071
Mof_H 	H 	0.04403	0.29837	0.39787	0.039
Mof_O 	O 	0.25193	0.57997	0.31347	-0.18
Mof_C 	C 	0.02093	0.22107	0.32787	0.082
Mof_H 	H 	0.99563	0.18727	0.31847	0.031
Mof_C 	C 	0.95953	0.20657	0.37897	0.287
Mof_O 	O 	0.92683	0.16257	0.36277	-0.179
Mof_O 	O 	0.94883	0.22037	0.40927	-0.184
Mof_C 	C 	0.12233	0.32977	0.20817	0.047
Mof_H 	H 	0.09503	0.33227	0.19557	0.044
Mof_C 	C 	0.12113	0.32447	0.24497	-0.13
Mof_H 	H 	0.09193	0.32207	0.25827	0.082
Mof_C 	C 	0.27523	0.46817	0.31207	0.034
Mof_H 	H 	0.31283	0.48757	0.31237	0.042
Mof_C 	C 	0.24933	0.41317	0.31227	-0.112
Mof_H 	H 	0.26823	0.39437	0.31117	0.076
Mof_C 	C 	0.8509	0.2673	0.6428	-0.158
Mof_H 	H 	0.8363	0.2631	0.6187	0.092
Mof_C 	C 	0.8558	0.2262	0.6587	0.128
Mof_O 	O 	0.8029	0.1204	0.4648	-0.169
Mof_C 	C 	0.8774	0.233	0.6924	-0.159
Mof_H 	H 	0.8768	0.204	0.7049	0.109
Mof_C 	C 	0.895	0.323	0.6937	-0.107
Mof_C 	C 	0.9009	0.2829	0.7091	0.07
Mof_H 	H 	0.921	0.2893	0.7312	0.038
Mof_O 	O 	0.9947	0.0814	0.6468	-0.181
Mof_C 	C 	0.8668	0.3124	0.6612	0.075
Mof_H 	H 	0.8583	0.3377	0.6518	0.035
Mof_C 	C 	0.9137	0.3738	0.7123	0.289
Mof_O 	O 	0.9024	0.4065	0.6961	-0.179
Mof_O 	O 	0.9382	0.3845	0.7426	-0.184
Mof_C 	C 	0.8741	0.211	0.5415	0.047
Mof_H 	H 	0.9039	0.2383	0.5289	0.043
Mof_C 	C 	0.87	0.2122	0.5783	-0.13
Mof_H 	H 	0.8968	0.2414	0.5916	0.082
Mof_C 	C 	0.8596	0.0581	0.6454	0.034
Mof_H 	H 	0.8414	0.0205	0.6457	0.041
Mof_C 	C 	0.8305	0.084	0.6456	-0.112
Mof_H 	H 	0.7928	0.0651	0.6445	0.076
Mof_C 	C 	0.51757	0.60063	0.97613	-0.147
Mof_H 	H 	0.50297	0.59643	0.95203	0.089
Mof_C 	C 	0.52247	0.55953	0.99203	0.117
Mof_O 	O 	0.46957	0.45373	0.79813	-0.168
Mof_C 	C 	0.54407	0.56633	0.02573	-0.147
Mof_H 	H 	0.54347	0.53733	0.03823	0.106
Mof_C 	C 	0.56167	0.65633	0.02703	-0.096
Mof_C 	C 	0.56757	0.61623	0.04243	0.062
Mof_H 	H 	0.58767	0.62263	0.06453	0.042
Mof_O 	O 	0.66137	0.41473	0.98013	-0.18
Mof_C 	C 	0.53347	0.64573	0.99453	0.063
Mof_H 	H 	0.52497	0.67103	0.98513	0.039
Mof_C 	C 	0.58037	0.70713	0.04563	0.286
Mof_O 	O 	0.56907	0.73983	0.02943	-0.177
Mof_O 	O 	0.60487	0.71783	0.07593	-0.182
Mof_C 	C 	0.54077	0.54433	0.87483	0.046
Mof_H 	H 	0.57057	0.57163	0.86223	0.044
Mof_C 	C 	0.53667	0.54553	0.91163	-0.128
Mof_H 	H 	0.56347	0.57473	0.92493	0.081
Mof_C 	C 	0.52627	0.39143	0.97873	0.033
Mof_H 	H 	0.50807	0.35383	0.97903	0.042
Mof_C 	C 	0.49717	0.41733	0.97893	-0.111
Mof_H 	H 	0.45947	0.39843	0.97783	0.075
Mof_C 	C 	0.18423	0.93397	0.30947	-0.161
Mof_H 	H 	0.16963	0.92977	0.28537	0.095
Mof_C 	C 	0.18913	0.89287	0.32537	0.13
Mof_O 	O 	0.13623	0.78707	0.13147	-0.168
Mof_C 	C 	0.21073	0.89967	0.35907	-0.16
Mof_H 	H 	0.21013	0.87067	0.37157	0.11
Mof_C 	C 	0.22833	0.98967	0.36037	-0.106
Mof_C 	C 	0.23423	0.94957	0.37577	0.071
Mof_H 	H 	0.25433	0.95597	0.39787	0.039
Mof_O 	O 	0.32803	0.74807	0.31347	-0.18
Mof_C 	C 	0.20013	0.97907	0.32787	0.082
Mof_H 	H 	0.19163	0.00437	0.31847	0.031
Mof_C 	C 	0.24703	0.04047	0.37897	0.287
Mof_O 	O 	0.23573	0.07317	0.36277	-0.178
Mof_O 	O 	0.27153	0.05117	0.40927	-0.184
Mof_C 	C 	0.20743	0.87767	0.20817	0.047
Mof_H 	H 	0.23723	0.90497	0.19557	0.044
Mof_C 	C 	0.20333	0.87887	0.24497	-0.13
Mof_H 	H 	0.23013	0.90807	0.25827	0.083
Mof_C 	C 	0.19293	0.72477	0.31207	0.034
Mof_H 	H 	0.17473	0.68717	0.31237	0.042
Mof_C 	C 	0.16383	0.75067	0.31227	-0.112
Mof_H 	H 	0.12613	0.73177	0.31117	0.076
Mof_C 	C 	0.4164	0.1491	0.6428	-0.158
Mof_H 	H 	0.4268	0.1637	0.6187	0.092
Mof_C 	C 	0.3704	0.1442	0.6587	0.128
Mof_O 	O 	0.3175	0.1971	0.4648	-0.169
Mof_C 	C 	0.3556	0.1226	0.6924	-0.159
Mof_H 	H 	0.3272	0.1232	0.7049	0.109
Mof_C 	C 	0.428	0.105	0.6937	-0.107
Mof_C 	C 	0.382	0.0991	0.7091	0.07
Mof_H 	H 	0.3683	0.079	0.7312	0.038
Mof_O 	O 	0.0867	0.0053	0.6468	-0.18
Mof_C 	C 	0.4456	0.1332	0.6612	0.075
Mof_H 	H 	0.4794	0.1417	0.6518	0.035
Mof_C 	C 	0.4601	0.0863	0.7123	0.289
Mof_O 	O 	0.5041	0.0976	0.6961	-0.179
Mof_O 	O 	0.4463	0.0618	0.7426	-0.184
Mof_C 	C 	0.3369	0.1259	0.5415	0.047
Mof_H 	H 	0.3344	0.0961	0.5289	0.043
Mof_C 	C 	0.3422	0.13	0.5783	-0.13
Mof_H 	H 	0.3446	0.1032	0.5916	0.082
Mof_C 	C 	0.1985	0.1404	0.6454	0.034
Mof_H 	H 	0.1791	0.1586	0.6457	0.042
Mof_C 	C 	0.2535	0.1695	0.6456	-0.112
Mof_H 	H 	0.2723	0.2072	0.6445	0.076
Mof_C 	C 	0.08307	0.48243	0.97613	-0.142
Mof_H 	H 	0.09347	0.49703	0.95203	0.087
Mof_C 	C 	0.03707	0.47753	0.99203	0.111
Mof_O 	O 	0.98417	0.53043	0.79813	-0.169
Mof_C 	C 	0.02227	0.45593	0.02573	-0.136
Mof_H 	H 	0.99387	0.45653	0.03823	0.101
Mof_C 	C 	0.09467	0.43833	0.02703	-0.092
Mof_C 	C 	0.04867	0.43243	0.04243	0.055
Mof_H 	H 	0.03497	0.41233	0.06453	0.044
Mof_O 	O 	0.75337	0.33863	0.98013	-0.18
Mof_C 	C 	0.11227	0.46653	0.99453	0.058
Mof_H 	H 	0.14607	0.47503	0.98513	0.04
Mof_C 	C 	0.12677	0.41963	0.04563	0.284
Mof_O 	O 	0.17077	0.43093	0.02943	-0.176
Mof_O 	O 	0.11297	0.39513	0.07593	-0.181
Mof_C 	C 	0.00357	0.45923	0.87483	0.043
Mof_H 	H 	0.00107	0.42943	0.86223	0.045
Mof_C 	C 	0.00887	0.46333	0.91163	-0.125
Mof_H 	H 	0.01127	0.43653	0.92493	0.081
Mof_C 	C 	0.86517	0.47373	0.97873	0.031
Mof_H 	H 	0.84577	0.49193	0.97903	0.042
Mof_C 	C 	0.92017	0.50283	0.97893	-0.108
Mof_H 	H 	0.93897	0.54053	0.97783	0.073
Mof_C 	C 	0.74973	0.81577	0.30947	-0.158
Mof_H 	H 	0.76013	0.83037	0.28537	0.093
Mof_C 	C 	0.70373	0.81087	0.32537	0.128
Mof_O 	O 	0.65083	0.86377	0.13147	-0.168
Mof_C 	C 	0.68893	0.78927	0.35907	-0.159
Mof_H 	H 	0.66053	0.78987	0.37157	0.109
Mof_C 	C 	0.76133	0.77167	0.36037	-0.106
Mof_C 	C 	0.71533	0.76577	0.37577	0.07
Mof_H 	H 	0.70163	0.74567	0.39787	0.038
Mof_O 	O 	0.42003	0.67197	0.31347	-0.18
Mof_C 	C 	0.77893	0.79987	0.32787	0.075
Mof_H 	H 	0.81273	0.80837	0.31847	0.035
Mof_C 	C 	0.79343	0.75297	0.37897	0.289
Mof_O 	O 	0.83743	0.76427	0.36277	-0.178
Mof_O 	O 	0.77963	0.72847	0.40927	-0.183
Mof_C 	C 	0.67023	0.79257	0.20817	0.047
Mof_H 	H 	0.66773	0.76277	0.19557	0.043
Mof_C 	C 	0.67553	0.79667	0.24497	-0.13
Mof_H 	H 	0.67793	0.76987	0.25827	0.082
Mof_C 	C 	0.53183	0.80707	0.31207	0.034
Mof_H 	H 	0.51243	0.82527	0.31237	0.042
Mof_C 	C 	0.58683	0.83617	0.31227	-0.112
Mof_H 	H 	0.60563	0.87387	0.31117	0.076
Mof_U 	U 	-7.5942e-33	-1.51884e-32	0.64468	0.013
Mof_U 	U 	0.66667	0.33333	0.97801	0.012
Mof_U 	U 	0.33333	0.66667	0.31135	0.012
Mof_U 	U 	0.52809	0.47191	0.74492	0.01
Mof_U 	U 	0.19476	0.80524	0.07825	0.01
Mof_U 	U 	0.86142	0.13858	0.41159	0.009
Mof_U 	U 	0.52809	0.05618	0.74492	0.009
Mof_U 	U 	0.19476	0.38951	0.07825	0.01
Mof_U 	U 	0.86142	0.72285	0.41159	0.01
Mof_U 	U 	0.94382	0.47191	0.74492	0.009
Mof_U 	U 	0.61049	0.80524	0.07825	0.01
Mof_U 	U 	0.27715	0.13858	0.41159	0.01
Mof_C 	C 	0.3423	0.17115	0.6422	-0.128
Mof_C 	C 	0.3441	0.17205	0.5976	0.098
Mof_C 	C 	0.1708	0.0854	0.6447	-0.07
Mof_C 	C 	0.1113	0.05565	0.6463	0.278
Mof_C 	C 	0.28	0.14	0.6475	0.091
Mof_C 	C 	0.3351	0.16755	0.5211	-0.083
Mof_C 	C 	0.3253	0.16265	0.4825	0.265
Mof_C 	C 	0.00897	0.50448	0.97553	-0.115
Mof_C 	C 	0.01077	0.50538	0.93093	0.093
Mof_C 	C 	0.83747	0.41873	0.97803	-0.068
Mof_C 	C 	0.77797	0.38898	0.97963	0.277
Mof_C 	C 	0.94667	0.47333	0.98083	0.084
Mof_C 	C 	0.00177	0.50088	0.85443	-0.077
Mof_C 	C 	0.99197	0.49598	0.81583	0.261
Mof_C 	C 	0.67563	0.83782	0.30887	-0.129
Mof_C 	C 	0.67743	0.83872	0.26427	0.098
Mof_C 	C 	0.50413	0.75207	0.31137	-0.07
Mof_C 	C 	0.44463	0.72232	0.31297	0.278
Mof_C 	C 	0.61333	0.80667	0.31417	0.091
Mof_C 	C 	0.66843	0.83422	0.18777	-0.083
Mof_C 	C 	0.65863	0.82932	0.14917	0.265
Mof_C 	C 	0.82885	0.17115	0.6422	-0.128
Mof_C 	C 	0.82795	0.17205	0.5976	0.098
Mof_C 	C 	0.9146	0.0854	0.6447	-0.071
Mof_C 	C 	0.94435	0.05565	0.6463	0.278
Mof_C 	C 	0.86	0.14	0.6475	0.091
Mof_C 	C 	0.83245	0.16755	0.5211	-0.084
Mof_C 	C 	0.83735	0.16265	0.4825	0.265
Mof_C 	C 	0.49552	0.50448	0.97553	-0.122
Mof_C 	C 	0.49462	0.50538	0.93093	0.096
Mof_C 	C 	0.58127	0.41873	0.97803	-0.07
Mof_C 	C 	0.61102	0.38898	0.97963	0.277
Mof_C 	C 	0.52667	0.47333	0.98083	0.088
Mof_C 	C 	0.49912	0.50088	0.85443	-0.082
Mof_C 	C 	0.50402	0.49598	0.81583	0.265
Mof_C 	C 	0.16218	0.83782	0.30887	-0.13
Mof_C 	C 	0.16128	0.83872	0.26427	0.099
Mof_C 	C 	0.24793	0.75207	0.31137	-0.07
Mof_C 	C 	0.27768	0.72232	0.31297	0.278
Mof_C 	C 	0.19333	0.80667	0.31417	0.091
Mof_C 	C 	0.16578	0.83422	0.18777	-0.083
Mof_C 	C 	0.17068	0.82932	0.14917	0.265
Mof_C 	C 	0.82885	0.6577	0.6422	-0.128
Mof_C 	C 	0.82795	0.6559	0.5976	0.098
Mof_C 	C 	0.9146	0.8292	0.6447	-0.07
Mof_C 	C 	0.94435	0.8887	0.6463	0.278
Mof_C 	C 	0.86	0.72	0.6475	0.091
Mof_C 	C 	0.83245	0.6649	0.5211	-0.083
Mof_C 	C 	0.83735	0.6747	0.4825	0.265
Mof_C 	C 	0.49552	0.99103	0.97553	-0.115
Mof_C 	C 	0.49462	0.98923	0.93093	0.093
Mof_C 	C 	0.58127	0.16253	0.97803	-0.068
Mof_C 	C 	0.61102	0.22203	0.97963	0.277
Mof_C 	C 	0.52667	0.05333	0.98083	0.083
Mof_C 	C 	0.49912	0.99823	0.85443	-0.077
Mof_C 	C 	0.50402	0.00803	0.81583	0.261
Mof_C 	C 	0.16218	0.32437	0.30887	-0.129
Mof_C 	C 	0.16128	0.32257	0.26427	0.098
Mof_C 	C 	0.24793	0.49587	0.31137	-0.07
Mof_C 	C 	0.27768	0.55537	0.31297	0.278
Mof_C 	C 	0.19333	0.38667	0.31417	0.091
Mof_C 	C 	0.16578	0.33157	0.18777	-0.083
Mof_C 	C 	0.17068	0.34137	0.14917	0.265
Mof_O 	O 	0.6616	0.415	0.3998	-0.183
Mof_C 	C 	0.2883	0.4076	0.4411	0.292
Mof_C 	C 	0.3411	0.4319	0.4252	-0.103
Mof_O 	O 	0.2773	0.3845	0.4714	-0.188
Mof_C 	C 	0.3507	0.4576	0.3915	0.049
Mof_H 	H 	0.3231	0.4594	0.3788	0.038
Mof_O 	O 	0.2521	0.4119	0.4235	-0.192
Mof_C 	C 	0.4415	0.4748	0.3924	0.112
Mof_C 	C 	0.4032	0.4815	0.3758	-0.135
Mof_H 	H 	0.4111	0.5019	0.3538	0.087
Mof_O 	O 	0.4705	0.456	0.1981	-0.192
Mof_C 	C 	0.431	0.4506	0.4268	-0.143
Mof_H 	H 	0.4584	0.4492	0.44	0.088
Mof_C 	C 	0.5287	0.3917	0.3911	0.063
Mof_H 	H 	0.5109	0.3541	0.3896	0.041
Mof_C 	C 	0.5009	0.417	0.3891	-0.144
Mof_H 	H 	0.4633	0.3978	0.39	0.091
Mof_C 	C 	0.3812	0.4286	0.4419	0.063
Mof_H 	H 	0.3744	0.4104	0.4649	0.037
Mof_C 	C 	0.4582	0.4599	0.3142	-0.128
Mof_H 	H 	0.4278	0.4335	0.3269	0.082
Mof_C 	C 	0.4635	0.4561	0.2767	0.044
Mof_H 	H 	0.4398	0.4241	0.2644	0.043
Mof_O 	O 	0.32827	0.74833	0.73313	-0.183
Mof_C 	C 	0.95497	0.74093	0.77443	0.29
Mof_C 	C 	0.00777	0.76523	0.75853	-0.101
Mof_O 	O 	0.94397	0.71783	0.80473	-0.188
Mof_C 	C 	0.01737	0.79093	0.72483	0.054
Mof_H 	H 	0.98977	0.79273	0.71213	0.034
Mof_O 	O 	0.91877	0.74523	0.75683	-0.192
Mof_C 	C 	0.10817	0.80813	0.72573	0.113
Mof_C 	C 	0.06987	0.81483	0.70913	-0.138
Mof_H 	H 	0.07777	0.83523	0.68713	0.088
Mof_O 	O 	0.13717	0.78933	0.53143	-0.192
Mof_C 	C 	0.09767	0.78393	0.76013	-0.143
Mof_H 	H 	0.12507	0.78253	0.77333	0.089
Mof_C 	C 	0.19537	0.72503	0.72443	0.063
Mof_H 	H 	0.17757	0.68743	0.72293	0.041
Mof_C 	C 	0.16757	0.75033	0.72243	-0.144
Mof_H 	H 	0.12997	0.73113	0.72333	0.091
Mof_C 	C 	0.04787	0.76193	0.77523	0.063
Mof_H 	H 	0.04107	0.74373	0.79823	0.038
Mof_C 	C 	0.12487	0.79323	0.64753	-0.128
Mof_H 	H 	0.09447	0.76683	0.66023	0.082
Mof_C 	C 	0.13017	0.78943	0.61003	0.044
Mof_H 	H 	0.10647	0.75743	0.59773	0.043
Mof_O 	O 	0.99493	0.08167	0.06647	-0.184
Mof_C 	C 	0.62163	0.07427	0.10777	0.292
Mof_C 	C 	0.67443	0.09857	0.09187	-0.103
Mof_O 	O 	0.61063	0.05117	0.13807	-0.189
Mof_C 	C 	0.68403	0.12427	0.05817	0.05
Mof_H 	H 	0.65643	0.12607	0.04547	0.038
Mof_O 	O 	0.58543	0.07857	0.09017	-0.192
Mof_C 	C 	0.77483	0.14147	0.05907	0.114
Mof_C 	C 	0.73653	0.14817	0.04247	-0.136
Mof_H 	H 	0.74443	0.16857	0.02047	0.088
Mof_O 	O 	0.80383	0.12267	0.86477	-0.193
Mof_C 	C 	0.76433	0.11727	0.09347	-0.144
Mof_H 	H 	0.79173	0.11587	0.10667	0.088
Mof_C 	C 	0.86203	0.05837	0.05777	0.064
Mof_H 	H 	0.84423	0.02077	0.05627	0.04
Mof_C 	C 	0.83423	0.08367	0.05577	-0.146
Mof_H 	H 	0.79663	0.06447	0.05667	0.091
Mof_C 	C 	0.71453	0.09527	0.10857	0.064
Mof_H 	H 	0.70773	0.07707	0.13157	0.037
Mof_C 	C 	0.79153	0.12657	0.98087	-0.138
Mof_H 	H 	0.76113	0.10017	0.99357	0.083
Mof_C 	C 	0.79683	0.12277	0.94337	0.049
Mof_H 	H 	0.77313	0.09077	0.93107	0.04
Mof_O 	O 	0.585	0.2466	0.3998	-0.183
Mof_C 	C 	0.5924	0.8807	0.4411	0.291
Mof_C 	C 	0.5681	0.9092	0.4252	-0.098
Mof_O 	O 	0.6155	0.8928	0.4714	-0.187
Mof_C 	C 	0.5424	0.8931	0.3915	0.045
Mof_H 	H 	0.5406	0.8637	0.3788	0.039
Mof_O 	O 	0.5881	0.8402	0.4235	-0.192
Mof_C 	C 	0.5252	0.9667	0.3924	0.106
Mof_C 	C 	0.5185	0.9217	0.3758	-0.131
Mof_H 	H 	0.4981	0.9092	0.3538	0.085
Mof_O 	O 	0.544	0.0145	0.1981	-0.192
Mof_C 	C 	0.5494	0.9804	0.4268	-0.132
Mof_H 	H 	0.5508	0.0092	0.44	0.083
Mof_C 	C 	0.6083	0.137	0.3911	0.058
Mof_H 	H 	0.6459	0.1568	0.3896	0.042
Mof_C 	C 	0.583	0.0839	0.3891	-0.139
Mof_H 	H 	0.6022	0.0655	0.39	0.088
Mof_C 	C 	0.5714	0.9526	0.4419	0.056
Mof_H 	H 	0.5896	0.964	0.4649	0.04
Mof_C 	C 	0.5401	0.9983	0.3142	-0.116
Mof_H 	H 	0.5665	0.9943	0.3269	0.078
Mof_C 	C 	0.5439	0.0074	0.2767	0.032
Mof_H 	H 	0.5759	0.0157	0.2644	0.046
Mof_O 	O 	0.25167	0.57993	0.73313	-0.183
Mof_C 	C 	0.25907	0.21403	0.77443	0.292
Mof_C 	C 	0.23477	0.24253	0.75853	-0.103
Mof_O 	O 	0.28217	0.22613	0.80473	-0.188
Mof_C 	C 	0.20907	0.22643	0.72483	0.049
Mof_H 	H 	0.20727	0.19703	0.71213	0.038
Mof_O 	O 	0.25477	0.17353	0.75683	-0.192
Mof_C 	C 	0.19187	0.30003	0.72573	0.112
Mof_C 	C 	0.18517	0.25503	0.70913	-0.136
Mof_H 	H 	0.16477	0.24253	0.68713	0.087
Mof_O 	O 	0.21067	0.34783	0.53143	-0.192
Mof_C 	C 	0.21607	0.31373	0.76013	-0.143
Mof_H 	H 	0.21747	0.34253	0.77333	0.088
Mof_C 	C 	0.27497	0.47033	0.72443	0.063
Mof_H 	H 	0.31257	0.49013	0.72293	0.041
Mof_C 	C 	0.24967	0.41723	0.72243	-0.144
Mof_H 	H 	0.26887	0.39883	0.72333	0.091
Mof_C 	C 	0.23807	0.28593	0.77523	0.063
Mof_H 	H 	0.25627	0.29733	0.79823	0.037
Mof_C 	C 	0.20677	0.33163	0.64753	-0.128
Mof_H 	H 	0.23317	0.32763	0.66023	0.082
Mof_C 	C 	0.21057	0.34073	0.61003	0.044
Mof_H 	H 	0.24257	0.34903	0.59773	0.043
Mof_O 	O 	0.91833	0.91327	0.06647	-0.182
Mof_C 	C 	0.92573	0.54737	0.10777	0.292
Mof_C 	C 	0.90143	0.57587	0.09187	-0.103
Mof_O 	O 	0.94883	0.55947	0.13807	-0.189
Mof_C 	C 	0.87573	0.55977	0.05817	0.05
Mof_H 	H 	0.87393	0.53037	0.04547	0.038
Mof_O 	O 	0.92143	0.50687	0.09017	-0.192
Mof_C 	C 	0.85853	0.63337	0.05907	0.114
Mof_C 	C 	0.85183	0.58837	0.04247	-0.136
Mof_H 	H 	0.83143	0.57587	0.02047	0.088
Mof_O 	O 	0.87733	0.68117	0.86477	-0.193
Mof_C 	C 	0.88273	0.64707	0.09347	-0.144
Mof_H 	H 	0.88413	0.67587	0.10667	0.089
Mof_C 	C 	0.94163	0.80367	0.05777	0.063
Mof_H 	H 	0.97923	0.82347	0.05627	0.041
Mof_C 	C 	0.91633	0.75057	0.05577	-0.145
Mof_H 	H 	0.93553	0.73217	0.05667	0.091
Mof_C 	C 	0.90473	0.61927	0.10857	0.064
Mof_H 	H 	0.92293	0.63067	0.13157	0.037
Mof_C 	C 	0.87343	0.66497	0.98087	-0.138
Mof_H 	H 	0.89983	0.66097	0.99357	0.083
Mof_C 	C 	0.87723	0.67407	0.94337	0.05
Mof_H 	H 	0.90923	0.68237	0.93107	0.04
Mof_O 	O 	0.7534	0.3384	0.3998	-0.183
Mof_C 	C 	0.1193	0.7117	0.4411	0.291
Mof_C 	C 	0.0908	0.6589	0.4252	-0.099
Mof_O 	O 	0.1072	0.7227	0.4714	-0.187
Mof_C 	C 	0.1069	0.6493	0.3915	0.045
Mof_H 	H 	0.1363	0.6769	0.3788	0.039
Mof_O 	O 	0.1598	0.7479	0.4235	-0.192
Mof_C 	C 	0.0333	0.5585	0.3924	0.106
Mof_C 	C 	0.0783	0.5968	0.3758	-0.131
Mof_H 	H 	0.0908	0.5889	0.3538	0.085
Mof_O 	O 	0.9855	0.5295	0.1981	-0.192
Mof_C 	C 	0.0196	0.569	0.4268	-0.132
Mof_H 	H 	0.9908	0.5416	0.44	0.083
Mof_C 	C 	0.863	0.4713	0.3911	0.059
Mof_H 	H 	0.8432	0.4891	0.3896	0.042
Mof_C 	C 	0.9161	0.4991	0.3891	-0.14
Mof_H 	H 	0.9345	0.5367	0.39	0.088
Mof_C 	C 	0.0474	0.6188	0.4419	0.057
Mof_H 	H 	0.036	0.6256	0.4649	0.04
Mof_C 	C 	0.0017	0.5418	0.3142	-0.117
Mof_H 	H 	0.0057	0.5722	0.3269	0.079
Mof_C 	C 	0.9926	0.5365	0.2767	0.033
Mof_H 	H 	0.9843	0.5602	0.2644	0.046
Mof_O 	O 	0.42007	0.67173	0.73313	-0.183
Mof_C 	C 	0.78597	0.04503	0.77443	0.29
Mof_C 	C 	0.75747	0.99223	0.75853	-0.101
Mof_O 	O 	0.77387	0.05603	0.80473	-0.189
Mof_C 	C 	0.77357	0.98263	0.72483	0.054
Mof_H 	H 	0.80297	0.01023	0.71213	0.034
Mof_O 	O 	0.82647	0.08123	0.75683	-0.192
Mof_C 	C 	0.69997	0.89183	0.72573	0.113
Mof_C 	C 	0.74497	0.93013	0.70913	-0.138
Mof_H 	H 	0.75747	0.92223	0.68713	0.088
Mof_O 	O 	0.65217	0.86283	0.53143	-0.192
Mof_C 	C 	0.68627	0.90233	0.76013	-0.143
Mof_H 	H 	0.65747	0.87493	0.77333	0.088
Mof_C 	C 	0.52967	0.80463	0.72443	0.063
Mof_H 	H 	0.50987	0.82243	0.72293	0.041
Mof_C 	C 	0.58277	0.83243	0.72243	-0.144
Mof_H 	H 	0.60117	0.87003	0.72333	0.091
Mof_C 	C 	0.71407	0.95213	0.77523	0.063
Mof_H 	H 	0.70267	0.95893	0.79823	0.038
Mof_C 	C 	0.66837	0.87513	0.64753	-0.128
Mof_H 	H 	0.67237	0.90553	0.66023	0.082
Mof_C 	C 	0.65927	0.86983	0.61003	0.044
Mof_H 	H 	0.65097	0.89353	0.59773	0.043
Mof_O 	O 	0.08673	0.00507	0.06647	-0.183
Mof_C 	C 	0.45263	0.37837	0.10777	0.292
Mof_C 	C 	0.42413	0.32557	0.09187	-0.103
Mof_O 	O 	0.44053	0.38937	0.13807	-0.188
Mof_C 	C 	0.44023	0.31597	0.05817	0.05
Mof_H 	H 	0.46963	0.34357	0.04547	0.038
Mof_O 	O 	0.49313	0.41457	0.09017	-0.192
Mof_C 	C 	0.36663	0.22517	0.05907	0.114
Mof_C 	C 	0.41163	0.26347	0.04247	-0.136
Mof_H 	H 	0.42413	0.25557	0.02047	0.088
Mof_O 	O 	0.31883	0.19617	0.86477	-0.193
Mof_C 	C 	0.35293	0.23567	0.09347	-0.144
Mof_H 	H 	0.32413	0.20827	0.10667	0.089
Mof_C 	C 	0.19633	0.13797	0.05777	0.063
Mof_H 	H 	0.17653	0.15577	0.05627	0.041
Mof_C 	C 	0.24943	0.16577	0.05577	-0.145
Mof_H 	H 	0.26783	0.20337	0.05667	0.091
Mof_C 	C 	0.38073	0.28547	0.10857	0.064
Mof_H 	H 	0.36933	0.29227	0.13157	0.037
Mof_C 	C 	0.33503	0.20847	0.98087	-0.138
Mof_H 	H 	0.33903	0.23887	0.99357	0.084
Mof_C 	C 	0.32593	0.20317	0.94337	0.05
Mof_H 	H 	0.31763	0.22687	0.93107	0.04
Mof_O 	O 	0.585	0.3384	0.3998	-0.183
Mof_C 	C 	0.5924	0.7117	0.4411	0.292
Mof_C 	C 	0.5681	0.6589	0.4252	-0.102
Mof_O 	O 	0.6155	0.7227	0.4714	-0.188
Mof_C 	C 	0.5424	0.6493	0.3915	0.049
Mof_H 	H 	0.5406	0.6769	0.3788	0.038
Mof_O 	O 	0.5881	0.7479	0.4235	-0.192
Mof_C 	C 	0.5252	0.5585	0.3924	0.112
Mof_C 	C 	0.5185	0.5968	0.3758	-0.135
Mof_H 	H 	0.4981	0.5889	0.3538	0.087
Mof_O 	O 	0.544	0.5295	0.1981	-0.192
Mof_C 	C 	0.5494	0.569	0.4268	-0.143
Mof_H 	H 	0.5508	0.5416	0.44	0.088
Mof_C 	C 	0.6083	0.4713	0.3911	0.063
Mof_H 	H 	0.6459	0.4891	0.3896	0.041
Mof_C 	C 	0.583	0.4991	0.3891	-0.144
Mof_H 	H 	0.6022	0.5367	0.39	0.091
Mof_C 	C 	0.5714	0.6188	0.4419	0.063
Mof_H 	H 	0.5896	0.6256	0.4649	0.037
Mof_C 	C 	0.5401	0.5418	0.3142	-0.128
Mof_H 	H 	0.5665	0.5722	0.3269	0.082
Mof_C 	C 	0.5439	0.5365	0.2767	0.044
Mof_H 	H 	0.5759	0.5602	0.2644	0.043
Mof_O 	O 	0.25167	0.67173	0.73313	-0.183
Mof_C 	C 	0.25907	0.04503	0.77443	0.29
Mof_C 	C 	0.23477	0.99223	0.75853	-0.101
Mof_O 	O 	0.28217	0.05603	0.80473	-0.188
Mof_C 	C 	0.20907	0.98263	0.72483	0.054
Mof_H 	H 	0.20727	0.01023	0.71213	0.034
Mof_O 	O 	0.25477	0.08123	0.75683	-0.192
Mof_C 	C 	0.19187	0.89183	0.72573	0.113
Mof_C 	C 	0.18517	0.93013	0.70913	-0.138
Mof_H 	H 	0.16477	0.92223	0.68713	0.088
Mof_O 	O 	0.21067	0.86283	0.53143	-0.192
Mof_C 	C 	0.21607	0.90233	0.76013	-0.143
Mof_H 	H 	0.21747	0.87493	0.77333	0.089
Mof_C 	C 	0.27497	0.80463	0.72443	0.063
Mof_H 	H 	0.31257	0.82243	0.72293	0.041
Mof_C 	C 	0.24967	0.83243	0.72243	-0.144
Mof_H 	H 	0.26887	0.87003	0.72333	0.091
Mof_C 	C 	0.23807	0.95213	0.77523	0.063
Mof_H 	H 	0.25627	0.95893	0.79823	0.038
Mof_C 	C 	0.20677	0.87513	0.64753	-0.128
Mof_H 	H 	0.23317	0.90553	0.66023	0.082
Mof_C 	C 	0.21057	0.86983	0.61003	0.044
Mof_H 	H 	0.24257	0.89353	0.59773	0.043
Mof_O 	O 	0.91833	0.00507	0.06647	-0.184
Mof_C 	C 	0.92573	0.37837	0.10777	0.292
Mof_C 	C 	0.90143	0.32557	0.09187	-0.103
Mof_O 	O 	0.94883	0.38937	0.13807	-0.189
Mof_C 	C 	0.87573	0.31597	0.05817	0.05
Mof_H 	H 	0.87393	0.34357	0.04547	0.038
Mof_O 	O 	0.92143	0.41457	0.09017	-0.192
Mof_C 	C 	0.85853	0.22517	0.05907	0.114
Mof_C 	C 	0.85183	0.26347	0.04247	-0.136
Mof_H 	H 	0.83143	0.25557	0.02047	0.088
Mof_O 	O 	0.87733	0.19617	0.86477	-0.193
Mof_C 	C 	0.88273	0.23567	0.09347	-0.144
Mof_H 	H 	0.88413	0.20827	0.10667	0.088
Mof_C 	C 	0.94163	0.13797	0.05777	0.064
Mof_H 	H 	0.97923	0.15577	0.05627	0.04
Mof_C 	C 	0.91633	0.16577	0.05577	-0.146
Mof_H 	H 	0.93553	0.20337	0.05667	0.091
Mof_C 	C 	0.90473	0.28547	0.10857	0.064
Mof_H 	H 	0.92293	0.29227	0.13157	0.037
Mof_C 	C 	0.87343	0.20847	0.98087	-0.138
Mof_H 	H 	0.89983	0.23887	0.99357	0.083
Mof_C 	C 	0.87723	0.20317	0.94337	0.049
Mof_H 	H 	0.90923	0.22687	0.93107	0.04
Mof_O 	O 	0.7534	0.415	0.3998	-0.183
Mof_C 	C 	0.1193	0.4076	0.4411	0.291
Mof_C 	C 	0.0908	0.4319	0.4252	-0.099
Mof_O 	O 	0.1072	0.3845	0.4714	-0.187
Mof_C 	C 	0.1069	0.4576	0.3915	0.045
Mof_H 	H 	0.1363	0.4594	0.3788	0.039
Mof_O 	O 	0.1598	0.4119	0.4235	-0.192
Mof_C 	C 	0.0333	0.4748	0.3924	0.106
Mof_C 	C 	0.0783	0.4815	0.3758	-0.131
Mof_H 	H 	0.0908	0.5019	0.3538	0.085
Mof_O 	O 	0.9855	0.456	0.1981	-0.192
Mof_C 	C 	0.0196	0.4506	0.4268	-0.132
Mof_H 	H 	0.9908	0.4492	0.44	0.083
Mof_C 	C 	0.863	0.3917	0.3911	0.059
Mof_H 	H 	0.8432	0.3541	0.3896	0.042
Mof_C 	C 	0.9161	0.417	0.3891	-0.14
Mof_H 	H 	0.9345	0.3978	0.39	0.088
Mof_C 	C 	0.0474	0.4286	0.4419	0.057
Mof_H 	H 	0.036	0.4104	0.4649	0.04
Mof_C 	C 	0.0017	0.4599	0.3142	-0.117
Mof_H 	H 	0.0057	0.4335	0.3269	0.079
Mof_C 	C 	0.9926	0.4561	0.2767	0.033
Mof_H 	H 	0.9843	0.4241	0.2644	0.045
Mof_O 	O 	0.42007	0.74833	0.73313	-0.183
Mof_C 	C 	0.78597	0.74093	0.77443	0.292
Mof_C 	C 	0.75747	0.76523	0.75853	-0.103
Mof_O 	O 	0.77387	0.71783	0.80473	-0.188
Mof_C 	C 	0.77357	0.79093	0.72483	0.049
Mof_H 	H 	0.80297	0.79273	0.71213	0.038
Mof_O 	O 	0.82647	0.74523	0.75683	-0.192
Mof_C 	C 	0.69997	0.80813	0.72573	0.112
Mof_C 	C 	0.74497	0.81483	0.70913	-0.136
Mof_H 	H 	0.75747	0.83523	0.68713	0.087
Mof_O 	O 	0.65217	0.78933	0.53143	-0.192
Mof_C 	C 	0.68627	0.78393	0.76013	-0.143
Mof_H 	H 	0.65747	0.78253	0.77333	0.088
Mof_C 	C 	0.52967	0.72503	0.72443	0.063
Mof_H 	H 	0.50987	0.68743	0.72293	0.041
Mof_C 	C 	0.58277	0.75033	0.72243	-0.144
Mof_H 	H 	0.60117	0.73113	0.72333	0.091
Mof_C 	C 	0.71407	0.76193	0.77523	0.063
Mof_H 	H 	0.70267	0.74373	0.79823	0.037
Mof_C 	C 	0.66837	0.79323	0.64753	-0.128
Mof_H 	H 	0.67237	0.76683	0.66023	0.082
Mof_C 	C 	0.65927	0.78943	0.61003	0.044
Mof_H 	H 	0.65097	0.75743	0.59773	0.043
Mof_O 	O 	0.08673	0.08167	0.06647	-0.182
Mof_C 	C 	0.45263	0.07427	0.10777	0.292
Mof_C 	C 	0.42413	0.09857	0.09187	-0.103
Mof_O 	O 	0.44053	0.05117	0.13807	-0.189
Mof_C 	C 	0.44023	0.12427	0.05817	0.05
Mof_H 	H 	0.46963	0.12607	0.04547	0.038
Mof_O 	O 	0.49313	0.07857	0.09017	-0.192
Mof_C 	C 	0.36663	0.14147	0.05907	0.114
Mof_C 	C 	0.41163	0.14817	0.04247	-0.136
Mof_H 	H 	0.42413	0.16857	0.02047	0.088
Mof_O 	O 	0.31883	0.12267	0.86477	-0.193
Mof_C 	C 	0.35293	0.11727	0.09347	-0.144
Mof_H 	H 	0.32413	0.11587	0.10667	0.089
Mof_C 	C 	0.19633	0.05837	0.05777	0.063
Mof_H 	H 	0.17653	0.02077	0.05627	0.041
Mof_C 	C 	0.24943	0.08367	0.05577	-0.145
Mof_H 	H 	0.26783	0.06447	0.05667	0.091
Mof_C 	C 	0.38073	0.09527	0.10857	0.064
Mof_H 	H 	0.36933	0.07707	0.13157	0.037
Mof_C 	C 	0.33503	0.12657	0.98087	-0.138
Mof_H 	H 	0.33903	0.10017	0.99357	0.083
Mof_C 	C 	0.32593	0.12277	0.94337	0.05
Mof_H 	H 	0.31763	0.09077	0.93107	0.04
Mof_O 	O 	0.6616	0.2466	0.3998	-0.183
Mof_C 	C 	0.2883	0.8807	0.4411	0.291
Mof_C 	C 	0.3411	0.9092	0.4252	-0.098
Mof_O 	O 	0.2773	0.8928	0.4714	-0.187
Mof_C 	C 	0.3507	0.8931	0.3915	0.045
Mof_H 	H 	0.3231	0.8637	0.3788	0.039
Mof_O 	O 	0.2521	0.8402	0.4235	-0.192
Mof_C 	C 	0.4415	0.9667	0.3924	0.106
Mof_C 	C 	0.4032	0.9217	0.3758	-0.131
Mof_H 	H 	0.4111	0.9092	0.3538	0.085
Mof_O 	O 	0.4705	0.0145	0.1981	-0.192
Mof_C 	C 	0.431	0.9804	0.4268	-0.132
Mof_H 	H 	0.4584	0.0092	0.44	0.083
Mof_C 	C 	0.5287	0.137	0.3911	0.058
Mof_H 	H 	0.5109	0.1568	0.3896	0.042
Mof_C 	C 	0.5009	0.0839	0.3891	-0.139
Mof_H 	H 	0.4633	0.0655	0.39	0.088
Mof_C 	C 	0.3812	0.9526	0.4419	0.056
Mof_H 	H 	0.3744	0.964	0.4649	0.04
Mof_C 	C 	0.4582	0.9983	0.3142	-0.116
Mof_H 	H 	0.4278	0.9943	0.3269	0.078
Mof_C 	C 	0.4635	0.0074	0.2767	0.032
Mof_H 	H 	0.4398	0.0157	0.2644	0.046
Mof_O 	O 	0.32827	0.57993	0.73313	-0.183
Mof_C 	C 	0.95497	0.21403	0.77443	0.29
Mof_C 	C 	0.00777	0.24253	0.75853	-0.101
Mof_O 	O 	0.94397	0.22613	0.80473	-0.189
Mof_C 	C 	0.01737	0.22643	0.72483	0.054
Mof_H 	H 	0.98977	0.19703	0.71213	0.034
Mof_O 	O 	0.91877	0.17353	0.75683	-0.192
Mof_C 	C 	0.10817	0.30003	0.72573	0.113
Mof_C 	C 	0.06987	0.25503	0.70913	-0.138
Mof_H 	H 	0.07777	0.24253	0.68713	0.088
Mof_O 	O 	0.13717	0.34783	0.53143	-0.192
Mof_C 	C 	0.09767	0.31373	0.76013	-0.143
Mof_H 	H 	0.12507	0.34253	0.77333	0.088
Mof_C 	C 	0.19537	0.47033	0.72443	0.063
Mof_H 	H 	0.17757	0.49013	0.72293	0.041
Mof_C 	C 	0.16757	0.41723	0.72243	-0.144
Mof_H 	H 	0.12997	0.39883	0.72333	0.091
Mof_C 	C 	0.04787	0.28593	0.77523	0.063
Mof_H 	H 	0.04107	0.29733	0.79823	0.038
Mof_C 	C 	0.12487	0.33163	0.64753	-0.128
Mof_H 	H 	0.09447	0.32763	0.66023	0.082
Mof_C 	C 	0.13017	0.34073	0.61003	0.044
Mof_H 	H 	0.10647	0.34903	0.59773	0.043
Mof_O 	O 	0.99493	0.91327	0.06647	-0.183
Mof_C 	C 	0.62163	0.54737	0.10777	0.292
Mof_C 	C 	0.67443	0.57587	0.09187	-0.103
Mof_O 	O 	0.61063	0.55947	0.13807	-0.188
Mof_C 	C 	0.68403	0.55977	0.05817	0.05
Mof_H 	H 	0.65643	0.53037	0.04547	0.038
Mof_O 	O 	0.58543	0.50687	0.09017	-0.192
Mof_C 	C 	0.77483	0.63337	0.05907	0.114
Mof_C 	C 	0.73653	0.58837	0.04247	-0.136
Mof_H 	H 	0.74443	0.57587	0.02047	0.088
Mof_O 	O 	0.80383	0.68117	0.86477	-0.193
Mof_C 	C 	0.76433	0.64707	0.09347	-0.144
Mof_H 	H 	0.79173	0.67587	0.10667	0.089
Mof_C 	C 	0.86203	0.80367	0.05777	0.063
Mof_H 	H 	0.84423	0.82347	0.05627	0.041
Mof_C 	C 	0.83423	0.75057	0.05577	-0.145
Mof_H 	H 	0.79663	0.73217	0.05667	0.091
Mof_C 	C 	0.71453	0.61927	0.10857	0.064
Mof_H 	H 	0.70773	0.63067	0.13157	0.037
Mof_C 	C 	0.79153	0.66497	0.98087	-0.138
Mof_H 	H 	0.76113	0.66097	0.99357	0.084
Mof_C 	C 	0.79683	0.67407	0.94337	0.05
Mof_H 	H 	0.77313	0.68237	0.93107	0.041
Mof_C 	C 	0.5284	0.4716	0.3859	0.11
Mof_C 	C 	0.4975	0.5025	0.3767	-0.127
Mof_C 	C 	0.581	0.419	0.395	-0.091
Mof_C 	C 	0.6117	0.3883	0.3993	0.286
Mof_C 	C 	0.4976	0.5024	0.3335	0.1
Mof_C 	C 	0.5023	0.4977	0.2566	-0.079
Mof_C 	C 	0.5032	0.4968	0.2139	0.306
Mof_C 	C 	0.19507	0.80493	0.71923	0.11
Mof_C 	C 	0.16417	0.83583	0.71003	-0.127
Mof_C 	C 	0.24767	0.75233	0.72833	-0.091
Mof_C 	C 	0.27837	0.72163	0.73263	0.286
Mof_C 	C 	0.16427	0.83573	0.66683	0.101
Mof_C 	C 	0.16897	0.83103	0.58993	-0.079
Mof_C 	C 	0.16987	0.83013	0.54723	0.306
Mof_C 	C 	0.86173	0.13827	0.05257	0.111
Mof_C 	C 	0.83083	0.16917	0.04337	-0.13
Mof_C 	C 	0.91433	0.08567	0.06167	-0.092
Mof_C 	C 	0.94503	0.05497	0.06597	0.287
Mof_C 	C 	0.83093	0.16907	0.00017	0.11
Mof_C 	C 	0.83563	0.16437	0.92327	-0.084
Mof_C 	C 	0.83653	0.16347	0.88057	0.307
Mof_C 	C 	0.5284	0.0568	0.3859	0.103
Mof_C 	C 	0.4975	0.995	0.3767	-0.118
Mof_C 	C 	0.581	0.162	0.395	-0.088
Mof_C 	C 	0.6117	0.2234	0.3993	0.285
Mof_C 	C 	0.4976	0.9952	0.3335	0.092
Mof_C 	C 	0.5023	0.0046	0.2566	-0.073
Mof_C 	C 	0.5032	0.0064	0.2139	0.303
Mof_C 	C 	0.19507	0.39013	0.71923	0.11
Mof_C 	C 	0.16417	0.32833	0.71003	-0.127
Mof_C 	C 	0.24767	0.49533	0.72833	-0.091
Mof_C 	C 	0.27837	0.55673	0.73263	0.286
Mof_C 	C 	0.16427	0.32853	0.66683	0.1
Mof_C 	C 	0.16897	0.33793	0.58993	-0.079
Mof_C 	C 	0.16987	0.33973	0.54723	0.306
Mof_C 	C 	0.86173	0.72347	0.05257	0.111
Mof_C 	C 	0.83083	0.66167	0.04337	-0.13
Mof_C 	C 	0.91433	0.82867	0.06167	-0.091
Mof_C 	C 	0.94503	0.89007	0.06597	0.286
Mof_C 	C 	0.83093	0.66187	0.00017	0.11
Mof_C 	C 	0.83563	0.67127	0.92327	-0.084
Mof_C 	C 	0.83653	0.67307	0.88057	0.307
Mof_C 	C 	0.9432	0.4716	0.3859	0.103
Mof_C 	C 	0.005	0.5025	0.3767	-0.118
Mof_C 	C 	0.838	0.419	0.395	-0.088
Mof_C 	C 	0.7766	0.3883	0.3993	0.285
Mof_C 	C 	0.0048	0.5024	0.3335	0.093
Mof_C 	C 	0.9954	0.4977	0.2566	-0.073
Mof_C 	C 	0.9936	0.4968	0.2139	0.303
Mof_C 	C 	0.60987	0.80493	0.71923	0.11
Mof_C 	C 	0.67167	0.83583	0.71003	-0.127
Mof_C 	C 	0.50467	0.75233	0.72833	-0.091
Mof_C 	C 	0.44327	0.72163	0.73263	0.286
Mof_C 	C 	0.67147	0.83573	0.66683	0.101
Mof_C 	C 	0.66207	0.83103	0.58993	-0.079
Mof_C 	C 	0.66027	0.83013	0.54723	0.306
Mof_C 	C 	0.27653	0.13827	0.05257	0.111
Mof_C 	C 	0.33833	0.16917	0.04337	-0.13
Mof_C 	C 	0.17133	0.08567	0.06167	-0.091
Mof_C 	C 	0.10993	0.05497	0.06597	0.286
Mof_C 	C 	0.33813	0.16907	0.00017	0.11
Mof_C 	C 	0.32873	0.16437	0.92327	-0.084
Mof_C 	C 	0.32693	0.16347	0.88057	0.307
Mof_U 	U 	0.19014	0.38028	0.47443	0.01
Mof_U 	U 	0.85681	0.71361	0.80776	0.01
Mof_U 	U 	0.52347	0.04695	0.1411	0.01
Mof_U 	U 	0.61972	0.80986	0.47443	0.01
Mof_U 	U 	0.28639	0.14319	0.80776	0.01
Mof_U 	U 	0.95305	0.47653	0.1411	0.01
Mof_U 	U 	0.19014	0.80986	0.47443	0.011
Mof_U 	U 	0.85681	0.14319	0.80776	0.01
Mof_U 	U 	0.52347	0.47653	0.1411	0.01
Mof_U 	U 	0.66667	0.33333	0.40149	0.009
Mof_U 	U 	0.33333	0.66667	0.73482	0.009
Mof_U 	U 	-0	0	0.06816	0.01
_end
