# CIF file generated by openbabel 3.1.0, see https://openbabel.org
data_I
_chemical_name_common 'FAWCEN_clean'
_cell_length_a 14.5933
_cell_length_b 14.5933
_cell_length_c 14.5933
_cell_angle_alpha 109.471
_cell_angle_beta 109.471
_cell_angle_gamma 109.471
_space_group_name_H-M_alt 'P 1'
_space_group_name_Hall 'P 1'
loop_
    _symmetry_equiv_pos_as_xyz
    x,y,z
loop_
    _atom_site_label
    _atom_site_type_symbol
    _atom_site_fract_x
    _atom_site_fract_y
    _atom_site_fract_z
    _atom_site_occupancy
    H1       H        0.46590    0.56770    0.33480    1.000
    C2       C        0.51880    0.57520    0.31160    1.000
    N3       N        0.55260    0.64700    0.27100    1.000
    H4       H        0.23290    0.13110    0.66520    1.000
    C5       C        0.26360    0.20720    0.68840    1.000
    N6       N        0.37600    0.28160    0.72900    1.000
    H7       H        0.76710    0.43230    0.89820    1.000
    C8       C        0.73640    0.42480    0.94360    1.000
    N9       N        0.62400    0.35300    0.90560    1.000
    H10      H        0.53410    0.86890    0.10180    1.000
    C11      C        0.48120    0.79280    0.05640    1.000
    N12      N        0.44740    0.71840    0.09440    1.000
    H13      H        0.33480    0.46590    0.56770    1.000
    C14      C        0.31160    0.51880    0.57520    1.000
    N15      N        0.27100    0.55260    0.64700    1.000
    H16      H        0.66520    0.23290    0.13110    1.000
    C17      C        0.68840    0.26360    0.20720    1.000
    N18      N        0.72900    0.37600    0.28160    1.000
    H19      H        0.89820    0.76710    0.43230    1.000
    C20      C        0.94360    0.73640    0.42480    1.000
    N21      N        0.90560    0.62400    0.35300    1.000
    H22      H        0.10180    0.53410    0.86890    1.000
    C23      C        0.05640    0.48120    0.79280    1.000
    N24      N        0.09440    0.44740    0.71840    1.000
    H25      H        0.56770    0.33480    0.46590    1.000
    C26      C        0.57520    0.31160    0.51880    1.000
    N27      N        0.64700    0.27100    0.55260    1.000
    H28      H        0.13110    0.66520    0.23290    1.000
    C29      C        0.20720    0.68840    0.26360    1.000
    N30      N        0.28160    0.72900    0.37600    1.000
    H31      H        0.43230    0.89820    0.76710    1.000
    C32      C        0.42480    0.94360    0.73640    1.000
    N33      N        0.35300    0.90560    0.62400    1.000
    H34      H        0.86890    0.10180    0.53410    1.000
    C35      C        0.79280    0.05640    0.48120    1.000
    N36      N        0.71840    0.09440    0.44740    1.000
    H37      H        0.56770    0.46590    0.33480    1.000
    C38      C        0.57520    0.51880    0.31160    1.000
    N39      N        0.64700    0.55260    0.27100    1.000
    H40      H        0.13110    0.23290    0.66520    1.000
    C41      C        0.20720    0.26360    0.68840    1.000
    N42      N        0.28160    0.37600    0.72900    1.000
    H43      H        0.43230    0.76710    0.89820    1.000
    C44      C        0.42480    0.73640    0.94360    1.000
    N45      N        0.35300    0.62400    0.90560    1.000
    H46      H        0.86890    0.53410    0.10180    1.000
    C47      C        0.79280    0.48120    0.05640    1.000
    N48      N        0.71840    0.44740    0.09440    1.000
    H49      H        0.46590    0.33480    0.56770    1.000
    C50      C        0.51880    0.31160    0.57520    1.000
    N51      N        0.55260    0.27100    0.64700    1.000
    H52      H        0.23290    0.66520    0.13110    1.000
    C53      C        0.26360    0.68840    0.20720    1.000
    N54      N        0.37600    0.72900    0.28160    1.000
    H55      H        0.76710    0.89820    0.43230    1.000
    C56      C        0.73640    0.94360    0.42480    1.000
    N57      N        0.62400    0.90560    0.35300    1.000
    H58      H        0.53410    0.10180    0.86890    1.000
    C59      C        0.48120    0.05640    0.79280    1.000
    N60      N        0.44740    0.09440    0.71840    1.000
    H61      H        0.33480    0.56770    0.46590    1.000
    C62      C        0.31160    0.57520    0.51880    1.000
    N63      N        0.27100    0.64700    0.55260    1.000
    H64      H        0.66520    0.13110    0.23290    1.000
    C65      C        0.68840    0.20720    0.26360    1.000
    N66      N        0.72900    0.28160    0.37600    1.000
    H67      H        0.89820    0.43230    0.76710    1.000
    C68      C        0.94360    0.42480    0.73640    1.000
    N69      N        0.90560    0.35300    0.62400    1.000
    H70      H        0.10180    0.86890    0.53410    1.000
    C71      C        0.05640    0.79280    0.48120    1.000
    N72      N        0.09440    0.71840    0.44740    1.000
    Zn73     Zn       0.50000    0.75000    0.25000    1.000
    Zn74     Zn       0.50000    0.25000    0.75000    1.000
    Zn75     Zn       0.25000    0.50000    0.75000    1.000
    Zn76     Zn       0.75000    0.50000    0.25000    1.000
    Zn77     Zn       0.75000    0.25000    0.50000    1.000
    Zn78     Zn       0.25000    0.75000    0.50000    1.000
    C79      C        0.62930    0.62930    0.24800    1.000
    C80      C        0.68460    0.68460    0.19700    1.000
    C81      C        0.38130    0.38130    0.75200    1.000
    C82      C        0.48760    0.48760    0.80300    1.000
    C83      C        0.61870    0.37070    0.00000    1.000
    C84      C        0.51240    0.31540    0.00000    1.000
    C85      C        0.37070    0.61870    0.00000    1.000
    C86      C        0.31540    0.51240    0.00000    1.000
    C87      C        0.24800    0.62930    0.62930    1.000
    C88      C        0.19700    0.68460    0.68460    1.000
    C89      C        0.75200    0.38130    0.38130    1.000
    C90      C        0.80300    0.48760    0.48760    1.000
    C91      C        0.00000    0.61870    0.37070    1.000
    C92      C        0.00000    0.51240    0.31540    1.000
    C93      C        0.00000    0.37070    0.61870    1.000
    C94      C        0.00000    0.31540    0.51240    1.000
    C95      C        0.62930    0.24800    0.62930    1.000
    C96      C        0.68460    0.19700    0.68460    1.000
    C97      C        0.38130    0.75200    0.38130    1.000
    C98      C        0.48760    0.80300    0.48760    1.000
    C99      C        0.37070    0.00000    0.61870    1.000
    C100     C        0.31540    0.00000    0.51240    1.000
    C101     C        0.61870    0.00000    0.37070    1.000
    C102     C        0.51240    0.00000    0.31540    1.000
    H103     H        0.66306    0.61796    0.11267    1.000
    H104     H        0.77943    0.73432    0.25534    1.000
    H105     H        0.65359    0.74380    0.18400    1.000
    H106     H        0.52409    0.47899    0.74466    1.000
    H107     H        0.55040    0.50530    0.88733    1.000
    H108     H        0.46959    0.55979    0.81600    1.000
    H109     H        0.53250    0.31239    0.08107    1.000
    H110     H        0.31239    0.53250    0.08107    1.000
    H111     H        0.23256    0.70187    0.77473    1.000
    H112     H        0.10210    0.62708    0.63671    1.000
    H113     H        0.21734    0.76713    0.68464    1.000
    H114     H        0.82518    0.47156    0.56120    1.000
    H115     H        0.74052    0.51883    0.48272    1.000
    H116     H        0.88230    0.55368    0.50015    1.000
    H117     H        0.02247    0.48183    0.37760    1.000
    H118     H        0.06442    0.52815    0.28650    1.000
    H119     H        0.07362    0.29930    0.53090    1.000
    H120     H        0.00833    0.37236    0.47435    1.000
    H121     H        0.62708    0.10210    0.63671    1.000
    H122     H        0.70187    0.23256    0.77473    1.000
    H123     H        0.76713    0.21734    0.68464    1.000
    H124     H        0.51883    0.74052    0.48272    1.000
    H125     H        0.47156    0.82518    0.56120    1.000
    H126     H        0.55368    0.88230    0.50015    1.000
    H127     H        0.29930    0.07362    0.53090    1.000
    H128     H        0.37236    0.00833    0.47435    1.000
    H129     H        0.48183    0.02247    0.37760    1.000
    H130     H        0.52815    0.06442    0.28650    1.000
    H131     H        0.91311    0.44594    0.23982    1.000
    H132     H        0.91805    0.23226    0.45068    1.000
    H133     H        0.23226    0.91805    0.45068    1.000
    H134     H        0.44594    0.91311    0.23982    1.000
    H135     H        0.45641    0.22635    0.92522    1.000
    H136     H        0.46701    0.36518    0.99371    1.000
    H137     H        0.22635    0.45641    0.92522    1.000
    H138     H        0.36518    0.46701    0.99371    1.000
