# CIF file generated by openbabel 3.1.0, see https://openbabel.org
data_I
_chemical_name_common 'image0'
_cell_length_a 7.3284
_cell_length_b 16.1379
_cell_length_c 16.3532
_cell_angle_alpha 111.241
_cell_angle_beta 92.752
_cell_angle_gamma 98.743
_space_group_name_H-M_alt 'P 1'
_space_group_name_Hall 'P 1'
loop_
    _symmetry_equiv_pos_as_xyz
    x,y,z
loop_
    _atom_site_label
    _atom_site_type_symbol
    _atom_site_fract_x
    _atom_site_fract_y
    _atom_site_fract_z
    _atom_site_occupancy
    Zn1      Zn       0.86526    0.45031    0.27160    1.000
    O1       O        0.70850    0.33190    0.31971    1.000
    O2       O        0.59050    0.41047    0.25439    1.000
    O3       O        0.91460    0.35170    0.15726    1.000
    O4       O        0.93950    0.55225    0.23108    1.000
    O5       O        0.84220    0.61347    0.36043    1.000
    O6       O        0.81130    0.20510    0.09298    1.000
    O7       O        0.30220    0.86640    0.12570    1.000
    O8       O        0.19430    0.72300    0.06920    1.000
    C1       C        0.57410    0.34840    0.28460    1.000
    C2       C        0.38210    0.29400    0.27410    1.000
    C3       C        0.24330    0.30390    0.21990    1.000
    H1       H        0.27030    0.34530    0.19270    1.000
    C4       C        0.06530    0.25410    0.20490    1.000
    C5       C        0.03190    0.19150    0.24600    1.000
    C6       C        0.84730    0.13020    0.23340    1.000
    H2       H        0.85520    0.09240    0.26680    1.000
    H3       H        0.81580    0.09300    0.17190    1.000
    H4       H        0.75330    0.16600    0.25330    1.000
    C7       C        0.33350    0.23380    0.31680    1.000
    C8       C        0.46000    0.22090    0.38490    1.000
    H5       H        0.39590    0.17620    0.40440    1.000
    H6       H        0.49630    0.27710    0.43430    1.000
    H7       H        0.56860    0.20120    0.35930    1.000
    C9       C        0.09470    0.42820    0.41740    1.000
    H8       H        0.98780    0.39000    0.41940    1.000
    C10      C        0.25010    0.43860    0.47290    1.000
    H9       H        0.24650    0.40830    0.51180    1.000
    C11      C        0.41490    0.49496    0.47116    1.000
    C12      C        0.40700    0.53820    0.41260    1.000
    H10      H        0.51180    0.57680    0.40910    1.000
    C13      C        0.24650    0.52490    0.35940    1.000
    H11      H        0.24600    0.55500    0.32050    1.000
    C14      C        0.92280    0.62080    0.29850    1.000
    C15      C        0.01280    0.71180    0.30000    1.000
    C16      C        0.05350    0.78990    0.37630    1.000
    C17      C        0.03040    0.79280    0.46840    1.000
    H12      H        0.06590    0.85390    0.50990    1.000
    H13      H        0.10780    0.75560    0.48230    1.000
    H14      H        0.90290    0.77060    0.47170    1.000
    C18      C        0.17130    0.87550    0.29590    1.000
    C19      C        0.24370    0.97060    0.30090    1.000
    H15      H        0.24600    0.01260    0.36030    1.000
    H16      H        0.16380    0.98540    0.26190    1.000
    H17      H        0.36710    0.97400    0.28360    1.000
    C20      C        0.15010    0.79840    0.21720    1.000
    C21      C        0.06660    0.71750    0.22200    1.000
    H18      H        0.04610    0.66540    0.17110    1.000
    C22      C        0.22010    0.79790    0.13310    1.000
    C23      C        0.92090    0.27140    0.14860    1.000
    N1       N        0.08930    0.47003    0.36066    1.000
    N2       N        0.16230    0.18389    0.30134    1.000
    N3       N        0.12940    0.86980    0.37230    1.000
    Zn2      Zn       0.64992    0.24052    0.01440    1.000
    C24      C        0.40450    0.09740    0.05570    1.000
    H19      H        0.51160    0.09930    0.08970    1.000
    C25      C        0.24790    0.03710    0.05310    1.000
    H20      H        0.25070    0.99950    0.08460    1.000
    C26      C        0.08560    0.03260    0.00310    1.000
    C27      C        0.09290    0.09170    0.95950    1.000
    H21      H        0.98710    0.09240    0.92610    1.000
    C28      C        0.25480    0.14940    0.96510    1.000
    H22      H        0.25550    0.18800    0.93440    1.000
    N4       N        0.41100    0.15311    0.01210    1.000
    Zn3      Zn       0.13474    0.54969    0.72840    1.000
    O9       O        0.29150    0.66810    0.68029    1.000
    O10      O        0.40950    0.58953    0.74561    1.000
    O11      O        0.08540    0.64830    0.84274    1.000
    O12      O        0.06050    0.44775    0.76892    1.000
    O13      O        0.15780    0.38653    0.63957    1.000
    O14      O        0.18870    0.79490    0.90702    1.000
    O15      O        0.69780    0.13360    0.87430    1.000
    O16      O        0.80570    0.27700    0.93080    1.000
    C29      C        0.42590    0.65160    0.71540    1.000
    C30      C        0.61790    0.70600    0.72590    1.000
    C31      C        0.75670    0.69610    0.78010    1.000
    H23      H        0.72970    0.65470    0.80730    1.000
    C32      C        0.93470    0.74590    0.79510    1.000
    C33      C        0.96810    0.80850    0.75400    1.000
    C34      C        0.15270    0.86980    0.76660    1.000
    H24      H        0.14480    0.90760    0.73320    1.000
    H25      H        0.18420    0.90700    0.82810    1.000
    H26      H        0.24670    0.83400    0.74670    1.000
    C35      C        0.66650    0.76620    0.68320    1.000
    C36      C        0.54000    0.77910    0.61510    1.000
    H27      H        0.60410    0.82380    0.59560    1.000
    H28      H        0.50370    0.72290    0.56570    1.000
    H29      H        0.43140    0.79880    0.64070    1.000
    C37      C        0.90530    0.57180    0.58260    1.000
    H30      H        0.01220    0.61000    0.58060    1.000
    C38      C        0.74990    0.56140    0.52710    1.000
    H31      H        0.75350    0.59170    0.48820    1.000
    C39      C        0.58510    0.50504    0.52884    1.000
    C40      C        0.59300    0.46180    0.58740    1.000
    H32      H        0.48820    0.42320    0.59090    1.000
    C41      C        0.75350    0.47510    0.64060    1.000
    H33      H        0.75400    0.44500    0.67950    1.000
    C42      C        0.07720    0.37920    0.70150    1.000
    C43      C        0.98720    0.28820    0.70000    1.000
    C44      C        0.94650    0.21010    0.62370    1.000
    C45      C        0.96960    0.20720    0.53160    1.000
    H34      H        0.93410    0.14610    0.49010    1.000
    H35      H        0.89220    0.24440    0.51770    1.000
    H36      H        0.09710    0.22940    0.52830    1.000
    C46      C        0.82870    0.12450    0.70410    1.000
    C47      C        0.75630    0.02940    0.69910    1.000
    H37      H        0.75400    0.98740    0.63970    1.000
    H38      H        0.83620    0.01460    0.73810    1.000
    H39      H        0.63290    0.02600    0.71640    1.000
    C48      C        0.84990    0.20160    0.78280    1.000
    C49      C        0.93340    0.28250    0.77800    1.000
    H40      H        0.95390    0.33460    0.82890    1.000
    C50      C        0.77990    0.20210    0.86690    1.000
    C51      C        0.07910    0.72860    0.85140    1.000
    N5       N        0.91070    0.52997    0.63934    1.000
    N6       N        0.83770    0.81611    0.69866    1.000
    N7       N        0.87060    0.13020    0.62770    1.000
    Zn4      Zn       0.35008    0.75948    0.98560    1.000
    C52      C        0.59550    0.90260    0.94430    1.000
    H41      H        0.48840    0.90070    0.91030    1.000
    C53      C        0.75210    0.96290    0.94690    1.000
    H42      H        0.74930    0.00050    0.91540    1.000
    C54      C        0.91440    0.96740    0.99690    1.000
    C55      C        0.90710    0.90830    0.04050    1.000
    H43      H        0.01290    0.90760    0.07390    1.000
    C56      C        0.74520    0.85060    0.03490    1.000
    H44      H        0.74450    0.81200    0.06560    1.000
    N8       N        0.58900    0.84689    0.98790    1.000
