data_functionalizedCrystal
_audit_creation_method	'EQeq! by Chris Wilmer'
_symmetry_space_group_name_H-M	'P1'
_symmetry_Int_Tables_number	1
_symmetry_cell_setting	triclinic
loop_
_symmetry_equiv_pos_as_xyz
  x,y,z
_cell_length_a	23.751
_cell_length_b	30.607
_cell_length_c	23.764
_cell_angle_alpha	90
_cell_angle_beta	90
_cell_angle_gamma	90
loop_
_atom_site_label
_atom_site_type_symbol
_atom_site_fract_x
_atom_site_fract_y
_atom_site_fract_z
_atom_site_charge
Mof_N 	N 	0.6295	0.3093	0.6931	-0.127
Mof_Cl	Cl	0.7314	0.2345	0.7137	-0.228
Mof_Cl	Cl	0.5543	0.2174	0.6991	-0.211
Mof_C 	C 	0.5959	0.3135	0.6455	0.102
Mof_C 	C 	0.6686	0.3415	0.7063	0.147
Mof_C 	C 	0.6015	0.35	0.6111	-0.147
Mof_H 	H 	0.5692	0.2915	0.6365	0.057
Mof_C 	C 	0.6741	0.378	0.6719	-0.25
Mof_H 	H 	0.6915	0.3386	0.7388	0.036
Mof_C 	C 	0.6406	0.3822	0.6243	0.142
Mof_H 	H 	0.5785	0.3529	0.5785	0.108
Mof_C 	C 	0.7144	0.4106	0.6884	0.63
Mof_H 	H 	0.6443	0.4071	0.6007	0.025
Mof_O 	O 	0.7178	0.4433	0.6559	-0.733
Mof_O 	O 	0.741	0.4081	0.735	-0.66
Mof_Cr	Cr	0.78246	0.45221	0.78013	2.165
Mof_O 	O 	0.675	0.5235	0.6531	-0.731
Mof_O 	O 	0.7191	0.4474	0.8338	-0.67
Mof_C 	C 	0.6392	0.5423	0.6841	0.66
Mof_C 	C 	0.6785	0.4728	0.8431	0.608
Mof_O 	O 	0.6719	0.5111	0.8314	-0.688
Mof_O 	O 	0.6495	0.5539	0.7335	-0.695
Mof_C 	C 	0.585	0.5534	0.659	-0.28
Mof_C 	C 	0.6335	0.4501	0.8787	-0.179
Mof_C 	C 	0.5502	0.5837	0.683	0.16
Mof_C 	C 	0.5713	0.5337	0.6087	0.163
Mof_C 	C 	0.6284	0.4019	0.8795	0.102
Mof_C 	C 	0.5989	0.4771	0.9124	0.106
Mof_H 	H 	0.5605	0.5974	0.7174	-0.01
Mof_C 	C 	0.499	0.5945	0.6567	-0.176
Mof_N 	N 	0.5234	0.5426	0.5827	-0.159
Mof_H 	H 	0.5967	0.5134	0.5924	0.014
Mof_H 	H 	0.6526	0.3841	0.8575	0.04
Mof_C 	C 	0.5877	0.3838	0.9131	-0.146
Mof_N 	N 	0.5584	0.457	0.945	-0.141
Mof_H 	H 	0.6035	0.5079	0.9127	0.03
Mof_H 	H 	0.4735	0.6154	0.6718	0.097
Mof_C 	C 	0.4886	0.5725	0.6074	0.099
Mof_H 	H 	0.5812	0.3532	0.9145	0.125
Mof_C 	C 	0.5574	0.4125	0.9441	0.099
Mof_H 	H 	0.4541	0.5786	0.5888	0.024
Mof_H 	H 	0.5312	0.3996	0.9694	0.027
Mof_Cl	Cl	0.6246	0.206	0.6674	-0.252
Mof_Cl	Cl	0.58392	0.4494	0.51642	-0.362
Mof_N 	N 	0.1295	0.8093	0.6931	-0.126
Mof_Cl	Cl	0.2314	0.7345	0.7137	-0.229
Mof_Cl	Cl	0.0543	0.7174	0.6991	-0.217
Mof_C 	C 	0.0959	0.8135	0.6455	0.101
Mof_C 	C 	0.1686	0.8415	0.7063	0.145
Mof_C 	C 	0.1015	0.85	0.6111	-0.143
Mof_H 	H 	0.0692	0.7915	0.6365	0.056
Mof_C 	C 	0.1741	0.878	0.6719	-0.244
Mof_H 	H 	0.1915	0.8386	0.7388	0.038
Mof_C 	C 	0.1406	0.8822	0.6243	0.139
Mof_H 	H 	0.0785	0.8529	0.5785	0.106
Mof_C 	C 	0.2144	0.9106	0.6884	0.623
Mof_H 	H 	0.1443	0.9071	0.6007	0.03
Mof_O 	O 	0.2178	0.9433	0.6559	-0.705
Mof_O 	O 	0.241	0.9081	0.735	-0.66
Mof_Cr	Cr	0.28246	0.95221	0.78013	2.199
Mof_O 	O 	0.175	0.0235	0.6531	-0.723
Mof_O 	O 	0.2191	0.9474	0.8338	-0.684
Mof_C 	C 	0.1392	0.0423	0.6841	0.648
Mof_C 	C 	0.1785	0.9728	0.8431	0.665
Mof_O 	O 	0.1719	0.0111	0.8314	-0.725
Mof_O 	O 	0.1495	0.0539	0.7335	-0.693
Mof_C 	C 	0.085	0.0534	0.659	-0.272
Mof_C 	C 	0.1335	0.9501	0.8787	-0.211
Mof_C 	C 	0.0502	0.0837	0.683	0.132
Mof_C 	C 	0.0713	0.0337	0.6087	0.153
Mof_C 	C 	0.1284	0.9019	0.8795	0.123
Mof_C 	C 	0.0989	0.9771	0.9124	0.175
Mof_H 	H 	0.0605	0.0974	0.7174	-0.004
Mof_C 	C 	0.999	0.0945	0.6567	-0.153
Mof_N 	N 	0.0234	0.0426	0.5827	-0.167
Mof_H 	H 	0.0967	0.0134	0.5924	0.009
Mof_H 	H 	0.1526	0.8841	0.8575	0.033
Mof_C 	C 	0.0877	0.8838	0.9131	-0.16
Mof_N 	N 	0.0584	0.957	0.945	-0.145
Mof_H 	H 	0.1035	0.0079	0.9127	-0.011
Mof_H 	H 	0.9735	0.1154	0.6718	0.092
Mof_C 	C 	0.9886	0.0725	0.6074	0.104
Mof_H 	H 	0.0812	0.8532	0.9145	0.128
Mof_C 	C 	0.0574	0.9125	0.9441	0.108
Mof_H 	H 	0.9541	0.0786	0.5888	0.025
Mof_H 	H 	0.0312	0.8996	0.9694	0.022
Mof_Cl	Cl	0.1246	0.706	0.6674	-0.253
Mof_Cl	Cl	0.08392	0.9494	0.51642	-0.344
Mof_N 	N 	0.8705	0.6907	0.6931	-0.126
Mof_Cl	Cl	0.7686	0.7655	0.7137	-0.228
Mof_Cl	Cl	0.9457	0.7826	0.6991	-0.201
Mof_C 	C 	0.9041	0.6865	0.6455	0.104
Mof_C 	C 	0.8314	0.6585	0.7063	0.148
Mof_C 	C 	0.8985	0.65	0.6111	-0.145
Mof_H 	H 	0.9308	0.7085	0.6365	0.061
Mof_C 	C 	0.8259	0.622	0.6719	-0.249
Mof_H 	H 	0.8085	0.6614	0.7388	0.037
Mof_C 	C 	0.8594	0.6178	0.6243	0.144
Mof_H 	H 	0.9215	0.6471	0.5785	0.111
Mof_C 	C 	0.7856	0.5894	0.6884	0.63
Mof_H 	H 	0.8557	0.5929	0.6007	0.026
Mof_O 	O 	0.7822	0.5567	0.6559	-0.733
Mof_O 	O 	0.759	0.5919	0.735	-0.66
Mof_Cr	Cr	0.71754	0.54779	0.78013	2.164
Mof_O 	O 	0.825	0.4765	0.6531	-0.731
Mof_O 	O 	0.7809	0.5526	0.8338	-0.67
Mof_C 	C 	0.8608	0.4577	0.6841	0.664
Mof_C 	C 	0.8215	0.5272	0.8431	0.608
Mof_O 	O 	0.8281	0.4889	0.8314	-0.687
Mof_O 	O 	0.8505	0.4461	0.7335	-0.695
Mof_C 	C 	0.915	0.4466	0.659	-0.288
Mof_C 	C 	0.8665	0.5499	0.8787	-0.179
Mof_C 	C 	0.9498	0.4163	0.683	0.186
Mof_C 	C 	0.9287	0.4663	0.6087	0.17
Mof_C 	C 	0.8716	0.5981	0.8795	0.103
Mof_C 	C 	0.9011	0.5229	0.9124	0.107
Mof_H 	H 	0.9395	0.4026	0.7174	-0.015
Mof_C 	C 	0.001	0.4055	0.6567	-0.199
Mof_N 	N 	0.9766	0.4574	0.5827	-0.151
Mof_H 	H 	0.9033	0.4866	0.5924	0.013
Mof_H 	H 	0.8474	0.6159	0.8575	0.04
Mof_C 	C 	0.9123	0.6162	0.9131	-0.144
Mof_N 	N 	0.9416	0.543	0.945	-0.137
Mof_H 	H 	0.8965	0.4921	0.9127	0.031
Mof_H 	H 	0.0265	0.3846	0.6718	0.101
Mof_C 	C 	0.0114	0.4275	0.6074	0.093
Mof_H 	H 	0.9188	0.6468	0.9145	0.126
Mof_C 	C 	0.9426	0.5875	0.9441	0.1
Mof_H 	H 	0.0459	0.4214	0.5888	0.024
Mof_H 	H 	0.9688	0.6004	0.9694	0.031
Mof_Cl	Cl	0.8754	0.794	0.6674	-0.251
Mof_Cl	Cl	0.91608	0.5506	0.51642	-0.354
Mof_N 	N 	0.3705	0.1907	0.6931	-0.126
Mof_Cl	Cl	0.2686	0.2655	0.7137	-0.229
Mof_Cl	Cl	0.4457	0.2826	0.6991	-0.209
Mof_C 	C 	0.4041	0.1865	0.6455	0.103
Mof_C 	C 	0.3314	0.1585	0.7063	0.147
Mof_C 	C 	0.3985	0.15	0.6111	-0.146
Mof_H 	H 	0.4308	0.2085	0.6365	0.058
Mof_C 	C 	0.3259	0.122	0.6719	-0.249
Mof_H 	H 	0.3085	0.1614	0.7388	0.037
Mof_C 	C 	0.3594	0.1178	0.6243	0.141
Mof_H 	H 	0.4215	0.1471	0.5785	0.108
Mof_C 	C 	0.2856	0.0894	0.6884	0.624
Mof_H 	H 	0.3557	0.0929	0.6007	0.023
Mof_O 	O 	0.2822	0.0567	0.6559	-0.724
Mof_O 	O 	0.259	0.0919	0.735	-0.659
Mof_Cr	Cr	0.21754	0.04779	0.78013	2.159
Mof_O 	O 	0.325	0.9765	0.6531	-0.701
Mof_O 	O 	0.2809	0.0526	0.8338	-0.661
Mof_C 	C 	0.3608	0.9577	0.6841	0.655
Mof_C 	C 	0.3215	0.0272	0.8431	0.556
Mof_O 	O 	0.3281	0.9889	0.8314	-0.655
Mof_O 	O 	0.3505	0.9461	0.7335	-0.693
Mof_C 	C 	0.415	0.9466	0.659	-0.272
Mof_C 	C 	0.3665	0.0499	0.8787	-0.149
Mof_C 	C 	0.4498	0.9163	0.683	0.158
Mof_C 	C 	0.4287	0.9663	0.6087	0.162
Mof_C 	C 	0.3716	0.0981	0.8795	0.082
Mof_C 	C 	0.4011	0.0229	0.9124	0.037
Mof_H 	H 	0.4395	0.9026	0.7174	-0.009
Mof_C 	C 	0.501	0.9055	0.6567	-0.173
Mof_N 	N 	0.4766	0.9574	0.5827	-0.151
Mof_H 	H 	0.4033	0.9866	0.5924	0.025
Mof_H 	H 	0.3474	0.1159	0.8575	0.046
Mof_C 	C 	0.4123	0.1162	0.9131	-0.132
Mof_N 	N 	0.4416	0.043	0.945	-0.132
Mof_H 	H 	0.3965	0.9921	0.9127	0.073
Mof_H 	H 	0.5265	0.8846	0.6718	0.096
Mof_C 	C 	0.5114	0.9275	0.6074	0.1
Mof_H 	H 	0.4188	0.1468	0.9145	0.12
Mof_C 	C 	0.4426	0.0875	0.9441	0.089
Mof_H 	H 	0.5459	0.9214	0.5888	0.025
Mof_H 	H 	0.4688	0.1004	0.9694	0.03
Mof_Cl	Cl	0.3754	0.294	0.6674	-0.252
Mof_Cl	Cl	0.41608	0.0506	0.51642	-0.372
Mof_N 	N 	0.3705	0.3093	0.8069	-0.126
Mof_Cl	Cl	0.2686	0.2345	0.7863	-0.228
Mof_Cl	Cl	0.4457	0.2174	0.8009	-0.209
Mof_C 	C 	0.4041	0.3135	0.8545	0.104
Mof_C 	C 	0.3314	0.3415	0.7937	0.148
Mof_C 	C 	0.3985	0.35	0.8889	-0.146
Mof_H 	H 	0.4308	0.2915	0.8635	0.059
Mof_C 	C 	0.3259	0.378	0.8281	-0.249
Mof_H 	H 	0.3085	0.3386	0.7612	0.037
Mof_C 	C 	0.3594	0.3822	0.8757	0.144
Mof_H 	H 	0.4215	0.3529	0.9215	0.111
Mof_C 	C 	0.2856	0.4106	0.8116	0.63
Mof_H 	H 	0.3557	0.4071	0.8993	0.026
Mof_O 	O 	0.2822	0.4433	0.8441	-0.732
Mof_O 	O 	0.259	0.4081	0.765	-0.66
Mof_Cr	Cr	0.21754	0.45221	0.71987	2.161
Mof_O 	O 	0.325	0.5235	0.8469	-0.73
Mof_O 	O 	0.2809	0.4474	0.6662	-0.671
Mof_C 	C 	0.3608	0.5423	0.8159	0.66
Mof_C 	C 	0.3215	0.4728	0.6569	0.608
Mof_O 	O 	0.3281	0.5111	0.6686	-0.688
Mof_O 	O 	0.3505	0.5539	0.7665	-0.695
Mof_C 	C 	0.415	0.5534	0.841	-0.279
Mof_C 	C 	0.3665	0.4501	0.6213	-0.181
Mof_C 	C 	0.4498	0.5837	0.817	0.16
Mof_C 	C 	0.4287	0.5337	0.8913	0.164
Mof_C 	C 	0.3716	0.4019	0.6205	0.102
Mof_C 	C 	0.4011	0.4771	0.5876	0.104
Mof_H 	H 	0.4395	0.5974	0.7826	-0.01
Mof_C 	C 	0.501	0.5945	0.8433	-0.174
Mof_N 	N 	0.4766	0.5426	0.9173	-0.155
Mof_H 	H 	0.4033	0.5134	0.9076	0.016
Mof_H 	H 	0.3474	0.3841	0.6425	0.039
Mof_C 	C 	0.4123	0.3838	0.5869	-0.147
Mof_N 	N 	0.4416	0.457	0.555	-0.146
Mof_H 	H 	0.3965	0.5079	0.5873	0.027
Mof_H 	H 	0.5265	0.6154	0.8282	0.097
Mof_C 	C 	0.5114	0.5725	0.8926	0.1
Mof_H 	H 	0.4188	0.3532	0.5855	0.124
Mof_C 	C 	0.4426	0.4125	0.5559	0.098
Mof_H 	H 	0.5459	0.5786	0.9112	0.029
Mof_H 	H 	0.4688	0.3996	0.5306	0.023
Mof_Cl	Cl	0.3754	0.206	0.8326	-0.251
Mof_Cl	Cl	0.41608	0.4494	0.98358	-0.347
Mof_N 	N 	0.8705	0.8093	0.8069	-0.125
Mof_Cl	Cl	0.7686	0.7345	0.7863	-0.227
Mof_Cl	Cl	0.9457	0.7174	0.8009	-0.202
Mof_C 	C 	0.9041	0.8135	0.8545	0.105
Mof_C 	C 	0.8314	0.8415	0.7937	0.147
Mof_C 	C 	0.8985	0.85	0.8889	-0.142
Mof_H 	H 	0.9308	0.7915	0.8635	0.062
Mof_C 	C 	0.8259	0.878	0.8281	-0.243
Mof_H 	H 	0.8085	0.8386	0.7612	0.037
Mof_C 	C 	0.8594	0.8822	0.8757	0.142
Mof_H 	H 	0.9215	0.8529	0.9215	0.113
Mof_C 	C 	0.7856	0.9106	0.8116	0.625
Mof_H 	H 	0.8557	0.9071	0.8993	0.031
Mof_O 	O 	0.7822	0.9433	0.8441	-0.704
Mof_O 	O 	0.759	0.9081	0.765	-0.659
Mof_Cr	Cr	0.71754	0.95221	0.71987	2.198
Mof_O 	O 	0.825	0.0235	0.8469	-0.724
Mof_O 	O 	0.7809	0.9474	0.6662	-0.685
Mof_C 	C 	0.8608	0.0423	0.8159	0.657
Mof_C 	C 	0.8215	0.9728	0.6569	0.665
Mof_O 	O 	0.8281	0.0111	0.6686	-0.725
Mof_O 	O 	0.8505	0.0539	0.7665	-0.694
Mof_C 	C 	0.915	0.0534	0.841	-0.288
Mof_C 	C 	0.8665	0.9501	0.6213	-0.211
Mof_C 	C 	0.9498	0.0837	0.817	0.185
Mof_C 	C 	0.9287	0.0337	0.8913	0.169
Mof_C 	C 	0.8716	0.9019	0.6205	0.123
Mof_C 	C 	0.9011	0.9771	0.5876	0.176
Mof_H 	H 	0.9395	0.0974	0.7826	-0.015
Mof_C 	C 	0.001	0.0945	0.8433	-0.197
Mof_N 	N 	0.9766	0.0426	0.9173	-0.148
Mof_H 	H 	0.9033	0.0134	0.9076	0.008
Mof_H 	H 	0.8474	0.8841	0.6425	0.033
Mof_C 	C 	0.9123	0.8838	0.5869	-0.159
Mof_N 	N 	0.9416	0.957	0.555	-0.145
Mof_H 	H 	0.8965	0.0079	0.5873	-0.014
Mof_H 	H 	0.0265	0.1154	0.8282	0.101
Mof_C 	C 	0.0114	0.0725	0.8926	0.091
Mof_H 	H 	0.9188	0.8532	0.5855	0.13
Mof_C 	C 	0.9426	0.9125	0.5559	0.109
Mof_H 	H 	0.0459	0.0786	0.9112	0.03
Mof_H 	H 	0.9688	0.8996	0.5306	0.026
Mof_Cl	Cl	0.8754	0.706	0.8326	-0.25
Mof_Cl	Cl	0.91608	0.9494	0.98358	-0.319
Mof_N 	N 	0.1295	0.6907	0.8069	-0.126
Mof_Cl	Cl	0.2314	0.7655	0.7863	-0.227
Mof_Cl	Cl	0.0543	0.7826	0.8009	-0.216
Mof_C 	C 	0.0959	0.6865	0.8545	0.103
Mof_C 	C 	0.1686	0.6585	0.7937	0.147
Mof_C 	C 	0.1015	0.65	0.8889	-0.146
Mof_H 	H 	0.0692	0.7085	0.8635	0.057
Mof_C 	C 	0.1741	0.622	0.8281	-0.249
Mof_H 	H 	0.1915	0.6614	0.7612	0.037
Mof_C 	C 	0.1406	0.6178	0.8757	0.143
Mof_H 	H 	0.0785	0.6471	0.9215	0.108
Mof_C 	C 	0.2144	0.5894	0.8116	0.63
Mof_H 	H 	0.1443	0.5929	0.8993	0.026
Mof_O 	O 	0.2178	0.5567	0.8441	-0.733
Mof_O 	O 	0.241	0.5919	0.765	-0.66
Mof_Cr	Cr	0.28246	0.54779	0.71987	2.162
Mof_O 	O 	0.175	0.4765	0.8469	-0.729
Mof_O 	O 	0.2191	0.5526	0.6662	-0.671
Mof_C 	C 	0.1392	0.4577	0.8159	0.656
Mof_C 	C 	0.1785	0.5272	0.6569	0.607
Mof_O 	O 	0.1719	0.4889	0.6686	-0.689
Mof_O 	O 	0.1495	0.4461	0.7665	-0.694
Mof_C 	C 	0.085	0.4466	0.841	-0.27
Mof_C 	C 	0.1335	0.5499	0.6213	-0.181
Mof_C 	C 	0.0502	0.4163	0.817	0.135
Mof_C 	C 	0.0713	0.4663	0.8913	0.157
Mof_C 	C 	0.1284	0.5981	0.6205	0.101
Mof_C 	C 	0.0989	0.5229	0.5876	0.103
Mof_H 	H 	0.0605	0.4026	0.7826	-0.004
Mof_C 	C 	0.999	0.4055	0.8433	-0.152
Mof_N 	N 	0.0234	0.4574	0.9173	-0.16
Mof_H 	H 	0.0967	0.4866	0.9076	0.018
Mof_H 	H 	0.1526	0.6159	0.6425	0.038
Mof_C 	C 	0.0877	0.6162	0.5869	-0.148
Mof_N 	N 	0.0584	0.543	0.555	-0.147
Mof_H 	H 	0.1035	0.4921	0.5873	0.026
Mof_H 	H 	0.9735	0.3846	0.8282	0.093
Mof_C 	C 	0.9886	0.4275	0.8926	0.107
Mof_H 	H 	0.0812	0.6468	0.5855	0.122
Mof_C 	C 	0.0574	0.5875	0.5559	0.097
Mof_H 	H 	0.9541	0.4214	0.9112	0.029
Mof_H 	H 	0.0312	0.6004	0.5306	0.019
Mof_Cl	Cl	0.1246	0.794	0.8326	-0.251
Mof_Cl	Cl	0.08392	0.5506	0.98358	-0.35
Mof_N 	N 	0.6295	0.1907	0.8069	-0.126
Mof_Cl	Cl	0.7314	0.2655	0.7863	-0.225
Mof_Cl	Cl	0.5543	0.2826	0.8009	-0.209
Mof_C 	C 	0.5959	0.1865	0.8545	0.104
Mof_C 	C 	0.6686	0.1585	0.7937	0.147
Mof_C 	C 	0.6015	0.15	0.8889	-0.146
Mof_H 	H 	0.5692	0.2085	0.8635	0.059
Mof_C 	C 	0.6741	0.122	0.8281	-0.249
Mof_H 	H 	0.6915	0.1614	0.7612	0.037
Mof_C 	C 	0.6406	0.1178	0.8757	0.142
Mof_H 	H 	0.5785	0.1471	0.9215	0.11
Mof_C 	C 	0.7144	0.0894	0.8116	0.625
Mof_H 	H 	0.6443	0.0929	0.8993	0.024
Mof_O 	O 	0.7178	0.0567	0.8441	-0.724
Mof_O 	O 	0.741	0.0919	0.765	-0.658
Mof_Cr	Cr	0.78246	0.04779	0.71987	2.16
Mof_O 	O 	0.675	0.9765	0.8469	-0.701
Mof_O 	O 	0.7191	0.0526	0.6662	-0.662
Mof_C 	C 	0.6392	0.9577	0.8159	0.656
Mof_C 	C 	0.6785	0.0272	0.6569	0.555
Mof_O 	O 	0.6719	0.9889	0.6686	-0.656
Mof_O 	O 	0.6495	0.9461	0.7665	-0.694
Mof_C 	C 	0.585	0.9466	0.841	-0.272
Mof_C 	C 	0.6335	0.0499	0.6213	-0.15
Mof_C 	C 	0.5502	0.9163	0.817	0.159
Mof_C 	C 	0.5713	0.9663	0.8913	0.163
Mof_C 	C 	0.6284	0.0981	0.6205	0.081
Mof_C 	C 	0.5989	0.0229	0.5876	0.034
Mof_H 	H 	0.5605	0.9026	0.7826	-0.009
Mof_C 	C 	0.499	0.9055	0.8433	-0.172
Mof_N 	N 	0.5234	0.9574	0.9173	-0.146
Mof_H 	H 	0.5967	0.9866	0.9076	0.027
Mof_H 	H 	0.6526	0.1159	0.6425	0.045
Mof_C 	C 	0.5877	0.1162	0.5869	-0.133
Mof_N 	N 	0.5584	0.043	0.555	-0.137
Mof_H 	H 	0.6035	0.9921	0.5873	0.07
Mof_H 	H 	0.4735	0.8846	0.8282	0.097
Mof_C 	C 	0.4886	0.9275	0.8926	0.101
Mof_H 	H 	0.5812	0.1468	0.5855	0.119
Mof_C 	C 	0.5574	0.0875	0.5559	0.088
Mof_H 	H 	0.4541	0.9214	0.9112	0.03
Mof_H 	H 	0.5312	0.1004	0.5306	0.026
Mof_Cl	Cl	0.6246	0.294	0.8326	-0.25
Mof_Cl	Cl	0.58392	0.0506	0.98358	-0.357
Mof_N 	N 	0.3705	0.6907	0.3069	-0.126
Mof_Cl	Cl	0.2686	0.7655	0.2863	-0.23
Mof_Cl	Cl	0.4457	0.7826	0.3009	-0.208
Mof_C 	C 	0.4041	0.6865	0.3545	0.103
Mof_C 	C 	0.3314	0.6585	0.2937	0.148
Mof_C 	C 	0.3985	0.65	0.3889	-0.146
Mof_H 	H 	0.4308	0.7085	0.3635	0.058
Mof_C 	C 	0.3259	0.622	0.3281	-0.25
Mof_H 	H 	0.3085	0.6614	0.2612	0.036
Mof_C 	C 	0.3594	0.6178	0.3757	0.143
Mof_H 	H 	0.4215	0.6471	0.4215	0.109
Mof_C 	C 	0.2856	0.5894	0.3116	0.629
Mof_H 	H 	0.3557	0.5929	0.3993	0.025
Mof_O 	O 	0.2822	0.5567	0.3441	-0.733
Mof_O 	O 	0.259	0.5919	0.265	-0.661
Mof_Cr	Cr	0.21754	0.54779	0.21987	2.158
Mof_O 	O 	0.325	0.4765	0.3469	-0.73
Mof_O 	O 	0.2809	0.5526	0.1662	-0.672
Mof_C 	C 	0.3608	0.4577	0.3159	0.66
Mof_C 	C 	0.3215	0.5272	0.1569	0.607
Mof_O 	O 	0.3281	0.4889	0.1686	-0.689
Mof_O 	O 	0.3505	0.4461	0.2665	-0.695
Mof_C 	C 	0.415	0.4466	0.341	-0.28
Mof_C 	C 	0.3665	0.5499	0.1213	-0.182
Mof_C 	C 	0.4498	0.4163	0.317	0.16
Mof_C 	C 	0.4287	0.4663	0.3913	0.163
Mof_C 	C 	0.3716	0.5981	0.1205	0.101
Mof_C 	C 	0.4011	0.5229	0.0876	0.103
Mof_H 	H 	0.4395	0.4026	0.2826	-0.011
Mof_C 	C 	0.501	0.4055	0.3433	-0.176
Mof_N 	N 	0.4766	0.4574	0.4173	-0.159
Mof_H 	H 	0.4033	0.4866	0.4076	0.014
Mof_H 	H 	0.3474	0.6159	0.1425	0.038
Mof_C 	C 	0.4123	0.6162	0.0869	-0.149
Mof_N 	N 	0.4416	0.543	0.055	-0.148
Mof_H 	H 	0.3965	0.4921	0.0873	0.024
Mof_H 	H 	0.5265	0.3846	0.3282	0.096
Mof_C 	C 	0.5114	0.4275	0.3926	0.099
Mof_H 	H 	0.4188	0.6468	0.0855	0.122
Mof_C 	C 	0.4426	0.5875	0.0559	0.097
Mof_H 	H 	0.5459	0.4214	0.4112	0.024
Mof_H 	H 	0.4688	0.6004	0.0306	0.02
Mof_Cl	Cl	0.3754	0.794	0.3326	-0.252
Mof_Cl	Cl	0.41608	0.5506	0.48358	-0.362
Mof_N 	N 	0.8705	0.1907	0.3069	-0.126
Mof_Cl	Cl	0.7686	0.2655	0.2863	-0.229
Mof_Cl	Cl	0.9457	0.2826	0.3009	-0.201
Mof_C 	C 	0.9041	0.1865	0.3545	0.104
Mof_C 	C 	0.8314	0.1585	0.2937	0.148
Mof_C 	C 	0.8985	0.15	0.3889	-0.146
Mof_H 	H 	0.9308	0.2085	0.3635	0.061
Mof_C 	C 	0.8259	0.122	0.3281	-0.249
Mof_H 	H 	0.8085	0.1614	0.2612	0.036
Mof_C 	C 	0.8594	0.1178	0.3757	0.143
Mof_H 	H 	0.9215	0.1471	0.4215	0.111
Mof_C 	C 	0.7856	0.0894	0.3116	0.625
Mof_H 	H 	0.8557	0.0929	0.3993	0.023
Mof_O 	O 	0.7822	0.0567	0.3441	-0.724
Mof_O 	O 	0.759	0.0919	0.265	-0.659
Mof_Cr	Cr	0.71754	0.04779	0.21987	2.156
Mof_O 	O 	0.825	0.9765	0.3469	-0.702
Mof_O 	O 	0.7809	0.0526	0.1662	-0.663
Mof_C 	C 	0.8608	0.9577	0.3159	0.66
Mof_C 	C 	0.8215	0.0272	0.1569	0.555
Mof_O 	O 	0.8281	0.9889	0.1686	-0.656
Mof_O 	O 	0.8505	0.9461	0.2665	-0.694
Mof_C 	C 	0.915	0.9466	0.341	-0.281
Mof_C 	C 	0.8665	0.0499	0.1213	-0.151
Mof_C 	C 	0.9498	0.9163	0.317	0.185
Mof_C 	C 	0.9287	0.9663	0.3913	0.17
Mof_C 	C 	0.8716	0.0981	0.1205	0.081
Mof_C 	C 	0.9011	0.0229	0.0876	0.036
Mof_H 	H 	0.9395	0.9026	0.2826	-0.015
Mof_C 	C 	0.001	0.9055	0.3433	-0.196
Mof_N 	N 	0.9766	0.9574	0.4173	-0.143
Mof_H 	H 	0.9033	0.9866	0.4076	0.024
Mof_H 	H 	0.8474	0.1159	0.1425	0.044
Mof_C 	C 	0.9123	0.1162	0.0869	-0.133
Mof_N 	N 	0.9416	0.043	0.055	-0.134
Mof_H 	H 	0.8965	0.9921	0.0873	0.068
Mof_H 	H 	0.0265	0.8846	0.3282	0.099
Mof_C 	C 	0.0114	0.9275	0.3926	0.094
Mof_H 	H 	0.9188	0.1468	0.0855	0.119
Mof_C 	C 	0.9426	0.0875	0.0559	0.088
Mof_H 	H 	0.0459	0.9214	0.4112	0.025
Mof_H 	H 	0.9688	0.1004	0.0306	0.028
Mof_Cl	Cl	0.8754	0.294	0.3326	-0.252
Mof_Cl	Cl	0.91608	0.0506	0.48358	-0.364
Mof_N 	N 	0.1295	0.3093	0.3069	-0.126
Mof_Cl	Cl	0.2314	0.2345	0.2863	-0.229
Mof_Cl	Cl	0.0543	0.2174	0.3009	-0.218
Mof_C 	C 	0.0959	0.3135	0.3545	0.102
Mof_C 	C 	0.1686	0.3415	0.2937	0.147
Mof_C 	C 	0.1015	0.35	0.3889	-0.146
Mof_H 	H 	0.0692	0.2915	0.3635	0.056
Mof_C 	C 	0.1741	0.378	0.3281	-0.25
Mof_H 	H 	0.1915	0.3386	0.2612	0.036
Mof_C 	C 	0.1406	0.3822	0.3757	0.142
Mof_H 	H 	0.0785	0.3529	0.4215	0.106
Mof_C 	C 	0.2144	0.4106	0.3116	0.629
Mof_H 	H 	0.1443	0.4071	0.3993	0.025
Mof_O 	O 	0.2178	0.4433	0.3441	-0.733
Mof_O 	O 	0.241	0.4081	0.265	-0.661
Mof_Cr	Cr	0.28246	0.45221	0.21987	2.159
Mof_O 	O 	0.175	0.5235	0.3469	-0.73
Mof_O 	O 	0.2191	0.4474	0.1662	-0.672
Mof_C 	C 	0.1392	0.5423	0.3159	0.655
Mof_C 	C 	0.1785	0.4728	0.1569	0.607
Mof_O 	O 	0.1719	0.5111	0.1686	-0.69
Mof_O 	O 	0.1495	0.5539	0.2665	-0.695
Mof_C 	C 	0.085	0.5534	0.341	-0.271
Mof_C 	C 	0.1335	0.4501	0.1213	-0.182
Mof_C 	C 	0.0502	0.5837	0.317	0.134
Mof_C 	C 	0.0713	0.5337	0.3913	0.156
Mof_C 	C 	0.1284	0.4019	0.1205	0.1
Mof_C 	C 	0.0989	0.4771	0.0876	0.102
Mof_H 	H 	0.0605	0.5974	0.2826	-0.005
Mof_C 	C 	0.999	0.5945	0.3433	-0.153
Mof_N 	N 	0.0234	0.5426	0.4173	-0.165
Mof_H 	H 	0.0967	0.5134	0.4076	0.016
Mof_H 	H 	0.1526	0.3841	0.1425	0.038
Mof_C 	C 	0.0877	0.3838	0.0869	-0.15
Mof_N 	N 	0.0584	0.457	0.055	-0.149
Mof_H 	H 	0.1035	0.5079	0.0873	0.024
Mof_H 	H 	0.9735	0.6154	0.3282	0.092
Mof_C 	C 	0.9886	0.5725	0.3926	0.106
Mof_H 	H 	0.0812	0.3532	0.0855	0.12
Mof_C 	C 	0.0574	0.4125	0.0559	0.096
Mof_H 	H 	0.9541	0.5786	0.4112	0.025
Mof_H 	H 	0.0312	0.3996	0.0306	0.016
Mof_Cl	Cl	0.1246	0.206	0.3326	-0.253
Mof_Cl	Cl	0.08392	0.4494	0.48358	-0.365
Mof_N 	N 	0.6295	0.8093	0.3069	-0.126
Mof_Cl	Cl	0.7314	0.7345	0.2863	-0.228
Mof_Cl	Cl	0.5543	0.7174	0.3009	-0.209
Mof_C 	C 	0.5959	0.8135	0.3545	0.103
Mof_C 	C 	0.6686	0.8415	0.2937	0.146
Mof_C 	C 	0.6015	0.85	0.3889	-0.143
Mof_H 	H 	0.5692	0.7915	0.3635	0.059
Mof_C 	C 	0.6741	0.878	0.3281	-0.244
Mof_H 	H 	0.6915	0.8386	0.2612	0.037
Mof_C 	C 	0.6406	0.8822	0.3757	0.14
Mof_H 	H 	0.5785	0.8529	0.4215	0.108
Mof_C 	C 	0.7144	0.9106	0.3116	0.624
Mof_H 	H 	0.6443	0.9071	0.3993	0.03
Mof_O 	O 	0.7178	0.9433	0.3441	-0.705
Mof_O 	O 	0.741	0.9081	0.265	-0.66
Mof_Cr	Cr	0.78246	0.95221	0.21987	2.197
Mof_O 	O 	0.675	0.0235	0.3469	-0.724
Mof_O 	O 	0.7191	0.9474	0.1662	-0.686
Mof_C 	C 	0.6392	0.0423	0.3159	0.653
Mof_C 	C 	0.6785	0.9728	0.1569	0.665
Mof_O 	O 	0.6719	0.0111	0.1686	-0.726
Mof_O 	O 	0.6495	0.0539	0.2665	-0.694
Mof_C 	C 	0.585	0.0534	0.341	-0.281
Mof_C 	C 	0.6335	0.9501	0.1213	-0.214
Mof_C 	C 	0.5502	0.0837	0.317	0.158
Mof_C 	C 	0.5713	0.0337	0.3913	0.161
Mof_C 	C 	0.6284	0.9019	0.1205	0.122
Mof_C 	C 	0.5989	0.9771	0.0876	0.174
Mof_H 	H 	0.5605	0.0974	0.2826	-0.011
Mof_C 	C 	0.499	0.0945	0.3433	-0.176
Mof_N 	N 	0.5234	0.0426	0.4173	-0.161
Mof_H 	H 	0.5967	0.0134	0.4076	0.007
Mof_H 	H 	0.6526	0.8841	0.1425	0.032
Mof_C 	C 	0.5877	0.8838	0.0869	-0.162
Mof_N 	N 	0.5584	0.957	0.055	-0.15
Mof_H 	H 	0.6035	0.0079	0.0873	-0.018
Mof_H 	H 	0.4735	0.1154	0.3282	0.096
Mof_C 	C 	0.4886	0.0725	0.3926	0.097
Mof_H 	H 	0.5812	0.8532	0.0855	0.127
Mof_C 	C 	0.5574	0.9125	0.0559	0.107
Mof_H 	H 	0.4541	0.0786	0.4112	0.025
Mof_H 	H 	0.5312	0.8996	0.0306	0.019
Mof_Cl	Cl	0.6246	0.706	0.3326	-0.252
Mof_Cl	Cl	0.58392	0.9494	0.48358	-0.34
Mof_N 	N 	0.6295	0.6907	0.1931	-0.126
Mof_Cl	Cl	0.7314	0.7655	0.2137	-0.23
Mof_Cl	Cl	0.5543	0.7826	0.1991	-0.209
Mof_C 	C 	0.5959	0.6865	0.1455	0.102
Mof_C 	C 	0.6686	0.6585	0.2063	0.147
Mof_C 	C 	0.6015	0.65	0.1111	-0.146
Mof_H 	H 	0.5692	0.7085	0.1365	0.057
Mof_C 	C 	0.6741	0.622	0.1719	-0.25
Mof_H 	H 	0.6915	0.6614	0.2388	0.037
Mof_C 	C 	0.6406	0.6178	0.1243	0.142
Mof_H 	H 	0.5785	0.6471	0.0785	0.107
Mof_C 	C 	0.7144	0.5894	0.1884	0.629
Mof_H 	H 	0.6443	0.5929	0.1007	0.024
Mof_O 	O 	0.7178	0.5567	0.1559	-0.734
Mof_O 	O 	0.741	0.5919	0.235	-0.661
Mof_Cr	Cr	0.78246	0.54779	0.28013	2.163
Mof_O 	O 	0.675	0.4765	0.1531	-0.732
Mof_O 	O 	0.7191	0.5526	0.3338	-0.671
Mof_C 	C 	0.6392	0.4577	0.1841	0.66
Mof_C 	C 	0.6785	0.5272	0.3431	0.608
Mof_O 	O 	0.6719	0.4889	0.3314	-0.688
Mof_O 	O 	0.6495	0.4461	0.2335	-0.695
Mof_C 	C 	0.585	0.4466	0.159	-0.28
Mof_C 	C 	0.6335	0.5499	0.3787	-0.181
Mof_C 	C 	0.5502	0.4163	0.183	0.16
Mof_C 	C 	0.5713	0.4663	0.1087	0.162
Mof_C 	C 	0.6284	0.5981	0.3795	0.102
Mof_C 	C 	0.5989	0.5229	0.4124	0.104
Mof_H 	H 	0.5605	0.4026	0.2174	-0.011
Mof_C 	C 	0.499	0.4055	0.1567	-0.177
Mof_N 	N 	0.5234	0.4574	0.0827	-0.161
Mof_H 	H 	0.5967	0.4866	0.0924	0.013
Mof_H 	H 	0.6526	0.6159	0.3575	0.039
Mof_C 	C 	0.5877	0.6162	0.4131	-0.147
Mof_N 	N 	0.5584	0.543	0.445	-0.146
Mof_H 	H 	0.6035	0.4921	0.4127	0.027
Mof_H 	H 	0.4735	0.3846	0.1718	0.095
Mof_C 	C 	0.4886	0.4275	0.1074	0.099
Mof_H 	H 	0.5812	0.6468	0.4145	0.124
Mof_C 	C 	0.5574	0.5875	0.4441	0.098
Mof_H 	H 	0.4541	0.4214	0.0888	0.02
Mof_H 	H 	0.5312	0.6004	0.4694	0.023
Mof_Cl	Cl	0.6246	0.794	0.1674	-0.254
Mof_Cl	Cl	0.58392	0.5506	0.01642	-0.371
Mof_N 	N 	0.1295	0.1907	0.1931	-0.127
Mof_Cl	Cl	0.2314	0.2655	0.2137	-0.231
Mof_Cl	Cl	0.0543	0.2826	0.1991	-0.217
Mof_C 	C 	0.0959	0.1865	0.1455	0.101
Mof_C 	C 	0.1686	0.1585	0.2063	0.146
Mof_C 	C 	0.1015	0.15	0.1111	-0.147
Mof_H 	H 	0.0692	0.2085	0.1365	0.055
Mof_C 	C 	0.1741	0.122	0.1719	-0.25
Mof_H 	H 	0.1915	0.1614	0.2388	0.037
Mof_C 	C 	0.1406	0.1178	0.1243	0.139
Mof_H 	H 	0.0785	0.1471	0.0785	0.104
Mof_C 	C 	0.2144	0.0894	0.1884	0.624
Mof_H 	H 	0.1443	0.0929	0.1007	0.022
Mof_O 	O 	0.2178	0.0567	0.1559	-0.725
Mof_O 	O 	0.241	0.0919	0.235	-0.659
Mof_Cr	Cr	0.28246	0.04779	0.28013	2.158
Mof_O 	O 	0.175	0.9765	0.1531	-0.701
Mof_O 	O 	0.2191	0.0526	0.3338	-0.662
Mof_C 	C 	0.1392	0.9577	0.1841	0.651
Mof_C 	C 	0.1785	0.0272	0.3431	0.555
Mof_O 	O 	0.1719	0.9889	0.3314	-0.656
Mof_O 	O 	0.1495	0.9461	0.2335	-0.693
Mof_C 	C 	0.085	0.9466	0.159	-0.264
Mof_C 	C 	0.1335	0.0499	0.3787	-0.15
Mof_C 	C 	0.0502	0.9163	0.183	0.132
Mof_C 	C 	0.0713	0.9663	0.1087	0.154
Mof_C 	C 	0.1284	0.0981	0.3795	0.08
Mof_C 	C 	0.0989	0.0229	0.4124	0.033
Mof_H 	H 	0.0605	0.9026	0.2174	-0.004
Mof_C 	C 	0.999	0.9055	0.1567	-0.152
Mof_N 	N 	0.0234	0.9574	0.0827	-0.158
Mof_H 	H 	0.0967	0.9866	0.0924	0.026
Mof_H 	H 	0.1526	0.1159	0.3575	0.045
Mof_C 	C 	0.0877	0.1162	0.4131	-0.134
Mof_N 	N 	0.0584	0.043	0.445	-0.138
Mof_H 	H 	0.1035	0.9921	0.4127	0.07
Mof_H 	H 	0.9735	0.8846	0.1718	0.09
Mof_C 	C 	0.9886	0.9275	0.1074	0.106
Mof_H 	H 	0.0812	0.1468	0.4145	0.117
Mof_C 	C 	0.0574	0.0875	0.4441	0.087
Mof_H 	H 	0.9541	0.9214	0.0888	0.022
Mof_H 	H 	0.0312	0.1004	0.4694	0.022
Mof_Cl	Cl	0.1246	0.294	0.1674	-0.255
Mof_Cl	Cl	0.08392	0.0506	0.01642	-0.385
Mof_N 	N 	0.8705	0.3093	0.1931	-0.126
Mof_Cl	Cl	0.7686	0.2345	0.2137	-0.231
Mof_Cl	Cl	0.9457	0.2174	0.1991	-0.202
Mof_C 	C 	0.9041	0.3135	0.1455	0.104
Mof_C 	C 	0.8314	0.3415	0.2063	0.148
Mof_C 	C 	0.8985	0.35	0.1111	-0.146
Mof_H 	H 	0.9308	0.2915	0.1365	0.06
Mof_C 	C 	0.8259	0.378	0.1719	-0.25
Mof_H 	H 	0.8085	0.3386	0.2388	0.036
Mof_C 	C 	0.8594	0.3822	0.1243	0.143
Mof_H 	H 	0.9215	0.3529	0.0785	0.11
Mof_C 	C 	0.7856	0.4106	0.1884	0.63
Mof_H 	H 	0.8557	0.4071	0.1007	0.025
Mof_O 	O 	0.7822	0.4433	0.1559	-0.734
Mof_O 	O 	0.759	0.4081	0.235	-0.661
Mof_Cr	Cr	0.71754	0.45221	0.28013	2.162
Mof_O 	O 	0.825	0.5235	0.1531	-0.732
Mof_O 	O 	0.7809	0.4474	0.3338	-0.671
Mof_C 	C 	0.8608	0.5423	0.1841	0.664
Mof_C 	C 	0.8215	0.4728	0.3431	0.608
Mof_O 	O 	0.8281	0.5111	0.3314	-0.688
Mof_O 	O 	0.8505	0.5539	0.2335	-0.695
Mof_C 	C 	0.915	0.5534	0.159	-0.289
Mof_C 	C 	0.8665	0.4501	0.3787	-0.18
Mof_C 	C 	0.9498	0.5837	0.183	0.186
Mof_C 	C 	0.9287	0.5337	0.1087	0.169
Mof_C 	C 	0.8716	0.4019	0.3795	0.102
Mof_C 	C 	0.9011	0.4771	0.4124	0.106
Mof_H 	H 	0.9395	0.5974	0.2174	-0.016
Mof_C 	C 	0.001	0.5945	0.1567	-0.2
Mof_N 	N 	0.9766	0.5426	0.0827	-0.153
Mof_H 	H 	0.9033	0.5134	0.0924	0.012
Mof_H 	H 	0.8474	0.3841	0.3575	0.039
Mof_C 	C 	0.9123	0.3838	0.4131	-0.146
Mof_N 	N 	0.9416	0.457	0.445	-0.142
Mof_H 	H 	0.8965	0.5079	0.4127	0.028
Mof_H 	H 	0.0265	0.6154	0.1718	0.099
Mof_C 	C 	0.0114	0.5725	0.1074	0.092
Mof_H 	H 	0.9188	0.3532	0.4145	0.125
Mof_C 	C 	0.9426	0.4125	0.4441	0.099
Mof_H 	H 	0.0459	0.5786	0.0888	0.02
Mof_H 	H 	0.9688	0.3996	0.4694	0.028
Mof_Cl	Cl	0.8754	0.206	0.1674	-0.254
Mof_Cl	Cl	0.91608	0.4494	0.01642	-0.363
Mof_N 	N 	0.3705	0.8093	0.1931	-0.126
Mof_Cl	Cl	0.2686	0.7345	0.2137	-0.232
Mof_Cl	Cl	0.4457	0.7174	0.1991	-0.209
Mof_C 	C 	0.4041	0.8135	0.1455	0.102
Mof_C 	C 	0.3314	0.8415	0.2063	0.146
Mof_C 	C 	0.3985	0.85	0.1111	-0.143
Mof_H 	H 	0.4308	0.7915	0.1365	0.058
Mof_C 	C 	0.3259	0.878	0.1719	-0.244
Mof_H 	H 	0.3085	0.8386	0.2388	0.037
Mof_C 	C 	0.3594	0.8822	0.1243	0.139
Mof_H 	H 	0.4215	0.8529	0.0785	0.106
Mof_C 	C 	0.2856	0.9106	0.1884	0.623
Mof_H 	H 	0.3557	0.9071	0.1007	0.029
Mof_O 	O 	0.2822	0.9433	0.1559	-0.705
Mof_O 	O 	0.259	0.9081	0.235	-0.66
Mof_Cr	Cr	0.21754	0.95221	0.28013	2.196
Mof_O 	O 	0.325	0.0235	0.1531	-0.724
Mof_O 	O 	0.2809	0.9474	0.3338	-0.685
Mof_C 	C 	0.3608	0.0423	0.1841	0.652
Mof_C 	C 	0.3215	0.9728	0.3431	0.666
Mof_O 	O 	0.3281	0.0111	0.3314	-0.725
Mof_O 	O 	0.3505	0.0539	0.2335	-0.694
Mof_C 	C 	0.415	0.0534	0.159	-0.281
Mof_C 	C 	0.3665	0.9501	0.3787	-0.213
Mof_C 	C 	0.4498	0.0837	0.183	0.158
Mof_C 	C 	0.4287	0.0337	0.1087	0.159
Mof_C 	C 	0.3716	0.9019	0.3795	0.123
Mof_C 	C 	0.4011	0.9771	0.4124	0.177
Mof_H 	H 	0.4395	0.0974	0.2174	-0.011
Mof_C 	C 	0.501	0.0945	0.1567	-0.177
Mof_N 	N 	0.4766	0.0426	0.0827	-0.163
Mof_H 	H 	0.4033	0.0134	0.0924	0.006
Mof_H 	H 	0.3474	0.8841	0.3575	0.032
Mof_C 	C 	0.4123	0.8838	0.4131	-0.161
Mof_N 	N 	0.4416	0.957	0.445	-0.149
Mof_H 	H 	0.3965	0.0079	0.4127	-0.016
Mof_H 	H 	0.5265	0.1154	0.1718	0.095
Mof_C 	C 	0.5114	0.0725	0.1074	0.096
Mof_H 	H 	0.4188	0.8532	0.4145	0.129
Mof_C 	C 	0.4426	0.9125	0.4441	0.108
Mof_H 	H 	0.5459	0.0786	0.0888	0.021
Mof_H 	H 	0.4688	0.8996	0.4694	0.022
Mof_Cl	Cl	0.3754	0.706	0.1674	-0.255
Mof_Cl	Cl	0.41608	0.9494	0.01642	-0.35
Mof_Cd	Cd	0.6305	0.25	0.75	0.617
Mof_Cd	Cd	0.8695	0.75	0.75	0.617
Mof_Cd	Cd	0.3695	0.25	0.75	0.617
Mof_Cd	Cd	0.1305	0.75	0.75	0.617
Mof_Cd	Cd	0.3695	0.75	0.25	0.617
Mof_Cd	Cd	0.1305	0.25	0.25	0.617
Mof_Cd	Cd	0.6305	0.75	0.25	0.617
Mof_Cd	Cd	0.8695	0.25	0.25	0.617
Mof_Cr	Cr	0.75	0.5	0.66102	2.337
Mof_O 	O 	0.75	0.5	0.7426	-1.214
Mof_Cr	Cr	0.25	0	0.66102	2.254
Mof_O 	O 	0.25	5.84505e-33	0.7426	-1.225
Mof_Cr	Cr	0.25	0.5	0.83898	2.339
Mof_O 	O 	0.25	0.5	0.7574	-1.214
Mof_Cr	Cr	0.75	0	0.83898	2.26
Mof_O 	O 	0.75	0	0.7574	-1.226
Mof_Cr	Cr	0.25	0.5	0.33898	2.335
Mof_O 	O 	0.25	0.5	0.2574	-1.212
Mof_Cr	Cr	0.75	-2.92252e-33	0.33898	2.256
Mof_O 	O 	0.75	-1.46126e-33	0.2574	-1.224
Mof_Cr	Cr	0.75	0.5	0.16102	2.333
Mof_O 	O 	0.75	0.5	0.2426	-1.213
Mof_Cr	Cr	0.25	1.46126e-33	0.16102	2.25
Mof_O 	O 	0.25	1.46126e-33	0.2426	-1.224
Mof_Cd	Cd	0.5	0.5	0.5	0.455
Mof_Cd	Cd	1.87573e-33	2.92252e-33	0.5	0.411
Mof_Cd	Cd	1.87573e-33	0.5	0.5	0.441
Mof_Cd	Cd	0.5	2.92252e-33	0.5	0.425
Mof_Cd	Cd	0.5	0.5	-0	0.437
Mof_Cd	Cd	-0	0	-0	0.394
Mof_Cd	Cd	5.84505e-33	0.5	-0	0.423
Mof_Cd	Cd	0.5	0	-0	0.407
_end
