data_functionalizedCrystal
_audit_creation_method	'EQeq! by Chris Wilmer'
_symmetry_space_group_name_H-M	'P1'
_symmetry_Int_Tables_number	1
_symmetry_cell_setting	triclinic
loop_
_symmetry_equiv_pos_as_xyz
  x,y,z
_cell_length_a	8.0319
_cell_length_b	17.9407
_cell_length_c	17.9318
_cell_angle_alpha	90
_cell_angle_beta	108.644
_cell_angle_gamma	90
loop_
_atom_site_label
_atom_site_type_symbol
_atom_site_fract_x
_atom_site_fract_y
_atom_site_fract_z
_atom_site_charge
Mof_Co	Co	0.12685	0.80998	0.23644	1.152
Mof_O 	O 	0.3052	0.7494	0.31503	-0.421
Mof_O 	O 	0.1037	0.7712	0.37	-0.329
Mof_O 	O 	0.7317	0.5799	0.4906	-0.251
Mof_O 	O 	0.2065	0.68454	0.64387	-0.435
Mof_O 	O 	0.4411	0.6171	0.7053	-0.298
Mof_N 	N 	0.0541	0.9134	0.2573	-0.256
Mof_N 	N 	0.9062	0.0039	0.2854	-0.125
Mof_N 	N 	0.0965	0.2516	0.3138	-0.246
Mof_N 	N 	0.3528	0.1977	0.3347	-0.118
Mof_C 	C 	0.3496	0.6973	0.4416	-0.004
Mof_C 	C 	0.3005	0.6943	0.5092	-0.057
Mof_H 	H 	0.2019	0.7203	0.5114	0.073
Mof_C 	C 	0.3976	0.653	0.5731	-0.01
Mof_C 	C 	0.5452	0.6132	0.57	-0.152
Mof_H 	H 	0.6108	0.585	0.6129	0.095
Mof_C 	C 	0.5922	0.6166	0.5014	0.208
Mof_C 	C 	0.4976	0.6587	0.4388	-0.158
Mof_H 	H 	0.5323	0.6615	0.3941	0.109
Mof_C 	C 	0.84	0.5351	0.5504	0.087
Mof_H 	H 	0.8687	0.5562	0.6028	-0
Mof_H 	H 	0.7834	0.487	0.5484	0.013
Mof_C 	C 	0.9213	0.9304	0.2793	0.103
Mof_H 	H 	0.8455	0.8958	0.2897	-0.007
Mof_C 	C 	0.0284	0.0361	0.2588	-0.005
Mof_H 	H 	0.0449	0.0868	0.2528	0.035
Mof_C 	C 	0.1215	0.9792	0.2429	0.006
Mof_H 	H 	0.2173	0.9843	0.2248	0.021
Mof_C 	C 	0.7809	0.0432	0.322	-0.022
Mof_H 	H 	0.7442	0.0099	0.3563	0.043
Mof_H 	H 	0.8355	0.087	0.3516	0.038
Mof_C 	C 	0.641	0.0626	0.2567	-0.136
Mof_H 	H 	0.5986	0.0187	0.2247	0.086
Mof_H 	H 	0.6799	0.0983	0.2252	0.078
Mof_C 	C 	0.2237	0.2352	0.2842	0.093
Mof_H 	H 	0.2223	0.2485	0.2338	0.003
Mof_C 	C 	0.1492	0.2219	0.388	0.003
Mof_H 	H 	0.087	0.2238	0.4236	0.029
Mof_C 	C 	0.3082	0.1891	0.4005	0.003
Mof_H 	H 	0.3744	0.165	0.4463	0.037
Mof_C 	C 	0.5122	0.1697	0.3192	-0.053
Mof_H 	H 	0.5462	0.2048	0.2855	0.057
Mof_H 	H 	0.6078	0.1665	0.3685	0.053
Mof_C 	C 	0.4844	0.098	0.2824	-0.094
Mof_H 	H 	0.3818	0.1014	0.2358	0.063
Mof_H 	H 	0.4561	0.0634	0.3181	0.062
Mof_C 	C 	0.3479	0.6504	0.6467	0.305
Mof_C 	C 	0.2444	0.7415	0.3718	0.283
Mof_C 	C 	0.0201	0.5308	0.5297	-0.15
Mof_H 	H 	0.1343	0.5269	0.5698	0.085
Mof_H 	H 	0.0186	0.5669	0.4892	0.097
Mof_Co	Co	0.87315	0.30998	0.26356	1.153
Mof_O 	O 	0.6948	0.2494	0.18497	-0.42
Mof_O 	O 	0.8963	0.2712	0.13	-0.328
Mof_O 	O 	0.2683	0.0799	0.0094	-0.247
Mof_O 	O 	0.7935	0.18454	0.85613	-0.434
Mof_O 	O 	0.5589	0.1171	0.7947	-0.297
Mof_N 	N 	0.9459	0.4134	0.2427	-0.256
Mof_N 	N 	0.0938	0.5039	0.2146	-0.123
Mof_N 	N 	0.9035	0.7516	0.1862	-0.246
Mof_N 	N 	0.6472	0.6977	0.1653	-0.118
Mof_C 	C 	0.6504	0.1973	0.0584	-0.005
Mof_C 	C 	0.6995	0.1943	0.9908	-0.057
Mof_H 	H 	0.7981	0.2203	0.9886	0.073
Mof_C 	C 	0.6024	0.153	0.9269	-0.011
Mof_C 	C 	0.4548	0.1132	0.93	-0.149
Mof_H 	H 	0.3892	0.085	0.8871	0.094
Mof_C 	C 	0.4078	0.1166	0.9986	0.204
Mof_C 	C 	0.5024	0.1587	0.0612	-0.155
Mof_H 	H 	0.4677	0.1615	0.1059	0.108
Mof_C 	C 	0.16	0.0351	0.9496	0.082
Mof_H 	H 	0.1313	0.0562	0.8972	0.001
Mof_H 	H 	0.2166	0.987	0.9516	0.016
Mof_C 	C 	0.0787	0.4304	0.2207	0.104
Mof_H 	H 	0.1545	0.3958	0.2103	-0.007
Mof_C 	C 	0.9716	0.5361	0.2412	-0.008
Mof_H 	H 	0.9551	0.5868	0.2472	0.036
Mof_C 	C 	0.8785	0.4792	0.2571	0.008
Mof_H 	H 	0.7827	0.4843	0.2752	0.021
Mof_C 	C 	0.2191	0.5432	0.178	-0.022
Mof_H 	H 	0.2558	0.5099	0.1437	0.043
Mof_H 	H 	0.1645	0.587	0.1484	0.038
Mof_C 	C 	0.359	0.5626	0.2433	-0.136
Mof_H 	H 	0.4014	0.5187	0.2753	0.086
Mof_H 	H 	0.3201	0.5983	0.2748	0.078
Mof_C 	C 	0.7763	0.7352	0.2158	0.093
Mof_H 	H 	0.7777	0.7485	0.2662	0.003
Mof_C 	C 	0.8508	0.7219	0.112	0.003
Mof_H 	H 	0.913	0.7238	0.0764	0.029
Mof_C 	C 	0.6918	0.6891	0.0995	0.002
Mof_H 	H 	0.6256	0.665	0.0537	0.037
Mof_C 	C 	0.4878	0.6697	0.1808	-0.053
Mof_H 	H 	0.4538	0.7048	0.2145	0.057
Mof_H 	H 	0.3922	0.6665	0.1315	0.053
Mof_C 	C 	0.5156	0.598	0.2176	-0.094
Mof_H 	H 	0.6182	0.6014	0.2642	0.063
Mof_H 	H 	0.5439	0.5634	0.1819	0.062
Mof_C 	C 	0.6521	0.1504	0.8533	0.305
Mof_C 	C 	0.7556	0.2415	0.1282	0.284
Mof_C 	C 	0.9799	0.0308	0.9703	-0.149
Mof_H 	H 	0.8657	0.0269	0.9302	0.085
Mof_H 	H 	0.9814	0.0669	0.0108	0.097
Mof_Co	Co	0.87315	0.19002	0.76356	1.153
Mof_O 	O 	0.6948	0.2506	0.68497	-0.42
Mof_O 	O 	0.8963	0.2288	0.63	-0.328
Mof_O 	O 	0.2683	0.4201	0.5094	-0.25
Mof_O 	O 	0.7935	0.31546	0.35613	-0.434
Mof_O 	O 	0.5589	0.3829	0.2947	-0.297
Mof_N 	N 	0.9459	0.0866	0.7427	-0.255
Mof_N 	N 	0.0938	0.9961	0.7146	-0.124
Mof_N 	N 	0.9035	0.7484	0.6862	-0.246
Mof_N 	N 	0.6472	0.8023	0.6653	-0.118
Mof_C 	C 	0.6504	0.3027	0.5584	-0.004
Mof_C 	C 	0.6995	0.3057	0.4908	-0.057
Mof_H 	H 	0.7981	0.2797	0.4886	0.073
Mof_C 	C 	0.6024	0.347	0.4269	-0.01
Mof_C 	C 	0.4548	0.3868	0.43	-0.152
Mof_H 	H 	0.3892	0.415	0.3871	0.095
Mof_C 	C 	0.4078	0.3834	0.4986	0.208
Mof_C 	C 	0.5024	0.3413	0.5612	-0.158
Mof_H 	H 	0.4677	0.3385	0.6059	0.109
Mof_C 	C 	0.16	0.4649	0.4496	0.087
Mof_H 	H 	0.1313	0.4438	0.3972	-0
Mof_H 	H 	0.2166	0.513	0.4516	0.013
Mof_C 	C 	0.0787	0.0696	0.7207	0.103
Mof_H 	H 	0.1545	0.1042	0.7103	-0.007
Mof_C 	C 	0.9716	0.9639	0.7412	-0.005
Mof_H 	H 	0.9551	0.9132	0.7472	0.035
Mof_C 	C 	0.8785	0.0208	0.7571	0.006
Mof_H 	H 	0.7827	0.0157	0.7752	0.021
Mof_C 	C 	0.2191	0.9568	0.678	-0.022
Mof_H 	H 	0.2558	0.9901	0.6437	0.043
Mof_H 	H 	0.1645	0.913	0.6484	0.038
Mof_C 	C 	0.359	0.9374	0.7433	-0.136
Mof_H 	H 	0.4014	0.9813	0.7753	0.086
Mof_H 	H 	0.3201	0.9017	0.7748	0.078
Mof_C 	C 	0.7763	0.7648	0.7158	0.093
Mof_H 	H 	0.7777	0.7515	0.7662	0.003
Mof_C 	C 	0.8508	0.7781	0.612	0.003
Mof_H 	H 	0.913	0.7762	0.5764	0.029
Mof_C 	C 	0.6918	0.8109	0.5995	0.003
Mof_H 	H 	0.6256	0.835	0.5537	0.037
Mof_C 	C 	0.4878	0.8303	0.6808	-0.053
Mof_H 	H 	0.4538	0.7952	0.7145	0.057
Mof_H 	H 	0.3922	0.8335	0.6315	0.053
Mof_C 	C 	0.5156	0.902	0.7176	-0.094
Mof_H 	H 	0.6182	0.8986	0.7642	0.063
Mof_H 	H 	0.5439	0.9366	0.6819	0.062
Mof_C 	C 	0.6521	0.3496	0.3533	0.305
Mof_C 	C 	0.7556	0.2585	0.6282	0.283
Mof_C 	C 	0.9799	0.4692	0.4703	-0.15
Mof_H 	H 	0.8657	0.4731	0.4302	0.085
Mof_H 	H 	0.9814	0.4331	0.5108	0.097
Mof_Co	Co	0.12685	0.69002	0.73644	1.153
Mof_O 	O 	0.3052	0.7506	0.81503	-0.42
Mof_O 	O 	0.1037	0.7288	0.87	-0.328
Mof_O 	O 	0.7317	0.9201	0.9906	-0.247
Mof_O 	O 	0.2065	0.81546	0.14387	-0.434
Mof_O 	O 	0.4411	0.8829	0.2053	-0.297
Mof_N 	N 	0.0541	0.5866	0.7573	-0.256
Mof_N 	N 	0.9062	0.4961	0.7854	-0.123
Mof_N 	N 	0.0965	0.2484	0.8138	-0.246
Mof_N 	N 	0.3528	0.3023	0.8347	-0.118
Mof_C 	C 	0.3496	0.8027	0.9416	-0.005
Mof_C 	C 	0.3005	0.8057	0.0092	-0.057
Mof_H 	H 	0.2019	0.7797	0.0114	0.073
Mof_C 	C 	0.3976	0.847	0.0731	-0.011
Mof_C 	C 	0.5452	0.8868	0.07	-0.149
Mof_H 	H 	0.6108	0.915	0.1129	0.094
Mof_C 	C 	0.5922	0.8834	0.0014	0.204
Mof_C 	C 	0.4976	0.8413	0.9388	-0.155
Mof_H 	H 	0.5323	0.8385	0.8941	0.108
Mof_C 	C 	0.84	0.9649	0.0504	0.082
Mof_H 	H 	0.8687	0.9438	0.1028	0.001
Mof_H 	H 	0.7834	0.013	0.0484	0.016
Mof_C 	C 	0.9213	0.5696	0.7793	0.104
Mof_H 	H 	0.8455	0.6042	0.7897	-0.007
Mof_C 	C 	0.0284	0.4639	0.7588	-0.008
Mof_H 	H 	0.0449	0.4132	0.7528	0.036
Mof_C 	C 	0.1215	0.5208	0.7429	0.008
Mof_H 	H 	0.2173	0.5157	0.7248	0.021
Mof_C 	C 	0.7809	0.4568	0.822	-0.022
Mof_H 	H 	0.7442	0.4901	0.8563	0.043
Mof_H 	H 	0.8355	0.413	0.8516	0.038
Mof_C 	C 	0.641	0.4374	0.7567	-0.136
Mof_H 	H 	0.5986	0.4813	0.7247	0.086
Mof_H 	H 	0.6799	0.4017	0.7252	0.078
Mof_C 	C 	0.2237	0.2648	0.7842	0.093
Mof_H 	H 	0.2223	0.2515	0.7338	0.003
Mof_C 	C 	0.1492	0.2781	0.888	0.003
Mof_H 	H 	0.087	0.2762	0.9236	0.029
Mof_C 	C 	0.3082	0.3109	0.9005	0.002
Mof_H 	H 	0.3744	0.335	0.9463	0.037
Mof_C 	C 	0.5122	0.3303	0.8192	-0.053
Mof_H 	H 	0.5462	0.2952	0.7855	0.057
Mof_H 	H 	0.6078	0.3335	0.8685	0.053
Mof_C 	C 	0.4844	0.402	0.7824	-0.094
Mof_H 	H 	0.3818	0.3986	0.7358	0.063
Mof_H 	H 	0.4561	0.4366	0.8181	0.062
Mof_C 	C 	0.3479	0.8496	0.1467	0.305
Mof_C 	C 	0.2444	0.7585	0.8718	0.284
Mof_C 	C 	0.0201	0.9692	0.0297	-0.149
Mof_H 	H 	0.1343	0.9731	0.0698	0.085
Mof_H 	H 	0.0186	0.9331	0.9892	0.097
_end
