data_functionalizedCrystal
_audit_creation_method	'EQeq! by Chris Wilmer'
_symmetry_space_group_name_H-M	'P1'
_symmetry_Int_Tables_number	1
_symmetry_cell_setting	triclinic
loop_
_symmetry_equiv_pos_as_xyz
  x,y,z
_cell_length_a	9.942
_cell_length_b	9.942
_cell_length_c	15.764
_cell_angle_alpha	90
_cell_angle_beta	90
_cell_angle_gamma	90
loop_
_atom_site_label
_atom_site_type_symbol
_atom_site_fract_x
_atom_site_fract_y
_atom_site_fract_z
_atom_site_charge
Mof_C 	C 	0.2421	0.1601	0.312	-0.006
Mof_H 	H 	0.2392	0.0985	0.3564	0.05
Mof_C 	C 	0.7421	0.6601	0.812	0.069
Mof_H 	H 	0.7392	0.5985	0.8564	0.091
Mof_C 	C 	0.7579	0.8399	0.312	0.054
Mof_H 	H 	0.7608	0.9015	0.3564	0.162
Mof_C 	C 	0.2579	0.3399	0.812	0.024
Mof_H 	H 	0.2608	0.4015	0.8564	0.066
Mof_C 	C 	0.8399	0.2421	0.312	0.026
Mof_H 	H 	0.9015	0.2392	0.3564	0.131
Mof_C 	C 	0.3399	0.7421	0.812	0.05
Mof_H 	H 	0.4015	0.7392	0.8564	0.088
Mof_C 	C 	0.1601	0.7579	0.312	0.022
Mof_H 	H 	0.0985	0.7608	0.3564	0.085
Mof_C 	C 	0.6601	0.2579	0.812	0.043
Mof_H 	H 	0.5985	0.2608	0.8564	0.069
Mof_C 	C 	0.7579	0.1601	0.188	0.015
Mof_H 	H 	0.7608	0.0985	0.1436	0.079
Mof_C 	C 	0.2579	0.6601	0.688	0.035
Mof_H 	H 	0.2608	0.5985	0.6436	0.056
Mof_C 	C 	0.2421	0.8399	0.188	0.018
Mof_H 	H 	0.2392	0.9015	0.1436	0.126
Mof_C 	C 	0.7421	0.3399	0.688	0.041
Mof_H 	H 	0.7392	0.4015	0.6436	0.076
Mof_C 	C 	0.1601	0.2421	0.188	-0.015
Mof_H 	H 	0.0985	0.2392	0.1436	0.043
Mof_C 	C 	0.6601	0.7421	0.688	0.06
Mof_H 	H 	0.5985	0.7392	0.6436	0.079
Mof_C 	C 	0.8399	0.7579	0.188	0.046
Mof_H 	H 	0.9015	0.7608	0.1436	0.157
Mof_C 	C 	0.3399	0.2579	0.688	0.015
Mof_H 	H 	0.4015	0.2608	0.6436	0.053
Mof_C 	C 	0.7579	0.8399	0.688	0.054
Mof_H 	H 	0.7608	0.9015	0.6436	0.16
Mof_C 	C 	0.2579	0.3399	0.188	0.021
Mof_H 	H 	0.2608	0.4015	0.1436	0.058
Mof_C 	C 	0.2421	0.1601	0.688	-0.006
Mof_H 	H 	0.2392	0.0985	0.6436	0.049
Mof_C 	C 	0.7421	0.6601	0.188	0.067
Mof_H 	H 	0.7392	0.5985	0.1436	0.084
Mof_C 	C 	0.1601	0.7579	0.688	0.024
Mof_H 	H 	0.0985	0.7608	0.6436	0.085
Mof_C 	C 	0.6601	0.2579	0.188	0.041
Mof_H 	H 	0.5985	0.2608	0.1436	0.06
Mof_C 	C 	0.8399	0.2421	0.688	0.026
Mof_H 	H 	0.9015	0.2392	0.6436	0.13
Mof_C 	C 	0.3399	0.7421	0.188	0.048
Mof_H 	H 	0.4015	0.7392	0.1436	0.081
Mof_C 	C 	0.2421	0.8399	0.812	0.02
Mof_H 	H 	0.2392	0.9015	0.8564	0.132
Mof_C 	C 	0.7421	0.3399	0.312	0.041
Mof_H 	H 	0.7392	0.4015	0.3564	0.076
Mof_C 	C 	0.7579	0.1601	0.812	0.017
Mof_H 	H 	0.7608	0.0985	0.8564	0.087
Mof_C 	C 	0.2579	0.6601	0.312	0.034
Mof_H 	H 	0.2608	0.5985	0.3564	0.056
Mof_C 	C 	0.8399	0.7579	0.812	0.047
Mof_H 	H 	0.9015	0.7608	0.8564	0.16
Mof_C 	C 	0.3399	0.2579	0.312	0.014
Mof_H 	H 	0.4015	0.2608	0.3564	0.053
Mof_C 	C 	0.1601	0.2421	0.812	-0.013
Mof_H 	H 	0.0985	0.2392	0.8564	0.053
Mof_C 	C 	0.6601	0.7421	0.312	0.06
Mof_H 	H 	0.5985	0.7392	0.3564	0.079
Mof_Nb	Nb	-0	0	-0	2.128
Mof_Nb	Nb	0.5	0.5	0.5	3.087
Mof_Nb	Nb	2.97252e-33	0	0.5	2.374
Mof_Nb	Nb	0.5	0.5	-0	3.255
Mof_Ni	Ni	1.48626e-33	0	0.25	1.01
Mof_Ni	Ni	0.5	0.5	0.75	1.138
Mof_Ni	Ni	-1.1742e-32	0	0.75	1.013
Mof_Ni	Ni	0.5	0.5	0.25	1.137
Mof_O 	O 	7.31834e-34	0	0.1231	-0.745
Mof_F 	F 	2.24068e-33	-8.1004e-33	0.3769	-0.907
Mof_O 	O 	0.5	0.5	0.6231	-0.68
Mof_F 	F 	0.5	0.5	0.8769	-0.832
Mof_O 	O 	-1.09876e-32	-1.62008e-32	0.8769	-0.722
Mof_F 	F 	1.18048e-32	0	0.6231	-0.905
Mof_O 	O 	0.5	0.5	0.3769	-0.68
Mof_F 	F 	0.5	0.5	0.1231	-0.843
Mof_F 	F 	0.008	0.1908	-0	-0.674
Mof_F 	F 	0.508	0.6908	0.5	-0.673
Mof_F 	F 	0.992	0.8092	-0	-0.408
Mof_F 	F 	0.492	0.3092	0.5	-0.724
Mof_F 	F 	0.8092	0.008	-0	-0.581
Mof_F 	F 	0.3092	0.508	0.5	-0.716
Mof_F 	F 	0.1908	0.992	-0	-0.487
Mof_F 	F 	0.6908	0.492	0.5	-0.681
Mof_F 	F 	0.992	0.1908	0.5	-0.493
Mof_F 	F 	0.492	0.6908	-0	-0.695
Mof_F 	F 	0.008	0.8092	0.5	-0.586
Mof_F 	F 	0.508	0.3092	-0	-0.73
Mof_F 	F 	0.1908	0.008	0.5	-0.677
Mof_F 	F 	0.6908	0.508	-0	-0.686
Mof_F 	F 	0.8092	0.992	0.5	-0.416
Mof_F 	F 	0.3092	0.492	-0	-0.738
Mof_N 	N 	0.1514	0.1514	0.25	-0.217
Mof_N 	N 	0.6514	0.6514	0.75	-0.187
Mof_N 	N 	0.8486	0.8486	0.25	-0.072
Mof_N 	N 	0.3486	0.3486	0.75	-0.194
Mof_N 	N 	0.8486	0.1514	0.25	-0.14
Mof_N 	N 	0.3486	0.6514	0.75	-0.191
Mof_N 	N 	0.1514	0.8486	0.25	-0.14
Mof_N 	N 	0.6514	0.3486	0.75	-0.191
Mof_N 	N 	0.8486	0.8486	0.75	-0.074
Mof_N 	N 	0.3486	0.3486	0.25	-0.195
Mof_N 	N 	0.1514	0.1514	0.75	-0.216
Mof_N 	N 	0.6514	0.6514	0.25	-0.188
Mof_N 	N 	0.1514	0.8486	0.75	-0.141
Mof_N 	N 	0.6514	0.3486	0.25	-0.191
Mof_N 	N 	0.8486	0.1514	0.75	-0.141
Mof_N 	N 	0.3486	0.6514	0.25	-0.191
_end
