# CIF file generated by openbabel 3.1.0, see https://openbabel.org
data_I
_chemical_name_common 'image0'
_cell_length_a 12.7905
_cell_length_b 25.9152
_cell_length_c 10.6329
_cell_angle_alpha 90
_cell_angle_beta 92.472
_cell_angle_gamma 90
_space_group_name_H-M_alt 'P 1'
_space_group_name_Hall 'P 1'
loop_
    _symmetry_equiv_pos_as_xyz
    x,y,z
loop_
    _atom_site_label
    _atom_site_type_symbol
    _atom_site_fract_x
    _atom_site_fract_y
    _atom_site_fract_z
    _atom_site_occupancy
    Fe1      Fe       0.81432    0.10255    0.18721    1.000
    Na1      Na       0.30866    0.29398    0.31686    1.000
    Na2      Na       0.34799    0.31174    0.02611    1.000
    C1       C        0.60538    0.22032    0.25230    1.000
    Cl1      Cl       0.64844    0.25465    0.38370    1.000
    C2       C        0.51368    0.23698    0.18310    1.000
    O1       O        0.46183    0.27583    0.20590    1.000
    C3       C        0.47437    0.20395    0.06880    1.000
    O2       O        0.39816    0.22084    0.00642    1.000
    C4       C        0.52897    0.15775    0.04150    1.000
    Cl2      Cl       0.48633    0.12087    0.91402    1.000
    C5       C        0.62203    0.14560    0.10500    1.000
    O3       O        0.68314    0.10870    0.07655    1.000
    C6       C        0.65885    0.17699    0.21880    1.000
    O4       O        0.74069    0.15923    0.27764    1.000
    C7       C        0.04474    0.20670    0.09450    1.000
    Cl3      Cl       0.01225    0.23579    0.95197    1.000
    C8       C        0.98178    0.16857    0.13950    1.000
    O5       O        0.89659    0.15190    0.08507    1.000
    C9       C        0.01033    0.14233    0.26370    1.000
    O6       O        0.94417    0.10876    0.29916    1.000
    C10      C        0.10228    0.15478    0.32860    1.000
    Cl4      Cl       0.13611    0.12364    0.46854    1.000
    C11      C        0.16762    0.19508    0.28830    1.000
    O7       O        0.24837    0.20978    0.34559    1.000
    C12      C        0.13646    0.22418    0.16450    1.000
    O8       O        0.19298    0.26010    0.13470    1.000
    C13      C        0.28110    0.45935    0.18050    1.000
    Cl5      Cl       0.35072    0.46692    0.04576    1.000
    C14      C        0.23866    0.50192    0.23710    1.000
    O9       O        0.24442    0.54828    0.19630    1.000
    C15      C        0.18098    0.49612    0.35820    1.000
    O10      O        0.14826    0.53871    0.40415    1.000
    C16      C        0.16701    0.44814    0.40920    1.000
    Cl6      Cl       0.09637    0.44203    0.54340    1.000
    C17      C        0.20992    0.40292    0.35520    1.000
    O11      O        0.20177    0.35901    0.39732    1.000
    C18      C        0.27217    0.40913    0.23320    1.000
    O12      O        0.30997    0.36947    0.18911    1.000
    Fe2      Fe       0.18568    0.60255    0.31279    1.000
    Na3      Na       0.69134    0.79398    0.18314    1.000
    Na4      Na       0.65201    0.81174    0.47389    1.000
    C19      C        0.39462    0.72032    0.24770    1.000
    Cl7      Cl       0.35156    0.75465    0.11630    1.000
    C20      C        0.48632    0.73698    0.31690    1.000
    O13      O        0.53817    0.77583    0.29410    1.000
    C21      C        0.52563    0.70395    0.43120    1.000
    O14      O        0.60184    0.72084    0.49358    1.000
    C22      C        0.47103    0.65775    0.45850    1.000
    Cl8      Cl       0.51367    0.62087    0.58598    1.000
    C23      C        0.37797    0.64560    0.39500    1.000
    O15      O        0.31686    0.60870    0.42345    1.000
    C24      C        0.34115    0.67699    0.28120    1.000
    O16      O        0.25931    0.65923    0.22236    1.000
    C25      C        0.95526    0.70670    0.40550    1.000
    Cl9      Cl       0.98775    0.73579    0.54803    1.000
    C26      C        0.01822    0.66857    0.36050    1.000
    O17      O        0.10341    0.65190    0.41493    1.000
    C27      C        0.98967    0.64233    0.23630    1.000
    O18      O        0.05583    0.60876    0.20084    1.000
    C28      C        0.89772    0.65478    0.17140    1.000
    Cl10     Cl       0.86389    0.62364    0.03146    1.000
    C29      C        0.83238    0.69508    0.21170    1.000
    O19      O        0.75163    0.70978    0.15441    1.000
    C30      C        0.86354    0.72418    0.33550    1.000
    O20      O        0.80702    0.76010    0.36530    1.000
    C31      C        0.71890    0.95935    0.31950    1.000
    Cl11     Cl       0.64928    0.96692    0.45424    1.000
    C32      C        0.76134    0.00192    0.26290    1.000
    O21      O        0.75558    0.04828    0.30370    1.000
    C33      C        0.81902    0.99612    0.14180    1.000
    O22      O        0.85174    0.03871    0.09585    1.000
    C34      C        0.83299    0.94814    0.09080    1.000
    Cl12     Cl       0.90363    0.94203    0.95660    1.000
    C35      C        0.79008    0.90292    0.14480    1.000
    O23      O        0.79823    0.85901    0.10268    1.000
    C36      C        0.72783    0.90913    0.26680    1.000
    O24      O        0.69003    0.86947    0.31089    1.000
    Fe3      Fe       0.18568    0.89745    0.81279    1.000
    Na5      Na       0.69134    0.70602    0.68314    1.000
    Na6      Na       0.65201    0.68826    0.97389    1.000
    C37      C        0.39462    0.77968    0.74770    1.000
    Cl13     Cl       0.35156    0.74535    0.61630    1.000
    C38      C        0.48632    0.76302    0.81690    1.000
    O25      O        0.53817    0.72417    0.79410    1.000
    C39      C        0.52563    0.79605    0.93120    1.000
    O26      O        0.60184    0.77916    0.99358    1.000
    C40      C        0.47103    0.84225    0.95850    1.000
    Cl14     Cl       0.51367    0.87913    0.08598    1.000
    C41      C        0.37797    0.85440    0.89500    1.000
    O27      O        0.31686    0.89130    0.92345    1.000
    C42      C        0.34115    0.82301    0.78120    1.000
    O28      O        0.25931    0.84077    0.72236    1.000
    C43      C        0.95526    0.79330    0.90550    1.000
    Cl15     Cl       0.98775    0.76421    0.04803    1.000
    C44      C        0.01822    0.83143    0.86050    1.000
    O29      O        0.10341    0.84810    0.91493    1.000
    C45      C        0.98967    0.85767    0.73630    1.000
    O30      O        0.05583    0.89124    0.70084    1.000
    C46      C        0.89772    0.84522    0.67140    1.000
    Cl16     Cl       0.86389    0.87636    0.53146    1.000
    C47      C        0.83238    0.80492    0.71170    1.000
    O31      O        0.75163    0.79022    0.65441    1.000
    C48      C        0.86354    0.77582    0.83550    1.000
    O32      O        0.80702    0.73990    0.86530    1.000
    C49      C        0.71890    0.54065    0.81950    1.000
    Cl17     Cl       0.64928    0.53308    0.95424    1.000
    C50      C        0.76134    0.49808    0.76290    1.000
    O33      O        0.75558    0.45172    0.80370    1.000
    C51      C        0.81902    0.50388    0.64180    1.000
    O34      O        0.85174    0.46129    0.59585    1.000
    C52      C        0.83299    0.55186    0.59080    1.000
    Cl18     Cl       0.90363    0.55797    0.45660    1.000
    C53      C        0.79008    0.59708    0.64480    1.000
    O35      O        0.79823    0.64099    0.60268    1.000
    C54      C        0.72783    0.59087    0.76680    1.000
    O36      O        0.69003    0.63053    0.81089    1.000
    Fe4      Fe       0.81432    0.39745    0.68721    1.000
    Na7      Na       0.30866    0.20602    0.81686    1.000
    Na8      Na       0.34799    0.18826    0.52611    1.000
    C55      C        0.60538    0.27968    0.75230    1.000
    Cl19     Cl       0.64844    0.24535    0.88370    1.000
    C56      C        0.51368    0.26302    0.68310    1.000
    O37      O        0.46183    0.22417    0.70590    1.000
    C57      C        0.47437    0.29605    0.56880    1.000
    O38      O        0.39816    0.27916    0.50642    1.000
    C58      C        0.52897    0.34225    0.54150    1.000
    Cl20     Cl       0.48633    0.37913    0.41402    1.000
    C59      C        0.62203    0.35440    0.60500    1.000
    O39      O        0.68314    0.39130    0.57655    1.000
    C60      C        0.65885    0.32301    0.71880    1.000
    O40      O        0.74069    0.34077    0.77764    1.000
    C61      C        0.04474    0.29330    0.59450    1.000
    Cl21     Cl       0.01225    0.26421    0.45197    1.000
    C62      C        0.98178    0.33143    0.63950    1.000
    O41      O        0.89659    0.34810    0.58507    1.000
    C63      C        0.01033    0.35767    0.76370    1.000
    O42      O        0.94417    0.39124    0.79916    1.000
    C64      C        0.10228    0.34522    0.82860    1.000
    Cl22     Cl       0.13611    0.37636    0.96854    1.000
    C65      C        0.16762    0.30492    0.78830    1.000
    O43      O        0.24837    0.29022    0.84559    1.000
    C66      C        0.13646    0.27582    0.66450    1.000
    O44      O        0.19298    0.23990    0.63470    1.000
    C67      C        0.28110    0.04065    0.68050    1.000
    Cl23     Cl       0.35072    0.03308    0.54576    1.000
    C68      C        0.23866    0.99808    0.73710    1.000
    O45      O        0.24442    0.95172    0.69630    1.000
    C69      C        0.18098    0.00388    0.85820    1.000
    O46      O        0.14826    0.96129    0.90415    1.000
    C70      C        0.16701    0.05186    0.90920    1.000
    Cl24     Cl       0.09637    0.05797    0.04340    1.000
    C71      C        0.20992    0.09708    0.85520    1.000
    O47      O        0.20177    0.14099    0.89732    1.000
    C72      C        0.27217    0.09087    0.73320    1.000
    O48      O        0.30997    0.13053    0.68911    1.000
