data_functionalizedCrystal
_audit_creation_method	'EQeq! by Chris Wilmer'
_symmetry_space_group_name_H-M	'P1'
_symmetry_Int_Tables_number	1
_symmetry_cell_setting	triclinic
loop_
_symmetry_equiv_pos_as_xyz
  x,y,z
_cell_length_a	22.261
_cell_length_b	22.261
_cell_length_c	32.92
_cell_angle_alpha	90
_cell_angle_beta	90
_cell_angle_gamma	90
loop_
_atom_site_label
_atom_site_type_symbol
_atom_site_fract_x
_atom_site_fract_y
_atom_site_fract_z
_atom_site_charge
Mof_Cd	Cd	0.8359	0.38553	0.25245	0.432
Mof_Cd	Cd	0.33691	0.36036	0.10486	0.304
Mof_O 	O 	0.8749	0.4173	0.19016	-0.274
Mof_O 	O 	0.8856	0.319	0.18769	-0.265
Mof_O 	O 	0.97486	0.20676	0.03006	-0.268
Mof_O 	O 	0.89703	0.20737	0.07266	-0.255
Mof_N 	N 	0.4248	0.3457	0.07339	-0.164
Mof_N 	N 	0.5236	0.3328	0.06757	-0.169
Mof_N 	N 	0.7465	0.3828	0.21344	-0.136
Mof_N 	N 	0.6901	0.3645	0.15955	-0.166
Mof_N 	N 	0.2566	0.3873	0.14521	-0.153
Mof_N 	N 	0.1994	0.3906	0.20053	-0.164
Mof_N 	N 	0.0256	0.392	0.28872	-0.169
Mof_N 	N 	0.1994	0.2692	0.32176	-0.168
Mof_N 	N 	0.2685	0.2075	0.34555	-0.158
Mof_N 	N 	0.9281	0.4006	0.2802	-0.144
Mof_C 	C 	0.699	0.2939	0.1029	-0.296
Mof_H 	H 	0.738	0.2845	0.1108	0.144
Mof_C 	C 	0.7114	0.4317	0.2051	-0.008
Mof_H 	H 	0.7116	0.4673	0.2199	0.043
Mof_C 	C 	0.6737	0.2661	0.0692	0.246
Mof_N 	N 	0.7095	0.2234	0.04703	-0.164
Mof_C 	C 	0.6664	0.3352	0.12476	0.227
Mof_C 	C 	0.6765	0.4208	0.1723	0.014
Mof_H 	H 	0.6486	0.4469	0.1608	0.016
Mof_C 	C 	0.7316	0.3428	0.1852	0.1
Mof_H 	H 	0.7481	0.3045	0.1833	0.006
Mof_C 	C 	0.6075	0.3499	0.112	-0.286
Mof_H 	H 	0.5854	0.3791	0.1256	0.13
Mof_C 	C 	0.5838	0.3206	0.0793	0.234
Mof_C 	C 	0.6171	0.2772	0.0583	-0.305
Mof_H 	H 	0.5998	0.2563	0.0368	0.14
Mof_C 	C 	0.4781	0.3425	0.0915	0.107
Mof_H 	H 	0.4826	0.3469	0.1195	-0.016
Mof_C 	C 	0.9518	0.2208	0.0638	0.283
Mof_C 	C 	0.1983	0.3325	0.26126	-0.301
Mof_H 	H 	0.2365	0.3185	0.2549	0.137
Mof_C 	C 	0.0859	0.3731	0.28142	0.243
Mof_C 	C 	0.1139	0.3321	0.3059	-0.308
Mof_H 	H 	0.0948	0.3175	0.329	0.142
Mof_C 	C 	0.9793	0.3866	0.26426	0.122
Mof_H 	H 	0.983	0.3737	0.2375	0.002
Mof_C 	C 	0.1134	0.3943	0.2462	-0.287
Mof_H 	H 	0.0942	0.4224	0.2297	0.144
Mof_C 	C 	0.1702	0.3725	0.23605	0.246
Mof_C 	C 	0.17	0.3129	0.2962	0.245
Mof_C 	C 	0.8269	0.4031	0.1092	0.021
Mof_H 	H 	0.8027	0.4241	0.1273	0.033
Mof_C 	C 	0.8769	0.3716	0.12466	-0.089
Mof_C 	C 	0.881	0.3674	0.171	0.303
Mof_C 	C 	0.8127	0.4044	0.07	-0.091
Mof_H 	H 	0.7785	0.4241	0.0607	0.06
Mof_C 	C 	0.9892	0.2538	0.0937	-0.095
Mof_C 	C 	0.9151	0.3414	0.09814	0.048
Mof_C 	C 	0.9021	0.3447	0.05653	-0.094
Mof_H 	H 	0.9279	0.3265	0.038	0.071
Mof_C 	C 	0.9716	0.3086	0.11095	0.057
Mof_C 	C 	0.8526	0.3737	0.0427	0.013
Mof_H 	H 	0.8444	0.3738	0.015	0.028
Mof_C 	C 	0.0438	0.2292	0.1048	0.034
Mof_H 	H 	0.0557	0.1928	0.0936	0.031
Mof_C 	C 	0.2325	0.4454	0.1502	-0.004
Mof_H 	H 	0.2401	0.4777	0.1331	0.028
Mof_C 	C 	0.2337	0.3563	0.1756	0.1
Mof_H 	H 	0.2404	0.3155	0.1795	-0.006
Mof_C 	C 	0.2564	0.251	0.3208	0.114
Mof_H 	H 	0.285	0.2681	0.3038	-0.015
Mof_C 	C 	0.1981	0.4475	0.1823	0.005
Mof_H 	H 	0.1767	0.4807	0.1914	0.05
Mof_C 	C 	0.0633	0.3109	0.1489	0.034
Mof_H 	H 	0.0885	0.3301	0.1673	0.024
Mof_C 	C 	0.0804	0.2571	0.1317	-0.102
Mof_H 	H 	0.1171	0.2399	0.1386	0.069
Mof_C 	C 	0.0106	0.3355	0.13925	-0.106
Mof_H 	H 	0.9994	0.3714	0.1515	0.077
Mof_C 	C 	0.0014	0.406	0.3255	0.013
Mof_H 	H 	0.0221	0.4126	0.3496	0.028
Mof_C 	C 	0.5011	0.3286	0.0289	-0.002
Mof_H 	H 	0.5214	0.3201	0.0049	0.029
Mof_C 	C 	0.4379	0.3405	0.0349	0.015
Mof_H 	H 	0.4101	0.344	0.0139	0.019
Mof_C 	C 	0.9416	0.4084	0.32	0.004
Mof_H 	H 	0.9136	0.4145	0.3406	0.043
Mof_C 	C 	0.2155	0.194	0.3625	0.004
Mof_H 	H 	0.2095	0.1636	0.3814	0.024
Mof_C 	C 	0.1724	0.2306	0.3484	0.006
Mof_H 	H 	0.1319	0.2298	0.3554	0.025
Mof_N 	N 	0.7872	0.1786	0.01968	-0.139
Mof_C 	C 	0.7702	0.2227	0.043	0.105
Mof_H 	H 	0.7961	0.2501	0.0552	0.012
Mof_C 	C 	0.7385	0.1471	0.0096	0.002
Mof_H 	H 	0.7381	0.1113	0.995	0.051
Mof_C 	C 	0.6895	0.176	0.0243	0.016
Mof_H 	H 	0.6496	0.1656	0.0197	0.025
Mof_Cd	Cd	0.3359	0.88553	0.75245	0.433
Mof_Cd	Cd	0.83691	0.86036	0.60486	0.305
Mof_O 	O 	0.3749	0.9173	0.69016	-0.273
Mof_O 	O 	0.3856	0.819	0.68769	-0.264
Mof_O 	O 	0.47486	0.70676	0.53006	-0.266
Mof_O 	O 	0.39703	0.70737	0.57266	-0.254
Mof_N 	N 	0.9248	0.8457	0.57339	-0.163
Mof_N 	N 	0.0236	0.8328	0.56757	-0.167
Mof_N 	N 	0.2465	0.8828	0.71344	-0.135
Mof_N 	N 	0.1901	0.8645	0.65955	-0.165
Mof_N 	N 	0.7566	0.8873	0.64521	-0.152
Mof_N 	N 	0.6994	0.8906	0.70053	-0.163
Mof_N 	N 	0.5256	0.892	0.78872	-0.168
Mof_N 	N 	0.6994	0.7692	0.82176	-0.167
Mof_N 	N 	0.7685	0.7075	0.84555	-0.157
Mof_N 	N 	0.4281	0.9006	0.7802	-0.143
Mof_C 	C 	0.199	0.7939	0.6029	-0.295
Mof_H 	H 	0.238	0.7845	0.6108	0.145
Mof_C 	C 	0.2114	0.9317	0.7051	-0.007
Mof_H 	H 	0.2116	0.9673	0.7199	0.044
Mof_C 	C 	0.1737	0.7661	0.5692	0.247
Mof_N 	N 	0.2095	0.7234	0.54703	-0.163
Mof_C 	C 	0.1664	0.8352	0.62476	0.228
Mof_C 	C 	0.1765	0.9208	0.6723	0.016
Mof_H 	H 	0.1486	0.9469	0.6608	0.017
Mof_C 	C 	0.2316	0.8428	0.6852	0.101
Mof_H 	H 	0.2481	0.8045	0.6833	0.007
Mof_C 	C 	0.1075	0.8499	0.612	-0.285
Mof_H 	H 	0.0854	0.8791	0.6256	0.131
Mof_C 	C 	0.0838	0.8206	0.5793	0.235
Mof_C 	C 	0.1171	0.7772	0.5583	-0.304
Mof_H 	H 	0.0998	0.7563	0.5368	0.141
Mof_C 	C 	0.9781	0.8425	0.5915	0.108
Mof_H 	H 	0.9826	0.8469	0.6195	-0.015
Mof_C 	C 	0.4518	0.7208	0.5638	0.284
Mof_C 	C 	0.6983	0.8325	0.76126	-0.3
Mof_H 	H 	0.7365	0.8185	0.7549	0.138
Mof_C 	C 	0.5859	0.8731	0.78142	0.244
Mof_C 	C 	0.6139	0.8321	0.8059	-0.308
Mof_H 	H 	0.5948	0.8175	0.829	0.143
Mof_C 	C 	0.4793	0.8866	0.76426	0.122
Mof_H 	H 	0.483	0.8737	0.7375	0.002
Mof_C 	C 	0.6134	0.8943	0.7462	-0.287
Mof_H 	H 	0.5942	0.9224	0.7297	0.144
Mof_C 	C 	0.6702	0.8725	0.73605	0.246
Mof_C 	C 	0.67	0.8129	0.7962	0.245
Mof_C 	C 	0.3269	0.9031	0.6092	0.021
Mof_H 	H 	0.3027	0.9241	0.6273	0.033
Mof_C 	C 	0.3769	0.8716	0.62466	-0.089
Mof_C 	C 	0.381	0.8674	0.671	0.303
Mof_C 	C 	0.3127	0.9044	0.57	-0.091
Mof_H 	H 	0.2785	0.9241	0.5607	0.061
Mof_C 	C 	0.4892	0.7538	0.5937	-0.095
Mof_C 	C 	0.4151	0.8414	0.59814	0.048
Mof_C 	C 	0.4021	0.8447	0.55653	-0.094
Mof_H 	H 	0.4279	0.8265	0.538	0.072
Mof_C 	C 	0.4716	0.8086	0.61095	0.056
Mof_C 	C 	0.3526	0.8737	0.5427	0.014
Mof_H 	H 	0.3444	0.8738	0.515	0.029
Mof_C 	C 	0.5438	0.7292	0.6048	0.033
Mof_H 	H 	0.5557	0.6928	0.5936	0.031
Mof_C 	C 	0.7325	0.9454	0.6502	-0.004
Mof_H 	H 	0.7401	0.9777	0.6331	0.028
Mof_C 	C 	0.7337	0.8563	0.6756	0.1
Mof_H 	H 	0.7404	0.8155	0.6795	-0.006
Mof_C 	C 	0.7564	0.751	0.8208	0.114
Mof_H 	H 	0.785	0.7681	0.8038	-0.015
Mof_C 	C 	0.6981	0.9475	0.6823	0.005
Mof_H 	H 	0.6767	0.9807	0.6914	0.05
Mof_C 	C 	0.5633	0.8109	0.6489	0.033
Mof_H 	H 	0.5885	0.8301	0.6673	0.024
Mof_C 	C 	0.5804	0.7571	0.6317	-0.102
Mof_H 	H 	0.6171	0.7399	0.6386	0.069
Mof_C 	C 	0.5106	0.8355	0.63925	-0.106
Mof_H 	H 	0.4994	0.8714	0.6515	0.077
Mof_C 	C 	0.5014	0.906	0.8255	0.013
Mof_H 	H 	0.5221	0.9126	0.8496	0.028
Mof_C 	C 	0.0011	0.8286	0.5289	-0.002
Mof_H 	H 	0.0214	0.8201	0.5049	0.029
Mof_C 	C 	0.9379	0.8405	0.5349	0.015
Mof_H 	H 	0.9101	0.844	0.5139	0.019
Mof_C 	C 	0.4416	0.9084	0.82	0.004
Mof_H 	H 	0.4136	0.9145	0.8406	0.044
Mof_C 	C 	0.7155	0.694	0.8625	0.004
Mof_H 	H 	0.7095	0.6636	0.8814	0.025
Mof_C 	C 	0.6724	0.7306	0.8484	0.006
Mof_H 	H 	0.6319	0.7298	0.8554	0.025
Mof_N 	N 	0.2872	0.6786	0.51968	-0.14
Mof_C 	C 	0.2702	0.7227	0.543	0.106
Mof_H 	H 	0.2961	0.7501	0.5552	0.012
Mof_C 	C 	0.2385	0.6471	0.5096	0.011
Mof_H 	H 	0.2381	0.6113	0.495	0.046
Mof_C 	C 	0.1895	0.676	0.5243	0.012
Mof_H 	H 	0.1496	0.6656	0.5197	0.027
Mof_Cd	Cd	0.6641	0.11447	0.75245	0.433
Mof_Cd	Cd	0.16309	0.13964	0.60486	0.305
Mof_O 	O 	0.6251	0.0827	0.69016	-0.273
Mof_O 	O 	0.6144	0.181	0.68769	-0.264
Mof_O 	O 	0.52514	0.29324	0.53006	-0.266
Mof_O 	O 	0.60297	0.29263	0.57266	-0.254
Mof_N 	N 	0.0752	0.1543	0.57339	-0.163
Mof_N 	N 	0.9764	0.1672	0.56757	-0.167
Mof_N 	N 	0.7535	0.1172	0.71344	-0.135
Mof_N 	N 	0.8099	0.1355	0.65955	-0.165
Mof_N 	N 	0.2434	0.1127	0.64521	-0.152
Mof_N 	N 	0.3006	0.1094	0.70053	-0.163
Mof_N 	N 	0.4744	0.108	0.78872	-0.168
Mof_N 	N 	0.3006	0.2308	0.82176	-0.167
Mof_N 	N 	0.2315	0.2925	0.84555	-0.157
Mof_N 	N 	0.5719	0.0994	0.7802	-0.143
Mof_C 	C 	0.801	0.2061	0.6029	-0.295
Mof_H 	H 	0.762	0.2155	0.6108	0.145
Mof_C 	C 	0.7886	0.0683	0.7051	-0.007
Mof_H 	H 	0.7884	0.0327	0.7199	0.044
Mof_C 	C 	0.8263	0.2339	0.5692	0.247
Mof_N 	N 	0.7905	0.2766	0.54703	-0.163
Mof_C 	C 	0.8336	0.1648	0.62476	0.228
Mof_C 	C 	0.8235	0.0792	0.6723	0.016
Mof_H 	H 	0.8514	0.0531	0.6608	0.017
Mof_C 	C 	0.7684	0.1572	0.6852	0.101
Mof_H 	H 	0.7519	0.1955	0.6833	0.007
Mof_C 	C 	0.8925	0.1501	0.612	-0.285
Mof_H 	H 	0.9146	0.1209	0.6256	0.131
Mof_C 	C 	0.9162	0.1794	0.5793	0.235
Mof_C 	C 	0.8829	0.2228	0.5583	-0.304
Mof_H 	H 	0.9002	0.2437	0.5368	0.141
Mof_C 	C 	0.0219	0.1575	0.5915	0.108
Mof_H 	H 	0.0174	0.1531	0.6195	-0.015
Mof_C 	C 	0.5482	0.2792	0.5638	0.284
Mof_C 	C 	0.3017	0.1675	0.76126	-0.3
Mof_H 	H 	0.2635	0.1815	0.7549	0.138
Mof_C 	C 	0.4141	0.1269	0.78142	0.244
Mof_C 	C 	0.3861	0.1679	0.8059	-0.308
Mof_H 	H 	0.4052	0.1825	0.829	0.143
Mof_C 	C 	0.5207	0.1134	0.76426	0.122
Mof_H 	H 	0.517	0.1263	0.7375	0.002
Mof_C 	C 	0.3866	0.1057	0.7462	-0.287
Mof_H 	H 	0.4058	0.0776	0.7297	0.144
Mof_C 	C 	0.3298	0.1275	0.73605	0.246
Mof_C 	C 	0.33	0.1871	0.7962	0.245
Mof_C 	C 	0.6731	0.0969	0.6092	0.021
Mof_H 	H 	0.6973	0.0759	0.6273	0.033
Mof_C 	C 	0.6231	0.1284	0.62466	-0.089
Mof_C 	C 	0.619	0.1326	0.671	0.303
Mof_C 	C 	0.6873	0.0956	0.57	-0.091
Mof_H 	H 	0.7215	0.0759	0.5607	0.061
Mof_C 	C 	0.5108	0.2462	0.5937	-0.095
Mof_C 	C 	0.5849	0.1586	0.59814	0.048
Mof_C 	C 	0.5979	0.1553	0.55653	-0.094
Mof_H 	H 	0.5721	0.1735	0.538	0.072
Mof_C 	C 	0.5284	0.1914	0.61095	0.056
Mof_C 	C 	0.6474	0.1263	0.5427	0.014
Mof_H 	H 	0.6556	0.1262	0.515	0.029
Mof_C 	C 	0.4562	0.2708	0.6048	0.033
Mof_H 	H 	0.4443	0.3072	0.5936	0.031
Mof_C 	C 	0.2675	0.0546	0.6502	-0.004
Mof_H 	H 	0.2599	0.0223	0.6331	0.028
Mof_C 	C 	0.2663	0.1437	0.6756	0.1
Mof_H 	H 	0.2596	0.1845	0.6795	-0.006
Mof_C 	C 	0.2436	0.249	0.8208	0.114
Mof_H 	H 	0.215	0.2319	0.8038	-0.015
Mof_C 	C 	0.3019	0.0525	0.6823	0.005
Mof_H 	H 	0.3233	0.0193	0.6914	0.05
Mof_C 	C 	0.4367	0.1891	0.6489	0.033
Mof_H 	H 	0.4115	0.1699	0.6673	0.024
Mof_C 	C 	0.4196	0.2429	0.6317	-0.102
Mof_H 	H 	0.3829	0.2601	0.6386	0.069
Mof_C 	C 	0.4894	0.1645	0.63925	-0.106
Mof_H 	H 	0.5006	0.1286	0.6515	0.077
Mof_C 	C 	0.4986	0.094	0.8255	0.013
Mof_H 	H 	0.4779	0.0874	0.8496	0.028
Mof_C 	C 	0.9989	0.1714	0.5289	-0.002
Mof_H 	H 	0.9786	0.1799	0.5049	0.029
Mof_C 	C 	0.0621	0.1595	0.5349	0.015
Mof_H 	H 	0.0899	0.156	0.5139	0.019
Mof_C 	C 	0.5584	0.0916	0.82	0.004
Mof_H 	H 	0.5864	0.0855	0.8406	0.044
Mof_C 	C 	0.2845	0.306	0.8625	0.004
Mof_H 	H 	0.2905	0.3364	0.8814	0.025
Mof_C 	C 	0.3276	0.2694	0.8484	0.006
Mof_H 	H 	0.3681	0.2702	0.8554	0.025
Mof_N 	N 	0.7128	0.3214	0.51968	-0.14
Mof_C 	C 	0.7298	0.2773	0.543	0.106
Mof_H 	H 	0.7039	0.2499	0.5552	0.012
Mof_C 	C 	0.7615	0.3529	0.5096	0.011
Mof_H 	H 	0.7619	0.3887	0.495	0.046
Mof_C 	C 	0.8105	0.324	0.5243	0.012
Mof_H 	H 	0.8504	0.3344	0.5197	0.027
Mof_Cd	Cd	0.1641	0.61447	0.25245	0.433
Mof_Cd	Cd	0.66309	0.63964	0.10486	0.305
Mof_O 	O 	0.1251	0.5827	0.19016	-0.273
Mof_O 	O 	0.1144	0.681	0.18769	-0.264
Mof_O 	O 	0.02514	0.79324	0.03006	-0.267
Mof_O 	O 	0.10297	0.79263	0.07266	-0.254
Mof_N 	N 	0.5752	0.6543	0.07339	-0.163
Mof_N 	N 	0.4764	0.6672	0.06757	-0.168
Mof_N 	N 	0.2535	0.6172	0.21344	-0.135
Mof_N 	N 	0.3099	0.6355	0.15955	-0.165
Mof_N 	N 	0.7434	0.6127	0.14521	-0.152
Mof_N 	N 	0.8006	0.6094	0.20053	-0.163
Mof_N 	N 	0.9744	0.608	0.28872	-0.168
Mof_N 	N 	0.8006	0.7308	0.32176	-0.167
Mof_N 	N 	0.7315	0.7925	0.34555	-0.157
Mof_N 	N 	0.0719	0.5994	0.2802	-0.143
Mof_C 	C 	0.301	0.7061	0.1029	-0.295
Mof_H 	H 	0.262	0.7155	0.1108	0.145
Mof_C 	C 	0.2886	0.5683	0.2051	-0.007
Mof_H 	H 	0.2884	0.5327	0.2199	0.044
Mof_C 	C 	0.3263	0.7339	0.0692	0.247
Mof_N 	N 	0.2905	0.7766	0.04703	-0.163
Mof_C 	C 	0.3336	0.6648	0.12476	0.228
Mof_C 	C 	0.3235	0.5792	0.1723	0.015
Mof_H 	H 	0.3514	0.5531	0.1608	0.017
Mof_C 	C 	0.2684	0.6572	0.1852	0.101
Mof_H 	H 	0.2519	0.6955	0.1833	0.007
Mof_C 	C 	0.3925	0.6501	0.112	-0.285
Mof_H 	H 	0.4146	0.6209	0.1256	0.131
Mof_C 	C 	0.4162	0.6794	0.0793	0.235
Mof_C 	C 	0.3829	0.7228	0.0583	-0.304
Mof_H 	H 	0.4002	0.7437	0.0368	0.141
Mof_C 	C 	0.5219	0.6575	0.0915	0.108
Mof_H 	H 	0.5174	0.6531	0.1195	-0.015
Mof_C 	C 	0.0482	0.7792	0.0638	0.284
Mof_C 	C 	0.8017	0.6675	0.26126	-0.3
Mof_H 	H 	0.7635	0.6815	0.2549	0.138
Mof_C 	C 	0.9141	0.6269	0.28142	0.244
Mof_C 	C 	0.8861	0.6679	0.3059	-0.308
Mof_H 	H 	0.9052	0.6825	0.329	0.142
Mof_C 	C 	0.0207	0.6134	0.26426	0.122
Mof_H 	H 	0.017	0.6263	0.2375	0.002
Mof_C 	C 	0.8866	0.6057	0.2462	-0.287
Mof_H 	H 	0.9058	0.5776	0.2297	0.144
Mof_C 	C 	0.8298	0.6275	0.23605	0.246
Mof_C 	C 	0.83	0.6871	0.2962	0.245
Mof_C 	C 	0.1731	0.5969	0.1092	0.021
Mof_H 	H 	0.1973	0.5759	0.1273	0.033
Mof_C 	C 	0.1231	0.6284	0.12466	-0.089
Mof_C 	C 	0.119	0.6326	0.171	0.303
Mof_C 	C 	0.1873	0.5956	0.07	-0.091
Mof_H 	H 	0.2215	0.5759	0.0607	0.06
Mof_C 	C 	0.0108	0.7462	0.0937	-0.095
Mof_C 	C 	0.0849	0.6586	0.09814	0.048
Mof_C 	C 	0.0979	0.6553	0.05653	-0.094
Mof_H 	H 	0.0721	0.6735	0.038	0.071
Mof_C 	C 	0.0284	0.6914	0.11095	0.057
Mof_C 	C 	0.1474	0.6263	0.0427	0.013
Mof_H 	H 	0.1556	0.6262	0.015	0.028
Mof_C 	C 	0.9562	0.7708	0.1048	0.034
Mof_H 	H 	0.9443	0.8072	0.0936	0.031
Mof_C 	C 	0.7675	0.5546	0.1502	-0.004
Mof_H 	H 	0.7599	0.5223	0.1331	0.028
Mof_C 	C 	0.7663	0.6437	0.1756	0.1
Mof_H 	H 	0.7596	0.6845	0.1795	-0.006
Mof_C 	C 	0.7436	0.749	0.3208	0.114
Mof_H 	H 	0.715	0.7319	0.3038	-0.015
Mof_C 	C 	0.8019	0.5525	0.1823	0.005
Mof_H 	H 	0.8233	0.5193	0.1914	0.05
Mof_C 	C 	0.9367	0.6891	0.1489	0.034
Mof_H 	H 	0.9115	0.6699	0.1673	0.024
Mof_C 	C 	0.9196	0.7429	0.1317	-0.102
Mof_H 	H 	0.8829	0.7601	0.1386	0.069
Mof_C 	C 	0.9894	0.6645	0.13925	-0.106
Mof_H 	H 	0.0006	0.6286	0.1515	0.077
Mof_C 	C 	0.9986	0.594	0.3255	0.013
Mof_H 	H 	0.9779	0.5874	0.3496	0.028
Mof_C 	C 	0.4989	0.6714	0.0289	-0.002
Mof_H 	H 	0.4786	0.6799	0.0049	0.029
Mof_C 	C 	0.5621	0.6595	0.0349	0.015
Mof_H 	H 	0.5899	0.656	0.0139	0.019
Mof_C 	C 	0.0584	0.5916	0.32	0.004
Mof_H 	H 	0.0864	0.5855	0.3406	0.043
Mof_C 	C 	0.7845	0.806	0.3625	0.004
Mof_H 	H 	0.7905	0.8364	0.3814	0.024
Mof_C 	C 	0.8276	0.7694	0.3484	0.006
Mof_H 	H 	0.8681	0.7702	0.3554	0.025
Mof_N 	N 	0.2128	0.8214	0.01968	-0.139
Mof_C 	C 	0.2298	0.7773	0.043	0.105
Mof_H 	H 	0.2039	0.7499	0.0552	0.012
Mof_C 	C 	0.2615	0.8529	0.0096	0.002
Mof_H 	H 	0.2619	0.8887	0.995	0.051
Mof_C 	C 	0.3105	0.824	0.0243	0.016
Mof_H 	H 	0.3504	0.8344	0.0197	0.025
Mof_Cd	Cd	0.61447	0.3359	0.50245	0.433
Mof_Cd	Cd	0.63964	0.83691	0.35486	0.305
Mof_O 	O 	0.5827	0.3749	0.44016	-0.273
Mof_O 	O 	0.681	0.3856	0.43769	-0.264
Mof_O 	O 	0.79324	0.47486	0.28006	-0.266
Mof_O 	O 	0.79263	0.39703	0.32266	-0.254
Mof_N 	N 	0.6543	0.9248	0.32339	-0.163
Mof_N 	N 	0.6672	0.0236	0.31757	-0.168
Mof_N 	N 	0.6172	0.2465	0.46344	-0.135
Mof_N 	N 	0.6355	0.1901	0.40955	-0.165
Mof_N 	N 	0.6127	0.7566	0.39521	-0.152
Mof_N 	N 	0.6094	0.6994	0.45053	-0.163
Mof_N 	N 	0.608	0.5256	0.53872	-0.168
Mof_N 	N 	0.7308	0.6994	0.57176	-0.167
Mof_N 	N 	0.7925	0.7685	0.59555	-0.157
Mof_N 	N 	0.5994	0.4281	0.5302	-0.143
Mof_C 	C 	0.7061	0.199	0.3529	-0.295
Mof_H 	H 	0.7155	0.238	0.3608	0.145
Mof_C 	C 	0.5683	0.2114	0.4551	-0.007
Mof_H 	H 	0.5327	0.2116	0.4699	0.044
Mof_C 	C 	0.7339	0.1737	0.3192	0.247
Mof_N 	N 	0.7766	0.2095	0.29703	-0.163
Mof_C 	C 	0.6648	0.1664	0.37476	0.228
Mof_C 	C 	0.5792	0.1765	0.4223	0.016
Mof_H 	H 	0.5531	0.1486	0.4108	0.017
Mof_C 	C 	0.6572	0.2316	0.4352	0.101
Mof_H 	H 	0.6955	0.2481	0.4333	0.007
Mof_C 	C 	0.6501	0.1075	0.362	-0.285
Mof_H 	H 	0.6209	0.0854	0.3756	0.131
Mof_C 	C 	0.6794	0.0838	0.3293	0.235
Mof_C 	C 	0.7228	0.1171	0.3083	-0.304
Mof_H 	H 	0.7437	0.0998	0.2868	0.141
Mof_C 	C 	0.6575	0.9781	0.3415	0.108
Mof_H 	H 	0.6531	0.9826	0.3695	-0.015
Mof_C 	C 	0.7792	0.4518	0.3138	0.284
Mof_C 	C 	0.6675	0.6983	0.51126	-0.3
Mof_H 	H 	0.6815	0.7365	0.5049	0.138
Mof_C 	C 	0.6269	0.5859	0.53142	0.244
Mof_C 	C 	0.6679	0.6139	0.5559	-0.308
Mof_H 	H 	0.6825	0.5948	0.579	0.143
Mof_C 	C 	0.6134	0.4793	0.51426	0.122
Mof_H 	H 	0.6263	0.483	0.4875	0.002
Mof_C 	C 	0.6057	0.6134	0.4962	-0.287
Mof_H 	H 	0.5776	0.5942	0.4797	0.144
Mof_C 	C 	0.6275	0.6702	0.48605	0.246
Mof_C 	C 	0.6871	0.67	0.5462	0.245
Mof_C 	C 	0.5969	0.3269	0.3592	0.021
Mof_H 	H 	0.5759	0.3027	0.3773	0.033
Mof_C 	C 	0.6284	0.3769	0.37466	-0.089
Mof_C 	C 	0.6326	0.381	0.421	0.303
Mof_C 	C 	0.5956	0.3127	0.32	-0.091
Mof_H 	H 	0.5759	0.2785	0.3107	0.06
Mof_C 	C 	0.7462	0.4892	0.3437	-0.095
Mof_C 	C 	0.6586	0.4151	0.34814	0.048
Mof_C 	C 	0.6553	0.4021	0.30653	-0.094
Mof_H 	H 	0.6735	0.4279	0.288	0.072
Mof_C 	C 	0.6914	0.4716	0.36095	0.056
Mof_C 	C 	0.6263	0.3526	0.2927	0.014
Mof_H 	H 	0.6262	0.3444	0.265	0.029
Mof_C 	C 	0.7708	0.5438	0.3548	0.033
Mof_H 	H 	0.8072	0.5557	0.3436	0.031
Mof_C 	C 	0.5546	0.7325	0.4002	-0.004
Mof_H 	H 	0.5223	0.7401	0.3831	0.028
Mof_C 	C 	0.6437	0.7337	0.4256	0.1
Mof_H 	H 	0.6845	0.7404	0.4295	-0.006
Mof_C 	C 	0.749	0.7564	0.5708	0.114
Mof_H 	H 	0.7319	0.785	0.5538	-0.015
Mof_C 	C 	0.5525	0.6981	0.4323	0.005
Mof_H 	H 	0.5193	0.6767	0.4414	0.05
Mof_C 	C 	0.6891	0.5633	0.3989	0.033
Mof_H 	H 	0.6699	0.5885	0.4173	0.024
Mof_C 	C 	0.7429	0.5804	0.3817	-0.102
Mof_H 	H 	0.7601	0.6171	0.3886	0.069
Mof_C 	C 	0.6645	0.5106	0.38925	-0.105
Mof_H 	H 	0.6286	0.4994	0.4015	0.077
Mof_C 	C 	0.594	0.5014	0.5755	0.013
Mof_H 	H 	0.5874	0.5221	0.5996	0.028
Mof_C 	C 	0.6714	0.0011	0.2789	-0.002
Mof_H 	H 	0.6799	0.0214	0.2549	0.029
Mof_C 	C 	0.6595	0.9379	0.2849	0.015
Mof_H 	H 	0.656	0.9101	0.2639	0.019
Mof_C 	C 	0.5916	0.4416	0.57	0.004
Mof_H 	H 	0.5855	0.4136	0.5906	0.043
Mof_C 	C 	0.806	0.7155	0.6125	0.004
Mof_H 	H 	0.8364	0.7095	0.6314	0.024
Mof_C 	C 	0.7694	0.6724	0.5984	0.006
Mof_H 	H 	0.7702	0.6319	0.6054	0.025
Mof_N 	N 	0.8214	0.2872	0.26968	-0.14
Mof_C 	C 	0.7773	0.2702	0.293	0.106
Mof_H 	H 	0.7499	0.2961	0.3052	0.012
Mof_C 	C 	0.8529	0.2385	0.2596	0.011
Mof_H 	H 	0.8887	0.2381	0.245	0.046
Mof_C 	C 	0.824	0.1895	0.2743	0.012
Mof_H 	H 	0.8344	0.1496	0.2697	0.027
Mof_Cd	Cd	0.11447	0.8359	0.00245	0.431
Mof_Cd	Cd	0.13964	0.33691	0.85486	0.305
Mof_O 	O 	0.0827	0.8749	0.94016	-0.272
Mof_O 	O 	0.181	0.8856	0.93769	-0.263
Mof_O 	O 	0.29324	0.97486	0.78006	-0.266
Mof_O 	O 	0.29263	0.89703	0.82266	-0.254
Mof_N 	N 	0.1543	0.4248	0.82339	-0.163
Mof_N 	N 	0.1672	0.5236	0.81757	-0.168
Mof_N 	N 	0.1172	0.7465	0.96344	-0.134
Mof_N 	N 	0.1355	0.6901	0.90955	-0.165
Mof_N 	N 	0.1127	0.2566	0.89521	-0.152
Mof_N 	N 	0.1094	0.1994	0.95053	-0.164
Mof_N 	N 	0.108	0.0256	0.03872	-0.167
Mof_N 	N 	0.2308	0.1994	0.07176	-0.167
Mof_N 	N 	0.2925	0.2685	0.09555	-0.157
Mof_N 	N 	0.0994	0.9281	0.0302	-0.143
Mof_C 	C 	0.2061	0.699	0.8529	-0.295
Mof_H 	H 	0.2155	0.738	0.8608	0.145
Mof_C 	C 	0.0683	0.7114	0.9551	-0.007
Mof_H 	H 	0.0327	0.7116	0.9699	0.045
Mof_C 	C 	0.2339	0.6737	0.8192	0.247
Mof_N 	N 	0.2766	0.7095	0.79703	-0.163
Mof_C 	C 	0.1648	0.6664	0.87476	0.228
Mof_C 	C 	0.0792	0.6765	0.9223	0.016
Mof_H 	H 	0.0531	0.6486	0.9108	0.018
Mof_C 	C 	0.1572	0.7316	0.9352	0.101
Mof_H 	H 	0.1955	0.7481	0.9333	0.007
Mof_C 	C 	0.1501	0.6075	0.862	-0.286
Mof_H 	H 	0.1209	0.5854	0.8756	0.131
Mof_C 	C 	0.1794	0.5838	0.8293	0.235
Mof_C 	C 	0.2228	0.6171	0.8083	-0.304
Mof_H 	H 	0.2437	0.5998	0.7868	0.141
Mof_C 	C 	0.1575	0.4781	0.8415	0.108
Mof_H 	H 	0.1531	0.4826	0.8695	-0.015
Mof_C 	C 	0.2792	0.9518	0.8138	0.284
Mof_C 	C 	0.1675	0.1983	0.01126	-0.304
Mof_H 	H 	0.1815	0.2365	0.0049	0.139
Mof_C 	C 	0.1269	0.0859	0.03142	0.24
Mof_C 	C 	0.1679	0.1139	0.0559	-0.307
Mof_H 	H 	0.1825	0.0948	0.079	0.142
Mof_C 	C 	0.1134	0.9793	0.01426	0.115
Mof_H 	H 	0.1263	0.983	0.9875	0.007
Mof_C 	C 	0.1057	0.1134	0.9962	-0.283
Mof_H 	H 	0.0776	0.0942	0.9797	0.144
Mof_C 	C 	0.1275	0.1702	0.98605	0.249
Mof_C 	C 	0.1871	0.17	0.0462	0.245
Mof_C 	C 	0.0969	0.8269	0.8592	0.021
Mof_H 	H 	0.0759	0.8027	0.8773	0.033
Mof_C 	C 	0.1284	0.8769	0.87466	-0.089
Mof_C 	C 	0.1326	0.881	0.921	0.303
Mof_C 	C 	0.0956	0.8127	0.82	-0.091
Mof_H 	H 	0.0759	0.7785	0.8107	0.06
Mof_C 	C 	0.2462	0.9892	0.8437	-0.095
Mof_C 	C 	0.1586	0.9151	0.84814	0.048
Mof_C 	C 	0.1553	0.9021	0.80653	-0.094
Mof_H 	H 	0.1735	0.9279	0.788	0.072
Mof_C 	C 	0.1914	0.9716	0.86095	0.057
Mof_C 	C 	0.1263	0.8526	0.7927	0.013
Mof_H 	H 	0.1262	0.8444	0.765	0.029
Mof_C 	C 	0.2708	0.0438	0.8548	0.034
Mof_H 	H 	0.3072	0.0557	0.8436	0.031
Mof_C 	C 	0.0546	0.2325	0.9002	-0.004
Mof_H 	H 	0.0223	0.2401	0.8831	0.028
Mof_C 	C 	0.1437	0.2337	0.9256	0.1
Mof_H 	H 	0.1845	0.2404	0.9295	-0.005
Mof_C 	C 	0.249	0.2564	0.0708	0.114
Mof_H 	H 	0.2319	0.285	0.0538	-0.015
Mof_C 	C 	0.0525	0.1981	0.9323	0.005
Mof_H 	H 	0.0193	0.1767	0.9414	0.05
Mof_C 	C 	0.1891	0.0633	0.8989	0.034
Mof_H 	H 	0.1699	0.0885	0.9173	0.024
Mof_C 	C 	0.2429	0.0804	0.8817	-0.102
Mof_H 	H 	0.2601	0.1171	0.8886	0.069
Mof_C 	C 	0.1645	0.0106	0.88925	-0.106
Mof_H 	H 	0.1286	0.9994	0.9015	0.077
Mof_C 	C 	0.094	0.0014	0.0755	0.013
Mof_H 	H 	0.0874	0.0221	0.0996	0.028
Mof_C 	C 	0.1714	0.5011	0.7789	-0.002
Mof_H 	H 	0.1799	0.5214	0.7549	0.029
Mof_C 	C 	0.1595	0.4379	0.7849	0.015
Mof_H 	H 	0.156	0.4101	0.7639	0.019
Mof_C 	C 	0.0916	0.9416	0.07	0.004
Mof_H 	H 	0.0855	0.9136	0.0906	0.043
Mof_C 	C 	0.306	0.2155	0.1125	0.004
Mof_H 	H 	0.3364	0.2095	0.1314	0.024
Mof_C 	C 	0.2694	0.1724	0.0984	0.006
Mof_H 	H 	0.2702	0.1319	0.1054	0.025
Mof_N 	N 	0.3214	0.7872	0.76968	-0.14
Mof_C 	C 	0.2773	0.7702	0.793	0.106
Mof_H 	H 	0.2499	0.7961	0.8052	0.012
Mof_C 	C 	0.3529	0.7385	0.7596	0.011
Mof_H 	H 	0.3887	0.7381	0.745	0.046
Mof_C 	C 	0.324	0.6895	0.7743	0.012
Mof_H 	H 	0.3344	0.6496	0.7697	0.027
Mof_Cd	Cd	0.88553	0.1641	0.00245	0.431
Mof_Cd	Cd	0.86036	0.66309	0.85486	0.305
Mof_O 	O 	0.9173	0.1251	0.94016	-0.272
Mof_O 	O 	0.819	0.1144	0.93769	-0.263
Mof_O 	O 	0.70676	0.02514	0.78006	-0.266
Mof_O 	O 	0.70737	0.10297	0.82266	-0.254
Mof_N 	N 	0.8457	0.5752	0.82339	-0.163
Mof_N 	N 	0.8328	0.4764	0.81757	-0.168
Mof_N 	N 	0.8828	0.2535	0.96344	-0.134
Mof_N 	N 	0.8645	0.3099	0.90955	-0.165
Mof_N 	N 	0.8873	0.7434	0.89521	-0.152
Mof_N 	N 	0.8906	0.8006	0.95053	-0.164
Mof_N 	N 	0.892	0.9744	0.03872	-0.167
Mof_N 	N 	0.7692	0.8006	0.07176	-0.167
Mof_N 	N 	0.7075	0.7315	0.09555	-0.157
Mof_N 	N 	0.9006	0.0719	0.0302	-0.143
Mof_C 	C 	0.7939	0.301	0.8529	-0.295
Mof_H 	H 	0.7845	0.262	0.8608	0.145
Mof_C 	C 	0.9317	0.2886	0.9551	-0.007
Mof_H 	H 	0.9673	0.2884	0.9699	0.045
Mof_C 	C 	0.7661	0.3263	0.8192	0.247
Mof_N 	N 	0.7234	0.2905	0.79703	-0.163
Mof_C 	C 	0.8352	0.3336	0.87476	0.228
Mof_C 	C 	0.9208	0.3235	0.9223	0.016
Mof_H 	H 	0.9469	0.3514	0.9108	0.018
Mof_C 	C 	0.8428	0.2684	0.9352	0.101
Mof_H 	H 	0.8045	0.2519	0.9333	0.007
Mof_C 	C 	0.8499	0.3925	0.862	-0.286
Mof_H 	H 	0.8791	0.4146	0.8756	0.131
Mof_C 	C 	0.8206	0.4162	0.8293	0.235
Mof_C 	C 	0.7772	0.3829	0.8083	-0.304
Mof_H 	H 	0.7563	0.4002	0.7868	0.141
Mof_C 	C 	0.8425	0.5219	0.8415	0.108
Mof_H 	H 	0.8469	0.5174	0.8695	-0.015
Mof_C 	C 	0.7208	0.0482	0.8138	0.284
Mof_C 	C 	0.8325	0.8017	0.01126	-0.304
Mof_H 	H 	0.8185	0.7635	0.0049	0.139
Mof_C 	C 	0.8731	0.9141	0.03142	0.24
Mof_C 	C 	0.8321	0.8861	0.0559	-0.307
Mof_H 	H 	0.8175	0.9052	0.079	0.142
Mof_C 	C 	0.8866	0.0207	0.01426	0.115
Mof_H 	H 	0.8737	0.017	0.9875	0.007
Mof_C 	C 	0.8943	0.8866	0.9962	-0.283
Mof_H 	H 	0.9224	0.9058	0.9797	0.144
Mof_C 	C 	0.8725	0.8298	0.98605	0.249
Mof_C 	C 	0.8129	0.83	0.0462	0.245
Mof_C 	C 	0.9031	0.1731	0.8592	0.021
Mof_H 	H 	0.9241	0.1973	0.8773	0.033
Mof_C 	C 	0.8716	0.1231	0.87466	-0.089
Mof_C 	C 	0.8674	0.119	0.921	0.303
Mof_C 	C 	0.9044	0.1873	0.82	-0.091
Mof_H 	H 	0.9241	0.2215	0.8107	0.06
Mof_C 	C 	0.7538	0.0108	0.8437	-0.095
Mof_C 	C 	0.8414	0.0849	0.84814	0.048
Mof_C 	C 	0.8447	0.0979	0.80653	-0.094
Mof_H 	H 	0.8265	0.0721	0.788	0.072
Mof_C 	C 	0.8086	0.0284	0.86095	0.057
Mof_C 	C 	0.8737	0.1474	0.7927	0.013
Mof_H 	H 	0.8738	0.1556	0.765	0.029
Mof_C 	C 	0.7292	0.9562	0.8548	0.034
Mof_H 	H 	0.6928	0.9443	0.8436	0.031
Mof_C 	C 	0.9454	0.7675	0.9002	-0.004
Mof_H 	H 	0.9777	0.7599	0.8831	0.028
Mof_C 	C 	0.8563	0.7663	0.9256	0.1
Mof_H 	H 	0.8155	0.7596	0.9295	-0.005
Mof_C 	C 	0.751	0.7436	0.0708	0.114
Mof_H 	H 	0.7681	0.715	0.0538	-0.015
Mof_C 	C 	0.9475	0.8019	0.9323	0.005
Mof_H 	H 	0.9807	0.8233	0.9414	0.05
Mof_C 	C 	0.8109	0.9367	0.8989	0.034
Mof_H 	H 	0.8301	0.9115	0.9173	0.024
Mof_C 	C 	0.7571	0.9196	0.8817	-0.102
Mof_H 	H 	0.7399	0.8829	0.8886	0.069
Mof_C 	C 	0.8355	0.9894	0.88925	-0.106
Mof_H 	H 	0.8714	0.0006	0.9015	0.077
Mof_C 	C 	0.906	0.9986	0.0755	0.013
Mof_H 	H 	0.9126	0.9779	0.0996	0.028
Mof_C 	C 	0.8286	0.4989	0.7789	-0.002
Mof_H 	H 	0.8201	0.4786	0.7549	0.029
Mof_C 	C 	0.8405	0.5621	0.7849	0.015
Mof_H 	H 	0.844	0.5899	0.7639	0.019
Mof_C 	C 	0.9084	0.0584	0.07	0.004
Mof_H 	H 	0.9145	0.0864	0.0906	0.043
Mof_C 	C 	0.694	0.7845	0.1125	0.004
Mof_H 	H 	0.6636	0.7905	0.1314	0.024
Mof_C 	C 	0.7306	0.8276	0.0984	0.006
Mof_H 	H 	0.7298	0.8681	0.1054	0.025
Mof_N 	N 	0.6786	0.2128	0.76968	-0.14
Mof_C 	C 	0.7227	0.2298	0.793	0.106
Mof_H 	H 	0.7501	0.2039	0.8052	0.012
Mof_C 	C 	0.6471	0.2615	0.7596	0.011
Mof_H 	H 	0.6113	0.2619	0.745	0.046
Mof_C 	C 	0.676	0.3105	0.7743	0.012
Mof_H 	H 	0.6656	0.3504	0.7697	0.027
Mof_Cd	Cd	0.38553	0.6641	0.50245	0.433
Mof_Cd	Cd	0.36036	0.16309	0.35486	0.305
Mof_O 	O 	0.4173	0.6251	0.44016	-0.273
Mof_O 	O 	0.319	0.6144	0.43769	-0.264
Mof_O 	O 	0.20676	0.52514	0.28006	-0.266
Mof_O 	O 	0.20737	0.60297	0.32266	-0.254
Mof_N 	N 	0.3457	0.0752	0.32339	-0.163
Mof_N 	N 	0.3328	0.9764	0.31757	-0.168
Mof_N 	N 	0.3828	0.7535	0.46344	-0.135
Mof_N 	N 	0.3645	0.8099	0.40955	-0.165
Mof_N 	N 	0.3873	0.2434	0.39521	-0.152
Mof_N 	N 	0.3906	0.3006	0.45053	-0.163
Mof_N 	N 	0.392	0.4744	0.53872	-0.168
Mof_N 	N 	0.2692	0.3006	0.57176	-0.167
Mof_N 	N 	0.2075	0.2315	0.59555	-0.157
Mof_N 	N 	0.4006	0.5719	0.5302	-0.143
Mof_C 	C 	0.2939	0.801	0.3529	-0.295
Mof_H 	H 	0.2845	0.762	0.3608	0.145
Mof_C 	C 	0.4317	0.7886	0.4551	-0.007
Mof_H 	H 	0.4673	0.7884	0.4699	0.044
Mof_C 	C 	0.2661	0.8263	0.3192	0.247
Mof_N 	N 	0.2234	0.7905	0.29703	-0.163
Mof_C 	C 	0.3352	0.8336	0.37476	0.228
Mof_C 	C 	0.4208	0.8235	0.4223	0.016
Mof_H 	H 	0.4469	0.8514	0.4108	0.017
Mof_C 	C 	0.3428	0.7684	0.4352	0.101
Mof_H 	H 	0.3045	0.7519	0.4333	0.007
Mof_C 	C 	0.3499	0.8925	0.362	-0.285
Mof_H 	H 	0.3791	0.9146	0.3756	0.131
Mof_C 	C 	0.3206	0.9162	0.3293	0.235
Mof_C 	C 	0.2772	0.8829	0.3083	-0.304
Mof_H 	H 	0.2563	0.9002	0.2868	0.141
Mof_C 	C 	0.3425	0.0219	0.3415	0.108
Mof_H 	H 	0.3469	0.0174	0.3695	-0.015
Mof_C 	C 	0.2208	0.5482	0.3138	0.284
Mof_C 	C 	0.3325	0.3017	0.51126	-0.3
Mof_H 	H 	0.3185	0.2635	0.5049	0.138
Mof_C 	C 	0.3731	0.4141	0.53142	0.244
Mof_C 	C 	0.3321	0.3861	0.5559	-0.308
Mof_H 	H 	0.3175	0.4052	0.579	0.143
Mof_C 	C 	0.3866	0.5207	0.51426	0.122
Mof_H 	H 	0.3737	0.517	0.4875	0.002
Mof_C 	C 	0.3943	0.3866	0.4962	-0.287
Mof_H 	H 	0.4224	0.4058	0.4797	0.144
Mof_C 	C 	0.3725	0.3298	0.48605	0.246
Mof_C 	C 	0.3129	0.33	0.5462	0.245
Mof_C 	C 	0.4031	0.6731	0.3592	0.021
Mof_H 	H 	0.4241	0.6973	0.3773	0.033
Mof_C 	C 	0.3716	0.6231	0.37466	-0.089
Mof_C 	C 	0.3674	0.619	0.421	0.303
Mof_C 	C 	0.4044	0.6873	0.32	-0.091
Mof_H 	H 	0.4241	0.7215	0.3107	0.06
Mof_C 	C 	0.2538	0.5108	0.3437	-0.095
Mof_C 	C 	0.3414	0.5849	0.34814	0.048
Mof_C 	C 	0.3447	0.5979	0.30653	-0.094
Mof_H 	H 	0.3265	0.5721	0.288	0.072
Mof_C 	C 	0.3086	0.5284	0.36095	0.056
Mof_C 	C 	0.3737	0.6474	0.2927	0.014
Mof_H 	H 	0.3738	0.6556	0.265	0.029
Mof_C 	C 	0.2292	0.4562	0.3548	0.033
Mof_H 	H 	0.1928	0.4443	0.3436	0.031
Mof_C 	C 	0.4454	0.2675	0.4002	-0.004
Mof_H 	H 	0.4777	0.2599	0.3831	0.028
Mof_C 	C 	0.3563	0.2663	0.4256	0.1
Mof_H 	H 	0.3155	0.2596	0.4295	-0.006
Mof_C 	C 	0.251	0.2436	0.5708	0.114
Mof_H 	H 	0.2681	0.215	0.5538	-0.015
Mof_C 	C 	0.4475	0.3019	0.4323	0.005
Mof_H 	H 	0.4807	0.3233	0.4414	0.05
Mof_C 	C 	0.3109	0.4367	0.3989	0.033
Mof_H 	H 	0.3301	0.4115	0.4173	0.024
Mof_C 	C 	0.2571	0.4196	0.3817	-0.102
Mof_H 	H 	0.2399	0.3829	0.3886	0.069
Mof_C 	C 	0.3355	0.4894	0.38925	-0.105
Mof_H 	H 	0.3714	0.5006	0.4015	0.077
Mof_C 	C 	0.406	0.4986	0.5755	0.013
Mof_H 	H 	0.4126	0.4779	0.5996	0.028
Mof_C 	C 	0.3286	0.9989	0.2789	-0.002
Mof_H 	H 	0.3201	0.9786	0.2549	0.029
Mof_C 	C 	0.3405	0.0621	0.2849	0.015
Mof_H 	H 	0.344	0.0899	0.2639	0.019
Mof_C 	C 	0.4084	0.5584	0.57	0.004
Mof_H 	H 	0.4145	0.5864	0.5906	0.043
Mof_C 	C 	0.194	0.2845	0.6125	0.004
Mof_H 	H 	0.1636	0.2905	0.6314	0.024
Mof_C 	C 	0.2306	0.3276	0.5984	0.006
Mof_H 	H 	0.2298	0.3681	0.6054	0.025
Mof_N 	N 	0.1786	0.7128	0.26968	-0.14
Mof_C 	C 	0.2227	0.7298	0.293	0.106
Mof_H 	H 	0.2501	0.7039	0.3052	0.012
Mof_C 	C 	0.1471	0.7615	0.2596	0.011
Mof_H 	H 	0.1113	0.7619	0.245	0.046
Mof_C 	C 	0.176	0.8105	0.2743	0.012
Mof_H 	H 	0.1656	0.8504	0.2697	0.027
_end
