# CIF file generated by openbabel 3.1.0, see https://openbabel.org
data_I
_chemical_name_common 'image0'
_cell_length_a 9.776
_cell_length_b 16.337
_cell_length_c 21.534
_cell_angle_alpha 103.82
_cell_angle_beta 100.74
_cell_angle_gamma 95.87
_space_group_name_H-M_alt 'P 1'
_space_group_name_Hall 'P 1'
loop_
    _symmetry_equiv_pos_as_xyz
    x,y,z
loop_
    _atom_site_label
    _atom_site_type_symbol
    _atom_site_fract_x
    _atom_site_fract_y
    _atom_site_fract_z
    _atom_site_occupancy
    La1      La       0.27874    0.52002    0.99834    1.000
    I1       I        0.76244    0.99304    0.49955    1.000
    I2       I        0.98235    0.77672    0.46579    1.000
    I3       I        0.08137    0.97505    0.66816    1.000
    I4       I        0.69872    0.78220    0.60712    1.000
    Cu1      Cu       0.01122    0.94095    0.53717    1.000
    Cu2      Cu       0.75150    0.82579    0.49858    1.000
    Cu3      Cu       0.81525    0.94112    0.61767    1.000
    Cu4      Cu       0.95984    0.81265    0.59212    1.000
    O1       O        0.17020    0.55490    0.09420    1.000
    O2       O        0.94900    0.48970    0.07620    1.000
    O3       O        0.54150    0.36410    0.92680    1.000
    O4       O        0.32790    0.40180    0.91500    1.000
    O5       O        0.35300    0.58790    0.91530    1.000
    O6       O        0.56150    0.54750    0.93560    1.000
    N1       N        0.57570    0.76280    0.43080    1.000
    N2       N        0.70300    0.02120    0.66430    1.000
    N3       N        0.09580    0.74730    0.63340    1.000
    C1       C        0.45160    0.78650    0.43530    1.000
    H1       H        0.44790    0.83430    0.46830    1.000
    C2       C        0.32680    0.74280    0.39270    1.000
    H2       H        0.24150    0.76080    0.39810    1.000
    C3       C        0.32900    0.67380    0.34300    1.000
    C4       C        0.45980    0.64940    0.33710    1.000
    H3       H        0.46650    0.60350    0.30320    1.000
    C5       C        0.58000    0.69490    0.38260    1.000
    H4       H        0.66660    0.67740    0.37940    1.000
    C6       C        0.19930    0.62620    0.29680    1.000
    C7       C        0.18920    0.60090    0.22870    1.000
    H5       H        0.26700    0.61520    0.21210    1.000
    C8       C        0.06690    0.55540    0.18550    1.000
    C9       C        0.94920    0.53260    0.20950    1.000
    H6       H        0.86770    0.50070    0.18080    1.000
    C10      C        0.95450    0.55770    0.27600    1.000
    H7       H        0.87660    0.54290    0.29230    1.000
    C11      C        0.07560    0.60470    0.31790    1.000
    H8       H        0.07600    0.62310    0.36220    1.000
    C12      C        0.05810    0.53100    0.11230    1.000
    C13      C        0.75260    0.09710    0.70710    1.000
    H9       H        0.85000    0.11280    0.71950    1.000
    C14      C        0.67290    0.15330    0.73420    1.000
    H10      H        0.71600    0.20430    0.76460    1.000
    C15      C        0.52650    0.13420    0.71630    1.000
    C16      C        0.47320    0.05410    0.67210    1.000
    H11      H        0.37640    0.03630    0.65890    1.000
    C17      C        0.56340    0.00220    0.64850    1.000
    H12      H        0.52400    0.94980    0.61920    1.000
    C18      C        0.43010    0.19130    0.74250    1.000
    C19      C        0.46950    0.24760    0.80300    1.000
    H13      H        0.55940    0.25120    0.82820    1.000
    C20      C        0.37680    0.30000    0.82780    1.000
    C21      C        0.24500    0.29440    0.79060    1.000
    H14      H        0.18240    0.32850    0.80690    1.000
    C22      C        0.20330    0.23720    0.72760    1.000
    H15      H        0.11390    0.23340    0.70200    1.000
    C23      C        0.29620    0.18780    0.70500    1.000
    H16      H        0.26960    0.15040    0.66330    1.000
    C24      C        0.41640    0.35920    0.89360    1.000
    C25      C        0.22970    0.76090    0.63040    1.000
    H17      H        0.25470    0.79570    0.60460    1.000
    C26      C        0.33580    0.72640    0.66350    1.000
    H18      H        0.42810    0.73780    0.65900    1.000
    C27      C        0.30290    0.67430    0.70360    1.000
    C28      C        0.16140    0.66210    0.70520    1.000
    H19      H        0.13150    0.62840    0.73090    1.000
    C29      C        0.06510    0.69770    0.67060    1.000
    H20      H        0.97150    0.68640    0.67320    1.000
    C30      C        0.41170    0.63940    0.74190    1.000
    C31      C        0.39440    0.62300    0.80120    1.000
    H21      H        0.31250    0.63410    0.81560    1.000
    C32      C        0.49380    0.59110    0.83890    1.000
    C33      C        0.61670    0.57580    0.81780    1.000
    H22      H        0.68830    0.55790    0.84390    1.000
    C34      C        0.63270    0.58770    0.75640    1.000
    H23      H        0.71190    0.57350    0.74070    1.000
    C35      C        0.53160    0.62020    0.71980    1.000
    H24      H        0.54400    0.62920    0.68000    1.000
    C36      C        0.46880    0.57370    0.90110    1.000
    La2      La       0.72126    0.47998    0.00166    1.000
    I5       I        0.23756    0.00696    0.50045    1.000
    I6       I        0.01765    0.22328    0.53421    1.000
    I7       I        0.91863    0.02495    0.33184    1.000
    I8       I        0.30128    0.21780    0.39288    1.000
    Cu5      Cu       0.98878    0.05905    0.46283    1.000
    Cu6      Cu       0.24850    0.17421    0.50142    1.000
    Cu7      Cu       0.18475    0.05888    0.38233    1.000
    Cu8      Cu       0.04016    0.18735    0.40788    1.000
    O7       O        0.82980    0.44510    0.90580    1.000
    O8       O        0.05100    0.51030    0.92380    1.000
    O9       O        0.45850    0.63590    0.07320    1.000
    O10      O        0.67210    0.59820    0.08500    1.000
    O11      O        0.64700    0.41210    0.08470    1.000
    O12      O        0.43850    0.45250    0.06440    1.000
    N4       N        0.42430    0.23720    0.56920    1.000
    N5       N        0.29700    0.97880    0.33570    1.000
    N6       N        0.90420    0.25270    0.36660    1.000
    C37      C        0.54840    0.21350    0.56470    1.000
    H25      H        0.55210    0.16570    0.53170    1.000
    C38      C        0.67320    0.25720    0.60730    1.000
    H26      H        0.75850    0.23920    0.60190    1.000
    C39      C        0.67100    0.32620    0.65700    1.000
    C40      C        0.54020    0.35060    0.66290    1.000
    H27      H        0.53350    0.39650    0.69680    1.000
    C41      C        0.42000    0.30510    0.61740    1.000
    H28      H        0.33340    0.32260    0.62060    1.000
    C42      C        0.80070    0.37380    0.70320    1.000
    C43      C        0.81080    0.39910    0.77130    1.000
    H29      H        0.73300    0.38480    0.78790    1.000
    C44      C        0.93310    0.44460    0.81450    1.000
    C45      C        0.05080    0.46740    0.79050    1.000
    H30      H        0.13230    0.49930    0.81920    1.000
    C46      C        0.04550    0.44230    0.72400    1.000
    H31      H        0.12340    0.45710    0.70770    1.000
    C47      C        0.92440    0.39530    0.68210    1.000
    H32      H        0.92400    0.37690    0.63780    1.000
    C48      C        0.94190    0.46900    0.88770    1.000
    C49      C        0.24740    0.90290    0.29290    1.000
    H33      H        0.15000    0.88720    0.28050    1.000
    C50      C        0.32710    0.84670    0.26580    1.000
    H34      H        0.28400    0.79570    0.23540    1.000
    C51      C        0.47350    0.86580    0.28370    1.000
    C52      C        0.52680    0.94590    0.32790    1.000
    H35      H        0.62360    0.96370    0.34110    1.000
    C53      C        0.43660    0.99780    0.35150    1.000
    H36      H        0.47600    0.05020    0.38080    1.000
    C54      C        0.56990    0.80870    0.25750    1.000
    C55      C        0.53050    0.75240    0.19700    1.000
    H37      H        0.44060    0.74880    0.17180    1.000
    C56      C        0.62320    0.70000    0.17220    1.000
    C57      C        0.75500    0.70560    0.20940    1.000
    H38      H        0.81760    0.67150    0.19310    1.000
    C58      C        0.79670    0.76280    0.27240    1.000
    H39      H        0.88610    0.76660    0.29800    1.000
    C59      C        0.70380    0.81220    0.29500    1.000
    H40      H        0.73040    0.84960    0.33670    1.000
    C60      C        0.58360    0.64080    0.10640    1.000
    C61      C        0.77030    0.23910    0.36960    1.000
    H41      H        0.74530    0.20430    0.39540    1.000
    C62      C        0.66420    0.27360    0.33650    1.000
    H42      H        0.57190    0.26220    0.34100    1.000
    C63      C        0.69710    0.32570    0.29640    1.000
    C64      C        0.83860    0.33790    0.29480    1.000
    H43      H        0.86850    0.37160    0.26910    1.000
    C65      C        0.93490    0.30230    0.32940    1.000
    H44      H        0.02850    0.31360    0.32680    1.000
    C66      C        0.58830    0.36060    0.25810    1.000
    C67      C        0.60560    0.37700    0.19880    1.000
    H45      H        0.68750    0.36590    0.18440    1.000
    C68      C        0.50620    0.40890    0.16110    1.000
    C69      C        0.38330    0.42420    0.18220    1.000
    H46      H        0.31170    0.44210    0.15610    1.000
    C70      C        0.36730    0.41230    0.24360    1.000
    H47      H        0.28810    0.42650    0.25930    1.000
    C71      C        0.46840    0.37980    0.28020    1.000
    H48      H        0.45600    0.37080    0.32000    1.000
    C72      C        0.53120    0.42630    0.09890    1.000
