data_functionalizedCrystal
_audit_creation_method	'EQeq! by Chris Wilmer'
_symmetry_space_group_name_H-M	'P1'
_symmetry_Int_Tables_number	1
_symmetry_cell_setting	triclinic
loop_
_symmetry_equiv_pos_as_xyz
  x,y,z
_cell_length_a	12.9913
_cell_length_b	12.9913
_cell_length_c	17.3911
_cell_angle_alpha	90
_cell_angle_beta	90
_cell_angle_gamma	120
loop_
_atom_site_label
_atom_site_type_symbol
_atom_site_fract_x
_atom_site_fract_y
_atom_site_fract_z
_atom_site_charge
Mof_In	In	0.3771	0	0.5	2.266
Mof_In	In	0.6229	0.6229	0.83333	2.415
Mof_In	In	-4.96156e-18	0.3771	0.16667	2.269
Mof_H 	H 	0.5631	0.5757	0.5696	0.187
Mof_H 	H 	0.3409	0.4235	0.6414	-0.026
Mof_H 	H 	0.3677	0.5202	0.5774	-0.044
Mof_H 	H 	0.3309	0.3919	0.4876	0.044
Mof_H 	H 	0.2895	0.2931	0.5509	0.054
Mof_H 	H 	0.4523	0.3757	0.3981	0.058
Mof_H 	H 	0.5824	0.4213	0.4271	0.048
Mof_H 	H 	0.5206	0.4966	0.4426	0.048
Mof_H 	H 	0.7179	0.4902	0.6134	0.463
Mof_H 	H 	0.6953	0.5138	0.5283	0.456
Mof_H 	H 	0.6806	0.3904	0.5512	0.466
Mof_H 	H 	0.5731	0.3661	0.6897	0.479
Mof_H 	H 	0.5337	0.2642	0.6288	0.468
Mof_H 	H 	0.4398	0.293	0.6639	0.477
Mof_H 	H 	0.0126	0.4369	0.90293	0.108
Mof_H 	H 	0.0826	0.6591	0.97473	-0.01
Mof_H 	H 	0.1525	0.6323	0.91073	-0.026
Mof_H 	H 	0.061	0.6691	0.82093	0.046
Mof_H 	H 	0.0036	0.7105	0.88423	0.052
Mof_H 	H 	0.9234	0.5477	0.73143	0.096
Mof_H 	H 	0.8389	0.4176	0.76043	0.075
Mof_H 	H 	0.976	0.4794	0.77593	0.09
Mof_H 	H 	0.7723	0.2821	0.94673	0.427
Mof_H 	H 	0.8185	0.3047	0.86163	0.425
Mof_H 	H 	0.7098	0.3194	0.88453	0.432
Mof_H 	H 	0.793	0.4269	0.02303	0.475
Mof_H 	H 	0.7305	0.4663	0.96213	0.457
Mof_H 	H 	0.8532	0.5602	0.99723	0.476
Mof_H 	H 	0.4243	0.9874	0.23627	0.261
Mof_H 	H 	0.5765	0.9174	0.30807	-0.033
Mof_H 	H 	0.4798	0.8475	0.24407	-0.063
Mof_H 	H 	0.6081	0.939	0.15427	0.05
Mof_H 	H 	0.7069	0.9964	0.21757	0.068
Mof_H 	H 	0.6243	0.0766	0.06477	0.021
Mof_H 	H 	0.5787	0.1611	0.09377	0.014
Mof_H 	H 	0.5034	0.024	0.10927	-0.003
Mof_H 	H 	0.5098	0.2277	0.28007	0.492
Mof_H 	H 	0.4862	0.1815	0.19497	0.481
Mof_H 	H 	0.6096	0.2902	0.21787	0.5
Mof_H 	H 	0.6339	0.207	0.35637	0.525
Mof_H 	H 	0.7358	0.2695	0.29547	0.521
Mof_H 	H 	0.707	0.1468	0.33057	0.523
Mof_H 	H 	0.9874	0.4243	0.4304	0.261
Mof_H 	H 	0.9174	0.5765	0.3586	-0.033
Mof_H 	H 	0.8475	0.4798	0.4226	-0.063
Mof_H 	H 	0.939	0.6081	0.5124	0.05
Mof_H 	H 	0.9964	0.7069	0.4491	0.068
Mof_H 	H 	0.0766	0.6243	0.6019	0.018
Mof_H 	H 	0.1611	0.5787	0.5729	0.013
Mof_H 	H 	0.024	0.5034	0.5574	-0.005
Mof_H 	H 	0.2277	0.5098	0.3866	0.492
Mof_H 	H 	0.1815	0.4862	0.4717	0.481
Mof_H 	H 	0.2902	0.6096	0.4488	0.5
Mof_H 	H 	0.207	0.6339	0.3103	0.526
Mof_H 	H 	0.2695	0.7358	0.3712	0.521
Mof_H 	H 	0.1468	0.707	0.3361	0.523
Mof_H 	H 	0.5757	0.5631	0.09707	0.183
Mof_H 	H 	0.4235	0.3409	0.02527	-0.023
Mof_H 	H 	0.5202	0.3677	0.08927	-0.042
Mof_H 	H 	0.3919	0.3309	0.17907	0.044
Mof_H 	H 	0.2931	0.2895	0.11577	0.054
Mof_H 	H 	0.3757	0.4523	0.26857	0.06
Mof_H 	H 	0.4213	0.5824	0.23957	0.05
Mof_H 	H 	0.4966	0.5206	0.22407	0.05
Mof_H 	H 	0.4902	0.7179	0.05327	0.459
Mof_H 	H 	0.5138	0.6953	0.13837	0.451
Mof_H 	H 	0.3904	0.6806	0.11547	0.461
Mof_H 	H 	0.3661	0.5731	0.97697	0.463
Mof_H 	H 	0.2642	0.5337	0.03787	0.457
Mof_H 	H 	0.293	0.4398	0.00277	0.466
Mof_H 	H 	0.4369	0.0126	0.76373	0.103
Mof_H 	H 	0.6591	0.0826	0.69193	-0.006
Mof_H 	H 	0.6323	0.1525	0.75593	-0.023
Mof_H 	H 	0.6691	0.061	0.84573	0.044
Mof_H 	H 	0.7105	0.0036	0.78243	0.051
Mof_H 	H 	0.5477	0.9234	0.93523	0.096
Mof_H 	H 	0.4176	0.8389	0.90623	0.076
Mof_H 	H 	0.4794	0.976	0.89073	0.09
Mof_H 	H 	0.2821	0.7723	0.71993	0.423
Mof_H 	H 	0.3047	0.8185	0.80503	0.419
Mof_H 	H 	0.3194	0.7098	0.78213	0.426
Mof_H 	H 	0.4269	0.793	0.64363	0.457
Mof_H 	H 	0.4663	0.7305	0.70453	0.445
Mof_H 	H 	0.5602	0.8532	0.66943	0.464
Mof_C 	C 	0.4593	0.3517	0.5151	-0.256
Mof_C 	C 	0.5442	0.4104	0.5865	0.942
Mof_C 	C 	0.5209	0.5116	0.607	-0.566
Mof_C 	C 	0.3849	0.4592	0.5945	0.13
Mof_C 	C 	0.3556	0.3682	0.5338	-0.122
Mof_C 	C 	0.5082	0.4175	0.4385	-0.161
Mof_C 	C 	0.6705	0.4551	0.5682	-1.486
Mof_C 	C 	0.5207	0.3264	0.6473	-1.534
Mof_C 	C 	0.4289	0.2233	0.5037	0.36
Mof_C 	C 	0.5645	0.5624	0.6867	0.486
Mof_C 	C 	0.8924	0.5407	0.84843	-0.183
Mof_C 	C 	0.8662	0.4558	0.91983	0.869
Mof_C 	C 	0.9907	0.4791	0.94033	-0.442
Mof_C 	C 	0.0743	0.6151	0.92783	0.058
Mof_C 	C 	0.0126	0.6444	0.86713	-0.161
Mof_C 	C 	0.9093	0.4918	0.77183	-0.247
Mof_C 	C 	0.7846	0.3295	0.90153	-1.389
Mof_C 	C 	0.8057	0.4793	0.98063	-1.488
Mof_C 	C 	0.7944	0.5711	0.83703	0.341
Mof_C 	C 	0.9979	0.4355	0.02003	0.507
Mof_C 	C 	0.6483	0.1076	0.18177	-0.336
Mof_C 	C 	0.5896	0.1338	0.25317	1.05
Mof_C 	C 	0.4884	0.0093	0.27367	-0.708
Mof_C 	C 	0.5408	0.9257	0.26117	0.207
Mof_C 	C 	0.6318	0.9874	0.20047	-0.087
Mof_C 	C 	0.5825	0.0907	0.10517	-0.064
Mof_C 	C 	0.5449	0.2154	0.23487	-1.598
Mof_C 	C 	0.6736	0.1943	0.31397	-1.683
Mof_C 	C 	0.7767	0.2056	0.17037	0.376
Mof_C 	C 	0.4376	0.0021	0.35337	0.461
Mof_C 	C 	0.1076	0.6483	0.4849	-0.338
Mof_C 	C 	0.1338	0.5896	0.4135	1.05
Mof_C 	C 	0.0093	0.4884	0.393	-0.707
Mof_C 	C 	0.9257	0.5408	0.4055	0.206
Mof_C 	C 	0.9874	0.6318	0.4662	-0.086
Mof_C 	C 	0.0907	0.5825	0.5615	-0.06
Mof_C 	C 	0.2154	0.5449	0.4318	-1.598
Mof_C 	C 	0.1943	0.6736	0.3527	-1.684
Mof_C 	C 	0.2056	0.7767	0.4963	0.376
Mof_C 	C 	0.0021	0.4376	0.3133	0.461
Mof_C 	C 	0.3517	0.4593	0.15157	-0.25
Mof_C 	C 	0.4104	0.5442	0.08017	0.922
Mof_C 	C 	0.5116	0.5209	0.05967	-0.551
Mof_C 	C 	0.4592	0.3849	0.07217	0.123
Mof_C 	C 	0.3682	0.3556	0.13287	-0.121
Mof_C 	C 	0.4175	0.5082	0.22817	-0.168
Mof_C 	C 	0.4551	0.6705	0.09847	-1.467
Mof_C 	C 	0.3264	0.5207	0.01937	-1.492
Mof_C 	C 	0.2233	0.4289	0.16297	0.358
Mof_C 	C 	0.5624	0.5645	0.97997	0.477
Mof_C 	C 	0.5407	0.8924	0.81823	-0.177
Mof_C 	C 	0.4558	0.8662	0.74683	0.848
Mof_C 	C 	0.4791	0.9907	0.72633	-0.424
Mof_C 	C 	0.6151	0.0743	0.73883	0.048
Mof_C 	C 	0.6444	0.0126	0.79953	-0.159
Mof_C 	C 	0.4918	0.9093	0.89483	-0.251
Mof_C 	C 	0.3295	0.7846	0.76513	-1.367
Mof_C 	C 	0.4793	0.8057	0.68603	-1.443
Mof_C 	C 	0.5711	0.7944	0.82963	0.339
Mof_C 	C 	0.4355	0.9979	0.64663	0.497
Mof_O 	O 	0.3245	0.138	0.5143	-0.553
Mof_O 	O 	0.5116	0.203	0.4871	-0.53
Mof_O 	O 	0.4971	0.5157	0.7433	-0.617
Mof_O 	O 	0.6673	0.6437	0.6979	-0.536
Mof_O 	O 	0.8135	0.6755	0.84763	-0.549
Mof_O 	O 	0.6914	0.4884	0.82043	-0.534
Mof_O 	O 	0.0186	0.5029	0.07663	-0.636
Mof_O 	O 	0.9764	0.3327	0.03123	-0.507
Mof_O 	O 	0.862	0.1865	0.18097	-0.533
Mof_O 	O 	0.797	0.3086	0.15377	-0.52
Mof_O 	O 	0.4843	0.9814	0.40997	-0.547
Mof_O 	O 	0.3563	0.0236	0.36457	-0.545
Mof_O 	O 	0.1865	0.862	0.4857	-0.533
Mof_O 	O 	0.3086	0.797	0.5129	-0.52
Mof_O 	O 	0.9814	0.4843	0.2567	-0.547
Mof_O 	O 	0.0236	0.3563	0.3021	-0.545
Mof_O 	O 	0.138	0.3245	0.15237	-0.552
Mof_O 	O 	0.203	0.5116	0.17957	-0.529
Mof_O 	O 	0.5157	0.4971	0.92337	-0.616
Mof_O 	O 	0.6437	0.6673	0.96877	-0.535
Mof_O 	O 	0.6755	0.8135	0.81903	-0.548
Mof_O 	O 	0.4884	0.6914	0.84623	-0.532
Mof_O 	O 	0.5029	0.0186	0.59003	-0.636
Mof_O 	O 	0.3327	0.9764	0.63543	-0.506
Mof_H 	H 	0.9894	0.8316	0.7826	0.231
Mof_H 	H 	0.0684	0.9702	0.7882	0.168
Mof_H 	H 	0.1204	0.8954	0.7519	0.19
Mof_H 	H 	0.0653	0.0212	0.5787	0.117
Mof_H 	H 	0.1607	0.0094	0.6271	0.144
Mof_H 	H 	0.1072	0.0861	0.6582	0.12
Mof_H 	H 	0.0106	0.8422	0.55073	0.079
Mof_H 	H 	0.9316	0.9018	0.54513	0.095
Mof_H 	H 	0.8796	0.775	0.58143	0.089
Mof_H 	H 	0.9347	0.9559	0.75463	0.133
Mof_H 	H 	0.8393	0.8487	0.70623	0.132
Mof_H 	H 	0.8928	0.9789	0.67513	0.13
Mof_C 	C 	0.05	0.901	0.7576	-0.558
Mof_C 	C 	0.0904	0.016	0.6298	-0.419
Mof_C 	C 	0.95	0.851	0.57573	-0.206
Mof_C 	C 	0.9096	0.9256	0.70353	-0.304
Mof_N 	N 	-1.98446e-17	0.9159	0.66667	0.023
Mof_H 	H 	0.8422	0.0106	0.11593	0.079
Mof_H 	H 	0.9018	0.9316	0.12153	0.095
Mof_H 	H 	0.775	0.8796	0.08523	0.09
Mof_H 	H 	0.9559	0.9347	0.91203	0.135
Mof_H 	H 	0.8487	0.8393	0.96043	0.133
Mof_H 	H 	0.9789	0.8928	0.99153	0.131
Mof_H 	H 	0.8316	0.9894	0.88407	0.233
Mof_H 	H 	0.9702	0.0684	0.87847	0.169
Mof_H 	H 	0.8954	0.1204	0.91477	0.19
Mof_H 	H 	0.0212	0.0653	0.08797	0.119
Mof_H 	H 	0.0094	0.1607	0.03957	0.146
Mof_H 	H 	0.0861	0.1072	0.00847	0.124
Mof_C 	C 	0.851	0.95	0.09093	-0.205
Mof_C 	C 	0.9256	0.9096	0.96313	-0.313
Mof_C 	C 	0.901	0.05	0.90907	-0.564
Mof_C 	C 	0.016	0.0904	0.03687	-0.423
Mof_N 	N 	0.9159	0	-0	0.027
Mof_H 	H 	0.1684	0.1578	0.44927	0.143
Mof_H 	H 	0.0298	0.0982	0.45487	0.094
Mof_H 	H 	0.1046	0.225	0.41857	0.124
Mof_H 	H 	0.9788	0.0441	0.24537	0.11
Mof_H 	H 	0.9906	0.1513	0.29377	0.132
Mof_H 	H 	0.9139	0.0211	0.32487	0.09
Mof_H 	H 	0.1578	0.1684	0.2174	0.143
Mof_H 	H 	0.0982	0.0298	0.2118	0.094
Mof_H 	H 	0.225	0.1046	0.2481	0.124
Mof_H 	H 	0.0441	0.9788	0.4213	0.11
Mof_H 	H 	0.1513	0.9906	0.3729	0.132
Mof_H 	H 	0.0211	0.9139	0.3418	0.09
Mof_C 	C 	0.099	0.149	0.42427	-0.384
Mof_C 	C 	0.984	0.0744	0.29647	-0.254
Mof_C 	C 	0.149	0.099	0.2424	-0.384
Mof_C 	C 	0.0744	0.984	0.3702	-0.254
Mof_N 	N 	0.0841	0.0841	0.33333	-0.03
_end
