# CIF file generated by openbabel 3.1.0, see https://openbabel.org
data_I
_chemical_name_common 'image0'
_cell_length_a 9.9325
_cell_length_b 12.7089
_cell_length_c 16.2027
_cell_angle_alpha 90
_cell_angle_beta 96.236
_cell_angle_gamma 90
_space_group_name_H-M_alt 'P 1'
_space_group_name_Hall 'P 1'
loop_
    _symmetry_equiv_pos_as_xyz
    x,y,z
loop_
    _atom_site_label
    _atom_site_type_symbol
    _atom_site_fract_x
    _atom_site_fract_y
    _atom_site_fract_z
    _atom_site_occupancy
    Eu1      Eu       0.30590    0.04326    0.99499    1.000
    Br1      Br       0.21940    0.25498    0.98350    1.000
    O1       O        0.41360    0.04410    0.13260    1.000
    O2       O        0.63720    0.02280    0.13370    1.000
    O3       O        0.73330    0.35810    0.47700    1.000
    O4       O        0.51360    0.37640    0.47310    1.000
    O5       O        0.09560    0.99910    0.91590    1.000
    O6       O        0.87720    0.96190    0.92060    1.000
    C1       C        0.55440    0.10700    0.24920    1.000
    C2       C        0.45770    0.17690    0.26500    1.000
    H1       H        0.37720    0.17990    0.22990    1.000
    C3       C        0.47730    0.24610    0.33460    1.000
    H2       H        0.40920    0.29300    0.34480    1.000
    C4       C        0.59470    0.24400    0.38630    1.000
    C5       C        0.69610    0.16630    0.37460    1.000
    C6       C        0.81730    0.15520    0.42910    1.000
    H3       H        0.83400    0.20150    0.47340    1.000
    C7       C        0.90990    0.07880    0.41840    1.000
    H4       H        0.99060    0.07540    0.45320    1.000
    C8       C        0.88210    0.00480    0.35390    1.000
    H5       H        0.94210    0.94960    0.34890    1.000
    C9       C        0.77010    0.01280    0.29930    1.000
    H6       H        0.75540    0.96440    0.25630    1.000
    C10      C        0.67430    0.09430    0.30680    1.000
    C11      C        0.53350    0.05160    0.16610    1.000
    C12      C        0.61490    0.32910    0.45050    1.000
    C13      C        0.99260    0.98850    0.95290    1.000
    Eu2      Eu       0.69410    0.54326    0.50501    1.000
    Br2      Br       0.78060    0.75498    0.51650    1.000
    O7       O        0.58640    0.54410    0.36740    1.000
    O8       O        0.36280    0.52280    0.36630    1.000
    O9       O        0.26670    0.85810    0.02300    1.000
    O10      O        0.48640    0.87640    0.02690    1.000
    O11      O        0.90440    0.49910    0.58410    1.000
    O12      O        0.12280    0.46190    0.57940    1.000
    C14      C        0.44560    0.60700    0.25080    1.000
    C15      C        0.54230    0.67690    0.23500    1.000
    H7       H        0.62280    0.67990    0.27010    1.000
    C16      C        0.52270    0.74610    0.16540    1.000
    H8       H        0.59080    0.79300    0.15520    1.000
    C17      C        0.40530    0.74400    0.11370    1.000
    C18      C        0.30390    0.66630    0.12540    1.000
    C19      C        0.18270    0.65520    0.07090    1.000
    H9       H        0.16600    0.70150    0.02660    1.000
    C20      C        0.09010    0.57880    0.08160    1.000
    H10      H        0.00940    0.57540    0.04680    1.000
    C21      C        0.11790    0.50480    0.14610    1.000
    H11      H        0.05790    0.44960    0.15110    1.000
    C22      C        0.22990    0.51280    0.20070    1.000
    H12      H        0.24460    0.46440    0.24370    1.000
    C23      C        0.32570    0.59430    0.19320    1.000
    C24      C        0.46650    0.55160    0.33390    1.000
    C25      C        0.38510    0.82910    0.04950    1.000
    C26      C        0.00740    0.48850    0.54710    1.000
    Eu3      Eu       0.69410    0.95674    0.00501    1.000
    Br3      Br       0.78060    0.74502    0.01650    1.000
    O13      O        0.58640    0.95590    0.86740    1.000
    O14      O        0.36280    0.97720    0.86630    1.000
    O15      O        0.26670    0.64190    0.52300    1.000
    O16      O        0.48640    0.62360    0.52690    1.000
    O17      O        0.90440    0.00090    0.08410    1.000
    O18      O        0.12280    0.03810    0.07940    1.000
    C27      C        0.44560    0.89300    0.75080    1.000
    C28      C        0.54230    0.82310    0.73500    1.000
    H13      H        0.62280    0.82010    0.77010    1.000
    C29      C        0.52270    0.75390    0.66540    1.000
    H14      H        0.59080    0.70700    0.65520    1.000
    C30      C        0.40530    0.75600    0.61370    1.000
    C31      C        0.30390    0.83370    0.62540    1.000
    C32      C        0.18270    0.84480    0.57090    1.000
    H15      H        0.16600    0.79850    0.52660    1.000
    C33      C        0.09010    0.92120    0.58160    1.000
    H16      H        0.00940    0.92460    0.54680    1.000
    C34      C        0.11790    0.99520    0.64610    1.000
    H17      H        0.05790    0.05040    0.65110    1.000
    C35      C        0.22990    0.98720    0.70070    1.000
    H18      H        0.24460    0.03560    0.74370    1.000
    C36      C        0.32570    0.90570    0.69320    1.000
    C37      C        0.46650    0.94840    0.83390    1.000
    C38      C        0.38510    0.67090    0.54950    1.000
    C39      C        0.00740    0.01150    0.04710    1.000
    Eu4      Eu       0.30590    0.45674    0.49499    1.000
    Br4      Br       0.21940    0.24502    0.48350    1.000
    O19      O        0.41360    0.45590    0.63260    1.000
    O20      O        0.63720    0.47720    0.63370    1.000
    O21      O        0.73330    0.14190    0.97700    1.000
    O22      O        0.51360    0.12360    0.97310    1.000
    O23      O        0.09560    0.50090    0.41590    1.000
    O24      O        0.87720    0.53810    0.42060    1.000
    C40      C        0.55440    0.39300    0.74920    1.000
    C41      C        0.45770    0.32310    0.76500    1.000
    H19      H        0.37720    0.32010    0.72990    1.000
    C42      C        0.47730    0.25390    0.83460    1.000
    H20      H        0.40920    0.20700    0.84480    1.000
    C43      C        0.59470    0.25600    0.88630    1.000
    C44      C        0.69610    0.33370    0.87460    1.000
    C45      C        0.81730    0.34480    0.92910    1.000
    H21      H        0.83400    0.29850    0.97340    1.000
    C46      C        0.90990    0.42120    0.91840    1.000
    H22      H        0.99060    0.42460    0.95320    1.000
    C47      C        0.88210    0.49520    0.85390    1.000
    H23      H        0.94210    0.55040    0.84890    1.000
    C48      C        0.77010    0.48720    0.79930    1.000
    H24      H        0.75540    0.53560    0.75630    1.000
    C49      C        0.67430    0.40570    0.80680    1.000
    C50      C        0.53350    0.44840    0.66610    1.000
    C51      C        0.61490    0.17090    0.95050    1.000
    C52      C        0.99260    0.51150    0.45290    1.000
