# CIF file generated by openbabel 3.1.0, see https://openbabel.org
data_I
_chemical_name_common 'image0'
_cell_length_a 14.719
_cell_length_b 14.734
_cell_length_c 17.891
_cell_angle_alpha 90
_cell_angle_beta 90
_cell_angle_gamma 90.02
_space_group_name_H-M_alt 'P 1'
_space_group_name_Hall 'P 1'
loop_
    _symmetry_equiv_pos_as_xyz
    x,y,z
loop_
    _atom_site_label
    _atom_site_type_symbol
    _atom_site_fract_x
    _atom_site_fract_y
    _atom_site_fract_z
    _atom_site_occupancy
    Co1      Co       0.99480    0.11860    0.33130    1.000
    Co2      Co       0.01320    0.88040    0.17210    1.000
    Co3      Co       0.36850    0.25400    0.42230    1.000
    Co4      Co       0.87060    0.76240    0.41830    1.000
    P1       P        0.14790    0.24600    0.40010    1.000
    P2       P        0.00300    0.89920    0.35230    1.000
    P3       P        0.98850    0.10220    0.14990    1.000
    P4       P        0.85060    0.76120    0.10270    1.000
    O1       O        0.98580    0.99920    0.37590    1.000
    O2       O        0.90480    0.86910    0.35640    1.000
    O3       O        0.75000    0.76890    0.12510    1.000
    O4       O        0.11210    0.17620    0.34200    1.000
    O5       O        0.14490    0.19960    0.47940    1.000
    O6       O        0.05690    0.84540    0.41330    1.000
    O7       O        0.95020    0.10150    0.22810    1.000
    O8       O        0.90100    0.81610    0.16080    1.000
    O9       O        0.01220    0.00280    0.12800    1.000
    O10      O        0.24710    0.26210    0.37720    1.000
    O11      O        0.88000    0.65920    0.11190    1.000
    O12      O        0.86920    0.79630    0.02670    1.000
    O13      O        0.91650    0.13320    0.09430    1.000
    O14      O        0.09580    0.33340    0.40120    1.000
    O15      O        0.07430    0.15840    0.14570    1.000
    O16      O        0.04750    0.87880    0.27490    1.000
    Co5      Co       0.49480    0.61860    0.83130    1.000
    Co6      Co       0.51320    0.38040    0.67210    1.000
    Co7      Co       0.86850    0.75400    0.92230    1.000
    Co8      Co       0.37060    0.26240    0.91830    1.000
    P5       P        0.64790    0.74600    0.90010    1.000
    P6       P        0.50300    0.39920    0.85230    1.000
    P7       P        0.48850    0.60220    0.64990    1.000
    P8       P        0.35060    0.26120    0.60270    1.000
    O17      O        0.48580    0.49920    0.87590    1.000
    O18      O        0.40480    0.36910    0.85640    1.000
    O19      O        0.25000    0.26890    0.62510    1.000
    O20      O        0.61210    0.67620    0.84200    1.000
    O21      O        0.64490    0.69960    0.97940    1.000
    O22      O        0.55690    0.34540    0.91330    1.000
    O23      O        0.45020    0.60150    0.72810    1.000
    O24      O        0.40100    0.31610    0.66080    1.000
    O25      O        0.51220    0.50280    0.62800    1.000
    O26      O        0.74710    0.76210    0.87720    1.000
    O27      O        0.38000    0.15920    0.61190    1.000
    O28      O        0.36920    0.29630    0.52670    1.000
    O29      O        0.41650    0.63320    0.59430    1.000
    O30      O        0.59580    0.83340    0.90120    1.000
    O31      O        0.57430    0.65840    0.64570    1.000
    O32      O        0.54750    0.37880    0.77490    1.000
    Co9      Co       0.00520    0.38140    0.33130    1.000
    Co10     Co       0.98680    0.61960    0.17210    1.000
    Co11     Co       0.63150    0.24600    0.42230    1.000
    Co12     Co       0.12940    0.73760    0.41830    1.000
    P9       P        0.85210    0.25400    0.40010    1.000
    P10      P        0.99700    0.60080    0.35230    1.000
    P11      P        0.01150    0.39780    0.14990    1.000
    P12      P        0.14940    0.73880    0.10270    1.000
    O33      O        0.01420    0.50080    0.37590    1.000
    O34      O        0.09520    0.63090    0.35640    1.000
    O35      O        0.25000    0.73110    0.12510    1.000
    O36      O        0.88790    0.32380    0.34200    1.000
    O37      O        0.85510    0.30040    0.47940    1.000
    O38      O        0.94310    0.65460    0.41330    1.000
    O39      O        0.04980    0.39850    0.22810    1.000
    O40      O        0.09900    0.68390    0.16080    1.000
    O41      O        0.98780    0.49720    0.12800    1.000
    O42      O        0.75290    0.23790    0.37720    1.000
    O43      O        0.12000    0.84080    0.11190    1.000
    O44      O        0.13080    0.70370    0.02670    1.000
    O45      O        0.08350    0.36680    0.09430    1.000
    O46      O        0.90420    0.16660    0.40120    1.000
    O47      O        0.92570    0.34160    0.14570    1.000
    O48      O        0.95250    0.62120    0.27490    1.000
    Co13     Co       0.50520    0.88140    0.83130    1.000
    Co14     Co       0.48680    0.11960    0.67210    1.000
    Co15     Co       0.13150    0.74600    0.92230    1.000
    Co16     Co       0.62940    0.23760    0.91830    1.000
    P13      P        0.35210    0.75400    0.90010    1.000
    P14      P        0.49700    0.10080    0.85230    1.000
    P15      P        0.51150    0.89780    0.64990    1.000
    P16      P        0.64940    0.23880    0.60270    1.000
    O49      O        0.51420    0.00080    0.87590    1.000
    O50      O        0.59520    0.13090    0.85640    1.000
    O51      O        0.75000    0.23110    0.62510    1.000
    O52      O        0.38790    0.82380    0.84200    1.000
    O53      O        0.35510    0.80040    0.97940    1.000
    O54      O        0.44310    0.15460    0.91330    1.000
    O55      O        0.54980    0.89850    0.72810    1.000
    O56      O        0.59900    0.18390    0.66080    1.000
    O57      O        0.48780    0.99720    0.62800    1.000
    O58      O        0.25290    0.73790    0.87720    1.000
    O59      O        0.62000    0.34080    0.61190    1.000
    O60      O        0.63080    0.20370    0.52670    1.000
    O61      O        0.58350    0.86680    0.59430    1.000
    O62      O        0.40420    0.66660    0.90120    1.000
    O63      O        0.42570    0.84160    0.64570    1.000
    O64      O        0.45250    0.12120    0.77490    1.000
    Co17     Co       0.00520    0.88140    0.66870    1.000
    Co18     Co       0.98680    0.11960    0.82790    1.000
    Co19     Co       0.63150    0.74600    0.57770    1.000
    Co20     Co       0.12940    0.23760    0.58170    1.000
    P17      P        0.85210    0.75400    0.59990    1.000
    P18      P        0.99700    0.10080    0.64770    1.000
    P19      P        0.01150    0.89780    0.85010    1.000
    P20      P        0.14940    0.23880    0.89730    1.000
    O65      O        0.01420    0.00080    0.62410    1.000
    O66      O        0.09520    0.13090    0.64360    1.000
    O67      O        0.25000    0.23110    0.87490    1.000
    O68      O        0.88790    0.82380    0.65800    1.000
    O69      O        0.85510    0.80040    0.52060    1.000
    O70      O        0.94310    0.15460    0.58670    1.000
    O71      O        0.04980    0.89850    0.77190    1.000
    O72      O        0.09900    0.18390    0.83920    1.000
    O73      O        0.98780    0.99720    0.87200    1.000
    O74      O        0.75290    0.73790    0.62280    1.000
    O75      O        0.12000    0.34080    0.88810    1.000
    O76      O        0.13080    0.20370    0.97330    1.000
    O77      O        0.08350    0.86680    0.90570    1.000
    O78      O        0.90420    0.66660    0.59880    1.000
    O79      O        0.92570    0.84160    0.85430    1.000
    O80      O        0.95250    0.12120    0.72510    1.000
    Co21     Co       0.50520    0.38140    0.16870    1.000
    Co22     Co       0.48680    0.61960    0.32790    1.000
    Co23     Co       0.13150    0.24600    0.07770    1.000
    Co24     Co       0.62940    0.73760    0.08170    1.000
    P21      P        0.35210    0.25400    0.09990    1.000
    P22      P        0.49700    0.60080    0.14770    1.000
    P23      P        0.51150    0.39780    0.35010    1.000
    P24      P        0.64940    0.73880    0.39730    1.000
    O81      O        0.51420    0.50080    0.12410    1.000
    O82      O        0.59520    0.63090    0.14360    1.000
    O83      O        0.75000    0.73110    0.37490    1.000
    O84      O        0.38790    0.32380    0.15800    1.000
    O85      O        0.35510    0.30040    0.02060    1.000
    O86      O        0.44310    0.65460    0.08670    1.000
    O87      O        0.54980    0.39850    0.27190    1.000
    O88      O        0.59900    0.68390    0.33920    1.000
    O89      O        0.48780    0.49720    0.37200    1.000
    O90      O        0.25290    0.23790    0.12280    1.000
    O91      O        0.62000    0.84080    0.38810    1.000
    O92      O        0.63080    0.70370    0.47330    1.000
    O93      O        0.58350    0.36680    0.40570    1.000
    O94      O        0.40420    0.16660    0.09880    1.000
    O95      O        0.42570    0.34160    0.35430    1.000
    O96      O        0.45250    0.62120    0.22510    1.000
    Co25     Co       0.99480    0.61860    0.66870    1.000
    Co26     Co       0.01320    0.38040    0.82790    1.000
    Co27     Co       0.36850    0.75400    0.57770    1.000
    Co28     Co       0.87060    0.26240    0.58170    1.000
    P25      P        0.14790    0.74600    0.59990    1.000
    P26      P        0.00300    0.39920    0.64770    1.000
    P27      P        0.98850    0.60220    0.85010    1.000
    P28      P        0.85060    0.26120    0.89730    1.000
    O97      O        0.98580    0.49920    0.62410    1.000
    O98      O        0.90480    0.36910    0.64360    1.000
    O99      O        0.75000    0.26890    0.87490    1.000
    O100     O        0.11210    0.67620    0.65800    1.000
    O101     O        0.14490    0.69960    0.52060    1.000
    O102     O        0.05690    0.34540    0.58670    1.000
    O103     O        0.95020    0.60150    0.77190    1.000
    O104     O        0.90100    0.31610    0.83920    1.000
    O105     O        0.01220    0.50280    0.87200    1.000
    O106     O        0.24710    0.76210    0.62280    1.000
    O107     O        0.88000    0.15920    0.88810    1.000
    O108     O        0.86920    0.29630    0.97330    1.000
    O109     O        0.91650    0.63320    0.90570    1.000
    O110     O        0.09580    0.83340    0.59880    1.000
    O111     O        0.07430    0.65840    0.85430    1.000
    O112     O        0.04750    0.37880    0.72510    1.000
    Co29     Co       0.49480    0.11860    0.16870    1.000
    Co30     Co       0.51320    0.88040    0.32790    1.000
    Co31     Co       0.86850    0.25400    0.07770    1.000
    Co32     Co       0.37060    0.76240    0.08170    1.000
    P29      P        0.64790    0.24600    0.09990    1.000
    P30      P        0.50300    0.89920    0.14770    1.000
    P31      P        0.48850    0.10220    0.35010    1.000
    P32      P        0.35060    0.76120    0.39730    1.000
    O113     O        0.48580    0.99920    0.12410    1.000
    O114     O        0.40480    0.86910    0.14360    1.000
    O115     O        0.25000    0.76890    0.37490    1.000
    O116     O        0.61210    0.17620    0.15800    1.000
    O117     O        0.64490    0.19960    0.02060    1.000
    O118     O        0.55690    0.84540    0.08670    1.000
    O119     O        0.45020    0.10150    0.27190    1.000
    O120     O        0.40100    0.81610    0.33920    1.000
    O121     O        0.51220    0.00280    0.37200    1.000
    O122     O        0.74710    0.26210    0.12280    1.000
    O123     O        0.38000    0.65920    0.38810    1.000
    O124     O        0.36920    0.79630    0.47330    1.000
    O125     O        0.41650    0.13320    0.40570    1.000
    O126     O        0.59580    0.33340    0.09880    1.000
    O127     O        0.57430    0.15840    0.35430    1.000
    O128     O        0.54750    0.87880    0.22510    1.000
