data_functionalizedCrystal
_audit_creation_method	'EQeq! by Chris Wilmer'
_symmetry_space_group_name_H-M	'P1'
_symmetry_Int_Tables_number	1
_symmetry_cell_setting	triclinic
loop_
_symmetry_equiv_pos_as_xyz
  x,y,z
_cell_length_a	22.497
_cell_length_b	19.421
_cell_length_c	12.646
_cell_angle_alpha	90
_cell_angle_beta	90
_cell_angle_gamma	90
loop_
_atom_site_label
_atom_site_type_symbol
_atom_site_fract_x
_atom_site_fract_y
_atom_site_fract_z
_atom_site_charge
Mof_Cd	Cd	0.07524	0.48857	0.06144	0.432
Mof_O 	O 	0.99907	0.56487	0.0691	-0.269
Mof_O 	O 	0.07761	0.6242	0.0162	-0.259
Mof_O 	O 	0.01237	0.43361	0.2036	-0.286
Mof_O 	O 	0.08234	0.37762	0.1178	-0.314
Mof_N 	N 	0.15466	0.53123	0.1594	-0.141
Mof_N 	N 	0.18464	0.58355	0.1136	-0.222
Mof_H 	H 	0.172	0.616	0.076	0.144
Mof_N 	N 	0.37181	0.51259	0.4077	-0.191
Mof_N 	N 	0.39321	0.4826	0.3202	-0.196
Mof_H 	H 	0.431	0.465	0.312	0.146
Mof_C 	C 	0.02507	0.62203	0.0512	0.275
Mof_C 	C 	0.99289	0.68767	0.0715	-0.049
Mof_C 	C 	0.93416	0.68754	0.1086	-0.013
Mof_H 	H 	0.9146	0.646	0.1197	0.053
Mof_C 	C 	0.04005	0.37846	0.1814	0.31
Mof_C 	C 	0.02169	0.31166	0.2332	-0.12
Mof_C 	C 	0.98603	0.3117	0.3227	0.047
Mof_H 	H 	0.9724	0.3531	0.3506	0.004
Mof_C 	C 	0.178	0.4412	0.2918	-0.729
Mof_H 	H 	0.1599	0.4066	0.2483	0.242
Mof_H 	H 	0.1506	0.4552	0.3458	0.221
Mof_H 	H 	0.2132	0.4228	0.3241	0.225
Mof_C 	C 	0.19425	0.5019	0.2252	0.203
Mof_C 	C 	0.24875	0.5372	0.221	-0.135
Mof_C 	C 	0.24112	0.5892	0.1488	0.24
Mof_C 	C 	0.284	0.644	0.1117	-0.719
Mof_H 	H 	0.2634	0.6765	0.0677	0.224
Mof_H 	H 	0.3155	0.6229	0.0719	0.221
Mof_H 	H 	0.3005	0.6674	0.1718	0.244
Mof_C 	C 	0.276	0.5555	0.4547	-0.518
Mof_H 	H 	0.2567	0.5154	0.4831	0.069
Mof_H 	H 	0.2471	0.5839	0.4197	1.71
Mof_H 	H 	0.2941	0.581	0.5111	0.688
Mof_C 	C 	0.283	0.5829	0.4609	-1.272
Mof_H 	H 	0.2661	0.5556	0.5165	0.175
Mof_H 	H 	0.2519	0.6058	0.4228	-1.15
Mof_H 	H 	0.3094	0.6165	0.4908	0.21
Mof_C 	C 	0.31791	0.536	0.385	0.504
Mof_C 	C 	0.30408	0.52	0.2794	-0.28
Mof_C 	C 	0.3534	0.4865	0.2402	0.294
Mof_C 	C 	0.353	0.4301	0.1526	-0.101
Mof_H 	H 	0.3928	0.4139	0.1409	0.063
Mof_H 	H 	0.3375	0.4492	0.0882	0.02
Mof_H 	H 	0.3284	0.3924	0.1748	0.003
Mof_C 	C 	0.3697	0.467	0.1264	-0.665
Mof_H 	H 	0.3592	0.504	0.0797	0.196
Mof_H 	H 	0.3485	0.4261	0.1063	0.236
Mof_H 	H 	0.4117	0.4586	0.1219	0.203
Mof_Cd	Cd	0.42476	0.51143	0.56144	0.436
Mof_O 	O 	0.50093	0.43513	0.5691	-0.279
Mof_O 	O 	0.42239	0.3758	0.5162	-0.263
Mof_O 	O 	0.48763	0.56639	0.7036	-0.285
Mof_O 	O 	0.41766	0.62238	0.6178	-0.313
Mof_N 	N 	0.34534	0.46877	0.6594	-0.142
Mof_N 	N 	0.31536	0.41645	0.6136	-0.223
Mof_H 	H 	0.328	0.384	0.576	0.145
Mof_N 	N 	0.12819	0.48741	0.9077	-0.186
Mof_N 	N 	0.10679	0.5174	0.8202	-0.196
Mof_H 	H 	0.069	0.535	0.812	0.147
Mof_C 	C 	0.47493	0.37797	0.5512	0.294
Mof_C 	C 	0.50711	0.31233	0.5715	-0.08
Mof_C 	C 	0.56584	0.31246	0.6086	0.008
Mof_H 	H 	0.5854	0.354	0.6197	0.045
Mof_C 	C 	0.45995	0.62154	0.6814	0.308
Mof_C 	C 	0.47831	0.68834	0.7332	-0.113
Mof_C 	C 	0.51397	0.6883	0.8227	0.037
Mof_H 	H 	0.5276	0.6469	0.8506	0.007
Mof_C 	C 	0.322	0.5588	0.7918	-0.732
Mof_H 	H 	0.3401	0.5934	0.7483	0.243
Mof_H 	H 	0.3494	0.5448	0.8458	0.223
Mof_H 	H 	0.2868	0.5772	0.8241	0.227
Mof_C 	C 	0.30575	0.4981	0.7252	0.206
Mof_C 	C 	0.25125	0.4628	0.721	-0.138
Mof_C 	C 	0.25888	0.4108	0.6488	0.241
Mof_C 	C 	0.216	0.356	0.6117	-0.72
Mof_H 	H 	0.2366	0.3235	0.5677	0.225
Mof_H 	H 	0.1845	0.3771	0.5719	0.221
Mof_H 	H 	0.1995	0.3326	0.6718	0.244
Mof_C 	C 	0.224	0.4445	0.9547	-0.497
Mof_H 	H 	0.2433	0.4846	0.9831	0.068
Mof_H 	H 	0.2529	0.4161	0.9197	1.64
Mof_H 	H 	0.2059	0.419	0.0111	0.655
Mof_C 	C 	0.217	0.4171	0.9609	-1.221
Mof_H 	H 	0.2339	0.4444	0.0165	0.167
Mof_H 	H 	0.2481	0.3942	0.9228	-1.102
Mof_H 	H 	0.1906	0.3835	0.9908	0.206
Mof_C 	C 	0.18209	0.464	0.885	0.486
Mof_C 	C 	0.19592	0.48	0.7794	-0.271
Mof_C 	C 	0.1466	0.5135	0.7402	0.29
Mof_C 	C 	0.147	0.5699	0.6526	-0.1
Mof_H 	H 	0.1072	0.5861	0.6409	0.063
Mof_H 	H 	0.1625	0.5508	0.5882	0.02
Mof_H 	H 	0.1716	0.6076	0.6748	0.003
Mof_C 	C 	0.1303	0.533	0.6264	-0.663
Mof_H 	H 	0.1408	0.496	0.5797	0.195
Mof_H 	H 	0.1515	0.5739	0.6063	0.235
Mof_H 	H 	0.0883	0.5414	0.6219	0.202
Mof_Cd	Cd	0.07524	0.01143	0.06144	0.428
Mof_O 	O 	0.99907	0.93513	0.0691	-0.267
Mof_O 	O 	0.07761	0.8758	0.0162	-0.258
Mof_O 	O 	0.01237	0.06639	0.2036	-0.288
Mof_O 	O 	0.08234	0.12238	0.1178	-0.315
Mof_N 	N 	0.15466	0.96877	0.1594	-0.141
Mof_N 	N 	0.18464	0.91645	0.1136	-0.222
Mof_H 	H 	0.172	0.884	0.076	0.145
Mof_N 	N 	0.37181	0.98741	0.4077	-0.19
Mof_N 	N 	0.39321	0.0174	0.3202	-0.196
Mof_H 	H 	0.431	0.035	0.312	0.146
Mof_C 	C 	0.02507	0.87797	0.0512	0.274
Mof_C 	C 	0.99289	0.81233	0.0715	-0.048
Mof_C 	C 	0.93416	0.81246	0.1086	-0.014
Mof_H 	H 	0.9146	0.854	0.1197	0.054
Mof_C 	C 	0.04005	0.12154	0.1814	0.31
Mof_C 	C 	0.02169	0.18834	0.2332	-0.12
Mof_C 	C 	0.98603	0.1883	0.3227	0.046
Mof_H 	H 	0.9724	0.1469	0.3506	0.004
Mof_C 	C 	0.178	0.0588	0.2918	-0.736
Mof_H 	H 	0.1599	0.0934	0.2483	0.245
Mof_H 	H 	0.1506	0.0448	0.3458	0.223
Mof_H 	H 	0.2132	0.0772	0.3241	0.227
Mof_C 	C 	0.19425	0.9981	0.2252	0.208
Mof_C 	C 	0.24875	0.9628	0.221	-0.136
Mof_C 	C 	0.24112	0.9108	0.1488	0.241
Mof_C 	C 	0.284	0.856	0.1117	-0.721
Mof_H 	H 	0.2634	0.8235	0.0677	0.225
Mof_H 	H 	0.3155	0.8771	0.0719	0.222
Mof_H 	H 	0.3005	0.8326	0.1718	0.245
Mof_C 	C 	0.276	0.9445	0.4547	-0.517
Mof_H 	H 	0.2567	0.9846	0.4831	0.068
Mof_H 	H 	0.2471	0.9161	0.4197	1.706
Mof_H 	H 	0.2941	0.919	0.5111	0.686
Mof_C 	C 	0.283	0.9171	0.4609	-1.269
Mof_H 	H 	0.2661	0.9444	0.5165	0.175
Mof_H 	H 	0.2519	0.8942	0.4228	-1.148
Mof_H 	H 	0.3094	0.8835	0.4908	0.209
Mof_C 	C 	0.31791	0.964	0.385	0.503
Mof_C 	C 	0.30408	0.98	0.2794	-0.278
Mof_C 	C 	0.3534	0.0135	0.2402	0.294
Mof_C 	C 	0.353	0.0699	0.1526	-0.106
Mof_H 	H 	0.3928	0.0861	0.1409	0.064
Mof_H 	H 	0.3375	0.0508	0.0882	0.017
Mof_H 	H 	0.3284	0.1076	0.1748	0.003
Mof_C 	C 	0.3697	0.033	0.1264	-0.672
Mof_H 	H 	0.3592	0.996	0.0797	0.201
Mof_H 	H 	0.3485	0.0739	0.1063	0.243
Mof_H 	H 	0.4117	0.0414	0.1219	0.204
Mof_Cd	Cd	0.42476	0.98857	0.56144	0.435
Mof_O 	O 	0.50093	0.06487	0.5691	-0.279
Mof_O 	O 	0.42239	0.1242	0.5162	-0.263
Mof_O 	O 	0.48763	0.93361	0.7036	-0.285
Mof_O 	O 	0.41766	0.87762	0.6178	-0.313
Mof_N 	N 	0.34534	0.03123	0.6594	-0.142
Mof_N 	N 	0.31536	0.08355	0.6136	-0.223
Mof_H 	H 	0.328	0.116	0.576	0.145
Mof_N 	N 	0.12819	0.01259	0.9077	-0.18
Mof_N 	N 	0.10679	0.9826	0.8202	-0.197
Mof_H 	H 	0.069	0.965	0.812	0.146
Mof_C 	C 	0.47493	0.12203	0.5512	0.294
Mof_C 	C 	0.50711	0.18767	0.5715	-0.08
Mof_C 	C 	0.56584	0.18754	0.6086	0.008
Mof_H 	H 	0.5854	0.146	0.6197	0.045
Mof_C 	C 	0.45995	0.87846	0.6814	0.308
Mof_C 	C 	0.47831	0.81166	0.7332	-0.113
Mof_C 	C 	0.51397	0.8117	0.8227	0.037
Mof_H 	H 	0.5276	0.8531	0.8506	0.006
Mof_C 	C 	0.322	0.9412	0.7918	-0.741
Mof_H 	H 	0.3401	0.9066	0.7483	0.245
Mof_H 	H 	0.3494	0.9552	0.8458	0.225
Mof_H 	H 	0.2868	0.9228	0.8241	0.229
Mof_C 	C 	0.30575	0.0019	0.7252	0.212
Mof_C 	C 	0.25125	0.0372	0.721	-0.142
Mof_C 	C 	0.25888	0.0892	0.6488	0.243
Mof_C 	C 	0.216	0.144	0.6117	-0.723
Mof_H 	H 	0.2366	0.1765	0.5677	0.225
Mof_H 	H 	0.1845	0.1229	0.5719	0.222
Mof_H 	H 	0.1995	0.1674	0.6718	0.245
Mof_C 	C 	0.224	0.0555	0.9547	-0.479
Mof_H 	H 	0.2433	0.0154	0.9831	0.069
Mof_H 	H 	0.2529	0.0839	0.9197	1.586
Mof_H 	H 	0.2059	0.081	0.0111	0.631
Mof_C 	C 	0.217	0.0829	0.9609	-1.18
Mof_H 	H 	0.2339	0.0556	0.0165	0.159
Mof_H 	H 	0.2481	0.1058	0.9228	-1.065
Mof_H 	H 	0.1906	0.1165	0.9908	0.202
Mof_C 	C 	0.18209	0.036	0.885	0.47
Mof_C 	C 	0.19592	0.02	0.7794	-0.259
Mof_C 	C 	0.1466	0.9865	0.7402	0.284
Mof_C 	C 	0.147	0.9301	0.6526	-0.101
Mof_H 	H 	0.1072	0.9139	0.6409	0.063
Mof_H 	H 	0.1625	0.9492	0.5882	0.018
Mof_H 	H 	0.1716	0.8924	0.6748	0.003
Mof_C 	C 	0.1303	0.967	0.6264	-0.661
Mof_H 	H 	0.1408	0.004	0.5797	0.196
Mof_H 	H 	0.1515	0.9261	0.6063	0.237
Mof_H 	H 	0.0883	0.9586	0.6219	0.202
Mof_C 	C 	0.9046	0.75	0.1292	-0.056
Mof_H 	H 	0.8661	0.75	0.1559	0.054
Mof_C 	C 	0.02074	0.75	0.0538	-0.019
Mof_H 	H 	0.0597	0.75	0.0291	0.058
Mof_C 	C 	0.5954	0.25	0.6292	-0.077
Mof_H 	H 	0.6339	0.25	0.6559	0.063
Mof_C 	C 	0.47926	0.25	0.5538	0.018
Mof_H 	H 	0.4403	0.25	0.5291	0.047
Mof_C 	C 	0.9707	0.25	0.3704	-0.129
Mof_H 	H 	0.9502	0.25	0.4343	0.063
Mof_C 	C 	0.03902	0.25	0.1912	0.048
Mof_H 	H 	0.0635	0.25	0.1319	0.036
Mof_C 	C 	0.5293	0.75	0.8704	-0.12
Mof_H 	H 	0.5498	0.75	0.9343	0.06
Mof_C 	C 	0.46098	0.75	0.6912	0.042
Mof_H 	H 	0.4365	0.75	0.6319	0.04
Mof_Cd	Cd	0.92476	0.98857	0.93856	0.428
Mof_O 	O 	0.00093	0.06487	0.9309	-0.267
Mof_O 	O 	0.92239	0.1242	0.9838	-0.258
Mof_O 	O 	0.98763	0.93361	0.7964	-0.288
Mof_O 	O 	0.91766	0.87762	0.8822	-0.315
Mof_N 	N 	0.84534	0.03123	0.8406	-0.141
Mof_N 	N 	0.81536	0.08355	0.8864	-0.222
Mof_H 	H 	0.828	0.116	0.924	0.145
Mof_N 	N 	0.62819	0.01259	0.5923	-0.19
Mof_N 	N 	0.60679	0.9826	0.6798	-0.196
Mof_H 	H 	0.569	0.965	0.688	0.146
Mof_C 	C 	0.97493	0.12203	0.9488	0.274
Mof_C 	C 	0.00711	0.18767	0.9285	-0.048
Mof_C 	C 	0.06584	0.18754	0.8914	-0.014
Mof_H 	H 	0.0854	0.146	0.8803	0.054
Mof_C 	C 	0.95995	0.87846	0.8186	0.31
Mof_C 	C 	0.97831	0.81166	0.7668	-0.12
Mof_C 	C 	0.01397	0.8117	0.6773	0.046
Mof_H 	H 	0.0276	0.8531	0.6494	0.004
Mof_C 	C 	0.822	0.9412	0.7082	-0.736
Mof_H 	H 	0.8401	0.9066	0.7517	0.245
Mof_H 	H 	0.8494	0.9552	0.6542	0.223
Mof_H 	H 	0.7868	0.9228	0.6759	0.227
Mof_C 	C 	0.80575	0.0019	0.7748	0.208
Mof_C 	C 	0.75125	0.0372	0.779	-0.136
Mof_C 	C 	0.75888	0.0892	0.8512	0.241
Mof_C 	C 	0.716	0.144	0.8883	-0.721
Mof_H 	H 	0.7366	0.1765	0.9323	0.225
Mof_H 	H 	0.6845	0.1229	0.9281	0.222
Mof_H 	H 	0.6995	0.1674	0.8282	0.245
Mof_C 	C 	0.724	0.0555	0.5453	-0.517
Mof_H 	H 	0.7433	0.0154	0.5169	0.068
Mof_H 	H 	0.7529	0.0839	0.5803	1.706
Mof_H 	H 	0.7059	0.081	0.4889	0.686
Mof_C 	C 	0.717	0.0829	0.5391	-1.269
Mof_H 	H 	0.7339	0.0556	0.4835	0.175
Mof_H 	H 	0.7481	0.1058	0.5772	-1.148
Mof_H 	H 	0.6906	0.1165	0.5092	0.209
Mof_C 	C 	0.68209	0.036	0.615	0.503
Mof_C 	C 	0.69592	0.02	0.7206	-0.278
Mof_C 	C 	0.6466	0.9865	0.7598	0.294
Mof_C 	C 	0.647	0.9301	0.8474	-0.106
Mof_H 	H 	0.6072	0.9139	0.8591	0.064
Mof_H 	H 	0.6625	0.9492	0.9118	0.017
Mof_H 	H 	0.6716	0.8924	0.8252	0.003
Mof_C 	C 	0.6303	0.967	0.8736	-0.672
Mof_H 	H 	0.6408	0.004	0.9203	0.201
Mof_H 	H 	0.6515	0.9261	0.8937	0.243
Mof_H 	H 	0.5883	0.9586	0.8781	0.204
Mof_Cd	Cd	0.57524	0.01143	0.43856	0.435
Mof_O 	O 	0.49907	0.93513	0.4309	-0.279
Mof_O 	O 	0.57761	0.8758	0.4838	-0.263
Mof_O 	O 	0.51237	0.06639	0.2964	-0.285
Mof_O 	O 	0.58234	0.12238	0.3822	-0.313
Mof_N 	N 	0.65466	0.96877	0.3406	-0.142
Mof_N 	N 	0.68464	0.91645	0.3864	-0.223
Mof_H 	H 	0.672	0.884	0.424	0.145
Mof_N 	N 	0.87181	0.98741	0.0923	-0.18
Mof_N 	N 	0.89321	0.0174	0.1798	-0.197
Mof_H 	H 	0.931	0.035	0.188	0.146
Mof_C 	C 	0.52507	0.87797	0.4488	0.294
Mof_C 	C 	0.49289	0.81233	0.4285	-0.08
Mof_C 	C 	0.43416	0.81246	0.3914	0.008
Mof_H 	H 	0.4146	0.854	0.3803	0.045
Mof_C 	C 	0.54005	0.12154	0.3186	0.308
Mof_C 	C 	0.52169	0.18834	0.2668	-0.113
Mof_C 	C 	0.48603	0.1883	0.1773	0.037
Mof_H 	H 	0.4724	0.1469	0.1494	0.006
Mof_C 	C 	0.678	0.0588	0.2082	-0.741
Mof_H 	H 	0.6599	0.0934	0.2517	0.245
Mof_H 	H 	0.6506	0.0448	0.1542	0.225
Mof_H 	H 	0.7132	0.0772	0.1759	0.229
Mof_C 	C 	0.69425	0.9981	0.2748	0.212
Mof_C 	C 	0.74875	0.9628	0.279	-0.142
Mof_C 	C 	0.74112	0.9108	0.3512	0.243
Mof_C 	C 	0.784	0.856	0.3883	-0.723
Mof_H 	H 	0.7634	0.8235	0.4323	0.225
Mof_H 	H 	0.8155	0.8771	0.4281	0.222
Mof_H 	H 	0.8005	0.8326	0.3282	0.245
Mof_C 	C 	0.776	0.9445	0.0453	-0.479
Mof_H 	H 	0.7567	0.9846	0.0169	0.069
Mof_H 	H 	0.7471	0.9161	0.0803	1.586
Mof_H 	H 	0.7941	0.919	0.9889	0.631
Mof_C 	C 	0.783	0.9171	0.0391	-1.18
Mof_H 	H 	0.7661	0.9444	0.9835	0.159
Mof_H 	H 	0.7519	0.8942	0.0772	-1.065
Mof_H 	H 	0.8094	0.8835	0.0092	0.202
Mof_C 	C 	0.81791	0.964	0.115	0.47
Mof_C 	C 	0.80408	0.98	0.2206	-0.259
Mof_C 	C 	0.8534	0.0135	0.2598	0.284
Mof_C 	C 	0.853	0.0699	0.3474	-0.101
Mof_H 	H 	0.8928	0.0861	0.3591	0.063
Mof_H 	H 	0.8375	0.0508	0.4118	0.018
Mof_H 	H 	0.8284	0.1076	0.3252	0.003
Mof_C 	C 	0.8697	0.033	0.3736	-0.661
Mof_H 	H 	0.8592	0.996	0.4203	0.196
Mof_H 	H 	0.8485	0.0739	0.3937	0.237
Mof_H 	H 	0.9117	0.0414	0.3781	0.202
Mof_Cd	Cd	0.92476	0.51143	0.93856	0.431
Mof_O 	O 	0.00093	0.43513	0.9309	-0.27
Mof_O 	O 	0.92239	0.3758	0.9838	-0.26
Mof_O 	O 	0.98763	0.56639	0.7964	-0.287
Mof_O 	O 	0.91766	0.62238	0.8822	-0.314
Mof_N 	N 	0.84534	0.46877	0.8406	-0.141
Mof_N 	N 	0.81536	0.41645	0.8864	-0.222
Mof_H 	H 	0.828	0.384	0.924	0.144
Mof_N 	N 	0.62819	0.48741	0.5923	-0.191
Mof_N 	N 	0.60679	0.5174	0.6798	-0.196
Mof_H 	H 	0.569	0.535	0.688	0.146
Mof_C 	C 	0.97493	0.37797	0.9488	0.275
Mof_C 	C 	0.00711	0.31233	0.9285	-0.049
Mof_C 	C 	0.06584	0.31246	0.8914	-0.013
Mof_H 	H 	0.0854	0.354	0.8803	0.053
Mof_C 	C 	0.95995	0.62154	0.8186	0.31
Mof_C 	C 	0.97831	0.68834	0.7668	-0.12
Mof_C 	C 	0.01397	0.6883	0.6773	0.047
Mof_H 	H 	0.0276	0.6469	0.6494	0.004
Mof_C 	C 	0.822	0.5588	0.7082	-0.729
Mof_H 	H 	0.8401	0.5934	0.7517	0.242
Mof_H 	H 	0.8494	0.5448	0.6542	0.221
Mof_H 	H 	0.7868	0.5772	0.6759	0.225
Mof_C 	C 	0.80575	0.4981	0.7748	0.203
Mof_C 	C 	0.75125	0.4628	0.779	-0.135
Mof_C 	C 	0.75888	0.4108	0.8512	0.24
Mof_C 	C 	0.716	0.356	0.8883	-0.719
Mof_H 	H 	0.7366	0.3235	0.9323	0.224
Mof_H 	H 	0.6845	0.3771	0.9281	0.221
Mof_H 	H 	0.6995	0.3326	0.8282	0.244
Mof_C 	C 	0.724	0.4445	0.5453	-0.518
Mof_H 	H 	0.7433	0.4846	0.5169	0.069
Mof_H 	H 	0.7529	0.4161	0.5803	1.71
Mof_H 	H 	0.7059	0.419	0.4889	0.688
Mof_C 	C 	0.717	0.4171	0.5391	-1.272
Mof_H 	H 	0.7339	0.4444	0.4835	0.175
Mof_H 	H 	0.7481	0.3942	0.5772	-1.15
Mof_H 	H 	0.6906	0.3835	0.5092	0.21
Mof_C 	C 	0.68209	0.464	0.615	0.504
Mof_C 	C 	0.69592	0.48	0.7206	-0.28
Mof_C 	C 	0.6466	0.5135	0.7598	0.294
Mof_C 	C 	0.647	0.5699	0.8474	-0.101
Mof_H 	H 	0.6072	0.5861	0.8591	0.063
Mof_H 	H 	0.6625	0.5508	0.9118	0.02
Mof_H 	H 	0.6716	0.6076	0.8252	0.003
Mof_C 	C 	0.6303	0.533	0.8736	-0.665
Mof_H 	H 	0.6408	0.496	0.9203	0.196
Mof_H 	H 	0.6515	0.5739	0.8937	0.236
Mof_H 	H 	0.5883	0.5414	0.8781	0.203
Mof_Cd	Cd	0.57524	0.48857	0.43856	0.436
Mof_O 	O 	0.49907	0.56487	0.4309	-0.279
Mof_O 	O 	0.57761	0.6242	0.4838	-0.263
Mof_O 	O 	0.51237	0.43361	0.2964	-0.285
Mof_O 	O 	0.58234	0.37762	0.3822	-0.313
Mof_N 	N 	0.65466	0.53123	0.3406	-0.142
Mof_N 	N 	0.68464	0.58355	0.3864	-0.223
Mof_H 	H 	0.672	0.616	0.424	0.145
Mof_N 	N 	0.87181	0.51259	0.0923	-0.186
Mof_N 	N 	0.89321	0.4826	0.1798	-0.196
Mof_H 	H 	0.931	0.465	0.188	0.147
Mof_C 	C 	0.52507	0.62203	0.4488	0.294
Mof_C 	C 	0.49289	0.68767	0.4285	-0.08
Mof_C 	C 	0.43416	0.68754	0.3914	0.008
Mof_H 	H 	0.4146	0.646	0.3803	0.045
Mof_C 	C 	0.54005	0.37846	0.3186	0.308
Mof_C 	C 	0.52169	0.31166	0.2668	-0.113
Mof_C 	C 	0.48603	0.3117	0.1773	0.037
Mof_H 	H 	0.4724	0.3531	0.1494	0.007
Mof_C 	C 	0.678	0.4412	0.2082	-0.732
Mof_H 	H 	0.6599	0.4066	0.2517	0.243
Mof_H 	H 	0.6506	0.4552	0.1542	0.223
Mof_H 	H 	0.7132	0.4228	0.1759	0.227
Mof_C 	C 	0.69425	0.5019	0.2748	0.206
Mof_C 	C 	0.74875	0.5372	0.279	-0.138
Mof_C 	C 	0.74112	0.5892	0.3512	0.241
Mof_C 	C 	0.784	0.644	0.3883	-0.72
Mof_H 	H 	0.7634	0.6765	0.4323	0.225
Mof_H 	H 	0.8155	0.6229	0.4281	0.221
Mof_H 	H 	0.8005	0.6674	0.3282	0.244
Mof_C 	C 	0.776	0.5555	0.0453	-0.497
Mof_H 	H 	0.7567	0.5154	0.0169	0.068
Mof_H 	H 	0.7471	0.5839	0.0803	1.64
Mof_H 	H 	0.7941	0.581	0.9889	0.655
Mof_C 	C 	0.783	0.5829	0.0391	-1.221
Mof_H 	H 	0.7661	0.5556	0.9835	0.167
Mof_H 	H 	0.7519	0.6058	0.0772	-1.102
Mof_H 	H 	0.8094	0.6165	0.0092	0.206
Mof_C 	C 	0.81791	0.536	0.115	0.486
Mof_C 	C 	0.80408	0.52	0.2206	-0.271
Mof_C 	C 	0.8534	0.4865	0.2598	0.29
Mof_C 	C 	0.853	0.4301	0.3474	-0.1
Mof_H 	H 	0.8928	0.4139	0.3591	0.063
Mof_H 	H 	0.8375	0.4492	0.4118	0.02
Mof_H 	H 	0.8284	0.3924	0.3252	0.003
Mof_C 	C 	0.8697	0.467	0.3736	-0.663
Mof_H 	H 	0.8592	0.504	0.4203	0.195
Mof_H 	H 	0.8485	0.4261	0.3937	0.235
Mof_H 	H 	0.9117	0.4586	0.3781	0.202
Mof_C 	C 	0.0954	0.25	0.8708	-0.056
Mof_H 	H 	0.1339	0.25	0.8441	0.054
Mof_C 	C 	0.97926	0.25	0.9462	-0.019
Mof_H 	H 	0.9403	0.25	0.9709	0.058
Mof_C 	C 	0.4046	0.75	0.3708	-0.077
Mof_H 	H 	0.3661	0.75	0.3441	0.063
Mof_C 	C 	0.52074	0.75	0.4462	0.018
Mof_H 	H 	0.5597	0.75	0.4709	0.047
Mof_C 	C 	0.0293	0.75	0.6296	-0.129
Mof_H 	H 	0.0498	0.75	0.5657	0.063
Mof_C 	C 	0.96098	0.75	0.8088	0.048
Mof_H 	H 	0.9365	0.75	0.8681	0.036
Mof_C 	C 	0.4707	0.25	0.1296	-0.12
Mof_H 	H 	0.4502	0.25	0.0657	0.06
Mof_C 	C 	0.53902	0.25	0.3088	0.042
Mof_H 	H 	0.5635	0.25	0.3681	0.04
_end
