# CIF file generated by openbabel 3.1.0, see https://openbabel.org
data_I
_chemical_name_common 'image0'
_cell_length_a 13.4333
_cell_length_b 13.8493
_cell_length_c 26.7477
_cell_angle_alpha 90
_cell_angle_beta 101.55
_cell_angle_gamma 90
_space_group_name_H-M_alt 'P 1'
_space_group_name_Hall 'P 1'
loop_
    _symmetry_equiv_pos_as_xyz
    x,y,z
loop_
    _atom_site_label
    _atom_site_type_symbol
    _atom_site_fract_x
    _atom_site_fract_y
    _atom_site_fract_z
    _atom_site_occupancy
    Fe1      Fe       0.47925    0.36603    0.22908    1.000
    Fe2      Fe       0.48841    0.61244    0.25751    1.000
    N1       N        0.47040    0.79710    0.69680    1.000
    N2       N        0.49750    0.70170    0.70269    1.000
    N3       N        0.50130    0.67970    0.32583    1.000
    N4       N        0.61450    0.53650    0.25217    1.000
    N5       N        0.60490    0.44650    0.23087    1.000
    N6       N        0.51970    0.77670    0.33012    1.000
    N7       N        0.35120    0.44260    0.22759    1.000
    N8       N        0.36110    0.53320    0.24901    1.000
    C1       C        0.26790    0.56200    0.25456    1.000
    H1       H        0.25350    0.62190    0.26890    1.000
    C2       C        0.19580    0.49130    0.23616    1.000
    C3       C        0.25310    0.41710    0.21996    1.000
    H2       H        0.22620    0.35750    0.20570    1.000
    C4       C        0.08530    0.49280    0.23573    1.000
    C5       C        0.04340    0.56750    0.25957    1.000
    H3       H        0.08570    0.61850    0.27530    1.000
    C6       C        0.94020    0.56830    0.26064    1.000
    H4       H        0.91270    0.61980    0.27700    1.000
    C7       C        0.87670    0.49360    0.23765    1.000
    C8       C        0.91920    0.41930    0.21394    1.000
    H5       H        0.87740    0.36800    0.19830    1.000
    C9       C        0.02260    0.41920    0.21284    1.000
    H6       H        0.05030    0.36810    0.19620    1.000
    C10      C        0.69740    0.42020    0.22255    1.000
    H7       H        0.71240    0.36090    0.20780    1.000
    C11      C        0.76660    0.49320    0.23893    1.000
    C12      C        0.71100    0.56460    0.25706    1.000
    H8       H        0.73750    0.62460    0.27090    1.000
    C13      C        0.48750    0.64660    0.37133    1.000
    H9       H        0.47450    0.58120    0.37860    1.000
    C14      C        0.49510    0.72160    0.40601    1.000
    C15      C        0.51630    0.80230    0.37836    1.000
    H10      H        0.52660    0.86590    0.39170    1.000
    C16      C        0.48540    0.72200    0.45981    1.000
    C17      C        0.51080    0.64250    0.49144    1.000
    H11      H        0.53210    0.58450    0.47780    1.000
    C18      C        0.50560    0.64640    0.54290    1.000
    H12      H        0.52400    0.59130    0.56390    1.000
    C19      C        0.47360    0.73050    0.56401    1.000
    C20      C        0.44370    0.80890    0.53168    1.000
    H13      H        0.41870    0.86580    0.54470    1.000
    C21      C        0.45010    0.80440    0.48103    1.000
    H14      H        0.43000    0.85890    0.45980    1.000
    C22      C        0.45510    0.81790    0.64696    1.000
    H15      H        0.43400    0.87910    0.63260    1.000
    C23      C        0.47450    0.73700    0.61891    1.000
    C24      C        0.50070    0.66590    0.65635    1.000
    H16      H        0.51820    0.60130    0.64990    1.000
    Fe3      Fe       0.52075    0.86603    0.27092    1.000
    Fe4      Fe       0.51159    0.11244    0.24249    1.000
    N9       N        0.52960    0.29710    0.80320    1.000
    N10      N        0.50250    0.20170    0.79731    1.000
    N11      N        0.49870    0.17970    0.17417    1.000
    N12      N        0.38550    0.03650    0.24783    1.000
    N13      N        0.39510    0.94650    0.26913    1.000
    N14      N        0.48030    0.27670    0.16988    1.000
    N15      N        0.64880    0.94260    0.27241    1.000
    N16      N        0.63890    0.03320    0.25099    1.000
    C25      C        0.73210    0.06200    0.24544    1.000
    H17      H        0.74650    0.12190    0.23110    1.000
    C26      C        0.80420    0.99130    0.26384    1.000
    C27      C        0.74690    0.91710    0.28004    1.000
    H18      H        0.77380    0.85750    0.29430    1.000
    C28      C        0.91470    0.99280    0.26427    1.000
    C29      C        0.95660    0.06750    0.24043    1.000
    H19      H        0.91430    0.11850    0.22470    1.000
    C30      C        0.05980    0.06830    0.23936    1.000
    H20      H        0.08730    0.11980    0.22300    1.000
    C31      C        0.12330    0.99360    0.26235    1.000
    C32      C        0.08080    0.91930    0.28606    1.000
    H21      H        0.12260    0.86800    0.30170    1.000
    C33      C        0.97740    0.91920    0.28716    1.000
    H22      H        0.94970    0.86810    0.30380    1.000
    C34      C        0.30260    0.92020    0.27745    1.000
    H23      H        0.28760    0.86090    0.29220    1.000
    C35      C        0.23340    0.99320    0.26107    1.000
    C36      C        0.28900    0.06460    0.24294    1.000
    H24      H        0.26250    0.12460    0.22910    1.000
    C37      C        0.51250    0.14660    0.12867    1.000
    H25      H        0.52550    0.08120    0.12140    1.000
    C38      C        0.50490    0.22160    0.09399    1.000
    C39      C        0.48370    0.30230    0.12164    1.000
    H26      H        0.47340    0.36590    0.10830    1.000
    C40      C        0.51460    0.22200    0.04019    1.000
    C41      C        0.48920    0.14250    0.00856    1.000
    H27      H        0.46790    0.08450    0.02220    1.000
    C42      C        0.49440    0.14640    0.95710    1.000
    H28      H        0.47600    0.09130    0.93610    1.000
    C43      C        0.52640    0.23050    0.93599    1.000
    C44      C        0.55630    0.30890    0.96832    1.000
    H29      H        0.58130    0.36580    0.95530    1.000
    C45      C        0.54990    0.30440    0.01897    1.000
    H30      H        0.57000    0.35890    0.04020    1.000
    C46      C        0.54490    0.31790    0.85304    1.000
    H31      H        0.56600    0.37910    0.86740    1.000
    C47      C        0.52550    0.23700    0.88109    1.000
    C48      C        0.49930    0.16590    0.84365    1.000
    H32      H        0.48180    0.10130    0.85010    1.000
    Fe5      Fe       0.52075    0.63397    0.77092    1.000
    Fe6      Fe       0.51159    0.38756    0.74249    1.000
    N17      N        0.52960    0.20290    0.30320    1.000
    N18      N        0.50250    0.29830    0.29731    1.000
    N19      N        0.49870    0.32030    0.67417    1.000
    N20      N        0.38550    0.46350    0.74783    1.000
    N21      N        0.39510    0.55350    0.76913    1.000
    N22      N        0.48030    0.22330    0.66988    1.000
    N23      N        0.64880    0.55740    0.77241    1.000
    N24      N        0.63890    0.46680    0.75099    1.000
    C49      C        0.73210    0.43800    0.74544    1.000
    H33      H        0.74650    0.37810    0.73110    1.000
    C50      C        0.80420    0.50870    0.76384    1.000
    C51      C        0.74690    0.58290    0.78004    1.000
    H34      H        0.77380    0.64250    0.79430    1.000
    C52      C        0.91470    0.50720    0.76427    1.000
    C53      C        0.95660    0.43250    0.74043    1.000
    H35      H        0.91430    0.38150    0.72470    1.000
    C54      C        0.05980    0.43170    0.73936    1.000
    H36      H        0.08730    0.38020    0.72300    1.000
    C55      C        0.12330    0.50640    0.76235    1.000
    C56      C        0.08080    0.58070    0.78606    1.000
    H37      H        0.12260    0.63200    0.80170    1.000
    C57      C        0.97740    0.58080    0.78716    1.000
    H38      H        0.94970    0.63190    0.80380    1.000
    C58      C        0.30260    0.57980    0.77745    1.000
    H39      H        0.28760    0.63910    0.79220    1.000
    C59      C        0.23340    0.50680    0.76107    1.000
    C60      C        0.28900    0.43540    0.74294    1.000
    H40      H        0.26250    0.37540    0.72910    1.000
    C61      C        0.51250    0.35340    0.62867    1.000
    H41      H        0.52550    0.41880    0.62140    1.000
    C62      C        0.50490    0.27840    0.59399    1.000
    C63      C        0.48370    0.19770    0.62164    1.000
    H42      H        0.47340    0.13410    0.60830    1.000
    C64      C        0.51460    0.27800    0.54019    1.000
    C65      C        0.48920    0.35750    0.50856    1.000
    H43      H        0.46790    0.41550    0.52220    1.000
    C66      C        0.49440    0.35360    0.45710    1.000
    H44      H        0.47600    0.40870    0.43610    1.000
    C67      C        0.52640    0.26950    0.43599    1.000
    C68      C        0.55630    0.19110    0.46832    1.000
    H45      H        0.58130    0.13420    0.45530    1.000
    C69      C        0.54990    0.19560    0.51897    1.000
    H46      H        0.57000    0.14110    0.54020    1.000
    C70      C        0.54490    0.18210    0.35304    1.000
    H47      H        0.56600    0.12090    0.36740    1.000
    C71      C        0.52550    0.26300    0.38109    1.000
    C72      C        0.49930    0.33410    0.34365    1.000
    H48      H        0.48180    0.39870    0.35010    1.000
    Fe7      Fe       0.47925    0.13397    0.72908    1.000
    Fe8      Fe       0.48841    0.88756    0.75751    1.000
    N25      N        0.47040    0.70290    0.19680    1.000
    N26      N        0.49750    0.79830    0.20269    1.000
    N27      N        0.50130    0.82030    0.82583    1.000
    N28      N        0.61450    0.96350    0.75217    1.000
    N29      N        0.60490    0.05350    0.73087    1.000
    N30      N        0.51970    0.72330    0.83012    1.000
    N31      N        0.35120    0.05740    0.72759    1.000
    N32      N        0.36110    0.96680    0.74901    1.000
    C73      C        0.26790    0.93800    0.75456    1.000
    H49      H        0.25350    0.87810    0.76890    1.000
    C74      C        0.19580    0.00870    0.73616    1.000
    C75      C        0.25310    0.08290    0.71996    1.000
    H50      H        0.22620    0.14250    0.70570    1.000
    C76      C        0.08530    0.00720    0.73573    1.000
    C77      C        0.04340    0.93250    0.75957    1.000
    H51      H        0.08570    0.88150    0.77530    1.000
    C78      C        0.94020    0.93170    0.76064    1.000
    H52      H        0.91270    0.88020    0.77700    1.000
    C79      C        0.87670    0.00640    0.73765    1.000
    C80      C        0.91920    0.08070    0.71394    1.000
    H53      H        0.87740    0.13200    0.69830    1.000
    C81      C        0.02260    0.08080    0.71284    1.000
    H54      H        0.05030    0.13190    0.69620    1.000
    C82      C        0.69740    0.07980    0.72255    1.000
    H55      H        0.71240    0.13910    0.70780    1.000
    C83      C        0.76660    0.00680    0.73893    1.000
    C84      C        0.71100    0.93540    0.75706    1.000
    H56      H        0.73750    0.87540    0.77090    1.000
    C85      C        0.48750    0.85340    0.87133    1.000
    H57      H        0.47450    0.91880    0.87860    1.000
    C86      C        0.49510    0.77840    0.90601    1.000
    C87      C        0.51630    0.69770    0.87836    1.000
    H58      H        0.52660    0.63410    0.89170    1.000
    C88      C        0.48540    0.77800    0.95981    1.000
    C89      C        0.51080    0.85750    0.99144    1.000
    H59      H        0.53210    0.91550    0.97780    1.000
    C90      C        0.50560    0.85360    0.04290    1.000
    H60      H        0.52400    0.90870    0.06390    1.000
    C91      C        0.47360    0.76950    0.06401    1.000
    C92      C        0.44370    0.69110    0.03168    1.000
    H61      H        0.41870    0.63420    0.04470    1.000
    C93      C        0.45010    0.69560    0.98103    1.000
    H62      H        0.43000    0.64110    0.95980    1.000
    C94      C        0.45510    0.68210    0.14696    1.000
    H63      H        0.43400    0.62090    0.13260    1.000
    C95      C        0.47450    0.76300    0.11891    1.000
    C96      C        0.50070    0.83410    0.15635    1.000
    H64      H        0.51820    0.89870    0.14990    1.000
