data_functionalizedCrystal
_audit_creation_method	'EQeq! by Chris Wilmer'
_symmetry_space_group_name_H-M	'P1'
_symmetry_Int_Tables_number	1
_symmetry_cell_setting	triclinic
loop_
_symmetry_equiv_pos_as_xyz
  x,y,z
_cell_length_a	8.7156
_cell_length_b	34.0813
_cell_length_c	8.636
_cell_angle_alpha	90
_cell_angle_beta	107.632
_cell_angle_gamma	90
loop_
_atom_site_label
_atom_site_type_symbol
_atom_site_fract_x
_atom_site_fract_y
_atom_site_fract_z
_atom_site_charge
Mof_Cu	Cu	0.74952	0.20351	0.48285	0.951
Mof_Cu	Cu	0.7386	0.0456	0.49861	0.95
Mof_O 	O 	0.8953	0.15372	0.61227	-0.255
Mof_O 	O 	0.85006	0.09001	0.62846	-0.291
Mof_O 	O 	0.62165	0.1601	0.36067	-0.289
Mof_O 	O 	0.61226	0.0951	0.34028	-0.25
Mof_O 	O 	0.62391	0.20611	0.64438	-0.275
Mof_O 	O 	0.58961	0.2483	0.82738	-0.243
Mof_O 	O 	0.87528	0.24614	0.61822	-0.294
Mof_O 	O 	0.86017	0.28751	0.81236	-0.289
Mof_O 	O 	0.90657	0.04066	0.38405	-0.279
Mof_O 	O 	0.08905	0.99978	0.3441	-0.246
Mof_O 	O 	0.57042	0.04195	0.61404	-0.284
Mof_O 	O 	0.37925	0.99977	0.62772	-0.29
Mof_C 	C 	0.8187	0.1233	0.5634	0.229
Mof_C 	C 	0.6699	0.12598	0.4074	0.232
Mof_C 	C 	0.8123	0.25867	0.7217	0.24
Mof_C 	C 	0.662	0.23633	0.7347	0.212
Mof_C 	C 	0.0005	0.01128	0.4213	0.231
Mof_C 	C 	0.4851	0.01208	0.5699	0.225
Mof_Cu	Cu	0.25048	0.70351	0.01715	0.943
Mof_Cu	Cu	0.2614	0.5456	0.00139	0.947
Mof_O 	O 	0.1047	0.65372	0.88773	-0.25
Mof_O 	O 	0.14994	0.59001	0.87154	-0.289
Mof_O 	O 	0.37835	0.6601	0.13933	-0.291
Mof_O 	O 	0.38774	0.5951	0.15972	-0.25
Mof_O 	O 	0.37609	0.70611	0.85562	-0.267
Mof_O 	O 	0.41039	0.7483	0.67262	-0.237
Mof_O 	O 	0.12472	0.74614	0.88178	-0.284
Mof_O 	O 	0.13983	0.78751	0.68764	-0.283
Mof_O 	O 	0.09343	0.54066	0.11595	-0.284
Mof_O 	O 	0.91095	0.49978	0.1559	-0.245
Mof_O 	O 	0.42958	0.54195	0.88596	-0.281
Mof_O 	O 	0.62075	0.49977	0.87228	-0.29
Mof_C 	C 	0.1813	0.6233	0.9366	0.241
Mof_C 	C 	0.3301	0.62598	0.0926	0.221
Mof_C 	C 	0.1877	0.75867	0.7783	0.241
Mof_C 	C 	0.338	0.73633	0.7653	0.213
Mof_C 	C 	0.9995	0.51128	0.0787	0.235
Mof_C 	C 	0.5149	0.51208	0.9301	0.226
Mof_Cu	Cu	0.25048	0.79649	0.51715	0.95
Mof_Cu	Cu	0.2614	0.9544	0.50139	0.949
Mof_O 	O 	0.1047	0.84628	0.38773	-0.255
Mof_O 	O 	0.14994	0.90999	0.37154	-0.291
Mof_O 	O 	0.37835	0.8399	0.63933	-0.289
Mof_O 	O 	0.38774	0.9049	0.65972	-0.25
Mof_O 	O 	0.37609	0.79389	0.35562	-0.275
Mof_O 	O 	0.41039	0.7517	0.17262	-0.243
Mof_O 	O 	0.12472	0.75386	0.38178	-0.294
Mof_O 	O 	0.13983	0.71249	0.18764	-0.289
Mof_O 	O 	0.09343	0.95934	0.61595	-0.279
Mof_O 	O 	0.91095	0.00022	0.6559	-0.246
Mof_O 	O 	0.42958	0.95805	0.38596	-0.284
Mof_O 	O 	0.62075	0.00023	0.37228	-0.29
Mof_C 	C 	0.1813	0.8767	0.4366	0.229
Mof_C 	C 	0.3301	0.87402	0.5926	0.232
Mof_C 	C 	0.1877	0.74133	0.2783	0.24
Mof_C 	C 	0.338	0.76367	0.2653	0.212
Mof_C 	C 	0.9995	0.98872	0.5787	0.231
Mof_C 	C 	0.5149	0.98792	0.4301	0.225
Mof_Cu	Cu	0.74952	0.29649	0.98285	0.943
Mof_Cu	Cu	0.7386	0.4544	0.99861	0.947
Mof_O 	O 	0.8953	0.34628	0.11227	-0.25
Mof_O 	O 	0.85006	0.40999	0.12846	-0.289
Mof_O 	O 	0.62165	0.3399	0.86067	-0.291
Mof_O 	O 	0.61226	0.4049	0.84028	-0.25
Mof_O 	O 	0.62391	0.29389	0.14438	-0.267
Mof_O 	O 	0.58961	0.2517	0.32738	-0.237
Mof_O 	O 	0.87528	0.25386	0.11822	-0.284
Mof_O 	O 	0.86017	0.21249	0.31236	-0.283
Mof_O 	O 	0.90657	0.45934	0.88405	-0.284
Mof_O 	O 	0.08905	0.50022	0.8441	-0.245
Mof_O 	O 	0.57042	0.45805	0.11404	-0.281
Mof_O 	O 	0.37925	0.50023	0.12772	-0.29
Mof_C 	C 	0.8187	0.3767	0.0634	0.241
Mof_C 	C 	0.6699	0.37402	0.9074	0.221
Mof_C 	C 	0.8123	0.24133	0.2217	0.241
Mof_C 	C 	0.662	0.26367	0.2347	0.213
Mof_C 	C 	0.0005	0.48872	0.9213	0.235
Mof_C 	C 	0.4851	0.48792	0.0699	0.226
_end
