data_functionalizedCrystal
_audit_creation_method	'EQeq! by Chris Wilmer'
_symmetry_space_group_name_H-M	'P1'
_symmetry_Int_Tables_number	1
_symmetry_cell_setting	triclinic
loop_
_symmetry_equiv_pos_as_xyz
  x,y,z
_cell_length_a	20.797
_cell_length_b	20.797
_cell_length_c	16.012
_cell_angle_alpha	90
_cell_angle_beta	90
_cell_angle_gamma	90
loop_
_atom_site_label
_atom_site_type_symbol
_atom_site_fract_x
_atom_site_fract_y
_atom_site_fract_z
_atom_site_charge
Mof_C 	C 	0.3964	0.6375	0.4889	0.262
Mof_C 	C 	0.358	0.6199	0.5614	-0.012
Mof_C 	C 	0.3197	0.6561	0.6139	-0.04
Mof_C 	C 	0.308	0.7254	0.6165	0.327
Mof_C 	C 	0.3174	0.5575	0.6557	0.123
Mof_C 	C 	0.301	0.5002	0.7041	-0.066
Mof_C 	C 	0.2357	0.4842	0.7174	-0.008
Mof_H 	H 	0.2043	0.5114	0.6962	0.03
Mof_C 	C 	0.2166	0.4306	0.76	-0.101
Mof_H 	H 	0.1731	0.4228	0.7686	0.074
Mof_C 	C 	0.2613	0.3885	0.7901	0.05
Mof_C 	C 	0.3269	0.4017	0.7801	0.012
Mof_C 	C 	0.3473	0.4602	0.735	-0.066
Mof_H 	H 	0.3907	0.4695	0.7278	0.041
Mof_C 	C 	0.3721	0.361	0.8105	-0.062
Mof_H 	H 	0.4157	0.3704	0.808	0.052
Mof_C 	C 	0.3493	0.3045	0.8457	-0.042
Mof_H 	H 	0.3791	0.2727	0.8585	0.046
Mof_C 	C 	0.2855	0.2922	0.863	-0.004
Mof_H 	H 	0.2742	0.2574	0.8965	0.04
Mof_C 	C 	0.2404	0.3302	0.8316	-0.096
Mof_H 	H 	0.197	0.3199	0.836	0.081
Mof_N 	N 	0.357	0.5582	0.5888	-0.254
Mof_N 	N 	0.2942	0.6163	0.6729	-0.248
Mof_O 	O 	0.4258	0.5939	0.4512	-0.362
Mof_O 	O 	0.3973	0.697	0.464	-0.195
Mof_O 	O 	0.3302	0.7611	0.5601	-0.247
Mof_O 	O 	0.2742	0.7452	0.6768	-0.522
Mof_Zn	Zn	0.4153	0.50012	0.51899	1.193
Mof_C 	C 	0.8964	0.1375	0.9889	0.262
Mof_C 	C 	0.858	0.1199	0.0614	-0.014
Mof_C 	C 	0.8197	0.1561	0.1139	-0.04
Mof_C 	C 	0.808	0.2254	0.1165	0.326
Mof_C 	C 	0.8174	0.0575	0.1557	0.125
Mof_C 	C 	0.801	0.0002	0.2041	-0.075
Mof_C 	C 	0.7357	0.9842	0.2174	0.002
Mof_H 	H 	0.7043	0.0114	0.1962	0.025
Mof_C 	C 	0.7166	0.9306	0.26	-0.109
Mof_H 	H 	0.6731	0.9228	0.2686	0.077
Mof_C 	C 	0.7613	0.8885	0.2901	0.056
Mof_C 	C 	0.8269	0.9017	0.2801	0.006
Mof_C 	C 	0.8473	0.9602	0.235	-0.058
Mof_H 	H 	0.8907	0.9695	0.2278	0.039
Mof_C 	C 	0.8721	0.861	0.3105	-0.056
Mof_H 	H 	0.9157	0.8704	0.308	0.051
Mof_C 	C 	0.8493	0.8045	0.3457	-0.047
Mof_H 	H 	0.8791	0.7727	0.3585	0.048
Mof_C 	C 	0.7855	0.7922	0.363	0.001
Mof_H 	H 	0.7742	0.7574	0.3965	0.038
Mof_C 	C 	0.7404	0.8302	0.3316	-0.101
Mof_H 	H 	0.697	0.8199	0.336	0.083
Mof_N 	N 	0.857	0.0582	0.0888	-0.254
Mof_N 	N 	0.7942	0.1163	0.1729	-0.248
Mof_O 	O 	0.9258	0.0939	0.9512	-0.363
Mof_O 	O 	0.8973	0.197	0.964	-0.195
Mof_O 	O 	0.8302	0.2611	0.0601	-0.247
Mof_O 	O 	0.7742	0.2452	0.1768	-0.522
Mof_Zn	Zn	0.9153	0.00012	0.01899	1.193
Mof_C 	C 	0.1036	0.3625	0.9889	0.262
Mof_C 	C 	0.142	0.3801	0.0614	-0.013
Mof_C 	C 	0.1803	0.3439	0.1139	-0.04
Mof_C 	C 	0.192	0.2746	0.1165	0.326
Mof_C 	C 	0.1826	0.4425	0.1557	0.122
Mof_C 	C 	0.199	0.4998	0.2041	-0.067
Mof_C 	C 	0.2643	0.5158	0.2174	-0.009
Mof_H 	H 	0.2957	0.4886	0.1962	0.029
Mof_C 	C 	0.2834	0.5694	0.26	-0.101
Mof_H 	H 	0.3269	0.5772	0.2686	0.074
Mof_C 	C 	0.2387	0.6115	0.2901	0.05
Mof_C 	C 	0.1731	0.5983	0.2801	0.012
Mof_C 	C 	0.1527	0.5398	0.235	-0.066
Mof_H 	H 	0.1093	0.5305	0.2278	0.041
Mof_C 	C 	0.1279	0.639	0.3105	-0.062
Mof_H 	H 	0.0843	0.6296	0.308	0.052
Mof_C 	C 	0.1507	0.6955	0.3457	-0.043
Mof_H 	H 	0.1209	0.7273	0.3585	0.046
Mof_C 	C 	0.2145	0.7078	0.363	-0.004
Mof_H 	H 	0.2258	0.7426	0.3965	0.04
Mof_C 	C 	0.2596	0.6698	0.3316	-0.096
Mof_H 	H 	0.303	0.6801	0.336	0.081
Mof_N 	N 	0.143	0.4418	0.0888	-0.254
Mof_N 	N 	0.2058	0.3837	0.1729	-0.248
Mof_O 	O 	0.0742	0.4061	0.9512	-0.362
Mof_O 	O 	0.1027	0.303	0.964	-0.194
Mof_O 	O 	0.1698	0.2389	0.0601	-0.247
Mof_O 	O 	0.2258	0.2548	0.1768	-0.522
Mof_Zn	Zn	0.0847	0.49988	0.01899	1.193
Mof_C 	C 	0.6036	0.8625	0.4889	0.261
Mof_C 	C 	0.642	0.8801	0.5614	-0.013
Mof_C 	C 	0.6803	0.8439	0.6139	-0.041
Mof_C 	C 	0.692	0.7746	0.6165	0.326
Mof_C 	C 	0.6826	0.9425	0.6557	0.121
Mof_C 	C 	0.699	0.9998	0.7041	-0.062
Mof_C 	C 	0.7643	0.0158	0.7174	-0.015
Mof_H 	H 	0.7957	0.9886	0.6962	0.032
Mof_C 	C 	0.7834	0.0694	0.76	-0.097
Mof_H 	H 	0.8269	0.0772	0.7686	0.072
Mof_C 	C 	0.7387	0.1115	0.7901	0.047
Mof_C 	C 	0.6731	0.0983	0.7801	0.015
Mof_C 	C 	0.6527	0.0398	0.735	-0.069
Mof_H 	H 	0.6093	0.0305	0.7278	0.042
Mof_C 	C 	0.6279	0.139	0.8105	-0.064
Mof_H 	H 	0.5843	0.1296	0.808	0.053
Mof_C 	C 	0.6507	0.1955	0.8457	-0.04
Mof_H 	H 	0.6209	0.2273	0.8585	0.045
Mof_C 	C 	0.7145	0.2078	0.863	-0.007
Mof_H 	H 	0.7258	0.2426	0.8965	0.041
Mof_C 	C 	0.7596	0.1698	0.8316	-0.093
Mof_H 	H 	0.803	0.1801	0.836	0.08
Mof_N 	N 	0.643	0.9418	0.5888	-0.253
Mof_N 	N 	0.7058	0.8837	0.6729	-0.248
Mof_O 	O 	0.5742	0.9061	0.4512	-0.362
Mof_O 	O 	0.6027	0.803	0.464	-0.195
Mof_O 	O 	0.6698	0.7389	0.5601	-0.247
Mof_O 	O 	0.7258	0.7548	0.6768	-0.522
Mof_Zn	Zn	0.5847	0.99988	0.51899	1.193
Mof_C 	C 	0.1125	0.6464	0.7389	0.261
Mof_C 	C 	0.1301	0.608	0.8114	-0.013
Mof_C 	C 	0.0939	0.5697	0.8639	-0.04
Mof_C 	C 	0.0246	0.558	0.8665	0.326
Mof_C 	C 	0.1925	0.5674	0.9057	0.122
Mof_C 	C 	0.2498	0.551	0.9541	-0.066
Mof_C 	C 	0.2658	0.4857	0.9674	-0.009
Mof_H 	H 	0.2386	0.4543	0.9462	0.029
Mof_C 	C 	0.3194	0.4666	0.01	-0.101
Mof_H 	H 	0.3272	0.4231	0.0186	0.074
Mof_C 	C 	0.3615	0.5113	0.0401	0.05
Mof_C 	C 	0.3483	0.5769	0.0301	0.012
Mof_C 	C 	0.2898	0.5973	0.985	-0.066
Mof_H 	H 	0.2805	0.6407	0.9778	0.041
Mof_C 	C 	0.389	0.6221	0.0605	-0.062
Mof_H 	H 	0.3796	0.6657	0.058	0.052
Mof_C 	C 	0.4455	0.5993	0.0957	-0.042
Mof_H 	H 	0.4773	0.6291	0.1085	0.046
Mof_C 	C 	0.4578	0.5355	0.113	-0.004
Mof_H 	H 	0.4926	0.5242	0.1465	0.04
Mof_C 	C 	0.4198	0.4904	0.0816	-0.096
Mof_H 	H 	0.4301	0.447	0.086	0.081
Mof_N 	N 	0.1918	0.607	0.8388	-0.254
Mof_N 	N 	0.1337	0.5442	0.9229	-0.248
Mof_O 	O 	0.1561	0.6758	0.7012	-0.362
Mof_O 	O 	0.053	0.6473	0.714	-0.195
Mof_O 	O 	0.9889	0.5802	0.8101	-0.247
Mof_O 	O 	0.0048	0.5242	0.9268	-0.523
Mof_Zn	Zn	0.24988	0.6653	0.76899	1.193
Mof_C 	C 	0.6125	0.1464	0.2389	0.261
Mof_C 	C 	0.6301	0.108	0.3114	-0.013
Mof_C 	C 	0.5939	0.0697	0.3639	-0.041
Mof_C 	C 	0.5246	0.058	0.3665	0.326
Mof_C 	C 	0.6925	0.0674	0.4057	0.121
Mof_C 	C 	0.7498	0.051	0.4541	-0.064
Mof_C 	C 	0.7658	0.9857	0.4674	-0.013
Mof_H 	H 	0.7386	0.9543	0.4462	0.031
Mof_C 	C 	0.8194	0.9666	0.51	-0.092
Mof_H 	H 	0.8272	0.9231	0.5186	0.071
Mof_C 	C 	0.8615	0.0113	0.5401	0.039
Mof_C 	C 	0.8483	0.0769	0.5301	0.019
Mof_C 	C 	0.7898	0.0973	0.485	-0.071
Mof_H 	H 	0.7805	0.1407	0.4778	0.043
Mof_C 	C 	0.889	0.1221	0.5605	-0.071
Mof_H 	H 	0.8796	0.1657	0.558	0.055
Mof_C 	C 	0.9455	0.0993	0.5957	-0.032
Mof_H 	H 	0.9773	0.1291	0.6085	0.042
Mof_C 	C 	0.9578	0.0355	0.613	-0.019
Mof_H 	H 	0.9926	0.0242	0.6465	0.044
Mof_C 	C 	0.9198	0.9904	0.5816	-0.081
Mof_H 	H 	0.9301	0.947	0.586	0.076
Mof_N 	N 	0.6918	0.107	0.3388	-0.254
Mof_N 	N 	0.6337	0.0442	0.4229	-0.248
Mof_O 	O 	0.6561	0.1758	0.2012	-0.362
Mof_O 	O 	0.553	0.1473	0.214	-0.195
Mof_O 	O 	0.4889	0.0802	0.3101	-0.247
Mof_O 	O 	0.5048	0.0242	0.4268	-0.522
Mof_Zn	Zn	0.74988	0.1653	0.26899	1.193
Mof_C 	C 	0.3875	0.3536	0.2389	0.261
Mof_C 	C 	0.3699	0.392	0.3114	-0.013
Mof_C 	C 	0.4061	0.4303	0.3639	-0.041
Mof_C 	C 	0.4754	0.442	0.3665	0.326
Mof_C 	C 	0.3075	0.4326	0.4057	0.122
Mof_C 	C 	0.2502	0.449	0.4541	-0.067
Mof_C 	C 	0.2342	0.5143	0.4674	-0.009
Mof_H 	H 	0.2614	0.5457	0.4462	0.029
Mof_C 	C 	0.1806	0.5334	0.51	-0.101
Mof_H 	H 	0.1728	0.5769	0.5186	0.073
Mof_C 	C 	0.1385	0.4887	0.5401	0.05
Mof_C 	C 	0.1517	0.4231	0.5301	0.012
Mof_C 	C 	0.2102	0.4027	0.485	-0.066
Mof_H 	H 	0.2195	0.3593	0.4778	0.041
Mof_C 	C 	0.111	0.3779	0.5605	-0.062
Mof_H 	H 	0.1204	0.3343	0.558	0.052
Mof_C 	C 	0.0545	0.4007	0.5957	-0.043
Mof_H 	H 	0.0227	0.3709	0.6085	0.046
Mof_C 	C 	0.0422	0.4645	0.613	-0.004
Mof_H 	H 	0.0074	0.4758	0.6465	0.04
Mof_C 	C 	0.0802	0.5096	0.5816	-0.096
Mof_H 	H 	0.0699	0.553	0.586	0.081
Mof_N 	N 	0.3082	0.393	0.3388	-0.254
Mof_N 	N 	0.3663	0.4558	0.4229	-0.248
Mof_O 	O 	0.3439	0.3242	0.2012	-0.362
Mof_O 	O 	0.447	0.3527	0.214	-0.195
Mof_O 	O 	0.5111	0.4198	0.3101	-0.247
Mof_O 	O 	0.4952	0.4758	0.4268	-0.522
Mof_Zn	Zn	0.25012	0.3347	0.26899	1.193
Mof_C 	C 	0.8875	0.8536	0.7389	0.261
Mof_C 	C 	0.8699	0.892	0.8114	-0.013
Mof_C 	C 	0.9061	0.9303	0.8639	-0.041
Mof_C 	C 	0.9754	0.942	0.8665	0.329
Mof_C 	C 	0.8075	0.9326	0.9057	0.124
Mof_C 	C 	0.7502	0.949	0.9541	-0.07
Mof_C 	C 	0.7342	0.0143	0.9674	-0.002
Mof_H 	H 	0.7614	0.0457	0.9462	0.027
Mof_C 	C 	0.6806	0.0334	0.01	-0.111
Mof_H 	H 	0.6728	0.0769	0.0186	0.077
Mof_C 	C 	0.6385	0.9887	0.0401	0.061
Mof_C 	C 	0.6517	0.9231	0.0301	0.005
Mof_C 	C 	0.7102	0.9027	0.985	-0.062
Mof_H 	H 	0.7195	0.8593	0.9778	0.04
Mof_C 	C 	0.611	0.8779	0.0605	-0.054
Mof_H 	H 	0.6204	0.8343	0.058	0.05
Mof_C 	C 	0.5545	0.9007	0.0957	-0.051
Mof_H 	H 	0.5227	0.8709	0.1085	0.049
Mof_C 	C 	0.5422	0.9645	0.113	0.006
Mof_H 	H 	0.5074	0.9758	0.1465	0.037
Mof_C 	C 	0.5802	0.0096	0.0816	-0.107
Mof_H 	H 	0.5699	0.053	0.086	0.085
Mof_N 	N 	0.8082	0.893	0.8388	-0.254
Mof_N 	N 	0.8663	0.9558	0.9229	-0.248
Mof_O 	O 	0.8439	0.8242	0.7012	-0.362
Mof_O 	O 	0.947	0.8527	0.714	-0.194
Mof_O 	O 	0.0111	0.9198	0.8101	-0.249
Mof_O 	O 	0.9952	0.9758	0.9268	-0.522
Mof_Zn	Zn	0.75012	0.8347	0.76899	1.193
Mof_C 	C 	0.6036	0.3625	0.5111	0.261
Mof_C 	C 	0.642	0.3801	0.4386	-0.013
Mof_C 	C 	0.6803	0.3439	0.3861	-0.041
Mof_C 	C 	0.692	0.2746	0.3835	0.326
Mof_C 	C 	0.6826	0.4425	0.3443	0.122
Mof_C 	C 	0.699	0.4998	0.2959	-0.067
Mof_C 	C 	0.7643	0.5158	0.2826	-0.009
Mof_H 	H 	0.7957	0.4886	0.3038	0.029
Mof_C 	C 	0.7834	0.5694	0.24	-0.101
Mof_H 	H 	0.8269	0.5772	0.2314	0.074
Mof_C 	C 	0.7387	0.6115	0.2099	0.05
Mof_C 	C 	0.6731	0.5983	0.2199	0.012
Mof_C 	C 	0.6527	0.5398	0.265	-0.066
Mof_H 	H 	0.6093	0.5305	0.2722	0.041
Mof_C 	C 	0.6279	0.639	0.1895	-0.062
Mof_H 	H 	0.5843	0.6296	0.192	0.052
Mof_C 	C 	0.6507	0.6955	0.1543	-0.042
Mof_H 	H 	0.6209	0.7273	0.1415	0.046
Mof_C 	C 	0.7145	0.7078	0.137	-0.004
Mof_H 	H 	0.7258	0.7426	0.1035	0.04
Mof_C 	C 	0.7596	0.6698	0.1684	-0.096
Mof_H 	H 	0.803	0.6801	0.164	0.081
Mof_N 	N 	0.643	0.4418	0.4112	-0.254
Mof_N 	N 	0.7058	0.3837	0.3271	-0.248
Mof_O 	O 	0.5742	0.4061	0.5488	-0.362
Mof_O 	O 	0.6027	0.303	0.536	-0.195
Mof_O 	O 	0.6698	0.2389	0.4399	-0.247
Mof_O 	O 	0.7258	0.2548	0.3232	-0.522
Mof_Zn	Zn	0.5847	0.49988	0.48101	1.193
Mof_C 	C 	0.1036	0.8625	0.0111	0.262
Mof_C 	C 	0.142	0.8801	0.9386	-0.014
Mof_C 	C 	0.1803	0.8439	0.8861	-0.04
Mof_C 	C 	0.192	0.7746	0.8835	0.326
Mof_C 	C 	0.1826	0.9425	0.8443	0.125
Mof_C 	C 	0.199	0.9998	0.7959	-0.075
Mof_C 	C 	0.2643	0.0158	0.7826	0.002
Mof_H 	H 	0.2957	0.9886	0.8038	0.025
Mof_C 	C 	0.2834	0.0694	0.74	-0.109
Mof_H 	H 	0.3269	0.0772	0.7314	0.077
Mof_C 	C 	0.2387	0.1115	0.7099	0.056
Mof_C 	C 	0.1731	0.0983	0.7199	0.006
Mof_C 	C 	0.1527	0.0398	0.765	-0.058
Mof_H 	H 	0.1093	0.0305	0.7722	0.039
Mof_C 	C 	0.1279	0.139	0.6895	-0.056
Mof_H 	H 	0.0843	0.1296	0.692	0.051
Mof_C 	C 	0.1507	0.1955	0.6543	-0.047
Mof_H 	H 	0.1209	0.2273	0.6415	0.048
Mof_C 	C 	0.2145	0.2078	0.637	0.001
Mof_H 	H 	0.2258	0.2426	0.6035	0.038
Mof_C 	C 	0.2596	0.1698	0.6684	-0.101
Mof_H 	H 	0.303	0.1801	0.664	0.083
Mof_N 	N 	0.143	0.9418	0.9112	-0.254
Mof_N 	N 	0.2058	0.8837	0.8271	-0.248
Mof_O 	O 	0.0742	0.9061	0.0488	-0.363
Mof_O 	O 	0.1027	0.803	0.036	-0.195
Mof_O 	O 	0.1698	0.7389	0.9399	-0.247
Mof_O 	O 	0.2258	0.7548	0.8232	-0.522
Mof_Zn	Zn	0.0847	0.99988	0.98101	1.193
Mof_C 	C 	0.8964	0.6375	0.0111	0.262
Mof_C 	C 	0.858	0.6199	0.9386	-0.013
Mof_C 	C 	0.8197	0.6561	0.8861	-0.04
Mof_C 	C 	0.808	0.7254	0.8835	0.326
Mof_C 	C 	0.8174	0.5575	0.8443	0.122
Mof_C 	C 	0.801	0.5002	0.7959	-0.067
Mof_C 	C 	0.7357	0.4842	0.7826	-0.009
Mof_H 	H 	0.7043	0.5114	0.8038	0.029
Mof_C 	C 	0.7166	0.4306	0.74	-0.101
Mof_H 	H 	0.6731	0.4228	0.7314	0.074
Mof_C 	C 	0.7613	0.3885	0.7099	0.05
Mof_C 	C 	0.8269	0.4017	0.7199	0.012
Mof_C 	C 	0.8473	0.4602	0.765	-0.066
Mof_H 	H 	0.8907	0.4695	0.7722	0.041
Mof_C 	C 	0.8721	0.361	0.6895	-0.062
Mof_H 	H 	0.9157	0.3704	0.692	0.052
Mof_C 	C 	0.8493	0.3045	0.6543	-0.043
Mof_H 	H 	0.8791	0.2727	0.6415	0.046
Mof_C 	C 	0.7855	0.2922	0.637	-0.004
Mof_H 	H 	0.7742	0.2574	0.6035	0.04
Mof_C 	C 	0.7404	0.3302	0.6684	-0.096
Mof_H 	H 	0.697	0.3199	0.664	0.081
Mof_N 	N 	0.857	0.5582	0.9112	-0.254
Mof_N 	N 	0.7942	0.6163	0.8271	-0.248
Mof_O 	O 	0.9258	0.5939	0.0488	-0.362
Mof_O 	O 	0.8973	0.697	0.036	-0.194
Mof_O 	O 	0.8302	0.7611	0.9399	-0.247
Mof_O 	O 	0.7742	0.7452	0.8232	-0.522
Mof_Zn	Zn	0.9153	0.50012	0.98101	1.193
Mof_C 	C 	0.3964	0.1375	0.5111	0.261
Mof_C 	C 	0.358	0.1199	0.4386	-0.013
Mof_C 	C 	0.3197	0.1561	0.3861	-0.041
Mof_C 	C 	0.308	0.2254	0.3835	0.326
Mof_C 	C 	0.3174	0.0575	0.3443	0.121
Mof_C 	C 	0.301	0.0002	0.2959	-0.062
Mof_C 	C 	0.2357	0.9842	0.2826	-0.015
Mof_H 	H 	0.2043	0.0114	0.3038	0.032
Mof_C 	C 	0.2166	0.9306	0.24	-0.097
Mof_H 	H 	0.1731	0.9228	0.2314	0.072
Mof_C 	C 	0.2613	0.8885	0.2099	0.047
Mof_C 	C 	0.3269	0.9017	0.2199	0.015
Mof_C 	C 	0.3473	0.9602	0.265	-0.069
Mof_H 	H 	0.3907	0.9695	0.2722	0.042
Mof_C 	C 	0.3721	0.861	0.1895	-0.064
Mof_H 	H 	0.4157	0.8704	0.192	0.053
Mof_C 	C 	0.3493	0.8045	0.1543	-0.04
Mof_H 	H 	0.3791	0.7727	0.1415	0.045
Mof_C 	C 	0.2855	0.7922	0.137	-0.007
Mof_H 	H 	0.2742	0.7574	0.1035	0.041
Mof_C 	C 	0.2404	0.8302	0.1684	-0.093
Mof_H 	H 	0.197	0.8199	0.164	0.08
Mof_N 	N 	0.357	0.0582	0.4112	-0.253
Mof_N 	N 	0.2942	0.1163	0.3271	-0.248
Mof_O 	O 	0.4258	0.0939	0.5488	-0.362
Mof_O 	O 	0.3973	0.197	0.536	-0.195
Mof_O 	O 	0.3302	0.2611	0.4399	-0.247
Mof_O 	O 	0.2742	0.2452	0.3232	-0.522
Mof_Zn	Zn	0.4153	0.00012	0.48101	1.193
Mof_C 	C 	0.8875	0.3536	0.2611	0.261
Mof_C 	C 	0.8699	0.392	0.1886	-0.013
Mof_C 	C 	0.9061	0.4303	0.1361	-0.04
Mof_C 	C 	0.9754	0.442	0.1335	0.326
Mof_C 	C 	0.8075	0.4326	0.0943	0.122
Mof_C 	C 	0.7502	0.449	0.0459	-0.066
Mof_C 	C 	0.7342	0.5143	0.0326	-0.009
Mof_H 	H 	0.7614	0.5457	0.0538	0.029
Mof_C 	C 	0.6806	0.5334	0.99	-0.101
Mof_H 	H 	0.6728	0.5769	0.9814	0.074
Mof_C 	C 	0.6385	0.4887	0.9599	0.05
Mof_C 	C 	0.6517	0.4231	0.9699	0.012
Mof_C 	C 	0.7102	0.4027	0.015	-0.066
Mof_H 	H 	0.7195	0.3593	0.0222	0.041
Mof_C 	C 	0.611	0.3779	0.9395	-0.062
Mof_H 	H 	0.6204	0.3343	0.942	0.052
Mof_C 	C 	0.5545	0.4007	0.9043	-0.042
Mof_H 	H 	0.5227	0.3709	0.8915	0.046
Mof_C 	C 	0.5422	0.4645	0.887	-0.004
Mof_H 	H 	0.5074	0.4758	0.8535	0.04
Mof_C 	C 	0.5802	0.5096	0.9184	-0.096
Mof_H 	H 	0.5699	0.553	0.914	0.081
Mof_N 	N 	0.8082	0.393	0.1612	-0.254
Mof_N 	N 	0.8663	0.4558	0.0771	-0.248
Mof_O 	O 	0.8439	0.3242	0.2988	-0.362
Mof_O 	O 	0.947	0.3527	0.286	-0.195
Mof_O 	O 	0.0111	0.4198	0.1899	-0.247
Mof_O 	O 	0.9952	0.4758	0.0732	-0.523
Mof_Zn	Zn	0.75012	0.3347	0.23101	1.193
Mof_C 	C 	0.3875	0.8536	0.7611	0.261
Mof_C 	C 	0.3699	0.892	0.6886	-0.013
Mof_C 	C 	0.4061	0.9303	0.6361	-0.041
Mof_C 	C 	0.4754	0.942	0.6335	0.326
Mof_C 	C 	0.3075	0.9326	0.5943	0.121
Mof_C 	C 	0.2502	0.949	0.5459	-0.064
Mof_C 	C 	0.2342	0.0143	0.5326	-0.013
Mof_H 	H 	0.2614	0.0457	0.5538	0.031
Mof_C 	C 	0.1806	0.0334	0.49	-0.092
Mof_H 	H 	0.1728	0.0769	0.4814	0.071
Mof_C 	C 	0.1385	0.9887	0.4599	0.039
Mof_C 	C 	0.1517	0.9231	0.4699	0.019
Mof_C 	C 	0.2102	0.9027	0.515	-0.071
Mof_H 	H 	0.2195	0.8593	0.5222	0.043
Mof_C 	C 	0.111	0.8779	0.4395	-0.071
Mof_H 	H 	0.1204	0.8343	0.442	0.055
Mof_C 	C 	0.0545	0.9007	0.4043	-0.032
Mof_H 	H 	0.0227	0.8709	0.3915	0.042
Mof_C 	C 	0.0422	0.9645	0.387	-0.019
Mof_H 	H 	0.0074	0.9758	0.3535	0.044
Mof_C 	C 	0.0802	0.0096	0.4184	-0.081
Mof_H 	H 	0.0699	0.053	0.414	0.076
Mof_N 	N 	0.3082	0.893	0.6612	-0.254
Mof_N 	N 	0.3663	0.9558	0.5771	-0.248
Mof_O 	O 	0.3439	0.8242	0.7988	-0.362
Mof_O 	O 	0.447	0.8527	0.786	-0.195
Mof_O 	O 	0.5111	0.9198	0.6899	-0.247
Mof_O 	O 	0.4952	0.9758	0.5732	-0.522
Mof_Zn	Zn	0.25012	0.8347	0.73101	1.193
Mof_C 	C 	0.6125	0.6464	0.7611	0.261
Mof_C 	C 	0.6301	0.608	0.6886	-0.013
Mof_C 	C 	0.5939	0.5697	0.6361	-0.041
Mof_C 	C 	0.5246	0.558	0.6335	0.326
Mof_C 	C 	0.6925	0.5674	0.5943	0.122
Mof_C 	C 	0.7498	0.551	0.5459	-0.067
Mof_C 	C 	0.7658	0.4857	0.5326	-0.009
Mof_H 	H 	0.7386	0.4543	0.5538	0.029
Mof_C 	C 	0.8194	0.4666	0.49	-0.101
Mof_H 	H 	0.8272	0.4231	0.4814	0.073
Mof_C 	C 	0.8615	0.5113	0.4599	0.05
Mof_C 	C 	0.8483	0.5769	0.4699	0.012
Mof_C 	C 	0.7898	0.5973	0.515	-0.066
Mof_H 	H 	0.7805	0.6407	0.5222	0.041
Mof_C 	C 	0.889	0.6221	0.4395	-0.062
Mof_H 	H 	0.8796	0.6657	0.442	0.052
Mof_C 	C 	0.9455	0.5993	0.4043	-0.043
Mof_H 	H 	0.9773	0.6291	0.3915	0.046
Mof_C 	C 	0.9578	0.5355	0.387	-0.004
Mof_H 	H 	0.9926	0.5242	0.3535	0.04
Mof_C 	C 	0.9198	0.4904	0.4184	-0.096
Mof_H 	H 	0.9301	0.447	0.414	0.081
Mof_N 	N 	0.6918	0.607	0.6612	-0.254
Mof_N 	N 	0.6337	0.5442	0.5771	-0.248
Mof_O 	O 	0.6561	0.6758	0.7988	-0.362
Mof_O 	O 	0.553	0.6473	0.786	-0.195
Mof_O 	O 	0.4889	0.5802	0.6899	-0.247
Mof_O 	O 	0.5048	0.5242	0.5732	-0.522
Mof_Zn	Zn	0.74988	0.6653	0.73101	1.193
Mof_C 	C 	0.1125	0.1464	0.2611	0.261
Mof_C 	C 	0.1301	0.108	0.1886	-0.013
Mof_C 	C 	0.0939	0.0697	0.1361	-0.041
Mof_C 	C 	0.0246	0.058	0.1335	0.329
Mof_C 	C 	0.1925	0.0674	0.0943	0.124
Mof_C 	C 	0.2498	0.051	0.0459	-0.07
Mof_C 	C 	0.2658	0.9857	0.0326	-0.002
Mof_H 	H 	0.2386	0.9543	0.0538	0.027
Mof_C 	C 	0.3194	0.9666	0.99	-0.111
Mof_H 	H 	0.3272	0.9231	0.9814	0.077
Mof_C 	C 	0.3615	0.0113	0.9599	0.061
Mof_C 	C 	0.3483	0.0769	0.9699	0.005
Mof_C 	C 	0.2898	0.0973	0.015	-0.062
Mof_H 	H 	0.2805	0.1407	0.0222	0.04
Mof_C 	C 	0.389	0.1221	0.9395	-0.054
Mof_H 	H 	0.3796	0.1657	0.942	0.05
Mof_C 	C 	0.4455	0.0993	0.9043	-0.051
Mof_H 	H 	0.4773	0.1291	0.8915	0.049
Mof_C 	C 	0.4578	0.0355	0.887	0.006
Mof_H 	H 	0.4926	0.0242	0.8535	0.037
Mof_C 	C 	0.4198	0.9904	0.9184	-0.107
Mof_H 	H 	0.4301	0.947	0.914	0.085
Mof_N 	N 	0.1918	0.107	0.1612	-0.254
Mof_N 	N 	0.1337	0.0442	0.0771	-0.248
Mof_O 	O 	0.1561	0.1758	0.2988	-0.362
Mof_O 	O 	0.053	0.1473	0.286	-0.194
Mof_O 	O 	0.9889	0.0802	0.1899	-0.249
Mof_O 	O 	0.0048	0.0242	0.0732	-0.522
Mof_Zn	Zn	0.24988	0.1653	0.23101	1.193
_end
