# CIF file generated by openbabel 3.1.0, see https://openbabel.org
data_I
_chemical_name_common 'image0'
_cell_length_a 18.119
_cell_length_b 8.3939
_cell_length_c 12.887
_cell_angle_alpha 90
_cell_angle_beta 90
_cell_angle_gamma 90
_space_group_name_H-M_alt 'P 1'
_space_group_name_Hall 'P 1'
loop_
    _symmetry_equiv_pos_as_xyz
    x,y,z
loop_
    _atom_site_label
    _atom_site_type_symbol
    _atom_site_fract_x
    _atom_site_fract_y
    _atom_site_fract_z
    _atom_site_occupancy
    Zn1      Zn       0.59165    0.69794    0.60809    1.000
    Zn2      Zn       0.29438    0.97398    0.70236    1.000
    Zn3      Zn       0.33089    0.82748    0.36835    1.000
    P1       P        0.69725    0.81670    0.79242    1.000
    H1       H        0.68060    0.72520    0.88390    1.000
    P2       P        0.69038    0.87170    0.43415    1.000
    H2       H        0.69620    0.02140    0.48850    1.000
    P3       P        0.64621    0.34710    0.64797    1.000
    H3       H        0.62080    0.17590    0.59660    1.000
    P4       P        0.44452    0.88850    0.55536    1.000
    H4       H        0.49900    0.99850    0.56610    1.000
    O1       O        0.62880    0.79390    0.73080    1.000
    O2       O        0.76490    0.73860    0.74520    1.000
    O3       O        0.71580    0.98700    0.81450    1.000
    O4       O        0.62650    0.77610    0.47640    1.000
    O5       O        0.76390    0.79320    0.45080    1.000
    O6       O        0.67230    0.91100    0.32340    1.000
    O7       O        0.59090    0.46740    0.60830    1.000
    O8       O        0.72550    0.39460    0.63110    1.000
    O9       O        0.62700    0.29970    0.75790    1.000
    O10      O        0.48490    0.74270    0.60000    1.000
    O11      O        0.38280    0.94050    0.62430    1.000
    O12      O        0.42230    0.86200    0.44410    1.000
    Zn4      Zn       0.40835    0.30206    0.10809    1.000
    Zn5      Zn       0.70562    0.02602    0.20236    1.000
    Zn6      Zn       0.66911    0.17252    0.86835    1.000
    P5       P        0.30275    0.18330    0.29242    1.000
    H5       H        0.31940    0.27480    0.38390    1.000
    P6       P        0.30962    0.12830    0.93415    1.000
    H6       H        0.30380    0.97860    0.98850    1.000
    P7       P        0.35379    0.65290    0.14797    1.000
    H7       H        0.37920    0.82410    0.09660    1.000
    P8       P        0.55548    0.11150    0.05536    1.000
    H8       H        0.50100    0.00150    0.06610    1.000
    O13      O        0.37120    0.20610    0.23080    1.000
    O14      O        0.23510    0.26140    0.24520    1.000
    O15      O        0.28420    0.01300    0.31450    1.000
    O16      O        0.37350    0.22390    0.97640    1.000
    O17      O        0.23610    0.20680    0.95080    1.000
    O18      O        0.32770    0.08900    0.82340    1.000
    O19      O        0.40910    0.53260    0.10830    1.000
    O20      O        0.27450    0.60540    0.13110    1.000
    O21      O        0.37300    0.70030    0.25790    1.000
    O22      O        0.51510    0.25730    0.10000    1.000
    O23      O        0.61720    0.05950    0.12430    1.000
    O24      O        0.57770    0.13800    0.94410    1.000
    Zn7      Zn       0.09165    0.80206    0.60809    1.000
    Zn8      Zn       0.79438    0.52602    0.70236    1.000
    Zn9      Zn       0.83089    0.67252    0.36835    1.000
    P9       P        0.19725    0.68330    0.79242    1.000
    H9       H        0.18060    0.77480    0.88390    1.000
    P10      P        0.19038    0.62830    0.43415    1.000
    H10      H        0.19620    0.47860    0.48850    1.000
    P11      P        0.14621    0.15290    0.64797    1.000
    H11      H        0.12080    0.32410    0.59660    1.000
    P12      P        0.94452    0.61150    0.55536    1.000
    H12      H        0.99900    0.50150    0.56610    1.000
    O25      O        0.12880    0.70610    0.73080    1.000
    O26      O        0.26490    0.76140    0.74520    1.000
    O27      O        0.21580    0.51300    0.81450    1.000
    O28      O        0.12650    0.72390    0.47640    1.000
    O29      O        0.26390    0.70680    0.45080    1.000
    O30      O        0.17230    0.58900    0.32340    1.000
    O31      O        0.09090    0.03260    0.60830    1.000
    O32      O        0.22550    0.10540    0.63110    1.000
    O33      O        0.12700    0.20030    0.75790    1.000
    O34      O        0.98490    0.75730    0.60000    1.000
    O35      O        0.88280    0.55950    0.62430    1.000
    O36      O        0.92230    0.63800    0.44410    1.000
    Zn10     Zn       0.90835    0.19794    0.10809    1.000
    Zn11     Zn       0.20562    0.47398    0.20236    1.000
    Zn12     Zn       0.16911    0.32748    0.86835    1.000
    P13      P        0.80275    0.31670    0.29242    1.000
    H13      H        0.81940    0.22520    0.38390    1.000
    P14      P        0.80962    0.37170    0.93415    1.000
    H14      H        0.80380    0.52140    0.98850    1.000
    P15      P        0.85379    0.84710    0.14797    1.000
    H15      H        0.87920    0.67590    0.09660    1.000
    P16      P        0.05548    0.38850    0.05536    1.000
    H16      H        0.00100    0.49850    0.06610    1.000
    O37      O        0.87120    0.29390    0.23080    1.000
    O38      O        0.73510    0.23860    0.24520    1.000
    O39      O        0.78420    0.48700    0.31450    1.000
    O40      O        0.87350    0.27610    0.97640    1.000
    O41      O        0.73610    0.29320    0.95080    1.000
    O42      O        0.82770    0.41100    0.82340    1.000
    O43      O        0.90910    0.96740    0.10830    1.000
    O44      O        0.77450    0.89460    0.13110    1.000
    O45      O        0.87300    0.79970    0.25790    1.000
    O46      O        0.01510    0.24270    0.10000    1.000
    O47      O        0.11720    0.44050    0.12430    1.000
    O48      O        0.07770    0.36200    0.94410    1.000
