data_functionalizedCrystal
_audit_creation_method	'EQeq! by Chris Wilmer'
_symmetry_space_group_name_H-M	'P1'
_symmetry_Int_Tables_number	1
_symmetry_cell_setting	triclinic
loop_
_symmetry_equiv_pos_as_xyz
  x,y,z
_cell_length_a	10.781
_cell_length_b	15.8837
_cell_length_c	25.1737
_cell_angle_alpha	90
_cell_angle_beta	90
_cell_angle_gamma	90
loop_
_atom_site_label
_atom_site_type_symbol
_atom_site_fract_x
_atom_site_fract_y
_atom_site_fract_z
_atom_site_charge
Mof_Mg	Mg	0.70546	0.82426	0.28175	1.473
Mof_Mg	Mg	0.56633	0.75022	0.3974	1.479
Mof_Mg	Mg	0.92759	0.32989	0.51669	1.475
Mof_Mg	Mg	0.29454	0.17574	0.78175	1.473
Mof_Mg	Mg	0.43367	0.24978	0.8974	1.479
Mof_Mg	Mg	0.07241	0.67011	0.01669	1.47
Mof_Mg	Mg	0.20546	0.17574	0.28175	1.473
Mof_Mg	Mg	0.06633	0.24978	0.3974	1.479
Mof_Mg	Mg	0.42759	0.67011	0.51669	1.476
Mof_Mg	Mg	0.79454	0.82426	0.78175	1.474
Mof_Mg	Mg	0.93367	0.75022	0.8974	1.479
Mof_Mg	Mg	0.57241	0.32989	0.01669	1.471
Mof_H 	H 	0.8116	0.0678	0.378	0.059
Mof_H 	H 	0.6493	0.1296	0.5179	0.066
Mof_H 	H 	0.5285	0.9271	0.435	0.067
Mof_H 	H 	0.4488	0.946	0.5176	0.11
Mof_H 	H 	0.551	0.9779	0.5585	0.113
Mof_H 	H 	0.4572	0.0393	0.6298	0.086
Mof_H 	H 	0.1609	0.1947	0.6146	0.06
Mof_H 	H 	0.3273	0.1001	0.4841	0.072
Mof_H 	H 	0.8155	0.5618	0.4113	0.047
Mof_H 	H 	0.9857	0.6314	0.2751	0.067
Mof_H 	H 	0.0999	0.4239	0.3543	0.059
Mof_H 	H 	0.1948	0.4533	0.2726	0.093
Mof_H 	H 	0.0863	0.4754	0.2318	0.089
Mof_H 	H 	0.1441	0.5687	0.1636	0.049
Mof_H 	H 	0.4335	0.7289	0.1801	0.045
Mof_H 	H 	0.3142	0.5907	0.3061	0.066
Mof_H 	H 	0.2325	0.4162	0.5364	-0.037
Mof_H 	H 	0.0421	0.3787	0.6445	0.137
Mof_H 	H 	0.1453	0.4107	0.6855	0.126
Mof_H 	H 	0.1377	0.3131	0.6701	0.14
Mof_H 	H 	0.3914	0.3878	0.5902	0.114
Mof_H 	H 	0.3602	0.3164	0.633	0.128
Mof_H 	H 	0.3695	0.4128	0.6511	0.116
Mof_H 	H 	0.3343	0.7411	0.0567	0.273
Mof_H 	H 	0.1884	0.9322	0.878	0.056
Mof_H 	H 	0.3507	0.8704	0.0179	0.006
Mof_H 	H 	0.4715	0.0729	0.935	0.079
Mof_H 	H 	0.5512	0.054	0.0176	0.118
Mof_H 	H 	0.449	0.0221	0.0585	0.133
Mof_H 	H 	0.5428	0.9607	0.1298	0.101
Mof_H 	H 	0.8391	0.8053	0.1146	0.077
Mof_H 	H 	0.6727	0.8999	0.9841	0.153
Mof_H 	H 	0.1845	0.4382	0.9113	0.054
Mof_H 	H 	0.0143	0.3686	0.7751	0.068
Mof_H 	H 	0.9001	0.5761	0.8543	0.061
Mof_H 	H 	0.8052	0.5467	0.7726	0.093
Mof_H 	H 	0.9137	0.5246	0.7318	0.088
Mof_H 	H 	0.8559	0.4313	0.6636	0.049
Mof_H 	H 	0.5665	0.2711	0.6801	0.045
Mof_H 	H 	0.6858	0.4093	0.8061	0.066
Mof_H 	H 	0.7675	0.5838	0.0364	-0.053
Mof_H 	H 	0.9579	0.6213	0.1445	0.134
Mof_H 	H 	0.8547	0.5893	0.1855	0.124
Mof_H 	H 	0.8623	0.6869	0.1701	0.138
Mof_H 	H 	0.6086	0.6122	0.0902	0.107
Mof_H 	H 	0.6398	0.6836	0.133	0.125
Mof_H 	H 	0.6305	0.5872	0.1511	0.113
Mof_H 	H 	0.6657	0.2589	0.5567	0.287
Mof_H 	H 	0.3116	0.9322	0.378	0.059
Mof_H 	H 	0.1493	0.8704	0.5179	0.068
Mof_H 	H 	0.0285	0.0729	0.435	0.069
Mof_H 	H 	0.9488	0.054	0.5176	0.112
Mof_H 	H 	0.051	0.0221	0.5585	0.117
Mof_H 	H 	0.9572	0.9607	0.6298	0.085
Mof_H 	H 	0.6609	0.8053	0.6146	0.06
Mof_H 	H 	0.8273	0.8999	0.4841	0.073
Mof_H 	H 	0.3155	0.4382	0.4113	0.047
Mof_H 	H 	0.4857	0.3686	0.2751	0.067
Mof_H 	H 	0.5999	0.5761	0.3543	0.06
Mof_H 	H 	0.6948	0.5467	0.2726	0.093
Mof_H 	H 	0.5863	0.5246	0.2318	0.089
Mof_H 	H 	0.6441	0.4313	0.1636	0.049
Mof_H 	H 	0.9335	0.2711	0.1801	0.045
Mof_H 	H 	0.8142	0.4093	0.3061	0.066
Mof_H 	H 	0.7325	0.5838	0.5364	-0.038
Mof_H 	H 	0.5421	0.6213	0.6445	0.136
Mof_H 	H 	0.6453	0.5893	0.6855	0.125
Mof_H 	H 	0.6377	0.6869	0.6701	0.139
Mof_H 	H 	0.8914	0.6122	0.5902	0.113
Mof_H 	H 	0.8602	0.6836	0.633	0.127
Mof_H 	H 	0.8695	0.5872	0.6511	0.115
Mof_H 	H 	0.8343	0.2589	0.0567	0.274
Mof_H 	H 	0.6884	0.0678	0.878	0.056
Mof_H 	H 	0.8507	0.1296	0.0179	0.009
Mof_H 	H 	0.9715	0.9271	0.935	0.078
Mof_H 	H 	0.0512	0.946	0.0176	0.119
Mof_H 	H 	0.949	0.9779	0.0585	0.134
Mof_H 	H 	0.0428	0.0393	0.1298	0.102
Mof_H 	H 	0.3391	0.1947	0.1146	0.078
Mof_H 	H 	0.1727	0.1001	0.9841	0.156
Mof_H 	H 	0.6845	0.5618	0.9113	0.054
Mof_H 	H 	0.5143	0.6314	0.7751	0.068
Mof_H 	H 	0.4001	0.4239	0.8543	0.061
Mof_H 	H 	0.3052	0.4533	0.7726	0.094
Mof_H 	H 	0.4137	0.4754	0.7318	0.089
Mof_H 	H 	0.3559	0.5687	0.6636	0.05
Mof_H 	H 	0.0665	0.7289	0.6801	0.046
Mof_H 	H 	0.1858	0.5907	0.8061	0.066
Mof_H 	H 	0.2675	0.4162	0.0364	-0.053
Mof_H 	H 	0.4579	0.3787	0.1445	0.134
Mof_H 	H 	0.3547	0.4107	0.1855	0.124
Mof_H 	H 	0.3623	0.3131	0.1701	0.138
Mof_H 	H 	0.1086	0.3878	0.0902	0.107
Mof_H 	H 	0.1398	0.3164	0.133	0.126
Mof_H 	H 	0.1305	0.4128	0.1511	0.113
Mof_H 	H 	0.1657	0.7411	0.5567	0.287
Mof_C 	C 	0.674	0.9868	0.4007	-0.071
Mof_C 	C 	0.7516	0.0571	0.4048	0.02
Mof_C 	C 	0.7412	0.1116	0.4481	-0.092
Mof_C 	C 	0.6548	0.0937	0.4879	-0.066
Mof_C 	C 	0.5755	0.0234	0.4843	0.095
Mof_C 	C 	0.5847	0.9726	0.4393	-0.073
Mof_C 	C 	0.4955	0.9963	0.5294	-0.259
Mof_C 	C 	0.4033	0.0571	0.5527	0.106
Mof_C 	C 	0.3979	0.0667	0.6079	-0.093
Mof_C 	C 	0.3055	0.1167	0.6309	-0.029
Mof_C 	C 	0.2231	0.1605	0.5988	-0.01
Mof_C 	C 	0.2309	0.1546	0.5443	-0.077
Mof_C 	C 	0.3214	0.1035	0.5217	-0.08
Mof_C 	C 	0.6877	0.9268	0.3565	0.345
Mof_C 	C 	0.8265	0.1859	0.4524	0.433
Mof_C 	C 	0.299	0.1263	0.6898	0.285
Mof_C 	C 	0.1419	0.2043	0.5106	0.406
Mof_C 	C 	0.954	0.4832	0.3895	-0.08
Mof_C 	C 	0.8781	0.5526	0.3854	0.015
Mof_C 	C 	0.8922	0.6087	0.3442	-0.086
Mof_C 	C 	0.9783	0.5937	0.3042	-0.06
Mof_C 	C 	0.0534	0.5229	0.3074	0.078
Mof_C 	C 	0.0442	0.4699	0.3508	-0.059
Mof_C 	C 	0.1385	0.4987	0.2607	-0.219
Mof_C 	C 	0.216	0.5687	0.238	0.062
Mof_C 	C 	0.2059	0.5935	0.1856	-0.044
Mof_C 	C 	0.2854	0.6545	0.1642	-0.111
Mof_C 	C 	0.377	0.6898	0.1952	0.043
Mof_C 	C 	0.3871	0.6679	0.2493	-0.104
Mof_C 	C 	0.3069	0.6068	0.2699	-0.041
Mof_C 	C 	0.9401	0.4226	0.4355	0.355
Mof_C 	C 	0.8092	0.6862	0.3409	0.406
Mof_C 	C 	0.2695	0.6812	0.1072	0.456
Mof_C 	C 	0.4811	0.7091	0.2836	0.422
Mof_C 	C 	0.1736	0.4048	0.5636	0.232
Mof_C 	C 	0.1275	0.3707	0.6569	-0.313
Mof_C 	C 	0.3441	0.3747	0.6224	-0.287
Mof_C 	C 	0.326	0.0132	0.9007	-0.07
Mof_C 	C 	0.2484	0.9429	0.9048	0.029
Mof_C 	C 	0.2588	0.8884	0.9481	-0.112
Mof_C 	C 	0.3452	0.9063	0.9879	0.013
Mof_C 	C 	0.4245	0.9766	0.9843	0.138
Mof_C 	C 	0.4153	0.0274	0.9393	-0.087
Mof_C 	C 	0.5045	0.0037	0.0294	-0.353
Mof_C 	C 	0.5967	0.9429	0.0527	0.18
Mof_C 	C 	0.6021	0.9333	0.1079	-0.145
Mof_C 	C 	0.6945	0.8833	0.1309	0.008
Mof_C 	C 	0.7769	0.8395	0.0988	-0.064
Mof_C 	C 	0.7691	0.8454	0.0443	-0
Mof_C 	C 	0.6786	0.8965	0.0217	-0.233
Mof_C 	C 	0.3123	0.0732	0.8565	0.344
Mof_C 	C 	0.1735	0.8141	0.9524	0.444
Mof_C 	C 	0.701	0.8737	0.1898	0.271
Mof_C 	C 	0.8581	0.7957	0.0106	0.317
Mof_C 	C 	0.046	0.5168	0.8895	-0.073
Mof_C 	C 	0.1219	0.4474	0.8854	0.01
Mof_C 	C 	0.1078	0.3913	0.8442	-0.083
Mof_C 	C 	0.0217	0.4063	0.8042	-0.058
Mof_C 	C 	0.9466	0.4771	0.8074	0.076
Mof_C 	C 	0.9558	0.5301	0.8508	-0.066
Mof_C 	C 	0.8615	0.5013	0.7607	-0.219
Mof_C 	C 	0.784	0.4313	0.738	0.061
Mof_C 	C 	0.7941	0.4065	0.6856	-0.043
Mof_C 	C 	0.7146	0.3455	0.6642	-0.111
Mof_C 	C 	0.623	0.3102	0.6952	0.044
Mof_C 	C 	0.6129	0.3321	0.7493	-0.104
Mof_C 	C 	0.6931	0.3932	0.7699	-0.041
Mof_C 	C 	0.0599	0.5774	0.9355	0.353
Mof_C 	C 	0.1908	0.3138	0.8409	0.406
Mof_C 	C 	0.7305	0.3188	0.6072	0.459
Mof_C 	C 	0.5189	0.2909	0.7836	0.422
Mof_C 	C 	0.8264	0.5952	0.0636	0.239
Mof_C 	C 	0.8725	0.6293	0.1569	-0.31
Mof_C 	C 	0.6559	0.6253	0.1224	-0.28
Mof_C 	C 	0.174	0.0132	0.4007	-0.069
Mof_C 	C 	0.2516	0.9429	0.4048	0.019
Mof_C 	C 	0.2412	0.8884	0.4481	-0.09
Mof_C 	C 	0.1548	0.9063	0.4879	-0.068
Mof_C 	C 	0.0755	0.9766	0.4843	0.1
Mof_C 	C 	0.0847	0.0274	0.4393	-0.075
Mof_C 	C 	0.9955	0.0037	0.5294	-0.267
Mof_C 	C 	0.9033	0.9429	0.5527	0.108
Mof_C 	C 	0.8979	0.9333	0.6079	-0.095
Mof_C 	C 	0.8055	0.8833	0.6309	-0.029
Mof_C 	C 	0.7231	0.8395	0.5988	-0.011
Mof_C 	C 	0.7309	0.8454	0.5443	-0.077
Mof_C 	C 	0.8214	0.8965	0.5217	-0.081
Mof_C 	C 	0.1877	0.0732	0.3565	0.344
Mof_C 	C 	0.3265	0.8141	0.4524	0.432
Mof_C 	C 	0.799	0.8737	0.6898	0.285
Mof_C 	C 	0.6419	0.7957	0.5106	0.406
Mof_C 	C 	0.454	0.5168	0.3895	-0.079
Mof_C 	C 	0.3781	0.4474	0.3854	0.015
Mof_C 	C 	0.3922	0.3913	0.3442	-0.086
Mof_C 	C 	0.4783	0.4063	0.3042	-0.059
Mof_C 	C 	0.5534	0.4771	0.3074	0.077
Mof_C 	C 	0.5442	0.5301	0.3508	-0.061
Mof_C 	C 	0.6385	0.5013	0.2607	-0.219
Mof_C 	C 	0.716	0.4313	0.238	0.062
Mof_C 	C 	0.7059	0.4065	0.1856	-0.044
Mof_C 	C 	0.7854	0.3455	0.1642	-0.111
Mof_C 	C 	0.877	0.3102	0.1952	0.043
Mof_C 	C 	0.8871	0.3321	0.2493	-0.104
Mof_C 	C 	0.8069	0.3932	0.2699	-0.041
Mof_C 	C 	0.4401	0.5774	0.4355	0.357
Mof_C 	C 	0.3092	0.3138	0.3409	0.406
Mof_C 	C 	0.7695	0.3188	0.1072	0.456
Mof_C 	C 	0.9811	0.2909	0.2836	0.421
Mof_C 	C 	0.6736	0.5952	0.5636	0.233
Mof_C 	C 	0.6275	0.6293	0.6569	-0.312
Mof_C 	C 	0.8441	0.6253	0.6224	-0.285
Mof_C 	C 	0.826	0.9868	0.9007	-0.07
Mof_C 	C 	0.7484	0.0571	0.9048	0.029
Mof_C 	C 	0.7588	0.1116	0.9481	-0.111
Mof_C 	C 	0.8452	0.0937	0.9879	0.01
Mof_C 	C 	0.9245	0.0234	0.9843	0.138
Mof_C 	C 	0.9153	0.9726	0.9393	-0.087
Mof_C 	C 	0.0045	0.9963	0.0294	-0.354
Mof_C 	C 	0.0967	0.0571	0.0527	0.182
Mof_C 	C 	0.1021	0.0667	0.1079	-0.146
Mof_C 	C 	0.1945	0.1167	0.1309	0.009
Mof_C 	C 	0.2769	0.1605	0.0988	-0.066
Mof_C 	C 	0.2691	0.1546	0.0443	0.002
Mof_C 	C 	0.1786	0.1035	0.0217	-0.237
Mof_C 	C 	0.8123	0.9268	0.8565	0.344
Mof_C 	C 	0.6735	0.1859	0.9524	0.444
Mof_C 	C 	0.201	0.1263	0.1898	0.271
Mof_C 	C 	0.3581	0.2043	0.0106	0.314
Mof_C 	C 	0.546	0.4832	0.8895	-0.075
Mof_C 	C 	0.6219	0.5526	0.8854	0.01
Mof_C 	C 	0.6078	0.6087	0.8442	-0.082
Mof_C 	C 	0.5217	0.5937	0.8042	-0.062
Mof_C 	C 	0.4466	0.5229	0.8074	0.079
Mof_C 	C 	0.4558	0.4699	0.8508	-0.064
Mof_C 	C 	0.3615	0.4987	0.7607	-0.22
Mof_C 	C 	0.284	0.5687	0.738	0.062
Mof_C 	C 	0.2941	0.5935	0.6856	-0.044
Mof_C 	C 	0.2146	0.6545	0.6642	-0.11
Mof_C 	C 	0.123	0.6898	0.6952	0.044
Mof_C 	C 	0.1129	0.6679	0.7493	-0.104
Mof_C 	C 	0.1931	0.6068	0.7699	-0.041
Mof_C 	C 	0.5599	0.4226	0.9355	0.35
Mof_C 	C 	0.6908	0.6862	0.8409	0.405
Mof_C 	C 	0.2305	0.6812	0.6072	0.459
Mof_C 	C 	0.0189	0.7091	0.7836	0.425
Mof_C 	C 	0.3264	0.4048	0.0636	0.239
Mof_C 	C 	0.3725	0.3707	0.1569	-0.31
Mof_C 	C 	0.1559	0.3747	0.1224	-0.28
Mof_N 	N 	0.2146	0.3853	0.6121	-0.077
Mof_N 	N 	0.7854	0.6147	0.1121	-0.08
Mof_N 	N 	0.7146	0.6147	0.6121	-0.077
Mof_N 	N 	0.2854	0.3853	0.1121	-0.08
Mof_O 	O 	0.623	0.8602	0.35436	-0.589
Mof_O 	O 	0.7665	0.9394	0.31924	-0.403
Mof_O 	O 	0.913	0.1879	0.41941	-0.504
Mof_O 	O 	0.8062	0.2398	0.48741	-0.493
Mof_O 	O 	0.3806	0.0949	0.71923	-0.367
Mof_O 	O 	0.2103	0.1678	0.70888	-0.425
Mof_O 	O 	0.0487	0.2355	0.53358	-0.495
Mof_O 	O 	0.1656	0.2114	0.46214	-0.486
Mof_O 	O 	0.009	0.3578	0.43803	-0.575
Mof_O 	O 	0.8631	0.4372	0.4714	-0.432
Mof_O 	O 	0.7221	0.69	0.37276	-0.513
Mof_O 	O 	0.835	0.7416	0.3061	-0.489
Mof_O 	O 	0.1778	0.6544	0.08214	-0.523
Mof_O 	O 	0.3513	0.7297	0.08849	-0.518
Mof_O 	O 	0.5763	0.738	0.2616	-0.511
Mof_O 	O 	0.4603	0.7113	0.33275	-0.467
Mof_O 	O 	0.0604	0.4085	0.5525	-0.408
Mof_O 	O 	0.377	0.1398	0.85436	-0.589
Mof_O 	O 	0.2335	0.0606	0.81924	-0.402
Mof_O 	O 	0.087	0.8121	0.91941	-0.501
Mof_O 	O 	0.1938	0.7602	0.98741	-0.468
Mof_O 	O 	0.6194	0.9051	0.21923	-0.364
Mof_O 	O 	0.7897	0.8322	0.20888	-0.422
Mof_O 	O 	0.9513	0.7645	0.03358	-0.49
Mof_O 	O 	0.8344	0.7886	0.96214	-0.432
Mof_O 	O 	0.991	0.6422	0.93803	-0.566
Mof_O 	O 	0.1369	0.5628	0.9714	-0.41
Mof_O 	O 	0.2779	0.31	0.87276	-0.511
Mof_O 	O 	0.165	0.2584	0.8061	-0.488
Mof_O 	O 	0.8222	0.3456	0.58214	-0.513
Mof_O 	O 	0.6487	0.2703	0.58849	-0.52
Mof_O 	O 	0.4237	0.262	0.7616	-0.512
Mof_O 	O 	0.5397	0.2887	0.83275	-0.467
Mof_O 	O 	0.9396	0.5915	0.0525	-0.427
Mof_O 	O 	0.123	0.1398	0.35436	-0.588
Mof_O 	O 	0.2665	0.0606	0.31924	-0.402
Mof_O 	O 	0.413	0.8121	0.41941	-0.503
Mof_O 	O 	0.3062	0.7602	0.48741	-0.492
Mof_O 	O 	0.8806	0.9051	0.71923	-0.368
Mof_O 	O 	0.7103	0.8322	0.70888	-0.425
Mof_O 	O 	0.5487	0.7645	0.53358	-0.496
Mof_O 	O 	0.6656	0.7886	0.46214	-0.486
Mof_O 	O 	0.509	0.6422	0.43803	-0.577
Mof_O 	O 	0.3631	0.5628	0.4714	-0.432
Mof_O 	O 	0.2221	0.31	0.37276	-0.513
Mof_O 	O 	0.335	0.2584	0.3061	-0.489
Mof_O 	O 	0.6778	0.3456	0.08214	-0.523
Mof_O 	O 	0.8513	0.2703	0.08849	-0.518
Mof_O 	O 	0.0763	0.262	0.2616	-0.511
Mof_O 	O 	0.9603	0.2887	0.33275	-0.467
Mof_O 	O 	0.5604	0.5915	0.5525	-0.409
Mof_O 	O 	0.877	0.8602	0.85436	-0.59
Mof_O 	O 	0.7335	0.9394	0.81924	-0.402
Mof_O 	O 	0.587	0.1879	0.91941	-0.502
Mof_O 	O 	0.6938	0.2398	0.98741	-0.469
Mof_O 	O 	0.1194	0.0949	0.21923	-0.364
Mof_O 	O 	0.2897	0.1678	0.20888	-0.422
Mof_O 	O 	0.4513	0.2355	0.03358	-0.489
Mof_O 	O 	0.3344	0.2114	0.96214	-0.43
Mof_O 	O 	0.491	0.3578	0.93803	-0.563
Mof_O 	O 	0.6369	0.4372	0.9714	-0.41
Mof_O 	O 	0.7779	0.69	0.87276	-0.511
Mof_O 	O 	0.665	0.7416	0.8061	-0.488
Mof_O 	O 	0.3222	0.6544	0.58214	-0.513
Mof_O 	O 	0.1487	0.7297	0.58849	-0.52
Mof_O 	O 	0.9237	0.738	0.7616	-0.514
Mof_O 	O 	0.0397	0.7113	0.83275	-0.466
Mof_O 	O 	0.4396	0.4085	0.0525	-0.428
Mof_H 	H 	0.3415	0.567	0.0057	0.195
Mof_H 	H 	0.4743	0.5577	0.9779	0.244
Mof_H 	H 	0.4647	0.5904	0.0379	0.197
Mof_H 	H 	0.5134	0.7788	0.9626	0.112
Mof_H 	H 	0.5757	0.7254	0.0095	0.071
Mof_H 	H 	0.581	0.6914	0.9497	0.114
Mof_C 	C 	0.4249	0.5911	0.0029	-0.566
Mof_C 	C 	0.5306	0.7218	0.9758	-0.198
Mof_N 	N 	0.4163	0.6782	0.9838	0.012
Mof_H 	H 	0.6585	0.433	0.5057	0.153
Mof_H 	H 	0.5257	0.4423	0.4779	0.152
Mof_H 	H 	0.5353	0.4096	0.5379	0.143
Mof_H 	H 	0.4866	0.2212	0.4626	0.143
Mof_H 	H 	0.4243	0.2746	0.5095	0.142
Mof_H 	H 	0.419	0.3086	0.4497	0.146
Mof_C 	C 	0.5751	0.4089	0.5029	-0.351
Mof_C 	C 	0.4694	0.2782	0.4758	-0.338
Mof_N 	N 	0.5837	0.3218	0.4838	-0.021
Mof_H 	H 	0.8415	0.433	0.0057	0.193
Mof_H 	H 	0.9743	0.4423	0.9779	0.238
Mof_H 	H 	0.9647	0.4096	0.0379	0.194
Mof_H 	H 	0.0134	0.2212	0.9626	0.11
Mof_H 	H 	0.0757	0.2746	0.0095	0.069
Mof_H 	H 	0.081	0.3086	0.9497	0.112
Mof_C 	C 	0.9249	0.4089	0.0029	-0.555
Mof_C 	C 	0.0306	0.2782	0.9758	-0.19
Mof_N 	N 	0.9163	0.3218	0.9838	0.007
Mof_H 	H 	0.1585	0.567	0.5057	0.153
Mof_H 	H 	0.0257	0.5577	0.4779	0.153
Mof_H 	H 	0.0353	0.5904	0.5379	0.145
Mof_H 	H 	0.9866	0.7788	0.4626	0.144
Mof_H 	H 	0.9243	0.7254	0.5095	0.142
Mof_H 	H 	0.919	0.6914	0.4497	0.147
Mof_C 	C 	0.0751	0.5911	0.5029	-0.353
Mof_C 	C 	0.9694	0.7218	0.4758	-0.341
Mof_N 	N 	0.0837	0.6782	0.4838	-0.019
_end
