data_functionalizedCrystal
_audit_creation_method	'EQeq! by Chris Wilmer'
_symmetry_space_group_name_H-M	'P1'
_symmetry_Int_Tables_number	1
_symmetry_cell_setting	triclinic
loop_
_symmetry_equiv_pos_as_xyz
  x,y,z
_cell_length_a	13.455
_cell_length_b	13.564
_cell_length_c	9.7
_cell_angle_alpha	90
_cell_angle_beta	90
_cell_angle_gamma	90
loop_
_atom_site_label
_atom_site_type_symbol
_atom_site_fract_x
_atom_site_fract_y
_atom_site_fract_z
_atom_site_charge
Mof_O 	O 	0.1394	0.4475	0.1188	-0.404
Mof_O 	O 	0.1477	0.4769	0.8904	-0.338
Mof_O 	O 	0.4475	0.1394	0.8812	-0.332
Mof_O 	O 	0.4769	0.1477	0.1096	-0.366
Mof_C 	C 	0.1851	0.4508	0.0043	0.264
Mof_C 	C 	0.2951	0.4212	0.0038	0.615
Mof_C 	C 	0.3442	0.4848	0.1351	-0.263
Mof_C 	C 	0.3113	0.3063	0.0521	-0.29
Mof_C 	C 	0.3519	0.4319	0.8777	4.019
Mof_C 	C 	0.2428	0.2447	0.9562	0.273
Mof_C 	C 	0.4353	0.3524	0.8759	-2.243
Mof_C 	C 	0.2892	0.2742	0.1987	0.591
Mof_C 	C 	0.4508	0.1851	0.9957	0.047
Mof_C 	C 	0.4212	0.2951	0.9962	1.106
Mof_H 	H 	0.33527	0.55408	0.11911	0.062
Mof_H 	H 	0.41385	0.47026	0.14197	-0.089
Mof_H 	H 	0.3086	0.42289	0.79875	-1.161
Mof_H 	H 	0.38136	0.49712	0.87413	-0.775
Mof_H 	H 	0.2623	0.25464	0.86202	-0.177
Mof_H 	H 	0.24879	0.17612	0.97922	0
Mof_H 	H 	0.42953	0.31147	0.79429	-2.403
Mof_H 	H 	0.3303	0.3108	0.26135	-0.182
Mof_H 	H 	0.22049	0.28648	0.21909	-0.118
Mof_H 	H 	0.30288	0.20506	0.20813	-0.076
Mof_H 	H 	0.46343	0.32577	0.06647	-0.605
Mof_H 	H 	0.48687	0.41457	0.87511	-0.487
Mof_H 	H 	0.17625	0.26272	0.04195	-0.015
Mof_H 	H 	0.31097	0.42996	0.2056	0.341
Mof_C 	C 	0.50245	0.08359	0.41943	-0.002
Mof_H 	H 	0.50439	0.14996	0.36582	0.016
Mof_C 	C 	0.50245	0.08359	0.55446	0.007
Mof_H 	H 	0.49561	0.85004	0.60805	-0.014
Mof_C 	C 	0.4848	0.3442	0.8649	0.526
Mof_C 	C 	0.3063	0.3113	0.9479	-0.521
Mof_C 	C 	0.2447	0.2428	0.0438	0.27
Mof_C 	C 	0.3524	0.4353	0.1241	-0.565
Mof_C 	C 	0.2742	0.2892	0.8013	0.536
Mof_C 	C 	0.4319	0.3519	0.1223	0.623
Mof_H 	H 	0.32622	0.46294	0.93353	-1.847
Mof_H 	H 	0.31153	0.4664	0.21924	-0.091
Mof_H 	H 	0.50022	0.38348	0.87729	0.746
Mof_H 	H 	0.45263	0.32765	0.77964	2.9
Mof_H 	H 	0.38413	0.4995	0.12261	0.466
Mof_H 	H 	0.17513	0.2654	0.96831	-0.053
Mof_H 	H 	0.26969	0.24756	0.13626	-0.269
Mof_H 	H 	0.25025	0.17595	0.01221	-0.057
Mof_H 	H 	0.42241	0.30912	0.20135	-0.159
Mof_H 	H 	0.49783	0.3807	0.12599	-0.033
Mof_H 	H 	0.20489	0.30429	0.79101	-0.089
Mof_H 	H 	0.31236	0.32872	0.73853	0.005
Mof_H 	H 	0.2851	0.22065	0.78187	-0.042
Mof_H 	H 	0.55126	0.31846	0.86485	-0.292
Mof_O 	O 	0.8606	0.5525	0.1188	-0.495
Mof_O 	O 	0.8523	0.5231	0.8904	-0.407
Mof_O 	O 	0.5525	0.8606	0.8812	-0.283
Mof_O 	O 	0.5231	0.8523	0.1096	-0.321
Mof_C 	C 	0.8149	0.5492	0.0043	0.273
Mof_C 	C 	0.7049	0.5788	0.0038	0.583
Mof_C 	C 	0.6558	0.5152	0.1351	-0.25
Mof_C 	C 	0.6887	0.6937	0.0521	-0.325
Mof_C 	C 	0.6481	0.5681	0.8777	4.109
Mof_C 	C 	0.7572	0.7553	0.9562	0.399
Mof_C 	C 	0.5647	0.6476	0.8759	-2.299
Mof_C 	C 	0.7108	0.7258	0.1987	0.712
Mof_C 	C 	0.5492	0.8149	0.9957	0.028
Mof_C 	C 	0.5788	0.7049	0.9962	1.134
Mof_H 	H 	0.66473	0.44592	0.11911	0.066
Mof_H 	H 	0.58615	0.52974	0.14197	-0.086
Mof_H 	H 	0.6914	0.57711	0.79875	-1.197
Mof_H 	H 	0.61864	0.50288	0.87413	-0.796
Mof_H 	H 	0.7377	0.74536	0.86202	-0.128
Mof_H 	H 	0.75121	0.82388	0.97922	0.046
Mof_H 	H 	0.57047	0.68853	0.79429	-2.459
Mof_H 	H 	0.6697	0.6892	0.26135	-0.223
Mof_H 	H 	0.77951	0.71352	0.21909	-0.174
Mof_H 	H 	0.69712	0.79494	0.20813	-0.111
Mof_H 	H 	0.53657	0.67423	0.06647	-0.604
Mof_H 	H 	0.51313	0.58543	0.87511	-0.507
Mof_H 	H 	0.82375	0.73728	0.04195	0.019
Mof_H 	H 	0.68903	0.57004	0.2056	0.334
Mof_C 	C 	0.49755	0.91641	0.41943	0.091
Mof_H 	H 	0.49561	0.85004	0.36582	0.004
Mof_C 	C 	0.49755	0.91641	0.55446	0.096
Mof_H 	H 	0.50439	0.14996	0.60805	-0.003
Mof_C 	C 	0.5152	0.6558	0.8649	0.539
Mof_C 	C 	0.6937	0.6887	0.9479	-0.47
Mof_C 	C 	0.7553	0.7572	0.0438	0.129
Mof_C 	C 	0.6476	0.5647	0.1241	-0.54
Mof_C 	C 	0.7258	0.7108	0.8013	0.258
Mof_C 	C 	0.5681	0.6481	0.1223	0.599
Mof_H 	H 	0.67378	0.53706	0.93353	-1.867
Mof_H 	H 	0.68847	0.5336	0.21924	-0.097
Mof_H 	H 	0.49978	0.61652	0.87729	0.771
Mof_H 	H 	0.54737	0.67235	0.77964	2.966
Mof_H 	H 	0.61587	0.5005	0.12261	0.448
Mof_H 	H 	0.82487	0.7346	0.96831	-0.126
Mof_H 	H 	0.73031	0.75244	0.13626	-0.26
Mof_H 	H 	0.74975	0.82405	0.01221	-0.12
Mof_H 	H 	0.57759	0.69088	0.20135	-0.15
Mof_H 	H 	0.50217	0.6193	0.12599	-0.028
Mof_H 	H 	0.79511	0.69571	0.79101	-0.036
Mof_H 	H 	0.68764	0.67128	0.73853	0.094
Mof_H 	H 	0.7149	0.77935	0.78187	0.024
Mof_H 	H 	0.44874	0.68154	0.86485	-0.302
Mof_O 	O 	0.3606	0.9475	0.8812	-0.354
Mof_O 	O 	0.3523	0.9769	0.1096	-0.216
Mof_O 	O 	0.0525	0.6394	0.1188	-0.212
Mof_O 	O 	0.0231	0.6477	0.8904	-0.214
Mof_C 	C 	0.3149	0.9508	0.9957	0.14
Mof_C 	C 	0.2049	0.9212	0.9962	1.227
Mof_C 	C 	0.1558	0.9848	0.8649	-0.652
Mof_C 	C 	0.1887	0.8063	0.9479	-0.568
Mof_C 	C 	0.1481	0.9319	0.1223	6.58
Mof_C 	C 	0.2572	0.7447	0.0438	0.507
Mof_C 	C 	0.0647	0.8524	0.1241	-3.304
Mof_C 	C 	0.2108	0.7742	0.8013	0.442
Mof_C 	C 	0.0492	0.6851	0.0043	-0.14
Mof_C 	C 	0.0788	0.7951	0.0038	1.926
Mof_H 	H 	0.16473	0.05408	0.88089	0.007
Mof_H 	H 	0.08615	0.97026	0.85803	-0.31
Mof_H 	H 	0.1914	0.92289	0.20125	-1.91
Mof_H 	H 	0.11864	0.99712	0.12587	-1.154
Mof_H 	H 	0.2377	0.75464	0.13798	0.034
Mof_H 	H 	0.25121	0.67612	0.02078	-0.009
Mof_H 	H 	0.07047	0.81147	0.20571	-2.031
Mof_H 	H 	0.1697	0.8108	0.73865	-0.101
Mof_H 	H 	0.27951	0.78648	0.78091	-0.097
Mof_H 	H 	0.19712	0.70506	0.79187	-0.042
Mof_H 	H 	0.03657	0.82577	0.93353	-1.393
Mof_H 	H 	0.01313	0.91457	0.12489	-1.402
Mof_H 	H 	0.32375	0.76272	0.95805	-0.021
Mof_H 	H 	0.18903	0.92996	0.7944	0.519
Mof_C 	C 	0.99755	0.58359	0.58057	-0.13
Mof_H 	H 	0.99561	0.64996	0.63418	-0.005
Mof_C 	C 	0.99755	0.58359	0.44554	-0.126
Mof_H 	H 	0.00439	0.35004	0.39195	0.048
Mof_C 	C 	0.0152	0.8442	0.1351	-0.099
Mof_C 	C 	0.1937	0.8113	0.0521	-0.85
Mof_C 	C 	0.2553	0.7428	0.9562	0.283
Mof_C 	C 	0.1476	0.9353	0.8759	-1.098
Mof_C 	C 	0.2258	0.7892	0.1987	-0.101
Mof_C 	C 	0.0681	0.8519	0.8777	1.859
Mof_H 	H 	0.17378	0.96294	0.06647	-3.111
Mof_H 	H 	0.18847	0.9664	0.78076	0.004
Mof_H 	H 	0.99978	0.88348	0.12271	2.245
Mof_H 	H 	0.04737	0.82765	0.22036	3.004
Mof_H 	H 	0.11587	0.9995	0.87739	1.156
Mof_H 	H 	0.32487	0.7654	0.03169	-0.153
Mof_H 	H 	0.23031	0.74756	0.86374	-0.173
Mof_H 	H 	0.24975	0.67595	0.98779	-0.143
Mof_H 	H 	0.07759	0.80912	0.79865	-0.502
Mof_H 	H 	0.00217	0.8807	0.87401	-0.14
Mof_H 	H 	0.29511	0.80429	0.20899	0.088
Mof_H 	H 	0.18764	0.82872	0.26147	0.253
Mof_H 	H 	0.2149	0.72065	0.21813	0.075
Mof_H 	H 	0.94874	0.81846	0.13515	-0.4
Mof_O 	O 	0.6394	0.0525	0.8812	-0.487
Mof_O 	O 	0.6477	0.0231	0.1096	-0.468
Mof_O 	O 	0.9475	0.3606	0.1188	-0.452
Mof_O 	O 	0.9769	0.3523	0.8904	-0.516
Mof_C 	C 	0.6851	0.0492	0.9957	0.362
Mof_C 	C 	0.7951	0.0788	0.9962	0.039
Mof_C 	C 	0.8442	0.0152	0.8649	0.092
Mof_C 	C 	0.8113	0.1937	0.9479	-0.069
Mof_C 	C 	0.8519	0.0681	0.1223	1.684
Mof_C 	C 	0.7428	0.2553	0.0438	0.165
Mof_C 	C 	0.9353	0.1476	0.1241	-1.289
Mof_C 	C 	0.7892	0.2258	0.8013	0.824
Mof_C 	C 	0.9508	0.3149	0.0043	0.227
Mof_C 	C 	0.9212	0.2049	0.0038	0.355
Mof_H 	H 	0.83527	0.94592	0.88089	0.114
Mof_H 	H 	0.91385	0.02974	0.85803	0.107
Mof_H 	H 	0.8086	0.07711	0.20125	-0.486
Mof_H 	H 	0.88136	0.00288	0.12587	-0.435
Mof_H 	H 	0.7623	0.24536	0.13798	-0.33
Mof_H 	H 	0.74879	0.32388	0.02078	0.047
Mof_H 	H 	0.92953	0.18853	0.20571	-2.794
Mof_H 	H 	0.8303	0.1892	0.73865	-0.289
Mof_H 	H 	0.72049	0.21352	0.78091	-0.184
Mof_H 	H 	0.80288	0.29494	0.79187	-0.14
Mof_H 	H 	0.96343	0.17423	0.93353	0.107
Mof_H 	H 	0.98687	0.08543	0.12489	0.357
Mof_H 	H 	0.67625	0.23728	0.95805	0.018
Mof_H 	H 	0.81097	0.07004	0.7944	0.179
Mof_C 	C 	0.00245	0.41641	0.58057	0.046
Mof_H 	H 	0.00439	0.35004	0.63418	0.057
Mof_C 	C 	0.00245	0.41641	0.44554	0.047
Mof_H 	H 	0.99561	0.64996	0.39195	-0.033
Mof_C 	C 	0.9848	0.1558	0.1351	1.122
Mof_C 	C 	0.8063	0.1887	0.0521	-0.168
Mof_C 	C 	0.7447	0.2572	0.9562	0.136
Mof_C 	C 	0.8524	0.0647	0.8759	-0.075
Mof_C 	C 	0.7742	0.2108	0.1987	0.885
Mof_C 	C 	0.9319	0.1481	0.8777	-0.483
Mof_H 	H 	0.82622	0.03706	0.06647	-0.683
Mof_H 	H 	0.81153	0.0336	0.78076	-0.182
Mof_H 	H 	0.00022	0.11652	0.12271	-0.642
Mof_H 	H 	0.95263	0.17235	0.22036	2.85
Mof_H 	H 	0.88413	0.0005	0.87739	-0.164
Mof_H 	H 	0.67513	0.2346	0.03169	-0.024
Mof_H 	H 	0.76969	0.25244	0.86374	-0.344
Mof_H 	H 	0.75025	0.32405	0.98779	-0.033
Mof_H 	H 	0.92241	0.19088	0.79865	0.147
Mof_H 	H 	0.99783	0.1193	0.87401	0.053
Mof_H 	H 	0.70489	0.19571	0.20899	-0.207
Mof_H 	H 	0.81236	0.17128	0.26147	-0.148
Mof_H 	H 	0.7851	0.27935	0.21813	-0.095
Mof_H 	H 	0.05126	0.18154	0.13515	-0.197
Mof_Zn	Zn	0.5	0	0.84593	1.172
Mof_Zn	Zn	0.5	8.91225e-34	0.14538	1.175
Mof_N 	N 	0.5	3.5649e-33	0.62197	-0.282
Mof_N 	N 	0.5	0	0.35191	-0.297
Mof_Zn	Zn	-3.14844e-33	0.5	0.15407	1.252
Mof_Zn	Zn	-4.81974e-33	0.5	0.85462	1.248
Mof_N 	N 	1.02182e-33	0.5	0.37803	-0.1
Mof_N 	N 	1.7518e-33	0.5	0.64809	-0.12
_end
