data_functionalizedCrystal
_audit_creation_method	'EQeq! by Chris Wilmer'
_symmetry_space_group_name_H-M	'P1'
_symmetry_Int_Tables_number	1
_symmetry_cell_setting	triclinic
loop_
_symmetry_equiv_pos_as_xyz
  x,y,z
_cell_length_a	21.075
_cell_length_b	7.0239
_cell_length_c	31.99
_cell_angle_alpha	90
_cell_angle_beta	104.356
_cell_angle_gamma	90
loop_
_atom_site_label
_atom_site_type_symbol
_atom_site_fract_x
_atom_site_fract_y
_atom_site_fract_z
_atom_site_charge
Mof_Mn	Mn	0.30068	0.11129	0.25054	0.948
Mof_Mn	Mn	0.24495	0.60247	0.23269	0.897
Mof_O 	O 	0.34489	0.0157	0.20062	-0.376
Mof_O 	O 	0.20951	0.1347	0.20509	-0.39
Mof_O 	O 	0.33549	0.406	0.2378	-0.378
Mof_O 	O 	0.27833	0.763	0.1855	-0.38
Mof_O 	O 	0.20653	0.0359	0.77883	-0.399
Mof_C 	C 	0.1346	0.08	0.84099	-0.025
Mof_H 	H 	0.1155	0.0062	0.817	0.043
Mof_C 	C 	0.3215	0.8736	0.17817	0.352
Mof_C 	C 	0.2923	0.582	0.03045	-0.068
Mof_O 	O 	0.19827	0.4267	0.1772	-0.377
Mof_O 	O 	0.38471	0.0169	0.30199	-0.361
Mof_C 	C 	0.348	0.8274	0.13973	-0.07
Mof_C 	C 	0.1915	0.1801	0.84238	-0.081
Mof_O 	O 	0.30899	0.7995	0.28008	-0.41
Mof_C 	C 	0.4107	0.8827	0.13917	-0.036
Mof_H 	H 	0.4359	0.954	0.1617	0.039
Mof_C 	C 	0.5357	0.8501	0.48701	0.201
Mof_C 	C 	0.3585	0.8629	0.30764	0.332
Mof_N 	N 	0.42608	0.4047	0.21191	-0.065
Mof_C 	C 	0.471	0.8879	0.46343	-0.056
Mof_C 	C 	0.3827	0.7586	0.34904	-0.076
Mof_C 	C 	0.2656	0.3993	0.03157	0.209
Mof_C 	C 	0.3327	0.6797	0.06925	0.039
Mof_C 	C 	0.1924	0.2989	0.91342	0.03
Mof_C 	C 	0.2496	0.5911	0.95197	0.187
Mof_C 	C 	0.963	0.3796	0.02015	0.205
Mof_C 	C 	0.0308	0.3681	0.03094	-0.056
Mof_C 	C 	0.3096	0.724	0.10517	-0.072
Mof_H 	H 	0.2679	0.6844	0.1063	0.059
Mof_C 	C 	0.1876	0.2526	0.17448	0.357
Mof_C 	C 	0.2249	0.4068	0.95291	-0.055
Mof_C 	C 	0.106	0.0903	0.87563	-0.039
Mof_H 	H 	0.0675	0.0239	0.8748	0.033
Mof_C 	C 	0.2193	0.2895	0.87799	-0.059
Mof_H 	H 	0.257	0.3588	0.8783	0.055
Mof_C 	C 	0.4176	0.8618	0.38482	-0.067
Mof_H 	H 	0.4272	0.9895	0.3818	0.06
Mof_C 	C 	0.1098	0.2992	0.10148	-0.06
Mof_H 	H 	0.1151	0.4299	0.1055	0.056
Mof_C 	C 	0.3972	0.7327	0.07003	-0.097
Mof_H 	H 	0.4144	0.7013	0.0468	0.06
Mof_C 	C 	0.0676	0.2314	0.06426	0.036
Mof_C 	C 	0.2822	0.6735	0.99033	-0.157
Mof_H 	H 	0.2985	0.7962	0.9896	0.077
Mof_C 	C 	0.1447	0.1749	0.13328	-0.08
Mof_C 	C 	0.2227	0.1717	0.80499	0.374
Mof_C 	C 	0.3634	0.4151	0.20724	0.232
Mof_H 	H 	0.3371	0.4304	0.1794	-0.046
Mof_C 	C 	0.4378	0.7738	0.42485	0.035
Mof_C 	C 	0.5626	0.9633	0.52294	-0.161
Mof_H 	H 	0.6052	0.9378	0.5386	0.084
Mof_C 	C 	0.4242	0.58	0.42766	-0.089
Mof_H 	H 	0.4382	0.5182	0.4541	0.046
Mof_C 	C 	0.1347	0.1995	0.91152	-0.087
Mof_H 	H 	0.1152	0.2062	0.9345	0.052
Mof_C 	C 	0.3698	0.5674	0.35284	-0.03
Mof_H 	H 	0.3471	0.499	0.3289	0.045
Mof_C 	C 	0.9341	0.5125	0.98897	-0.162
Mof_H 	H 	0.8886	0.521	0.9812	0.084
Mof_C 	C 	0.3908	0.4785	0.39227	-0.032
Mof_H 	H 	0.3822	0.3498	0.395	0.038
Mof_C 	C 	0.0969	0.9117	0.08825	-0.036
Mof_H 	H 	0.0929	0.7812	0.0834	0.039
Mof_C 	C 	0.0613	0.0375	0.05828	-0.084
Mof_H 	H 	0.0325	0.9903	0.0336	0.047
Mof_C 	C 	0.5783	0.7043	0.47273	-0.708
Mof_H 	H 	0.5603	0.5797	0.4741	0.234
Mof_H 	H 	0.6217	0.7095	0.4913	0.235
Mof_H 	H 	0.5802	0.7307	0.4436	0.233
Mof_C 	C 	0.2332	0.3162	0.9929	-0.177
Mof_H 	H 	0.2162	0.1944	0.9935	0.081
Mof_C 	C 	0.4355	0.8306	0.10459	-0.036
Mof_H 	H 	0.4784	0.862	0.1047	0.035
Mof_C 	C 	0.1386	0.9815	0.12568	-0.023
Mof_H 	H 	0.1627	0.897	0.1459	0.044
Mof_C 	C 	0.2745	0.2838	0.07238	-0.736
Mof_H 	H 	0.261	0.1549	0.0652	0.246
Mof_H 	H 	0.2483	0.3375	0.0901	0.252
Mof_H 	H 	0.3197	0.2857	0.0879	0.242
Mof_C 	C 	0.2397	0.7136	0.91113	-0.711
Mof_H 	H 	0.2378	0.8454	0.9186	0.238
Mof_H 	H 	0.1996	0.6779	0.8911	0.239
Mof_H 	H 	0.2757	0.694	0.8982	0.245
Mof_C 	C 	0.4554	0.4044	0.17489	-0.379
Mof_H 	H 	0.474	0.2814	0.1723	0.145
Mof_H 	H 	0.4892	0.4994	0.179	0.155
Mof_H 	H 	0.4223	0.432	0.149	0.14
Mof_C 	C 	0.4681	0.3715	0.2547	-0.387
Mof_H 	H 	0.4578	0.4615	0.2746	0.152
Mof_H 	H 	0.5131	0.3864	0.2539	0.154
Mof_H 	H 	0.4612	0.2446	0.2638	0.155
Mof_C 	C 	0.9196	0.2614	0.0413	-0.716
Mof_H 	H 	0.9323	0.2808	0.0719	0.239
Mof_H 	H 	0.9242	0.1292	0.035	0.236
Mof_H 	H 	0.8748	0.2993	0.0303	0.238
Mof_O 	O 	0.26405	0.2965	0.8027	-0.393
Mof_Mn	Mn	0.69932	0.61129	0.24946	0.947
Mof_Mn	Mn	0.75505	0.10247	0.26732	0.889
Mof_O 	O 	0.65511	0.5157	0.29938	-0.377
Mof_O 	O 	0.79049	0.6347	0.29491	-0.391
Mof_O 	O 	0.66451	0.906	0.2622	-0.377
Mof_O 	O 	0.72167	0.263	0.3145	-0.381
Mof_O 	O 	0.79347	0.5359	0.72117	-0.403
Mof_C 	C 	0.8654	0.58	0.65901	-0.024
Mof_H 	H 	0.8845	0.5062	0.683	0.041
Mof_C 	C 	0.6785	0.3736	0.32183	0.352
Mof_C 	C 	0.7077	0.082	0.46955	-0.072
Mof_O 	O 	0.80173	0.9267	0.3228	-0.374
Mof_O 	O 	0.61529	0.5169	0.19801	-0.36
Mof_C 	C 	0.652	0.3274	0.36027	-0.069
Mof_C 	C 	0.8085	0.6801	0.65762	-0.082
Mof_O 	O 	0.69101	0.2995	0.21992	-0.409
Mof_C 	C 	0.5893	0.3827	0.36083	-0.036
Mof_H 	H 	0.5641	0.454	0.3383	0.039
Mof_C 	C 	0.4643	0.3501	0.01299	0.202
Mof_C 	C 	0.6415	0.3629	0.19236	0.327
Mof_N 	N 	0.57392	0.9047	0.28809	-0.064
Mof_C 	C 	0.529	0.3879	0.03657	-0.06
Mof_C 	C 	0.6173	0.2586	0.15096	-0.064
Mof_C 	C 	0.7344	0.8993	0.46843	0.214
Mof_C 	C 	0.6673	0.1797	0.43075	0.041
Mof_C 	C 	0.8076	0.7989	0.58658	0.028
Mof_C 	C 	0.7504	0.0911	0.54803	0.184
Mof_C 	C 	0.037	0.8796	0.47985	0.204
Mof_C 	C 	0.9692	0.8681	0.46906	-0.057
Mof_C 	C 	0.6904	0.224	0.39483	-0.073
Mof_H 	H 	0.7321	0.1844	0.3937	0.058
Mof_C 	C 	0.8124	0.7526	0.32552	0.356
Mof_C 	C 	0.7751	0.9068	0.54709	-0.052
Mof_C 	C 	0.894	0.5903	0.62437	-0.04
Mof_H 	H 	0.9325	0.5239	0.6252	0.033
Mof_C 	C 	0.7807	0.7895	0.62201	-0.058
Mof_H 	H 	0.743	0.8588	0.6217	0.054
Mof_C 	C 	0.5824	0.3618	0.11518	-0.077
Mof_H 	H 	0.5728	0.4895	0.1182	0.064
Mof_C 	C 	0.8902	0.7992	0.39852	-0.062
Mof_H 	H 	0.8849	0.9299	0.3945	0.058
Mof_C 	C 	0.6028	0.2327	0.42997	-0.098
Mof_H 	H 	0.5856	0.2013	0.4532	0.06
Mof_C 	C 	0.9324	0.7314	0.43574	0.038
Mof_C 	C 	0.7178	0.1735	0.50967	-0.154
Mof_H 	H 	0.7015	0.2962	0.5104	0.076
Mof_C 	C 	0.8553	0.6749	0.36672	-0.079
Mof_C 	C 	0.7773	0.6717	0.69501	0.375
Mof_C 	C 	0.6366	0.9151	0.29276	0.231
Mof_H 	H 	0.6629	0.9304	0.3206	-0.045
Mof_C 	C 	0.5622	0.2738	0.07515	0.045
Mof_C 	C 	0.4374	0.4633	0.97706	-0.16
Mof_H 	H 	0.3948	0.4378	0.9614	0.083
Mof_C 	C 	0.5758	0.08	0.07234	-0.106
Mof_H 	H 	0.5618	0.0182	0.0459	0.052
Mof_C 	C 	0.8653	0.6995	0.58848	-0.085
Mof_H 	H 	0.8848	0.7062	0.5655	0.051
Mof_C 	C 	0.6302	0.0674	0.14716	-0.054
Mof_H 	H 	0.6529	0.999	0.1711	0.056
Mof_C 	C 	0.0659	0.0125	0.51103	-0.16
Mof_H 	H 	0.1114	0.021	0.5188	0.083
Mof_C 	C 	0.6092	0.9785	0.10773	-0.008
Mof_H 	H 	0.6178	0.8498	0.105	0.03
Mof_C 	C 	0.9031	0.4117	0.41175	-0.032
Mof_H 	H 	0.9071	0.2812	0.4166	0.036
Mof_C 	C 	0.9387	0.5375	0.44172	-0.089
Mof_H 	H 	0.9675	0.4903	0.4664	0.049
Mof_C 	C 	0.4217	0.2043	0.02727	-0.71
Mof_H 	H 	0.4397	0.0797	0.0259	0.234
Mof_H 	H 	0.3783	0.2095	0.0087	0.236
Mof_H 	H 	0.4198	0.2307	0.0564	0.234
Mof_C 	C 	0.7668	0.8162	0.5071	-0.18
Mof_H 	H 	0.7838	0.6944	0.5065	0.082
Mof_C 	C 	0.5645	0.3306	0.39541	-0.035
Mof_H 	H 	0.5216	0.362	0.3953	0.035
Mof_C 	C 	0.8614	0.4815	0.37432	-0.025
Mof_H 	H 	0.8373	0.397	0.3541	0.045
Mof_C 	C 	0.7255	0.7838	0.42762	-0.74
Mof_H 	H 	0.739	0.6549	0.4348	0.247
Mof_H 	H 	0.7517	0.8375	0.4099	0.253
Mof_H 	H 	0.6803	0.7857	0.4121	0.243
Mof_C 	C 	0.7603	0.2136	0.58887	-0.71
Mof_H 	H 	0.7622	0.3454	0.5814	0.239
Mof_H 	H 	0.8004	0.1779	0.6089	0.239
Mof_H 	H 	0.7243	0.194	0.6018	0.245
Mof_C 	C 	0.5446	0.9044	0.32511	-0.38
Mof_H 	H 	0.526	0.7814	0.3277	0.145
Mof_H 	H 	0.5108	0.9994	0.321	0.155
Mof_H 	H 	0.5777	0.932	0.351	0.141
Mof_C 	C 	0.5319	0.8715	0.2453	-0.388
Mof_H 	H 	0.5422	0.9615	0.2254	0.154
Mof_H 	H 	0.4869	0.8864	0.2461	0.155
Mof_H 	H 	0.5388	0.7446	0.2362	0.156
Mof_C 	C 	0.0804	0.7614	0.4587	-0.716
Mof_H 	H 	0.0677	0.7808	0.4281	0.239
Mof_H 	H 	0.0758	0.6292	0.465	0.236
Mof_H 	H 	0.1252	0.7993	0.4697	0.238
Mof_O 	O 	0.73595	0.7965	0.6973	-0.393
Mof_Mn	Mn	0.69932	0.88871	0.74946	0.947
Mof_Mn	Mn	0.75505	0.39753	0.76732	0.896
Mof_O 	O 	0.65511	0.9843	0.79938	-0.377
Mof_O 	O 	0.79049	0.8653	0.79491	-0.391
Mof_O 	O 	0.66451	0.594	0.7622	-0.379
Mof_O 	O 	0.72167	0.237	0.8145	-0.381
Mof_O 	O 	0.79347	0.9641	0.22117	-0.4
Mof_C 	C 	0.8654	0.92	0.15901	-0.025
Mof_H 	H 	0.8845	0.9938	0.183	0.043
Mof_C 	C 	0.6785	0.1264	0.82183	0.352
Mof_C 	C 	0.7077	0.418	0.96955	-0.068
Mof_O 	O 	0.80173	0.5733	0.8228	-0.377
Mof_O 	O 	0.61529	0.9831	0.69801	-0.361
Mof_C 	C 	0.652	0.1726	0.86027	-0.07
Mof_C 	C 	0.8085	0.8199	0.15762	-0.081
Mof_O 	O 	0.69101	0.2005	0.71992	-0.41
Mof_C 	C 	0.5893	0.1173	0.86083	-0.036
Mof_H 	H 	0.5641	0.046	0.8383	0.039
Mof_C 	C 	0.4643	0.1499	0.51299	0.201
Mof_C 	C 	0.6415	0.1371	0.69236	0.332
Mof_N 	N 	0.57392	0.5953	0.78809	-0.065
Mof_C 	C 	0.529	0.1121	0.53657	-0.056
Mof_C 	C 	0.6173	0.2414	0.65096	-0.076
Mof_C 	C 	0.7344	0.6007	0.96843	0.209
Mof_C 	C 	0.6673	0.3203	0.93075	0.039
Mof_C 	C 	0.8076	0.7011	0.08658	0.03
Mof_C 	C 	0.7504	0.4089	0.04803	0.187
Mof_C 	C 	0.037	0.6204	0.97985	0.205
Mof_C 	C 	0.9692	0.6319	0.96906	-0.056
Mof_C 	C 	0.6904	0.276	0.89483	-0.072
Mof_H 	H 	0.7321	0.3156	0.8937	0.059
Mof_C 	C 	0.8124	0.7474	0.82552	0.357
Mof_C 	C 	0.7751	0.5932	0.04709	-0.055
Mof_C 	C 	0.894	0.9097	0.12437	-0.039
Mof_H 	H 	0.9325	0.9761	0.1252	0.033
Mof_C 	C 	0.7807	0.7105	0.12201	-0.059
Mof_H 	H 	0.743	0.6412	0.1217	0.055
Mof_C 	C 	0.5824	0.1382	0.61518	-0.067
Mof_H 	H 	0.5728	0.0105	0.6182	0.06
Mof_C 	C 	0.8902	0.7008	0.89852	-0.06
Mof_H 	H 	0.8849	0.5701	0.8945	0.056
Mof_C 	C 	0.6028	0.2673	0.92997	-0.097
Mof_H 	H 	0.5856	0.2987	0.9532	0.06
Mof_C 	C 	0.9324	0.7686	0.93574	0.035
Mof_C 	C 	0.7178	0.3265	0.00967	-0.157
Mof_H 	H 	0.7015	0.2038	0.0104	0.077
Mof_C 	C 	0.8553	0.8251	0.86672	-0.08
Mof_C 	C 	0.7773	0.8283	0.19501	0.374
Mof_C 	C 	0.6366	0.5849	0.79276	0.232
Mof_H 	H 	0.6629	0.5696	0.8206	-0.046
Mof_C 	C 	0.5622	0.2262	0.57515	0.035
Mof_C 	C 	0.4374	0.0367	0.47706	-0.161
Mof_H 	H 	0.3948	0.0622	0.4614	0.084
Mof_C 	C 	0.5758	0.42	0.57234	-0.089
Mof_H 	H 	0.5618	0.4818	0.5459	0.046
Mof_C 	C 	0.8653	0.8005	0.08848	-0.087
Mof_H 	H 	0.8848	0.7938	0.0655	0.052
Mof_C 	C 	0.6302	0.4326	0.64716	-0.03
Mof_H 	H 	0.6529	0.501	0.6711	0.045
Mof_C 	C 	0.0659	0.4875	0.01103	-0.162
Mof_H 	H 	0.1114	0.479	0.0188	0.084
Mof_C 	C 	0.6092	0.5215	0.60773	-0.032
Mof_H 	H 	0.6178	0.6502	0.605	0.038
Mof_C 	C 	0.9031	0.0883	0.91175	-0.036
Mof_H 	H 	0.9071	0.2188	0.9166	0.039
Mof_C 	C 	0.9387	0.9625	0.94172	-0.084
Mof_H 	H 	0.9675	0.0097	0.9664	0.047
Mof_C 	C 	0.4217	0.2957	0.52727	-0.708
Mof_H 	H 	0.4397	0.4203	0.5259	0.234
Mof_H 	H 	0.3783	0.2905	0.5087	0.235
Mof_H 	H 	0.4198	0.2693	0.5564	0.233
Mof_C 	C 	0.7668	0.6838	0.0071	-0.177
Mof_H 	H 	0.7838	0.8056	0.0065	0.081
Mof_C 	C 	0.5645	0.1694	0.89541	-0.036
Mof_H 	H 	0.5216	0.138	0.8953	0.035
Mof_C 	C 	0.8614	0.0185	0.87432	-0.023
Mof_H 	H 	0.8373	0.103	0.8541	0.044
Mof_C 	C 	0.7255	0.7162	0.92762	-0.736
Mof_H 	H 	0.739	0.8451	0.9348	0.246
Mof_H 	H 	0.7517	0.6625	0.9099	0.252
Mof_H 	H 	0.6803	0.7143	0.9121	0.242
Mof_C 	C 	0.7603	0.2864	0.08887	-0.711
Mof_H 	H 	0.7622	0.1546	0.0814	0.238
Mof_H 	H 	0.8004	0.3221	0.1089	0.239
Mof_H 	H 	0.7243	0.306	0.1018	0.245
Mof_C 	C 	0.5446	0.5956	0.82511	-0.379
Mof_H 	H 	0.526	0.7186	0.8277	0.145
Mof_H 	H 	0.5108	0.5006	0.821	0.155
Mof_H 	H 	0.5777	0.568	0.851	0.14
Mof_C 	C 	0.5319	0.6285	0.7453	-0.387
Mof_H 	H 	0.5422	0.5385	0.7254	0.152
Mof_H 	H 	0.4869	0.6136	0.7461	0.154
Mof_H 	H 	0.5388	0.7554	0.7362	0.155
Mof_C 	C 	0.0804	0.7386	0.9587	-0.716
Mof_H 	H 	0.0677	0.7192	0.9281	0.239
Mof_H 	H 	0.0758	0.8708	0.965	0.236
Mof_H 	H 	0.1252	0.7007	0.9697	0.238
Mof_O 	O 	0.73595	0.7035	0.1973	-0.393
Mof_Mn	Mn	0.30068	0.38871	0.75054	0.947
Mof_Mn	Mn	0.24495	0.89753	0.73269	0.889
Mof_O 	O 	0.34489	0.4843	0.70062	-0.377
Mof_O 	O 	0.20951	0.3653	0.70509	-0.391
Mof_O 	O 	0.33549	0.094	0.7378	-0.377
Mof_O 	O 	0.27833	0.737	0.6855	-0.381
Mof_O 	O 	0.20653	0.4641	0.27883	-0.403
Mof_C 	C 	0.1346	0.42	0.34099	-0.024
Mof_H 	H 	0.1155	0.4938	0.317	0.041
Mof_C 	C 	0.3215	0.6264	0.67817	0.352
Mof_C 	C 	0.2923	0.918	0.53045	-0.072
Mof_O 	O 	0.19827	0.0733	0.6772	-0.374
Mof_O 	O 	0.38471	0.4831	0.80199	-0.36
Mof_C 	C 	0.348	0.6726	0.63973	-0.069
Mof_C 	C 	0.1915	0.3199	0.34238	-0.082
Mof_O 	O 	0.30899	0.7005	0.78008	-0.409
Mof_C 	C 	0.4107	0.6173	0.63917	-0.036
Mof_H 	H 	0.4359	0.546	0.6617	0.039
Mof_C 	C 	0.5357	0.6499	0.98701	0.202
Mof_C 	C 	0.3585	0.6371	0.80764	0.327
Mof_N 	N 	0.42608	0.0953	0.71191	-0.064
Mof_C 	C 	0.471	0.6121	0.96343	-0.06
Mof_C 	C 	0.3827	0.7414	0.84904	-0.064
Mof_C 	C 	0.2656	0.1007	0.53157	0.214
Mof_C 	C 	0.3327	0.8203	0.56925	0.041
Mof_C 	C 	0.1924	0.2011	0.41342	0.028
Mof_C 	C 	0.2496	0.9089	0.45197	0.184
Mof_C 	C 	0.963	0.1204	0.52015	0.204
Mof_C 	C 	0.0308	0.1319	0.53094	-0.057
Mof_C 	C 	0.3096	0.776	0.60517	-0.073
Mof_H 	H 	0.2679	0.8156	0.6063	0.058
Mof_C 	C 	0.1876	0.2474	0.67448	0.356
Mof_C 	C 	0.2249	0.0932	0.45291	-0.052
Mof_C 	C 	0.106	0.4097	0.37563	-0.04
Mof_H 	H 	0.0675	0.4761	0.3748	0.033
Mof_C 	C 	0.2193	0.2105	0.37799	-0.058
Mof_H 	H 	0.257	0.1412	0.3783	0.054
Mof_C 	C 	0.4176	0.6382	0.88482	-0.077
Mof_H 	H 	0.4272	0.5105	0.8818	0.064
Mof_C 	C 	0.1098	0.2008	0.60148	-0.062
Mof_H 	H 	0.1151	0.0701	0.6055	0.058
Mof_C 	C 	0.3972	0.7673	0.57003	-0.098
Mof_H 	H 	0.4144	0.7987	0.5468	0.06
Mof_C 	C 	0.0676	0.2686	0.56426	0.038
Mof_C 	C 	0.2822	0.8265	0.49033	-0.154
Mof_H 	H 	0.2985	0.7038	0.4896	0.076
Mof_C 	C 	0.1447	0.3251	0.63328	-0.079
Mof_C 	C 	0.2227	0.3283	0.30499	0.375
Mof_C 	C 	0.3634	0.0849	0.70724	0.231
Mof_H 	H 	0.3371	0.0696	0.6794	-0.045
Mof_C 	C 	0.4378	0.7262	0.92485	0.045
Mof_C 	C 	0.5626	0.5367	0.02294	-0.16
Mof_H 	H 	0.6052	0.5622	0.0386	0.083
Mof_C 	C 	0.4242	0.92	0.92766	-0.106
Mof_H 	H 	0.4382	0.9818	0.9541	0.052
Mof_C 	C 	0.1347	0.3005	0.41152	-0.085
Mof_H 	H 	0.1152	0.2938	0.4345	0.051
Mof_C 	C 	0.3698	0.9326	0.85284	-0.054
Mof_H 	H 	0.3471	0.001	0.8289	0.056
Mof_C 	C 	0.9341	0.9875	0.48897	-0.16
Mof_H 	H 	0.8886	0.979	0.4812	0.083
Mof_C 	C 	0.3908	0.0215	0.89227	-0.008
Mof_H 	H 	0.3822	0.1502	0.895	0.03
Mof_C 	C 	0.0969	0.5883	0.58825	-0.032
Mof_H 	H 	0.0929	0.7188	0.5834	0.036
Mof_C 	C 	0.0613	0.4625	0.55828	-0.089
Mof_H 	H 	0.0325	0.5097	0.5336	0.049
Mof_C 	C 	0.5783	0.7957	0.97273	-0.71
Mof_H 	H 	0.5603	0.9203	0.9741	0.234
Mof_H 	H 	0.6217	0.7905	0.9913	0.236
Mof_H 	H 	0.5802	0.7693	0.9436	0.234
Mof_C 	C 	0.2332	0.1838	0.4929	-0.18
Mof_H 	H 	0.2162	0.3056	0.4935	0.082
Mof_C 	C 	0.4355	0.6694	0.60459	-0.035
Mof_H 	H 	0.4784	0.638	0.6047	0.035
Mof_C 	C 	0.1386	0.5185	0.62568	-0.025
Mof_H 	H 	0.1627	0.603	0.6459	0.045
Mof_C 	C 	0.2745	0.2162	0.57238	-0.74
Mof_H 	H 	0.261	0.3451	0.5652	0.247
Mof_H 	H 	0.2483	0.1625	0.5901	0.253
Mof_H 	H 	0.3197	0.2143	0.5879	0.243
Mof_C 	C 	0.2397	0.7864	0.41113	-0.71
Mof_H 	H 	0.2378	0.6546	0.4186	0.239
Mof_H 	H 	0.1996	0.8221	0.3911	0.239
Mof_H 	H 	0.2757	0.806	0.3982	0.245
Mof_C 	C 	0.4554	0.0956	0.67489	-0.38
Mof_H 	H 	0.474	0.2186	0.6723	0.145
Mof_H 	H 	0.4892	0.0006	0.679	0.155
Mof_H 	H 	0.4223	0.068	0.649	0.141
Mof_C 	C 	0.4681	0.1285	0.7547	-0.388
Mof_H 	H 	0.4578	0.0385	0.7746	0.154
Mof_H 	H 	0.5131	0.1136	0.7539	0.155
Mof_H 	H 	0.4612	0.2554	0.7638	0.156
Mof_C 	C 	0.9196	0.2386	0.5413	-0.716
Mof_H 	H 	0.9323	0.2192	0.5719	0.239
Mof_H 	H 	0.9242	0.3708	0.535	0.236
Mof_H 	H 	0.8748	0.2007	0.5303	0.238
Mof_O 	O 	0.26405	0.2035	0.3027	-0.393
_end
