data_functionalizedCrystal
_audit_creation_method	'EQeq! by Chris Wilmer'
_symmetry_space_group_name_H-M	'P1'
_symmetry_Int_Tables_number	1
_symmetry_cell_setting	triclinic
loop_
_symmetry_equiv_pos_as_xyz
  x,y,z
_cell_length_a	15.8667
_cell_length_b	15.8667
_cell_length_c	54.0817
_cell_angle_alpha	87.3769
_cell_angle_beta	84.1339
_cell_angle_gamma	119.712
loop_
_atom_site_label
_atom_site_type_symbol
_atom_site_fract_x
_atom_site_fract_y
_atom_site_fract_z
_atom_site_charge
Mof_Cu	Cu	0.91534	0.68346	0.57696	0.855
Mof_Cu	Cu	0.13958	0.26585	0.75729	0.853
Mof_Cu	Cu	0.427	0.18832	0.57326	0.823
Mof_Cu	Cu	0.76042	0.4923	0.92304	0.855
Mof_Cu	Cu	0.52314	0.89687	0.74271	0.853
Mof_Cu	Cu	0.26158	0.00026	0.92674	0.822
Mof_Cu	Cu	0.08466	0.31654	0.42304	0.855
Mof_Cu	Cu	0.86042	0.73415	0.24271	0.853
Mof_Cu	Cu	0.573	0.81168	0.42674	0.823
Mof_Cu	Cu	0.23958	0.5077	0.07696	0.854
Mof_Cu	Cu	0.47686	0.10313	0.25729	0.852
Mof_Cu	Cu	0.73842	0.99974	0.07326	0.821
Mof_H 	H 	0.794	0.6365	0.5303	-0.02
Mof_H 	H 	0.0169	0.8789	0.5416	-0.008
Mof_H 	H 	0.7714	0.7067	0.4851	0.029
Mof_H 	H 	0.8533	0.8181	0.4758	0.053
Mof_H 	H 	0.966	0.7512	0.4698	0.065
Mof_H 	H 	0.8673	0.6493	0.4696	0.056
Mof_H 	H 	0.8328	0.7355	0.4353	0.036
Mof_H 	H 	0.9141	0.7058	0.4277	0.039
Mof_H 	H 	0.039	0.8692	0.4334	0.052
Mof_H 	H 	0.9553	0.8973	0.4382	0.065
Mof_H 	H 	0.9205	0.8723	0.3974	0.059
Mof_H 	H 	0.9945	0.8321	0.3924	0.046
Mof_H 	H 	0.0792	0.9839	0.3733	0.034
Mof_H 	H 	0.1235	0.9924	0.3989	0.032
Mof_H 	H 	0.9335	0.1623	0.391	-0.012
Mof_H 	H 	0.1401	0.1447	0.419	-0.015
Mof_H 	H 	0.8098	0.4562	0.577	-0.006
Mof_H 	H 	0.0477	0.6465	0.5326	-0.004
Mof_H 	H 	0.7509	0.3178	0.5561	0.026
Mof_H 	H 	0.7737	0.3459	0.5262	0.026
Mof_H 	H 	0.8705	0.2766	0.5551	0.063
Mof_H 	H 	0.9065	0.3169	0.5256	0.073
Mof_H 	H 	0.7083	0.1643	0.547	0.025
Mof_H 	H 	0.7349	0.2113	0.5182	0.029
Mof_H 	H 	0.7938	0.0914	0.5412	0.051
Mof_H 	H 	0.871	0.1732	0.5196	0.058
Mof_H 	H 	0.6804	0.0231	0.5119	0.041
Mof_H 	H 	0.7605	0.1031	0.4904	0.048
Mof_H 	H 	0.7639	0.9442	0.5141	0.046
Mof_H 	H 	0.8608	0.0331	0.4983	0.063
Mof_H 	H 	0.6136	0.8927	0.4793	-0.033
Mof_H 	H 	0.8044	0.905	0.4262	-0.008
Mof_H 	H 	0.9544	0.5194	0.6078	-0.004
Mof_H 	H 	0.841	0.6764	0.6332	-0.014
Mof_H 	H 	0.8462	0.524	0.6862	0.045
Mof_H 	H 	0.7495	0.5191	0.6784	0.036
Mof_H 	H 	0.8144	0.6371	0.7045	0.046
Mof_H 	H 	0.8207	0.6863	0.6776	0.051
Mof_H 	H 	0.9952	0.7471	0.6711	0.057
Mof_H 	H 	0.9613	0.7914	0.6935	0.045
Mof_H 	H 	0.9988	0.632	0.6998	0.053
Mof_H 	H 	0.9553	0.6665	0.7226	0.047
Mof_H 	H 	0.1549	0.7833	0.6948	0.064
Mof_H 	H 	0.1112	0.831	0.7142	0.07
Mof_H 	H 	0.0838	0.7076	0.7464	0.043
Mof_H 	H 	0.1354	0.6678	0.727	0.042
Mof_H 	H 	0.3113	0.7319	0.732	-0.008
Mof_H 	H 	0.3806	0.9859	0.7567	-0.008
Mof_H 	H 	0.9088	0.199	0.7636	-0.017
Mof_H 	H 	0.0925	0.2919	0.7012	-0.023
Mof_H 	H 	0.9686	0.3162	0.6734	0.038
Mof_H 	H 	0.864	0.2851	0.6885	0.053
Mof_H 	H 	0.8328	0.1173	0.6867	0.068
Mof_H 	H 	0.923	0.1654	0.6648	0.053
Mof_H 	H 	0.775	0.0936	0.6472	0.043
Mof_H 	H 	0.7394	0.1593	0.6617	0.057
Mof_H 	H 	0.904	0.2286	0.624	0.04
Mof_H 	H 	0.8869	0.3008	0.6409	0.051
Mof_H 	H 	0.8188	0.2941	0.6037	0.063
Mof_H 	H 	0.7536	0.1774	0.609	0.052
Mof_H 	H 	0.6564	0.1853	0.6423	0.041
Mof_H 	H 	0.7308	0.3	0.6428	0.054
Mof_H 	H 	0.6184	0.3924	0.5774	-0.038
Mof_H 	H 	0.5334	0.1401	0.6131	-0.018
Mof_H 	H 	0.2514	0.9683	0.5967	-0.011
Mof_H 	H 	0.3768	0.2055	0.6299	-0.018
Mof_H 	H 	0.2943	0.1391	0.6742	0.034
Mof_H 	H 	0.2979	0.04	0.6787	0.043
Mof_H 	H 	0.1203	0.9494	0.6743	0.072
Mof_H 	H 	0.1425	0.0028	0.6993	0.063
Mof_H 	H 	0.1614	0.146	0.6694	0.039
Mof_H 	H 	0.0851	0.0572	0.6559	0.051
Mof_H 	H 	0.0168	0.1187	0.6893	0.055
Mof_H 	H 	0.0435	0.0576	0.7083	0.065
Mof_H 	H 	0.8983	0.9907	0.6776	0.05
Mof_H 	H 	0.9558	0.9332	0.677	0.048
Mof_H 	H 	0.8829	0.8644	0.7173	0.047
Mof_H 	H 	0.8112	0.8354	0.6966	0.035
Mof_H 	H 	0.0527	0.3679	0.7922	-0.019
Mof_H 	H 	0.2764	0.5003	0.7387	-0.014
Mof_H 	H 	0.2006	0.2057	0.8081	-0.014
Mof_H 	H 	0.3741	0.393	0.7497	-0.016
Mof_H 	H 	0.5403	0.4564	0.7909	0.047
Mof_H 	H 	0.5377	0.454	0.7613	0.044
Mof_H 	H 	0.6237	0.3769	0.7702	0.045
Mof_H 	H 	0.5509	0.3183	0.7952	0.052
Mof_H 	H 	0.4362	0.2097	0.7717	0.058
Mof_H 	H 	0.5376	0.2101	0.7677	0.047
Mof_H 	H 	0.6668	0.3243	0.9697	-0.02
Mof_H 	H 	0.9205	0.5585	0.9584	-0.01
Mof_H 	H 	0.6918	0.2565	0.0149	0.029
Mof_H 	H 	0.7939	0.3291	0.0242	0.053
Mof_H 	H 	0.721	0.4358	0.0302	0.065
Mof_H 	H 	0.6189	0.3369	0.0304	0.056
Mof_H 	H 	0.6708	0.2681	0.0647	0.036
Mof_H 	H 	0.6335	0.3418	0.0723	0.039
Mof_H 	H 	0.8026	0.4724	0.0666	0.051
Mof_H 	H 	0.8355	0.3935	0.0618	0.065
Mof_H 	H 	0.7697	0.3179	0.1026	0.059
Mof_H 	H 	0.7245	0.3869	0.1076	0.046
Mof_H 	H 	0.8572	0.4525	0.1267	0.035
Mof_H 	H 	0.8913	0.5224	0.1011	0.032
Mof_H 	H 	0.0533	0.3245	0.109	-0.012
Mof_H 	H 	0.0637	0.5591	0.081	-0.015
Mof_H 	H 	0.5332	0.3868	0.923	-0.006
Mof_H 	H 	0.6791	0.5803	0.9674	-0.004
Mof_H 	H 	0.3739	0.307	0.9439	0.026
Mof_H 	H 	0.3721	0.2999	0.9738	0.026
Mof_H 	H 	0.3317	0.4256	0.9449	0.063
Mof_H 	H 	0.3425	0.4321	0.9744	0.072
Mof_H 	H 	0.2113	0.2553	0.953	0.025
Mof_H 	H 	0.2295	0.2531	0.9818	0.029
Mof_H 	H 	0.1326	0.335	0.9588	0.05
Mof_H 	H 	0.1928	0.3906	0.9804	0.057
Mof_H 	H 	0.035	0.1923	0.9881	0.042
Mof_H 	H 	0.0935	0.2509	0.0096	0.049
Mof_H 	H 	0.9583	0.278	0.9859	0.045
Mof_H 	H 	0.0314	0.3591	0.0017	0.061
Mof_H 	H 	0.872	0.0929	0.0207	-0.033
Mof_H 	H 	0.8312	0.2306	0.0738	-0.008
Mof_H 	H 	0.6272	0.5622	0.8922	-0.003
Mof_H 	H 	0.8096	0.4742	0.8668	-0.014
Mof_H 	H 	0.7102	0.5324	0.8138	0.045
Mof_H 	H 	0.6975	0.4279	0.8216	0.036
Mof_H 	H 	0.8416	0.5189	0.7955	0.046
Mof_H 	H 	0.8639	0.4983	0.8224	0.05
Mof_H 	H 	0.9182	0.6663	0.8289	0.058
Mof_H 	H 	0.9849	0.6548	0.8065	0.046
Mof_H 	H 	0.8318	0.6986	0.8002	0.053
Mof_H 	H 	0.8891	0.6779	0.7774	0.047
Mof_H 	H 	0.9781	0.8497	0.8052	0.064
Mof_H 	H 	0.0452	0.8254	0.7858	0.072
Mof_H 	H 	0.954	0.8302	0.7536	0.043
Mof_H 	H 	0.8948	0.8624	0.773	0.042
Mof_H 	H 	0.9639	0.0433	0.768	-0.006
Mof_H 	H 	0.2426	0.1373	0.7433	-0.008
Mof_H 	H 	0.4626	0.6724	0.7364	-0.017
Mof_H 	H 	0.4931	0.7937	0.7988	-0.023
Mof_H 	H 	0.4896	0.642	0.8266	0.038
Mof_H 	H 	0.4736	0.5525	0.8115	0.053
Mof_H 	H 	0.304	0.5195	0.8133	0.068
Mof_H 	H 	0.3302	0.5878	0.8352	0.053
Mof_H 	H 	0.2408	0.4222	0.8528	0.043
Mof_H 	H 	0.321	0.4011	0.8383	0.057
Mof_H 	H 	0.3526	0.528	0.876	0.04
Mof_H 	H 	0.4417	0.5278	0.8591	0.051
Mof_H 	H 	0.3978	0.4225	0.8963	0.063
Mof_H 	H 	0.2864	0.3626	0.891	0.052
Mof_H 	H 	0.3276	0.2987	0.8577	0.041
Mof_H 	H 	0.4428	0.3736	0.8572	0.054
Mof_H 	H 	0.4698	0.1958	0.9226	-0.038
Mof_H 	H 	0.2532	0.1465	0.8869	-0.018
Mof_H 	H 	0.065	0.8481	0.9033	-0.013
Mof_H 	H 	0.3354	0.0067	0.8701	-0.02
Mof_H 	H 	0.3133	0.9685	0.8258	0.036
Mof_H 	H 	0.2187	0.9766	0.8213	0.045
Mof_H 	H 	0.1237	0.7946	0.8257	0.069
Mof_H 	H 	0.2021	0.8418	0.8007	0.062
Mof_H 	H 	0.3154	0.8308	0.8306	0.041
Mof_H 	H 	0.2131	0.741	0.8441	0.053
Mof_H 	H 	0.308	0.7061	0.8107	0.054
Mof_H 	H 	0.2659	0.7518	0.7917	0.064
Mof_H 	H 	0.1683	0.5759	0.8224	0.05
Mof_H 	H 	0.1102	0.6328	0.823	0.049
Mof_H 	H 	0.0817	0.6002	0.7827	0.047
Mof_H 	H 	0.032	0.5078	0.8034	0.035
Mof_H 	H 	0.6601	0.8449	0.7078	-0.019
Mof_H 	H 	0.739	0.0151	0.7613	-0.016
Mof_H 	H 	0.5138	0.0087	0.6919	-0.014
Mof_H 	H 	0.6427	0.1238	0.7503	-0.016
Mof_H 	H 	0.7473	0.3312	0.7091	0.047
Mof_H 	H 	0.7153	0.299	0.7387	0.044
Mof_H 	H 	0.6471	0.3939	0.7298	0.045
Mof_H 	H 	0.6135	0.3461	0.7048	0.052
Mof_H 	H 	0.4814	0.2079	0.7283	0.058
Mof_H 	H 	0.4778	0.3053	0.7323	0.047
Mof_H 	H 	0.206	0.3635	0.4697	-0.02
Mof_H 	H 	0.9831	0.1211	0.4584	-0.008
Mof_H 	H 	0.2286	0.2933	0.5149	0.029
Mof_H 	H 	0.1467	0.1819	0.5242	0.053
Mof_H 	H 	0.034	0.2488	0.5302	0.065
Mof_H 	H 	0.1327	0.3507	0.5304	0.056
Mof_H 	H 	0.1672	0.2645	0.5647	0.036
Mof_H 	H 	0.0859	0.2942	0.5723	0.039
Mof_H 	H 	0.961	0.1308	0.5666	0.052
Mof_H 	H 	0.0447	0.1027	0.5618	0.065
Mof_H 	H 	0.0795	0.1277	0.6026	0.059
Mof_H 	H 	0.0055	0.1679	0.6076	0.046
Mof_H 	H 	0.9208	0.0161	0.6267	0.034
Mof_H 	H 	0.8765	0.0076	0.6011	0.032
Mof_H 	H 	0.0665	0.8377	0.609	-0.012
Mof_H 	H 	0.8599	0.8553	0.581	-0.015
Mof_H 	H 	0.1902	0.5438	0.423	-0.006
Mof_H 	H 	0.9523	0.3535	0.4674	-0.004
Mof_H 	H 	0.2491	0.6822	0.4439	0.026
Mof_H 	H 	0.2263	0.6541	0.4738	0.026
Mof_H 	H 	0.1295	0.7234	0.4449	0.063
Mof_H 	H 	0.0935	0.6831	0.4744	0.073
Mof_H 	H 	0.2917	0.8357	0.453	0.025
Mof_H 	H 	0.2651	0.7887	0.4818	0.029
Mof_H 	H 	0.2062	0.9086	0.4588	0.051
Mof_H 	H 	0.129	0.8268	0.4804	0.058
Mof_H 	H 	0.3196	0.9769	0.4881	0.041
Mof_H 	H 	0.2395	0.8969	0.5096	0.048
Mof_H 	H 	0.2361	0.0558	0.4859	0.046
Mof_H 	H 	0.1392	0.9669	0.5017	0.063
Mof_H 	H 	0.3864	0.1073	0.5207	-0.033
Mof_H 	H 	0.1956	0.095	0.5738	-0.008
Mof_H 	H 	0.0456	0.4806	0.3922	-0.004
Mof_H 	H 	0.159	0.3236	0.3668	-0.014
Mof_H 	H 	0.1538	0.476	0.3138	0.045
Mof_H 	H 	0.2505	0.4809	0.3216	0.036
Mof_H 	H 	0.1856	0.3629	0.2955	0.046
Mof_H 	H 	0.1793	0.3137	0.3224	0.051
Mof_H 	H 	0.0048	0.2529	0.3289	0.057
Mof_H 	H 	0.0387	0.2086	0.3065	0.045
Mof_H 	H 	0.0012	0.368	0.3002	0.053
Mof_H 	H 	0.0447	0.3335	0.2774	0.047
Mof_H 	H 	0.8451	0.2167	0.3052	0.064
Mof_H 	H 	0.8888	0.169	0.2858	0.07
Mof_H 	H 	0.9162	0.2924	0.2536	0.043
Mof_H 	H 	0.8646	0.3322	0.273	0.042
Mof_H 	H 	0.6887	0.2681	0.268	-0.008
Mof_H 	H 	0.6194	0.0141	0.2433	-0.008
Mof_H 	H 	0.0912	0.801	0.2364	-0.017
Mof_H 	H 	0.9075	0.7081	0.2988	-0.023
Mof_H 	H 	0.0314	0.6838	0.3266	0.038
Mof_H 	H 	0.136	0.7149	0.3115	0.053
Mof_H 	H 	0.1672	0.8827	0.3133	0.068
Mof_H 	H 	0.077	0.8346	0.3352	0.053
Mof_H 	H 	0.225	0.9064	0.3528	0.043
Mof_H 	H 	0.2606	0.8407	0.3383	0.057
Mof_H 	H 	0.096	0.7714	0.376	0.04
Mof_H 	H 	0.1131	0.6992	0.3591	0.051
Mof_H 	H 	0.1812	0.7059	0.3963	0.063
Mof_H 	H 	0.2464	0.8226	0.391	0.052
Mof_H 	H 	0.3436	0.8147	0.3577	0.041
Mof_H 	H 	0.2692	0.7	0.3572	0.054
Mof_H 	H 	0.3816	0.6076	0.4226	-0.038
Mof_H 	H 	0.4666	0.8599	0.3869	-0.018
Mof_H 	H 	0.7486	0.0317	0.4033	-0.011
Mof_H 	H 	0.6232	0.7945	0.3701	-0.018
Mof_H 	H 	0.7057	0.8609	0.3258	0.034
Mof_H 	H 	0.7021	0.96	0.3213	0.043
Mof_H 	H 	0.8797	0.0506	0.3257	0.072
Mof_H 	H 	0.8575	0.9972	0.3007	0.063
Mof_H 	H 	0.8386	0.854	0.3306	0.039
Mof_H 	H 	0.9149	0.9428	0.3441	0.051
Mof_H 	H 	0.9832	0.8813	0.3107	0.055
Mof_H 	H 	0.9565	0.9424	0.2917	0.065
Mof_H 	H 	0.1017	0.0093	0.3224	0.05
Mof_H 	H 	0.0442	0.0668	0.323	0.048
Mof_H 	H 	0.1171	0.1356	0.2827	0.047
Mof_H 	H 	0.1888	0.1646	0.3034	0.035
Mof_H 	H 	0.9473	0.6321	0.2078	-0.019
Mof_H 	H 	0.7236	0.4997	0.2613	-0.014
Mof_H 	H 	0.7994	0.7943	0.1919	-0.014
Mof_H 	H 	0.6259	0.607	0.2503	-0.016
Mof_H 	H 	0.4597	0.5436	0.2091	0.047
Mof_H 	H 	0.4623	0.546	0.2387	0.044
Mof_H 	H 	0.3763	0.6231	0.2298	0.045
Mof_H 	H 	0.4491	0.6817	0.2048	0.052
Mof_H 	H 	0.5638	0.7903	0.2283	0.058
Mof_H 	H 	0.4624	0.7899	0.2323	0.047
Mof_H 	H 	0.3332	0.6757	0.0303	-0.02
Mof_H 	H 	0.0795	0.4415	0.0416	-0.01
Mof_H 	H 	0.3082	0.7435	0.9851	0.029
Mof_H 	H 	0.2061	0.6709	0.9758	0.053
Mof_H 	H 	0.279	0.5642	0.9698	0.065
Mof_H 	H 	0.3811	0.6631	0.9696	0.056
Mof_H 	H 	0.3292	0.7319	0.9353	0.036
Mof_H 	H 	0.3665	0.6582	0.9277	0.039
Mof_H 	H 	0.1974	0.5276	0.9334	0.051
Mof_H 	H 	0.1645	0.6065	0.9382	0.065
Mof_H 	H 	0.2303	0.6821	0.8974	0.059
Mof_H 	H 	0.2755	0.6131	0.8924	0.046
Mof_H 	H 	0.1428	0.5475	0.8733	0.035
Mof_H 	H 	0.1087	0.4776	0.8989	0.032
Mof_H 	H 	0.9467	0.6755	0.891	-0.012
Mof_H 	H 	0.9363	0.4409	0.919	-0.015
Mof_H 	H 	0.4668	0.6132	0.077	-0.006
Mof_H 	H 	0.3209	0.4197	0.0326	-0.004
Mof_H 	H 	0.6261	0.693	0.0561	0.026
Mof_H 	H 	0.6279	0.7001	0.0262	0.026
Mof_H 	H 	0.6683	0.5744	0.0551	0.063
Mof_H 	H 	0.6575	0.5679	0.0256	0.072
Mof_H 	H 	0.7887	0.7447	0.047	0.025
Mof_H 	H 	0.7705	0.7469	0.0182	0.029
Mof_H 	H 	0.8674	0.665	0.0412	0.051
Mof_H 	H 	0.8072	0.6094	0.0196	0.057
Mof_H 	H 	0.965	0.8077	0.0119	0.042
Mof_H 	H 	0.9065	0.7491	0.9904	0.049
Mof_H 	H 	0.0417	0.722	0.0141	0.045
Mof_H 	H 	0.9686	0.6409	0.9983	0.061
Mof_H 	H 	0.128	0.9071	0.9793	-0.033
Mof_H 	H 	0.1688	0.7694	0.9262	-0.008
Mof_H 	H 	0.3728	0.4378	0.1078	-0.003
Mof_H 	H 	0.1904	0.5258	0.1332	-0.014
Mof_H 	H 	0.2898	0.4676	0.1862	0.045
Mof_H 	H 	0.3025	0.5721	0.1784	0.036
Mof_H 	H 	0.1584	0.4811	0.2045	0.046
Mof_H 	H 	0.1361	0.5017	0.1776	0.05
Mof_H 	H 	0.0818	0.3337	0.1711	0.058
Mof_H 	H 	0.0151	0.3452	0.1935	0.046
Mof_H 	H 	0.1682	0.3014	0.1998	0.053
Mof_H 	H 	0.1109	0.3221	0.2226	0.047
Mof_H 	H 	0.0219	0.1503	0.1948	0.064
Mof_H 	H 	0.9548	0.1746	0.2142	0.072
Mof_H 	H 	0.046	0.1698	0.2464	0.043
Mof_H 	H 	0.1052	0.1376	0.227	0.042
Mof_H 	H 	0.0361	0.9567	0.232	-0.006
Mof_H 	H 	0.7574	0.8627	0.2567	-0.008
Mof_H 	H 	0.5374	0.3276	0.2636	-0.017
Mof_H 	H 	0.5069	0.2063	0.2012	-0.023
Mof_H 	H 	0.5104	0.358	0.1734	0.038
Mof_H 	H 	0.5264	0.4475	0.1885	0.053
Mof_H 	H 	0.696	0.4805	0.1867	0.068
Mof_H 	H 	0.6698	0.4122	0.1648	0.053
Mof_H 	H 	0.7592	0.5778	0.1472	0.043
Mof_H 	H 	0.679	0.5989	0.1617	0.057
Mof_H 	H 	0.6474	0.472	0.124	0.04
Mof_H 	H 	0.5583	0.4722	0.1409	0.051
Mof_H 	H 	0.6022	0.5775	0.1037	0.063
Mof_H 	H 	0.7136	0.6374	0.109	0.052
Mof_H 	H 	0.6724	0.7013	0.1423	0.041
Mof_H 	H 	0.5572	0.6264	0.1428	0.054
Mof_H 	H 	0.5302	0.8042	0.0774	-0.038
Mof_H 	H 	0.7468	0.8535	0.1131	-0.018
Mof_H 	H 	0.935	0.1519	0.0967	-0.013
Mof_H 	H 	0.6646	0.9933	0.1299	-0.02
Mof_H 	H 	0.6867	0.0315	0.1742	0.036
Mof_H 	H 	0.7813	0.0234	0.1787	0.045
Mof_H 	H 	0.8763	0.2054	0.1743	0.069
Mof_H 	H 	0.7979	0.1582	0.1993	0.062
Mof_H 	H 	0.6846	0.1692	0.1694	0.041
Mof_H 	H 	0.7869	0.259	0.1559	0.053
Mof_H 	H 	0.692	0.2939	0.1893	0.054
Mof_H 	H 	0.7341	0.2482	0.2083	0.064
Mof_H 	H 	0.8317	0.4241	0.1776	0.05
Mof_H 	H 	0.8898	0.3672	0.177	0.049
Mof_H 	H 	0.9183	0.3998	0.2173	0.047
Mof_H 	H 	0.968	0.4922	0.1966	0.035
Mof_H 	H 	0.3399	0.1551	0.2922	-0.019
Mof_H 	H 	0.261	0.9849	0.2387	-0.016
Mof_H 	H 	0.4862	0.9913	0.3081	-0.014
Mof_H 	H 	0.3573	0.8762	0.2497	-0.016
Mof_H 	H 	0.2527	0.6688	0.2909	0.047
Mof_H 	H 	0.2847	0.701	0.2613	0.044
Mof_H 	H 	0.3529	0.6061	0.2702	0.045
Mof_H 	H 	0.3865	0.6539	0.2952	0.052
Mof_H 	H 	0.5186	0.7921	0.2717	0.058
Mof_H 	H 	0.5222	0.6947	0.2677	0.047
Mof_C 	C 	0.8476	0.7016	0.5282	0.086
Mof_C 	C 	0.9669	0.8309	0.5336	0.114
Mof_C 	C 	0.8426	0.7546	0.4832	-0.033
Mof_C 	C 	0.8977	0.7211	0.4662	-0.115
Mof_C 	C 	0.8987	0.748	0.4379	-0.073
Mof_C 	C 	0.9743	0.8551	0.4292	-0.095
Mof_C 	C 	0.9832	0.8795	0.4013	-0.1
Mof_C 	C 	0.0642	0.9805	0.3917	-0.027
Mof_C 	C 	0.9777	0.1409	0.3946	0.096
Mof_C 	C 	0.0886	0.1337	0.4097	0.091
Mof_C 	C 	0.8613	0.4885	0.5634	0.089
Mof_C 	C 	0.9899	0.5874	0.5395	0.059
Mof_C 	C 	0.8027	0.3439	0.5414	-0.014
Mof_C 	C 	0.85	0.288	0.5392	-0.13
Mof_C 	C 	0.7611	0.1956	0.5325	-0.051
Mof_C 	C 	0.8002	0.1316	0.5258	-0.11
Mof_C 	C 	0.7518	0.0628	0.506	-0.083
Mof_C 	C 	0.7883	0.9963	0.5	-0.059
Mof_C 	C 	0.6729	0.9055	0.4696	0.083
Mof_C 	C 	0.7762	0.9142	0.4414	0.084
Mof_C 	C 	0.9241	0.545	0.6187	0.08
Mof_C 	C 	0.864	0.6317	0.6317	0.084
Mof_C 	C 	0.8219	0.5598	0.6765	-0.037
Mof_C 	C 	0.8488	0.6539	0.6871	-0.097
Mof_C 	C 	0.9568	0.7308	0.688	-0.086
Mof_C 	C 	0.9984	0.6891	0.7063	-0.086
Mof_C 	C 	0.1084	0.7694	0.7102	-0.114
Mof_C 	C 	0.1346	0.7271	0.7317	-0.034
Mof_C 	C 	0.309	0.7873	0.7371	0.082
Mof_C 	C 	0.3453	0.9239	0.7508	0.079
Mof_C 	C 	0.9366	0.2232	0.7466	0.091
Mof_C 	C 	0.0373	0.2719	0.7136	0.09
Mof_C 	C 	0.9136	0.2649	0.6855	-0.04
Mof_C 	C 	0.8687	0.1721	0.6732	-0.107
Mof_C 	C 	0.7971	0.157	0.6539	-0.087
Mof_C 	C 	0.8539	0.2383	0.6338	-0.077
Mof_C 	C 	0.7826	0.2384	0.617	-0.105
Mof_C 	C 	0.703	0.2474	0.6318	-0.038
Mof_C 	C 	0.6151	0.3427	0.5886	0.093
Mof_C 	C 	0.5692	0.2076	0.6072	0.089
Mof_C 	C 	0.2699	0.0109	0.6094	0.089
Mof_C 	C 	0.3381	0.1392	0.6267	0.082
Mof_C 	C 	0.2643	0.0702	0.6707	-0.033
Mof_C 	C 	0.1528	0.0136	0.6808	-0.119
Mof_C 	C 	0.1097	0.0763	0.672	-0.064
Mof_C 	C 	0.0269	0.0622	0.6913	-0.108
Mof_C 	C 	0.9325	0.9679	0.688	-0.078
Mof_C 	C 	0.8533	0.8897	0.706	-0.048
Mof_C 	C 	0.1062	0.4157	0.7805	0.078
Mof_C 	C 	0.2271	0.4885	0.7522	0.091
Mof_C 	C 	0.2576	0.2531	0.7973	0.086
Mof_C 	C 	0.3499	0.3549	0.7656	0.085
Mof_C 	C 	0.5152	0.413	0.7776	-0.051
Mof_C 	C 	0.5536	0.3397	0.7775	-0.084
Mof_C 	C 	0.5064	0.2494	0.7644	-0.082
Mof_C 	C 	0.7298	0.3758	0.9718	0.086
Mof_C 	C 	0.8645	0.5005	0.9664	0.116
Mof_C 	C 	0.7378	0.3258	0.0168	-0.033
Mof_C 	C 	0.6873	0.3639	0.0338	-0.115
Mof_C 	C 	0.6859	0.3366	0.0621	-0.073
Mof_C 	C 	0.7843	0.4035	0.0708	-0.094
Mof_C 	C 	0.7808	0.3845	0.0987	-0.1
Mof_C 	C 	0.8722	0.4559	0.1083	-0.028
Mof_C 	C 	0.0355	0.3723	0.1054	0.094
Mof_C 	C 	0.0434	0.4983	0.0903	0.091
Mof_C 	C 	0.5519	0.4247	0.9366	0.089
Mof_C 	C 	0.6269	0.5294	0.9605	0.06
Mof_C 	C 	0.3853	0.3441	0.9586	-0.014
Mof_C 	C 	0.3272	0.3892	0.9608	-0.129
Mof_C 	C 	0.2281	0.2936	0.9675	-0.053
Mof_C 	C 	0.1574	0.326	0.9742	-0.107
Mof_C 	C 	0.0688	0.2578	0.994	-0.088
Mof_C 	C 	0.9963	0.2883	-0	-0.053
Mof_C 	C 	0.8751	0.1425	0.0304	0.084
Mof_C 	C 	0.8556	0.2176	0.0586	0.085
Mof_C 	C 	0.6637	0.5428	0.8813	0.08
Mof_C 	C 	0.7634	0.4957	0.8683	0.084
Mof_C 	C 	0.7363	0.4984	0.8235	-0.037
Mof_C 	C 	0.841	0.5359	0.8129	-0.096
Mof_C 	C 	0.9188	0.6448	0.812	-0.087
Mof_C 	C 	0.8954	0.7047	0.7937	-0.083
Mof_C 	C 	0.9796	0.8186	0.7898	-0.118
Mof_C 	C 	0.9588	0.8663	0.7683	-0.034
Mof_C 	C 	0.0244	0.0461	0.7629	0.077
Mof_C 	C 	0.1747	0.0961	0.7492	0.076
Mof_C 	C 	0.4698	0.6832	0.7534	0.091
Mof_C 	C 	0.4855	0.7509	0.7864	0.091
Mof_C 	C 	0.4504	0.5991	0.8145	-0.04
Mof_C 	C 	0.3453	0.5419	0.8268	-0.107
Mof_C 	C 	0.3109	0.451	0.8461	-0.087
Mof_C 	C 	0.3721	0.4877	0.8662	-0.077
Mof_C 	C 	0.3554	0.3996	0.883	-0.105
Mof_C 	C 	0.3792	0.3348	0.8682	-0.038
Mof_C 	C 	0.4313	0.2037	0.9114	0.093
Mof_C 	C 	0.3148	0.1764	0.8928	0.089
Mof_C 	C 	0.1203	0.8793	0.8906	0.094
Mof_C 	C 	0.2659	0.9648	0.8733	0.085
Mof_C 	C 	0.2409	0.935	0.8293	-0.036
Mof_C 	C 	0.1944	0.8336	0.8192	-0.111
Mof_C 	C 	0.2483	0.7817	0.828	-0.069
Mof_C 	C 	0.2535	0.7182	0.8087	-0.103
Mof_C 	C 	0.1559	0.6205	0.812	-0.081
Mof_C 	C 	0.0957	0.5593	0.794	-0.047
Mof_C 	C 	0.6962	0.8867	0.7195	0.078
Mof_C 	C 	0.7407	0.9793	0.7478	0.093
Mof_C 	C 	0.5504	0.0549	0.7027	0.086
Mof_C 	C 	0.6205	0.1155	0.7344	0.085
Mof_C 	C 	0.6906	0.2928	0.7224	-0.051
Mof_C 	C 	0.6172	0.3311	0.7225	-0.084
Mof_C 	C 	0.5138	0.2708	0.7356	-0.083
Mof_C 	C 	0.1524	0.2984	0.4718	0.086
Mof_C 	C 	0.0331	0.1691	0.4664	0.114
Mof_C 	C 	0.1574	0.2454	0.5168	-0.033
Mof_C 	C 	0.1023	0.2789	0.5338	-0.115
Mof_C 	C 	0.1013	0.252	0.5621	-0.073
Mof_C 	C 	0.0257	0.1449	0.5708	-0.095
Mof_C 	C 	0.0168	0.1205	0.5987	-0.1
Mof_C 	C 	0.9358	0.0195	0.6083	-0.027
Mof_C 	C 	0.0223	0.8591	0.6054	0.096
Mof_C 	C 	0.9114	0.8663	0.5903	0.091
Mof_C 	C 	0.1387	0.5115	0.4366	0.089
Mof_C 	C 	0.0101	0.4126	0.4605	0.059
Mof_C 	C 	0.1973	0.6561	0.4586	-0.014
Mof_C 	C 	0.15	0.712	0.4608	-0.13
Mof_C 	C 	0.2389	0.8044	0.4675	-0.051
Mof_C 	C 	0.1998	0.8684	0.4742	-0.11
Mof_C 	C 	0.2482	0.9372	0.494	-0.083
Mof_C 	C 	0.2117	0.0037	0.5	-0.059
Mof_C 	C 	0.3271	0.0945	0.5304	0.083
Mof_C 	C 	0.2238	0.0858	0.5586	0.084
Mof_C 	C 	0.0759	0.455	0.3813	0.08
Mof_C 	C 	0.136	0.3683	0.3683	0.084
Mof_C 	C 	0.1781	0.4402	0.3235	-0.037
Mof_C 	C 	0.1512	0.3461	0.3129	-0.097
Mof_C 	C 	0.0432	0.2692	0.312	-0.086
Mof_C 	C 	0.0016	0.3109	0.2937	-0.086
Mof_C 	C 	0.8916	0.2306	0.2898	-0.114
Mof_C 	C 	0.8654	0.2729	0.2683	-0.034
Mof_C 	C 	0.691	0.2127	0.2629	0.082
Mof_C 	C 	0.6547	0.0761	0.2492	0.079
Mof_C 	C 	0.0634	0.7768	0.2534	0.091
Mof_C 	C 	0.9627	0.7281	0.2864	0.09
Mof_C 	C 	0.0864	0.7351	0.3145	-0.04
Mof_C 	C 	0.1313	0.8279	0.3268	-0.107
Mof_C 	C 	0.2029	0.843	0.3461	-0.087
Mof_C 	C 	0.1461	0.7617	0.3662	-0.077
Mof_C 	C 	0.2174	0.7616	0.383	-0.105
Mof_C 	C 	0.297	0.7526	0.3682	-0.038
Mof_C 	C 	0.3849	0.6573	0.4114	0.093
Mof_C 	C 	0.4308	0.7924	0.3928	0.089
Mof_C 	C 	0.7301	0.9891	0.3906	0.089
Mof_C 	C 	0.6619	0.8608	0.3733	0.082
Mof_C 	C 	0.7357	0.9298	0.3293	-0.033
Mof_C 	C 	0.8472	0.9864	0.3192	-0.119
Mof_C 	C 	0.8903	0.9237	0.328	-0.064
Mof_C 	C 	0.9731	0.9378	0.3087	-0.108
Mof_C 	C 	0.0675	0.0321	0.312	-0.078
Mof_C 	C 	0.1467	0.1103	0.294	-0.048
Mof_C 	C 	0.8938	0.5843	0.2195	0.078
Mof_C 	C 	0.7729	0.5115	0.2478	0.091
Mof_C 	C 	0.7424	0.7469	0.2027	0.086
Mof_C 	C 	0.6501	0.6451	0.2344	0.085
Mof_C 	C 	0.4848	0.587	0.2224	-0.051
Mof_C 	C 	0.4464	0.6603	0.2225	-0.084
Mof_C 	C 	0.4936	0.7506	0.2356	-0.082
Mof_C 	C 	0.2702	0.6242	0.0282	0.086
Mof_C 	C 	0.1355	0.4995	0.0336	0.116
Mof_C 	C 	0.2622	0.6742	0.9832	-0.033
Mof_C 	C 	0.3127	0.6361	0.9662	-0.115
Mof_C 	C 	0.3141	0.6634	0.9379	-0.073
Mof_C 	C 	0.2157	0.5965	0.9292	-0.094
Mof_C 	C 	0.2192	0.6155	0.9013	-0.1
Mof_C 	C 	0.1278	0.5441	0.8917	-0.028
Mof_C 	C 	0.9645	0.6277	0.8946	0.094
Mof_C 	C 	0.9566	0.5017	0.9097	0.091
Mof_C 	C 	0.4481	0.5753	0.0634	0.089
Mof_C 	C 	0.3731	0.4706	0.0395	0.06
Mof_C 	C 	0.6147	0.6559	0.0414	-0.014
Mof_C 	C 	0.6728	0.6108	0.0392	-0.129
Mof_C 	C 	0.7719	0.7064	0.0325	-0.053
Mof_C 	C 	0.8426	0.674	0.0258	-0.108
Mof_C 	C 	0.9312	0.7422	0.006	-0.088
Mof_C 	C 	0.0037	0.7117	-0	-0.053
Mof_C 	C 	0.1249	0.8575	0.9696	0.084
Mof_C 	C 	0.1444	0.7824	0.9414	0.085
Mof_C 	C 	0.3363	0.4572	0.1187	0.08
Mof_C 	C 	0.2366	0.5043	0.1317	0.084
Mof_C 	C 	0.2637	0.5016	0.1765	-0.037
Mof_C 	C 	0.159	0.4641	0.1871	-0.096
Mof_C 	C 	0.0812	0.3552	0.188	-0.087
Mof_C 	C 	0.1046	0.2953	0.2063	-0.083
Mof_C 	C 	0.0204	0.1814	0.2102	-0.118
Mof_C 	C 	0.0412	0.1337	0.2317	-0.034
Mof_C 	C 	0.9756	0.9539	0.2371	0.077
Mof_C 	C 	0.8253	0.9039	0.2508	0.076
Mof_C 	C 	0.5302	0.3168	0.2466	0.091
Mof_C 	C 	0.5145	0.2491	0.2136	0.091
Mof_C 	C 	0.5496	0.4009	0.1855	-0.04
Mof_C 	C 	0.6547	0.4581	0.1732	-0.107
Mof_C 	C 	0.6891	0.549	0.1539	-0.087
Mof_C 	C 	0.6279	0.5123	0.1338	-0.077
Mof_C 	C 	0.6446	0.6004	0.117	-0.105
Mof_C 	C 	0.6208	0.6652	0.1318	-0.038
Mof_C 	C 	0.5687	0.7963	0.0886	0.093
Mof_C 	C 	0.6852	0.8236	0.1072	0.089
Mof_C 	C 	0.8797	0.1207	0.1094	0.094
Mof_C 	C 	0.7341	0.0352	0.1267	0.085
Mof_C 	C 	0.7591	0.065	0.1707	-0.036
Mof_C 	C 	0.8056	0.1664	0.1808	-0.111
Mof_C 	C 	0.7517	0.2183	0.172	-0.069
Mof_C 	C 	0.7465	0.2818	0.1913	-0.103
Mof_C 	C 	0.8441	0.3795	0.188	-0.081
Mof_C 	C 	0.9043	0.4407	0.206	-0.047
Mof_C 	C 	0.3038	0.1133	0.2805	0.078
Mof_C 	C 	0.2593	0.0207	0.2522	0.093
Mof_C 	C 	0.4496	0.9451	0.2973	0.086
Mof_C 	C 	0.3795	0.8845	0.2656	0.085
Mof_C 	C 	0.3094	0.7072	0.2776	-0.051
Mof_C 	C 	0.3828	0.6689	0.2775	-0.084
Mof_C 	C 	0.4862	0.7292	0.2644	-0.083
Mof_N 	N 	0.9072	0.744	0.5448	-0.254
Mof_N 	N 	0.9567	0.8494	0.5117	-0.107
Mof_N 	N 	0.8755	0.7656	0.5081	-0.098
Mof_N 	N 	0.9696	0.0608	0.387	-0.099
Mof_N 	N 	0.0449	0.0588	0.3971	-0.101
Mof_N 	N 	0.9484	0.8076	0.5922	-0.247
Mof_N 	N 	0.918	0.578	0.5596	-0.247
Mof_N 	N 	0.9623	0.4999	0.532	-0.087
Mof_N 	N 	0.8847	0.4417	0.5446	-0.092
Mof_N 	N 	0.7582	0.951	0.4768	-0.098
Mof_N 	N 	0.8292	0.9614	0.4586	-0.101
Mof_N 	N 	0.3212	0.1206	0.553	-0.266
Mof_N 	N 	0.9033	0.6181	0.6106	-0.241
Mof_N 	N 	0.8973	0.5165	0.6426	-0.099
Mof_N 	N 	0.8614	0.5737	0.6505	-0.094
Mof_N 	N 	0.2501	0.8802	0.7477	-0.092
Mof_N 	N 	0.2325	0.7985	0.7384	-0.094
Mof_N 	N 	0.1112	0.1279	0.7557	-0.24
Mof_N 	N 	0.0325	0.2491	0.7374	-0.243
Mof_N 	N 	0.889	0.2349	0.7303	-0.098
Mof_N 	N 	0.9517	0.2628	0.7095	-0.095
Mof_N 	N 	0.6541	0.27	0.6137	-0.098
Mof_N 	N 	0.6805	0.3584	0.6019	-0.109
Mof_N 	N 	0.5398	0.2497	0.5913	-0.269
Mof_N 	N 	0.3405	0.1062	0.6049	-0.246
Mof_N 	N 	0.2734	0.0646	0.6434	-0.094
Mof_N 	N 	0.2298	0.9832	0.6328	-0.096
Mof_N 	N 	0.2174	0.5601	0.7619	-0.094
Mof_N 	N 	0.1605	0.398	0.7633	-0.241
Mof_N 	N 	0.7904	0.9178	0.7214	-0.09
Mof_N 	N 	0.2547	0.2929	0.7742	-0.242
Mof_N 	N 	0.3452	0.2868	0.8024	-0.102
Mof_N 	N 	0.4052	0.3547	0.7823	-0.091
Mof_N 	N 	0.7888	0.452	0.9552	-0.254
Mof_N 	N 	0.8611	0.4684	0.9883	-0.107
Mof_N 	N 	0.7737	0.3836	0.9919	-0.098
Mof_N 	N 	0.9478	0.3566	0.113	-0.099
Mof_N 	N 	0.9559	0.442	0.1029	-0.1
Mof_N 	N 	0.8998	0.5406	0.9078	-0.246
Mof_N 	N 	0.6376	0.4776	0.9404	-0.247
Mof_N 	N 	0.5319	0.4943	0.968	-0.087
Mof_N 	N 	0.4863	0.4293	0.9554	-0.092
Mof_N 	N 	0.9278	0.235	0.0232	-0.099
Mof_N 	N 	0.92	0.2878	0.0414	-0.101
Mof_N 	N 	0.1736	0.8742	0.947	-0.266
Mof_N 	N 	0.7287	0.5139	0.8894	-0.241
Mof_N 	N 	0.6591	0.5399	0.8574	-0.099
Mof_N 	N 	0.7242	0.5119	0.8495	-0.094
Mof_N 	N 	0.1279	0.9978	0.7523	-0.09
Mof_N 	N 	0.0369	0.9709	0.7616	-0.091
Mof_N 	N 	0.3836	0.8669	0.7443	-0.241
Mof_N 	N 	0.4865	0.7699	0.7626	-0.243
Mof_N 	N 	0.4652	0.6193	0.7697	-0.098
Mof_N 	N 	0.4723	0.6612	0.7905	-0.095
Mof_N 	N 	0.3837	0.2678	0.8863	-0.098
Mof_N 	N 	0.4603	0.2824	0.8981	-0.109
Mof_N 	N 	0.341	0.1311	0.9087	-0.269
Mof_N 	N 	0.2111	0.9454	0.8951	-0.246
Mof_N 	N 	0.208	0.9168	0.8566	-0.093
Mof_N 	N 	0.116	0.8626	0.8672	-0.098
Mof_N 	N 	0.822	0.9793	0.7381	-0.094
Mof_N 	N 	0.6613	0.9238	0.7367	-0.241
Mof_N 	N 	0.1392	0.5118	0.7786	-0.09
Mof_N 	N 	0.5671	0.0289	0.7258	-0.243
Mof_N 	N 	0.5892	0.1476	0.6976	-0.102
Mof_N 	N 	0.637	0.1875	0.7177	-0.091
Mof_N 	N 	0.0928	0.256	0.4552	-0.254
Mof_N 	N 	0.0433	0.1506	0.4883	-0.107
Mof_N 	N 	0.1245	0.2344	0.4919	-0.098
Mof_N 	N 	0.0304	0.9392	0.613	-0.099
Mof_N 	N 	0.9551	0.9412	0.6029	-0.101
Mof_N 	N 	0.0516	0.1924	0.4078	-0.247
Mof_N 	N 	0.082	0.422	0.4404	-0.247
Mof_N 	N 	0.0377	0.5001	0.468	-0.087
Mof_N 	N 	0.1153	0.5583	0.4554	-0.092
Mof_N 	N 	0.2418	0.049	0.5232	-0.098
Mof_N 	N 	0.1708	0.0386	0.5414	-0.101
Mof_N 	N 	0.6788	0.8794	0.447	-0.266
Mof_N 	N 	0.0967	0.3819	0.3894	-0.241
Mof_N 	N 	0.1027	0.4835	0.3574	-0.099
Mof_N 	N 	0.1386	0.4263	0.3495	-0.094
Mof_N 	N 	0.7499	0.1198	0.2523	-0.092
Mof_N 	N 	0.7675	0.2015	0.2616	-0.094
Mof_N 	N 	0.8888	0.8721	0.2443	-0.24
Mof_N 	N 	0.9675	0.7509	0.2626	-0.243
Mof_N 	N 	0.111	0.7651	0.2697	-0.098
Mof_N 	N 	0.0483	0.7372	0.2905	-0.095
Mof_N 	N 	0.3459	0.73	0.3863	-0.098
Mof_N 	N 	0.3195	0.6416	0.3981	-0.109
Mof_N 	N 	0.4602	0.7503	0.4087	-0.269
Mof_N 	N 	0.6595	0.8938	0.3951	-0.246
Mof_N 	N 	0.7266	0.9354	0.3566	-0.094
Mof_N 	N 	0.7702	0.0168	0.3672	-0.096
Mof_N 	N 	0.7826	0.4399	0.2381	-0.094
Mof_N 	N 	0.8395	0.602	0.2367	-0.241
Mof_N 	N 	0.2096	0.0822	0.2786	-0.09
Mof_N 	N 	0.7453	0.7071	0.2258	-0.242
Mof_N 	N 	0.6548	0.7132	0.1976	-0.102
Mof_N 	N 	0.5948	0.6453	0.2177	-0.091
Mof_N 	N 	0.2112	0.548	0.0448	-0.254
Mof_N 	N 	0.1389	0.5316	0.0117	-0.107
Mof_N 	N 	0.2263	0.6164	0.0081	-0.097
Mof_N 	N 	0.0522	0.6434	0.887	-0.099
Mof_N 	N 	0.0441	0.558	0.8971	-0.1
Mof_N 	N 	0.1002	0.4594	0.0922	-0.246
Mof_N 	N 	0.3624	0.5224	0.0596	-0.247
Mof_N 	N 	0.4681	0.5057	0.032	-0.087
Mof_N 	N 	0.5137	0.5707	0.0446	-0.092
Mof_N 	N 	0.0722	0.765	0.9768	-0.099
Mof_N 	N 	0.08	0.7122	0.9586	-0.101
Mof_N 	N 	0.8264	0.1258	0.053	-0.266
Mof_N 	N 	0.2713	0.4861	0.1106	-0.241
Mof_N 	N 	0.3409	0.4601	0.1426	-0.099
Mof_N 	N 	0.2758	0.4881	0.1505	-0.094
Mof_N 	N 	0.8721	0.0022	0.2477	-0.09
Mof_N 	N 	0.9631	0.0291	0.2384	-0.091
Mof_N 	N 	0.6164	0.1331	0.2557	-0.241
Mof_N 	N 	0.5135	0.2301	0.2374	-0.243
Mof_N 	N 	0.5348	0.3807	0.2303	-0.098
Mof_N 	N 	0.5277	0.3388	0.2095	-0.095
Mof_N 	N 	0.6163	0.7322	0.1137	-0.098
Mof_N 	N 	0.5397	0.7176	0.1019	-0.109
Mof_N 	N 	0.659	0.8689	0.0913	-0.269
Mof_N 	N 	0.7889	0.0546	0.1049	-0.246
Mof_N 	N 	0.792	0.0832	0.1434	-0.093
Mof_N 	N 	0.884	0.1374	0.1328	-0.098
Mof_N 	N 	0.178	0.0207	0.2619	-0.094
Mof_N 	N 	0.3387	0.0762	0.2633	-0.241
Mof_N 	N 	0.8608	0.4882	0.2214	-0.09
Mof_N 	N 	0.4329	0.9711	0.2742	-0.243
Mof_N 	N 	0.4108	0.8524	0.3024	-0.102
Mof_N 	N 	0.363	0.8125	0.2823	-0.091
_end
