# CIF file generated by openbabel 3.1.0, see https://openbabel.org
data_I
_chemical_name_common 'image0'
_cell_length_a 15.4912
_cell_length_b 11.6687
_cell_length_c 23.7502
_cell_angle_alpha 90
_cell_angle_beta 90
_cell_angle_gamma 90
_space_group_name_H-M_alt 'P 1'
_space_group_name_Hall 'P 1'
loop_
    _symmetry_equiv_pos_as_xyz
    x,y,z
loop_
    _atom_site_label
    _atom_site_type_symbol
    _atom_site_fract_x
    _atom_site_fract_y
    _atom_site_fract_z
    _atom_site_occupancy
    Ni1      Ni       0.04698    0.35733    0.12311    1.000
    O1       O        0.15795    0.28741    0.08386    1.000
    O2       O        0.09892    0.44945    0.05684    1.000
    O3       O        0.44279    0.15831    0.00153    1.000
    O4       O        0.46705    0.24271    0.91802    1.000
    O5       O        0.86427    0.90019    0.30551    1.000
    O6       O        0.95286    0.75446    0.30710    1.000
    O7       O        0.92689    0.55096    0.06680    1.000
    O8       O        0.96081    0.47185    0.15059    1.000
    C1       C        0.23919    0.39990    0.01992    1.000
    C2       C        0.30005    0.31420    0.01263    1.000
    H1       H        0.29180    0.24350    0.02990    1.000
    C3       C        0.37295    0.33200    0.98002    1.000
    C4       C        0.38650    0.44140    0.95776    1.000
    H2       H        0.43550    0.45580    0.93630    1.000
    C5       C        0.32794    0.52810    0.96732    1.000
    H3       H        0.33910    0.60130    0.95380    1.000
    C6       C        0.25214    0.50690    0.99714    1.000
    H4       H        0.21100    0.56420    0.00160    1.000
    C7       C        0.16141    0.37620    0.05426    1.000
    C8       C        0.43357    0.23510    0.96601    1.000
    C9       C        0.86343    0.77270    0.22684    1.000
    C10      C        0.90081    0.67680    0.20173    1.000
    H5       H        0.94250    0.63540    0.22120    1.000
    C11      C        0.87685    0.64230    0.14821    1.000
    C12      C        0.81298    0.70180    0.12097    1.000
    H6       H        0.79630    0.67900    0.08510    1.000
    C13      C        0.77283    0.79510    0.14569    1.000
    H7       H        0.72890    0.83350    0.12690    1.000
    C14      C        0.79869    0.83060    0.19877    1.000
    H8       H        0.77240    0.89360    0.21550    1.000
    C15      C        0.89356    0.81210    0.28359    1.000
    C16      C        0.92502    0.54630    0.11937    1.000
    Ni2      Ni       0.45302    0.64267    0.62311    1.000
    O9       O        0.34205    0.71259    0.58386    1.000
    O10      O        0.40108    0.55055    0.55684    1.000
    O11      O        0.05721    0.84169    0.50153    1.000
    O12      O        0.03295    0.75729    0.41802    1.000
    O13      O        0.63573    0.09981    0.80551    1.000
    O14      O        0.54714    0.24554    0.80710    1.000
    O15      O        0.57311    0.44904    0.56680    1.000
    O16      O        0.53919    0.52815    0.65059    1.000
    C17      C        0.26081    0.60010    0.51992    1.000
    C18      C        0.19995    0.68580    0.51263    1.000
    H9       H        0.20820    0.75650    0.52990    1.000
    C19      C        0.12705    0.66800    0.48002    1.000
    C20      C        0.11350    0.55860    0.45776    1.000
    H10      H        0.06450    0.54420    0.43630    1.000
    C21      C        0.17206    0.47190    0.46732    1.000
    H11      H        0.16090    0.39870    0.45380    1.000
    C22      C        0.24786    0.49310    0.49714    1.000
    H12      H        0.28900    0.43580    0.50160    1.000
    C23      C        0.33859    0.62380    0.55426    1.000
    C24      C        0.06643    0.76490    0.46601    1.000
    C25      C        0.63657    0.22730    0.72684    1.000
    C26      C        0.59919    0.32320    0.70173    1.000
    H13      H        0.55750    0.36460    0.72120    1.000
    C27      C        0.62315    0.35770    0.64821    1.000
    C28      C        0.68702    0.29820    0.62097    1.000
    H14      H        0.70370    0.32100    0.58510    1.000
    C29      C        0.72717    0.20490    0.64569    1.000
    H15      H        0.77110    0.16650    0.62690    1.000
    C30      C        0.70131    0.16940    0.69877    1.000
    H16      H        0.72760    0.10640    0.71550    1.000
    C31      C        0.60644    0.18790    0.78359    1.000
    C32      C        0.57498    0.45370    0.61937    1.000
    Ni3      Ni       0.95302    0.85733    0.37689    1.000
    O17      O        0.84205    0.78741    0.41614    1.000
    O18      O        0.90108    0.94945    0.44316    1.000
    O19      O        0.55721    0.65831    0.49847    1.000
    O20      O        0.53295    0.74271    0.58198    1.000
    O21      O        0.13573    0.40019    0.19449    1.000
    O22      O        0.04714    0.25446    0.19290    1.000
    O23      O        0.07311    0.05096    0.43320    1.000
    O24      O        0.03919    0.97185    0.34941    1.000
    C33      C        0.76081    0.89990    0.48008    1.000
    C34      C        0.69995    0.81420    0.48737    1.000
    H17      H        0.70820    0.74350    0.47010    1.000
    C35      C        0.62705    0.83200    0.51998    1.000
    C36      C        0.61350    0.94140    0.54224    1.000
    H18      H        0.56450    0.95580    0.56370    1.000
    C37      C        0.67206    0.02810    0.53268    1.000
    H19      H        0.66090    0.10130    0.54620    1.000
    C38      C        0.74786    0.00690    0.50286    1.000
    H20      H        0.78900    0.06420    0.49840    1.000
    C39      C        0.83859    0.87620    0.44574    1.000
    C40      C        0.56643    0.73510    0.53399    1.000
    C41      C        0.13657    0.27270    0.27316    1.000
    C42      C        0.09919    0.17680    0.29827    1.000
    H21      H        0.05750    0.13540    0.27880    1.000
    C43      C        0.12315    0.14230    0.35179    1.000
    C44      C        0.18702    0.20180    0.37903    1.000
    H22      H        0.20370    0.17900    0.41490    1.000
    C45      C        0.22717    0.29510    0.35431    1.000
    H23      H        0.27110    0.33350    0.37310    1.000
    C46      C        0.20131    0.33060    0.30123    1.000
    H24      H        0.22760    0.39360    0.28450    1.000
    C47      C        0.10644    0.31210    0.21641    1.000
    C48      C        0.07498    0.04630    0.38063    1.000
    Ni4      Ni       0.54698    0.14267    0.87689    1.000
    O25      O        0.65795    0.21259    0.91614    1.000
    O26      O        0.59892    0.05055    0.94316    1.000
    O27      O        0.94279    0.34169    0.99847    1.000
    O28      O        0.96705    0.25729    0.08198    1.000
    O29      O        0.36427    0.59981    0.69449    1.000
    O30      O        0.45286    0.74554    0.69290    1.000
    O31      O        0.42689    0.94904    0.93320    1.000
    O32      O        0.46081    0.02815    0.84941    1.000
    C49      C        0.73919    0.10010    0.98008    1.000
    C50      C        0.80005    0.18580    0.98737    1.000
    H25      H        0.79180    0.25650    0.97010    1.000
    C51      C        0.87295    0.16800    0.01998    1.000
    C52      C        0.88650    0.05860    0.04224    1.000
    H26      H        0.93550    0.04420    0.06370    1.000
    C53      C        0.82794    0.97190    0.03268    1.000
    H27      H        0.83910    0.89870    0.04620    1.000
    C54      C        0.75214    0.99310    0.00286    1.000
    H28      H        0.71100    0.93580    0.99840    1.000
    C55      C        0.66141    0.12380    0.94574    1.000
    C56      C        0.93357    0.26490    0.03399    1.000
    C57      C        0.36343    0.72730    0.77316    1.000
    C58      C        0.40081    0.82320    0.79827    1.000
    H29      H        0.44250    0.86460    0.77880    1.000
    C59      C        0.37685    0.85770    0.85179    1.000
    C60      C        0.31298    0.79820    0.87903    1.000
    H30      H        0.29630    0.82100    0.91490    1.000
    C61      C        0.27283    0.70490    0.85431    1.000
    H31      H        0.22890    0.66650    0.87310    1.000
    C62      C        0.29869    0.66940    0.80123    1.000
    H32      H        0.27240    0.60640    0.78450    1.000
    C63      C        0.39356    0.68790    0.71641    1.000
    C64      C        0.42502    0.95370    0.88063    1.000
    Ni5      Ni       0.95302    0.64267    0.87689    1.000
    O33      O        0.84205    0.71259    0.91614    1.000
    O34      O        0.90108    0.55055    0.94316    1.000
    O35      O        0.55721    0.84169    0.99847    1.000
    O36      O        0.53295    0.75729    0.08198    1.000
    O37      O        0.13573    0.09981    0.69449    1.000
    O38      O        0.04714    0.24554    0.69290    1.000
    O39      O        0.07311    0.44904    0.93320    1.000
    O40      O        0.03919    0.52815    0.84941    1.000
    C65      C        0.76081    0.60010    0.98008    1.000
    C66      C        0.69995    0.68580    0.98737    1.000
    H33      H        0.70820    0.75650    0.97010    1.000
    C67      C        0.62705    0.66800    0.01998    1.000
    C68      C        0.61350    0.55860    0.04224    1.000
    H34      H        0.56450    0.54420    0.06370    1.000
    C69      C        0.67206    0.47190    0.03268    1.000
    H35      H        0.66090    0.39870    0.04620    1.000
    C70      C        0.74786    0.49310    0.00286    1.000
    H36      H        0.78900    0.43580    0.99840    1.000
    C71      C        0.83859    0.62380    0.94574    1.000
    C72      C        0.56643    0.76490    0.03399    1.000
    C73      C        0.13657    0.22730    0.77316    1.000
    C74      C        0.09919    0.32320    0.79827    1.000
    H37      H        0.05750    0.36460    0.77880    1.000
    C75      C        0.12315    0.35770    0.85179    1.000
    C76      C        0.18702    0.29820    0.87903    1.000
    H38      H        0.20370    0.32100    0.91490    1.000
    C77      C        0.22717    0.20490    0.85431    1.000
    H39      H        0.27110    0.16650    0.87310    1.000
    C78      C        0.20131    0.16940    0.80123    1.000
    H40      H        0.22760    0.10640    0.78450    1.000
    C79      C        0.10644    0.18790    0.71641    1.000
    C80      C        0.07498    0.45370    0.88063    1.000
    Ni6      Ni       0.54698    0.35733    0.37689    1.000
    O41      O        0.65795    0.28741    0.41614    1.000
    O42      O        0.59892    0.44945    0.44316    1.000
    O43      O        0.94279    0.15831    0.49847    1.000
    O44      O        0.96705    0.24271    0.58198    1.000
    O45      O        0.36427    0.90019    0.19449    1.000
    O46      O        0.45286    0.75446    0.19290    1.000
    O47      O        0.42689    0.55096    0.43320    1.000
    O48      O        0.46081    0.47185    0.34941    1.000
    C81      C        0.73919    0.39990    0.48008    1.000
    C82      C        0.80005    0.31420    0.48737    1.000
    H41      H        0.79180    0.24350    0.47010    1.000
    C83      C        0.87295    0.33200    0.51998    1.000
    C84      C        0.88650    0.44140    0.54224    1.000
    H42      H        0.93550    0.45580    0.56370    1.000
    C85      C        0.82794    0.52810    0.53268    1.000
    H43      H        0.83910    0.60130    0.54620    1.000
    C86      C        0.75214    0.50690    0.50286    1.000
    H44      H        0.71100    0.56420    0.49840    1.000
    C87      C        0.66141    0.37620    0.44574    1.000
    C88      C        0.93357    0.23510    0.53399    1.000
    C89      C        0.36343    0.77270    0.27316    1.000
    C90      C        0.40081    0.67680    0.29827    1.000
    H45      H        0.44250    0.63540    0.27880    1.000
    C91      C        0.37685    0.64230    0.35179    1.000
    C92      C        0.31298    0.70180    0.37903    1.000
    H46      H        0.29630    0.67900    0.41490    1.000
    C93      C        0.27283    0.79510    0.35431    1.000
    H47      H        0.22890    0.83350    0.37310    1.000
    C94      C        0.29869    0.83060    0.30123    1.000
    H48      H        0.27240    0.89360    0.28450    1.000
    C95      C        0.39356    0.81210    0.21641    1.000
    C96      C        0.42502    0.54630    0.38063    1.000
    Ni7      Ni       0.04698    0.14267    0.62311    1.000
    O49      O        0.15795    0.21259    0.58386    1.000
    O50      O        0.09892    0.05055    0.55684    1.000
    O51      O        0.44279    0.34169    0.50153    1.000
    O52      O        0.46705    0.25729    0.41802    1.000
    O53      O        0.86427    0.59981    0.80551    1.000
    O54      O        0.95286    0.74554    0.80710    1.000
    O55      O        0.92689    0.94904    0.56680    1.000
    O56      O        0.96081    0.02815    0.65059    1.000
    C97      C        0.23919    0.10010    0.51992    1.000
    C98      C        0.30005    0.18580    0.51263    1.000
    H49      H        0.29180    0.25650    0.52990    1.000
    C99      C        0.37295    0.16800    0.48002    1.000
    C100     C        0.38650    0.05860    0.45776    1.000
    H50      H        0.43550    0.04420    0.43630    1.000
    C101     C        0.32794    0.97190    0.46732    1.000
    H51      H        0.33910    0.89870    0.45380    1.000
    C102     C        0.25214    0.99310    0.49714    1.000
    H52      H        0.21100    0.93580    0.50160    1.000
    C103     C        0.16141    0.12380    0.55426    1.000
    C104     C        0.43357    0.26490    0.46601    1.000
    C105     C        0.86343    0.72730    0.72684    1.000
    C106     C        0.90081    0.82320    0.70173    1.000
    H53      H        0.94250    0.86460    0.72120    1.000
    C107     C        0.87685    0.85770    0.64821    1.000
    C108     C        0.81298    0.79820    0.62097    1.000
    H54      H        0.79630    0.82100    0.58510    1.000
    C109     C        0.77283    0.70490    0.64569    1.000
    H55      H        0.72890    0.66650    0.62690    1.000
    C110     C        0.79869    0.66940    0.69877    1.000
    H56      H        0.77240    0.60640    0.71550    1.000
    C111     C        0.89356    0.68790    0.78359    1.000
    C112     C        0.92502    0.95370    0.61937    1.000
    Ni8      Ni       0.45302    0.85733    0.12311    1.000
    O57      O        0.34205    0.78741    0.08386    1.000
    O58      O        0.40108    0.94945    0.05684    1.000
    O59      O        0.05721    0.65831    0.00153    1.000
    O60      O        0.03295    0.74271    0.91802    1.000
    O61      O        0.63573    0.40019    0.30551    1.000
    O62      O        0.54714    0.25446    0.30710    1.000
    O63      O        0.57311    0.05096    0.06680    1.000
    O64      O        0.53919    0.97185    0.15059    1.000
    C113     C        0.26081    0.89990    0.01992    1.000
    C114     C        0.19995    0.81420    0.01263    1.000
    H57      H        0.20820    0.74350    0.02990    1.000
    C115     C        0.12705    0.83200    0.98002    1.000
    C116     C        0.11350    0.94140    0.95776    1.000
    H58      H        0.06450    0.95580    0.93630    1.000
    C117     C        0.17206    0.02810    0.96732    1.000
    H59      H        0.16090    0.10130    0.95380    1.000
    C118     C        0.24786    0.00690    0.99714    1.000
    H60      H        0.28900    0.06420    0.00160    1.000
    C119     C        0.33859    0.87620    0.05426    1.000
    C120     C        0.06643    0.73510    0.96601    1.000
    C121     C        0.63657    0.27270    0.22684    1.000
    C122     C        0.59919    0.17680    0.20173    1.000
    H61      H        0.55750    0.13540    0.22120    1.000
    C123     C        0.62315    0.14230    0.14821    1.000
    C124     C        0.68702    0.20180    0.12097    1.000
    H62      H        0.70370    0.17900    0.08510    1.000
    C125     C        0.72717    0.29510    0.14569    1.000
    H63      H        0.77110    0.33350    0.12690    1.000
    C126     C        0.70131    0.33060    0.19877    1.000
    H64      H        0.72760    0.39360    0.21550    1.000
    C127     C        0.60644    0.31210    0.28359    1.000
    C128     C        0.57498    0.04630    0.11937    1.000
    Ni9      Ni       0.00000    0.50000    0.00000    1.000
    Ni10     Ni       0.50000    0.50000    0.50000    1.000
    Ni11     Ni       0.00000    0.00000    0.50000    1.000
    Ni12     Ni       0.50000    0.00000    0.00000    1.000
