data_functionalizedCrystal
_audit_creation_method	'EQeq! by Chris Wilmer'
_symmetry_space_group_name_H-M	'P1'
_symmetry_Int_Tables_number	1
_symmetry_cell_setting	triclinic
loop_
_symmetry_equiv_pos_as_xyz
  x,y,z
_cell_length_a	25.7465
_cell_length_b	25.7465
_cell_length_c	25.7465
_cell_angle_alpha	90
_cell_angle_beta	90
_cell_angle_gamma	90
loop_
_atom_site_label
_atom_site_type_symbol
_atom_site_fract_x
_atom_site_fract_y
_atom_site_fract_z
_atom_site_charge
Mof_Zn	Zn	0.29342	0.20658	0.20658	1.219
Mof_Zn	Zn	0.29342	0.70658	0.70658	1.219
Mof_Zn	Zn	0.70658	0.79342	0.20658	1.219
Mof_Zn	Zn	0.70658	0.29342	0.70658	1.219
Mof_Zn	Zn	0.20658	0.29342	0.20658	1.219
Mof_Zn	Zn	0.70658	0.20658	0.79342	1.219
Mof_Zn	Zn	0.70658	0.70658	0.29342	1.219
Mof_Zn	Zn	0.20658	0.20658	0.29342	1.219
Mof_Zn	Zn	0.29342	0.79342	0.79342	1.219
Mof_Zn	Zn	0.29342	0.29342	0.29342	1.219
Mof_Zn	Zn	0.20658	0.70658	0.79342	1.219
Mof_Zn	Zn	0.79342	0.70658	0.20658	1.219
Mof_Zn	Zn	0.79342	0.29342	0.79342	1.219
Mof_Zn	Zn	0.79342	0.20658	0.70658	1.219
Mof_Zn	Zn	0.20658	0.79342	0.70658	1.219
Mof_Zn	Zn	0.79342	0.79342	0.29342	1.219
Mof_Zn	Zn	0.20658	0.29342	0.79342	1.219
Mof_Zn	Zn	0.79342	0.70658	0.79342	1.219
Mof_Zn	Zn	0.79342	0.20658	0.29342	1.219
Mof_Zn	Zn	0.29342	0.20658	0.79342	1.219
Mof_Zn	Zn	0.20658	0.70658	0.20658	1.219
Mof_Zn	Zn	0.79342	0.29342	0.20658	1.219
Mof_Zn	Zn	0.29342	0.29342	0.70658	1.219
Mof_Zn	Zn	0.29342	0.70658	0.29342	1.219
Mof_Zn	Zn	0.70658	0.20658	0.20658	1.22
Mof_Zn	Zn	0.70658	0.70658	0.70658	1.22
Mof_Zn	Zn	0.70658	0.79342	0.79342	1.22
Mof_Zn	Zn	0.70658	0.29342	0.29342	1.22
Mof_Zn	Zn	0.20658	0.79342	0.29342	1.22
Mof_Zn	Zn	0.29342	0.79342	0.20658	1.22
Mof_Zn	Zn	0.20658	0.20658	0.70658	1.22
Mof_Zn	Zn	0.79342	0.79342	0.70658	1.22
Mof_O 	O 	0.2807	0.2193	0.134	-0.488
Mof_C 	C 	0.281	0.219	0.0266	0.098
Mof_N 	N 	0.3177	0.1823	0.0474	-0.069
Mof_O 	O 	0.2807	0.7193	0.634	-0.488
Mof_C 	C 	0.281	0.719	0.5266	0.098
Mof_N 	N 	0.3177	0.6823	0.5474	-0.069
Mof_O 	O 	0.7193	0.7807	0.134	-0.488
Mof_C 	C 	0.719	0.781	0.0266	0.098
Mof_N 	N 	0.6823	0.8177	0.0474	-0.069
Mof_O 	O 	0.7193	0.2807	0.634	-0.488
Mof_C 	C 	0.719	0.281	0.5266	0.098
Mof_N 	N 	0.6823	0.3177	0.5474	-0.069
Mof_O 	O 	0.2193	0.2807	0.134	-0.488
Mof_C 	C 	0.219	0.281	0.0266	0.098
Mof_N 	N 	0.1823	0.3177	0.0474	-0.069
Mof_O 	O 	0.7193	0.2193	0.866	-0.488
Mof_C 	C 	0.719	0.219	0.9734	0.098
Mof_N 	N 	0.6823	0.1823	0.9526	-0.069
Mof_O 	O 	0.7193	0.7193	0.366	-0.488
Mof_C 	C 	0.719	0.719	0.4734	0.098
Mof_N 	N 	0.6823	0.6823	0.4526	-0.069
Mof_O 	O 	0.2193	0.2193	0.366	-0.488
Mof_C 	C 	0.219	0.219	0.4734	0.098
Mof_N 	N 	0.1823	0.1823	0.4526	-0.069
Mof_O 	O 	0.2807	0.7807	0.866	-0.488
Mof_C 	C 	0.281	0.781	0.9734	0.098
Mof_N 	N 	0.3177	0.8177	0.9526	-0.069
Mof_O 	O 	0.2807	0.2807	0.366	-0.488
Mof_C 	C 	0.281	0.281	0.4734	0.098
Mof_N 	N 	0.3177	0.3177	0.4526	-0.069
Mof_O 	O 	0.134	0.2807	0.2193	-0.488
Mof_C 	C 	0.0266	0.281	0.219	0.098
Mof_N 	N 	0.0474	0.3177	0.1823	-0.069
Mof_O 	O 	0.634	0.2807	0.7193	-0.488
Mof_C 	C 	0.5266	0.281	0.719	0.098
Mof_N 	N 	0.5474	0.3177	0.6823	-0.069
Mof_O 	O 	0.134	0.7193	0.7807	-0.488
Mof_C 	C 	0.0266	0.719	0.781	0.098
Mof_N 	N 	0.0474	0.6823	0.8177	-0.069
Mof_O 	O 	0.134	0.2193	0.2807	-0.488
Mof_C 	C 	0.0266	0.219	0.281	0.098
Mof_N 	N 	0.0474	0.1823	0.3177	-0.069
Mof_O 	O 	0.634	0.7193	0.2807	-0.488
Mof_C 	C 	0.5266	0.719	0.281	0.098
Mof_N 	N 	0.5474	0.6823	0.3177	-0.069
Mof_O 	O 	0.866	0.7193	0.2193	-0.488
Mof_C 	C 	0.9734	0.719	0.219	0.098
Mof_N 	N 	0.9526	0.6823	0.1823	-0.069
Mof_O 	O 	0.366	0.7193	0.7193	-0.488
Mof_C 	C 	0.4734	0.719	0.719	0.098
Mof_N 	N 	0.4526	0.6823	0.6823	-0.069
Mof_O 	O 	0.366	0.2193	0.2193	-0.488
Mof_C 	C 	0.4734	0.219	0.219	0.098
Mof_N 	N 	0.4526	0.1823	0.1823	-0.069
Mof_O 	O 	0.866	0.2807	0.7807	-0.488
Mof_C 	C 	0.9734	0.281	0.781	0.098
Mof_N 	N 	0.9526	0.3177	0.8177	-0.069
Mof_O 	O 	0.366	0.2807	0.2807	-0.488
Mof_C 	C 	0.4734	0.281	0.281	0.098
Mof_N 	N 	0.4526	0.3177	0.3177	-0.069
Mof_O 	O 	0.2193	0.134	0.2807	-0.488
Mof_C 	C 	0.219	0.0266	0.281	0.098
Mof_N 	N 	0.1823	0.0474	0.3177	-0.069
Mof_O 	O 	0.2193	0.634	0.7807	-0.488
Mof_C 	C 	0.219	0.5266	0.781	0.098
Mof_N 	N 	0.1823	0.5474	0.8177	-0.069
Mof_O 	O 	0.7807	0.134	0.7193	-0.488
Mof_C 	C 	0.781	0.0266	0.719	0.098
Mof_N 	N 	0.8177	0.0474	0.6823	-0.069
Mof_O 	O 	0.7807	0.634	0.2193	-0.488
Mof_C 	C 	0.781	0.5266	0.219	0.098
Mof_N 	N 	0.8177	0.5474	0.1823	-0.069
Mof_O 	O 	0.2807	0.134	0.2193	-0.488
Mof_C 	C 	0.281	0.0266	0.219	0.098
Mof_N 	N 	0.3177	0.0474	0.1823	-0.069
Mof_O 	O 	0.2193	0.866	0.7193	-0.488
Mof_C 	C 	0.219	0.9734	0.719	0.098
Mof_N 	N 	0.1823	0.9526	0.6823	-0.069
Mof_O 	O 	0.2193	0.366	0.2193	-0.488
Mof_C 	C 	0.219	0.4734	0.219	0.098
Mof_N 	N 	0.1823	0.4526	0.1823	-0.069
Mof_O 	O 	0.7807	0.866	0.2807	-0.488
Mof_C 	C 	0.781	0.9734	0.281	0.098
Mof_N 	N 	0.8177	0.9526	0.3177	-0.069
Mof_O 	O 	0.7807	0.366	0.7807	-0.488
Mof_C 	C 	0.781	0.4734	0.781	0.098
Mof_N 	N 	0.8177	0.4526	0.8177	-0.069
Mof_O 	O 	0.2807	0.366	0.2807	-0.488
Mof_C 	C 	0.281	0.4734	0.281	0.098
Mof_N 	N 	0.3177	0.4526	0.3177	-0.069
Mof_O 	O 	0.2193	0.2807	0.866	-0.488
Mof_C 	C 	0.219	0.281	0.9734	0.098
Mof_N 	N 	0.1823	0.3177	0.9526	-0.069
Mof_O 	O 	0.2193	0.7807	0.366	-0.488
Mof_C 	C 	0.219	0.781	0.4734	0.098
Mof_N 	N 	0.1823	0.8177	0.4526	-0.069
Mof_O 	O 	0.7807	0.7193	0.866	-0.488
Mof_C 	C 	0.781	0.719	0.9734	0.098
Mof_N 	N 	0.8177	0.6823	0.9526	-0.069
Mof_O 	O 	0.7807	0.2193	0.366	-0.488
Mof_C 	C 	0.781	0.219	0.4734	0.098
Mof_N 	N 	0.8177	0.1823	0.4526	-0.069
Mof_O 	O 	0.2807	0.2193	0.866	-0.488
Mof_C 	C 	0.281	0.219	0.9734	0.098
Mof_N 	N 	0.3177	0.1823	0.9526	-0.069
Mof_O 	O 	0.2193	0.7193	0.134	-0.488
Mof_C 	C 	0.219	0.719	0.0266	0.098
Mof_N 	N 	0.1823	0.6823	0.0474	-0.069
Mof_O 	O 	0.2193	0.2193	0.634	-0.488
Mof_C 	C 	0.219	0.219	0.5266	0.098
Mof_N 	N 	0.1823	0.1823	0.5474	-0.069
Mof_O 	O 	0.7807	0.2807	0.134	-0.488
Mof_C 	C 	0.781	0.281	0.0266	0.098
Mof_N 	N 	0.8177	0.3177	0.0474	-0.069
Mof_O 	O 	0.7807	0.7807	0.634	-0.488
Mof_C 	C 	0.781	0.781	0.5266	0.098
Mof_N 	N 	0.8177	0.8177	0.5474	-0.069
Mof_O 	O 	0.2807	0.2807	0.634	-0.488
Mof_C 	C 	0.281	0.281	0.5266	0.098
Mof_N 	N 	0.3177	0.3177	0.5474	-0.069
Mof_O 	O 	0.2807	0.134	0.7807	-0.488
Mof_C 	C 	0.281	0.0266	0.781	0.098
Mof_N 	N 	0.3177	0.0474	0.8177	-0.069
Mof_O 	O 	0.2807	0.634	0.2807	-0.488
Mof_C 	C 	0.281	0.5266	0.281	0.098
Mof_N 	N 	0.3177	0.5474	0.3177	-0.069
Mof_O 	O 	0.7193	0.134	0.2193	-0.488
Mof_C 	C 	0.719	0.0266	0.219	0.098
Mof_N 	N 	0.6823	0.0474	0.1823	-0.069
Mof_O 	O 	0.7193	0.634	0.7193	-0.488
Mof_C 	C 	0.719	0.5266	0.719	0.098
Mof_N 	N 	0.6823	0.5474	0.6823	-0.069
Mof_O 	O 	0.2193	0.634	0.2193	-0.488
Mof_C 	C 	0.219	0.5266	0.219	0.098
Mof_N 	N 	0.1823	0.5474	0.1823	-0.069
Mof_O 	O 	0.7193	0.866	0.7807	-0.488
Mof_C 	C 	0.719	0.9734	0.781	0.098
Mof_N 	N 	0.6823	0.9526	0.8177	-0.069
Mof_O 	O 	0.7193	0.366	0.2807	-0.488
Mof_C 	C 	0.719	0.4734	0.281	0.098
Mof_N 	N 	0.6823	0.4526	0.3177	-0.069
Mof_O 	O 	0.2193	0.866	0.2807	-0.488
Mof_C 	C 	0.219	0.9734	0.281	0.098
Mof_N 	N 	0.1823	0.9526	0.3177	-0.069
Mof_O 	O 	0.2807	0.866	0.2193	-0.488
Mof_C 	C 	0.281	0.9734	0.219	0.098
Mof_N 	N 	0.3177	0.9526	0.1823	-0.069
Mof_O 	O 	0.2807	0.366	0.7193	-0.488
Mof_C 	C 	0.281	0.4734	0.719	0.098
Mof_N 	N 	0.3177	0.4526	0.6823	-0.069
Mof_O 	O 	0.134	0.2193	0.7193	-0.488
Mof_C 	C 	0.0266	0.219	0.719	0.098
Mof_N 	N 	0.0474	0.1823	0.6823	-0.069
Mof_O 	O 	0.634	0.2193	0.2193	-0.488
Mof_C 	C 	0.5266	0.219	0.219	0.098
Mof_N 	N 	0.5474	0.1823	0.1823	-0.069
Mof_O 	O 	0.134	0.7807	0.2807	-0.488
Mof_C 	C 	0.0266	0.781	0.281	0.098
Mof_N 	N 	0.0474	0.8177	0.3177	-0.069
Mof_O 	O 	0.634	0.7807	0.7807	-0.488
Mof_C 	C 	0.5266	0.781	0.781	0.098
Mof_N 	N 	0.5474	0.8177	0.8177	-0.069
Mof_O 	O 	0.634	0.2807	0.2807	-0.488
Mof_C 	C 	0.5266	0.281	0.281	0.098
Mof_N 	N 	0.5474	0.3177	0.3177	-0.069
Mof_O 	O 	0.866	0.2193	0.2807	-0.488
Mof_C 	C 	0.9734	0.219	0.281	0.098
Mof_N 	N 	0.9526	0.1823	0.3177	-0.069
Mof_O 	O 	0.366	0.2193	0.7807	-0.488
Mof_C 	C 	0.4734	0.219	0.781	0.098
Mof_N 	N 	0.4526	0.1823	0.8177	-0.069
Mof_O 	O 	0.866	0.7807	0.7193	-0.488
Mof_C 	C 	0.9734	0.781	0.719	0.098
Mof_N 	N 	0.9526	0.8177	0.6823	-0.069
Mof_O 	O 	0.866	0.2807	0.2193	-0.488
Mof_C 	C 	0.9734	0.281	0.219	0.098
Mof_N 	N 	0.9526	0.3177	0.1823	-0.069
Mof_O 	O 	0.366	0.7807	0.2193	-0.488
Mof_C 	C 	0.4734	0.781	0.219	0.098
Mof_N 	N 	0.4526	0.8177	0.1823	-0.069
Mof_O 	O 	0.7193	0.7807	0.866	-0.488
Mof_C 	C 	0.719	0.781	0.9734	0.098
Mof_N 	N 	0.6823	0.8177	0.9526	-0.069
Mof_O 	O 	0.7193	0.2807	0.366	-0.488
Mof_C 	C 	0.719	0.281	0.4734	0.098
Mof_N 	N 	0.6823	0.3177	0.4526	-0.069
Mof_O 	O 	0.2807	0.7193	0.366	-0.488
Mof_C 	C 	0.281	0.719	0.4734	0.098
Mof_N 	N 	0.3177	0.6823	0.4526	-0.069
Mof_O 	O 	0.2807	0.7807	0.134	-0.488
Mof_C 	C 	0.281	0.781	0.0266	0.098
Mof_N 	N 	0.3177	0.8177	0.0474	-0.069
Mof_O 	O 	0.7193	0.2193	0.134	-0.488
Mof_C 	C 	0.719	0.219	0.0266	0.098
Mof_N 	N 	0.6823	0.1823	0.0474	-0.069
Mof_O 	O 	0.7193	0.7193	0.634	-0.488
Mof_C 	C 	0.719	0.719	0.5266	0.098
Mof_N 	N 	0.6823	0.6823	0.5474	-0.069
Mof_O 	O 	0.866	0.7193	0.7807	-0.488
Mof_C 	C 	0.9734	0.719	0.781	0.098
Mof_N 	N 	0.9526	0.6823	0.8177	-0.069
Mof_O 	O 	0.366	0.7193	0.2807	-0.488
Mof_C 	C 	0.4734	0.719	0.281	0.098
Mof_N 	N 	0.4526	0.6823	0.3177	-0.069
Mof_O 	O 	0.366	0.2807	0.7193	-0.488
Mof_C 	C 	0.4734	0.281	0.719	0.098
Mof_N 	N 	0.4526	0.3177	0.6823	-0.069
Mof_O 	O 	0.134	0.2807	0.7807	-0.488
Mof_C 	C 	0.0266	0.281	0.781	0.098
Mof_N 	N 	0.0474	0.3177	0.8177	-0.069
Mof_O 	O 	0.134	0.7193	0.2193	-0.488
Mof_C 	C 	0.0266	0.719	0.219	0.098
Mof_N 	N 	0.0474	0.6823	0.1823	-0.069
Mof_O 	O 	0.634	0.7193	0.7193	-0.488
Mof_C 	C 	0.5266	0.719	0.719	0.098
Mof_N 	N 	0.5474	0.6823	0.6823	-0.069
Mof_O 	O 	0.7807	0.866	0.7193	-0.488
Mof_C 	C 	0.781	0.9734	0.719	0.098
Mof_N 	N 	0.8177	0.9526	0.6823	-0.069
Mof_O 	O 	0.7807	0.366	0.2193	-0.488
Mof_C 	C 	0.781	0.4734	0.219	0.098
Mof_N 	N 	0.8177	0.4526	0.1823	-0.069
Mof_O 	O 	0.2193	0.366	0.7807	-0.488
Mof_C 	C 	0.219	0.4734	0.781	0.098
Mof_N 	N 	0.1823	0.4526	0.8177	-0.069
Mof_O 	O 	0.7807	0.134	0.2807	-0.488
Mof_C 	C 	0.781	0.0266	0.281	0.098
Mof_N 	N 	0.8177	0.0474	0.3177	-0.069
Mof_O 	O 	0.7807	0.634	0.7807	-0.488
Mof_C 	C 	0.781	0.5266	0.781	0.098
Mof_N 	N 	0.8177	0.5474	0.8177	-0.069
Mof_O 	O 	0.2193	0.134	0.7193	-0.488
Mof_C 	C 	0.219	0.0266	0.719	0.098
Mof_N 	N 	0.1823	0.0474	0.6823	-0.069
Mof_O 	O 	0.7807	0.7193	0.134	-0.488
Mof_C 	C 	0.781	0.719	0.0266	0.098
Mof_N 	N 	0.8177	0.6823	0.0474	-0.069
Mof_O 	O 	0.7807	0.2193	0.634	-0.488
Mof_C 	C 	0.781	0.219	0.5266	0.098
Mof_N 	N 	0.8177	0.1823	0.5474	-0.069
Mof_O 	O 	0.2193	0.7807	0.634	-0.488
Mof_C 	C 	0.219	0.781	0.5266	0.098
Mof_N 	N 	0.1823	0.8177	0.5474	-0.069
Mof_O 	O 	0.7807	0.2807	0.866	-0.488
Mof_C 	C 	0.781	0.281	0.9734	0.098
Mof_N 	N 	0.8177	0.3177	0.9526	-0.069
Mof_O 	O 	0.7807	0.7807	0.366	-0.488
Mof_C 	C 	0.781	0.781	0.4734	0.098
Mof_N 	N 	0.8177	0.8177	0.4526	-0.069
Mof_O 	O 	0.2193	0.7193	0.866	-0.488
Mof_C 	C 	0.219	0.719	0.9734	0.098
Mof_N 	N 	0.1823	0.6823	0.9526	-0.069
Mof_O 	O 	0.7193	0.866	0.2193	-0.488
Mof_C 	C 	0.719	0.9734	0.219	0.098
Mof_N 	N 	0.6823	0.9526	0.1823	-0.069
Mof_O 	O 	0.7193	0.366	0.7193	-0.488
Mof_C 	C 	0.719	0.4734	0.719	0.098
Mof_N 	N 	0.6823	0.4526	0.6823	-0.069
Mof_O 	O 	0.2807	0.866	0.7807	-0.488
Mof_C 	C 	0.281	0.9734	0.781	0.098
Mof_N 	N 	0.3177	0.9526	0.8177	-0.069
Mof_O 	O 	0.2807	0.634	0.7193	-0.488
Mof_C 	C 	0.281	0.5266	0.719	0.098
Mof_N 	N 	0.3177	0.5474	0.6823	-0.069
Mof_O 	O 	0.7193	0.134	0.7807	-0.488
Mof_C 	C 	0.719	0.0266	0.781	0.098
Mof_N 	N 	0.6823	0.0474	0.8177	-0.069
Mof_O 	O 	0.7193	0.634	0.2807	-0.488
Mof_C 	C 	0.719	0.5266	0.281	0.098
Mof_N 	N 	0.6823	0.5474	0.3177	-0.069
Mof_O 	O 	0.866	0.7807	0.2807	-0.488
Mof_C 	C 	0.9734	0.781	0.281	0.098
Mof_N 	N 	0.9526	0.8177	0.3177	-0.069
Mof_O 	O 	0.366	0.7807	0.7807	-0.488
Mof_C 	C 	0.4734	0.781	0.781	0.098
Mof_N 	N 	0.4526	0.8177	0.8177	-0.069
Mof_O 	O 	0.866	0.2193	0.7193	-0.488
Mof_C 	C 	0.9734	0.219	0.719	0.098
Mof_N 	N 	0.9526	0.1823	0.6823	-0.069
Mof_O 	O 	0.134	0.7807	0.7193	-0.488
Mof_C 	C 	0.0266	0.781	0.719	0.098
Mof_N 	N 	0.0474	0.8177	0.6823	-0.069
Mof_O 	O 	0.634	0.7807	0.2193	-0.488
Mof_C 	C 	0.5266	0.781	0.219	0.098
Mof_N 	N 	0.5474	0.8177	0.1823	-0.069
Mof_O 	O 	0.634	0.2193	0.7807	-0.488
Mof_C 	C 	0.5266	0.219	0.781	0.098
Mof_N 	N 	0.5474	0.1823	0.8177	-0.069
Mof_O 	O 	0.25	0.25	0.25	-0.959
Mof_O 	O 	0.75	0.75	0.25	-0.959
Mof_O 	O 	0.75	0.25	0.75	-0.959
Mof_O 	O 	0.25	0.75	0.75	-0.959
Mof_O 	O 	0.25	0.25	0.75	-0.959
Mof_O 	O 	0.75	0.75	0.75	-0.959
Mof_O 	O 	0.75	0.25	0.25	-0.959
Mof_O 	O 	0.25	0.75	0.25	-0.959
Mof_C 	C 	0.25	0.25	0.1105	0.433
Mof_C 	C 	0.25	0.25	0.0557	-0.168
Mof_C 	C 	0.25	0.75	0.6105	0.433
Mof_C 	C 	0.25	0.75	0.5557	-0.168
Mof_C 	C 	0.75	0.75	0.1105	0.433
Mof_C 	C 	0.75	0.75	0.0557	-0.168
Mof_C 	C 	0.75	0.25	0.6105	0.433
Mof_C 	C 	0.75	0.25	0.5557	-0.168
Mof_C 	C 	0.75	0.25	0.8895	0.433
Mof_C 	C 	0.75	0.25	0.9443	-0.168
Mof_C 	C 	0.75	0.75	0.3895	0.433
Mof_C 	C 	0.75	0.75	0.4443	-0.168
Mof_C 	C 	0.25	0.25	0.3895	0.433
Mof_C 	C 	0.25	0.25	0.4443	-0.168
Mof_C 	C 	0.25	0.75	0.8895	0.433
Mof_C 	C 	0.25	0.75	0.9443	-0.168
Mof_C 	C 	0.1105	0.25	0.25	0.433
Mof_C 	C 	0.0557	0.25	0.25	-0.168
Mof_C 	C 	0.6105	0.25	0.75	0.433
Mof_C 	C 	0.5557	0.25	0.75	-0.168
Mof_C 	C 	0.1105	0.75	0.75	0.433
Mof_C 	C 	0.0557	0.75	0.75	-0.168
Mof_C 	C 	0.6105	0.75	0.25	0.433
Mof_C 	C 	0.5557	0.75	0.25	-0.168
Mof_C 	C 	0.8895	0.75	0.25	0.433
Mof_C 	C 	0.9443	0.75	0.25	-0.168
Mof_C 	C 	0.3895	0.75	0.75	0.433
Mof_C 	C 	0.4443	0.75	0.75	-0.168
Mof_C 	C 	0.3895	0.25	0.25	0.433
Mof_C 	C 	0.4443	0.25	0.25	-0.168
Mof_C 	C 	0.8895	0.25	0.75	0.433
Mof_C 	C 	0.9443	0.25	0.75	-0.168
Mof_C 	C 	0.25	0.1105	0.25	0.433
Mof_C 	C 	0.25	0.0557	0.25	-0.168
Mof_C 	C 	0.25	0.6105	0.75	0.433
Mof_C 	C 	0.25	0.5557	0.75	-0.168
Mof_C 	C 	0.75	0.1105	0.75	0.433
Mof_C 	C 	0.75	0.0557	0.75	-0.168
Mof_C 	C 	0.75	0.6105	0.25	0.433
Mof_C 	C 	0.75	0.5557	0.25	-0.168
Mof_C 	C 	0.25	0.8895	0.75	0.433
Mof_C 	C 	0.25	0.9443	0.75	-0.168
Mof_C 	C 	0.25	0.3895	0.25	0.433
Mof_C 	C 	0.25	0.4443	0.25	-0.168
Mof_C 	C 	0.75	0.8895	0.25	0.433
Mof_C 	C 	0.75	0.9443	0.25	-0.168
Mof_C 	C 	0.75	0.3895	0.75	0.433
Mof_C 	C 	0.75	0.4443	0.75	-0.168
Mof_C 	C 	0.25	0.25	0.8895	0.433
Mof_C 	C 	0.25	0.25	0.9443	-0.168
Mof_C 	C 	0.25	0.75	0.3895	0.433
Mof_C 	C 	0.25	0.75	0.4443	-0.168
Mof_C 	C 	0.75	0.75	0.8895	0.433
Mof_C 	C 	0.75	0.75	0.9443	-0.168
Mof_C 	C 	0.75	0.25	0.3895	0.433
Mof_C 	C 	0.75	0.25	0.4443	-0.168
Mof_C 	C 	0.25	0.75	0.1105	0.433
Mof_C 	C 	0.25	0.75	0.0557	-0.168
Mof_C 	C 	0.25	0.25	0.6105	0.433
Mof_C 	C 	0.25	0.25	0.5557	-0.168
Mof_C 	C 	0.75	0.25	0.1105	0.433
Mof_C 	C 	0.75	0.25	0.0557	-0.168
Mof_C 	C 	0.75	0.75	0.6105	0.433
Mof_C 	C 	0.75	0.75	0.5557	-0.168
Mof_C 	C 	0.25	0.1105	0.75	0.433
Mof_C 	C 	0.25	0.0557	0.75	-0.168
Mof_C 	C 	0.25	0.6105	0.25	0.433
Mof_C 	C 	0.25	0.5557	0.25	-0.168
Mof_C 	C 	0.75	0.1105	0.25	0.433
Mof_C 	C 	0.75	0.0557	0.25	-0.168
Mof_C 	C 	0.75	0.6105	0.75	0.433
Mof_C 	C 	0.75	0.5557	0.75	-0.168
Mof_C 	C 	0.75	0.8895	0.75	0.433
Mof_C 	C 	0.75	0.9443	0.75	-0.168
Mof_C 	C 	0.75	0.3895	0.25	0.433
Mof_C 	C 	0.75	0.4443	0.25	-0.168
Mof_C 	C 	0.25	0.8895	0.25	0.433
Mof_C 	C 	0.25	0.9443	0.25	-0.168
Mof_C 	C 	0.25	0.3895	0.75	0.433
Mof_C 	C 	0.25	0.4443	0.75	-0.168
Mof_C 	C 	0.1105	0.25	0.75	0.433
Mof_C 	C 	0.0557	0.25	0.75	-0.168
Mof_C 	C 	0.6105	0.25	0.25	0.433
Mof_C 	C 	0.5557	0.25	0.25	-0.168
Mof_C 	C 	0.1105	0.75	0.25	0.433
Mof_C 	C 	0.0557	0.75	0.25	-0.168
Mof_C 	C 	0.6105	0.75	0.75	0.433
Mof_C 	C 	0.5557	0.75	0.75	-0.168
Mof_C 	C 	0.8895	0.25	0.25	0.433
Mof_C 	C 	0.9443	0.25	0.25	-0.168
Mof_C 	C 	0.3895	0.25	0.75	0.433
Mof_C 	C 	0.4443	0.25	0.75	-0.168
Mof_C 	C 	0.8895	0.75	0.75	0.433
Mof_C 	C 	0.9443	0.75	0.75	-0.168
Mof_C 	C 	0.3895	0.75	0.25	0.433
Mof_C 	C 	0.4443	0.75	0.25	-0.168
_end
