data_functionalizedCrystal
_audit_creation_method	'EQeq! by Chris Wilmer'
_symmetry_space_group_name_H-M	'P1'
_symmetry_Int_Tables_number	1
_symmetry_cell_setting	triclinic
loop_
_symmetry_equiv_pos_as_xyz
  x,y,z
_cell_length_a	14.123
_cell_length_b	36.166
_cell_length_c	18.341
_cell_angle_alpha	90
_cell_angle_beta	99.38
_cell_angle_gamma	90
loop_
_atom_site_label
_atom_site_type_symbol
_atom_site_fract_x
_atom_site_fract_y
_atom_site_fract_z
_atom_site_charge
Mof_Zn	Zn	0.77763	0.57299	0.11491	1.211
Mof_C 	C 	0.3169	0.6366	0.0552	-0.086
Mof_H 	H 	0.3595	0.6169	0.0645	0.066
Mof_O 	O 	0.7521	0.44894	0.7063	-0.5
Mof_C 	C 	0.7915	0.4339	0.7613	0.441
Mof_C 	C 	0.875	0.4626	0.871	0.073
Mof_H 	H 	0.9316	0.4569	0.8538	0.014
Mof_C 	C 	0.4793	0.8451	0.948	0.334
Mof_N 	N 	0.6146	0.89449	0.9107	-0.334
Mof_C 	C 	0.7908	0.4514	0.8345	-0.176
Mof_O 	O 	0.8289	0.4045	0.7545	-0.375
Mof_O 	O 	0.7381	0.54025	0.0296	-0.444
Mof_C 	C 	0.8044	0.5167	0.0288	0.295
Mof_C 	C 	0.7967	0.4908	0.964	-0.023
Mof_C 	C 	0.7075	0.4762	0.9291	-0.024
Mof_C 	C 	0.6227	0.47943	0.9606	0.015
Mof_H 	H 	0.624	0.4918	0.0051	0.03
Mof_C 	C 	0.5378	0.4641	0.9249	-0.106
Mof_H 	H 	0.4822	0.4665	0.9455	0.07
Mof_C 	C 	0.5352	0.446	0.8617	0.047
Mof_H 	H 	0.4773	0.4362	0.8382	0.012
Mof_C 	C 	0.6173	0.4415	0.8298	-0.143
Mof_H 	H 	0.6142	0.4285	0.7857	0.086
Mof_C 	C 	0.7053	0.45664	0.8644	0.114
Mof_C 	C 	0.8765	0.4822	0.9339	-0.086
Mof_H 	H 	0.9357	0.4905	0.9583	0.083
Mof_O 	O 	0.8761	0.51606	0.0774	-0.327
Mof_N 	N 	0.6636	0.61048	0.0895	-0.272
Mof_C 	C 	0.6432	0.6339	0.1378	0.113
Mof_H 	H 	0.6796	0.6342	0.1848	-0.024
Mof_C 	C 	0.5649	0.6596	0.1197	-0.216
Mof_H 	H 	0.5508	0.6763	0.1549	0.099
Mof_C 	C 	0.5117	0.6593	0.0509	0.181
Mof_C 	C 	0.4319	0.6863	0.0319	-0.181
Mof_C 	C 	0.4569	0.7228	0.0171	0.108
Mof_C 	C 	0.5522	0.7349	0.0092	-0.11
Mof_H 	H 	0.6078	0.7207	0.0167	0.063
Mof_C 	C 	0.5452	0.7703	0.9891	-0.079
Mof_H 	H 	0.5951	0.7854	0.9796	0.059
Mof_C 	C 	0.4466	0.7809	0.985	0.137
Mof_C 	C 	0.411	0.8158	0.9655	-0.233
Mof_N 	N 	0.3949	0.75144	0.0022	-0.309
Mof_N 	N 	0.2586	0.69545	0.0255	-0.298
Mof_C 	C 	0.5333	0.6342	0.0002	-0.239
Mof_H 	H 	0.4982	0.633	0.9527	0.124
Mof_C 	C 	0.6102	0.6105	0.0232	0.099
Mof_H 	H 	0.6252	0.5934	0.9891	-0
Mof_C 	C 	0.5542	0.8779	0.8641	0.234
Mof_H 	H 	0.5563	0.8815	0.8141	-0.052
Mof_C 	C 	0.4835	0.8541	0.884	-0.385
Mof_H 	H 	0.4374	0.8447	0.8465	0.171
Mof_C 	C 	0.5426	0.8638	0.0016	-0.374
Mof_H 	H 	0.5396	0.8602	0.0514	0.153
Mof_C 	C 	0.2208	0.6358	0.0562	-0.09
Mof_H 	H 	0.1853	0.6154	0.0666	0.073
Mof_C 	C 	0.3399	0.6742	0.0367	0.105
Mof_C 	C 	0.3155	0.828	0.9617	0.127
Mof_C 	C 	0.6092	0.8874	0.9812	0.248
Mof_H 	H 	0.6523	0.899	0.0178	-0.083
Mof_Zn	Zn	0.72237	0.07299	0.38509	1.213
Mof_C 	C 	0.1831	0.1366	0.4448	-0.078
Mof_H 	H 	0.1405	0.1169	0.4355	0.065
Mof_O 	O 	0.7479	0.94894	0.7937	-0.496
Mof_C 	C 	0.7085	0.9339	0.7387	0.431
Mof_C 	C 	0.625	0.9626	0.629	0.042
Mof_H 	H 	0.5684	0.9569	0.6462	0.025
Mof_C 	C 	0.0207	0.3451	0.552	0.266
Mof_N 	N 	0.8854	0.39449	0.5893	-0.312
Mof_C 	C 	0.7092	0.9514	0.6655	-0.152
Mof_O 	O 	0.6711	0.9045	0.7455	-0.371
Mof_O 	O 	0.7619	0.04025	0.4704	-0.445
Mof_C 	C 	0.6956	0.0167	0.4712	0.32
Mof_C 	C 	0.7033	0.9908	0.536	-0.064
Mof_C 	C 	0.7925	0.9762	0.5709	0.017
Mof_C 	C 	0.8773	0.97943	0.5394	-0.053
Mof_H 	H 	0.876	0.9918	0.4949	0.063
Mof_C 	C 	0.9622	0.9641	0.5751	-0.054
Mof_H 	H 	0.0178	0.9665	0.5545	0.05
Mof_C 	C 	0.9648	0.946	0.6383	-0.001
Mof_H 	H 	0.0227	0.9362	0.6618	0.03
Mof_C 	C 	0.8827	0.9415	0.6702	-0.106
Mof_H 	H 	0.8858	0.9285	0.7143	0.073
Mof_C 	C 	0.7947	0.95664	0.6356	0.081
Mof_C 	C 	0.6235	0.9822	0.5661	-0.053
Mof_H 	H 	0.5643	0.9905	0.5417	0.067
Mof_O 	O 	0.6239	0.01606	0.4226	-0.329
Mof_N 	N 	0.8364	0.11048	0.4105	-0.273
Mof_C 	C 	0.8568	0.1339	0.3622	0.11
Mof_H 	H 	0.8204	0.1342	0.3152	-0.022
Mof_C 	C 	0.9351	0.1596	0.3803	-0.21
Mof_H 	H 	0.9492	0.1763	0.3451	0.097
Mof_C 	C 	0.9883	0.1593	0.4491	0.169
Mof_C 	C 	0.0681	0.1863	0.4681	-0.17
Mof_C 	C 	0.0431	0.2228	0.4829	0.102
Mof_C 	C 	0.9478	0.2349	0.4908	-0.082
Mof_H 	H 	0.8922	0.2207	0.4833	0.057
Mof_C 	C 	0.9548	0.2703	0.5109	-0.103
Mof_H 	H 	0.9049	0.2854	0.5204	0.063
Mof_C 	C 	0.0534	0.2809	0.515	0.124
Mof_C 	C 	0.089	0.3158	0.5345	-0.209
Mof_N 	N 	0.1051	0.25144	0.4978	-0.299
Mof_N 	N 	0.2414	0.19545	0.4745	-0.296
Mof_C 	C 	0.9667	0.1342	0.4998	-0.219
Mof_H 	H 	0.0018	0.133	0.5473	0.108
Mof_C 	C 	0.8898	0.1105	0.4768	0.115
Mof_H 	H 	0.8748	0.0934	0.5109	-0.016
Mof_C 	C 	0.9458	0.3779	0.6359	0.197
Mof_H 	H 	0.9437	0.3815	0.6859	-0.04
Mof_C 	C 	0.0165	0.3541	0.616	-0.326
Mof_H 	H 	0.0626	0.3447	0.6535	0.152
Mof_C 	C 	0.9574	0.3638	0.4984	-0.277
Mof_H 	H 	0.9604	0.3602	0.4486	0.123
Mof_C 	C 	0.2792	0.1358	0.4438	-0.097
Mof_H 	H 	0.3147	0.1154	0.4334	0.077
Mof_C 	C 	0.1601	0.1742	0.4633	0.102
Mof_C 	C 	0.1845	0.328	0.5383	0.115
Mof_C 	C 	0.8908	0.3874	0.5188	0.16
Mof_H 	H 	0.8477	0.399	0.4822	-0.043
Mof_Zn	Zn	0.72237	0.92701	0.88509	1.213
Mof_C 	C 	0.1831	0.8634	0.9448	-0.071
Mof_H 	H 	0.1405	0.8831	0.9355	0.064
Mof_O 	O 	0.7479	0.05106	0.2937	-0.494
Mof_C 	C 	0.7085	0.0661	0.2387	0.423
Mof_C 	C 	0.625	0.0374	0.129	0.013
Mof_H 	H 	0.5684	0.0431	0.1462	0.034
Mof_C 	C 	0.0207	0.6549	0.052	0.198
Mof_N 	N 	0.8854	0.60551	0.0893	-0.292
Mof_C 	C 	0.7092	0.0486	0.1655	-0.13
Mof_O 	O 	0.6711	0.0955	0.2455	-0.369
Mof_O 	O 	0.7619	0.95975	0.9704	-0.446
Mof_C 	C 	0.6956	0.9833	0.9712	0.343
Mof_C 	C 	0.7033	0.0092	0.036	-0.102
Mof_C 	C 	0.7925	0.0238	0.0709	0.057
Mof_C 	C 	0.8773	0.02057	0.0394	-0.121
Mof_H 	H 	0.876	0.0082	0.9949	0.096
Mof_C 	C 	0.9622	0.0359	0.0751	0.001
Mof_H 	H 	0.0178	0.0335	0.0545	0.028
Mof_C 	C 	0.9648	0.054	0.1383	-0.046
Mof_H 	H 	0.0227	0.0638	0.1618	0.046
Mof_C 	C 	0.8827	0.0585	0.1702	-0.07
Mof_H 	H 	0.8858	0.0715	0.2143	0.061
Mof_C 	C 	0.7947	0.04336	0.1356	0.049
Mof_C 	C 	0.6235	0.0178	0.0661	-0.022
Mof_H 	H 	0.5643	0.0095	0.0417	0.052
Mof_O 	O 	0.6239	0.98394	0.9226	-0.331
Mof_N 	N 	0.8364	0.88952	0.9105	-0.273
Mof_C 	C 	0.8568	0.8661	0.8622	0.107
Mof_H 	H 	0.8204	0.8658	0.8152	-0.021
Mof_C 	C 	0.9351	0.8404	0.8803	-0.203
Mof_H 	H 	0.9492	0.8237	0.8451	0.095
Mof_C 	C 	0.9883	0.8407	0.9491	0.157
Mof_C 	C 	0.0681	0.8137	0.9681	-0.159
Mof_C 	C 	0.0431	0.7772	0.9829	0.096
Mof_C 	C 	0.9478	0.7651	0.9908	-0.055
Mof_H 	H 	0.8922	0.7793	0.9833	0.05
Mof_C 	C 	0.9548	0.7297	0.0109	-0.123
Mof_H 	H 	0.9049	0.7146	0.0204	0.067
Mof_C 	C 	0.0534	0.7191	0.015	0.108
Mof_C 	C 	0.089	0.6842	0.0345	-0.184
Mof_N 	N 	0.1051	0.74856	0.9978	-0.286
Mof_N 	N 	0.2414	0.80455	0.9745	-0.294
Mof_C 	C 	0.9667	0.8658	0.9998	-0.194
Mof_H 	H 	0.0018	0.867	0.0473	0.088
Mof_C 	C 	0.8898	0.8895	0.9768	0.128
Mof_H 	H 	0.8748	0.9066	0.0109	-0.032
Mof_C 	C 	0.9458	0.6221	0.1359	0.164
Mof_H 	H 	0.9437	0.6185	0.1859	-0.029
Mof_C 	C 	0.0165	0.6459	0.116	-0.271
Mof_H 	H 	0.0626	0.6553	0.1535	0.133
Mof_C 	C 	0.9574	0.6362	0.9984	-0.179
Mof_H 	H 	0.9604	0.6398	0.9486	0.095
Mof_C 	C 	0.2792	0.8642	0.9438	-0.105
Mof_H 	H 	0.3147	0.8846	0.9334	0.081
Mof_C 	C 	0.1601	0.8258	0.9633	0.098
Mof_C 	C 	0.1845	0.672	0.0383	0.102
Mof_C 	C 	0.8908	0.6126	0.0188	0.074
Mof_H 	H 	0.8477	0.601	0.9822	-0.003
Mof_Zn	Zn	0.77763	0.42701	0.61491	1.213
Mof_C 	C 	0.3169	0.3634	0.5552	-0.078
Mof_H 	H 	0.3595	0.3831	0.5645	0.065
Mof_O 	O 	0.7521	0.55106	0.2063	-0.498
Mof_C 	C 	0.7915	0.5661	0.2613	0.432
Mof_C 	C 	0.875	0.5374	0.371	0.043
Mof_H 	H 	0.9316	0.5431	0.3538	0.023
Mof_C 	C 	0.4793	0.1549	0.448	0.265
Mof_N 	N 	0.6146	0.10551	0.4107	-0.313
Mof_C 	C 	0.7908	0.5486	0.3345	-0.153
Mof_O 	O 	0.8289	0.5955	0.2545	-0.373
Mof_O 	O 	0.7381	0.45975	0.5296	-0.445
Mof_C 	C 	0.8044	0.4833	0.5288	0.32
Mof_C 	C 	0.7967	0.5092	0.464	-0.063
Mof_C 	C 	0.7075	0.5238	0.4291	0.018
Mof_C 	C 	0.6227	0.52057	0.4606	-0.054
Mof_H 	H 	0.624	0.5082	0.5051	0.064
Mof_C 	C 	0.5378	0.5359	0.4249	-0.051
Mof_H 	H 	0.4822	0.5335	0.4455	0.047
Mof_C 	C 	0.5352	0.554	0.3617	0
Mof_H 	H 	0.4773	0.5638	0.3382	0.029
Mof_C 	C 	0.6173	0.5585	0.3298	-0.106
Mof_H 	H 	0.6142	0.5715	0.2857	0.073
Mof_C 	C 	0.7053	0.54336	0.3644	0.081
Mof_C 	C 	0.8765	0.5178	0.4339	-0.054
Mof_H 	H 	0.9357	0.5095	0.4583	0.067
Mof_O 	O 	0.8761	0.48394	0.5774	-0.329
Mof_N 	N 	0.6636	0.38952	0.5895	-0.272
Mof_C 	C 	0.6432	0.3661	0.6378	0.11
Mof_H 	H 	0.6796	0.3658	0.6848	-0.023
Mof_C 	C 	0.5649	0.3404	0.6197	-0.21
Mof_H 	H 	0.5508	0.3237	0.6549	0.098
Mof_C 	C 	0.5117	0.3407	0.5509	0.169
Mof_C 	C 	0.4319	0.3137	0.5319	-0.171
Mof_C 	C 	0.4569	0.2772	0.5171	0.101
Mof_C 	C 	0.5522	0.2651	0.5092	-0.081
Mof_H 	H 	0.6078	0.2793	0.5167	0.056
Mof_C 	C 	0.5452	0.2297	0.4891	-0.101
Mof_H 	H 	0.5951	0.2146	0.4796	0.063
Mof_C 	C 	0.4466	0.2191	0.485	0.122
Mof_C 	C 	0.411	0.1842	0.4655	-0.208
Mof_N 	N 	0.3949	0.24856	0.5022	-0.298
Mof_N 	N 	0.2586	0.30455	0.5255	-0.297
Mof_C 	C 	0.5333	0.3658	0.5002	-0.214
Mof_H 	H 	0.4982	0.367	0.4527	0.104
Mof_C 	C 	0.6102	0.3895	0.5232	0.113
Mof_H 	H 	0.6252	0.4066	0.4891	-0.016
Mof_C 	C 	0.5542	0.1221	0.3641	0.2
Mof_H 	H 	0.5563	0.1185	0.3141	-0.041
Mof_C 	C 	0.4835	0.1459	0.384	-0.328
Mof_H 	H 	0.4374	0.1553	0.3465	0.151
Mof_C 	C 	0.5426	0.1362	0.5016	-0.274
Mof_H 	H 	0.5396	0.1398	0.5514	0.124
Mof_C 	C 	0.2208	0.3642	0.5562	-0.098
Mof_H 	H 	0.1853	0.3846	0.5666	0.077
Mof_C 	C 	0.3399	0.3258	0.5367	0.101
Mof_C 	C 	0.3155	0.172	0.4617	0.115
Mof_C 	C 	0.6092	0.1126	0.4812	0.159
Mof_H 	H 	0.6523	0.101	0.5178	-0.042
Mof_Zn	Zn	0.25	0.75	-0	1.161
Mof_Zn	Zn	0.25	0.25	0.5	1.165
Mof_Zn	Zn	0.27763	0.07299	0.11491	1.212
Mof_C 	C 	0.8169	0.1366	0.0552	-0.085
Mof_H 	H 	0.8595	0.1169	0.0645	0.066
Mof_O 	O 	0.2521	0.94894	0.7063	-0.499
Mof_C 	C 	0.2915	0.9339	0.7613	0.441
Mof_C 	C 	0.375	0.9626	0.871	0.073
Mof_H 	H 	0.4316	0.9569	0.8538	0.014
Mof_C 	C 	0.9793	0.3451	0.948	0.332
Mof_N 	N 	0.1146	0.39449	0.9107	-0.334
Mof_C 	C 	0.2908	0.9514	0.8345	-0.176
Mof_O 	O 	0.3289	0.9045	0.7545	-0.374
Mof_O 	O 	0.2381	0.04025	0.0296	-0.444
Mof_C 	C 	0.3044	0.0167	0.0288	0.296
Mof_C 	C 	0.2967	0.9908	0.964	-0.023
Mof_C 	C 	0.2075	0.9762	0.9291	-0.024
Mof_C 	C 	0.1227	0.97943	0.9606	0.015
Mof_H 	H 	0.124	0.9918	0.0051	0.03
Mof_C 	C 	0.0378	0.9641	0.9249	-0.104
Mof_H 	H 	0.9822	0.9665	0.9455	0.067
Mof_C 	C 	0.0352	0.946	0.8617	0.05
Mof_H 	H 	0.9773	0.9362	0.8382	0.01
Mof_C 	C 	0.1173	0.9415	0.8298	-0.144
Mof_H 	H 	0.1142	0.9285	0.7857	0.087
Mof_C 	C 	0.2053	0.95664	0.8644	0.115
Mof_C 	C 	0.3765	0.9822	0.9339	-0.086
Mof_H 	H 	0.4357	0.9905	0.9583	0.083
Mof_O 	O 	0.3761	0.01606	0.0774	-0.326
Mof_N 	N 	0.1636	0.11048	0.0895	-0.271
Mof_C 	C 	0.1432	0.1339	0.1378	0.112
Mof_H 	H 	0.1796	0.1342	0.1848	-0.024
Mof_C 	C 	0.0649	0.1596	0.1197	-0.215
Mof_H 	H 	0.0508	0.1763	0.1549	0.099
Mof_C 	C 	0.0117	0.1593	0.0509	0.18
Mof_C 	C 	0.9319	0.1863	0.0319	-0.181
Mof_C 	C 	0.9569	0.2228	0.0171	0.107
Mof_C 	C 	0.0522	0.2349	0.0092	-0.11
Mof_H 	H 	0.1078	0.2207	0.0167	0.063
Mof_C 	C 	0.0452	0.2703	0.9891	-0.075
Mof_H 	H 	0.0951	0.2854	0.9796	0.058
Mof_C 	C 	0.9466	0.2809	0.985	0.134
Mof_C 	C 	0.911	0.3158	0.9655	-0.232
Mof_N 	N 	0.8949	0.25144	0.0022	-0.309
Mof_N 	N 	0.7586	0.19545	0.0255	-0.298
Mof_C 	C 	0.0333	0.1342	0.0002	-0.234
Mof_H 	H 	0.9982	0.133	0.9527	0.12
Mof_C 	C 	0.1102	0.1105	0.0232	0.097
Mof_H 	H 	0.1252	0.0934	0.9891	0.001
Mof_C 	C 	0.0542	0.3779	0.8641	0.237
Mof_H 	H 	0.0563	0.3815	0.8141	-0.052
Mof_C 	C 	0.9835	0.3541	0.884	-0.387
Mof_H 	H 	0.9374	0.3447	0.8465	0.171
Mof_C 	C 	0.0426	0.3638	0.0016	-0.372
Mof_H 	H 	0.0396	0.3602	0.0514	0.153
Mof_C 	C 	0.7208	0.1358	0.0562	-0.089
Mof_H 	H 	0.6853	0.1154	0.0666	0.073
Mof_C 	C 	0.8399	0.1742	0.0367	0.105
Mof_C 	C 	0.8155	0.328	0.9617	0.126
Mof_C 	C 	0.1092	0.3874	0.9812	0.248
Mof_H 	H 	0.1523	0.399	0.0178	-0.083
Mof_Zn	Zn	0.22237	0.57299	0.38509	1.213
Mof_C 	C 	0.6831	0.6366	0.4448	-0.078
Mof_H 	H 	0.6405	0.6169	0.4355	0.065
Mof_O 	O 	0.2479	0.44894	0.7937	-0.496
Mof_C 	C 	0.2085	0.4339	0.7387	0.431
Mof_C 	C 	0.125	0.4626	0.629	0.043
Mof_H 	H 	0.0684	0.4569	0.6462	0.025
Mof_C 	C 	0.5207	0.8451	0.552	0.264
Mof_N 	N 	0.3854	0.89449	0.5893	-0.313
Mof_C 	C 	0.2092	0.4514	0.6655	-0.152
Mof_O 	O 	0.1711	0.4045	0.7455	-0.371
Mof_O 	O 	0.2619	0.54025	0.4704	-0.445
Mof_C 	C 	0.1956	0.5167	0.4712	0.319
Mof_C 	C 	0.2033	0.4908	0.536	-0.063
Mof_C 	C 	0.2925	0.4762	0.5709	0.017
Mof_C 	C 	0.3773	0.47943	0.5394	-0.054
Mof_H 	H 	0.376	0.4918	0.4949	0.063
Mof_C 	C 	0.4622	0.4641	0.5751	-0.052
Mof_H 	H 	0.5178	0.4665	0.5545	0.048
Mof_C 	C 	0.4648	0.446	0.6383	0.002
Mof_H 	H 	0.5227	0.4362	0.6618	0.028
Mof_C 	C 	0.3827	0.4415	0.6702	-0.107
Mof_H 	H 	0.3858	0.4285	0.7143	0.074
Mof_C 	C 	0.2947	0.45664	0.6356	0.082
Mof_C 	C 	0.1235	0.4822	0.5661	-0.053
Mof_H 	H 	0.0643	0.4905	0.5417	0.068
Mof_O 	O 	0.1239	0.51606	0.4226	-0.329
Mof_N 	N 	0.3364	0.61048	0.4105	-0.272
Mof_C 	C 	0.3568	0.6339	0.3622	0.11
Mof_H 	H 	0.3204	0.6342	0.3152	-0.022
Mof_C 	C 	0.4351	0.6596	0.3803	-0.209
Mof_H 	H 	0.4492	0.6763	0.3451	0.097
Mof_C 	C 	0.4883	0.6593	0.4491	0.169
Mof_C 	C 	0.5681	0.6863	0.4681	-0.171
Mof_C 	C 	0.5431	0.7228	0.4829	0.101
Mof_C 	C 	0.4478	0.7349	0.4908	-0.081
Mof_H 	H 	0.3922	0.7207	0.4833	0.056
Mof_C 	C 	0.4548	0.7703	0.5109	-0.101
Mof_H 	H 	0.4049	0.7854	0.5204	0.063
Mof_C 	C 	0.5534	0.7809	0.515	0.121
Mof_C 	C 	0.589	0.8158	0.5345	-0.208
Mof_N 	N 	0.6051	0.75144	0.4978	-0.298
Mof_N 	N 	0.7414	0.69545	0.4745	-0.296
Mof_C 	C 	0.4667	0.6342	0.4998	-0.214
Mof_H 	H 	0.5018	0.633	0.5473	0.105
Mof_C 	C 	0.3898	0.6105	0.4768	0.113
Mof_H 	H 	0.3748	0.5934	0.5109	-0.015
Mof_C 	C 	0.4458	0.8779	0.6359	0.2
Mof_H 	H 	0.4437	0.8815	0.6859	-0.04
Mof_C 	C 	0.5165	0.8541	0.616	-0.328
Mof_H 	H 	0.5626	0.8447	0.6535	0.152
Mof_C 	C 	0.4574	0.8638	0.4984	-0.274
Mof_H 	H 	0.4604	0.8602	0.4486	0.123
Mof_C 	C 	0.7792	0.6358	0.4438	-0.097
Mof_H 	H 	0.8147	0.6154	0.4334	0.076
Mof_C 	C 	0.6601	0.6742	0.4633	0.102
Mof_C 	C 	0.6845	0.828	0.5383	0.114
Mof_C 	C 	0.3908	0.8874	0.5188	0.159
Mof_H 	H 	0.3477	0.899	0.4822	-0.042
Mof_Zn	Zn	0.22237	0.42701	0.88509	1.214
Mof_C 	C 	0.6831	0.3634	0.9448	-0.071
Mof_H 	H 	0.6405	0.3831	0.9355	0.064
Mof_O 	O 	0.2479	0.55106	0.2937	-0.494
Mof_C 	C 	0.2085	0.5661	0.2387	0.422
Mof_C 	C 	0.125	0.5374	0.129	0.012
Mof_H 	H 	0.0684	0.5431	0.1462	0.035
Mof_C 	C 	0.5207	0.1549	0.052	0.194
Mof_N 	N 	0.3854	0.10551	0.0893	-0.291
Mof_C 	C 	0.2092	0.5486	0.1655	-0.129
Mof_O 	O 	0.1711	0.5955	0.2455	-0.369
Mof_O 	O 	0.2619	0.45975	0.9704	-0.446
Mof_C 	C 	0.1956	0.4833	0.9712	0.344
Mof_C 	C 	0.2033	0.5092	0.036	-0.104
Mof_C 	C 	0.2925	0.5238	0.0709	0.059
Mof_C 	C 	0.3773	0.52057	0.0394	-0.124
Mof_H 	H 	0.376	0.5082	0.9949	0.098
Mof_C 	C 	0.4622	0.5359	0.0751	0.005
Mof_H 	H 	0.5178	0.5335	0.0545	0.025
Mof_C 	C 	0.4648	0.554	0.1383	-0.046
Mof_H 	H 	0.5227	0.5638	0.1618	0.045
Mof_C 	C 	0.3827	0.5585	0.1702	-0.07
Mof_H 	H 	0.3858	0.5715	0.2143	0.061
Mof_C 	C 	0.2947	0.54336	0.1356	0.048
Mof_C 	C 	0.1235	0.5178	0.0661	-0.02
Mof_H 	H 	0.0643	0.5095	0.0417	0.051
Mof_O 	O 	0.1239	0.48394	0.9226	-0.331
Mof_N 	N 	0.3364	0.38952	0.9105	-0.273
Mof_C 	C 	0.3568	0.3661	0.8622	0.107
Mof_H 	H 	0.3204	0.3658	0.8152	-0.021
Mof_C 	C 	0.4351	0.3404	0.8803	-0.203
Mof_H 	H 	0.4492	0.3237	0.8451	0.095
Mof_C 	C 	0.4883	0.3407	0.9491	0.158
Mof_C 	C 	0.5681	0.3137	0.9681	-0.16
Mof_C 	C 	0.5431	0.2772	0.9829	0.093
Mof_C 	C 	0.4478	0.2651	0.9908	-0.051
Mof_H 	H 	0.3922	0.2793	0.9833	0.05
Mof_C 	C 	0.4548	0.2297	0.0109	-0.123
Mof_H 	H 	0.4049	0.2146	0.0204	0.067
Mof_C 	C 	0.5534	0.2191	0.015	0.106
Mof_C 	C 	0.589	0.1842	0.0345	-0.183
Mof_N 	N 	0.6051	0.24856	0.9978	-0.286
Mof_N 	N 	0.7414	0.30455	0.9745	-0.294
Mof_C 	C 	0.4667	0.3658	0.9998	-0.19
Mof_H 	H 	0.5018	0.367	0.0473	0.086
Mof_C 	C 	0.3898	0.3895	0.9768	0.127
Mof_H 	H 	0.3748	0.4066	0.0109	-0.032
Mof_C 	C 	0.4458	0.1221	0.1359	0.165
Mof_H 	H 	0.4437	0.1185	0.1859	-0.029
Mof_C 	C 	0.5165	0.1459	0.116	-0.271
Mof_H 	H 	0.5626	0.1553	0.1535	0.132
Mof_C 	C 	0.4574	0.1362	0.9984	-0.174
Mof_H 	H 	0.4604	0.1398	0.9486	0.094
Mof_C 	C 	0.7792	0.3642	0.9438	-0.105
Mof_H 	H 	0.8147	0.3846	0.9334	0.08
Mof_C 	C 	0.6601	0.3258	0.9633	0.098
Mof_C 	C 	0.6845	0.172	0.0383	0.102
Mof_C 	C 	0.3908	0.1126	0.0188	0.07
Mof_H 	H 	0.3477	0.101	0.9822	-0.001
Mof_Zn	Zn	0.27763	0.92701	0.61491	1.213
Mof_C 	C 	0.8169	0.8634	0.5552	-0.078
Mof_H 	H 	0.8595	0.8831	0.5645	0.065
Mof_O 	O 	0.2521	0.05106	0.2063	-0.497
Mof_C 	C 	0.2915	0.0661	0.2613	0.432
Mof_C 	C 	0.375	0.0374	0.371	0.043
Mof_H 	H 	0.4316	0.0431	0.3538	0.024
Mof_C 	C 	0.9793	0.6549	0.448	0.263
Mof_N 	N 	0.1146	0.60551	0.4107	-0.313
Mof_C 	C 	0.2908	0.0486	0.3345	-0.153
Mof_O 	O 	0.3289	0.0955	0.2545	-0.373
Mof_O 	O 	0.2381	0.95975	0.5296	-0.445
Mof_C 	C 	0.3044	0.9833	0.5288	0.319
Mof_C 	C 	0.2967	0.0092	0.464	-0.062
Mof_C 	C 	0.2075	0.0238	0.4291	0.018
Mof_C 	C 	0.1227	0.02057	0.4606	-0.055
Mof_H 	H 	0.124	0.0082	0.5051	0.065
Mof_C 	C 	0.0378	0.0359	0.4249	-0.048
Mof_H 	H 	0.9822	0.0335	0.4455	0.046
Mof_C 	C 	0.0352	0.054	0.3617	0.003
Mof_H 	H 	0.9773	0.0638	0.3382	0.027
Mof_C 	C 	0.1173	0.0585	0.3298	-0.107
Mof_H 	H 	0.1142	0.0715	0.2857	0.074
Mof_C 	C 	0.2053	0.04336	0.3644	0.081
Mof_C 	C 	0.3765	0.0178	0.4339	-0.054
Mof_H 	H 	0.4357	0.0095	0.4583	0.068
Mof_O 	O 	0.3761	0.98394	0.5774	-0.328
Mof_N 	N 	0.1636	0.88952	0.5895	-0.272
Mof_C 	C 	0.1432	0.8661	0.6378	0.11
Mof_H 	H 	0.1796	0.8658	0.6848	-0.022
Mof_C 	C 	0.0649	0.8404	0.6197	-0.209
Mof_H 	H 	0.0508	0.8237	0.6549	0.098
Mof_C 	C 	0.0117	0.8407	0.5509	0.17
Mof_C 	C 	0.9319	0.8137	0.5319	-0.172
Mof_C 	C 	0.9569	0.7772	0.5171	0.099
Mof_C 	C 	0.0522	0.7651	0.5092	-0.079
Mof_H 	H 	0.1078	0.7793	0.5167	0.056
Mof_C 	C 	0.0452	0.7297	0.4891	-0.099
Mof_H 	H 	0.0951	0.7146	0.4796	0.063
Mof_C 	C 	0.9466	0.7191	0.485	0.119
Mof_C 	C 	0.911	0.6842	0.4655	-0.207
Mof_N 	N 	0.8949	0.74856	0.5022	-0.298
Mof_N 	N 	0.7586	0.80455	0.5255	-0.297
Mof_C 	C 	0.0333	0.8658	0.5002	-0.21
Mof_H 	H 	0.9982	0.867	0.4527	0.102
Mof_C 	C 	0.1102	0.8895	0.5232	0.111
Mof_H 	H 	0.1252	0.9066	0.4891	-0.015
Mof_C 	C 	0.0542	0.6221	0.3641	0.202
Mof_H 	H 	0.0563	0.6185	0.3141	-0.041
Mof_C 	C 	0.9835	0.6459	0.384	-0.33
Mof_H 	H 	0.9374	0.6553	0.3465	0.152
Mof_C 	C 	0.0426	0.6362	0.5016	-0.271
Mof_H 	H 	0.0396	0.6398	0.5514	0.124
Mof_C 	C 	0.7208	0.8642	0.5562	-0.097
Mof_H 	H 	0.6853	0.8846	0.5666	0.076
Mof_C 	C 	0.8399	0.8258	0.5367	0.101
Mof_C 	C 	0.8155	0.672	0.4617	0.114
Mof_C 	C 	0.1092	0.6126	0.4812	0.159
Mof_H 	H 	0.1523	0.601	0.5178	-0.041
Mof_Zn	Zn	0.75	0.75	0.5	1.165
Mof_Zn	Zn	0.75	0.25	-0	1.161
_end
