data_functionalizedCrystal
_audit_creation_method	'EQeq! by Chris Wilmer'
_symmetry_space_group_name_H-M	'P1'
_symmetry_Int_Tables_number	1
_symmetry_cell_setting	triclinic
loop_
_symmetry_equiv_pos_as_xyz
  x,y,z
_cell_length_a	15.3873
_cell_length_b	15.3873
_cell_length_c	9.8582
_cell_angle_alpha	90
_cell_angle_beta	90
_cell_angle_gamma	90
loop_
_atom_site_label
_atom_site_type_symbol
_atom_site_fract_x
_atom_site_fract_y
_atom_site_fract_z
_atom_site_charge
Mof_O 	O 	0.46912	0.62575	0.8761	-0.478
Mof_C 	C 	0.6156	0.7568	0.8799	0.31
Mof_H 	H 	0.5907	0.738	0.799	-0.049
Mof_C 	C 	0.6867	0.8063	0.8816	-0.28
Mof_H 	H 	0.7101	0.8257	0.8001	0.147
Mof_O 	O 	0.53088	0.37425	0.8761	-0.477
Mof_C 	C 	0.3844	0.2432	0.8799	0.311
Mof_H 	H 	0.4093	0.262	0.799	-0.048
Mof_C 	C 	0.3133	0.1937	0.8816	-0.279
Mof_H 	H 	0.2899	0.1743	0.8001	0.147
Mof_O 	O 	0.37425	0.46912	0.8761	-0.477
Mof_C 	C 	0.2432	0.6156	0.8799	0.311
Mof_H 	H 	0.262	0.5907	0.799	-0.048
Mof_C 	C 	0.1937	0.6867	0.8816	-0.279
Mof_H 	H 	0.1743	0.7101	0.8001	0.147
Mof_O 	O 	0.62575	0.53088	0.8761	-0.477
Mof_C 	C 	0.7568	0.3844	0.8799	0.311
Mof_H 	H 	0.738	0.4093	0.799	-0.048
Mof_C 	C 	0.8063	0.3133	0.8816	-0.279
Mof_H 	H 	0.8257	0.2899	0.8001	0.147
Mof_O 	O 	0.53088	0.62575	0.6239	-0.509
Mof_C 	C 	0.3844	0.7568	0.6201	0.277
Mof_H 	H 	0.4093	0.738	0.701	-0.037
Mof_C 	C 	0.3133	0.8063	0.6184	-0.332
Mof_H 	H 	0.2899	0.8257	0.6999	0.164
Mof_O 	O 	0.46912	0.37425	0.6239	-0.509
Mof_C 	C 	0.6156	0.2432	0.6201	0.277
Mof_H 	H 	0.5907	0.262	0.701	-0.037
Mof_C 	C 	0.6867	0.1937	0.6184	-0.332
Mof_H 	H 	0.7101	0.1743	0.6999	0.164
Mof_O 	O 	0.62575	0.46912	0.6239	-0.509
Mof_C 	C 	0.7568	0.6156	0.6201	0.277
Mof_H 	H 	0.738	0.5907	0.701	-0.037
Mof_C 	C 	0.8063	0.6867	0.6184	-0.332
Mof_H 	H 	0.8257	0.7101	0.6999	0.164
Mof_O 	O 	0.37425	0.53088	0.6239	-0.509
Mof_C 	C 	0.2432	0.3844	0.6201	0.277
Mof_H 	H 	0.262	0.4093	0.701	-0.037
Mof_C 	C 	0.1937	0.3133	0.6184	-0.332
Mof_H 	H 	0.1743	0.2899	0.6999	0.164
Mof_O 	O 	0.53088	0.37425	0.1239	-0.504
Mof_C 	C 	0.3844	0.2432	0.1201	0.278
Mof_H 	H 	0.4093	0.262	0.201	-0.042
Mof_C 	C 	0.3133	0.1937	0.1184	-0.316
Mof_H 	H 	0.2899	0.1743	0.1999	0.151
Mof_O 	O 	0.46912	0.62575	0.1239	-0.504
Mof_C 	C 	0.6156	0.7568	0.1201	0.278
Mof_H 	H 	0.5907	0.738	0.201	-0.042
Mof_C 	C 	0.6867	0.8063	0.1184	-0.316
Mof_H 	H 	0.7101	0.8257	0.1999	0.151
Mof_O 	O 	0.62575	0.53088	0.1239	-0.504
Mof_C 	C 	0.7568	0.3844	0.1201	0.278
Mof_H 	H 	0.738	0.4093	0.201	-0.042
Mof_C 	C 	0.8063	0.3133	0.1184	-0.316
Mof_H 	H 	0.8257	0.2899	0.1999	0.151
Mof_O 	O 	0.37425	0.46912	0.1239	-0.504
Mof_C 	C 	0.2432	0.6156	0.1201	0.278
Mof_H 	H 	0.262	0.5907	0.201	-0.042
Mof_C 	C 	0.1937	0.6867	0.1184	-0.316
Mof_H 	H 	0.1743	0.7101	0.1999	0.151
Mof_O 	O 	0.46912	0.37425	0.3761	-0.509
Mof_C 	C 	0.6156	0.2432	0.3799	0.275
Mof_H 	H 	0.5907	0.262	0.299	-0.042
Mof_C 	C 	0.6867	0.1937	0.3816	-0.332
Mof_H 	H 	0.7101	0.1743	0.3001	0.156
Mof_O 	O 	0.53088	0.62575	0.3761	-0.509
Mof_C 	C 	0.3844	0.7568	0.3799	0.275
Mof_H 	H 	0.4093	0.738	0.299	-0.042
Mof_C 	C 	0.3133	0.8063	0.3816	-0.332
Mof_H 	H 	0.2899	0.8257	0.3001	0.156
Mof_O 	O 	0.37425	0.53088	0.3761	-0.509
Mof_C 	C 	0.2432	0.3844	0.3799	0.275
Mof_H 	H 	0.262	0.4093	0.299	-0.042
Mof_C 	C 	0.1937	0.3133	0.3816	-0.332
Mof_H 	H 	0.1743	0.2899	0.3001	0.156
Mof_O 	O 	0.62575	0.46912	0.3761	-0.509
Mof_C 	C 	0.7568	0.6156	0.3799	0.275
Mof_H 	H 	0.738	0.5907	0.299	-0.042
Mof_C 	C 	0.8063	0.6867	0.3816	-0.332
Mof_H 	H 	0.8257	0.7101	0.3001	0.156
Mof_Gd	Gd	0.5	0.5	0.75	2.224
Mof_Gd	Gd	0.5	0.5	0.25	2.212
Mof_S 	S 	0.47478	0.6789	-0	0.721
Mof_N 	N 	0.968	0.8702	-0	-0.119
Mof_O 	O 	0.4148	0.7448	-0	-0.347
Mof_C 	C 	0.5819	0.7357	-0	-0.33
Mof_C 	C 	0.7256	0.8291	-0	0.204
Mof_C 	C 	0.8119	0.8803	-0	-0.142
Mof_C 	C 	0.8846	0.8343	-0	0.126
Mof_C 	C 	0.8942	0.7389	-0	-0.105
Mof_H 	H 	0.8492	0.6985	-0	0.089
Mof_C 	C 	0.9819	0.7204	-0	-0.08
Mof_H 	H 	0.0072	0.6655	-0	0.063
Mof_C 	C 	0.0257	0.8006	-0	0.113
Mof_S 	S 	0.52522	0.3211	-0	0.721
Mof_N 	N 	0.032	0.1298	-0	-0.119
Mof_O 	O 	0.5852	0.2552	-0	-0.347
Mof_C 	C 	0.4181	0.2643	-0	-0.33
Mof_C 	C 	0.2744	0.1709	-0	0.204
Mof_C 	C 	0.1881	0.1197	-0	-0.142
Mof_C 	C 	0.1154	0.1657	-0	0.126
Mof_C 	C 	0.1058	0.2611	-0	-0.105
Mof_H 	H 	0.1508	0.3015	-0	0.089
Mof_C 	C 	0.0181	0.2796	-0	-0.08
Mof_H 	H 	0.9928	0.3345	-0	0.063
Mof_C 	C 	0.9743	0.1994	-0	0.113
Mof_S 	S 	0.3211	0.47478	-0	0.721
Mof_N 	N 	0.1298	0.968	-0	-0.119
Mof_O 	O 	0.2552	0.4148	-0	-0.347
Mof_C 	C 	0.2643	0.5819	-0	-0.33
Mof_C 	C 	0.1709	0.7256	-0	0.204
Mof_C 	C 	0.1197	0.8119	-0	-0.142
Mof_C 	C 	0.1657	0.8846	-0	0.126
Mof_C 	C 	0.2611	0.8942	-0	-0.105
Mof_H 	H 	0.3015	0.8492	-0	0.089
Mof_C 	C 	0.2796	0.9819	-0	-0.08
Mof_H 	H 	0.3345	0.0072	-0	0.063
Mof_C 	C 	0.1994	0.0257	-0	0.113
Mof_S 	S 	0.6789	0.52522	-0	0.721
Mof_N 	N 	0.8702	0.032	-0	-0.119
Mof_O 	O 	0.7448	0.5852	-0	-0.347
Mof_C 	C 	0.7357	0.4181	-0	-0.33
Mof_C 	C 	0.8291	0.2744	-0	0.204
Mof_C 	C 	0.8803	0.1881	-0	-0.142
Mof_C 	C 	0.8343	0.1154	-0	0.126
Mof_C 	C 	0.7389	0.1058	-0	-0.105
Mof_H 	H 	0.6985	0.1508	-0	0.089
Mof_C 	C 	0.7204	0.0181	-0	-0.08
Mof_H 	H 	0.6655	0.9928	-0	0.063
Mof_C 	C 	0.8006	0.9743	-0	0.113
Mof_S 	S 	0.52522	0.6789	0.5	0.763
Mof_N 	N 	0.032	0.8702	0.5	-0.116
Mof_O 	O 	0.5852	0.7448	0.5	-0.343
Mof_C 	C 	0.4181	0.7357	0.5	-0.293
Mof_C 	C 	0.2744	0.8291	0.5	0.255
Mof_C 	C 	0.1881	0.8803	0.5	-0.15
Mof_C 	C 	0.1154	0.8343	0.5	0.138
Mof_C 	C 	0.1058	0.7389	0.5	-0.101
Mof_H 	H 	0.1508	0.6985	0.5	0.095
Mof_C 	C 	0.0181	0.7204	0.5	-0.078
Mof_H 	H 	0.9928	0.6655	0.5	0.071
Mof_C 	C 	0.9743	0.8006	0.5	0.126
Mof_S 	S 	0.47478	0.3211	0.5	0.763
Mof_N 	N 	0.968	0.1298	0.5	-0.116
Mof_O 	O 	0.4148	0.2552	0.5	-0.343
Mof_C 	C 	0.5819	0.2643	0.5	-0.293
Mof_C 	C 	0.7256	0.1709	0.5	0.255
Mof_C 	C 	0.8119	0.1197	0.5	-0.15
Mof_C 	C 	0.8846	0.1657	0.5	0.138
Mof_C 	C 	0.8942	0.2611	0.5	-0.101
Mof_H 	H 	0.8492	0.3015	0.5	0.095
Mof_C 	C 	0.9819	0.2796	0.5	-0.078
Mof_H 	H 	0.0072	0.3345	0.5	0.071
Mof_C 	C 	0.0257	0.1994	0.5	0.126
Mof_S 	S 	0.6789	0.47478	0.5	0.763
Mof_N 	N 	0.8702	0.968	0.5	-0.116
Mof_O 	O 	0.7448	0.4148	0.5	-0.343
Mof_C 	C 	0.7357	0.5819	0.5	-0.293
Mof_C 	C 	0.8291	0.7256	0.5	0.255
Mof_C 	C 	0.8803	0.8119	0.5	-0.15
Mof_C 	C 	0.8343	0.8846	0.5	0.138
Mof_C 	C 	0.7389	0.8942	0.5	-0.101
Mof_H 	H 	0.6985	0.8492	0.5	0.095
Mof_C 	C 	0.7204	0.9819	0.5	-0.078
Mof_H 	H 	0.6655	0.0072	0.5	0.071
Mof_C 	C 	0.8006	0.0257	0.5	0.126
Mof_S 	S 	0.3211	0.52522	0.5	0.763
Mof_N 	N 	0.1298	0.032	0.5	-0.116
Mof_O 	O 	0.2552	0.5852	0.5	-0.343
Mof_C 	C 	0.2643	0.4181	0.5	-0.293
Mof_C 	C 	0.1709	0.2744	0.5	0.255
Mof_C 	C 	0.1197	0.1881	0.5	-0.15
Mof_C 	C 	0.1657	0.1154	0.5	0.138
Mof_C 	C 	0.2611	0.1058	0.5	-0.101
Mof_H 	H 	0.3015	0.1508	0.5	0.095
Mof_C 	C 	0.2796	0.0181	0.5	-0.078
Mof_H 	H 	0.3345	0.9928	0.5	0.071
Mof_C 	C 	0.1994	0.9743	0.5	0.126
_end
