# CIF file generated by openbabel 3.1.0, see https://openbabel.org
data_I
_chemical_name_common 'image0'
_cell_length_a 8.953
_cell_length_b 8.953
_cell_length_c 21.929
_cell_angle_alpha 90
_cell_angle_beta 90
_cell_angle_gamma 120
_space_group_name_H-M_alt 'P 1'
_space_group_name_Hall 'P 1'
loop_
    _symmetry_equiv_pos_as_xyz
    x,y,z
loop_
    _atom_site_label
    _atom_site_type_symbol
    _atom_site_fract_x
    _atom_site_fract_y
    _atom_site_fract_z
    _atom_site_occupancy
    Cd1      Cd       0.00000    0.00000    0.37498    1.000
    C1       C        0.00000    0.00000    0.47610    1.000
    N1       N        0.00000    0.00000    0.52390    1.000
    Cd2      Cd       0.66667    0.33333    0.70831    1.000
    C2       C        0.66667    0.33333    0.80943    1.000
    N2       N        0.66667    0.33333    0.85723    1.000
    Cd3      Cd       0.33333    0.66667    0.04165    1.000
    C3       C        0.33333    0.66667    0.14277    1.000
    N3       N        0.33333    0.66667    0.19057    1.000
    Cd4      Cd       0.00000    0.00000    0.62502    1.000
    Cd5      Cd       0.66667    0.33333    0.95835    1.000
    Cd6      Cd       0.33333    0.66667    0.29169    1.000
    C4       C        0.13380    0.86620    0.34110    1.000
    C5       C        0.80047    0.19953    0.67443    1.000
    C6       C        0.46713    0.53287    0.00777    1.000
    C7       C        0.13380    0.26760    0.34110    1.000
    C8       C        0.80047    0.60093    0.67443    1.000
    C9       C        0.46713    0.93427    0.00777    1.000
    C10      C        0.73240    0.86620    0.34110    1.000
    C11      C        0.39907    0.19953    0.67443    1.000
    C12      C        0.06573    0.53287    0.00777    1.000
    C13      C        0.86620    0.13380    0.65890    1.000
    C14      C        0.53287    0.46713    0.99223    1.000
    C15      C        0.19953    0.80047    0.32557    1.000
    C16      C        0.26760    0.13380    0.65890    1.000
    C17      C        0.93427    0.46713    0.99223    1.000
    C18      C        0.60093    0.80047    0.32557    1.000
    C19      C        0.86620    0.73240    0.65890    1.000
    C20      C        0.53287    0.06573    0.99223    1.000
    C21      C        0.19953    0.39907    0.32557    1.000
