# CIF file generated by openbabel 3.1.0, see https://openbabel.org
data_I
_chemical_name_common 'image0'
_cell_length_a 11.507
_cell_length_b 20.988
_cell_length_c 8.821
_cell_angle_alpha 90
_cell_angle_beta 102.307
_cell_angle_gamma 90
_space_group_name_H-M_alt 'P 1'
_space_group_name_Hall 'P 1'
loop_
    _symmetry_equiv_pos_as_xyz
    x,y,z
loop_
    _atom_site_label
    _atom_site_type_symbol
    _atom_site_fract_x
    _atom_site_fract_y
    _atom_site_fract_z
    _atom_site_occupancy
    La1      La       0.16799    0.26218    0.11443    1.000
    O1       O        0.05530    0.21901    0.85870    1.000
    O2       O        0.94780    0.20690    0.62220    1.000
    O3       O        0.38280    0.19970    0.60760    1.000
    O4       O        0.29090    0.23452    0.37890    1.000
    O5       O        0.10420    0.35419    0.93330    1.000
    O6       O        0.06810    0.33934    0.67760    1.000
    N1       N        0.74290    0.18700    0.72100    1.000
    N2       N        0.59410    0.18490    0.52750    1.000
    N3       N        0.00070    0.47120    0.89980    1.000
    C1       C        0.95700    0.21090    0.76400    1.000
    C2       C        0.84700    0.20840    0.83310    1.000
    H1       H        0.83150    0.25130    0.87090    1.000
    H2       H        0.86170    0.17910    0.92310    1.000
    C3       C        0.71180    0.12380    0.69500    1.000
    H3       H        0.74890    0.08800    0.75120    1.000
    C4       C        0.61800    0.12320    0.57360    1.000
    H4       H        0.57610    0.08650    0.52840    1.000
    C5       C        0.67100    0.22140    0.61890    1.000
    H5       H        0.67390    0.26650    0.61180    1.000
    C6       C        0.49370    0.20660    0.40770    1.000
    H6       H        0.51370    0.24810    0.36630    1.000
    H7       H        0.47910    0.17550    0.32120    1.000
    C7       C        0.38220    0.21360    0.47100    1.000
    C8       C        0.06510    0.36990    0.79840    1.000
    C9       C        0.01260    0.43620    0.76990    1.000
    H8       H        0.93290    0.43230    0.70080    1.000
    H9       H        0.06290    0.46100    0.71320    1.000
    C10      C        0.10100    0.51120    0.91100    1.000
    C11      C        0.88900    0.45650    0.95800    1.000
    C12      C        0.04300    0.51480    0.99300    1.000
    La2      La       0.83201    0.76218    0.38557    1.000
    O7       O        0.94470    0.71901    0.64130    1.000
    O8       O        0.05220    0.70690    0.87780    1.000
    O9       O        0.61720    0.69970    0.89240    1.000
    O10      O        0.70910    0.73452    0.12110    1.000
    O11      O        0.89580    0.85419    0.56670    1.000
    O12      O        0.93190    0.83934    0.82240    1.000
    N4       N        0.25710    0.68700    0.77900    1.000
    N5       N        0.40590    0.68490    0.97250    1.000
    N6       N        0.99930    0.97120    0.60020    1.000
    C13      C        0.04300    0.71090    0.73600    1.000
    C14      C        0.15300    0.70840    0.66690    1.000
    H10      H        0.16850    0.75130    0.62910    1.000
    H11      H        0.13830    0.67910    0.57690    1.000
    C15      C        0.28820    0.62380    0.80500    1.000
    H12      H        0.25110    0.58800    0.74880    1.000
    C16      C        0.38200    0.62320    0.92640    1.000
    H13      H        0.42390    0.58650    0.97160    1.000
    C17      C        0.32900    0.72140    0.88110    1.000
    H14      H        0.32610    0.76650    0.88820    1.000
    C18      C        0.50630    0.70660    0.09230    1.000
    H15      H        0.48630    0.74810    0.13370    1.000
    H16      H        0.52090    0.67550    0.17880    1.000
    C19      C        0.61780    0.71360    0.02900    1.000
    C20      C        0.93490    0.86990    0.70160    1.000
    C21      C        0.98740    0.93620    0.73010    1.000
    H17      H        0.06710    0.93230    0.79920    1.000
    H18      H        0.93710    0.96100    0.78680    1.000
    C22      C        0.89900    0.01120    0.58900    1.000
    C23      C        0.11100    0.95650    0.54200    1.000
    C24      C        0.95700    0.01480    0.50700    1.000
    La3      La       0.83201    0.73782    0.88557    1.000
    O13      O        0.94470    0.78099    0.14130    1.000
    O14      O        0.05220    0.79310    0.37780    1.000
    O15      O        0.61720    0.80030    0.39240    1.000
    O16      O        0.70910    0.76548    0.62110    1.000
    O17      O        0.89580    0.64581    0.06670    1.000
    O18      O        0.93190    0.66066    0.32240    1.000
    N7       N        0.25710    0.81300    0.27900    1.000
    N8       N        0.40590    0.81510    0.47250    1.000
    N9       N        0.99930    0.52880    0.10020    1.000
    C25      C        0.04300    0.78910    0.23600    1.000
    C26      C        0.15300    0.79160    0.16690    1.000
    H19      H        0.16850    0.74870    0.12910    1.000
    H20      H        0.13830    0.82090    0.07690    1.000
    C27      C        0.28820    0.87620    0.30500    1.000
    H21      H        0.25110    0.91200    0.24880    1.000
    C28      C        0.38200    0.87680    0.42640    1.000
    H22      H        0.42390    0.91350    0.47160    1.000
    C29      C        0.32900    0.77860    0.38110    1.000
    H23      H        0.32610    0.73350    0.38820    1.000
    C30      C        0.50630    0.79340    0.59230    1.000
    H24      H        0.48630    0.75190    0.63370    1.000
    H25      H        0.52090    0.82450    0.67880    1.000
    C31      C        0.61780    0.78640    0.52900    1.000
    C32      C        0.93490    0.63010    0.20160    1.000
    C33      C        0.98740    0.56380    0.23010    1.000
    H26      H        0.06710    0.56770    0.29920    1.000
    H27      H        0.93710    0.53900    0.28680    1.000
    C34      C        0.89900    0.48880    0.08900    1.000
    C35      C        0.11100    0.54350    0.04200    1.000
    C36      C        0.95700    0.48520    0.00700    1.000
    La4      La       0.16799    0.23782    0.61443    1.000
    O19      O        0.05530    0.28099    0.35870    1.000
    O20      O        0.94780    0.29310    0.12220    1.000
    O21      O        0.38280    0.30030    0.10760    1.000
    O22      O        0.29090    0.26548    0.87890    1.000
    O23      O        0.10420    0.14581    0.43330    1.000
    O24      O        0.06810    0.16066    0.17760    1.000
    N10      N        0.74290    0.31300    0.22100    1.000
    N11      N        0.59410    0.31510    0.02750    1.000
    N12      N        0.00070    0.02880    0.39980    1.000
    C37      C        0.95700    0.28910    0.26400    1.000
    C38      C        0.84700    0.29160    0.33310    1.000
    H28      H        0.83150    0.24870    0.37090    1.000
    H29      H        0.86170    0.32090    0.42310    1.000
    C39      C        0.71180    0.37620    0.19500    1.000
    H30      H        0.74890    0.41200    0.25120    1.000
    C40      C        0.61800    0.37680    0.07360    1.000
    H31      H        0.57610    0.41350    0.02840    1.000
    C41      C        0.67100    0.27860    0.11890    1.000
    H32      H        0.67390    0.23350    0.11180    1.000
    C42      C        0.49370    0.29340    0.90770    1.000
    H33      H        0.51370    0.25190    0.86630    1.000
    H34      H        0.47910    0.32450    0.82120    1.000
    C43      C        0.38220    0.28640    0.97100    1.000
    C44      C        0.06510    0.13010    0.29840    1.000
    C45      C        0.01260    0.06380    0.26990    1.000
    H35      H        0.93290    0.06770    0.20080    1.000
    H36      H        0.06290    0.03900    0.21320    1.000
    C46      C        0.10100    0.98880    0.41100    1.000
    C47      C        0.88900    0.04350    0.45800    1.000
    C48      C        0.04300    0.98520    0.49300    1.000
