data_functionalizedCrystal
_audit_creation_method	'EQeq! by Chris Wilmer'
_symmetry_space_group_name_H-M	'P1'
_symmetry_Int_Tables_number	1
_symmetry_cell_setting	triclinic
loop_
_symmetry_equiv_pos_as_xyz
  x,y,z
_cell_length_a	21.7633
_cell_length_b	14.1958
_cell_length_c	22.9649
_cell_angle_alpha	90
_cell_angle_beta	90.182
_cell_angle_gamma	90
loop_
_atom_site_label
_atom_site_type_symbol
_atom_site_fract_x
_atom_site_fract_y
_atom_site_fract_z
_atom_site_charge
Mof_C 	C 	0.8103	0.062	0.8415	0.278
Mof_C 	C 	0.8463	0.1391	0.8092	0.273
Mof_C 	C 	0.6832	0.3081	0.793	0.26
Mof_C 	C 	0.7129	0.3963	0.8233	0.263
Mof_C 	C 	0.7852	0.2589	0.0048	0.264
Mof_C 	C 	0.0035	0.9531	0.7837	0.266
Mof_O 	O 	0.77503	0.0888	0.88041	-0.412
Mof_O 	O 	0.83761	0.2227	0.82443	-0.424
Mof_O 	O 	0.81841	0.9787	0.82621	-0.449
Mof_O 	O 	0.88041	0.1106	0.76979	-0.43
Mof_O 	O 	0.70116	0.2289	0.81128	-0.392
Mof_O 	O 	0.75291	0.3804	0.86276	-0.413
Mof_O 	O 	0.64409	0.3233	0.75277	-0.425
Mof_O 	O 	0.69437	0.4752	0.80524	-0.41
Mof_O 	O 	0.81659	0.2606	0.9601	-0.415
Mof_O 	O 	0.80456	0.27	0.05662	-0.424
Mof_O 	O 	0.9549	0.949	0.81134	-0.424
Mof_O 	O 	0.058	0.9591	0.80469	-0.448
Mof_Cr	Cr	0.87681	0.96465	0.7579	1.782
Mof_Cr	Cr	0.76524	0.23741	0.88278	1.697
Mof_Mn	Mn	0.23476	0.23741	0.61722	1.036
Mof_C 	C 	0.3103	0.562	0.8415	0.277
Mof_C 	C 	0.3463	0.6391	0.8092	0.273
Mof_C 	C 	0.1832	0.8081	0.793	0.26
Mof_C 	C 	0.2129	0.8963	0.8233	0.263
Mof_C 	C 	0.2852	0.7589	0.0048	0.265
Mof_C 	C 	0.5035	0.4531	0.7837	0.267
Mof_O 	O 	0.27503	0.5888	0.88041	-0.412
Mof_O 	O 	0.33761	0.7227	0.82443	-0.424
Mof_O 	O 	0.31841	0.4787	0.82621	-0.449
Mof_O 	O 	0.38041	0.6106	0.76979	-0.43
Mof_O 	O 	0.20116	0.7289	0.81128	-0.392
Mof_O 	O 	0.25291	0.8804	0.86276	-0.413
Mof_O 	O 	0.14409	0.8233	0.75277	-0.425
Mof_O 	O 	0.19437	0.9752	0.80524	-0.41
Mof_O 	O 	0.31659	0.7606	0.9601	-0.416
Mof_O 	O 	0.30456	0.77	0.05662	-0.425
Mof_O 	O 	0.4549	0.449	0.81134	-0.424
Mof_O 	O 	0.558	0.4591	0.80469	-0.448
Mof_Cr	Cr	0.37681	0.46465	0.7579	1.782
Mof_Cr	Cr	0.26524	0.73741	0.88278	1.697
Mof_Mn	Mn	0.73476	0.73741	0.61722	1.036
Mof_C 	C 	0.1897	0.062	0.6585	0.268
Mof_C 	C 	0.1537	0.1391	0.6908	0.264
Mof_C 	C 	0.3168	0.3081	0.707	0.252
Mof_C 	C 	0.2871	0.3963	0.6767	0.253
Mof_C 	C 	0.2148	0.2589	0.4952	0.247
Mof_C 	C 	0.9965	0.9531	0.7163	0.266
Mof_O 	O 	0.22497	0.0888	0.61959	-0.304
Mof_O 	O 	0.16239	0.2227	0.67557	-0.312
Mof_O 	O 	0.18159	0.9787	0.67379	-0.445
Mof_O 	O 	0.11959	0.1106	0.73021	-0.426
Mof_O 	O 	0.29884	0.2289	0.68872	-0.294
Mof_O 	O 	0.24709	0.3804	0.63724	-0.301
Mof_O 	O 	0.35591	0.3233	0.74723	-0.422
Mof_O 	O 	0.30563	0.4752	0.69476	-0.406
Mof_O 	O 	0.18341	0.2606	0.5399	-0.303
Mof_O 	O 	0.19544	0.27	0.44338	-0.306
Mof_O 	O 	0.0451	0.949	0.68866	-0.421
Mof_O 	O 	0.942	0.9591	0.69531	-0.444
Mof_Cr	Cr	0.12319	0.96465	0.7421	1.782
Mof_C 	C 	0.6897	0.562	0.6585	0.268
Mof_C 	C 	0.6537	0.6391	0.6908	0.264
Mof_C 	C 	0.8168	0.8081	0.707	0.252
Mof_C 	C 	0.7871	0.8963	0.6767	0.253
Mof_C 	C 	0.7148	0.7589	0.4952	0.247
Mof_C 	C 	0.4965	0.4531	0.7163	0.265
Mof_O 	O 	0.72497	0.5888	0.61959	-0.304
Mof_O 	O 	0.66239	0.7227	0.67557	-0.312
Mof_O 	O 	0.68159	0.4787	0.67379	-0.445
Mof_O 	O 	0.61959	0.6106	0.73021	-0.426
Mof_O 	O 	0.79884	0.7289	0.68872	-0.294
Mof_O 	O 	0.74709	0.8804	0.63724	-0.301
Mof_O 	O 	0.85591	0.8233	0.74723	-0.422
Mof_O 	O 	0.80563	0.9752	0.69476	-0.406
Mof_O 	O 	0.68341	0.7606	0.5399	-0.303
Mof_O 	O 	0.69544	0.77	0.44338	-0.306
Mof_O 	O 	0.5451	0.449	0.68866	-0.421
Mof_O 	O 	0.442	0.4591	0.69531	-0.444
Mof_Cr	Cr	0.62319	0.46465	0.7421	1.782
Mof_C 	C 	0.1897	0.938	0.1585	0.278
Mof_C 	C 	0.1537	0.8609	0.1908	0.273
Mof_C 	C 	0.3168	0.6919	0.207	0.26
Mof_C 	C 	0.2871	0.6037	0.1767	0.263
Mof_C 	C 	0.2148	0.7411	0.9952	0.264
Mof_C 	C 	0.9965	0.0469	0.2163	0.266
Mof_O 	O 	0.22497	0.9112	0.11959	-0.412
Mof_O 	O 	0.16239	0.7773	0.17557	-0.424
Mof_O 	O 	0.18159	0.0213	0.17379	-0.449
Mof_O 	O 	0.11959	0.8894	0.23021	-0.43
Mof_O 	O 	0.29884	0.7711	0.18872	-0.392
Mof_O 	O 	0.24709	0.6196	0.13724	-0.413
Mof_O 	O 	0.35591	0.6767	0.24723	-0.425
Mof_O 	O 	0.30563	0.5248	0.19476	-0.41
Mof_O 	O 	0.18341	0.7394	0.0399	-0.415
Mof_O 	O 	0.19544	0.73	0.94338	-0.424
Mof_O 	O 	0.0451	0.051	0.18866	-0.424
Mof_O 	O 	0.942	0.0409	0.19531	-0.448
Mof_Cr	Cr	0.12319	0.03535	0.2421	1.782
Mof_Cr	Cr	0.23476	0.76259	0.11722	1.697
Mof_Mn	Mn	0.76524	0.76259	0.38278	1.036
Mof_C 	C 	0.6897	0.438	0.1585	0.277
Mof_C 	C 	0.6537	0.3609	0.1908	0.273
Mof_C 	C 	0.8168	0.1919	0.207	0.26
Mof_C 	C 	0.7871	0.1037	0.1767	0.263
Mof_C 	C 	0.7148	0.2411	0.9952	0.265
Mof_C 	C 	0.4965	0.5469	0.2163	0.267
Mof_O 	O 	0.72497	0.4112	0.11959	-0.412
Mof_O 	O 	0.66239	0.2773	0.17557	-0.424
Mof_O 	O 	0.68159	0.5213	0.17379	-0.449
Mof_O 	O 	0.61959	0.3894	0.23021	-0.43
Mof_O 	O 	0.79884	0.2711	0.18872	-0.392
Mof_O 	O 	0.74709	0.1196	0.13724	-0.413
Mof_O 	O 	0.85591	0.1767	0.24723	-0.425
Mof_O 	O 	0.80563	0.0248	0.19476	-0.41
Mof_O 	O 	0.68341	0.2394	0.0399	-0.416
Mof_O 	O 	0.69544	0.23	0.94338	-0.425
Mof_O 	O 	0.5451	0.551	0.18866	-0.424
Mof_O 	O 	0.442	0.5409	0.19531	-0.448
Mof_Cr	Cr	0.62319	0.53535	0.2421	1.782
Mof_Cr	Cr	0.73476	0.26259	0.11722	1.697
Mof_Mn	Mn	0.26524	0.26259	0.38278	1.036
Mof_C 	C 	0.8103	0.938	0.3415	0.268
Mof_C 	C 	0.8463	0.8609	0.3092	0.264
Mof_C 	C 	0.6832	0.6919	0.293	0.252
Mof_C 	C 	0.7129	0.6037	0.3233	0.253
Mof_C 	C 	0.7852	0.7411	0.5048	0.247
Mof_C 	C 	0.0035	0.0469	0.2837	0.266
Mof_O 	O 	0.77503	0.9112	0.38041	-0.304
Mof_O 	O 	0.83761	0.7773	0.32443	-0.312
Mof_O 	O 	0.81841	0.0213	0.32621	-0.445
Mof_O 	O 	0.88041	0.8894	0.26979	-0.426
Mof_O 	O 	0.70116	0.7711	0.31128	-0.294
Mof_O 	O 	0.75291	0.6196	0.36276	-0.301
Mof_O 	O 	0.64409	0.6767	0.25277	-0.422
Mof_O 	O 	0.69437	0.5248	0.30524	-0.406
Mof_O 	O 	0.81659	0.7394	0.4601	-0.303
Mof_O 	O 	0.80456	0.73	0.55662	-0.306
Mof_O 	O 	0.9549	0.051	0.31134	-0.421
Mof_O 	O 	0.058	0.0409	0.30469	-0.444
Mof_Cr	Cr	0.87681	0.03535	0.2579	1.782
Mof_C 	C 	0.3103	0.438	0.3415	0.268
Mof_C 	C 	0.3463	0.3609	0.3092	0.264
Mof_C 	C 	0.1832	0.1919	0.293	0.252
Mof_C 	C 	0.2129	0.1037	0.3233	0.253
Mof_C 	C 	0.2852	0.2411	0.5048	0.247
Mof_C 	C 	0.5035	0.5469	0.2837	0.265
Mof_O 	O 	0.27503	0.4112	0.38041	-0.304
Mof_O 	O 	0.33761	0.2773	0.32443	-0.312
Mof_O 	O 	0.31841	0.5213	0.32621	-0.445
Mof_O 	O 	0.38041	0.3894	0.26979	-0.426
Mof_O 	O 	0.20116	0.2711	0.31128	-0.294
Mof_O 	O 	0.25291	0.1196	0.36276	-0.301
Mof_O 	O 	0.14409	0.1767	0.25277	-0.422
Mof_O 	O 	0.19437	0.0248	0.30524	-0.406
Mof_O 	O 	0.31659	0.2394	0.4601	-0.303
Mof_O 	O 	0.30456	0.23	0.55662	-0.306
Mof_O 	O 	0.4549	0.551	0.31134	-0.421
Mof_O 	O 	0.558	0.5409	0.30469	-0.444
Mof_Cr	Cr	0.37681	0.53535	0.2579	1.782
_end
