data_functionalizedCrystal
_audit_creation_method	'EQeq! by Chris Wilmer'
_symmetry_space_group_name_H-M	'P1'
_symmetry_Int_Tables_number	1
_symmetry_cell_setting	triclinic
loop_
_symmetry_equiv_pos_as_xyz
  x,y,z
_cell_length_a	27.7205
_cell_length_b	27.7205
_cell_length_c	27.7205
_cell_angle_alpha	90
_cell_angle_beta	90
_cell_angle_gamma	90
loop_
_atom_site_label
_atom_site_type_symbol
_atom_site_fract_x
_atom_site_fract_y
_atom_site_fract_z
_atom_site_charge
Mof_O 	O 	0.44551	0.41895	0.85791	-0.419
Mof_O 	O 	0.517	0.39713	0.8877	-0.253
Mof_C 	C 	0.48789	0.40286	0.85423	0.291
Mof_C 	C 	0.50178	0.38834	0.80474	0.053
Mof_C 	C 	0.47816	0.3848	0.76248	-0.043
Mof_H 	H 	0.4456	0.3934	0.7563	0.066
Mof_H 	H 	0.4796	0.5204	0.9171	0.05
Mof_O 	O 	0.44551	0.91895	0.35791	-0.42
Mof_O 	O 	0.517	0.89713	0.3877	-0.253
Mof_C 	C 	0.48789	0.90286	0.35423	0.291
Mof_C 	C 	0.50178	0.88834	0.30474	0.053
Mof_C 	C 	0.47816	0.8848	0.26248	-0.043
Mof_H 	H 	0.4456	0.8934	0.2563	0.066
Mof_H 	H 	0.4796	0.0204	0.4171	0.049
Mof_O 	O 	0.94551	0.41895	0.35791	-0.418
Mof_O 	O 	0.017	0.39713	0.3877	-0.25
Mof_C 	C 	0.98789	0.40286	0.35423	0.287
Mof_C 	C 	0.00178	0.38834	0.30474	0.06
Mof_C 	C 	0.97816	0.3848	0.26248	-0.05
Mof_H 	H 	0.9456	0.3934	0.2563	0.069
Mof_H 	H 	0.9796	0.5204	0.4171	0.048
Mof_O 	O 	0.94551	0.91895	0.85791	-0.418
Mof_O 	O 	0.017	0.89713	0.8877	-0.249
Mof_C 	C 	0.98789	0.90286	0.85423	0.287
Mof_C 	C 	0.00178	0.88834	0.80474	0.06
Mof_C 	C 	0.97816	0.8848	0.76248	-0.05
Mof_H 	H 	0.9456	0.8934	0.7563	0.069
Mof_H 	H 	0.9796	0.0204	0.9171	0.047
Mof_O 	O 	0.55449	0.08105	0.35791	-0.418
Mof_O 	O 	0.483	0.10287	0.3877	-0.252
Mof_C 	C 	0.51211	0.09714	0.35423	0.292
Mof_C 	C 	0.49822	0.11166	0.30474	0.054
Mof_C 	C 	0.52184	0.1152	0.26248	-0.042
Mof_H 	H 	0.5544	0.1066	0.2563	0.067
Mof_H 	H 	0.5204	0.9796	0.4171	0.048
Mof_O 	O 	0.55449	0.58105	0.85791	-0.418
Mof_O 	O 	0.483	0.60287	0.8877	-0.252
Mof_C 	C 	0.51211	0.59714	0.85423	0.292
Mof_C 	C 	0.49822	0.61166	0.80474	0.054
Mof_C 	C 	0.52184	0.6152	0.76248	-0.042
Mof_H 	H 	0.5544	0.6066	0.7563	0.067
Mof_H 	H 	0.5204	0.4796	0.9171	0.051
Mof_O 	O 	0.05449	0.08105	0.85791	-0.419
Mof_O 	O 	0.983	0.10287	0.8877	-0.254
Mof_C 	C 	0.01211	0.09714	0.85423	0.298
Mof_C 	C 	0.99822	0.11166	0.80474	0.048
Mof_C 	C 	0.02184	0.1152	0.76248	-0.035
Mof_H 	H 	0.0544	0.1066	0.7563	0.065
Mof_H 	H 	0.0204	0.9796	0.9171	0.047
Mof_O 	O 	0.05449	0.58105	0.35791	-0.419
Mof_O 	O 	0.983	0.60287	0.3877	-0.254
Mof_C 	C 	0.01211	0.59714	0.35423	0.298
Mof_C 	C 	0.99822	0.61166	0.30474	0.048
Mof_C 	C 	0.02184	0.6152	0.26248	-0.035
Mof_H 	H 	0.0544	0.6066	0.2563	0.065
Mof_H 	H 	0.0204	0.4796	0.4171	0.05
Mof_O 	O 	0.05449	0.91895	0.14209	-0.42
Mof_O 	O 	0.983	0.89713	0.1123	-0.254
Mof_C 	C 	0.01211	0.90286	0.14577	0.298
Mof_C 	C 	0.99822	0.88834	0.19526	0.048
Mof_C 	C 	0.02184	0.8848	0.23752	-0.035
Mof_H 	H 	0.0544	0.8934	0.2437	0.065
Mof_H 	H 	0.0204	0.0204	0.0829	0.049
Mof_O 	O 	0.05449	0.41895	0.64209	-0.419
Mof_O 	O 	0.983	0.39713	0.6123	-0.254
Mof_C 	C 	0.01211	0.40286	0.64577	0.298
Mof_C 	C 	0.99822	0.38834	0.69526	0.048
Mof_C 	C 	0.02184	0.3848	0.73752	-0.035
Mof_H 	H 	0.0544	0.3934	0.7437	0.065
Mof_H 	H 	0.0204	0.5204	0.5829	0.05
Mof_O 	O 	0.55449	0.91895	0.64209	-0.419
Mof_O 	O 	0.483	0.89713	0.6123	-0.252
Mof_C 	C 	0.51211	0.90286	0.64577	0.292
Mof_C 	C 	0.49822	0.88834	0.69526	0.054
Mof_C 	C 	0.52184	0.8848	0.73752	-0.042
Mof_H 	H 	0.5544	0.8934	0.7437	0.067
Mof_H 	H 	0.5204	0.0204	0.5829	0.05
Mof_O 	O 	0.55449	0.41895	0.14209	-0.418
Mof_O 	O 	0.483	0.39713	0.1123	-0.252
Mof_C 	C 	0.51211	0.40286	0.14577	0.292
Mof_C 	C 	0.49822	0.38834	0.19526	0.054
Mof_C 	C 	0.52184	0.3848	0.23752	-0.042
Mof_H 	H 	0.5544	0.3934	0.2437	0.067
Mof_H 	H 	0.5204	0.5204	0.0829	0.051
Mof_O 	O 	0.94551	0.58105	0.64209	-0.417
Mof_O 	O 	0.017	0.60287	0.6123	-0.249
Mof_C 	C 	0.98789	0.59714	0.64577	0.287
Mof_C 	C 	0.00178	0.61166	0.69526	0.06
Mof_C 	C 	0.97816	0.6152	0.73752	-0.05
Mof_H 	H 	0.9456	0.6066	0.7437	0.069
Mof_H 	H 	0.9796	0.4796	0.5829	0.048
Mof_O 	O 	0.94551	0.08105	0.14209	-0.417
Mof_O 	O 	0.017	0.10287	0.1123	-0.249
Mof_C 	C 	0.98789	0.09714	0.14577	0.287
Mof_C 	C 	0.00178	0.11166	0.19526	0.06
Mof_C 	C 	0.97816	0.1152	0.23752	-0.05
Mof_H 	H 	0.9456	0.1066	0.2437	0.069
Mof_H 	H 	0.9796	0.9796	0.0829	0.046
Mof_O 	O 	0.44551	0.58105	0.14209	-0.418
Mof_O 	O 	0.517	0.60287	0.1123	-0.252
Mof_C 	C 	0.48789	0.59714	0.14577	0.292
Mof_C 	C 	0.50178	0.61166	0.19526	0.054
Mof_C 	C 	0.47816	0.6152	0.23752	-0.042
Mof_H 	H 	0.4456	0.6066	0.2437	0.067
Mof_H 	H 	0.4796	0.4796	0.0829	0.051
Mof_O 	O 	0.44551	0.08105	0.64209	-0.418
Mof_O 	O 	0.517	0.10287	0.6123	-0.252
Mof_C 	C 	0.48789	0.09714	0.64577	0.292
Mof_C 	C 	0.50178	0.11166	0.69526	0.054
Mof_C 	C 	0.47816	0.1152	0.73752	-0.042
Mof_H 	H 	0.4456	0.1066	0.7437	0.067
Mof_H 	H 	0.4796	0.9796	0.5829	0.048
Mof_O 	O 	0.85791	0.44551	0.41895	-0.418
Mof_O 	O 	0.8877	0.517	0.39713	-0.252
Mof_C 	C 	0.85423	0.48789	0.40286	0.292
Mof_C 	C 	0.80474	0.50178	0.38834	0.054
Mof_C 	C 	0.76248	0.47816	0.3848	-0.042
Mof_H 	H 	0.7563	0.4456	0.3934	0.067
Mof_H 	H 	0.9171	0.4796	0.5204	0.051
Mof_O 	O 	0.85791	0.94551	0.91895	-0.418
Mof_O 	O 	0.8877	0.017	0.89713	-0.249
Mof_C 	C 	0.85423	0.98789	0.90286	0.287
Mof_C 	C 	0.80474	0.00178	0.88834	0.06
Mof_C 	C 	0.76248	0.97816	0.8848	-0.05
Mof_H 	H 	0.7563	0.9456	0.8934	0.069
Mof_H 	H 	0.9171	0.9796	0.0204	0.047
Mof_O 	O 	0.35791	0.44551	0.91895	-0.419
Mof_O 	O 	0.3877	0.517	0.89713	-0.252
Mof_C 	C 	0.35423	0.48789	0.90286	0.292
Mof_C 	C 	0.30474	0.50178	0.88834	0.054
Mof_C 	C 	0.26248	0.47816	0.8848	-0.042
Mof_H 	H 	0.2563	0.4456	0.8934	0.067
Mof_H 	H 	0.4171	0.4796	0.0204	0.05
Mof_O 	O 	0.35791	0.94551	0.41895	-0.417
Mof_O 	O 	0.3877	0.017	0.39713	-0.249
Mof_C 	C 	0.35423	0.98789	0.40286	0.287
Mof_C 	C 	0.30474	0.00178	0.38834	0.06
Mof_C 	C 	0.26248	0.97816	0.3848	-0.05
Mof_H 	H 	0.2563	0.9456	0.3934	0.069
Mof_H 	H 	0.4171	0.9796	0.5204	0.048
Mof_O 	O 	0.35791	0.55449	0.08105	-0.418
Mof_O 	O 	0.3877	0.483	0.10287	-0.252
Mof_C 	C 	0.35423	0.51211	0.09714	0.292
Mof_C 	C 	0.30474	0.49822	0.11166	0.054
Mof_C 	C 	0.26248	0.52184	0.1152	-0.042
Mof_H 	H 	0.2563	0.5544	0.1066	0.067
Mof_H 	H 	0.4171	0.5204	0.9796	0.048
Mof_O 	O 	0.35791	0.05449	0.58105	-0.419
Mof_O 	O 	0.3877	0.983	0.60287	-0.254
Mof_C 	C 	0.35423	0.01211	0.59714	0.298
Mof_C 	C 	0.30474	0.99822	0.61166	0.048
Mof_C 	C 	0.26248	0.02184	0.6152	-0.035
Mof_H 	H 	0.2563	0.0544	0.6066	0.065
Mof_H 	H 	0.4171	0.0204	0.4796	0.05
Mof_O 	O 	0.85791	0.55449	0.58105	-0.418
Mof_O 	O 	0.8877	0.483	0.60287	-0.252
Mof_C 	C 	0.85423	0.51211	0.59714	0.292
Mof_C 	C 	0.80474	0.49822	0.61166	0.054
Mof_C 	C 	0.76248	0.52184	0.6152	-0.042
Mof_H 	H 	0.7563	0.5544	0.6066	0.067
Mof_H 	H 	0.9171	0.5204	0.4796	0.051
Mof_O 	O 	0.85791	0.05449	0.08105	-0.419
Mof_O 	O 	0.8877	0.983	0.10287	-0.254
Mof_C 	C 	0.85423	0.01211	0.09714	0.298
Mof_C 	C 	0.80474	0.99822	0.11166	0.048
Mof_C 	C 	0.76248	0.02184	0.1152	-0.035
Mof_H 	H 	0.7563	0.0544	0.1066	0.065
Mof_H 	H 	0.9171	0.0204	0.9796	0.047
Mof_O 	O 	0.14209	0.05449	0.91895	-0.42
Mof_O 	O 	0.1123	0.983	0.89713	-0.254
Mof_C 	C 	0.14577	0.01211	0.90286	0.298
Mof_C 	C 	0.19526	0.99822	0.88834	0.048
Mof_C 	C 	0.23752	0.02184	0.8848	-0.035
Mof_H 	H 	0.2437	0.0544	0.8934	0.065
Mof_H 	H 	0.0829	0.0204	0.0204	0.049
Mof_O 	O 	0.14209	0.55449	0.41895	-0.418
Mof_O 	O 	0.1123	0.483	0.39713	-0.252
Mof_C 	C 	0.14577	0.51211	0.40286	0.292
Mof_C 	C 	0.19526	0.49822	0.38834	0.054
Mof_C 	C 	0.23752	0.52184	0.3848	-0.042
Mof_H 	H 	0.2437	0.5544	0.3934	0.067
Mof_H 	H 	0.0829	0.5204	0.5204	0.051
Mof_O 	O 	0.64209	0.05449	0.41895	-0.419
Mof_O 	O 	0.6123	0.983	0.39713	-0.254
Mof_C 	C 	0.64577	0.01211	0.40286	0.298
Mof_C 	C 	0.69526	0.99822	0.38834	0.048
Mof_C 	C 	0.73752	0.02184	0.3848	-0.035
Mof_H 	H 	0.7437	0.0544	0.3934	0.065
Mof_H 	H 	0.5829	0.0204	0.5204	0.05
Mof_O 	O 	0.64209	0.55449	0.91895	-0.419
Mof_O 	O 	0.6123	0.483	0.89713	-0.252
Mof_C 	C 	0.64577	0.51211	0.90286	0.292
Mof_C 	C 	0.69526	0.49822	0.88834	0.054
Mof_C 	C 	0.73752	0.52184	0.8848	-0.042
Mof_H 	H 	0.7437	0.5544	0.8934	0.067
Mof_H 	H 	0.5829	0.5204	0.0204	0.05
Mof_O 	O 	0.64209	0.94551	0.58105	-0.417
Mof_O 	O 	0.6123	0.017	0.60287	-0.249
Mof_C 	C 	0.64577	0.98789	0.59714	0.287
Mof_C 	C 	0.69526	0.00178	0.61166	0.06
Mof_C 	C 	0.73752	0.97816	0.6152	-0.05
Mof_H 	H 	0.7437	0.9456	0.6066	0.069
Mof_H 	H 	0.5829	0.9796	0.4796	0.048
Mof_O 	O 	0.64209	0.44551	0.08105	-0.418
Mof_O 	O 	0.6123	0.517	0.10287	-0.252
Mof_C 	C 	0.64577	0.48789	0.09714	0.292
Mof_C 	C 	0.69526	0.50178	0.11166	0.054
Mof_C 	C 	0.73752	0.47816	0.1152	-0.042
Mof_H 	H 	0.7437	0.4456	0.1066	0.067
Mof_H 	H 	0.5829	0.4796	0.9796	0.048
Mof_O 	O 	0.14209	0.94551	0.08105	-0.417
Mof_O 	O 	0.1123	0.017	0.10287	-0.249
Mof_C 	C 	0.14577	0.98789	0.09714	0.287
Mof_C 	C 	0.19526	0.00178	0.11166	0.06
Mof_C 	C 	0.23752	0.97816	0.1152	-0.05
Mof_H 	H 	0.2437	0.9456	0.1066	0.069
Mof_H 	H 	0.0829	0.9796	0.9796	0.046
Mof_O 	O 	0.14209	0.44551	0.58105	-0.418
Mof_O 	O 	0.1123	0.517	0.60287	-0.252
Mof_C 	C 	0.14577	0.48789	0.59714	0.292
Mof_C 	C 	0.19526	0.50178	0.61166	0.054
Mof_C 	C 	0.23752	0.47816	0.6152	-0.042
Mof_H 	H 	0.2437	0.4456	0.6066	0.067
Mof_H 	H 	0.0829	0.4796	0.4796	0.051
Mof_O 	O 	0.41895	0.85791	0.44551	-0.418
Mof_O 	O 	0.39713	0.8877	0.517	-0.252
Mof_C 	C 	0.40286	0.85423	0.48789	0.292
Mof_C 	C 	0.38834	0.80474	0.50178	0.054
Mof_C 	C 	0.3848	0.76248	0.47816	-0.042
Mof_H 	H 	0.3934	0.7563	0.4456	0.067
Mof_H 	H 	0.5204	0.9171	0.4796	0.051
Mof_O 	O 	0.41895	0.35791	0.94551	-0.417
Mof_O 	O 	0.39713	0.3877	0.017	-0.249
Mof_C 	C 	0.40286	0.35423	0.98789	0.287
Mof_C 	C 	0.38834	0.30474	0.00178	0.06
Mof_C 	C 	0.3848	0.26248	0.97816	-0.05
Mof_H 	H 	0.3934	0.2563	0.9456	0.069
Mof_H 	H 	0.5204	0.4171	0.9796	0.048
Mof_O 	O 	0.91895	0.85791	0.94551	-0.418
Mof_O 	O 	0.89713	0.8877	0.017	-0.249
Mof_C 	C 	0.90286	0.85423	0.98789	0.287
Mof_C 	C 	0.88834	0.80474	0.00178	0.06
Mof_C 	C 	0.8848	0.76248	0.97816	-0.05
Mof_H 	H 	0.8934	0.7563	0.9456	0.069
Mof_H 	H 	0.0204	0.9171	0.9796	0.047
Mof_O 	O 	0.91895	0.35791	0.44551	-0.419
Mof_O 	O 	0.89713	0.3877	0.517	-0.252
Mof_C 	C 	0.90286	0.35423	0.48789	0.292
Mof_C 	C 	0.88834	0.30474	0.50178	0.054
Mof_C 	C 	0.8848	0.26248	0.47816	-0.042
Mof_H 	H 	0.8934	0.2563	0.4456	0.067
Mof_H 	H 	0.0204	0.4171	0.4796	0.05
Mof_O 	O 	0.08105	0.35791	0.55449	-0.418
Mof_O 	O 	0.10287	0.3877	0.483	-0.252
Mof_C 	C 	0.09714	0.35423	0.51211	0.292
Mof_C 	C 	0.11166	0.30474	0.49822	0.054
Mof_C 	C 	0.1152	0.26248	0.52184	-0.042
Mof_H 	H 	0.1066	0.2563	0.5544	0.067
Mof_H 	H 	0.9796	0.4171	0.5204	0.048
Mof_O 	O 	0.08105	0.85791	0.05449	-0.419
Mof_O 	O 	0.10287	0.8877	0.983	-0.254
Mof_C 	C 	0.09714	0.85423	0.01211	0.298
Mof_C 	C 	0.11166	0.80474	0.99822	0.048
Mof_C 	C 	0.1152	0.76248	0.02184	-0.035
Mof_H 	H 	0.1066	0.7563	0.0544	0.065
Mof_H 	H 	0.9796	0.9171	0.0204	0.047
Mof_O 	O 	0.58105	0.35791	0.05449	-0.419
Mof_O 	O 	0.60287	0.3877	0.983	-0.254
Mof_C 	C 	0.59714	0.35423	0.01211	0.298
Mof_C 	C 	0.61166	0.30474	0.99822	0.048
Mof_C 	C 	0.6152	0.26248	0.02184	-0.035
Mof_H 	H 	0.6066	0.2563	0.0544	0.065
Mof_H 	H 	0.4796	0.4171	0.0204	0.05
Mof_O 	O 	0.58105	0.85791	0.55449	-0.418
Mof_O 	O 	0.60287	0.8877	0.483	-0.252
Mof_C 	C 	0.59714	0.85423	0.51211	0.292
Mof_C 	C 	0.61166	0.80474	0.49822	0.054
Mof_C 	C 	0.6152	0.76248	0.52184	-0.042
Mof_H 	H 	0.6066	0.7563	0.5544	0.067
Mof_H 	H 	0.4796	0.9171	0.5204	0.051
Mof_O 	O 	0.91895	0.14209	0.05449	-0.42
Mof_O 	O 	0.89713	0.1123	0.983	-0.254
Mof_C 	C 	0.90286	0.14577	0.01211	0.298
Mof_C 	C 	0.88834	0.19526	0.99822	0.048
Mof_C 	C 	0.8848	0.23752	0.02184	-0.035
Mof_H 	H 	0.8934	0.2437	0.0544	0.065
Mof_H 	H 	0.0204	0.0829	0.0204	0.049
Mof_O 	O 	0.91895	0.64209	0.55449	-0.419
Mof_O 	O 	0.89713	0.6123	0.483	-0.252
Mof_C 	C 	0.90286	0.64577	0.51211	0.292
Mof_C 	C 	0.88834	0.69526	0.49822	0.054
Mof_C 	C 	0.8848	0.73752	0.52184	-0.042
Mof_H 	H 	0.8934	0.7437	0.5544	0.067
Mof_H 	H 	0.0204	0.5829	0.5204	0.05
Mof_O 	O 	0.41895	0.14209	0.55449	-0.418
Mof_O 	O 	0.39713	0.1123	0.483	-0.252
Mof_C 	C 	0.40286	0.14577	0.51211	0.292
Mof_C 	C 	0.38834	0.19526	0.49822	0.054
Mof_C 	C 	0.3848	0.23752	0.52184	-0.042
Mof_H 	H 	0.3934	0.2437	0.5544	0.067
Mof_H 	H 	0.5204	0.0829	0.5204	0.051
Mof_O 	O 	0.41895	0.64209	0.05449	-0.419
Mof_O 	O 	0.39713	0.6123	0.983	-0.254
Mof_C 	C 	0.40286	0.64577	0.01211	0.298
Mof_C 	C 	0.38834	0.69526	0.99822	0.048
Mof_C 	C 	0.3848	0.73752	0.02184	-0.035
Mof_H 	H 	0.3934	0.7437	0.0544	0.065
Mof_H 	H 	0.5204	0.5829	0.0204	0.05
Mof_O 	O 	0.58105	0.64209	0.94551	-0.417
Mof_O 	O 	0.60287	0.6123	0.017	-0.249
Mof_C 	C 	0.59714	0.64577	0.98789	0.287
Mof_C 	C 	0.61166	0.69526	0.00178	0.06
Mof_C 	C 	0.6152	0.73752	0.97816	-0.05
Mof_H 	H 	0.6066	0.7437	0.9456	0.069
Mof_H 	H 	0.4796	0.5829	0.9796	0.048
Mof_O 	O 	0.58105	0.14209	0.44551	-0.418
Mof_O 	O 	0.60287	0.1123	0.517	-0.252
Mof_C 	C 	0.59714	0.14577	0.48789	0.292
Mof_C 	C 	0.61166	0.19526	0.50178	0.054
Mof_C 	C 	0.6152	0.23752	0.47816	-0.042
Mof_H 	H 	0.6066	0.2437	0.4456	0.067
Mof_H 	H 	0.4796	0.0829	0.4796	0.051
Mof_O 	O 	0.08105	0.64209	0.44551	-0.418
Mof_O 	O 	0.10287	0.6123	0.517	-0.252
Mof_C 	C 	0.09714	0.64577	0.48789	0.292
Mof_C 	C 	0.11166	0.69526	0.50178	0.054
Mof_C 	C 	0.1152	0.73752	0.47816	-0.042
Mof_H 	H 	0.1066	0.7437	0.4456	0.067
Mof_H 	H 	0.9796	0.5829	0.4796	0.048
Mof_O 	O 	0.08105	0.14209	0.94551	-0.417
Mof_O 	O 	0.10287	0.1123	0.017	-0.249
Mof_C 	C 	0.09714	0.14577	0.98789	0.287
Mof_C 	C 	0.11166	0.19526	0.00178	0.06
Mof_C 	C 	0.1152	0.23752	0.97816	-0.05
Mof_H 	H 	0.1066	0.2437	0.9456	0.069
Mof_H 	H 	0.9796	0.0829	0.9796	0.046
Mof_O 	O 	0.16895	0.69551	0.89209	-0.418
Mof_O 	O 	0.14713	0.767	0.8623	-0.252
Mof_C 	C 	0.15286	0.73789	0.89577	0.292
Mof_C 	C 	0.13834	0.75178	0.94526	0.055
Mof_C 	C 	0.1348	0.72816	0.98752	-0.047
Mof_H 	H 	0.1434	0.6956	0.9937	0.068
Mof_H 	H 	0.2704	0.7296	0.8329	0.051
Mof_O 	O 	0.16895	0.19551	0.39209	-0.418
Mof_O 	O 	0.14713	0.267	0.3623	-0.252
Mof_C 	C 	0.15286	0.23789	0.39577	0.292
Mof_C 	C 	0.13834	0.25178	0.44526	0.054
Mof_C 	C 	0.1348	0.22816	0.48752	-0.042
Mof_H 	H 	0.1434	0.1956	0.4937	0.067
Mof_H 	H 	0.2704	0.2296	0.3329	0.051
Mof_O 	O 	0.66895	0.69551	0.39209	-0.418
Mof_O 	O 	0.64713	0.767	0.3623	-0.252
Mof_C 	C 	0.65286	0.73789	0.39577	0.292
Mof_C 	C 	0.63834	0.75178	0.44526	0.054
Mof_C 	C 	0.6348	0.72816	0.48752	-0.042
Mof_H 	H 	0.6434	0.6956	0.4937	0.067
Mof_H 	H 	0.7704	0.7296	0.3329	0.051
Mof_O 	O 	0.66895	0.19551	0.89209	-0.418
Mof_O 	O 	0.64713	0.267	0.8623	-0.252
Mof_C 	C 	0.65286	0.23789	0.89577	0.292
Mof_C 	C 	0.63834	0.25178	0.94526	0.055
Mof_C 	C 	0.6348	0.22816	0.98752	-0.047
Mof_H 	H 	0.6434	0.1956	0.9937	0.068
Mof_H 	H 	0.7704	0.2296	0.8329	0.051
Mof_O 	O 	0.83105	0.80449	0.39209	-0.419
Mof_O 	O 	0.85287	0.733	0.3623	-0.252
Mof_C 	C 	0.84714	0.76211	0.39577	0.292
Mof_C 	C 	0.86166	0.74822	0.44526	0.054
Mof_C 	C 	0.8652	0.77184	0.48752	-0.042
Mof_H 	H 	0.8566	0.8044	0.4937	0.067
Mof_H 	H 	0.7296	0.7704	0.3329	0.051
Mof_O 	O 	0.83105	0.30449	0.89209	-0.418
Mof_O 	O 	0.85287	0.233	0.8623	-0.252
Mof_C 	C 	0.84714	0.26211	0.89577	0.292
Mof_C 	C 	0.86166	0.24822	0.94526	0.055
Mof_C 	C 	0.8652	0.27184	0.98752	-0.047
Mof_H 	H 	0.8566	0.3044	0.9937	0.068
Mof_H 	H 	0.7296	0.2704	0.8329	0.051
Mof_O 	O 	0.33105	0.80449	0.89209	-0.418
Mof_O 	O 	0.35287	0.733	0.8623	-0.252
Mof_C 	C 	0.34714	0.76211	0.89577	0.292
Mof_C 	C 	0.36166	0.74822	0.94526	0.055
Mof_C 	C 	0.3652	0.77184	0.98752	-0.047
Mof_H 	H 	0.3566	0.8044	0.9937	0.068
Mof_H 	H 	0.2296	0.7704	0.8329	0.051
Mof_O 	O 	0.33105	0.30449	0.39209	-0.418
Mof_O 	O 	0.35287	0.233	0.3623	-0.252
Mof_C 	C 	0.34714	0.26211	0.39577	0.292
Mof_C 	C 	0.36166	0.24822	0.44526	0.054
Mof_C 	C 	0.3652	0.27184	0.48752	-0.042
Mof_H 	H 	0.3566	0.3044	0.4937	0.067
Mof_H 	H 	0.2296	0.2704	0.3329	0.051
Mof_O 	O 	0.66895	0.30449	0.60791	-0.418
Mof_O 	O 	0.64713	0.233	0.6377	-0.252
Mof_C 	C 	0.65286	0.26211	0.60423	0.292
Mof_C 	C 	0.63834	0.24822	0.55474	0.054
Mof_C 	C 	0.6348	0.27184	0.51248	-0.042
Mof_H 	H 	0.6434	0.3044	0.5063	0.067
Mof_H 	H 	0.7704	0.2704	0.6671	0.051
Mof_O 	O 	0.66895	0.80449	0.10791	-0.419
Mof_O 	O 	0.64713	0.733	0.1377	-0.252
Mof_C 	C 	0.65286	0.76211	0.10423	0.293
Mof_C 	C 	0.63834	0.74822	0.05474	0.053
Mof_C 	C 	0.6348	0.77184	0.01248	-0.038
Mof_H 	H 	0.6434	0.8044	0.0063	0.066
Mof_H 	H 	0.7704	0.7704	0.1671	0.051
Mof_O 	O 	0.16895	0.30449	0.10791	-0.418
Mof_O 	O 	0.14713	0.233	0.1377	-0.252
Mof_C 	C 	0.15286	0.26211	0.10423	0.293
Mof_C 	C 	0.13834	0.24822	0.05474	0.053
Mof_C 	C 	0.1348	0.27184	0.01248	-0.037
Mof_H 	H 	0.1434	0.3044	0.0063	0.066
Mof_H 	H 	0.2704	0.2704	0.1671	0.051
Mof_O 	O 	0.16895	0.80449	0.60791	-0.418
Mof_O 	O 	0.14713	0.733	0.6377	-0.252
Mof_C 	C 	0.15286	0.76211	0.60423	0.292
Mof_C 	C 	0.13834	0.74822	0.55474	0.054
Mof_C 	C 	0.1348	0.77184	0.51248	-0.042
Mof_H 	H 	0.1434	0.8044	0.5063	0.067
Mof_H 	H 	0.2704	0.7704	0.6671	0.051
Mof_O 	O 	0.33105	0.19551	0.10791	-0.418
Mof_O 	O 	0.35287	0.267	0.1377	-0.252
Mof_C 	C 	0.34714	0.23789	0.10423	0.293
Mof_C 	C 	0.36166	0.25178	0.05474	0.053
Mof_C 	C 	0.3652	0.22816	0.01248	-0.037
Mof_H 	H 	0.3566	0.1956	0.0063	0.066
Mof_H 	H 	0.2296	0.2296	0.1671	0.051
Mof_O 	O 	0.33105	0.69551	0.60791	-0.418
Mof_O 	O 	0.35287	0.767	0.6377	-0.252
Mof_C 	C 	0.34714	0.73789	0.60423	0.292
Mof_C 	C 	0.36166	0.75178	0.55474	0.054
Mof_C 	C 	0.3652	0.72816	0.51248	-0.042
Mof_H 	H 	0.3566	0.6956	0.5063	0.067
Mof_H 	H 	0.2296	0.7296	0.6671	0.051
Mof_O 	O 	0.83105	0.19551	0.60791	-0.418
Mof_O 	O 	0.85287	0.267	0.6377	-0.252
Mof_C 	C 	0.84714	0.23789	0.60423	0.292
Mof_C 	C 	0.86166	0.25178	0.55474	0.054
Mof_C 	C 	0.8652	0.22816	0.51248	-0.042
Mof_H 	H 	0.8566	0.1956	0.5063	0.067
Mof_H 	H 	0.7296	0.2296	0.6671	0.051
Mof_O 	O 	0.83105	0.69551	0.10791	-0.419
Mof_O 	O 	0.85287	0.767	0.1377	-0.252
Mof_C 	C 	0.84714	0.73789	0.10423	0.293
Mof_C 	C 	0.86166	0.75178	0.05474	0.053
Mof_C 	C 	0.8652	0.72816	0.01248	-0.038
Mof_H 	H 	0.8566	0.6956	0.0063	0.066
Mof_H 	H 	0.7296	0.7296	0.1671	0.051
Mof_O 	O 	0.19551	0.10791	0.33105	-0.418
Mof_O 	O 	0.267	0.1377	0.35287	-0.252
Mof_C 	C 	0.23789	0.10423	0.34714	0.293
Mof_C 	C 	0.25178	0.05474	0.36166	0.053
Mof_C 	C 	0.22816	0.01248	0.3652	-0.037
Mof_H 	H 	0.1956	0.0063	0.3566	0.066
Mof_H 	H 	0.2296	0.1671	0.2296	0.051
Mof_O 	O 	0.19551	0.60791	0.83105	-0.418
Mof_O 	O 	0.267	0.6377	0.85287	-0.252
Mof_C 	C 	0.23789	0.60423	0.84714	0.292
Mof_C 	C 	0.25178	0.55474	0.86166	0.054
Mof_C 	C 	0.22816	0.51248	0.8652	-0.042
Mof_H 	H 	0.1956	0.5063	0.8566	0.067
Mof_H 	H 	0.2296	0.6671	0.7296	0.051
Mof_O 	O 	0.69551	0.10791	0.83105	-0.419
Mof_O 	O 	0.767	0.1377	0.85287	-0.252
Mof_C 	C 	0.73789	0.10423	0.84714	0.293
Mof_C 	C 	0.75178	0.05474	0.86166	0.053
Mof_C 	C 	0.72816	0.01248	0.8652	-0.038
Mof_H 	H 	0.6956	0.0063	0.8566	0.066
Mof_H 	H 	0.7296	0.1671	0.7296	0.051
Mof_O 	O 	0.69551	0.60791	0.33105	-0.418
Mof_O 	O 	0.767	0.6377	0.35287	-0.252
Mof_C 	C 	0.73789	0.60423	0.34714	0.292
Mof_C 	C 	0.75178	0.55474	0.36166	0.054
Mof_C 	C 	0.72816	0.51248	0.3652	-0.042
Mof_H 	H 	0.6956	0.5063	0.3566	0.067
Mof_H 	H 	0.7296	0.6671	0.2296	0.051
Mof_O 	O 	0.30449	0.60791	0.66895	-0.418
Mof_O 	O 	0.233	0.6377	0.64713	-0.252
Mof_C 	C 	0.26211	0.60423	0.65286	0.292
Mof_C 	C 	0.24822	0.55474	0.63834	0.054
Mof_C 	C 	0.27184	0.51248	0.6348	-0.042
Mof_H 	H 	0.3044	0.5063	0.6434	0.067
Mof_H 	H 	0.2704	0.6671	0.7704	0.051
Mof_O 	O 	0.30449	0.10791	0.16895	-0.418
Mof_O 	O 	0.233	0.1377	0.14713	-0.252
Mof_C 	C 	0.26211	0.10423	0.15286	0.293
Mof_C 	C 	0.24822	0.05474	0.13834	0.053
Mof_C 	C 	0.27184	0.01248	0.1348	-0.037
Mof_H 	H 	0.3044	0.0063	0.1434	0.066
Mof_H 	H 	0.2704	0.1671	0.2704	0.051
Mof_O 	O 	0.80449	0.60791	0.16895	-0.418
Mof_O 	O 	0.733	0.6377	0.14713	-0.252
Mof_C 	C 	0.76211	0.60423	0.15286	0.292
Mof_C 	C 	0.74822	0.55474	0.13834	0.054
Mof_C 	C 	0.77184	0.51248	0.1348	-0.042
Mof_H 	H 	0.8044	0.5063	0.1434	0.067
Mof_H 	H 	0.7704	0.6671	0.2704	0.051
Mof_O 	O 	0.80449	0.10791	0.66895	-0.419
Mof_O 	O 	0.733	0.1377	0.64713	-0.252
Mof_C 	C 	0.76211	0.10423	0.65286	0.293
Mof_C 	C 	0.74822	0.05474	0.63834	0.053
Mof_C 	C 	0.77184	0.01248	0.6348	-0.038
Mof_H 	H 	0.8044	0.0063	0.6434	0.066
Mof_H 	H 	0.7704	0.1671	0.7704	0.051
Mof_O 	O 	0.80449	0.39209	0.83105	-0.419
Mof_O 	O 	0.733	0.3623	0.85287	-0.252
Mof_C 	C 	0.76211	0.39577	0.84714	0.292
Mof_C 	C 	0.74822	0.44526	0.86166	0.054
Mof_C 	C 	0.77184	0.48752	0.8652	-0.042
Mof_H 	H 	0.8044	0.4937	0.8566	0.067
Mof_H 	H 	0.7704	0.3329	0.7296	0.051
Mof_O 	O 	0.80449	0.89209	0.33105	-0.418
Mof_O 	O 	0.733	0.8623	0.35287	-0.252
Mof_C 	C 	0.76211	0.89577	0.34714	0.292
Mof_C 	C 	0.74822	0.94526	0.36166	0.055
Mof_C 	C 	0.77184	0.98752	0.3652	-0.047
Mof_H 	H 	0.8044	0.9937	0.3566	0.068
Mof_H 	H 	0.7704	0.8329	0.2296	0.051
Mof_O 	O 	0.30449	0.39209	0.33105	-0.418
Mof_O 	O 	0.233	0.3623	0.35287	-0.252
Mof_C 	C 	0.26211	0.39577	0.34714	0.292
Mof_C 	C 	0.24822	0.44526	0.36166	0.054
Mof_C 	C 	0.27184	0.48752	0.3652	-0.042
Mof_H 	H 	0.3044	0.4937	0.3566	0.067
Mof_H 	H 	0.2704	0.3329	0.2296	0.051
Mof_O 	O 	0.30449	0.89209	0.83105	-0.418
Mof_O 	O 	0.233	0.8623	0.85287	-0.252
Mof_C 	C 	0.26211	0.89577	0.84714	0.292
Mof_C 	C 	0.24822	0.94526	0.86166	0.055
Mof_C 	C 	0.27184	0.98752	0.8652	-0.047
Mof_H 	H 	0.3044	0.9937	0.8566	0.068
Mof_H 	H 	0.2704	0.8329	0.7296	0.051
Mof_O 	O 	0.69551	0.89209	0.16895	-0.418
Mof_O 	O 	0.767	0.8623	0.14713	-0.252
Mof_C 	C 	0.73789	0.89577	0.15286	0.292
Mof_C 	C 	0.75178	0.94526	0.13834	0.055
Mof_C 	C 	0.72816	0.98752	0.1348	-0.047
Mof_H 	H 	0.6956	0.9937	0.1434	0.068
Mof_H 	H 	0.7296	0.8329	0.2704	0.051
Mof_O 	O 	0.69551	0.39209	0.66895	-0.418
Mof_O 	O 	0.767	0.3623	0.64713	-0.252
Mof_C 	C 	0.73789	0.39577	0.65286	0.292
Mof_C 	C 	0.75178	0.44526	0.63834	0.054
Mof_C 	C 	0.72816	0.48752	0.6348	-0.042
Mof_H 	H 	0.6956	0.4937	0.6434	0.067
Mof_H 	H 	0.7296	0.3329	0.7704	0.051
Mof_O 	O 	0.19551	0.89209	0.66895	-0.418
Mof_O 	O 	0.267	0.8623	0.64713	-0.252
Mof_C 	C 	0.23789	0.89577	0.65286	0.292
Mof_C 	C 	0.25178	0.94526	0.63834	0.055
Mof_C 	C 	0.22816	0.98752	0.6348	-0.047
Mof_H 	H 	0.1956	0.9937	0.6434	0.068
Mof_H 	H 	0.2296	0.8329	0.7704	0.051
Mof_O 	O 	0.19551	0.39209	0.16895	-0.418
Mof_O 	O 	0.267	0.3623	0.14713	-0.252
Mof_C 	C 	0.23789	0.39577	0.15286	0.292
Mof_C 	C 	0.25178	0.44526	0.13834	0.054
Mof_C 	C 	0.22816	0.48752	0.1348	-0.042
Mof_H 	H 	0.1956	0.4937	0.1434	0.067
Mof_H 	H 	0.2296	0.3329	0.2704	0.051
Mof_O 	O 	0.60791	0.66895	0.30449	-0.418
Mof_O 	O 	0.6377	0.64713	0.233	-0.252
Mof_C 	C 	0.60423	0.65286	0.26211	0.292
Mof_C 	C 	0.55474	0.63834	0.24822	0.054
Mof_C 	C 	0.51248	0.6348	0.27184	-0.042
Mof_H 	H 	0.5063	0.6434	0.3044	0.067
Mof_H 	H 	0.6671	0.7704	0.2704	0.051
Mof_O 	O 	0.60791	0.16895	0.80449	-0.418
Mof_O 	O 	0.6377	0.14713	0.733	-0.252
Mof_C 	C 	0.60423	0.15286	0.76211	0.292
Mof_C 	C 	0.55474	0.13834	0.74822	0.054
Mof_C 	C 	0.51248	0.1348	0.77184	-0.042
Mof_H 	H 	0.5063	0.1434	0.8044	0.067
Mof_H 	H 	0.6671	0.2704	0.7704	0.051
Mof_O 	O 	0.10791	0.66895	0.80449	-0.419
Mof_O 	O 	0.1377	0.64713	0.733	-0.252
Mof_C 	C 	0.10423	0.65286	0.76211	0.293
Mof_C 	C 	0.05474	0.63834	0.74822	0.053
Mof_C 	C 	0.01248	0.6348	0.77184	-0.038
Mof_H 	H 	0.0063	0.6434	0.8044	0.066
Mof_H 	H 	0.1671	0.7704	0.7704	0.051
Mof_O 	O 	0.10791	0.16895	0.30449	-0.418
Mof_O 	O 	0.1377	0.14713	0.233	-0.252
Mof_C 	C 	0.10423	0.15286	0.26211	0.293
Mof_C 	C 	0.05474	0.13834	0.24822	0.053
Mof_C 	C 	0.01248	0.1348	0.27184	-0.037
Mof_H 	H 	0.0063	0.1434	0.3044	0.066
Mof_H 	H 	0.1671	0.2704	0.2704	0.051
Mof_O 	O 	0.10791	0.33105	0.19551	-0.418
Mof_O 	O 	0.1377	0.35287	0.267	-0.252
Mof_C 	C 	0.10423	0.34714	0.23789	0.293
Mof_C 	C 	0.05474	0.36166	0.25178	0.053
Mof_C 	C 	0.01248	0.3652	0.22816	-0.037
Mof_H 	H 	0.0063	0.3566	0.1956	0.066
Mof_H 	H 	0.1671	0.2296	0.2296	0.051
Mof_O 	O 	0.10791	0.83105	0.69551	-0.419
Mof_O 	O 	0.1377	0.85287	0.767	-0.252
Mof_C 	C 	0.10423	0.84714	0.73789	0.293
Mof_C 	C 	0.05474	0.86166	0.75178	0.053
Mof_C 	C 	0.01248	0.8652	0.72816	-0.038
Mof_H 	H 	0.0063	0.8566	0.6956	0.066
Mof_H 	H 	0.1671	0.7296	0.7296	0.051
Mof_O 	O 	0.60791	0.33105	0.69551	-0.418
Mof_O 	O 	0.6377	0.35287	0.767	-0.252
Mof_C 	C 	0.60423	0.34714	0.73789	0.292
Mof_C 	C 	0.55474	0.36166	0.75178	0.054
Mof_C 	C 	0.51248	0.3652	0.72816	-0.042
Mof_H 	H 	0.5063	0.3566	0.6956	0.067
Mof_H 	H 	0.6671	0.2296	0.7296	0.051
Mof_O 	O 	0.60791	0.83105	0.19551	-0.418
Mof_O 	O 	0.6377	0.85287	0.267	-0.252
Mof_C 	C 	0.60423	0.84714	0.23789	0.292
Mof_C 	C 	0.55474	0.86166	0.25178	0.054
Mof_C 	C 	0.51248	0.8652	0.22816	-0.042
Mof_H 	H 	0.5063	0.8566	0.1956	0.067
Mof_H 	H 	0.6671	0.7296	0.2296	0.051
Mof_O 	O 	0.89209	0.16895	0.69551	-0.418
Mof_O 	O 	0.8623	0.14713	0.767	-0.252
Mof_C 	C 	0.89577	0.15286	0.73789	0.292
Mof_C 	C 	0.94526	0.13834	0.75178	0.055
Mof_C 	C 	0.98752	0.1348	0.72816	-0.047
Mof_H 	H 	0.9937	0.1434	0.6956	0.068
Mof_H 	H 	0.8329	0.2704	0.7296	0.051
Mof_O 	O 	0.89209	0.66895	0.19551	-0.418
Mof_O 	O 	0.8623	0.64713	0.267	-0.252
Mof_C 	C 	0.89577	0.65286	0.23789	0.292
Mof_C 	C 	0.94526	0.63834	0.25178	0.055
Mof_C 	C 	0.98752	0.6348	0.22816	-0.047
Mof_H 	H 	0.9937	0.6434	0.1956	0.068
Mof_H 	H 	0.8329	0.7704	0.2296	0.051
Mof_O 	O 	0.39209	0.16895	0.19551	-0.418
Mof_O 	O 	0.3623	0.14713	0.267	-0.252
Mof_C 	C 	0.39577	0.15286	0.23789	0.292
Mof_C 	C 	0.44526	0.13834	0.25178	0.054
Mof_C 	C 	0.48752	0.1348	0.22816	-0.042
Mof_H 	H 	0.4937	0.1434	0.1956	0.067
Mof_H 	H 	0.3329	0.2704	0.2296	0.051
Mof_O 	O 	0.39209	0.66895	0.69551	-0.418
Mof_O 	O 	0.3623	0.64713	0.767	-0.252
Mof_C 	C 	0.39577	0.65286	0.73789	0.292
Mof_C 	C 	0.44526	0.63834	0.75178	0.054
Mof_C 	C 	0.48752	0.6348	0.72816	-0.042
Mof_H 	H 	0.4937	0.6434	0.6956	0.067
Mof_H 	H 	0.3329	0.7704	0.7296	0.051
Mof_O 	O 	0.39209	0.83105	0.80449	-0.419
Mof_O 	O 	0.3623	0.85287	0.733	-0.252
Mof_C 	C 	0.39577	0.84714	0.76211	0.292
Mof_C 	C 	0.44526	0.86166	0.74822	0.054
Mof_C 	C 	0.48752	0.8652	0.77184	-0.042
Mof_H 	H 	0.4937	0.8566	0.8044	0.067
Mof_H 	H 	0.3329	0.7296	0.7704	0.051
Mof_O 	O 	0.39209	0.33105	0.30449	-0.418
Mof_O 	O 	0.3623	0.35287	0.233	-0.252
Mof_C 	C 	0.39577	0.34714	0.26211	0.292
Mof_C 	C 	0.44526	0.36166	0.24822	0.054
Mof_C 	C 	0.48752	0.3652	0.27184	-0.042
Mof_H 	H 	0.4937	0.3566	0.3044	0.067
Mof_H 	H 	0.3329	0.2296	0.2704	0.051
Mof_O 	O 	0.89209	0.83105	0.30449	-0.418
Mof_O 	O 	0.8623	0.85287	0.233	-0.252
Mof_C 	C 	0.89577	0.84714	0.26211	0.292
Mof_C 	C 	0.94526	0.86166	0.24822	0.055
Mof_C 	C 	0.98752	0.8652	0.27184	-0.047
Mof_H 	H 	0.9937	0.8566	0.3044	0.068
Mof_H 	H 	0.8329	0.7296	0.2704	0.051
Mof_O 	O 	0.89209	0.33105	0.80449	-0.418
Mof_O 	O 	0.8623	0.35287	0.733	-0.252
Mof_C 	C 	0.89577	0.34714	0.76211	0.292
Mof_C 	C 	0.94526	0.36166	0.74822	0.055
Mof_C 	C 	0.98752	0.3652	0.77184	-0.047
Mof_H 	H 	0.9937	0.3566	0.8044	0.068
Mof_H 	H 	0.8329	0.2296	0.7704	0.051
Mof_Zn	Zn	0.4252	0.4252	0.9252	1.225
Mof_N 	N 	0.46876	0.46876	0.96876	-0.188
Mof_Zn	Zn	0.9252	0.9252	0.9252	1.224
Mof_N 	N 	0.96876	0.96876	0.96876	-0.192
Mof_Zn	Zn	0.5748	0.0748	0.4252	1.225
Mof_N 	N 	0.53124	0.03124	0.46876	-0.187
Mof_Zn	Zn	0.0748	0.9252	0.0748	1.225
Mof_N 	N 	0.03124	0.96876	0.03124	-0.189
Mof_Zn	Zn	0.0748	0.4252	0.5748	1.225
Mof_N 	N 	0.03124	0.46876	0.53124	-0.187
Mof_Zn	Zn	0.9252	0.5748	0.5748	1.225
Mof_N 	N 	0.96876	0.53124	0.53124	-0.188
Mof_Zn	Zn	0.4252	0.5748	0.0748	1.225
Mof_N 	N 	0.46876	0.53124	0.03124	-0.187
Mof_Zn	Zn	0.9252	0.4252	0.4252	1.225
Mof_N 	N 	0.96876	0.46876	0.46876	-0.188
Mof_Zn	Zn	0.4252	0.0748	0.5748	1.225
Mof_N 	N 	0.46876	0.03124	0.53124	-0.187
Mof_Zn	Zn	0.0748	0.0748	0.9252	1.225
Mof_N 	N 	0.03124	0.03124	0.96876	-0.189
Mof_Zn	Zn	0.0748	0.5748	0.4252	1.225
Mof_N 	N 	0.03124	0.53124	0.46876	-0.187
Mof_Zn	Zn	0.5748	0.9252	0.5748	1.225
Mof_N 	N 	0.53124	0.96876	0.53124	-0.188
Mof_Zn	Zn	0.5748	0.4252	0.0748	1.225
Mof_N 	N 	0.53124	0.46876	0.03124	-0.187
Mof_Zn	Zn	0.4252	0.9252	0.4252	1.225
Mof_N 	N 	0.46876	0.96876	0.46876	-0.188
Mof_Zn	Zn	0.9252	0.0748	0.0748	1.225
Mof_N 	N 	0.96876	0.03124	0.03124	-0.189
Mof_Zn	Zn	0.5748	0.5748	0.9252	1.225
Mof_N 	N 	0.53124	0.53124	0.96876	-0.188
Mof_Zn	Zn	0.1752	0.6752	0.8248	1.225
Mof_N 	N 	0.21876	0.71876	0.78124	-0.186
Mof_Zn	Zn	0.1752	0.1752	0.3248	1.225
Mof_N 	N 	0.21876	0.21876	0.28124	-0.186
Mof_Zn	Zn	0.6752	0.6752	0.3248	1.225
Mof_N 	N 	0.71876	0.71876	0.28124	-0.186
Mof_Zn	Zn	0.8248	0.8248	0.3248	1.225
Mof_N 	N 	0.78124	0.78124	0.28124	-0.186
Mof_Zn	Zn	0.6752	0.3248	0.6752	1.225
Mof_N 	N 	0.71876	0.28124	0.71876	-0.186
Mof_Zn	Zn	0.1752	0.8248	0.6752	1.225
Mof_N 	N 	0.21876	0.78124	0.71876	-0.186
Mof_Zn	Zn	0.3248	0.1752	0.1752	1.225
Mof_N 	N 	0.28124	0.21876	0.21876	-0.186
Mof_Zn	Zn	0.6752	0.1752	0.8248	1.225
Mof_N 	N 	0.71876	0.21876	0.78124	-0.186
Mof_Zn	Zn	0.3248	0.6752	0.6752	1.225
Mof_N 	N 	0.28124	0.71876	0.71876	-0.186
Mof_Zn	Zn	0.8248	0.3248	0.8248	1.225
Mof_N 	N 	0.78124	0.28124	0.78124	-0.186
Mof_Zn	Zn	0.6752	0.8248	0.1752	1.225
Mof_N 	N 	0.71876	0.78124	0.21876	-0.186
Mof_Zn	Zn	0.1752	0.3248	0.1752	1.225
Mof_N 	N 	0.21876	0.28124	0.21876	-0.186
Mof_Zn	Zn	0.8248	0.1752	0.6752	1.225
Mof_N 	N 	0.78124	0.21876	0.71876	-0.186
Mof_Zn	Zn	0.8248	0.6752	0.1752	1.225
Mof_N 	N 	0.78124	0.71876	0.21876	-0.186
Mof_Zn	Zn	0.3248	0.8248	0.8248	1.225
Mof_N 	N 	0.28124	0.78124	0.78124	-0.186
Mof_Zn	Zn	0.3248	0.3248	0.3248	1.225
Mof_N 	N 	0.28124	0.28124	0.28124	-0.186
Mof_O 	O 	0.54898	0.375	0.79898	-0.143
Mof_O 	O 	0.54898	0.875	0.29898	-0.143
Mof_O 	O 	0.04898	0.375	0.29898	-0.144
Mof_O 	O 	0.45102	0.125	0.29898	-0.143
Mof_O 	O 	0.45102	0.625	0.79898	-0.143
Mof_O 	O 	0.95102	0.875	0.20102	-0.142
Mof_O 	O 	0.95102	0.375	0.70102	-0.142
Mof_O 	O 	0.04898	0.625	0.70102	-0.144
Mof_O 	O 	0.04898	0.125	0.20102	-0.144
Mof_O 	O 	0.79898	0.54898	0.375	-0.143
Mof_O 	O 	0.79898	0.04898	0.875	-0.144
Mof_O 	O 	0.29898	0.04898	0.375	-0.144
Mof_O 	O 	0.29898	0.45102	0.125	-0.143
Mof_O 	O 	0.29898	0.95102	0.625	-0.142
Mof_O 	O 	0.20102	0.95102	0.875	-0.142
Mof_O 	O 	0.20102	0.45102	0.375	-0.143
Mof_O 	O 	0.70102	0.04898	0.625	-0.144
Mof_O 	O 	0.70102	0.54898	0.125	-0.143
Mof_O 	O 	0.375	0.79898	0.54898	-0.143
Mof_O 	O 	0.375	0.29898	0.04898	-0.144
Mof_O 	O 	0.875	0.79898	0.04898	-0.144
Mof_O 	O 	0.125	0.29898	0.45102	-0.143
Mof_O 	O 	0.625	0.29898	0.95102	-0.142
Mof_O 	O 	0.875	0.20102	0.95102	-0.142
Mof_O 	O 	0.375	0.20102	0.45102	-0.143
Mof_O 	O 	0.625	0.70102	0.04898	-0.144
Mof_O 	O 	0.125	0.70102	0.54898	-0.143
Mof_O 	O 	0.125	0.79898	0.95102	-0.142
Mof_O 	O 	0.625	0.79898	0.45102	-0.143
Mof_O 	O 	0.875	0.70102	0.45102	-0.143
Mof_O 	O 	0.375	0.70102	0.95102	-0.142
Mof_O 	O 	0.625	0.20102	0.54898	-0.143
Mof_O 	O 	0.125	0.20102	0.04898	-0.144
Mof_O 	O 	0.875	0.29898	0.54898	-0.143
Mof_O 	O 	0.29898	0.54898	0.875	-0.143
Mof_O 	O 	0.20102	0.54898	0.625	-0.143
Mof_O 	O 	0.20102	0.04898	0.125	-0.144
Mof_O 	O 	0.70102	0.45102	0.875	-0.143
Mof_O 	O 	0.70102	0.95102	0.375	-0.142
Mof_O 	O 	0.79898	0.95102	0.125	-0.142
Mof_O 	O 	0.79898	0.45102	0.625	-0.143
Mof_O 	O 	0.54898	0.625	0.20102	-0.143
Mof_O 	O 	0.54898	0.125	0.70102	-0.143
Mof_O 	O 	0.04898	0.875	0.79898	-0.144
Mof_O 	O 	0.95102	0.125	0.79898	-0.142
Mof_O 	O 	0.95102	0.625	0.29898	-0.142
Mof_O 	O 	0.45102	0.875	0.70102	-0.143
Mof_O 	O 	0.45102	0.375	0.20102	-0.143
Mof_C 	C 	0.5	0.5	0.93804	-0.053
Mof_C 	C 	-7.83824e-33	0.5	0.43804	-0.048
Mof_C 	C 	0.5	-4.74032e-33	0.43804	-0.048
Mof_C 	C 	3.51709e-33	0	0.93804	-0.044
Mof_C 	C 	-3.60227e-34	0	0.06196	-0.044
Mof_C 	C 	0.5	-4.74032e-33	0.56196	-0.048
Mof_C 	C 	-2.6333e-33	0.5	0.56196	-0.048
Mof_C 	C 	0.5	0.5	0.06196	-0.053
Mof_C 	C 	0.93804	0.5	0.5	-0.053
Mof_C 	C 	0.93804	0	-0	-0.044
Mof_C 	C 	0.43804	0.5	-0	-0.048
Mof_C 	C 	0.43804	0	0.5	-0.048
Mof_C 	C 	0.06196	0	-0	-0.044
Mof_C 	C 	0.06196	0.5	0.5	-0.053
Mof_C 	C 	0.56196	0	0.5	-0.048
Mof_C 	C 	0.56196	0.5	-0	-0.048
Mof_C 	C 	0.5	0.93804	0.5	-0.053
Mof_C 	C 	0.5	0.43804	-0	-0.048
Mof_C 	C 	-7.60593e-33	0.43804	0.5	-0.048
Mof_C 	C 	-0	0.93804	-0	-0.044
Mof_C 	C 	-5.92539e-34	0.06196	-0	-0.044
Mof_C 	C 	1.8747e-33	0.56196	0.5	-0.048
Mof_C 	C 	0.5	0.56196	-0	-0.048
Mof_C 	C 	0.5	0.06196	0.5	-0.053
Mof_C 	C 	0.25	0.75	0.81196	-0.053
Mof_C 	C 	0.25	0.25	0.31196	-0.053
Mof_C 	C 	0.75	0.75	0.31196	-0.053
Mof_C 	C 	0.75	0.25	0.81196	-0.053
Mof_C 	C 	0.75	0.25	0.68804	-0.053
Mof_C 	C 	0.75	0.75	0.18804	-0.053
Mof_C 	C 	0.25	0.25	0.18804	-0.053
Mof_C 	C 	0.25	0.75	0.68804	-0.053
Mof_C 	C 	0.25	0.18804	0.25	-0.053
Mof_C 	C 	0.75	0.18804	0.75	-0.053
Mof_C 	C 	0.25	0.68804	0.75	-0.053
Mof_C 	C 	0.75	0.68804	0.25	-0.053
Mof_C 	C 	0.75	0.31196	0.75	-0.053
Mof_C 	C 	0.25	0.31196	0.25	-0.053
Mof_C 	C 	0.75	0.81196	0.25	-0.053
Mof_C 	C 	0.25	0.81196	0.75	-0.053
Mof_C 	C 	0.68804	0.75	0.25	-0.053
Mof_C 	C 	0.68804	0.25	0.75	-0.053
Mof_C 	C 	0.18804	0.25	0.25	-0.053
Mof_C 	C 	0.18804	0.75	0.75	-0.053
Mof_C 	C 	0.81196	0.25	0.75	-0.053
Mof_C 	C 	0.81196	0.75	0.25	-0.053
Mof_C 	C 	0.31196	0.75	0.75	-0.053
Mof_C 	C 	0.31196	0.25	0.25	-0.053
_end
