# CIF file generated by openbabel 3.1.0, see https://openbabel.org
data_I
_chemical_name_common 'image0'
_cell_length_a 24.748
_cell_length_b 32.354
_cell_length_c 21.712
_cell_angle_alpha 90
_cell_angle_beta 90
_cell_angle_gamma 90
_space_group_name_H-M_alt 'P 1'
_space_group_name_Hall 'P 1'
loop_
    _symmetry_equiv_pos_as_xyz
    x,y,z
loop_
    _atom_site_label
    _atom_site_type_symbol
    _atom_site_fract_x
    _atom_site_fract_y
    _atom_site_fract_z
    _atom_site_occupancy
    C1       C        0.59140    0.32290    0.20890    1.000
    C2       C        0.56850    0.30930    0.26280    1.000
    H1       H        0.54280    0.28840    0.26150    1.000
    C3       C        0.58320    0.32630    0.32010    1.000
    C4       C        0.62480    0.35650    0.32100    1.000
    H2       H        0.63970    0.36540    0.35800    1.000
    C5       C        0.64250    0.37230    0.26550    1.000
    C6       C        0.62550    0.35780    0.21040    1.000
    H3       H        0.63610    0.37070    0.17410    1.000
    C7       C        0.57070    0.30670    0.14980    1.000
    C8       C        0.56550    0.30970    0.38200    1.000
    C9       C        0.82540    0.44430    0.63170    1.000
    C10      C        0.81640    0.43880    0.40060    1.000
    C11      C        0.87390    0.39180    0.45960    1.000
    H4       H        0.88110    0.37860    0.42250    1.000
    C12      C        0.84090    0.42470    0.45930    1.000
    C13      C        0.82320    0.44130    0.51340    1.000
    H5       H        0.79920    0.46340    0.51300    1.000
    C14      C        0.84120    0.42480    0.57020    1.000
    C15      C        0.88300    0.39400    0.56970    1.000
    H6       H        0.89970    0.38610    0.60620    1.000
    C16      C        0.89820    0.37630    0.51390    1.000
    O1       O        0.54330    0.27450    0.15090    1.000
    O2       O        0.59380    0.32230    0.10190    1.000
    O3       O        0.69100    0.43290    0.20880    1.000
    O4       O        0.74430    0.38681    0.27310    1.000
    O5       O        0.68580    0.43730    0.32040    1.000
    O6       O        0.55160    0.26726    0.01370    1.000
    O7       O        0.45920    0.22908    0.01240    1.000
    O8       O        0.78580    0.47010    0.40120    1.000
    O9       O        0.83160    0.42210    0.67620    1.000
    O10      O        0.79710    0.47570    0.63030    1.000
    O11      O        0.53320    0.27990    0.38090    1.000
    O12      O        0.57510    0.33190    0.42530    1.000
    O13      O        0.83940    0.42330    0.35130    1.000
    O14      O        0.93900    0.31160    0.56820    1.000
    O15      O        0.99700    0.35730    0.51750    1.000
    S1       S        0.69501    0.41073    0.26680    1.000
    S2       S        0.94647    0.33648    0.51320    1.000
    Cu1      Cu       0.50808    0.24579    0.94505    1.000
    Cu2      Cu       0.82347    0.42376    0.26319    1.000
    Cu3      Cu       0.57767    0.32398    0.01391    1.000
    Cu4      Cu       0.50600    0.24623    0.08346    1.000
    O16      O        0.93920    0.31540    0.45880    1.000
    C17      C        0.59140    0.82290    0.70890    1.000
    C18      C        0.56850    0.80930    0.76280    1.000
    H7       H        0.54280    0.78840    0.76150    1.000
    C19      C        0.58320    0.82630    0.82010    1.000
    C20      C        0.62480    0.85650    0.82100    1.000
    H8       H        0.63970    0.86540    0.85800    1.000
    C21      C        0.64250    0.87230    0.76550    1.000
    C22      C        0.62550    0.85780    0.71040    1.000
    H9       H        0.63610    0.87070    0.67410    1.000
    C23      C        0.57070    0.80670    0.64980    1.000
    C24      C        0.56550    0.80970    0.88200    1.000
    C25      C        0.82540    0.94430    0.13170    1.000
    C26      C        0.81640    0.93880    0.90060    1.000
    C27      C        0.87390    0.89180    0.95960    1.000
    H10      H        0.88110    0.87860    0.92250    1.000
    C28      C        0.84090    0.92470    0.95930    1.000
    C29      C        0.82320    0.94130    0.01340    1.000
    H11      H        0.79920    0.96340    0.01300    1.000
    C30      C        0.84120    0.92480    0.07020    1.000
    C31      C        0.88300    0.89400    0.06970    1.000
    H12      H        0.89970    0.88610    0.10620    1.000
    C32      C        0.89820    0.87630    0.01390    1.000
    O17      O        0.54330    0.77450    0.65090    1.000
    O18      O        0.59380    0.82230    0.60190    1.000
    O19      O        0.69100    0.93290    0.70880    1.000
    O20      O        0.74430    0.88681    0.77310    1.000
    O21      O        0.68580    0.93730    0.82040    1.000
    O22      O        0.55160    0.76726    0.51370    1.000
    O23      O        0.45920    0.72908    0.51240    1.000
    O24      O        0.78580    0.97010    0.90120    1.000
    O25      O        0.83160    0.92210    0.17620    1.000
    O26      O        0.79710    0.97570    0.13030    1.000
    O27      O        0.53320    0.77990    0.88090    1.000
    O28      O        0.57510    0.83190    0.92530    1.000
    O29      O        0.83940    0.92330    0.85130    1.000
    O30      O        0.93900    0.81160    0.06820    1.000
    O31      O        0.99700    0.85730    0.01750    1.000
    S3       S        0.69501    0.91073    0.76680    1.000
    S4       S        0.94647    0.83648    0.01320    1.000
    Cu5      Cu       0.50808    0.74579    0.44505    1.000
    Cu6      Cu       0.82347    0.92376    0.76319    1.000
    Cu7      Cu       0.57767    0.82398    0.51391    1.000
    Cu8      Cu       0.50600    0.74623    0.58346    1.000
    O32      O        0.93920    0.81540    0.95880    1.000
    C33      C        0.09140    0.32290    0.70890    1.000
    C34      C        0.06850    0.30930    0.76280    1.000
    H13      H        0.04280    0.28840    0.76150    1.000
    C35      C        0.08320    0.32630    0.82010    1.000
    C36      C        0.12480    0.35650    0.82100    1.000
    H14      H        0.13970    0.36540    0.85800    1.000
    C37      C        0.14250    0.37230    0.76550    1.000
    C38      C        0.12550    0.35780    0.71040    1.000
    H15      H        0.13610    0.37070    0.67410    1.000
    C39      C        0.07070    0.30670    0.64980    1.000
    C40      C        0.06550    0.30970    0.88200    1.000
    C41      C        0.32540    0.44430    0.13170    1.000
    C42      C        0.31640    0.43880    0.90060    1.000
    C43      C        0.37390    0.39180    0.95960    1.000
    H16      H        0.38110    0.37860    0.92250    1.000
    C44      C        0.34090    0.42470    0.95930    1.000
    C45      C        0.32320    0.44130    0.01340    1.000
    H17      H        0.29920    0.46340    0.01300    1.000
    C46      C        0.34120    0.42480    0.07020    1.000
    C47      C        0.38300    0.39400    0.06970    1.000
    H18      H        0.39970    0.38610    0.10620    1.000
    C48      C        0.39820    0.37630    0.01390    1.000
    O33      O        0.04330    0.27450    0.65090    1.000
    O34      O        0.09380    0.32230    0.60190    1.000
    O35      O        0.19100    0.43290    0.70880    1.000
    O36      O        0.24430    0.38681    0.77310    1.000
    O37      O        0.18580    0.43730    0.82040    1.000
    O38      O        0.05160    0.26726    0.51370    1.000
    O39      O        0.95920    0.22908    0.51240    1.000
    O40      O        0.28580    0.47010    0.90120    1.000
    O41      O        0.33160    0.42210    0.17620    1.000
    O42      O        0.29710    0.47570    0.13030    1.000
    O43      O        0.03320    0.27990    0.88090    1.000
    O44      O        0.07510    0.33190    0.92530    1.000
    O45      O        0.33940    0.42330    0.85130    1.000
    O46      O        0.43900    0.31160    0.06820    1.000
    O47      O        0.49700    0.35730    0.01750    1.000
    S5       S        0.19501    0.41073    0.76680    1.000
    S6       S        0.44647    0.33648    0.01320    1.000
    Cu9      Cu       0.00808    0.24579    0.44505    1.000
    Cu10     Cu       0.32347    0.42376    0.76319    1.000
    Cu11     Cu       0.07767    0.32398    0.51391    1.000
    Cu12     Cu       0.00600    0.24623    0.58346    1.000
    O48      O        0.43920    0.31540    0.95880    1.000
    C49      C        0.09140    0.82290    0.20890    1.000
    C50      C        0.06850    0.80930    0.26280    1.000
    H19      H        0.04280    0.78840    0.26150    1.000
    C51      C        0.08320    0.82630    0.32010    1.000
    C52      C        0.12480    0.85650    0.32100    1.000
    H20      H        0.13970    0.86540    0.35800    1.000
    C53      C        0.14250    0.87230    0.26550    1.000
    C54      C        0.12550    0.85780    0.21040    1.000
    H21      H        0.13610    0.87070    0.17410    1.000
    C55      C        0.07070    0.80670    0.14980    1.000
    C56      C        0.06550    0.80970    0.38200    1.000
    C57      C        0.32540    0.94430    0.63170    1.000
    C58      C        0.31640    0.93880    0.40060    1.000
    C59      C        0.37390    0.89180    0.45960    1.000
    H22      H        0.38110    0.87860    0.42250    1.000
    C60      C        0.34090    0.92470    0.45930    1.000
    C61      C        0.32320    0.94130    0.51340    1.000
    H23      H        0.29920    0.96340    0.51300    1.000
    C62      C        0.34120    0.92480    0.57020    1.000
    C63      C        0.38300    0.89400    0.56970    1.000
    H24      H        0.39970    0.88610    0.60620    1.000
    C64      C        0.39820    0.87630    0.51390    1.000
    O49      O        0.04330    0.77450    0.15090    1.000
    O50      O        0.09380    0.82230    0.10190    1.000
    O51      O        0.19100    0.93290    0.20880    1.000
    O52      O        0.24430    0.88681    0.27310    1.000
    O53      O        0.18580    0.93730    0.32040    1.000
    O54      O        0.05160    0.76726    0.01370    1.000
    O55      O        0.95920    0.72908    0.01240    1.000
    O56      O        0.28580    0.97010    0.40120    1.000
    O57      O        0.33160    0.92210    0.67620    1.000
    O58      O        0.29710    0.97570    0.63030    1.000
    O59      O        0.03320    0.77990    0.38090    1.000
    O60      O        0.07510    0.83190    0.42530    1.000
    O61      O        0.33940    0.92330    0.35130    1.000
    O62      O        0.43900    0.81160    0.56820    1.000
    O63      O        0.49700    0.85730    0.51750    1.000
    S7       S        0.19501    0.91073    0.26680    1.000
    S8       S        0.44647    0.83648    0.51320    1.000
    Cu13     Cu       0.00808    0.74579    0.94505    1.000
    Cu14     Cu       0.32347    0.92376    0.26319    1.000
    Cu15     Cu       0.07767    0.82398    0.01391    1.000
    Cu16     Cu       0.00600    0.74623    0.08346    1.000
    O64      O        0.43920    0.81540    0.45880    1.000
    C65      C        0.40860    0.67710    0.20890    1.000
    C66      C        0.43150    0.69070    0.26280    1.000
    H25      H        0.45720    0.71160    0.26150    1.000
    C67      C        0.41680    0.67370    0.32010    1.000
    C68      C        0.37520    0.64350    0.32100    1.000
    H26      H        0.36030    0.63460    0.35800    1.000
    C69      C        0.35750    0.62770    0.26550    1.000
    C70      C        0.37450    0.64220    0.21040    1.000
    H27      H        0.36390    0.62930    0.17410    1.000
    C71      C        0.42930    0.69330    0.14980    1.000
    C72      C        0.43450    0.69030    0.38200    1.000
    C73      C        0.17460    0.55570    0.63170    1.000
    C74      C        0.18360    0.56120    0.40060    1.000
    C75      C        0.12610    0.60820    0.45960    1.000
    H28      H        0.11890    0.62140    0.42250    1.000
    C76      C        0.15910    0.57530    0.45930    1.000
    C77      C        0.17680    0.55870    0.51340    1.000
    H29      H        0.20080    0.53660    0.51300    1.000
    C78      C        0.15880    0.57520    0.57020    1.000
    C79      C        0.11700    0.60600    0.56970    1.000
    H30      H        0.10030    0.61390    0.60620    1.000
    C80      C        0.10180    0.62370    0.51390    1.000
    O65      O        0.45670    0.72550    0.15090    1.000
    O66      O        0.40620    0.67770    0.10190    1.000
    O67      O        0.30900    0.56710    0.20880    1.000
    O68      O        0.25570    0.61319    0.27310    1.000
    O69      O        0.31420    0.56270    0.32040    1.000
    O70      O        0.44840    0.73274    0.01370    1.000
    O71      O        0.54080    0.77092    0.01240    1.000
    O72      O        0.21420    0.52990    0.40120    1.000
    O73      O        0.16840    0.57790    0.67620    1.000
    O74      O        0.20290    0.52430    0.63030    1.000
    O75      O        0.46680    0.72010    0.38090    1.000
    O76      O        0.42490    0.66810    0.42530    1.000
    O77      O        0.16060    0.57670    0.35130    1.000
    O78      O        0.06100    0.68840    0.56820    1.000
    O79      O        0.00300    0.64270    0.51750    1.000
    S9       S        0.30499    0.58927    0.26680    1.000
    S10      S        0.05353    0.66352    0.51320    1.000
    Cu17     Cu       0.49192    0.75421    0.94505    1.000
    Cu18     Cu       0.17653    0.57624    0.26319    1.000
    Cu19     Cu       0.42233    0.67602    0.01391    1.000
    Cu20     Cu       0.49400    0.75377    0.08346    1.000
    O80      O        0.06080    0.68460    0.45880    1.000
    C81      C        0.40860    0.17710    0.70890    1.000
    C82      C        0.43150    0.19070    0.76280    1.000
    H31      H        0.45720    0.21160    0.76150    1.000
    C83      C        0.41680    0.17370    0.82010    1.000
    C84      C        0.37520    0.14350    0.82100    1.000
    H32      H        0.36030    0.13460    0.85800    1.000
    C85      C        0.35750    0.12770    0.76550    1.000
    C86      C        0.37450    0.14220    0.71040    1.000
    H33      H        0.36390    0.12930    0.67410    1.000
    C87      C        0.42930    0.19330    0.64980    1.000
    C88      C        0.43450    0.19030    0.88200    1.000
    C89      C        0.17460    0.05570    0.13170    1.000
    C90      C        0.18360    0.06120    0.90060    1.000
    C91      C        0.12610    0.10820    0.95960    1.000
    H34      H        0.11890    0.12140    0.92250    1.000
    C92      C        0.15910    0.07530    0.95930    1.000
    C93      C        0.17680    0.05870    0.01340    1.000
    H35      H        0.20080    0.03660    0.01300    1.000
    C94      C        0.15880    0.07520    0.07020    1.000
    C95      C        0.11700    0.10600    0.06970    1.000
    H36      H        0.10030    0.11390    0.10620    1.000
    C96      C        0.10180    0.12370    0.01390    1.000
    O81      O        0.45670    0.22550    0.65090    1.000
    O82      O        0.40620    0.17770    0.60190    1.000
    O83      O        0.30900    0.06710    0.70880    1.000
    O84      O        0.25570    0.11319    0.77310    1.000
    O85      O        0.31420    0.06270    0.82040    1.000
    O86      O        0.44840    0.23274    0.51370    1.000
    O87      O        0.54080    0.27092    0.51240    1.000
    O88      O        0.21420    0.02990    0.90120    1.000
    O89      O        0.16840    0.07790    0.17620    1.000
    O90      O        0.20290    0.02430    0.13030    1.000
    O91      O        0.46680    0.22010    0.88090    1.000
    O92      O        0.42490    0.16810    0.92530    1.000
    O93      O        0.16060    0.07670    0.85130    1.000
    O94      O        0.06100    0.18840    0.06820    1.000
    O95      O        0.00300    0.14270    0.01750    1.000
    S11      S        0.30499    0.08927    0.76680    1.000
    S12      S        0.05353    0.16352    0.01320    1.000
    Cu21     Cu       0.49192    0.25421    0.44505    1.000
    Cu22     Cu       0.17653    0.07624    0.76319    1.000
    Cu23     Cu       0.42233    0.17602    0.51391    1.000
    Cu24     Cu       0.49400    0.25377    0.58346    1.000
    O96      O        0.06080    0.18460    0.95880    1.000
    C97      C        0.90860    0.67710    0.70890    1.000
    C98      C        0.93150    0.69070    0.76280    1.000
    H37      H        0.95720    0.71160    0.76150    1.000
    C99      C        0.91680    0.67370    0.82010    1.000
    C100     C        0.87520    0.64350    0.82100    1.000
    H38      H        0.86030    0.63460    0.85800    1.000
    C101     C        0.85750    0.62770    0.76550    1.000
    C102     C        0.87450    0.64220    0.71040    1.000
    H39      H        0.86390    0.62930    0.67410    1.000
    C103     C        0.92930    0.69330    0.64980    1.000
    C104     C        0.93450    0.69030    0.88200    1.000
    C105     C        0.67460    0.55570    0.13170    1.000
    C106     C        0.68360    0.56120    0.90060    1.000
    C107     C        0.62610    0.60820    0.95960    1.000
    H40      H        0.61890    0.62140    0.92250    1.000
    C108     C        0.65910    0.57530    0.95930    1.000
    C109     C        0.67680    0.55870    0.01340    1.000
    H41      H        0.70080    0.53660    0.01300    1.000
    C110     C        0.65880    0.57520    0.07020    1.000
    C111     C        0.61700    0.60600    0.06970    1.000
    H42      H        0.60030    0.61390    0.10620    1.000
    C112     C        0.60180    0.62370    0.01390    1.000
    O97      O        0.95670    0.72550    0.65090    1.000
    O98      O        0.90620    0.67770    0.60190    1.000
    O99      O        0.80900    0.56710    0.70880    1.000
    O100     O        0.75570    0.61319    0.77310    1.000
    O101     O        0.81420    0.56270    0.82040    1.000
    O102     O        0.94840    0.73274    0.51370    1.000
    O103     O        0.04080    0.77092    0.51240    1.000
    O104     O        0.71420    0.52990    0.90120    1.000
    O105     O        0.66840    0.57790    0.17620    1.000
    O106     O        0.70290    0.52430    0.13030    1.000
    O107     O        0.96680    0.72010    0.88090    1.000
    O108     O        0.92490    0.66810    0.92530    1.000
    O109     O        0.66060    0.57670    0.85130    1.000
    O110     O        0.56100    0.68840    0.06820    1.000
    O111     O        0.50300    0.64270    0.01750    1.000
    S13      S        0.80499    0.58927    0.76680    1.000
    S14      S        0.55353    0.66352    0.01320    1.000
    Cu25     Cu       0.99192    0.75421    0.44505    1.000
    Cu26     Cu       0.67653    0.57624    0.76319    1.000
    Cu27     Cu       0.92233    0.67602    0.51391    1.000
    Cu28     Cu       0.99400    0.75377    0.58346    1.000
    O112     O        0.56080    0.68460    0.95880    1.000
    C113     C        0.90860    0.17710    0.20890    1.000
    C114     C        0.93150    0.19070    0.26280    1.000
    H43      H        0.95720    0.21160    0.26150    1.000
    C115     C        0.91680    0.17370    0.32010    1.000
    C116     C        0.87520    0.14350    0.32100    1.000
    H44      H        0.86030    0.13460    0.35800    1.000
    C117     C        0.85750    0.12770    0.26550    1.000
    C118     C        0.87450    0.14220    0.21040    1.000
    H45      H        0.86390    0.12930    0.17410    1.000
    C119     C        0.92930    0.19330    0.14980    1.000
    C120     C        0.93450    0.19030    0.38200    1.000
    C121     C        0.67460    0.05570    0.63170    1.000
    C122     C        0.68360    0.06120    0.40060    1.000
    C123     C        0.62610    0.10820    0.45960    1.000
    H46      H        0.61890    0.12140    0.42250    1.000
    C124     C        0.65910    0.07530    0.45930    1.000
    C125     C        0.67680    0.05870    0.51340    1.000
    H47      H        0.70080    0.03660    0.51300    1.000
    C126     C        0.65880    0.07520    0.57020    1.000
    C127     C        0.61700    0.10600    0.56970    1.000
    H48      H        0.60030    0.11390    0.60620    1.000
    C128     C        0.60180    0.12370    0.51390    1.000
    O113     O        0.95670    0.22550    0.15090    1.000
    O114     O        0.90620    0.17770    0.10190    1.000
    O115     O        0.80900    0.06710    0.20880    1.000
    O116     O        0.75570    0.11319    0.27310    1.000
    O117     O        0.81420    0.06270    0.32040    1.000
    O118     O        0.94840    0.23274    0.01370    1.000
    O119     O        0.04080    0.27092    0.01240    1.000
    O120     O        0.71420    0.02990    0.40120    1.000
    O121     O        0.66840    0.07790    0.67620    1.000
    O122     O        0.70290    0.02430    0.63030    1.000
    O123     O        0.96680    0.22010    0.38090    1.000
    O124     O        0.92490    0.16810    0.42530    1.000
    O125     O        0.66060    0.07670    0.35130    1.000
    O126     O        0.56100    0.18840    0.56820    1.000
    O127     O        0.50300    0.14270    0.51750    1.000
    S15      S        0.80499    0.08927    0.26680    1.000
    S16      S        0.55353    0.16352    0.51320    1.000
    Cu29     Cu       0.99192    0.25421    0.94505    1.000
    Cu30     Cu       0.67653    0.07624    0.26319    1.000
    Cu31     Cu       0.92233    0.17602    0.01391    1.000
    Cu32     Cu       0.99400    0.25377    0.08346    1.000
    O128     O        0.56080    0.18460    0.45880    1.000
    C129     C        0.84140    0.92710    0.45890    1.000
    C130     C        0.81850    0.94070    0.51280    1.000
    H49      H        0.79280    0.96160    0.51150    1.000
    C131     C        0.83320    0.92370    0.57010    1.000
    C132     C        0.87480    0.89350    0.57100    1.000
    H50      H        0.88970    0.88460    0.60800    1.000
    C133     C        0.89250    0.87770    0.51550    1.000
    C134     C        0.87550    0.89220    0.46040    1.000
    H51      H        0.88610    0.87930    0.42410    1.000
    C135     C        0.82070    0.94330    0.39980    1.000
    C136     C        0.81550    0.94030    0.63200    1.000
    C137     C        0.07540    0.80570    0.88170    1.000
    C138     C        0.06640    0.81120    0.65060    1.000
    C139     C        0.12390    0.85820    0.70960    1.000
    H52      H        0.13110    0.87140    0.67250    1.000
    C140     C        0.09090    0.82530    0.70930    1.000
    C141     C        0.07320    0.80870    0.76340    1.000
    H53      H        0.04920    0.78660    0.76300    1.000
    C142     C        0.09120    0.82520    0.82020    1.000
    C143     C        0.13300    0.85600    0.81970    1.000
    H54      H        0.14970    0.86390    0.85620    1.000
    C144     C        0.14820    0.87370    0.76390    1.000
    O129     O        0.79330    0.97550    0.40090    1.000
    O130     O        0.84380    0.92770    0.35190    1.000
    O131     O        0.94100    0.81710    0.45880    1.000
    O132     O        0.99430    0.86319    0.52310    1.000
    O133     O        0.93580    0.81270    0.57040    1.000
    O134     O        0.80160    0.98274    0.26370    1.000
    O135     O        0.70920    0.02092    0.26240    1.000
    O136     O        0.03580    0.77990    0.65120    1.000
    O137     O        0.08160    0.82790    0.92620    1.000
    O138     O        0.04710    0.77430    0.88030    1.000
    O139     O        0.78320    0.97010    0.63090    1.000
    O140     O        0.82510    0.91810    0.67530    1.000
    O141     O        0.08940    0.82670    0.60130    1.000
    O142     O        0.18900    0.93840    0.81820    1.000
    O143     O        0.24700    0.89270    0.76750    1.000
    S17      S        0.94501    0.83927    0.51680    1.000
    S18      S        0.19647    0.91352    0.76320    1.000
    Cu33     Cu       0.75808    0.00421    0.19505    1.000
    Cu34     Cu       0.07347    0.82624    0.51319    1.000
    Cu35     Cu       0.82767    0.92602    0.26391    1.000
    Cu36     Cu       0.75600    0.00377    0.33346    1.000
    O144     O        0.18920    0.93460    0.70880    1.000
    C145     C        0.84140    0.42710    0.95890    1.000
    C146     C        0.81850    0.44070    0.01280    1.000
    H55      H        0.79280    0.46160    0.01150    1.000
    C147     C        0.83320    0.42370    0.07010    1.000
    C148     C        0.87480    0.39350    0.07100    1.000
    H56      H        0.88970    0.38460    0.10800    1.000
    C149     C        0.89250    0.37770    0.01550    1.000
    C150     C        0.87550    0.39220    0.96040    1.000
    H57      H        0.88610    0.37930    0.92410    1.000
    C151     C        0.82070    0.44330    0.89980    1.000
    C152     C        0.81550    0.44030    0.13200    1.000
    C153     C        0.07540    0.30570    0.38170    1.000
    C154     C        0.06640    0.31120    0.15060    1.000
    C155     C        0.12390    0.35820    0.20960    1.000
    H58      H        0.13110    0.37140    0.17250    1.000
    C156     C        0.09090    0.32530    0.20930    1.000
    C157     C        0.07320    0.30870    0.26340    1.000
    H59      H        0.04920    0.28660    0.26300    1.000
    C158     C        0.09120    0.32520    0.32020    1.000
    C159     C        0.13300    0.35600    0.31970    1.000
    H60      H        0.14970    0.36390    0.35620    1.000
    C160     C        0.14820    0.37370    0.26390    1.000
    O145     O        0.79330    0.47550    0.90090    1.000
    O146     O        0.84380    0.42770    0.85190    1.000
    O147     O        0.94100    0.31710    0.95880    1.000
    O148     O        0.99430    0.36319    0.02310    1.000
    O149     O        0.93580    0.31270    0.07040    1.000
    O150     O        0.80160    0.48274    0.76370    1.000
    O151     O        0.70920    0.52092    0.76240    1.000
    O152     O        0.03580    0.27990    0.15120    1.000
    O153     O        0.08160    0.32790    0.42620    1.000
    O154     O        0.04710    0.27430    0.38030    1.000
    O155     O        0.78320    0.47010    0.13090    1.000
    O156     O        0.82510    0.41810    0.17530    1.000
    O157     O        0.08940    0.32670    0.10130    1.000
    O158     O        0.18900    0.43840    0.31820    1.000
    O159     O        0.24700    0.39270    0.26750    1.000
    S19      S        0.94501    0.33927    0.01680    1.000
    S20      S        0.19647    0.41352    0.26320    1.000
    Cu37     Cu       0.75808    0.50421    0.69505    1.000
    Cu38     Cu       0.07347    0.32624    0.01319    1.000
    Cu39     Cu       0.82767    0.42602    0.76391    1.000
    Cu40     Cu       0.75600    0.50377    0.83346    1.000
    O160     O        0.18920    0.43460    0.20880    1.000
    C161     C        0.34140    0.92710    0.95890    1.000
    C162     C        0.31850    0.94070    0.01280    1.000
    H61      H        0.29280    0.96160    0.01150    1.000
    C163     C        0.33320    0.92370    0.07010    1.000
    C164     C        0.37480    0.89350    0.07100    1.000
    H62      H        0.38970    0.88460    0.10800    1.000
    C165     C        0.39250    0.87770    0.01550    1.000
    C166     C        0.37550    0.89220    0.96040    1.000
    H63      H        0.38610    0.87930    0.92410    1.000
    C167     C        0.32070    0.94330    0.89980    1.000
    C168     C        0.31550    0.94030    0.13200    1.000
    C169     C        0.57540    0.80570    0.38170    1.000
    C170     C        0.56640    0.81120    0.15060    1.000
    C171     C        0.62390    0.85820    0.20960    1.000
    H64      H        0.63110    0.87140    0.17250    1.000
    C172     C        0.59090    0.82530    0.20930    1.000
    C173     C        0.57320    0.80870    0.26340    1.000
    H65      H        0.54920    0.78660    0.26300    1.000
    C174     C        0.59120    0.82520    0.32020    1.000
    C175     C        0.63300    0.85600    0.31970    1.000
    H66      H        0.64970    0.86390    0.35620    1.000
    C176     C        0.64820    0.87370    0.26390    1.000
    O161     O        0.29330    0.97550    0.90090    1.000
    O162     O        0.34380    0.92770    0.85190    1.000
    O163     O        0.44100    0.81710    0.95880    1.000
    O164     O        0.49430    0.86319    0.02310    1.000
    O165     O        0.43580    0.81270    0.07040    1.000
    O166     O        0.30160    0.98274    0.76370    1.000
    O167     O        0.20920    0.02092    0.76240    1.000
    O168     O        0.53580    0.77990    0.15120    1.000
    O169     O        0.58160    0.82790    0.42620    1.000
    O170     O        0.54710    0.77430    0.38030    1.000
    O171     O        0.28320    0.97010    0.13090    1.000
    O172     O        0.32510    0.91810    0.17530    1.000
    O173     O        0.58940    0.82670    0.10130    1.000
    O174     O        0.68900    0.93840    0.31820    1.000
    O175     O        0.74700    0.89270    0.26750    1.000
    S21      S        0.44501    0.83927    0.01680    1.000
    S22      S        0.69647    0.91352    0.26320    1.000
    Cu41     Cu       0.25808    0.00421    0.69505    1.000
    Cu42     Cu       0.57347    0.82624    0.01319    1.000
    Cu43     Cu       0.32767    0.92602    0.76391    1.000
    Cu44     Cu       0.25600    0.00377    0.83346    1.000
    O176     O        0.68920    0.93460    0.20880    1.000
    C177     C        0.34140    0.42710    0.45890    1.000
    C178     C        0.31850    0.44070    0.51280    1.000
    H67      H        0.29280    0.46160    0.51150    1.000
    C179     C        0.33320    0.42370    0.57010    1.000
    C180     C        0.37480    0.39350    0.57100    1.000
    H68      H        0.38970    0.38460    0.60800    1.000
    C181     C        0.39250    0.37770    0.51550    1.000
    C182     C        0.37550    0.39220    0.46040    1.000
    H69      H        0.38610    0.37930    0.42410    1.000
    C183     C        0.32070    0.44330    0.39980    1.000
    C184     C        0.31550    0.44030    0.63200    1.000
    C185     C        0.57540    0.30570    0.88170    1.000
    C186     C        0.56640    0.31120    0.65060    1.000
    C187     C        0.62390    0.35820    0.70960    1.000
    H70      H        0.63110    0.37140    0.67250    1.000
    C188     C        0.59090    0.32530    0.70930    1.000
    C189     C        0.57320    0.30870    0.76340    1.000
    H71      H        0.54920    0.28660    0.76300    1.000
    C190     C        0.59120    0.32520    0.82020    1.000
    C191     C        0.63300    0.35600    0.81970    1.000
    H72      H        0.64970    0.36390    0.85620    1.000
    C192     C        0.64820    0.37370    0.76390    1.000
    O177     O        0.29330    0.47550    0.40090    1.000
    O178     O        0.34380    0.42770    0.35190    1.000
    O179     O        0.44100    0.31710    0.45880    1.000
    O180     O        0.49430    0.36319    0.52310    1.000
    O181     O        0.43580    0.31270    0.57040    1.000
    O182     O        0.30160    0.48274    0.26370    1.000
    O183     O        0.20920    0.52092    0.26240    1.000
    O184     O        0.53580    0.27990    0.65120    1.000
    O185     O        0.58160    0.32790    0.92620    1.000
    O186     O        0.54710    0.27430    0.88030    1.000
    O187     O        0.28320    0.47010    0.63090    1.000
    O188     O        0.32510    0.41810    0.67530    1.000
    O189     O        0.58940    0.32670    0.60130    1.000
    O190     O        0.68900    0.43840    0.81820    1.000
    O191     O        0.74700    0.39270    0.76750    1.000
    S23      S        0.44501    0.33927    0.51680    1.000
    S24      S        0.69647    0.41352    0.76320    1.000
    Cu45     Cu       0.25808    0.50421    0.19505    1.000
    Cu46     Cu       0.57347    0.32624    0.51319    1.000
    Cu47     Cu       0.32767    0.42602    0.26391    1.000
    Cu48     Cu       0.25600    0.50377    0.33346    1.000
    O192     O        0.68920    0.43460    0.70880    1.000
    C193     C        0.65860    0.57290    0.45890    1.000
    C194     C        0.68150    0.55930    0.51280    1.000
    H73      H        0.70720    0.53840    0.51150    1.000
    C195     C        0.66680    0.57630    0.57010    1.000
    C196     C        0.62520    0.60650    0.57100    1.000
    H74      H        0.61030    0.61540    0.60800    1.000
    C197     C        0.60750    0.62230    0.51550    1.000
    C198     C        0.62450    0.60780    0.46040    1.000
    H75      H        0.61390    0.62070    0.42410    1.000
    C199     C        0.67930    0.55670    0.39980    1.000
    C200     C        0.68450    0.55970    0.63200    1.000
    C201     C        0.42460    0.69430    0.88170    1.000
    C202     C        0.43360    0.68880    0.65060    1.000
    C203     C        0.37610    0.64180    0.70960    1.000
    H76      H        0.36890    0.62860    0.67250    1.000
    C204     C        0.40910    0.67470    0.70930    1.000
    C205     C        0.42680    0.69130    0.76340    1.000
    H77      H        0.45080    0.71340    0.76300    1.000
    C206     C        0.40880    0.67480    0.82020    1.000
    C207     C        0.36700    0.64400    0.81970    1.000
    H78      H        0.35030    0.63610    0.85620    1.000
    C208     C        0.35180    0.62630    0.76390    1.000
    O193     O        0.70670    0.52450    0.40090    1.000
    O194     O        0.65620    0.57230    0.35190    1.000
    O195     O        0.55900    0.68290    0.45880    1.000
    O196     O        0.50570    0.63681    0.52310    1.000
    O197     O        0.56420    0.68730    0.57040    1.000
    O198     O        0.69840    0.51726    0.26370    1.000
    O199     O        0.79080    0.47908    0.26240    1.000
    O200     O        0.46420    0.72010    0.65120    1.000
    O201     O        0.41840    0.67210    0.92620    1.000
    O202     O        0.45290    0.72570    0.88030    1.000
    O203     O        0.71680    0.52990    0.63090    1.000
    O204     O        0.67490    0.58190    0.67530    1.000
    O205     O        0.41060    0.67330    0.60130    1.000
    O206     O        0.31100    0.56160    0.81820    1.000
    O207     O        0.25300    0.60730    0.76750    1.000
    S25      S        0.55499    0.66073    0.51680    1.000
    S26      S        0.30353    0.58648    0.76320    1.000
    Cu49     Cu       0.74192    0.49579    0.19505    1.000
    Cu50     Cu       0.42653    0.67376    0.51319    1.000
    Cu51     Cu       0.67233    0.57398    0.26391    1.000
    Cu52     Cu       0.74400    0.49623    0.33346    1.000
    O208     O        0.31080    0.56540    0.70880    1.000
    C209     C        0.65860    0.07290    0.95890    1.000
    C210     C        0.68150    0.05930    0.01280    1.000
    H79      H        0.70720    0.03840    0.01150    1.000
    C211     C        0.66680    0.07630    0.07010    1.000
    C212     C        0.62520    0.10650    0.07100    1.000
    H80      H        0.61030    0.11540    0.10800    1.000
    C213     C        0.60750    0.12230    0.01550    1.000
    C214     C        0.62450    0.10780    0.96040    1.000
    H81      H        0.61390    0.12070    0.92410    1.000
    C215     C        0.67930    0.05670    0.89980    1.000
    C216     C        0.68450    0.05970    0.13200    1.000
    C217     C        0.42460    0.19430    0.38170    1.000
    C218     C        0.43360    0.18880    0.15060    1.000
    C219     C        0.37610    0.14180    0.20960    1.000
    H82      H        0.36890    0.12860    0.17250    1.000
    C220     C        0.40910    0.17470    0.20930    1.000
    C221     C        0.42680    0.19130    0.26340    1.000
    H83      H        0.45080    0.21340    0.26300    1.000
    C222     C        0.40880    0.17480    0.32020    1.000
    C223     C        0.36700    0.14400    0.31970    1.000
    H84      H        0.35030    0.13610    0.35620    1.000
    C224     C        0.35180    0.12630    0.26390    1.000
    O209     O        0.70670    0.02450    0.90090    1.000
    O210     O        0.65620    0.07230    0.85190    1.000
    O211     O        0.55900    0.18290    0.95880    1.000
    O212     O        0.50570    0.13681    0.02310    1.000
    O213     O        0.56420    0.18730    0.07040    1.000
    O214     O        0.69840    0.01726    0.76370    1.000
    O215     O        0.79080    0.97908    0.76240    1.000
    O216     O        0.46420    0.22010    0.15120    1.000
    O217     O        0.41840    0.17210    0.42620    1.000
    O218     O        0.45290    0.22570    0.38030    1.000
    O219     O        0.71680    0.02990    0.13090    1.000
    O220     O        0.67490    0.08190    0.17530    1.000
    O221     O        0.41060    0.17330    0.10130    1.000
    O222     O        0.31100    0.06160    0.31820    1.000
    O223     O        0.25300    0.10730    0.26750    1.000
    S27      S        0.55499    0.16073    0.01680    1.000
    S28      S        0.30353    0.08648    0.26320    1.000
    Cu53     Cu       0.74192    0.99579    0.69505    1.000
    Cu54     Cu       0.42653    0.17376    0.01319    1.000
    Cu55     Cu       0.67233    0.07398    0.76391    1.000
    Cu56     Cu       0.74400    0.99623    0.83346    1.000
    O224     O        0.31080    0.06540    0.20880    1.000
    C225     C        0.15860    0.57290    0.95890    1.000
    C226     C        0.18150    0.55930    0.01280    1.000
    H85      H        0.20720    0.53840    0.01150    1.000
    C227     C        0.16680    0.57630    0.07010    1.000
    C228     C        0.12520    0.60650    0.07100    1.000
    H86      H        0.11030    0.61540    0.10800    1.000
    C229     C        0.10750    0.62230    0.01550    1.000
    C230     C        0.12450    0.60780    0.96040    1.000
    H87      H        0.11390    0.62070    0.92410    1.000
    C231     C        0.17930    0.55670    0.89980    1.000
    C232     C        0.18450    0.55970    0.13200    1.000
    C233     C        0.92460    0.69430    0.38170    1.000
    C234     C        0.93360    0.68880    0.15060    1.000
    C235     C        0.87610    0.64180    0.20960    1.000
    H88      H        0.86890    0.62860    0.17250    1.000
    C236     C        0.90910    0.67470    0.20930    1.000
    C237     C        0.92680    0.69130    0.26340    1.000
    H89      H        0.95080    0.71340    0.26300    1.000
    C238     C        0.90880    0.67480    0.32020    1.000
    C239     C        0.86700    0.64400    0.31970    1.000
    H90      H        0.85030    0.63610    0.35620    1.000
    C240     C        0.85180    0.62630    0.26390    1.000
    O225     O        0.20670    0.52450    0.90090    1.000
    O226     O        0.15620    0.57230    0.85190    1.000
    O227     O        0.05900    0.68290    0.95880    1.000
    O228     O        0.00570    0.63681    0.02310    1.000
    O229     O        0.06420    0.68730    0.07040    1.000
    O230     O        0.19840    0.51726    0.76370    1.000
    O231     O        0.29080    0.47908    0.76240    1.000
    O232     O        0.96420    0.72010    0.15120    1.000
    O233     O        0.91840    0.67210    0.42620    1.000
    O234     O        0.95290    0.72570    0.38030    1.000
    O235     O        0.21680    0.52990    0.13090    1.000
    O236     O        0.17490    0.58190    0.17530    1.000
    O237     O        0.91060    0.67330    0.10130    1.000
    O238     O        0.81100    0.56160    0.31820    1.000
    O239     O        0.75300    0.60730    0.26750    1.000
    S29      S        0.05499    0.66073    0.01680    1.000
    S30      S        0.80353    0.58648    0.26320    1.000
    Cu57     Cu       0.24192    0.49579    0.69505    1.000
    Cu58     Cu       0.92653    0.67376    0.01319    1.000
    Cu59     Cu       0.17233    0.57398    0.76391    1.000
    Cu60     Cu       0.24400    0.49623    0.83346    1.000
    O240     O        0.81080    0.56540    0.20880    1.000
    C241     C        0.15860    0.07290    0.45890    1.000
    C242     C        0.18150    0.05930    0.51280    1.000
    H91      H        0.20720    0.03840    0.51150    1.000
    C243     C        0.16680    0.07630    0.57010    1.000
    C244     C        0.12520    0.10650    0.57100    1.000
    H92      H        0.11030    0.11540    0.60800    1.000
    C245     C        0.10750    0.12230    0.51550    1.000
    C246     C        0.12450    0.10780    0.46040    1.000
    H93      H        0.11390    0.12070    0.42410    1.000
    C247     C        0.17930    0.05670    0.39980    1.000
    C248     C        0.18450    0.05970    0.63200    1.000
    C249     C        0.92460    0.19430    0.88170    1.000
    C250     C        0.93360    0.18880    0.65060    1.000
    C251     C        0.87610    0.14180    0.70960    1.000
    H94      H        0.86890    0.12860    0.67250    1.000
    C252     C        0.90910    0.17470    0.70930    1.000
    C253     C        0.92680    0.19130    0.76340    1.000
    H95      H        0.95080    0.21340    0.76300    1.000
    C254     C        0.90880    0.17480    0.82020    1.000
    C255     C        0.86700    0.14400    0.81970    1.000
    H96      H        0.85030    0.13610    0.85620    1.000
    C256     C        0.85180    0.12630    0.76390    1.000
    O241     O        0.20670    0.02450    0.40090    1.000
    O242     O        0.15620    0.07230    0.35190    1.000
    O243     O        0.05900    0.18290    0.45880    1.000
    O244     O        0.00570    0.13681    0.52310    1.000
    O245     O        0.06420    0.18730    0.57040    1.000
    O246     O        0.19840    0.01726    0.26370    1.000
    O247     O        0.29080    0.97908    0.26240    1.000
    O248     O        0.96420    0.22010    0.65120    1.000
    O249     O        0.91840    0.17210    0.92620    1.000
    O250     O        0.95290    0.22570    0.88030    1.000
    O251     O        0.21680    0.02990    0.63090    1.000
    O252     O        0.17490    0.08190    0.67530    1.000
    O253     O        0.91060    0.17330    0.60130    1.000
    O254     O        0.81100    0.06160    0.81820    1.000
    O255     O        0.75300    0.10730    0.76750    1.000
    S31      S        0.05499    0.16073    0.51680    1.000
    S32      S        0.80353    0.08648    0.76320    1.000
    Cu61     Cu       0.24192    0.99579    0.19505    1.000
    Cu62     Cu       0.92653    0.17376    0.51319    1.000
    Cu63     Cu       0.17233    0.07398    0.26391    1.000
    Cu64     Cu       0.24400    0.99623    0.33346    1.000
    O256     O        0.81080    0.06540    0.70880    1.000
