# CIF file generated by openbabel 3.1.0, see https://openbabel.org
data_I
_chemical_name_common 'image0'
_cell_length_a 18.9175
_cell_length_b 18.9175
_cell_length_c 71.908
_cell_angle_alpha 90
_cell_angle_beta 90
_cell_angle_gamma 90
_space_group_name_H-M_alt 'P 1'
_space_group_name_Hall 'P 1'
loop_
    _symmetry_equiv_pos_as_xyz
    x,y,z
loop_
    _atom_site_label
    _atom_site_type_symbol
    _atom_site_fract_x
    _atom_site_fract_y
    _atom_site_fract_z
    _atom_site_occupancy
    Al1      Al       0.39683    0.64706    0.53690    1.000
    Al2      Al       0.34168    0.67141    0.49945    1.000
    Al3      Al       0.50432    0.52994    0.55566    1.000
    O1       O        0.46706    0.57874    0.53577    1.000
    H1       H        0.48550    0.56790    0.52380    1.000
    O2       O        0.40867    0.62303    0.48410    1.000
    O3       O        0.44993    0.69850    0.55399    1.000
    C1       C        0.69570    0.85290    0.70337    1.000
    O4       O        0.53797    0.48138    0.57733    1.000
    C2       C        0.56440    0.38960    0.59915    1.000
    C3       C        0.42000    0.25850    0.69031    1.000
    O5       O        0.49065    0.60678    0.57197    1.000
    C4       C        0.55770    0.29140    0.65245    1.000
    C5       C        0.20620    0.00310    0.67913    1.000
    C6       C        0.47370    0.67390    0.56947    1.000
    C7       C        0.33260    0.94040    0.66495    1.000
    C8       C        0.46620    0.83750    0.63709    1.000
    C9       C        0.60060    0.32580    0.60214    1.000
    H2       H        0.62660    0.30410    0.59240    1.000
    C10      C        0.40360    0.87320    0.64207    1.000
    H3       H        0.36530    0.87460    0.63350    1.000
    C11      C        0.56330    0.42080    0.57954    1.000
    C12      C        0.70720    0.86310    0.68381    1.000
    H4       H        0.75380    0.86430    0.67890    1.000
    C13      C        0.29370    0.25180    0.69014    1.000
    H5       H        0.25070    0.24960    0.68330    1.000
    C14      C        0.54780    0.21970    0.68643    1.000
    H6       H        0.54490    0.19510    0.69790    1.000
    C15      C        0.49870    0.29680    0.66312    1.000
    H7       H        0.46140    0.32670    0.65910    1.000
    C16      C        0.39710    0.90580    0.65906    1.000
    C17      C        0.27300    0.03710    0.68035    1.000
    H8       H        0.27490    0.08270    0.68590    1.000
    C18      C        0.52020    0.87400    0.66548    1.000
    C19      C        0.47710    0.71830    0.58595    1.000
    C20      C        0.41740    0.25860    0.70986    1.000
    H9       H        0.46010    0.26240    0.71670    1.000
    C21      C        0.20680    0.93860    0.67023    1.000
    H10      H        0.16300    0.91490    0.66870    1.000
    C22      C        0.29240    0.24860    0.70953    1.000
    C23      C        0.58000    0.86840    0.67954    1.000
    C24      C        0.61560    0.24940    0.65908    1.000
    H11      H        0.65780    0.24450    0.65200    1.000
    C25      C        0.52390    0.83840    0.64835    1.000
    H12      H        0.56630    0.81520    0.64470    1.000
    C26      C        0.62830    0.85530    0.71020    1.000
    H13      H        0.62030    0.85240    0.72320    1.000
    C27      C        0.49060    0.25880    0.68031    1.000
    C28      C        0.33580    0.00780    0.67396    1.000
    H14      H        0.37960    0.03170    0.67550    1.000
    C29      C        0.35820    0.25850    0.68059    1.000
    H15      H        0.35870    0.26300    0.66740    1.000
    C30      C        0.50710    0.73520    0.61801    1.000
    H16      H        0.53010    0.71940    0.62900    1.000
    C31      C        0.51130    0.69410    0.60206    1.000
    H17      H        0.53660    0.65070    0.60200    1.000
    C32      C        0.47020    0.79850    0.61843    1.000
    C33      C        0.57040    0.86210    0.69783    1.000
    H18      H        0.52360    0.86220    0.70270    1.000
    C34      C        0.64900    0.87130    0.67208    1.000
    H19      H        0.65570    0.87870    0.65910    1.000
    C35      C        0.52870    0.39220    0.63166    1.000
    H20      H        0.50480    0.41510    0.64160    1.000
    C36      C        0.56290    0.32770    0.63461    1.000
    C37      C        0.59750    0.29460    0.61989    1.000
    H21      H        0.61940    0.25010    0.62190    1.000
    C38      C        0.44120    0.78380    0.58620    1.000
    H22      H        0.41880    0.80070    0.57520    1.000
    C39      C        0.14480    0.03340    0.68729    1.000
    C40      C        0.35690    0.25360    0.71893    1.000
    H23      H        0.35720    0.25330    0.73210    1.000
    O6       O        0.14854    0.09511    0.69402    1.000
    O7       O        0.08800    0.99726    0.68760    1.000
    C41      C        0.26790    0.90540    0.66332    1.000
    H24      H        0.26520    0.86010    0.65770    1.000
    O8       O        0.58917    0.38122    0.56707    1.000
    C42      C        0.43850    0.82300    0.60211    1.000
    H25      H        0.41480    0.86730    0.60210    1.000
    C43      C        0.45610    0.90800    0.67070    1.000
    H26      H        0.45340    0.93250    0.68220    1.000
    C44      C        0.65390    0.09990    0.69006    1.000
    H27      H        0.60680    0.08280    0.69120    1.000
    C45      C        0.73850    0.19570    0.68182    1.000
    H28      H        0.74740    0.24290    0.67800    1.000
    C46      C        0.67040    0.16880    0.68279    1.000
    O9       O        0.75178    0.84253    0.73277    1.000
    O10      O        0.52277    0.45239    0.54091    1.000
    H29      H        0.48730    0.43970    0.53220    1.000
    C47      C        0.71470    0.05900    0.69541    1.000
    H30      H        0.70710    0.01320    0.70040    1.000
    C48      C        0.79430    0.14940    0.68683    1.000
    H31      H        0.84160    0.16550    0.68540    1.000
    C49      C        0.53020    0.42430    0.61305    1.000
    H32      H        0.50780    0.46840    0.61080    1.000
    C50      C        0.60770    0.21610    0.67635    1.000
    C51      C        0.78340    0.08260    0.69365    1.000
    C52      C        0.84200    0.03760    0.69796    1.000
    O11      O        0.83435    0.97379    0.70245    1.000
    O12      O        0.90469    0.06832    0.69803    1.000
    O13      O        0.22271    0.22997    0.73627    1.000
    C53      C        0.22550    0.23490    0.71871    1.000
    O14      O        0.17180    0.21664    0.70843    1.000
    C54      C        0.75870    0.84320    0.71479    1.000
    O15      O        0.81699    0.83680    0.70689    1.000
    O16      O        0.33932    0.60407    0.51879    1.000
    O17      O        0.42160    0.69861    0.51467    1.000
    O18      O        0.26325    0.62375    0.48941    1.000
    C55      C        0.47730    0.62160    0.49312    1.000
    H33      H        0.51480    0.61940    0.48350    1.000
    H34      H        0.48100    0.57860    0.50090    1.000
    C56      C        0.48790    0.68460    0.50480    1.000
    H35      H        0.52660    0.67610    0.51380    1.000
    H36      H        0.50090    0.72560    0.49700    1.000
    C57      C        0.22770    0.58000    0.50354    1.000
    H37      H        0.20510    0.53870    0.49750    1.000
    H38      H        0.19050    0.60800    0.50980    1.000
    C58      C        0.28130    0.55520    0.51757    1.000
    H39      H        0.25850    0.55080    0.52990    1.000
    H40      H        0.29920    0.50810    0.51390    1.000
    Al4      Al       0.60192    0.39767    0.54131    1.000
    Al5      Al       0.60317    0.35294    0.03690    1.000
    Al6      Al       0.65832    0.32859    0.99945    1.000
    Al7      Al       0.49568    0.47006    0.05566    1.000
    O19      O        0.53294    0.42126    0.03577    1.000
    H41      H        0.51450    0.43210    0.02380    1.000
    O20      O        0.59133    0.37697    0.98410    1.000
    O21      O        0.55007    0.30150    0.05399    1.000
    C59      C        0.30430    0.14710    0.20337    1.000
    O22      O        0.46203    0.51862    0.07733    1.000
    C60      C        0.43560    0.61040    0.09915    1.000
    C61      C        0.58000    0.74150    0.19031    1.000
    O23      O        0.50935    0.39322    0.07197    1.000
    C62      C        0.44230    0.70860    0.15245    1.000
    C63      C        0.79380    0.99690    0.17913    1.000
    C64      C        0.52630    0.32610    0.06947    1.000
    C65      C        0.66740    0.05960    0.16495    1.000
    C66      C        0.53380    0.16250    0.13709    1.000
    C67      C        0.39940    0.67420    0.10214    1.000
    H42      H        0.37340    0.69590    0.09240    1.000
    C68      C        0.59640    0.12680    0.14207    1.000
    H43      H        0.63470    0.12540    0.13350    1.000
    C69      C        0.43670    0.57920    0.07954    1.000
    C70      C        0.29280    0.13690    0.18381    1.000
    H44      H        0.24620    0.13570    0.17890    1.000
    C71      C        0.70630    0.74820    0.19014    1.000
    H45      H        0.74930    0.75040    0.18330    1.000
    C72      C        0.45220    0.78030    0.18643    1.000
    H46      H        0.45510    0.80490    0.19790    1.000
    C73      C        0.50130    0.70320    0.16312    1.000
    H47      H        0.53860    0.67330    0.15910    1.000
    C74      C        0.60290    0.09420    0.15906    1.000
    C75      C        0.72700    0.96290    0.18035    1.000
    H48      H        0.72510    0.91730    0.18590    1.000
    C76      C        0.47980    0.12600    0.16548    1.000
    C77      C        0.52290    0.28170    0.08595    1.000
    C78      C        0.58260    0.74140    0.20986    1.000
    H49      H        0.53990    0.73760    0.21670    1.000
    C79      C        0.79320    0.06140    0.17023    1.000
    H50      H        0.83700    0.08510    0.16870    1.000
    C80      C        0.70760    0.75140    0.20953    1.000
    C81      C        0.42000    0.13160    0.17954    1.000
    C82      C        0.38440    0.75060    0.15908    1.000
    H51      H        0.34220    0.75550    0.15200    1.000
    C83      C        0.47610    0.16160    0.14835    1.000
    H52      H        0.43370    0.18480    0.14470    1.000
    C84      C        0.37170    0.14470    0.21020    1.000
    H53      H        0.37970    0.14760    0.22320    1.000
    C85      C        0.50940    0.74120    0.18031    1.000
    C86      C        0.66420    0.99220    0.17396    1.000
    H54      H        0.62040    0.96830    0.17550    1.000
    C87      C        0.64180    0.74150    0.18059    1.000
    H55      H        0.64130    0.73700    0.16740    1.000
    C88      C        0.49290    0.26480    0.11801    1.000
    H56      H        0.46990    0.28060    0.12900    1.000
    C89      C        0.48870    0.30590    0.10206    1.000
    H57      H        0.46340    0.34930    0.10200    1.000
    C90      C        0.52980    0.20150    0.11843    1.000
    C91      C        0.42960    0.13790    0.19783    1.000
    H58      H        0.47640    0.13780    0.20270    1.000
    C92      C        0.35100    0.12870    0.17208    1.000
    H59      H        0.34430    0.12130    0.15910    1.000
    C93      C        0.47130    0.60780    0.13166    1.000
    H60      H        0.49520    0.58490    0.14160    1.000
    C94      C        0.43710    0.67230    0.13461    1.000
    C95      C        0.40250    0.70540    0.11989    1.000
    H61      H        0.38060    0.74990    0.12190    1.000
    C96      C        0.55880    0.21620    0.08620    1.000
    H62      H        0.58120    0.19930    0.07520    1.000
    C97      C        0.85520    0.96660    0.18729    1.000
    C98      C        0.64310    0.74640    0.21893    1.000
    H63      H        0.64280    0.74670    0.23210    1.000
    O24      O        0.85146    0.90489    0.19402    1.000
    O25      O        0.91200    0.00274    0.18760    1.000
    C99      C        0.73210    0.09460    0.16332    1.000
    H64      H        0.73480    0.13990    0.15770    1.000
    O26      O        0.41083    0.61878    0.06707    1.000
    C100     C        0.56150    0.17700    0.10211    1.000
    H65      H        0.58520    0.13270    0.10210    1.000
    C101     C        0.54390    0.09200    0.17070    1.000
    H66      H        0.54660    0.06750    0.18220    1.000
    C102     C        0.34610    0.90010    0.19006    1.000
    H67      H        0.39320    0.91720    0.19120    1.000
    C103     C        0.26150    0.80430    0.18182    1.000
    H68      H        0.25260    0.75710    0.17800    1.000
    C104     C        0.32960    0.83120    0.18279    1.000
    O27      O        0.24822    0.15747    0.23277    1.000
    O28      O        0.47723    0.54761    0.04091    1.000
    H69      H        0.51270    0.56030    0.03220    1.000
    C105     C        0.28530    0.94100    0.19541    1.000
    H70      H        0.29290    0.98680    0.20040    1.000
    C106     C        0.20570    0.85060    0.18683    1.000
    H71      H        0.15840    0.83450    0.18540    1.000
    C107     C        0.46980    0.57570    0.11305    1.000
    H72      H        0.49220    0.53160    0.11080    1.000
    C108     C        0.39230    0.78390    0.17635    1.000
    C109     C        0.21660    0.91740    0.19365    1.000
    C110     C        0.15800    0.96240    0.19796    1.000
    O29      O        0.16565    0.02621    0.20245    1.000
    O30      O        0.09531    0.93168    0.19803    1.000
    O31      O        0.77729    0.77003    0.23627    1.000
    C111     C        0.77450    0.76510    0.21871    1.000
    O32      O        0.82820    0.78336    0.20843    1.000
    C112     C        0.24130    0.15680    0.21479    1.000
    O33      O        0.18301    0.16320    0.20689    1.000
    O34      O        0.66068    0.39593    0.01879    1.000
    O35      O        0.57840    0.30139    0.01467    1.000
    O36      O        0.73675    0.37625    0.98941    1.000
    C113     C        0.52270    0.37840    0.99312    1.000
    H73      H        0.48520    0.38060    0.98350    1.000
    H74      H        0.51900    0.42140    0.00090    1.000
    C114     C        0.51210    0.31540    0.00480    1.000
    H75      H        0.47340    0.32390    0.01380    1.000
    H76      H        0.49910    0.27440    0.99700    1.000
    C115     C        0.77230    0.42000    0.00354    1.000
    H77      H        0.79490    0.46130    0.99750    1.000
    H78      H        0.80950    0.39200    0.00980    1.000
    C116     C        0.71870    0.44480    0.01757    1.000
    H79      H        0.74150    0.44920    0.02990    1.000
    H80      H        0.70080    0.49190    0.01390    1.000
    Al8      Al       0.39808    0.60233    0.04131    1.000
    Al9      Al       0.85294    0.89683    0.78690    1.000
    Al10     Al       0.82859    0.84168    0.74945    1.000
    Al11     Al       0.97006    0.00432    0.80566    1.000
    O37      O        0.92126    0.96706    0.78577    1.000
    H81      H        0.93210    0.98550    0.77380    1.000
    O38      O        0.87697    0.90867    0.73410    1.000
    O39      O        0.80150    0.94993    0.80399    1.000
    C117     C        0.64710    0.19570    0.95337    1.000
    O40      O        0.01862    0.03797    0.82733    1.000
    C118     C        0.11040    0.06440    0.84915    1.000
    C119     C        0.24150    0.92000    0.94031    1.000
    O41      O        0.89322    0.99065    0.82197    1.000
    C120     C        0.20860    0.05770    0.90245    1.000
    C121     C        0.49690    0.70620    0.92913    1.000
    C122     C        0.82610    0.97370    0.81947    1.000
    C123     C        0.55960    0.83260    0.91495    1.000
    C124     C        0.66250    0.96620    0.88709    1.000
    C125     C        0.17420    0.10060    0.85214    1.000
    H82      H        0.19590    0.12660    0.84240    1.000
    C126     C        0.62680    0.90360    0.89207    1.000
    H83      H        0.62540    0.86530    0.88350    1.000
    C127     C        0.07920    0.06330    0.82954    1.000
    C128     C        0.63690    0.20720    0.93381    1.000
    H84      H        0.63570    0.25380    0.92890    1.000
    C129     C        0.24820    0.79370    0.94014    1.000
    H85      H        0.25040    0.75070    0.93330    1.000
    C130     C        0.28030    0.04780    0.93643    1.000
    H86      H        0.30490    0.04490    0.94790    1.000
    C131     C        0.20320    0.99870    0.91312    1.000
    H87      H        0.17330    0.96140    0.90910    1.000
    C132     C        0.59420    0.89710    0.90906    1.000
    C133     C        0.46290    0.77300    0.93035    1.000
    H88      H        0.41730    0.77490    0.93590    1.000
    C134     C        0.62600    0.02020    0.91548    1.000
    C135     C        0.78170    0.97710    0.83595    1.000
    C136     C        0.24140    0.91740    0.95986    1.000
    H89      H        0.23760    0.96010    0.96670    1.000
    C137     C        0.56140    0.70680    0.92023    1.000
    H90      H        0.58510    0.66300    0.91870    1.000
    C138     C        0.25140    0.79240    0.95953    1.000
    C139     C        0.63160    0.08000    0.92954    1.000
    C140     C        0.25060    0.11560    0.90908    1.000
    H91      H        0.25550    0.15780    0.90200    1.000
    C141     C        0.66160    0.02390    0.89835    1.000
    H92      H        0.68480    0.06630    0.89470    1.000
    C142     C        0.64470    0.12830    0.96020    1.000
    H93      H        0.64760    0.12030    0.97320    1.000
    C143     C        0.24120    0.99060    0.93031    1.000
    C144     C        0.49220    0.83580    0.92396    1.000
    H94      H        0.46830    0.87960    0.92550    1.000
    C145     C        0.24150    0.85820    0.93059    1.000
    H95      H        0.23700    0.85870    0.91740    1.000
    C146     C        0.76480    0.00710    0.86801    1.000
    H96      H        0.78060    0.03010    0.87900    1.000
    C147     C        0.80590    0.01130    0.85206    1.000
    H97      H        0.84930    0.03660    0.85200    1.000
    C148     C        0.70150    0.97020    0.86843    1.000
    C149     C        0.63790    0.07040    0.94783    1.000
    H98      H        0.63780    0.02360    0.95270    1.000
    C150     C        0.62870    0.14900    0.92208    1.000
    H99      H        0.62130    0.15570    0.90910    1.000
    C151     C        0.10780    0.02870    0.88166    1.000
    H100     H        0.08490    0.00480    0.89160    1.000
    C152     C        0.17230    0.06290    0.88461    1.000
    C153     C        0.20540    0.09750    0.86989    1.000
    H101     H        0.24990    0.11940    0.87190    1.000
    C154     C        0.71620    0.94120    0.83620    1.000
    H102     H        0.69930    0.91880    0.82520    1.000
    C155     C        0.46660    0.64480    0.93729    1.000
    C156     C        0.24640    0.85690    0.96893    1.000
    H103     H        0.24670    0.85720    0.98210    1.000
    O42      O        0.40489    0.64854    0.94402    1.000
    O43      O        0.50274    0.58800    0.93760    1.000
    C157     C        0.59460    0.76790    0.91332    1.000
    H104     H        0.63990    0.76520    0.90770    1.000
    O44      O        0.11878    0.08917    0.81707    1.000
    C158     C        0.67700    0.93850    0.85211    1.000
    H105     H        0.63270    0.91480    0.85210    1.000
    C159     C        0.59200    0.95610    0.92070    1.000
    H106     H        0.56750    0.95340    0.93220    1.000
    C160     C        0.40010    0.15390    0.94006    1.000
    H107     H        0.41720    0.10680    0.94120    1.000
    C161     C        0.30430    0.23850    0.93182    1.000
    H108     H        0.25710    0.24740    0.92800    1.000
    C162     C        0.33120    0.17040    0.93279    1.000
    O45      O        0.65747    0.25178    0.98277    1.000
    O46      O        0.04761    0.02277    0.79091    1.000
    H109     H        0.06030    0.98730    0.78220    1.000
    C163     C        0.44100    0.21470    0.94541    1.000
    H110     H        0.48680    0.20710    0.95040    1.000
    C164     C        0.35060    0.29430    0.93683    1.000
    H111     H        0.33450    0.34160    0.93540    1.000
    C165     C        0.07570    0.03020    0.86305    1.000
    H112     H        0.03160    0.00780    0.86080    1.000
    C166     C        0.28390    0.10770    0.92635    1.000
    C167     C        0.41740    0.28340    0.94365    1.000
    C168     C        0.46240    0.34200    0.94796    1.000
    O47      O        0.52621    0.33435    0.95245    1.000
    O48      O        0.43168    0.40469    0.94803    1.000
    O49      O        0.27003    0.72271    0.98627    1.000
    C169     C        0.26510    0.72550    0.96871    1.000
    O50      O        0.28336    0.67180    0.95843    1.000
    C170     C        0.65680    0.25870    0.96479    1.000
    O51      O        0.66320    0.31699    0.95689    1.000
    O52      O        0.89593    0.83932    0.76879    1.000
    O53      O        0.80139    0.92160    0.76467    1.000
    O54      O        0.87625    0.76325    0.73941    1.000
    C171     C        0.87840    0.97730    0.74312    1.000
    H113     H        0.88060    0.01480    0.73350    1.000
    H114     H        0.92140    0.98100    0.75090    1.000
    C172     C        0.81540    0.98790    0.75480    1.000
    H115     H        0.82390    0.02660    0.76380    1.000
    H116     H        0.77440    0.00090    0.74700    1.000
    C173     C        0.92000    0.72770    0.75354    1.000
    H117     H        0.96130    0.70510    0.74750    1.000
    H118     H        0.89200    0.69050    0.75980    1.000
    C174     C        0.94480    0.78130    0.76757    1.000
    H119     H        0.94920    0.75850    0.77990    1.000
    H120     H        0.99190    0.79920    0.76390    1.000
    Al12     Al       0.10233    0.10192    0.79131    1.000
    Al13     Al       0.14706    0.10317    0.28690    1.000
    Al14     Al       0.17141    0.15832    0.24945    1.000
    Al15     Al       0.02994    0.99568    0.30566    1.000
    O55      O        0.07874    0.03294    0.28577    1.000
    H121     H        0.06790    0.01450    0.27380    1.000
    O56      O        0.12303    0.09133    0.23410    1.000
    O57      O        0.19850    0.05007    0.30399    1.000
    C175     C        0.35290    0.80430    0.45337    1.000
    O58      O        0.98138    0.96203    0.32733    1.000
    C176     C        0.88960    0.93560    0.34915    1.000
    C177     C        0.75850    0.08000    0.44031    1.000
    O59      O        0.10678    0.00935    0.32197    1.000
    C178     C        0.79140    0.94230    0.40245    1.000
    C179     C        0.50310    0.29380    0.42913    1.000
    C180     C        0.17390    0.02630    0.31947    1.000
    C181     C        0.44040    0.16740    0.41495    1.000
    C182     C        0.33750    0.03380    0.38709    1.000
    C183     C        0.82580    0.89940    0.35214    1.000
    H122     H        0.80410    0.87340    0.34240    1.000
    C184     C        0.37320    0.09640    0.39207    1.000
    H123     H        0.37460    0.13470    0.38350    1.000
    C185     C        0.92080    0.93670    0.32954    1.000
    C186     C        0.36310    0.79280    0.43381    1.000
    H124     H        0.36430    0.74620    0.42890    1.000
    C187     C        0.75180    0.20630    0.44014    1.000
    H125     H        0.74960    0.24930    0.43330    1.000
    C188     C        0.71970    0.95220    0.43643    1.000
    H126     H        0.69510    0.95510    0.44790    1.000
    C189     C        0.79680    0.00130    0.41312    1.000
    H127     H        0.82670    0.03860    0.40910    1.000
    C190     C        0.40580    0.10290    0.40906    1.000
    C191     C        0.53710    0.22700    0.43035    1.000
    H128     H        0.58270    0.22510    0.43590    1.000
    C192     C        0.37400    0.97980    0.41548    1.000
    C193     C        0.21830    0.02290    0.33595    1.000
    C194     C        0.75860    0.08260    0.45986    1.000
    H129     H        0.76240    0.03990    0.46670    1.000
    C195     C        0.43860    0.29320    0.42023    1.000
    H130     H        0.41490    0.33700    0.41870    1.000
    C196     C        0.74860    0.20760    0.45953    1.000
    C197     C        0.36840    0.92000    0.42954    1.000
    C198     C        0.74940    0.88440    0.40908    1.000
    H131     H        0.74450    0.84220    0.40200    1.000
    C199     C        0.33840    0.97610    0.39835    1.000
    H132     H        0.31520    0.93370    0.39470    1.000
    C200     C        0.35530    0.87170    0.46020    1.000
    H133     H        0.35240    0.87970    0.47320    1.000
    C201     C        0.75880    0.00940    0.43031    1.000
    C202     C        0.50780    0.16420    0.42396    1.000
    H134     H        0.53170    0.12040    0.42550    1.000
    C203     C        0.75850    0.14180    0.43059    1.000
    H135     H        0.76300    0.14130    0.41740    1.000
    C204     C        0.23520    0.99290    0.36801    1.000
    H136     H        0.21940    0.96990    0.37900    1.000
    C205     C        0.19410    0.98870    0.35206    1.000
    H137     H        0.15070    0.96340    0.35200    1.000
    C206     C        0.29850    0.02980    0.36843    1.000
    C207     C        0.36210    0.92960    0.44783    1.000
    H138     H        0.36220    0.97640    0.45270    1.000
    C208     C        0.37130    0.85100    0.42208    1.000
    H139     H        0.37870    0.84430    0.40910    1.000
    C209     C        0.89220    0.97130    0.38166    1.000
    H140     H        0.91510    0.99520    0.39160    1.000
    C210     C        0.82770    0.93710    0.38461    1.000
    C211     C        0.79460    0.90250    0.36989    1.000
    H141     H        0.75010    0.88060    0.37190    1.000
    C212     C        0.28380    0.05880    0.33620    1.000
    H142     H        0.30070    0.08120    0.32520    1.000
    C213     C        0.53340    0.35520    0.43729    1.000
    C214     C        0.75360    0.14310    0.46893    1.000
    H143     H        0.75330    0.14280    0.48210    1.000
    O60      O        0.59511    0.35146    0.44402    1.000
    O61      O        0.49726    0.41200    0.43760    1.000
    C215     C        0.40540    0.23210    0.41332    1.000
    H144     H        0.36010    0.23480    0.40770    1.000
    O62      O        0.88122    0.91083    0.31707    1.000
    C216     C        0.32300    0.06150    0.35211    1.000
    H145     H        0.36730    0.08520    0.35210    1.000
    C217     C        0.40800    0.04390    0.42070    1.000
    H146     H        0.43250    0.04660    0.43220    1.000
    C218     C        0.59990    0.84610    0.44006    1.000
    H147     H        0.58280    0.89320    0.44120    1.000
    C219     C        0.69570    0.76150    0.43182    1.000
    H148     H        0.74290    0.75260    0.42800    1.000
    C220     C        0.66880    0.82960    0.43279    1.000
    O63      O        0.34253    0.74822    0.48277    1.000
    O64      O        0.95239    0.97723    0.29091    1.000
    H149     H        0.93970    0.01270    0.28220    1.000
    C221     C        0.55900    0.78530    0.44541    1.000
    H150     H        0.51320    0.79290    0.45040    1.000
    C222     C        0.64940    0.70570    0.43683    1.000
    H151     H        0.66550    0.65840    0.43540    1.000
    C223     C        0.92430    0.96980    0.36305    1.000
    H152     H        0.96840    0.99220    0.36080    1.000
    C224     C        0.71610    0.89230    0.42635    1.000
    C225     C        0.58260    0.71660    0.44365    1.000
    C226     C        0.53760    0.65800    0.44796    1.000
    O65      O        0.47379    0.66565    0.45245    1.000
    O66      O        0.56832    0.59531    0.44803    1.000
    O67      O        0.72997    0.27729    0.48627    1.000
    C227     C        0.73490    0.27450    0.46871    1.000
    O68      O        0.71664    0.32820    0.45843    1.000
    C228     C        0.34320    0.74130    0.46479    1.000
    O69      O        0.33680    0.68301    0.45689    1.000
    O70      O        0.10407    0.16068    0.26879    1.000
    O71      O        0.19861    0.07840    0.26467    1.000
    O72      O        0.12375    0.23675    0.23941    1.000
    C229     C        0.12160    0.02270    0.24312    1.000
    H153     H        0.11940    0.98520    0.23350    1.000
    H154     H        0.07860    0.01900    0.25090    1.000
    C230     C        0.18460    0.01210    0.25480    1.000
    H155     H        0.17610    0.97340    0.26380    1.000
    H156     H        0.22560    0.99910    0.24700    1.000
    C231     C        0.08000    0.27230    0.25354    1.000
    H157     H        0.03870    0.29490    0.24750    1.000
    H158     H        0.10800    0.30950    0.25980    1.000
    C232     C        0.05520    0.21870    0.26757    1.000
    H159     H        0.05080    0.24150    0.27990    1.000
    H160     H        0.00810    0.20080    0.26390    1.000
    Al16     Al       0.89767    0.89808    0.29131    1.000
    Al17     Al       0.10317    0.14706    0.71310    1.000
    Al18     Al       0.15832    0.17141    0.75055    1.000
    Al19     Al       0.99568    0.02994    0.69434    1.000
    O73      O        0.03294    0.07874    0.71423    1.000
    H161     H        0.01450    0.06790    0.72620    1.000
    O74      O        0.09133    0.12303    0.76590    1.000
    O75      O        0.05007    0.19850    0.69601    1.000
    C233     C        0.80430    0.35290    0.54663    1.000
    O76      O        0.96203    0.98138    0.67267    1.000
    C234     C        0.93560    0.88960    0.65085    1.000
    C235     C        0.08000    0.75850    0.55969    1.000
    O77      O        0.00935    0.10678    0.67803    1.000
    C236     C        0.94230    0.79140    0.59755    1.000
    C237     C        0.29380    0.50310    0.57087    1.000
    C238     C        0.02630    0.17390    0.68053    1.000
    C239     C        0.16740    0.44040    0.58505    1.000
    C240     C        0.03380    0.33750    0.61291    1.000
    C241     C        0.89940    0.82580    0.64786    1.000
    H162     H        0.87340    0.80410    0.65760    1.000
    C242     C        0.09640    0.37320    0.60793    1.000
    H163     H        0.13470    0.37460    0.61650    1.000
    C243     C        0.93670    0.92080    0.67046    1.000
    C244     C        0.79280    0.36310    0.56619    1.000
    H164     H        0.74620    0.36430    0.57110    1.000
    C245     C        0.20630    0.75180    0.55986    1.000
    H165     H        0.24930    0.74960    0.56670    1.000
    C246     C        0.95220    0.71970    0.56357    1.000
    H166     H        0.95510    0.69510    0.55210    1.000
    C247     C        0.00130    0.79680    0.58688    1.000
    H167     H        0.03860    0.82670    0.59090    1.000
    C248     C        0.10290    0.40580    0.59094    1.000
    C249     C        0.22700    0.53710    0.56965    1.000
    H168     H        0.22510    0.58270    0.56410    1.000
    C250     C        0.97980    0.37400    0.58452    1.000
    C251     C        0.02290    0.21830    0.66405    1.000
    C252     C        0.08260    0.75860    0.54014    1.000
    H169     H        0.03990    0.76240    0.53330    1.000
    C253     C        0.29320    0.43860    0.57977    1.000
    H170     H        0.33700    0.41490    0.58130    1.000
    C254     C        0.20760    0.74860    0.54047    1.000
    C255     C        0.92000    0.36840    0.57046    1.000
    C256     C        0.88440    0.74940    0.59092    1.000
    H171     H        0.84220    0.74450    0.59800    1.000
    C257     C        0.97610    0.33840    0.60165    1.000
    H172     H        0.93370    0.31520    0.60530    1.000
    C258     C        0.87170    0.35530    0.53980    1.000
    H173     H        0.87970    0.35240    0.52680    1.000
    C259     C        0.00940    0.75880    0.56969    1.000
    C260     C        0.16420    0.50780    0.57604    1.000
    H174     H        0.12040    0.53170    0.57450    1.000
    C261     C        0.14180    0.75850    0.56941    1.000
    H175     H        0.14130    0.76300    0.58260    1.000
    C262     C        0.99290    0.23520    0.63199    1.000
    H176     H        0.96990    0.21940    0.62100    1.000
    C263     C        0.98870    0.19410    0.64794    1.000
    H177     H        0.96340    0.15070    0.64800    1.000
    C264     C        0.02980    0.29850    0.63157    1.000
    C265     C        0.92960    0.36210    0.55217    1.000
    H178     H        0.97640    0.36220    0.54730    1.000
    C266     C        0.85100    0.37130    0.57792    1.000
    H179     H        0.84430    0.37870    0.59090    1.000
    C267     C        0.97130    0.89220    0.61834    1.000
    H180     H        0.99520    0.91510    0.60840    1.000
    C268     C        0.93710    0.82770    0.61539    1.000
    C269     C        0.90250    0.79460    0.63011    1.000
    H181     H        0.88060    0.75010    0.62810    1.000
    C270     C        0.05880    0.28380    0.66380    1.000
    H182     H        0.08120    0.30070    0.67480    1.000
    C271     C        0.35520    0.53340    0.56271    1.000
    C272     C        0.14310    0.75360    0.53107    1.000
    H183     H        0.14280    0.75330    0.51790    1.000
    O78      O        0.35146    0.59511    0.55598    1.000
    O79      O        0.41200    0.49726    0.56240    1.000
    C273     C        0.23210    0.40540    0.58668    1.000
    H184     H        0.23480    0.36010    0.59230    1.000
    O80      O        0.91083    0.88122    0.68293    1.000
    C274     C        0.06150    0.32300    0.64789    1.000
    H185     H        0.08520    0.36730    0.64790    1.000
    C275     C        0.04390    0.40800    0.57930    1.000
    H186     H        0.04660    0.43250    0.56780    1.000
    C276     C        0.84610    0.59990    0.55994    1.000
    H187     H        0.89320    0.58280    0.55880    1.000
    C277     C        0.76150    0.69570    0.56818    1.000
    H188     H        0.75260    0.74290    0.57200    1.000
    C278     C        0.82960    0.66880    0.56721    1.000
    O81      O        0.74822    0.34253    0.51723    1.000
    O82      O        0.97723    0.95239    0.70909    1.000
    H189     H        0.01270    0.93970    0.71780    1.000
    C279     C        0.78530    0.55900    0.55459    1.000
    H190     H        0.79290    0.51320    0.54960    1.000
    C280     C        0.70570    0.64940    0.56317    1.000
    H191     H        0.65840    0.66550    0.56460    1.000
    C281     C        0.96980    0.92430    0.63695    1.000
    H192     H        0.99220    0.96840    0.63920    1.000
    C282     C        0.89230    0.71610    0.57365    1.000
    C283     C        0.71660    0.58260    0.55635    1.000
    C284     C        0.65800    0.53760    0.55204    1.000
    O83      O        0.66565    0.47379    0.54755    1.000
    O84      O        0.59531    0.56832    0.55197    1.000
    O85      O        0.27729    0.72997    0.51373    1.000
    C285     C        0.27450    0.73490    0.53129    1.000
    O86      O        0.32820    0.71664    0.54157    1.000
    C286     C        0.74130    0.34320    0.53521    1.000
    O87      O        0.68301    0.33680    0.54311    1.000
    O88      O        0.16068    0.10407    0.73121    1.000
    O89      O        0.07840    0.19861    0.73533    1.000
    O90      O        0.23675    0.12375    0.76059    1.000
    C287     C        0.02270    0.12160    0.75688    1.000
    H193     H        0.98520    0.11940    0.76650    1.000
    H194     H        0.01900    0.07860    0.74910    1.000
    C288     C        0.01210    0.18460    0.74520    1.000
    H195     H        0.97340    0.17610    0.73620    1.000
    H196     H        0.99910    0.22560    0.75300    1.000
    C289     C        0.27230    0.08000    0.74646    1.000
    H197     H        0.29490    0.03870    0.75250    1.000
    H198     H        0.30950    0.10800    0.74020    1.000
    C290     C        0.21870    0.05520    0.73243    1.000
    H199     H        0.24150    0.05080    0.72010    1.000
    H200     H        0.20080    0.00810    0.73610    1.000
    Al20     Al       0.89808    0.89767    0.70869    1.000
    Al21     Al       0.89683    0.85294    0.21310    1.000
    Al22     Al       0.84168    0.82859    0.25055    1.000
    Al23     Al       0.00432    0.97006    0.19434    1.000
    O91      O        0.96706    0.92126    0.21423    1.000
    H201     H        0.98550    0.93210    0.22620    1.000
    O92      O        0.90867    0.87697    0.26590    1.000
    O93      O        0.94993    0.80150    0.19601    1.000
    C291     C        0.19570    0.64710    0.04663    1.000
    O94      O        0.03797    0.01862    0.17267    1.000
    C292     C        0.06440    0.11040    0.15085    1.000
    C293     C        0.92000    0.24150    0.05969    1.000
    O95      O        0.99065    0.89322    0.17803    1.000
    C294     C        0.05770    0.20860    0.09755    1.000
    C295     C        0.70620    0.49690    0.07087    1.000
    C296     C        0.97370    0.82610    0.18053    1.000
    C297     C        0.83260    0.55960    0.08505    1.000
    C298     C        0.96620    0.66250    0.11291    1.000
    C299     C        0.10060    0.17420    0.14786    1.000
    H202     H        0.12660    0.19590    0.15760    1.000
    C300     C        0.90360    0.62680    0.10793    1.000
    H203     H        0.86530    0.62540    0.11650    1.000
    C301     C        0.06330    0.07920    0.17046    1.000
    C302     C        0.20720    0.63690    0.06619    1.000
    H204     H        0.25380    0.63570    0.07110    1.000
    C303     C        0.79370    0.24820    0.05986    1.000
    H205     H        0.75070    0.25040    0.06670    1.000
    C304     C        0.04780    0.28030    0.06357    1.000
    H206     H        0.04490    0.30490    0.05210    1.000
    C305     C        0.99870    0.20320    0.08688    1.000
    H207     H        0.96140    0.17330    0.09090    1.000
    C306     C        0.89710    0.59420    0.09094    1.000
    C307     C        0.77300    0.46290    0.06965    1.000
    H208     H        0.77490    0.41730    0.06410    1.000
    C308     C        0.02020    0.62600    0.08452    1.000
    C309     C        0.97710    0.78170    0.16405    1.000
    C310     C        0.91740    0.24140    0.04014    1.000
    H209     H        0.96010    0.23760    0.03330    1.000
    C311     C        0.70680    0.56140    0.07977    1.000
    H210     H        0.66300    0.58510    0.08130    1.000
    C312     C        0.79240    0.25140    0.04047    1.000
    C313     C        0.08000    0.63160    0.07046    1.000
    C314     C        0.11560    0.25060    0.09092    1.000
    H211     H        0.15780    0.25550    0.09800    1.000
    C315     C        0.02390    0.66160    0.10165    1.000
    H212     H        0.06630    0.68480    0.10530    1.000
    C316     C        0.12830    0.64470    0.03980    1.000
    H213     H        0.12030    0.64760    0.02680    1.000
    C317     C        0.99060    0.24120    0.06969    1.000
    C318     C        0.83580    0.49220    0.07604    1.000
    H214     H        0.87960    0.46830    0.07450    1.000
    C319     C        0.85820    0.24150    0.06941    1.000
    H215     H        0.85870    0.23700    0.08260    1.000
    C320     C        0.00710    0.76480    0.13199    1.000
    H216     H        0.03010    0.78060    0.12100    1.000
    C321     C        0.01130    0.80590    0.14794    1.000
    H217     H        0.03660    0.84930    0.14800    1.000
    C322     C        0.97020    0.70150    0.13157    1.000
    C323     C        0.07040    0.63790    0.05217    1.000
    H218     H        0.02360    0.63780    0.04730    1.000
    C324     C        0.14900    0.62870    0.07792    1.000
    H219     H        0.15570    0.62130    0.09090    1.000
    C325     C        0.02870    0.10780    0.11834    1.000
    H220     H        0.00480    0.08490    0.10840    1.000
    C326     C        0.06290    0.17230    0.11539    1.000
    C327     C        0.09750    0.20540    0.13011    1.000
    H221     H        0.11940    0.24990    0.12810    1.000
    C328     C        0.94120    0.71620    0.16380    1.000
    H222     H        0.91880    0.69930    0.17480    1.000
    C329     C        0.64480    0.46660    0.06271    1.000
    C330     C        0.85690    0.24640    0.03107    1.000
    H223     H        0.85720    0.24670    0.01790    1.000
    O96      O        0.64854    0.40489    0.05598    1.000
    O97      O        0.58800    0.50274    0.06240    1.000
    C331     C        0.76790    0.59460    0.08668    1.000
    H224     H        0.76520    0.63990    0.09230    1.000
    O98      O        0.08917    0.11878    0.18293    1.000
    C332     C        0.93850    0.67700    0.14789    1.000
    H225     H        0.91480    0.63270    0.14790    1.000
    C333     C        0.95610    0.59200    0.07930    1.000
    H226     H        0.95340    0.56750    0.06780    1.000
    C334     C        0.15390    0.40010    0.05994    1.000
    H227     H        0.10680    0.41720    0.05880    1.000
    C335     C        0.23850    0.30430    0.06818    1.000
    H228     H        0.24740    0.25710    0.07200    1.000
    C336     C        0.17040    0.33120    0.06721    1.000
    O99      O        0.25178    0.65747    0.01723    1.000
    O100     O        0.02277    0.04761    0.20909    1.000
    H229     H        0.98730    0.06030    0.21780    1.000
    C337     C        0.21470    0.44100    0.05459    1.000
    H230     H        0.20710    0.48680    0.04960    1.000
    C338     C        0.29430    0.35060    0.06317    1.000
    H231     H        0.34160    0.33450    0.06460    1.000
    C339     C        0.03020    0.07570    0.13695    1.000
    H232     H        0.00780    0.03160    0.13920    1.000
    C340     C        0.10770    0.28390    0.07365    1.000
    C341     C        0.28340    0.41740    0.05635    1.000
    C342     C        0.34200    0.46240    0.05204    1.000
    O101     O        0.33435    0.52621    0.04755    1.000
    O102     O        0.40469    0.43168    0.05197    1.000
    O103     O        0.72271    0.27003    0.01373    1.000
    C343     C        0.72550    0.26510    0.03129    1.000
    O104     O        0.67180    0.28336    0.04157    1.000
    C344     C        0.25870    0.65680    0.03521    1.000
    O105     O        0.31699    0.66320    0.04311    1.000
    O106     O        0.83932    0.89593    0.23121    1.000
    O107     O        0.92160    0.80139    0.23533    1.000
    O108     O        0.76325    0.87625    0.26059    1.000
    C345     C        0.97730    0.87840    0.25688    1.000
    H233     H        0.01480    0.88060    0.26650    1.000
    H234     H        0.98100    0.92140    0.24910    1.000
    C346     C        0.98790    0.81540    0.24520    1.000
    H235     H        0.02660    0.82390    0.23620    1.000
    H236     H        0.00090    0.77440    0.25300    1.000
    C347     C        0.72770    0.92000    0.24646    1.000
    H237     H        0.70510    0.96130    0.25250    1.000
    H238     H        0.69050    0.89200    0.24020    1.000
    C348     C        0.78130    0.94480    0.23243    1.000
    H239     H        0.75850    0.94920    0.22010    1.000
    H240     H        0.79920    0.99190    0.23610    1.000
    Al24     Al       0.10192    0.10233    0.20869    1.000
    Al25     Al       0.64706    0.39683    0.46310    1.000
    Al26     Al       0.67141    0.34168    0.50055    1.000
    Al27     Al       0.52994    0.50432    0.44434    1.000
    O109     O        0.57874    0.46706    0.46423    1.000
    H241     H        0.56790    0.48550    0.47620    1.000
    O110     O        0.62303    0.40867    0.51590    1.000
    O111     O        0.69850    0.44993    0.44601    1.000
    C349     C        0.85290    0.69570    0.29663    1.000
    O112     O        0.48138    0.53797    0.42267    1.000
    C350     C        0.38960    0.56440    0.40085    1.000
    C351     C        0.25850    0.42000    0.30969    1.000
    O113     O        0.60678    0.49065    0.42803    1.000
    C352     C        0.29140    0.55770    0.34755    1.000
    C353     C        0.00310    0.20620    0.32087    1.000
    C354     C        0.67390    0.47370    0.43053    1.000
    C355     C        0.94040    0.33260    0.33505    1.000
    C356     C        0.83750    0.46620    0.36291    1.000
    C357     C        0.32580    0.60060    0.39786    1.000
    H242     H        0.30410    0.62660    0.40760    1.000
    C358     C        0.87320    0.40360    0.35793    1.000
    H243     H        0.87460    0.36530    0.36650    1.000
    C359     C        0.42080    0.56330    0.42046    1.000
    C360     C        0.86310    0.70720    0.31619    1.000
    H244     H        0.86430    0.75380    0.32110    1.000
    C361     C        0.25180    0.29370    0.30986    1.000
    H245     H        0.24960    0.25070    0.31670    1.000
    C362     C        0.21970    0.54780    0.31357    1.000
    H246     H        0.19510    0.54490    0.30210    1.000
    C363     C        0.29680    0.49870    0.33688    1.000
    H247     H        0.32670    0.46140    0.34090    1.000
    C364     C        0.90580    0.39710    0.34094    1.000
    C365     C        0.03710    0.27300    0.31965    1.000
    H248     H        0.08270    0.27490    0.31410    1.000
    C366     C        0.87400    0.52020    0.33452    1.000
    C367     C        0.71830    0.47710    0.41405    1.000
    C368     C        0.25860    0.41740    0.29014    1.000
    H249     H        0.26240    0.46010    0.28330    1.000
    C369     C        0.93860    0.20680    0.32977    1.000
    H250     H        0.91490    0.16300    0.33130    1.000
    C370     C        0.24860    0.29240    0.29047    1.000
    C371     C        0.86840    0.58000    0.32046    1.000
    C372     C        0.24940    0.61560    0.34092    1.000
    H251     H        0.24450    0.65780    0.34800    1.000
    C373     C        0.83840    0.52390    0.35165    1.000
    H252     H        0.81520    0.56630    0.35530    1.000
    C374     C        0.85530    0.62830    0.28980    1.000
    H253     H        0.85240    0.62030    0.27680    1.000
    C375     C        0.25880    0.49060    0.31969    1.000
    C376     C        0.00780    0.33580    0.32604    1.000
    H254     H        0.03170    0.37960    0.32450    1.000
    C377     C        0.25850    0.35820    0.31941    1.000
    H255     H        0.26300    0.35870    0.33260    1.000
    C378     C        0.73520    0.50710    0.38199    1.000
    H256     H        0.71940    0.53010    0.37100    1.000
    C379     C        0.69410    0.51130    0.39794    1.000
    H257     H        0.65070    0.53660    0.39800    1.000
    C380     C        0.79850    0.47020    0.38157    1.000
    C381     C        0.86210    0.57040    0.30217    1.000
    H258     H        0.86220    0.52360    0.29730    1.000
    C382     C        0.87130    0.64900    0.32792    1.000
    H259     H        0.87870    0.65570    0.34090    1.000
    C383     C        0.39220    0.52870    0.36834    1.000
    H260     H        0.41510    0.50480    0.35840    1.000
    C384     C        0.32770    0.56290    0.36539    1.000
    C385     C        0.29460    0.59750    0.38011    1.000
    H261     H        0.25010    0.61940    0.37810    1.000
    C386     C        0.78380    0.44120    0.41380    1.000
    H262     H        0.80070    0.41880    0.42480    1.000
    C387     C        0.03340    0.14480    0.31271    1.000
    C388     C        0.25360    0.35690    0.28107    1.000
    H263     H        0.25330    0.35720    0.26790    1.000
    O114     O        0.09511    0.14854    0.30598    1.000
    O115     O        0.99726    0.08800    0.31240    1.000
    C389     C        0.90540    0.26790    0.33668    1.000
    H264     H        0.86010    0.26520    0.34230    1.000
    O116     O        0.38122    0.58917    0.43293    1.000
    C390     C        0.82300    0.43850    0.39789    1.000
    H265     H        0.86730    0.41480    0.39790    1.000
    C391     C        0.90800    0.45610    0.32930    1.000
    H266     H        0.93250    0.45340    0.31780    1.000
    C392     C        0.09990    0.65390    0.30994    1.000
    H267     H        0.08280    0.60680    0.30880    1.000
    C393     C        0.19570    0.73850    0.31818    1.000
    H268     H        0.24290    0.74740    0.32200    1.000
    C394     C        0.16880    0.67040    0.31721    1.000
    O117     O        0.84253    0.75178    0.26723    1.000
    O118     O        0.45239    0.52277    0.45909    1.000
    H269     H        0.43970    0.48730    0.46780    1.000
    C395     C        0.05900    0.71470    0.30459    1.000
    H270     H        0.01320    0.70710    0.29960    1.000
    C396     C        0.14940    0.79430    0.31317    1.000
    H271     H        0.16550    0.84160    0.31460    1.000
    C397     C        0.42430    0.53020    0.38695    1.000
    H272     H        0.46840    0.50780    0.38920    1.000
    C398     C        0.21610    0.60770    0.32365    1.000
    C399     C        0.08260    0.78340    0.30635    1.000
    C400     C        0.03760    0.84200    0.30204    1.000
    O119     O        0.97379    0.83435    0.29755    1.000
    O120     O        0.06832    0.90469    0.30197    1.000
    O121     O        0.22997    0.22271    0.26373    1.000
    C401     C        0.23490    0.22550    0.28129    1.000
    O122     O        0.21664    0.17180    0.29157    1.000
    C402     C        0.84320    0.75870    0.28521    1.000
    O123     O        0.83680    0.81699    0.29311    1.000
    O124     O        0.60407    0.33932    0.48121    1.000
    O125     O        0.69861    0.42160    0.48533    1.000
    O126     O        0.62375    0.26325    0.51059    1.000
    C403     C        0.62160    0.47730    0.50688    1.000
    H273     H        0.61940    0.51480    0.51650    1.000
    H274     H        0.57860    0.48100    0.49910    1.000
    C404     C        0.68460    0.48790    0.49520    1.000
    H275     H        0.67610    0.52660    0.48620    1.000
    H276     H        0.72560    0.50090    0.50300    1.000
    C405     C        0.58000    0.22770    0.49646    1.000
    H277     H        0.53870    0.20510    0.50250    1.000
    H278     H        0.60800    0.19050    0.49020    1.000
    C406     C        0.55520    0.28130    0.48243    1.000
    H279     H        0.55080    0.25850    0.47010    1.000
    H280     H        0.50810    0.29920    0.48610    1.000
    Al28     Al       0.39767    0.60192    0.45869    1.000
    Al29     Al       0.35294    0.60317    0.96310    1.000
    Al30     Al       0.32859    0.65832    0.00055    1.000
    Al31     Al       0.47006    0.49568    0.94434    1.000
    O127     O        0.42126    0.53294    0.96423    1.000
    H281     H        0.43210    0.51450    0.97620    1.000
    O128     O        0.37697    0.59133    0.01590    1.000
    O129     O        0.30150    0.55007    0.94601    1.000
    C407     C        0.14710    0.30430    0.79663    1.000
    O130     O        0.51862    0.46203    0.92267    1.000
    C408     C        0.61040    0.43560    0.90085    1.000
    C409     C        0.74150    0.58000    0.80969    1.000
    O131     O        0.39322    0.50935    0.92803    1.000
    C410     C        0.70860    0.44230    0.84755    1.000
    C411     C        0.99690    0.79380    0.82087    1.000
    C412     C        0.32610    0.52630    0.93053    1.000
    C413     C        0.05960    0.66740    0.83505    1.000
    C414     C        0.16250    0.53380    0.86291    1.000
    C415     C        0.67420    0.39940    0.89786    1.000
    H282     H        0.69590    0.37340    0.90760    1.000
    C416     C        0.12680    0.59640    0.85793    1.000
    H283     H        0.12540    0.63470    0.86650    1.000
    C417     C        0.57920    0.43670    0.92046    1.000
    C418     C        0.13690    0.29280    0.81619    1.000
    H284     H        0.13570    0.24620    0.82110    1.000
    C419     C        0.74820    0.70630    0.80986    1.000
    H285     H        0.75040    0.74930    0.81670    1.000
    C420     C        0.78030    0.45220    0.81357    1.000
    H286     H        0.80490    0.45510    0.80210    1.000
    C421     C        0.70320    0.50130    0.83688    1.000
    H287     H        0.67330    0.53860    0.84090    1.000
    C422     C        0.09420    0.60290    0.84094    1.000
    C423     C        0.96290    0.72700    0.81965    1.000
    H288     H        0.91730    0.72510    0.81410    1.000
    C424     C        0.12600    0.47980    0.83452    1.000
    C425     C        0.28170    0.52290    0.91405    1.000
    C426     C        0.74140    0.58260    0.79014    1.000
    H289     H        0.73760    0.53990    0.78330    1.000
    C427     C        0.06140    0.79320    0.82977    1.000
    H290     H        0.08510    0.83700    0.83130    1.000
    C428     C        0.75140    0.70760    0.79047    1.000
    C429     C        0.13160    0.42000    0.82046    1.000
    C430     C        0.75060    0.38440    0.84092    1.000
    H291     H        0.75550    0.34220    0.84800    1.000
    C431     C        0.16160    0.47610    0.85165    1.000
    H292     H        0.18480    0.43370    0.85530    1.000
    C432     C        0.14470    0.37170    0.78980    1.000
    H293     H        0.14760    0.37970    0.77680    1.000
    C433     C        0.74120    0.50940    0.81969    1.000
    C434     C        0.99220    0.66420    0.82604    1.000
    H294     H        0.96830    0.62040    0.82450    1.000
    C435     C        0.74150    0.64180    0.81941    1.000
    H295     H        0.73700    0.64130    0.83260    1.000
    C436     C        0.26480    0.49290    0.88199    1.000
    H296     H        0.28060    0.46990    0.87100    1.000
    C437     C        0.30590    0.48870    0.89794    1.000
    H297     H        0.34930    0.46340    0.89800    1.000
    C438     C        0.20150    0.52980    0.88157    1.000
    C439     C        0.13790    0.42960    0.80217    1.000
    H298     H        0.13780    0.47640    0.79730    1.000
    C440     C        0.12870    0.35100    0.82792    1.000
    H299     H        0.12130    0.34430    0.84090    1.000
    C441     C        0.60780    0.47130    0.86834    1.000
    H300     H        0.58490    0.49520    0.85840    1.000
    C442     C        0.67230    0.43710    0.86539    1.000
    C443     C        0.70540    0.40250    0.88011    1.000
    H301     H        0.74990    0.38060    0.87810    1.000
    C444     C        0.21620    0.55880    0.91380    1.000
    H302     H        0.19930    0.58120    0.92480    1.000
    C445     C        0.96660    0.85520    0.81271    1.000
    C446     C        0.74640    0.64310    0.78107    1.000
    H303     H        0.74670    0.64280    0.76790    1.000
    O132     O        0.90489    0.85146    0.80598    1.000
    O133     O        0.00274    0.91200    0.81240    1.000
    C447     C        0.09460    0.73210    0.83668    1.000
    H304     H        0.13990    0.73480    0.84230    1.000
    O134     O        0.61878    0.41083    0.93293    1.000
    C448     C        0.17700    0.56150    0.89789    1.000
    H305     H        0.13270    0.58520    0.89790    1.000
    C449     C        0.09200    0.54390    0.82930    1.000
    H306     H        0.06750    0.54660    0.81780    1.000
    C450     C        0.90010    0.34610    0.80994    1.000
    H307     H        0.91720    0.39320    0.80880    1.000
    C451     C        0.80430    0.26150    0.81818    1.000
    H308     H        0.75710    0.25260    0.82200    1.000
    C452     C        0.83120    0.32960    0.81721    1.000
    O135     O        0.15747    0.24822    0.76723    1.000
    O136     O        0.54761    0.47723    0.95909    1.000
    H309     H        0.56030    0.51270    0.96780    1.000
    C453     C        0.94100    0.28530    0.80459    1.000
    H310     H        0.98680    0.29290    0.79960    1.000
    C454     C        0.85060    0.20570    0.81317    1.000
    H311     H        0.83450    0.15840    0.81460    1.000
    C455     C        0.57570    0.46980    0.88695    1.000
    H312     H        0.53160    0.49220    0.88920    1.000
    C456     C        0.78390    0.39230    0.82365    1.000
    C457     C        0.91740    0.21660    0.80635    1.000
    C458     C        0.96240    0.15800    0.80204    1.000
    O137     O        0.02621    0.16565    0.79755    1.000
    O138     O        0.93168    0.09531    0.80197    1.000
    O139     O        0.77003    0.77729    0.76373    1.000
    C459     C        0.76510    0.77450    0.78129    1.000
    O140     O        0.78336    0.82820    0.79157    1.000
    C460     C        0.15680    0.24130    0.78521    1.000
    O141     O        0.16320    0.18301    0.79311    1.000
    O142     O        0.39593    0.66068    0.98121    1.000
    O143     O        0.30139    0.57840    0.98533    1.000
    O144     O        0.37625    0.73675    0.01059    1.000
    C461     C        0.37840    0.52270    0.00688    1.000
    H313     H        0.38060    0.48520    0.01650    1.000
    H314     H        0.42140    0.51900    0.99910    1.000
    C462     C        0.31540    0.51210    0.99520    1.000
    H315     H        0.32390    0.47340    0.98620    1.000
    H316     H        0.27440    0.49910    0.00300    1.000
    C463     C        0.42000    0.77230    0.99646    1.000
    H317     H        0.46130    0.79490    0.00250    1.000
    H318     H        0.39200    0.80950    0.99020    1.000
    C464     C        0.44480    0.71870    0.98243    1.000
    H319     H        0.44920    0.74150    0.97010    1.000
    H320     H        0.49190    0.70080    0.98610    1.000
    Al32     Al       0.60233    0.39808    0.95869    1.000
