# CIF file generated by openbabel 3.1.0, see https://openbabel.org
data_I
_chemical_name_common 'ZERNUH_clean'
_cell_length_a 12.825
_cell_length_b 13.672
_cell_length_c 14.227
_cell_angle_alpha 66.182
_cell_angle_beta 66.8
_cell_angle_gamma 77.064
_space_group_name_H-M_alt 'P 1'
_space_group_name_Hall 'P 1'
loop_
    _symmetry_equiv_pos_as_xyz
    x,y,z
loop_
    _atom_site_label
    _atom_site_type_symbol
    _atom_site_fract_x
    _atom_site_fract_y
    _atom_site_fract_z
    _atom_site_occupancy
    Dy1      Dy       0.42861    0.38149    0.51149    1.000
    Dy2      Dy       0.43190    0.32041    0.16495    1.000
    Dy3      Dy       0.57139    0.61851    0.48851    1.000
    Dy4      Dy       0.56810    0.67959    0.83505    1.000
    H1       H        0.52010    0.27910    0.02680    1.000
    H2       H        0.44850    0.19160    0.04490    1.000
    H3       H        0.67500    0.17350    0.49470    1.000
    H4       H        0.77940    0.86750    0.52620    1.000
    H5       H        0.59500    0.02760    0.34200    1.000
    H6       H        0.88210    0.14550    0.48740    1.000
    H7       H        0.99380    0.14240    0.58090    1.000
    H8       H        0.98220    0.00900    0.74890    1.000
    H9       H        0.86000    0.87700    0.81890    1.000
    H10      H        0.97580    0.73650    0.73730    1.000
    H11      H        0.04600    0.76340    0.85010    1.000
    H12      H        0.22400    0.68730    0.85860    1.000
    H13      H        0.32770    0.58030    0.75590    1.000
    H14      H        0.89150    0.62850    0.70780    1.000
    H15      H        0.92570    0.62940    0.41480    1.000
    H16      H        0.19450    0.63430    0.47430    1.000
    H17      H        0.14630    0.48730    0.05690    1.000
    H18      H        0.95530    0.54100    0.11110    1.000
    H19      H        0.89170    0.68050    0.17820    1.000
    H20      H        0.01960    0.76160    0.19560    1.000
    H21      H        0.20480    0.87990    0.07760    1.000
    H22      H        0.41750    0.84260    0.22680    1.000
    H23      H        0.29850    0.58430    0.24990    1.000
    H24      H        0.47990    0.72090    0.97320    1.000
    H25      H        0.55150    0.80840    0.95510    1.000
    H26      H        0.32500    0.82650    0.50530    1.000
    H27      H        0.22060    0.13250    0.47380    1.000
    H28      H        0.40500    0.97240    0.65800    1.000
    H29      H        0.11790    0.85450    0.51260    1.000
    H30      H        0.00620    0.85760    0.41910    1.000
    H31      H        0.01780    0.99100    0.25110    1.000
    H32      H        0.14000    0.12300    0.18110    1.000
    H33      H        0.02420    0.26350    0.26270    1.000
    H34      H        0.95400    0.23660    0.14990    1.000
    H35      H        0.77600    0.31270    0.14140    1.000
    H36      H        0.67230    0.41970    0.24410    1.000
    H37      H        0.10850    0.37150    0.29220    1.000
    H38      H        0.07430    0.37060    0.58520    1.000
    H39      H        0.80550    0.36570    0.52570    1.000
    H40      H        0.85370    0.51270    0.94310    1.000
    H41      H        0.04470    0.45900    0.88890    1.000
    H42      H        0.10830    0.31950    0.82180    1.000
    H43      H        0.98040    0.23840    0.80440    1.000
    H44      H        0.79520    0.12010    0.92240    1.000
    H45      H        0.58250    0.15740    0.77320    1.000
    H46      H        0.70150    0.41570    0.75010    1.000
    C1       C        0.56110    0.21740    0.35730    1.000
    C2       C        0.62530    0.11710    0.40900    1.000
    C3       C        0.67840    0.11310    0.47870    1.000
    C4       C        0.73750    0.01700    0.52510    1.000
    C5       C        0.73890    0.93080    0.49770    1.000
    C6       C        0.63090    0.02490    0.38850    1.000
    C7       C        0.80210    0.01130    0.59510    1.000
    C8       C        0.87720    0.09070    0.55400    1.000
    C9       C        0.94390    0.08920    0.61040    1.000
    C10      C        0.93760    0.00940    0.71060    1.000
    C11      C        0.86440    0.93120    0.75190    1.000
    C12      C        0.79590    0.93080    0.69590    1.000
    C13      C        0.71460    0.84430    0.75050    1.000
    C14      C        0.29030    0.52240    0.62280    1.000
    C15      C        0.21550    0.59600    0.68200    1.000
    C16      C        0.10710    0.64060    0.67670    1.000
    C17      C        0.04700    0.70430    0.74050    1.000
    C18      C        0.08910    0.72130    0.80830    1.000
    C19      C        0.19480    0.67580    0.81390    1.000
    C20      C        0.25700    0.61250    0.75140    1.000
    C21      C        0.05490    0.63120    0.60390    1.000
    C22      C        0.93670    0.63020    0.63750    1.000
    C23      C        0.88650    0.63200    0.56530    1.000
    C24      C        0.95830    0.63020    0.46240    1.000
    C25      C        0.11610    0.63200    0.49850    1.000
    C26      C        0.76030    0.63800    0.59620    1.000
    C27      C        0.32460    0.56510    0.03710    1.000
    C28      C        0.20070    0.59430    0.08940    1.000
    C29      C        0.12130    0.54350    0.08350    1.000
    C30      C        0.00680    0.57520    0.11630    1.000
    C31      C        0.96870    0.65800    0.15710    1.000
    C32      C        0.04600    0.70730    0.16640    1.000
    C33      C        0.16190    0.67730    0.13300    1.000
    C34      C        0.23950    0.72490    0.15570    1.000
    C35      C        0.24720    0.83430    0.12090    1.000
    C36      C        0.37230    0.81290    0.20930    1.000
    C37      C        0.36960    0.70240    0.24990    1.000
    C38      C        0.30210    0.65820    0.22310    1.000
    C39      C        0.43650    0.63230    0.32120    1.000
    C40      C        0.43890    0.78260    0.64270    1.000
    C41      C        0.37470    0.88290    0.59100    1.000
    C42      C        0.32160    0.88690    0.52130    1.000
    C43      C        0.26250    0.98300    0.47490    1.000
    C44      C        0.26110    0.06920    0.50230    1.000
    C45      C        0.36910    0.97510    0.61150    1.000
    C46      C        0.19790    0.98870    0.40490    1.000
    C47      C        0.12280    0.90930    0.44600    1.000
    C48      C        0.05610    0.91080    0.38960    1.000
    C49      C        0.06240    0.99060    0.28940    1.000
    C50      C        0.13560    0.06880    0.24810    1.000
    C51      C        0.20410    0.06920    0.30410    1.000
    C52      C        0.28540    0.15570    0.24950    1.000
    C53      C        0.70970    0.47760    0.37720    1.000
    C54      C        0.78450    0.40400    0.31800    1.000
    C55      C        0.89290    0.35940    0.32330    1.000
    C56      C        0.95300    0.29570    0.25950    1.000
    C57      C        0.91090    0.27870    0.19170    1.000
    C58      C        0.80520    0.32420    0.18610    1.000
    C59      C        0.74300    0.38750    0.24860    1.000
    C60      C        0.94510    0.36880    0.39610    1.000
    C61      C        0.06330    0.36980    0.36250    1.000
    C62      C        0.11350    0.36800    0.43470    1.000
    C63      C        0.04170    0.36980    0.53760    1.000
    C64      C        0.88390    0.36800    0.50150    1.000
    C65      C        0.23970    0.36200    0.40380    1.000
    C66      C        0.67540    0.43490    0.96290    1.000
    C67      C        0.79930    0.40570    0.91060    1.000
    C68      C        0.87870    0.45650    0.91650    1.000
    C69      C        0.99320    0.42480    0.88370    1.000
    C70      C        0.03130    0.34200    0.84290    1.000
    C71      C        0.95400    0.29270    0.83360    1.000
    C72      C        0.83810    0.32270    0.86700    1.000
    C73      C        0.76050    0.27510    0.84430    1.000
    C74      C        0.75280    0.16570    0.87910    1.000
    C75      C        0.62770    0.18710    0.79070    1.000
    C76      C        0.63040    0.29760    0.75010    1.000
    C77      C        0.69790    0.34180    0.77690    1.000
    C78      C        0.56350    0.36770    0.67880    1.000
    N1       N        0.68540    0.93230    0.43220    1.000
    N2       N        0.07110    0.62950    0.42860    1.000
    N3       N        0.31220    0.87900    0.14540    1.000
    N4       N        0.31460    0.06770    0.56780    1.000
    N5       N        0.92890    0.37050    0.57140    1.000
    N6       N        0.68780    0.12100    0.85460    1.000
    O1       O        0.52560    0.28620    0.40350    1.000
    O2       O        0.54830    0.22770    0.27070    1.000
    O3       O        0.62110    0.86280    0.73500    1.000
    O4       O        0.74120    0.75330    0.81240    1.000
    O5       O        0.25620    0.43830    0.63500    1.000
    O6       O        0.39130    0.54670    0.56110    1.000
    O7       O        0.69960    0.64030    0.69060    1.000
    O8       O        0.72160    0.63990    0.52750    1.000
    O9       O        0.35620    0.46730    0.05050    1.000
    O10      O        0.38820    0.64010    0.97740    1.000
    O11      O        0.43110    0.53180    0.35270    1.000
    O12      O        0.49240    0.67630    0.34820    1.000
    O13      O        0.47580    0.23990    0.02890    1.000
    O14      O        0.47440    0.71380    0.59650    1.000
    O15      O        0.45170    0.77230    0.72930    1.000
    O16      O        0.37890    0.13720    0.26500    1.000
    O17      O        0.25880    0.24670    0.18760    1.000
    O18      O        0.74380    0.56170    0.36500    1.000
    O19      O        0.60870    0.45330    0.43890    1.000
    O20      O        0.30040    0.35970    0.30940    1.000
    O21      O        0.27840    0.36010    0.47250    1.000
    O22      O        0.64380    0.53270    0.94950    1.000
    O23      O        0.61180    0.35990    0.02260    1.000
    O24      O        0.56890    0.46820    0.64730    1.000
    O25      O        0.50760    0.32370    0.65180    1.000
    O26      O        0.52420    0.76010    0.97110    1.000
