data_functionalizedCrystal
_audit_creation_method	'EQeq! by Chris Wilmer'
_symmetry_space_group_name_H-M	'P1'
_symmetry_Int_Tables_number	1
_symmetry_cell_setting	triclinic
loop_
_symmetry_equiv_pos_as_xyz
  x,y,z
_cell_length_a	8.132
_cell_length_b	13.224
_cell_length_c	7.537
_cell_angle_alpha	90
_cell_angle_beta	115.31
_cell_angle_gamma	90
loop_
_atom_site_label
_atom_site_type_symbol
_atom_site_fract_x
_atom_site_fract_y
_atom_site_fract_z
_atom_site_charge
Mof_Co	Co	0.5	0.63933	0.5	1.162
Mof_O 	O 	0.4712	0.4918	0.3888	-0.423
Mof_O 	O 	0.3327	0.3791	0.1535	-0.45
Mof_O 	O 	0.2779	0.6769	0.2419	-0.41
Mof_O 	O 	0.9876	0.7078	0.0578	-0.141
Mof_C 	C 	0.3311	0.4477	0.2706	0.363
Mof_C 	C 	0.1482	0.4667	0.2663	-0.166
Mof_C 	C 	0.0547	0.5525	0.2216	-0.14
Mof_C 	C 	0.1146	0.6523	0.172	0.044
Mof_Co	Co	2.48035e-33	0.13933	0.5	0.966
Mof_O 	O 	0.9712	0.9918	0.3888	-0.313
Mof_O 	O 	0.8327	0.8791	0.1535	-0.352
Mof_O 	O 	0.7779	0.1769	0.2419	-0.396
Mof_O 	O 	0.4876	0.2078	0.0578	-0.484
Mof_C 	C 	0.8311	0.9477	0.2706	0.327
Mof_C 	C 	0.6482	0.9667	0.2663	-0.073
Mof_C 	C 	0.5547	0.0525	0.2216	-0.159
Mof_C 	C 	0.6146	0.1523	0.172	0.366
Mof_Co	Co	0.5	0.36067	-0	1.111
Mof_O 	O 	0.4712	0.5082	0.8888	-0.356
Mof_O 	O 	0.3327	0.6209	0.6535	-0.397
Mof_O 	O 	0.2779	0.3231	0.7419	-0.345
Mof_O 	O 	0.9876	0.2922	0.5578	-0.091
Mof_C 	C 	0.3311	0.5523	0.7706	0.36
Mof_C 	C 	0.1482	0.5333	0.7663	-0.11
Mof_C 	C 	0.0547	0.4475	0.7216	-0.091
Mof_C 	C 	0.1146	0.3477	0.672	0.042
Mof_Co	Co	-0	0.86067	-0	0.919
Mof_O 	O 	0.9712	0.0082	0.8888	-0.259
Mof_O 	O 	0.8327	0.1209	0.6535	-0.303
Mof_O 	O 	0.7779	0.8231	0.7419	-0.33
Mof_O 	O 	0.4876	0.7922	0.5578	-0.431
Mof_C 	C 	0.8311	0.0523	0.7706	0.329
Mof_C 	C 	0.6482	0.0333	0.7663	-0.037
Mof_C 	C 	0.5547	0.9475	0.7216	-0.092
Mof_C 	C 	0.6146	0.8477	0.672	0.36
_end
