data_functionalizedCrystal
_audit_creation_method	'EQeq! by Chris Wilmer'
_symmetry_space_group_name_H-M	'P1'
_symmetry_Int_Tables_number	1
_symmetry_cell_setting	triclinic
loop_
_symmetry_equiv_pos_as_xyz
  x,y,z
_cell_length_a	13.9899
_cell_length_b	13.9899
_cell_length_c	14.936
_cell_angle_alpha	90
_cell_angle_beta	90
_cell_angle_gamma	120
loop_
_atom_site_label
_atom_site_type_symbol
_atom_site_fract_x
_atom_site_fract_y
_atom_site_fract_z
_atom_site_charge
Mof_As	As	0.32532	0.86313	0.48033	0.61
Mof_Fe	Fe	0.53674	0.87024	0.59595	1.036
Mof_O 	O 	0.4095	0.821	0.51955	-0.375
Mof_O 	O 	0.3767	0.9994	0.48302	-0.294
Mof_O 	O 	0.2028	0.8072	0.53243	-0.311
Mof_O 	O 	0.2987	0.8232	0.37021	-0.402
Mof_H 	H 	0.3124	0.7736	0.3609	0.245
Mof_O 	O 	0.4657	0.7465	0.67909	-0.334
Mof_O 	O 	0.4868	0.9574	0.68377	-0.255
Mof_O 	O 	0.6713	0.9455	0.68899	-0.214
Mof_As	As	0.13687	0.46219	0.48033	0.604
Mof_Fe	Fe	0.12976	0.6665	0.59595	0.998
Mof_O 	O 	0.179	0.5885	0.51955	-0.379
Mof_O 	O 	0.0006	0.3773	0.48302	-0.343
Mof_O 	O 	0.1928	0.3956	0.53243	-0.315
Mof_O 	O 	0.1768	0.4755	0.37021	-0.414
Mof_H 	H 	0.2264	0.5388	0.3609	0.248
Mof_O 	O 	0.2535	0.7192	0.67909	-0.33
Mof_O 	O 	0.0426	0.5294	0.68377	-0.288
Mof_O 	O 	0.0545	0.7258	0.68899	-0.247
Mof_As	As	0.53781	0.67468	0.48033	0.61
Mof_Fe	Fe	0.3335	0.46326	0.59595	1.017
Mof_O 	O 	0.4115	0.5905	0.51955	-0.377
Mof_O 	O 	0.6227	0.6233	0.48302	-0.314
Mof_O 	O 	0.6044	0.7972	0.53243	-0.301
Mof_O 	O 	0.5245	0.7013	0.37021	-0.404
Mof_H 	H 	0.4612	0.6876	0.3609	0.247
Mof_O 	O 	0.2808	0.5343	0.67909	-0.335
Mof_O 	O 	0.4706	0.5132	0.68377	-0.285
Mof_O 	O 	0.2742	0.3287	0.68899	-0.26
Mof_As	As	0.86313	0.32532	0.01967	0.607
Mof_Fe	Fe	0.87024	0.53674	0.90405	1.038
Mof_O 	O 	0.821	0.4095	0.98045	-0.372
Mof_O 	O 	0.9994	0.3767	0.01698	-0.295
Mof_O 	O 	0.8072	0.2028	0.96757	-0.307
Mof_O 	O 	0.8232	0.2987	0.12979	-0.402
Mof_H 	H 	0.7736	0.3124	0.1391	0.246
Mof_O 	O 	0.7465	0.4657	0.82091	-0.333
Mof_O 	O 	0.9574	0.4868	0.81623	-0.252
Mof_O 	O 	0.9455	0.6713	0.81101	-0.212
Mof_As	As	0.46219	0.13687	0.01967	0.602
Mof_Fe	Fe	0.6665	0.12976	0.90405	1
Mof_O 	O 	0.5885	0.179	0.98045	-0.378
Mof_O 	O 	0.3773	0.0006	0.01698	-0.344
Mof_O 	O 	0.3956	0.1928	0.96757	-0.313
Mof_O 	O 	0.4755	0.1768	0.12979	-0.414
Mof_H 	H 	0.5388	0.2264	0.1391	0.248
Mof_O 	O 	0.7192	0.2535	0.82091	-0.33
Mof_O 	O 	0.5294	0.0426	0.81623	-0.288
Mof_O 	O 	0.7258	0.0545	0.81101	-0.247
Mof_As	As	0.67468	0.53781	0.01967	0.608
Mof_Fe	Fe	0.46326	0.3335	0.90405	1.017
Mof_O 	O 	0.5905	0.4115	0.98045	-0.376
Mof_O 	O 	0.6233	0.6227	0.01698	-0.314
Mof_O 	O 	0.7972	0.6044	0.96757	-0.301
Mof_O 	O 	0.7013	0.5245	0.12979	-0.404
Mof_H 	H 	0.6876	0.4612	0.1391	0.247
Mof_O 	O 	0.5343	0.2808	0.82091	-0.335
Mof_O 	O 	0.5132	0.4706	0.81623	-0.285
Mof_O 	O 	0.3287	0.2742	0.81101	-0.259
Mof_As	As	0.67468	0.13687	0.51967	0.606
Mof_Fe	Fe	0.46326	0.12976	0.40405	0.997
Mof_O 	O 	0.5905	0.179	0.48045	-0.379
Mof_O 	O 	0.6233	0.0006	0.51698	-0.34
Mof_O 	O 	0.7972	0.1928	0.46757	-0.308
Mof_O 	O 	0.7013	0.1768	0.62979	-0.41
Mof_H 	H 	0.6876	0.2264	0.6391	0.248
Mof_O 	O 	0.5343	0.2535	0.32091	-0.331
Mof_O 	O 	0.5132	0.0426	0.31623	-0.287
Mof_O 	O 	0.3287	0.0545	0.31101	-0.255
Mof_As	As	0.86313	0.53781	0.51967	0.612
Mof_Fe	Fe	0.87024	0.3335	0.40405	1.036
Mof_O 	O 	0.821	0.4115	0.48045	-0.374
Mof_O 	O 	0.9994	0.6227	0.51698	-0.29
Mof_O 	O 	0.8072	0.6044	0.46757	-0.302
Mof_O 	O 	0.8232	0.5245	0.62979	-0.397
Mof_H 	H 	0.7736	0.4612	0.6391	0.246
Mof_O 	O 	0.7465	0.2808	0.32091	-0.335
Mof_O 	O 	0.9574	0.4706	0.31623	-0.253
Mof_O 	O 	0.9455	0.2742	0.31101	-0.223
Mof_As	As	0.46219	0.32532	0.51967	0.607
Mof_Fe	Fe	0.6665	0.53674	0.40405	1.019
Mof_O 	O 	0.5885	0.4095	0.48045	-0.377
Mof_O 	O 	0.3773	0.3767	0.51698	-0.32
Mof_O 	O 	0.3956	0.2028	0.46757	-0.316
Mof_O 	O 	0.4755	0.2987	0.62979	-0.412
Mof_H 	H 	0.5388	0.3124	0.6391	0.248
Mof_O 	O 	0.7192	0.4657	0.32091	-0.331
Mof_O 	O 	0.5294	0.4868	0.31623	-0.288
Mof_O 	O 	0.7258	0.6713	0.31101	-0.243
Mof_As	As	0.13687	0.67468	0.98033	0.602
Mof_Fe	Fe	0.12976	0.46326	0.09595	0.998
Mof_O 	O 	0.179	0.5905	0.01955	-0.377
Mof_O 	O 	0.0006	0.6233	0.98302	-0.341
Mof_O 	O 	0.1928	0.7972	0.03243	-0.305
Mof_O 	O 	0.1768	0.7013	0.87021	-0.41
Mof_H 	H 	0.2264	0.6876	0.8609	0.248
Mof_O 	O 	0.2535	0.5343	0.17909	-0.332
Mof_O 	O 	0.0426	0.5132	0.18377	-0.286
Mof_O 	O 	0.0545	0.3287	0.18899	-0.256
Mof_As	As	0.53781	0.86313	0.98033	0.61
Mof_Fe	Fe	0.3335	0.87024	0.09595	1.037
Mof_O 	O 	0.4115	0.821	0.01955	-0.373
Mof_O 	O 	0.6227	0.9994	0.98302	-0.292
Mof_O 	O 	0.6044	0.8072	0.03243	-0.301
Mof_O 	O 	0.5245	0.8232	0.87021	-0.397
Mof_H 	H 	0.4612	0.7736	0.8609	0.245
Mof_O 	O 	0.2808	0.7465	0.17909	-0.335
Mof_O 	O 	0.4706	0.9574	0.18377	-0.251
Mof_O 	O 	0.2742	0.9455	0.18899	-0.22
Mof_As	As	0.32532	0.46219	0.98033	0.606
Mof_Fe	Fe	0.53674	0.6665	0.09595	1.019
Mof_O 	O 	0.4095	0.5885	0.01955	-0.376
Mof_O 	O 	0.3767	0.3773	0.98302	-0.319
Mof_O 	O 	0.2028	0.3956	0.03243	-0.315
Mof_O 	O 	0.2987	0.4755	0.87021	-0.412
Mof_H 	H 	0.3124	0.5388	0.8609	0.248
Mof_O 	O 	0.4657	0.7192	0.17909	-0.331
Mof_O 	O 	0.4868	0.5294	0.18377	-0.288
Mof_O 	O 	0.6713	0.7258	0.18899	-0.243
Mof_As	As	0.33333	0.66667	0.70826	0.467
Mof_As	As	0.66667	0.33333	0.79174	0.467
Mof_As	As	0.66667	0.33333	0.29174	0.467
Mof_As	As	0.33333	0.66667	0.20826	0.467
Mof_C 	C 	0.5494	0	0.75	0.216
Mof_C 	C 	0.6592	0	0.75	0.219
Mof_C 	C 	-8.24557e-18	0.5494	0.75	0.214
Mof_C 	C 	-8.24557e-18	0.6592	0.75	0.216
Mof_C 	C 	0.4506	0.4506	0.75	0.249
Mof_C 	C 	0.3408	0.3408	0.75	0.256
Mof_C 	C 	0.4506	0	0.25	0.213
Mof_C 	C 	0.3408	0	0.25	0.218
Mof_C 	C 	-3.26867e-17	0.4506	0.25	0.215
Mof_C 	C 	-3.26867e-17	0.3408	0.25	0.221
Mof_C 	C 	0.5494	0.5494	0.25	0.251
Mof_C 	C 	0.6592	0.6592	0.25	0.253
_end
