data_functionalizedCrystal
_audit_creation_method	'EQeq! by Chris Wilmer'
_symmetry_space_group_name_H-M	'P1'
_symmetry_Int_Tables_number	1
_symmetry_cell_setting	triclinic
loop_
_symmetry_equiv_pos_as_xyz
  x,y,z
_cell_length_a	9.6788
_cell_length_b	17.4058
_cell_length_c	31.4114
_cell_angle_alpha	77.0011
_cell_angle_beta	81.1374
_cell_angle_gamma	73.8571
loop_
_atom_site_label
_atom_site_type_symbol
_atom_site_fract_x
_atom_site_fract_y
_atom_site_fract_z
_atom_site_charge
Mof_Zn	Zn	0.40538	0.44741	0.48821	1.176
Mof_Zn	Zn	0.67104	0.34028	0.53766	1.217
Mof_Zn	Zn	0.341	0.05259	0.01179	1.176
Mof_Zn	Zn	0.54898	0.15972	0.96234	1.217
Mof_Zn	Zn	0.59462	0.55259	0.51179	1.176
Mof_Zn	Zn	0.32896	0.65972	0.46234	1.217
Mof_Zn	Zn	0.659	0.94741	0.98821	1.176
Mof_Zn	Zn	0.45102	0.84028	0.03766	1.217
Mof_Si	Si	0.54034	0.99085	0.39215	0.831
Mof_Si	Si	0.92334	0.50915	0.10785	0.826
Mof_Si	Si	0.45966	0.00915	0.60785	0.831
Mof_Si	Si	0.07666	0.49085	0.89215	0.826
Mof_Si	Si	0.9988	0.25	0.75	0.888
Mof_Si	Si	0.0012	0.75	0.25	0.888
Mof_H 	H 	0.422	0.1665	0.3779	-0.016
Mof_H 	H 	0.425	0.2737	0.4103	0.06
Mof_H 	H 	0.7269	0.1196	0.4874	0.073
Mof_H 	H 	0.7117	0.0121	0.4571	-0.013
Mof_H 	H 	0.3979	0.8601	0.3987	-0.032
Mof_H 	H 	0.1702	0.84	0.42	0.1
Mof_H 	H 	0.9874	0.938	0.4474	-0.011
Mof_H 	H 	0.0358	0.0603	0.4547	0.099
Mof_H 	H 	0.2649	0.0792	0.4348	-0.039
Mof_H 	H 	0.6647	0.1054	0.3198	-0.051
Mof_H 	H 	0.6718	0.1403	0.2455	0.109
Mof_H 	H 	0.6025	0.0611	0.2067	-0.03
Mof_H 	H 	0.534	0.9437	0.2461	0.104
Mof_H 	H 	0.4836	0.9257	0.3215	-0.052
Mof_H 	H 	0.5773	0.8513	0.4667	-0.01
Mof_H 	H 	0.7567	0.7325	0.4875	0.069
Mof_H 	H 	0.0124	0.798	0.3792	0.07
Mof_H 	H 	0.828	0.9116	0.356	-0.013
Mof_H 	H 	0.9669	0.3743	0.6669	-0.027
Mof_H 	H 	0.1155	0.4064	0.6046	0.075
Mof_H 	H 	0.4539	0.239	0.6576	0.071
Mof_H 	H 	0.3037	0.2047	0.7199	-0.022
Mof_H 	H 	0.7596	0.2403	0.7087	-0.064
Mof_H 	H 	0.687	0.1451	0.6835	0.125
Mof_H 	H 	0.8213	0.0135	0.6941	-0.04
Mof_H 	H 	0.0248	0.9739	0.7329	0.12
Mof_H 	H 	0.0978	0.0729	0.7581	-0.062
Mof_H 	H 	0.9664	0.3335	0.1221	-0.013
Mof_H 	H 	0.109	0.2263	0.0897	0.059
Mof_H 	H 	0.3339	0.3804	0.0126	0.073
Mof_H 	H 	0.1809	0.4879	0.0429	-0.013
Mof_H 	H 	0.6567	0.6399	0.1013	-0.031
Mof_H 	H 	0.4302	0.66	0.08	0.1
Mof_H 	H 	0.3728	0.562	0.0526	-0.011
Mof_H 	H 	0.5508	0.4397	0.0453	0.098
Mof_H 	H 	0.7789	0.4208	0.0652	-0.038
Mof_H 	H 	0.0899	0.3946	0.1802	-0.045
Mof_H 	H 	0.0576	0.3597	0.2545	0.1
Mof_H 	H 	0.8703	0.4389	0.2933	-0.024
Mof_H 	H 	0.7238	0.5563	0.2539	0.1
Mof_H 	H 	0.7308	0.5743	0.1785	-0.048
Mof_H 	H 	0.8953	0.6487	0.0333	-0.01
Mof_H 	H 	0.9767	0.7675	0.0125	0.069
Mof_H 	H 	0.1896	0.702	0.1208	0.071
Mof_H 	H 	0.0956	0.5884	0.144	-0.013
Mof_H 	H 	0.0081	0.1257	0.8331	-0.024
Mof_H 	H 	0.1265	0.0936	0.8954	0.074
Mof_H 	H 	0.3505	0.261	0.8424	0.07
Mof_H 	H 	0.2283	0.2953	0.7801	-0.022
Mof_H 	H 	0.7086	0.2597	0.7913	-0.061
Mof_H 	H 	0.5156	0.3549	0.8165	0.122
Mof_H 	H 	0.5289	0.4865	0.8059	-0.036
Mof_H 	H 	0.7316	0.5261	0.7671	0.112
Mof_H 	H 	0.9288	0.4271	0.7419	-0.058
Mof_H 	H 	0.578	0.8335	0.6221	-0.016
Mof_H 	H 	0.575	0.7263	0.5897	0.06
Mof_H 	H 	0.2731	0.8804	0.5126	0.073
Mof_H 	H 	0.2883	0.9879	0.5429	-0.013
Mof_H 	H 	0.6021	0.1399	0.6013	-0.032
Mof_H 	H 	0.8298	0.16	0.58	0.1
Mof_H 	H 	0.0126	0.062	0.5526	-0.011
Mof_H 	H 	0.9642	0.9397	0.5453	0.099
Mof_H 	H 	0.7351	0.9208	0.5652	-0.039
Mof_H 	H 	0.3353	0.8946	0.6802	-0.051
Mof_H 	H 	0.3282	0.8597	0.7545	0.109
Mof_H 	H 	0.3975	0.9389	0.7933	-0.03
Mof_H 	H 	0.466	0.0563	0.7539	0.104
Mof_H 	H 	0.5164	0.0743	0.6785	-0.052
Mof_H 	H 	0.4227	0.1487	0.5333	-0.01
Mof_H 	H 	0.2433	0.2675	0.5125	0.069
Mof_H 	H 	0.9876	0.202	0.6208	0.07
Mof_H 	H 	0.172	0.0884	0.644	-0.013
Mof_H 	H 	0.0331	0.6257	0.3331	-0.027
Mof_H 	H 	0.8845	0.5936	0.3954	0.075
Mof_H 	H 	0.5461	0.761	0.3424	0.071
Mof_H 	H 	0.6963	0.7953	0.2801	-0.022
Mof_H 	H 	0.2404	0.7597	0.2913	-0.064
Mof_H 	H 	0.313	0.8549	0.3165	0.125
Mof_H 	H 	0.1787	0.9865	0.3059	-0.04
Mof_H 	H 	0.9752	0.0261	0.2671	0.12
Mof_H 	H 	0.9022	0.9271	0.2419	-0.062
Mof_H 	H 	0.0336	0.6665	0.8779	-0.013
Mof_H 	H 	0.891	0.7737	0.9103	0.059
Mof_H 	H 	0.6661	0.6196	0.9874	0.073
Mof_H 	H 	0.8191	0.5121	0.9571	-0.013
Mof_H 	H 	0.3433	0.3601	0.8987	-0.031
Mof_H 	H 	0.5698	0.34	0.92	0.1
Mof_H 	H 	0.6272	0.438	0.9474	-0.011
Mof_H 	H 	0.4492	0.5603	0.9547	0.098
Mof_H 	H 	0.2211	0.5792	0.9348	-0.038
Mof_H 	H 	0.9101	0.6054	0.8198	-0.045
Mof_H 	H 	0.9424	0.6403	0.7455	0.1
Mof_H 	H 	0.1297	0.5611	0.7067	-0.024
Mof_H 	H 	0.2762	0.4437	0.7461	0.1
Mof_H 	H 	0.2692	0.4257	0.8215	-0.048
Mof_H 	H 	0.1047	0.3513	0.9667	-0.01
Mof_H 	H 	0.0233	0.2325	0.9875	0.069
Mof_H 	H 	0.8104	0.298	0.8792	0.071
Mof_H 	H 	0.9044	0.4116	0.856	-0.013
Mof_H 	H 	0.9919	0.8743	0.1669	-0.024
Mof_H 	H 	0.8735	0.9064	0.1046	0.074
Mof_H 	H 	0.6495	0.739	0.1576	0.07
Mof_H 	H 	0.7717	0.7047	0.2199	-0.022
Mof_H 	H 	0.2914	0.7403	0.2087	-0.061
Mof_H 	H 	0.4844	0.6451	0.1835	0.122
Mof_H 	H 	0.4711	0.5135	0.1941	-0.036
Mof_H 	H 	0.2684	0.4739	0.2329	0.112
Mof_H 	H 	0.0712	0.5729	0.2581	-0.058
Mof_C 	C 	0.56417	0.07666	0.4146	-0.291
Mof_C 	C 	0.4818	0.1563	0.4009	0.09
Mof_C 	C 	0.48456	0.22078	0.4197	-0.09
Mof_C 	C 	0.57571	0.20698	0.4526	-0.037
Mof_C 	C 	0.66223	0.12914	0.4658	-0.094
Mof_C 	C 	0.65401	0.06518	0.4472	0.093
Mof_C 	C 	0.57282	0.2754	0.47476	0.364
Mof_C 	C 	0.35685	0.9738	0.4133	-0.335
Mof_C 	C 	0.32426	0.90148	0.41	0.16
Mof_C 	C 	0.1889	0.8893	0.4227	-0.209
Mof_C 	C 	0.0813	0.9466	0.439	0.118
Mof_C 	C 	0.1101	0.0195	0.4433	-0.211
Mof_C 	C 	0.246	0.0306	0.431	0.171
Mof_C 	C 	0.5589	0.0176	0.3304	-0.36
Mof_C 	C 	0.6247	0.0761	0.3049	0.208
Mof_C 	C 	0.6363	0.0948	0.2606	-0.259
Mof_C 	C 	0.5974	0.0483	0.2379	0.157
Mof_C 	C 	0.5498	0.9815	0.2613	-0.237
Mof_C 	C 	0.5251	0.9689	0.3065	0.191
Mof_C 	C 	0.68281	0.89452	0.40906	-0.29
Mof_C 	C 	0.66527	0.84016	0.4483	0.098
Mof_C 	C 	0.77294	0.77002	0.4613	-0.099
Mof_C 	C 	0.90264	0.7556	0.43592	-0.016
Mof_C 	C 	0.92284	0.80844	0.39688	-0.098
Mof_C 	C 	0.81345	0.87661	0.38329	0.098
Mof_C 	C 	0.02604	0.68437	0.45075	0.314
Mof_C 	C 	0.1179	0.2865	0.7013	-0.314
Mof_C 	C 	0.06643	0.34624	0.6655	0.119
Mof_C 	C 	0.15509	0.36565	0.62837	-0.11
Mof_C 	C 	0.29934	0.32765	0.62487	-0.021
Mof_C 	C 	0.3544	0.2669	0.6595	-0.106
Mof_C 	C 	0.2643	0.2469	0.6967	0.107
Mof_C 	C 	0.39757	0.34778	0.58508	0.342
Mof_C 	C 	0.9362	0.167	0.7366	-0.408
Mof_C 	C 	0.8153	0.1853	0.7139	0.239
Mof_C 	C 	0.7714	0.1294	0.6986	-0.297
Mof_C 	C 	0.8493	0.0529	0.7051	0.199
Mof_C 	C 	0.9709	0.0292	0.7278	-0.277
Mof_C 	C 	0.0135	0.0883	0.7431	0.236
Mof_C 	C 	0.05543	0.42334	0.0854	-0.289
Mof_C 	C 	0.039	0.3437	0.0991	0.084
Mof_C 	C 	0.12504	0.27922	0.0803	-0.088
Mof_C 	C 	0.23529	0.29302	0.0474	-0.038
Mof_C 	C 	0.25717	0.37086	0.0342	-0.093
Mof_C 	C 	0.16639	0.43482	0.0528	0.091
Mof_C 	C 	0.32298	0.2246	0.02524	0.365
Mof_C 	C 	0.74395	0.5262	0.0867	-0.334
Mof_C 	C 	0.63574	0.59852	0.09	0.159
Mof_C 	C 	0.5009	0.6107	0.0773	-0.207
Mof_C 	C 	0.4669	0.5534	0.061	0.117
Mof_C 	C 	0.5729	0.4805	0.0567	-0.209
Mof_C 	C 	0.7076	0.4694	0.069	0.17
Mof_C 	C 	0.9069	0.4824	0.1696	-0.347
Mof_C 	C 	0.0057	0.4239	0.1951	0.187
Mof_C 	C 	0.9917	0.4052	0.2394	-0.236
Mof_C 	C 	0.8836	0.4517	0.2621	0.14
Mof_C 	C 	0.7926	0.5185	0.2387	-0.224
Mof_C 	C 	0.8005	0.5311	0.1935	0.179
Mof_C 	C 	0.98639	0.60548	0.09094	-0.287
Mof_C 	C 	0.95373	0.65984	0.0517	0.097
Mof_C 	C 	0.00426	0.72998	0.0387	-0.1
Mof_C 	C 	0.09416	0.7444	0.06408	-0.016
Mof_C 	C 	0.12816	0.69156	0.10312	-0.099
Mof_C 	C 	0.07335	0.62339	0.11671	0.096
Mof_C 	C 	0.16116	0.81563	0.04925	0.315
Mof_C 	C 	0.1057	0.2135	0.7987	-0.312
Mof_C 	C 	0.07817	0.15376	0.8345	0.114
Mof_C 	C 	0.14911	0.13435	0.87163	-0.107
Mof_C 	C 	0.25186	0.17235	0.87513	-0.022
Mof_C 	C 	0.2808	0.2331	0.8405	-0.104
Mof_C 	C 	0.2079	0.2531	0.8033	0.106
Mof_C 	C 	0.33043	0.15222	0.91492	0.342
Mof_C 	C 	0.8398	0.333	0.7634	-0.4
Mof_C 	C 	0.7145	0.3147	0.7861	0.231
Mof_C 	C 	0.5994	0.3706	0.8014	-0.286
Mof_C 	C 	0.6073	0.4471	0.7949	0.187
Mof_C 	C 	0.7279	0.4708	0.7722	-0.261
Mof_C 	C 	0.8449	0.4117	0.7569	0.222
Mof_C 	C 	0.43583	0.92334	0.5854	-0.291
Mof_C 	C 	0.5182	0.8437	0.5991	0.09
Mof_C 	C 	0.51544	0.77922	0.5803	-0.09
Mof_C 	C 	0.42429	0.79302	0.5474	-0.037
Mof_C 	C 	0.33777	0.87086	0.5342	-0.094
Mof_C 	C 	0.34599	0.93482	0.5528	0.093
Mof_C 	C 	0.42718	0.7246	0.52524	0.364
Mof_C 	C 	0.64315	0.0262	0.5867	-0.335
Mof_C 	C 	0.67574	0.09852	0.59	0.16
Mof_C 	C 	0.8111	0.1107	0.5773	-0.209
Mof_C 	C 	0.9187	0.0534	0.561	0.118
Mof_C 	C 	0.8899	0.9805	0.5567	-0.211
Mof_C 	C 	0.754	0.9694	0.569	0.171
Mof_C 	C 	0.4411	0.9824	0.6696	-0.36
Mof_C 	C 	0.3753	0.9239	0.6951	0.208
Mof_C 	C 	0.3637	0.9052	0.7394	-0.259
Mof_C 	C 	0.4026	0.9517	0.7621	0.157
Mof_C 	C 	0.4502	0.0185	0.7387	-0.237
Mof_C 	C 	0.4749	0.0311	0.6935	0.191
Mof_C 	C 	0.31719	0.10548	0.59094	-0.29
Mof_C 	C 	0.33473	0.15984	0.5517	0.098
Mof_C 	C 	0.22706	0.22998	0.5387	-0.099
Mof_C 	C 	0.09736	0.2444	0.56408	-0.016
Mof_C 	C 	0.07716	0.19156	0.60312	-0.098
Mof_C 	C 	0.18655	0.12339	0.61671	0.098
Mof_C 	C 	0.97396	0.31563	0.54925	0.314
Mof_C 	C 	0.8821	0.7135	0.2987	-0.314
Mof_C 	C 	0.93357	0.65376	0.3345	0.119
Mof_C 	C 	0.84491	0.63435	0.37163	-0.11
Mof_C 	C 	0.70066	0.67235	0.37513	-0.021
Mof_C 	C 	0.6456	0.7331	0.3405	-0.106
Mof_C 	C 	0.7357	0.7531	0.3033	0.107
Mof_C 	C 	0.60243	0.65222	0.41492	0.342
Mof_C 	C 	0.0638	0.833	0.2634	-0.408
Mof_C 	C 	0.1847	0.8147	0.2861	0.239
Mof_C 	C 	0.2286	0.8706	0.3014	-0.297
Mof_C 	C 	0.1507	0.9471	0.2949	0.199
Mof_C 	C 	0.0291	0.9708	0.2722	-0.277
Mof_C 	C 	0.9865	0.9117	0.2569	0.236
Mof_C 	C 	0.94457	0.57666	0.9146	-0.289
Mof_C 	C 	0.961	0.6563	0.9009	0.084
Mof_C 	C 	0.87496	0.72078	0.9197	-0.088
Mof_C 	C 	0.76471	0.70698	0.9526	-0.038
Mof_C 	C 	0.74283	0.62914	0.9658	-0.093
Mof_C 	C 	0.83361	0.56518	0.9472	0.091
Mof_C 	C 	0.67702	0.7754	0.97476	0.365
Mof_C 	C 	0.25605	0.4738	0.9133	-0.334
Mof_C 	C 	0.36426	0.40148	0.91	0.159
Mof_C 	C 	0.4991	0.3893	0.9227	-0.207
Mof_C 	C 	0.5331	0.4466	0.939	0.117
Mof_C 	C 	0.4271	0.5195	0.9433	-0.209
Mof_C 	C 	0.2924	0.5306	0.931	0.17
Mof_C 	C 	0.0931	0.5176	0.8304	-0.347
Mof_C 	C 	0.9943	0.5761	0.8049	0.187
Mof_C 	C 	0.0083	0.5948	0.7606	-0.236
Mof_C 	C 	0.1164	0.5483	0.7379	0.14
Mof_C 	C 	0.2074	0.4815	0.7613	-0.224
Mof_C 	C 	0.1995	0.4689	0.8065	0.179
Mof_C 	C 	0.01361	0.39452	0.90906	-0.287
Mof_C 	C 	0.04627	0.34016	0.9483	0.097
Mof_C 	C 	0.99574	0.27002	0.9613	-0.1
Mof_C 	C 	0.90584	0.2556	0.93592	-0.016
Mof_C 	C 	0.87184	0.30844	0.89688	-0.099
Mof_C 	C 	0.92665	0.37661	0.88329	0.096
Mof_C 	C 	0.83884	0.18437	0.95075	0.315
Mof_C 	C 	0.8943	0.7865	0.2013	-0.312
Mof_C 	C 	0.92183	0.84624	0.1655	0.114
Mof_C 	C 	0.85089	0.86565	0.12837	-0.107
Mof_C 	C 	0.74814	0.82765	0.12487	-0.022
Mof_C 	C 	0.7192	0.7669	0.1595	-0.104
Mof_C 	C 	0.7921	0.7469	0.1967	0.106
Mof_C 	C 	0.66957	0.84778	0.08508	0.342
Mof_C 	C 	0.1602	0.667	0.2366	-0.4
Mof_C 	C 	0.2855	0.6853	0.2139	0.231
Mof_C 	C 	0.4006	0.6294	0.1986	-0.286
Mof_C 	C 	0.3927	0.5529	0.2051	0.187
Mof_C 	C 	0.2721	0.5292	0.2278	-0.261
Mof_C 	C 	0.1551	0.5883	0.2431	0.222
Mof_O 	O 	0.4676	0.33746	0.46874	-0.497
Mof_O 	O 	0.67262	0.2642	0.49856	-0.465
Mof_O 	O 	0.15165	0.69416	0.43494	-0.473
Mof_O 	O 	0.00388	0.62303	0.47661	-0.31
Mof_O 	O 	0.62548	0.4409	0.49554	-0.698
Mof_O 	O 	0.53147	0.31202	0.58604	-0.484
Mof_O 	O 	0.34401	0.39988	0.5531	-0.479
Mof_O 	O 	0.2738	0.16254	0.03126	-0.497
Mof_O 	O 	0.43538	0.2358	0.00144	-0.465
Mof_O 	O 	0.28075	0.80584	0.06506	-0.473
Mof_O 	O 	0.10352	0.87697	0.02339	-0.31
Mof_O 	O 	0.56192	0.0591	0.00446	-0.698
Mof_O 	O 	0.42953	0.18798	0.91396	-0.484
Mof_O 	O 	0.29699	0.10012	0.9469	-0.48
Mof_O 	O 	0.5324	0.66254	0.53126	-0.497
Mof_O 	O 	0.32738	0.7358	0.50144	-0.465
Mof_O 	O 	0.84835	0.30584	0.56506	-0.473
Mof_O 	O 	0.99612	0.37697	0.52339	-0.31
Mof_O 	O 	0.37452	0.5591	0.50446	-0.698
Mof_O 	O 	0.46853	0.68798	0.41396	-0.484
Mof_O 	O 	0.65599	0.60012	0.4469	-0.479
Mof_O 	O 	0.7262	0.83746	0.96874	-0.497
Mof_O 	O 	0.56462	0.7642	0.99856	-0.465
Mof_O 	O 	0.71925	0.19416	0.93494	-0.473
Mof_O 	O 	0.89648	0.12303	0.97661	-0.31
Mof_O 	O 	0.43808	0.9409	0.99554	-0.698
Mof_O 	O 	0.57047	0.81202	0.08604	-0.484
Mof_O 	O 	0.70301	0.89988	0.0531	-0.48
_end
