data_functionalizedCrystal
_audit_creation_method	'EQeq! by Chris Wilmer'
_symmetry_space_group_name_H-M	'P1'
_symmetry_Int_Tables_number	1
_symmetry_cell_setting	triclinic
loop_
_symmetry_equiv_pos_as_xyz
  x,y,z
_cell_length_a	9.087
_cell_length_b	14.9997
_cell_length_c	17.239
_cell_angle_alpha	105.306
_cell_angle_beta	90
_cell_angle_gamma	107.632
loop_
_atom_site_label
_atom_site_type_symbol
_atom_site_fract_x
_atom_site_fract_y
_atom_site_fract_z
_atom_site_charge
Mof_Cd	Cd	-0	0	-0	0.234
Mof_Cd	Cd	-1.32089e-17	0	0.5	0.233
Mof_Ni	Ni	0.34254	5.28355e-17	0.75	1.012
Mof_Ni	Ni	0.65746	0	0.25	1.013
Mof_H 	H 	0.044	0.848	0.049	0.154
Mof_H 	H 	0.179	0.916	0.065	0.175
Mof_H 	H 	0.238	0.86	0.941	0.032
Mof_H 	H 	0.215	0.788	0.994	0.012
Mof_H 	H 	0.99	0.774	0.876	0.092
Mof_H 	H 	0.965	0.716	0.94	0.097
Mof_H 	H 	0.157	0.694	0.818	0.023
Mof_H 	H 	0.152	0.642	0.88	0.021
Mof_H 	H 	0.897	0.558	0.83	0.091
Mof_H 	H 	0.912	0.612	0.763	0.073
Mof_H 	H 	0.089	0.53	0.709	0.027
Mof_H 	H 	0.059	0.478	0.771	0.029
Mof_H 	H 	0.834	0.448	0.656	0.085
Mof_H 	H 	0.806	0.398	0.724	0.074
Mof_H 	H 	0.979	0.31	0.669	0.011
Mof_H 	H 	0.011	0.364	0.61	0.01
Mof_H 	H 	0.721	0.236	0.607	0.073
Mof_H 	H 	0.762	0.3	0.539	0.061
Mof_H 	H 	0.766	0.14	0.48	-0.014
Mof_H 	H 	0.936	0.208	0.489	-0.002
Mof_H 	H 	0.946	0.15	0.606	0.126
Mof_H 	H 	0.798	0.088	0.58	0.11
Mof_H 	H 	0.196	0.152	0.451	0.127
Mof_H 	H 	0.263	0.084	0.435	0.103
Mof_H 	H 	0.378	0.14	0.559	0.019
Mof_H 	H 	0.427	0.212	0.506	0.01
Mof_H 	H 	0.216	0.226	0.624	0.059
Mof_H 	H 	0.249	0.284	0.56	0.069
Mof_H 	H 	0.463	0.306	0.682	0.033
Mof_H 	H 	0.51	0.358	0.62	0.036
Mof_H 	H 	0.339	0.442	0.67	0.078
Mof_H 	H 	0.3	0.388	0.737	0.057
Mof_H 	H 	0.559	0.47	0.791	0.036
Mof_H 	H 	0.581	0.522	0.729	0.045
Mof_H 	H 	0.386	0.552	0.844	0.07
Mof_H 	H 	0.408	0.602	0.776	0.066
Mof_H 	H 	0.669	0.69	0.831	0.028
Mof_H 	H 	0.647	0.636	0.89	0.037
Mof_H 	H 	0.485	0.764	0.893	0.07
Mof_H 	H 	0.462	0.7	0.961	0.057
Mof_H 	H 	0.626	0.86	0.02	0.047
Mof_H 	H 	0.728	0.792	0.011	0.026
Mof_H 	H 	0.796	0.85	0.894	0.136
Mof_H 	H 	0.71	0.912	0.92	0.152
Mof_H 	H 	0.956	0.152	0.951	0.131
Mof_H 	H 	0.821	0.084	0.935	0.103
Mof_H 	H 	0.762	0.14	0.059	0.033
Mof_H 	H 	0.785	0.212	0.006	0.024
Mof_H 	H 	0.01	0.226	0.124	0.033
Mof_H 	H 	0.035	0.284	0.06	0.038
Mof_H 	H 	0.843	0.306	0.182	0.052
Mof_H 	H 	0.848	0.358	0.12	0.054
Mof_H 	H 	0.103	0.442	0.17	0.066
Mof_H 	H 	0.088	0.388	0.237	0.048
Mof_H 	H 	0.911	0.47	0.291	0.044
Mof_H 	H 	0.941	0.522	0.229	0.055
Mof_H 	H 	0.166	0.552	0.344	0.061
Mof_H 	H 	0.194	0.602	0.276	0.057
Mof_H 	H 	0.021	0.69	0.331	0.036
Mof_H 	H 	0.989	0.636	0.39	0.057
Mof_H 	H 	0.279	0.764	0.393	0.063
Mof_H 	H 	0.238	0.7	0.461	0.049
Mof_H 	H 	0.234	0.86	0.52	0.053
Mof_H 	H 	0.064	0.792	0.511	0.029
Mof_H 	H 	0.054	0.85	0.394	0.133
Mof_H 	H 	0.202	0.912	0.42	0.151
Mof_H 	H 	0.804	0.848	0.549	0.158
Mof_H 	H 	0.737	0.916	0.565	0.175
Mof_H 	H 	0.622	0.86	0.441	0.044
Mof_H 	H 	0.573	0.788	0.494	0.023
Mof_H 	H 	0.784	0.774	0.376	0.072
Mof_H 	H 	0.751	0.716	0.44	0.074
Mof_H 	H 	0.537	0.694	0.318	0.04
Mof_H 	H 	0.49	0.642	0.38	0.038
Mof_H 	H 	0.661	0.558	0.33	0.078
Mof_H 	H 	0.7	0.612	0.263	0.063
Mof_H 	H 	0.441	0.53	0.209	0.037
Mof_H 	H 	0.419	0.478	0.271	0.042
Mof_H 	H 	0.614	0.448	0.156	0.073
Mof_H 	H 	0.592	0.398	0.224	0.063
Mof_H 	H 	0.331	0.31	0.169	0.021
Mof_H 	H 	0.353	0.364	0.11	0.033
Mof_H 	H 	0.515	0.236	0.107	0.065
Mof_H 	H 	0.538	0.3	0.039	0.053
Mof_H 	H 	0.374	0.14	0.98	-0.011
Mof_H 	H 	0.272	0.208	0.989	-0.001
Mof_H 	H 	0.204	0.15	0.106	0.122
Mof_H 	H 	0.29	0.088	0.08	0.108
Mof_C 	C 	0.1671	0.8198	0.9672	0.035
Mof_C 	C 	0.0392	0.7428	0.9086	-0.225
Mof_C 	C 	0.0934	0.6652	0.8516	-0.007
Mof_C 	C 	0.9626	0.5832	0.798	-0.192
Mof_C 	C 	0.014	0.5038	0.7422	-0.031
Mof_C 	C 	0.8811	0.4232	0.6888	-0.195
Mof_C 	C 	0.9295	0.341	0.6343	0.011
Mof_C 	C 	0.7999	0.265	0.5752	-0.186
Mof_C 	C 	0.8485	0.1826	0.5213	0.038
Mof_C 	C 	0.1957	0.9932	0.8255	-0.167
Mof_C 	C 	0.485	0.9932	0.8236	-0.168
Mof_C 	C 	0.3473	0.1802	0.5328	-0.004
Mof_C 	C 	0.2964	0.2572	0.5914	-0.16
Mof_C 	C 	0.4282	0.3348	0.6484	-0.056
Mof_C 	C 	0.3794	0.4168	0.702	-0.157
Mof_C 	C 	0.5102	0.4962	0.7578	-0.068
Mof_C 	C 	0.4579	0.5768	0.8112	-0.153
Mof_C 	C 	0.5885	0.659	0.8657	-0.048
Mof_C 	C 	0.5349	0.735	0.9248	-0.145
Mof_C 	C 	0.6659	0.8174	0.9787	0.003
Mof_C 	C 	0.2025	0.0068	0.6745	-0.309
Mof_C 	C 	0.4918	0.0068	0.6764	-0.309
Mof_C 	C 	0.8329	0.1802	0.0328	-0.045
Mof_C 	C 	0.9608	0.2572	0.0914	-0.08
Mof_C 	C 	0.9066	0.3348	0.1484	-0.11
Mof_C 	C 	0.0374	0.4168	0.202	-0.128
Mof_C 	C 	0.986	0.4962	0.2578	-0.089
Mof_C 	C 	0.1189	0.5768	0.3112	-0.127
Mof_C 	C 	0.0705	0.659	0.3657	-0.091
Mof_C 	C 	0.2001	0.735	0.4248	-0.121
Mof_C 	C 	0.1515	0.8174	0.4787	-0.012
Mof_C 	C 	0.8043	0.0068	0.1745	-0.305
Mof_C 	C 	0.515	0.0068	0.1764	-0.309
Mof_C 	C 	0.6527	0.8198	0.4672	0
Mof_C 	C 	0.7036	0.7428	0.4086	-0.163
Mof_C 	C 	0.5718	0.6652	0.3516	-0.056
Mof_C 	C 	0.6206	0.5832	0.298	-0.16
Mof_C 	C 	0.4898	0.5038	0.2422	-0.062
Mof_C 	C 	0.5421	0.4232	0.1888	-0.16
Mof_C 	C 	0.4115	0.341	0.1343	-0.038
Mof_C 	C 	0.4651	0.265	0.0752	-0.159
Mof_C 	C 	0.3341	0.1826	0.0213	0.025
Mof_C 	C 	0.7975	0.9932	0.3255	-0.167
Mof_C 	C 	0.5082	0.9932	0.3236	-0.169
Mof_N 	N 	0.1055	0.8854	0.0284	-0.31
Mof_N 	N 	0.8852	0.1186	0.5636	-0.292
Mof_N 	N 	0.1069	0.9888	0.8721	-0.057
Mof_N 	N 	0.5767	0.9904	0.8679	-0.054
Mof_N 	N 	0.2201	0.1146	0.4716	-0.303
Mof_N 	N 	0.7666	0.8814	0.9364	-0.271
Mof_N 	N 	0.1181	0.0112	0.6279	-0.096
Mof_N 	N 	0.5863	0.0096	0.6321	-0.096
Mof_N 	N 	0.8945	0.1146	0.9716	-0.296
Mof_N 	N 	0.1148	0.8814	0.4364	-0.269
Mof_N 	N 	0.8931	0.0112	0.1279	-0.091
Mof_N 	N 	0.4233	0.0096	0.1321	-0.097
Mof_N 	N 	0.7799	0.8854	0.5284	-0.303
Mof_N 	N 	0.2334	0.1186	0.0636	-0.291
Mof_N 	N 	0.8819	0.9888	0.3721	-0.054
Mof_N 	N 	0.4137	0.9904	0.3679	-0.054
_end
