data_functionalizedCrystal
_audit_creation_method	'EQeq! by Chris Wilmer'
_symmetry_space_group_name_H-M	'P1'
_symmetry_Int_Tables_number	1
_symmetry_cell_setting	triclinic
loop_
_symmetry_equiv_pos_as_xyz
  x,y,z
_cell_length_a	9.6535
_cell_length_b	12.9132
_cell_length_c	17.2072
_cell_angle_alpha	105.774
_cell_angle_beta	90
_cell_angle_gamma	111.949
loop_
_atom_site_label
_atom_site_type_symbol
_atom_site_fract_x
_atom_site_fract_y
_atom_site_fract_z
_atom_site_charge
Mof_Ni	Ni	0.08261	0.05512	0.61039	1.035
Mof_Ni	Ni	0.97251	0.05512	0.11039	1.011
Mof_H 	H 	0.1661	0.9858	0.7631	0.037
Mof_H 	H 	0.2027	0.8056	0.7646	0.049
Mof_H 	H 	0.1571	0.6816	0.6213	0.074
Mof_H 	H 	0.0486	0.7456	0.3362	0.061
Mof_H 	H 	0.0218	0.9084	0.297	0.095
Mof_H 	H 	0.0252	0.0572	0.4265	-0.087
Mof_H 	H 	0.3135	0.7064	0.4787	0.06
Mof_H 	H 	0.3099	0.5248	0.4086	0.066
Mof_H 	H 	0.8597	0.3982	0.3673	0.067
Mof_H 	H 	0.8641	0.582	0.4319	0.054
Mof_H 	H 	0.9208	0.2688	0.2455	0.015
Mof_H 	H 	0.2014	0.134	0.2908	0.008
Mof_H 	H 	0.2607	0.3178	0.3991	0.027
Mof_H 	H 	0.4059	0.0418	0.6164	-0.016
Mof_H 	H 	0.6535	0.2082	0.6367	0.035
Mof_H 	H 	0.6021	0.3786	0.6264	0.062
Mof_H 	H 	0.0965	0.436	0.5606	0.049
Mof_H 	H 	0.8293	0.2994	0.5226	0.059
Mof_H 	H 	0.8122	0.1106	0.5429	-0.007
Mof_H 	H 	0.493	0.4338	0.508	0.044
Mof_H 	H 	0.6332	0.6294	0.5221	0.062
Mof_H 	H 	0.4482	0.7206	0.7256	0.071
Mof_H 	H 	0.3002	0.5256	0.7082	0.054
Mof_H 	H 	0.8449	0.8054	0.5986	-0.018
Mof_H 	H 	0.7428	0.079	0.6764	0.082
Mof_H 	H 	0.5193	0.9088	0.6803	-0.013
Mof_H 	H 	0.8197	0.9858	0.2631	0.027
Mof_H 	H 	0.6029	0.8056	0.2646	0.044
Mof_H 	H 	0.5245	0.6816	0.1213	0.068
Mof_H 	H 	0.697	0.7456	0.8362	0.061
Mof_H 	H 	0.8866	0.9084	0.797	0.067
Mof_H 	H 	0.032	0.0572	0.9265	-0.043
Mof_H 	H 	0.3929	0.7064	0.9787	0.061
Mof_H 	H 	0.2149	0.5248	0.9086	0.069
Mof_H 	H 	0.5385	0.3982	0.8673	0.058
Mof_H 	H 	0.7179	0.582	0.9319	0.047
Mof_H 	H 	0.348	0.2688	0.7455	-0.005
Mof_H 	H 	0.9326	0.134	0.7908	-0.047
Mof_H 	H 	0.0571	0.3178	0.8991	0.054
Mof_H 	H 	0.6359	0.0418	0.1164	-0.018
Mof_H 	H 	0.5547	0.2082	0.1367	0.043
Mof_H 	H 	0.7765	0.3786	0.1264	0.047
Mof_H 	H 	0.3395	0.436	0.0606	0.062
Mof_H 	H 	0.4701	0.2994	0.0226	0.043
Mof_H 	H 	0.2984	0.1106	0.0429	-0.005
Mof_H 	H 	0.9408	0.4338	0.008	-0.008
Mof_H 	H 	0.9962	0.6294	0.0221	0.026
Mof_H 	H 	0.2724	0.7206	0.2256	0.074
Mof_H 	H 	0.2254	0.5256	0.2082	0.045
Mof_H 	H 	0.9605	0.8054	0.0986	-0.056
Mof_H 	H 	0.3362	0.079	0.1764	0.085
Mof_H 	H 	0.3895	0.9088	0.1803	-0.012
Mof_C 	C 	0.15846	0.92532	0.71699	0.033
Mof_C 	C 	0.17823	0.82326	0.71885	-0.031
Mof_C 	C 	0.15408	0.75536	0.63974	-0.101
Mof_C 	C 	0.12376	0.81904	0.59123	0.114
Mof_C 	C 	0.09048	0.7818	0.5063	-0.11
Mof_C 	C 	0.05966	0.84392	0.45815	0.097
Mof_C 	C 	0.04685	0.8139	0.37136	-0.05
Mof_C 	C 	0.03144	0.90308	0.34943	-0.121
Mof_C 	C 	0.03352	0.98684	0.42379	0.204
Mof_C 	C 	0.08938	0.66394	0.46199	0.087
Mof_C 	C 	0.22252	0.64524	0.45537	-0.066
Mof_C 	C 	0.22037	0.53614	0.41424	-0.096
Mof_C 	C 	0.08532	0.4443	0.38163	0.131
Mof_C 	C 	0.95076	0.46054	0.38871	-0.129
Mof_C 	C 	0.95373	0.57046	0.42807	-0.1
Mof_C 	C 	0.99834	0.25786	0.26966	0.002
Mof_C 	C 	0.15245	0.1847	0.2947	-0.003
Mof_C 	C 	0.18557	0.28614	0.35556	0.003
Mof_C 	C 	0.41876	0.11626	0.6148	0.018
Mof_C 	C 	0.55987	0.21	0.62677	-0.055
Mof_C 	C 	0.53146	0.30386	0.62091	-0.098
Mof_C 	C 	0.37209	0.26464	0.6048	0.091
Mof_C 	C 	0.29119	0.33296	0.59785	-0.106
Mof_C 	C 	0.1349	0.29484	0.5835	0.079
Mof_C 	C 	0.05562	0.35868	0.5611	-0.021
Mof_C 	C 	0.90814	0.28372	0.54054	-0.114
Mof_C 	C 	0.90052	0.17698	0.55226	0.005
Mof_C 	C 	0.38236	0.4593	0.60679	0.043
Mof_C 	C 	0.48286	0.49112	0.55124	-0.054
Mof_C 	C 	0.56818	0.6083	0.5601	-0.1
Mof_C 	C 	0.55599	0.69328	0.62557	0.102
Mof_C 	C 	0.45617	0.6631	0.68172	-0.099
Mof_C 	C 	0.36864	0.54622	0.67155	-0.052
Mof_C 	C 	0.79269	0.85306	0.61807	0.092
Mof_C 	C 	0.73556	0.00224	0.66093	-0.228
Mof_C 	C 	0.61062	0.90842	0.66332	0.177
Mof_C 	C 	0.76686	0.92532	0.21699	0.024
Mof_C 	C 	0.64503	0.82326	0.21885	-0.037
Mof_C 	C 	0.60128	0.75536	0.13974	-0.103
Mof_C 	C 	0.69528	0.81904	0.09123	0.106
Mof_C 	C 	0.69132	0.7818	0.0063	-0.112
Mof_C 	C 	0.78426	0.84392	0.95815	0.095
Mof_C 	C 	0.76705	0.8139	0.87136	-0.074
Mof_C 	C 	0.87164	0.90308	0.84943	-0.087
Mof_C 	C 	0.95332	0.98684	0.92379	0.119
Mof_C 	C 	0.57456	0.66394	0.96199	0.051
Mof_C 	C 	0.42272	0.64524	0.95537	-0.06
Mof_C 	C 	0.31577	0.53614	0.91424	-0.089
Mof_C 	C 	0.35898	0.4443	0.88163	0.092
Mof_C 	C 	0.50978	0.46054	0.88871	-0.089
Mof_C 	C 	0.61673	0.57046	0.92807	-0.061
Mof_C 	C 	0.25952	0.25786	0.76966	0.084
Mof_C 	C 	0.03225	0.1847	0.7947	0.083
Mof_C 	C 	0.10057	0.28614	0.85556	-0.042
Mof_C 	C 	0.6975	0.11626	0.1148	0.024
Mof_C 	C 	0.65013	0.21	0.12677	-0.071
Mof_C 	C 	0.7724	0.30386	0.12091	-0.07
Mof_C 	C 	0.89255	0.26464	0.1048	0.034
Mof_C 	C 	0.04177	0.33296	0.09785	-0.047
Mof_C 	C 	0.15994	0.29484	0.0835	0.077
Mof_C 	C 	0.30306	0.35868	0.0611	-0.082
Mof_C 	C 	0.37558	0.28372	0.04054	-0.055
Mof_C 	C 	0.27646	0.17698	0.05226	0.027
Mof_C 	C 	0.07694	0.4593	0.10679	0.009
Mof_C 	C 	0.00826	0.49112	0.05124	0.019
Mof_C 	C 	0.04012	0.6083	0.0601	-0.065
Mof_C 	C 	0.13729	0.69328	0.12557	0.105
Mof_C 	C 	0.20693	0.6631	0.18172	-0.11
Mof_C 	C 	0.17758	0.54622	0.17155	-0.028
Mof_C 	C 	0.06037	0.85306	0.11807	0.164
Mof_C 	C 	0.26668	0.00224	0.16093	-0.224
Mof_C 	C 	0.2978	0.90842	0.16332	0.176
Mof_N 	N 	0.12767	0.92518	0.64167	-0.215
Mof_N 	N 	0.04874	0.95306	0.48883	-0.236
Mof_N 	N 	0.085	0.33222	0.33936	-0.114
Mof_N 	N 	0.03646	0.16776	0.23983	-0.188
Mof_N 	N 	0.30646	0.14748	0.60101	-0.247
Mof_N 	N 	0.0334	0.18232	0.57809	-0.223
Mof_N 	N 	0.6482	0.81344	0.63531	-0.161
Mof_N 	N 	0.84983	0.96756	0.63234	-0.154
Mof_N 	N 	0.79751	0.92518	0.14167	-0.222
Mof_N 	N 	0.90432	0.95306	0.98883	-0.232
Mof_N 	N 	0.24722	0.33222	0.83936	-0.13
Mof_N 	N 	0.1313	0.16776	0.73983	-0.233
Mof_N 	N 	0.84102	0.14748	0.10101	-0.246
Mof_N 	N 	0.14892	0.18232	0.07809	-0.232
Mof_N 	N 	0.16524	0.81344	0.13531	-0.169
Mof_N 	N 	0.11773	0.96756	0.13234	-0.148
_end
