data_functionalizedCrystal
_audit_creation_method	'EQeq! by Chris Wilmer'
_symmetry_space_group_name_H-M	'P1'
_symmetry_Int_Tables_number	1
_symmetry_cell_setting	triclinic
loop_
_symmetry_equiv_pos_as_xyz
  x,y,z
_cell_length_a	12.206
_cell_length_b	17.833
_cell_length_c	15.309
_cell_angle_alpha	90
_cell_angle_beta	111.229
_cell_angle_gamma	90
loop_
_atom_site_label
_atom_site_type_symbol
_atom_site_fract_x
_atom_site_fract_y
_atom_site_fract_z
_atom_site_charge
Mof_O 	O 	0.8217	0.45594	0.782	-0.536
Mof_Zn	Zn	0.26397	0.37688	0.22924	1.25
Mof_Zn	Zn	0.03388	0.48662	0.2059	1.201
Mof_O 	O 	0.1193	0.34222	0.1393	-0.557
Mof_O 	O 	0.9956	0.4329	0.0931	-0.57
Mof_O 	O 	0.688	0.52837	0.8012	-0.52
Mof_O 	O 	0.3772	0.1991	0.7672	-0.484
Mof_O 	O 	0.35	0.2111	0.624	-0.336
Mof_O 	O 	0.2489	0.3948	0.3491	-0.53
Mof_O 	O 	0.0841	0.4511	0.3307	-0.574
Mof_C 	C 	0.0316	0.3703	0.0838	0.504
Mof_C 	C 	0.9681	0.3276	0.0007	-0.203
Mof_C 	C 	0.0124	0.2634	0.9811	0.104
Mof_H 	H 	0.086	0.2469	0.0205	0.013
Mof_C 	C 	0.9505	0.2227	0.9045	-0.15
Mof_H 	H 	0.9814	0.1785	0.8909	0.083
Mof_C 	C 	0.8438	0.2468	0.8482	0.034
Mof_H 	H 	0.8017	0.219	0.7954	0.015
Mof_C 	C 	0.7961	0.3113	0.867	-0.072
Mof_C 	C 	0.8602	0.3516	0.9435	0.062
Mof_H 	H 	0.8299	0.396	0.9572	0.018
Mof_C 	C 	0.6768	0.3322	0.8065	0.094
Mof_C 	C 	0.6452	0.4034	0.7738	-0.154
Mof_C 	C 	0.5312	0.417	0.7179	-0.001
Mof_H 	H 	0.5099	0.4656	0.6965	0.042
Mof_C 	C 	0.4489	0.3635	0.6927	0.03
Mof_C 	C 	0.4817	0.2922	0.7283	-0.083
Mof_C 	C 	0.5934	0.2793	0.7846	-0.063
Mof_H 	H 	0.6137	0.2315	0.8095	0.062
Mof_C 	C 	0.7277	0.4667	0.7888	0.481
Mof_C 	C 	0.3952	0.2297	0.7037	0.408
Mof_C 	C 	0.3329	0.38265	0.63159	-0.014
Mof_C 	C 	0.3097	0.38922	0.53609	0.029
Mof_H 	H 	0.3672	0.3766	0.5121	0.046
Mof_C 	C 	0.2006	0.4146	0.47644	-0.172
Mof_C 	C 	0.11463	0.4334	0.51231	0.051
Mof_H 	H 	0.0416	0.4504	0.4724	0.019
Mof_C 	C 	0.1378	0.4268	0.60781	-0.083
Mof_H 	H 	0.0803	0.4394	0.6318	0.04
Mof_C 	C 	0.2469	0.4015	0.66746	-0.028
Mof_H 	H 	0.2624	0.3971	0.7314	0.033
Mof_C 	C 	0.1761	0.4205	0.3782	0.51
Mof_O 	O 	0.1783	0.95594	0.718	-0.534
Mof_Zn	Zn	0.73603	0.87688	0.27076	1.249
Mof_Zn	Zn	0.96612	0.98662	0.2941	1.199
Mof_O 	O 	0.8807	0.84222	0.3607	-0.556
Mof_O 	O 	0.0044	0.9329	0.4069	-0.568
Mof_O 	O 	0.312	0.02837	0.6988	-0.523
Mof_O 	O 	0.6228	0.6991	0.7328	-0.483
Mof_O 	O 	0.65	0.7111	0.876	-0.336
Mof_O 	O 	0.7511	0.8948	0.1509	-0.53
Mof_O 	O 	0.9159	0.9511	0.1693	-0.574
Mof_C 	C 	0.9684	0.8703	0.4162	0.5
Mof_C 	C 	0.0319	0.8276	0.4993	-0.193
Mof_C 	C 	0.9876	0.7634	0.5189	0.075
Mof_H 	H 	0.914	0.7469	0.4795	0.025
Mof_C 	C 	0.0495	0.7227	0.5955	-0.123
Mof_H 	H 	0.0186	0.6785	0.6091	0.074
Mof_C 	C 	0.1562	0.7468	0.6518	0.017
Mof_H 	H 	0.1983	0.719	0.7046	0.021
Mof_C 	C 	0.2039	0.8113	0.633	-0.062
Mof_C 	C 	0.1398	0.8516	0.5565	0.057
Mof_H 	H 	0.1701	0.896	0.5428	0.021
Mof_C 	C 	0.3232	0.8322	0.6935	0.091
Mof_C 	C 	0.3548	0.9034	0.7262	-0.154
Mof_C 	C 	0.4688	0.917	0.7821	0
Mof_H 	H 	0.4901	0.9656	0.8035	0.043
Mof_C 	C 	0.5511	0.8635	0.8073	0.029
Mof_C 	C 	0.5183	0.7922	0.7717	-0.083
Mof_C 	C 	0.4066	0.7793	0.7154	-0.061
Mof_H 	H 	0.3863	0.7315	0.6905	0.062
Mof_C 	C 	0.2723	0.9667	0.7112	0.485
Mof_C 	C 	0.6048	0.7297	0.7963	0.408
Mof_C 	C 	0.6671	0.88265	0.86841	-0.01
Mof_C 	C 	0.6903	0.88922	0.96391	0.024
Mof_H 	H 	0.6328	0.8766	0.9879	0.047
Mof_C 	C 	0.7994	0.9146	0.02356	-0.166
Mof_C 	C 	0.88537	0.9334	0.98769	0.04
Mof_H 	H 	0.9584	0.9504	0.0276	0.023
Mof_C 	C 	0.8622	0.9268	0.89219	-0.076
Mof_H 	H 	0.9197	0.9394	0.8682	0.035
Mof_C 	C 	0.7531	0.9015	0.83254	-0.033
Mof_H 	H 	0.7376	0.8971	0.7686	0.035
Mof_C 	C 	0.8239	0.9205	0.1218	0.507
Mof_O 	O 	0.1783	0.54406	0.218	-0.537
Mof_Zn	Zn	0.73603	0.62312	0.77076	1.249
Mof_Zn	Zn	0.96612	0.51338	0.7941	1.201
Mof_O 	O 	0.8807	0.65778	0.8607	-0.557
Mof_O 	O 	0.0044	0.5671	0.9069	-0.57
Mof_O 	O 	0.312	0.47163	0.1988	-0.52
Mof_O 	O 	0.6228	0.8009	0.2328	-0.484
Mof_O 	O 	0.65	0.7889	0.376	-0.336
Mof_O 	O 	0.7511	0.6052	0.6509	-0.53
Mof_O 	O 	0.9159	0.5489	0.6693	-0.574
Mof_C 	C 	0.9684	0.6297	0.9162	0.504
Mof_C 	C 	0.0319	0.6724	0.9993	-0.203
Mof_C 	C 	0.9876	0.7366	0.0189	0.104
Mof_H 	H 	0.914	0.7531	0.9795	0.013
Mof_C 	C 	0.0495	0.7773	0.0955	-0.15
Mof_H 	H 	0.0186	0.8215	0.1091	0.083
Mof_C 	C 	0.1562	0.7532	0.1518	0.034
Mof_H 	H 	0.1983	0.781	0.2046	0.015
Mof_C 	C 	0.2039	0.6887	0.133	-0.072
Mof_C 	C 	0.1398	0.6484	0.0565	0.062
Mof_H 	H 	0.1701	0.604	0.0428	0.018
Mof_C 	C 	0.3232	0.6678	0.1935	0.094
Mof_C 	C 	0.3548	0.5966	0.2262	-0.154
Mof_C 	C 	0.4688	0.583	0.2821	-0.001
Mof_H 	H 	0.4901	0.5344	0.3035	0.042
Mof_C 	C 	0.5511	0.6365	0.3073	0.03
Mof_C 	C 	0.5183	0.7078	0.2717	-0.083
Mof_C 	C 	0.4066	0.7207	0.2154	-0.063
Mof_H 	H 	0.3863	0.7685	0.1905	0.062
Mof_C 	C 	0.2723	0.5333	0.2112	0.481
Mof_C 	C 	0.6048	0.7703	0.2963	0.408
Mof_C 	C 	0.6671	0.61735	0.36841	-0.014
Mof_C 	C 	0.6903	0.61078	0.46391	0.029
Mof_H 	H 	0.6328	0.6234	0.4879	0.046
Mof_C 	C 	0.7994	0.5854	0.52356	-0.172
Mof_C 	C 	0.88537	0.5666	0.48769	0.051
Mof_H 	H 	0.9584	0.5496	0.5276	0.019
Mof_C 	C 	0.8622	0.5732	0.39219	-0.083
Mof_H 	H 	0.9197	0.5606	0.3682	0.04
Mof_C 	C 	0.7531	0.5985	0.33254	-0.028
Mof_H 	H 	0.7376	0.6029	0.2686	0.033
Mof_C 	C 	0.8239	0.5795	0.6218	0.51
Mof_O 	O 	0.8217	0.04406	0.282	-0.534
Mof_Zn	Zn	0.26397	0.12312	0.72924	1.249
Mof_Zn	Zn	0.03388	0.01338	0.7059	1.199
Mof_O 	O 	0.1193	0.15778	0.6393	-0.556
Mof_O 	O 	0.9956	0.0671	0.5931	-0.568
Mof_O 	O 	0.688	0.97163	0.3012	-0.523
Mof_O 	O 	0.3772	0.3009	0.2672	-0.483
Mof_O 	O 	0.35	0.2889	0.124	-0.336
Mof_O 	O 	0.2489	0.1052	0.8491	-0.53
Mof_O 	O 	0.0841	0.0489	0.8307	-0.574
Mof_C 	C 	0.0316	0.1297	0.5838	0.5
Mof_C 	C 	0.9681	0.1724	0.5007	-0.193
Mof_C 	C 	0.0124	0.2366	0.4811	0.075
Mof_H 	H 	0.086	0.2531	0.5205	0.025
Mof_C 	C 	0.9505	0.2773	0.4045	-0.123
Mof_H 	H 	0.9814	0.3215	0.3909	0.074
Mof_C 	C 	0.8438	0.2532	0.3482	0.017
Mof_H 	H 	0.8017	0.281	0.2954	0.021
Mof_C 	C 	0.7961	0.1887	0.367	-0.062
Mof_C 	C 	0.8602	0.1484	0.4435	0.057
Mof_H 	H 	0.8299	0.104	0.4572	0.021
Mof_C 	C 	0.6768	0.1678	0.3065	0.091
Mof_C 	C 	0.6452	0.0966	0.2738	-0.154
Mof_C 	C 	0.5312	0.083	0.2179	0
Mof_H 	H 	0.5099	0.0344	0.1965	0.043
Mof_C 	C 	0.4489	0.1365	0.1927	0.029
Mof_C 	C 	0.4817	0.2078	0.2283	-0.083
Mof_C 	C 	0.5934	0.2207	0.2846	-0.061
Mof_H 	H 	0.6137	0.2685	0.3095	0.062
Mof_C 	C 	0.7277	0.0333	0.2888	0.485
Mof_C 	C 	0.3952	0.2703	0.2037	0.408
Mof_C 	C 	0.3329	0.11735	0.13159	-0.01
Mof_C 	C 	0.3097	0.11078	0.03609	0.024
Mof_H 	H 	0.3672	0.1234	0.0121	0.047
Mof_C 	C 	0.2006	0.0854	0.97644	-0.166
Mof_C 	C 	0.11463	0.0666	0.01231	0.04
Mof_H 	H 	0.0416	0.0496	0.9724	0.023
Mof_C 	C 	0.1378	0.0732	0.10781	-0.076
Mof_H 	H 	0.0803	0.0606	0.1318	0.035
Mof_C 	C 	0.2469	0.0985	0.16746	-0.033
Mof_H 	H 	0.2624	0.1029	0.2314	0.035
Mof_C 	C 	0.1761	0.0795	0.8782	0.507
_end
