data_functionalizedCrystal
_audit_creation_method	'EQeq! by Chris Wilmer'
_symmetry_space_group_name_H-M	'P1'
_symmetry_Int_Tables_number	1
_symmetry_cell_setting	triclinic
loop_
_symmetry_equiv_pos_as_xyz
  x,y,z
_cell_length_a	18.6138
_cell_length_b	18.6138
_cell_length_c	18.6138
_cell_angle_alpha	60
_cell_angle_beta	60
_cell_angle_gamma	60
loop_
_atom_site_label
_atom_site_type_symbol
_atom_site_fract_x
_atom_site_fract_y
_atom_site_fract_z
_atom_site_charge
Mof_Cu	Cu	0.42984	-2.49299e-17	0.57016	0.799
Mof_Cu	Cu	2.49299e-17	0.42984	-0	0.683
Mof_Cu	Cu	0.57016	-2.49299e-17	0.42984	0.799
Mof_Cu	Cu	-4.98597e-17	0.57016	-0	0.696
Mof_Cu	Cu	0.42984	0.57016	-0	0.799
Mof_Cu	Cu	-2.49299e-17	-2.49299e-17	0.57016	0.696
Mof_Cu	Cu	0.57016	0.42984	-0	0.799
Mof_Cu	Cu	1.24649e-17	-2.49299e-17	0.42984	0.683
Mof_Cu	Cu	0.42984	0	-0	0.683
Mof_Cu	Cu	-1.24649e-17	0.57016	0.42984	0.798
Mof_Cu	Cu	0.57016	0	-0	0.695
Mof_Cu	Cu	2.49299e-17	0.42984	0.57016	0.798
Mof_H 	H 	0.7281	0.0317	0.5121	0.027
Mof_H 	H 	0.0317	0.7281	0.7281	0.053
Mof_H 	H 	0.5121	0.7281	0.7281	0.092
Mof_H 	H 	0.7281	0.5121	0.0317	0.027
Mof_H 	H 	0.7281	0.5121	0.7281	0.092
Mof_H 	H 	0.0317	0.7281	0.5121	0.027
Mof_H 	H 	0.5121	0.7281	0.0317	0.027
Mof_H 	H 	0.7281	0.0317	0.7281	0.053
Mof_H 	H 	0.7281	0.7281	0.0317	0.053
Mof_H 	H 	0.0317	0.5121	0.7281	0.027
Mof_H 	H 	0.5121	0.0317	0.7281	0.027
Mof_H 	H 	0.7281	0.7281	0.5121	0.092
Mof_H 	H 	0.9683	0.2719	0.4879	0.074
Mof_H 	H 	0.2719	0.9683	0.2719	0.051
Mof_H 	H 	0.2719	0.4879	0.2719	0.004
Mof_H 	H 	0.4879	0.2719	0.9683	0.074
Mof_H 	H 	0.4879	0.2719	0.2719	0.004
Mof_H 	H 	0.2719	0.9683	0.4879	0.074
Mof_H 	H 	0.2719	0.4879	0.9683	0.074
Mof_H 	H 	0.9683	0.2719	0.2719	0.051
Mof_H 	H 	0.2719	0.2719	0.9683	0.051
Mof_H 	H 	0.4879	0.9683	0.2719	0.074
Mof_H 	H 	0.9683	0.4879	0.2719	0.074
Mof_H 	H 	0.2719	0.2719	0.4879	0.004
Mof_C 	C 	0.5691	0.02528	0.5691	0.371
Mof_C 	C 	0.6127	0.03228	0.6127	-0.142
Mof_C 	C 	0.02528	0.5691	0.83652	0.35
Mof_C 	C 	0.03228	0.6127	0.74232	-0.118
Mof_C 	C 	0.5691	0.83652	0.5691	0.342
Mof_C 	C 	0.6127	0.74232	0.6127	-0.043
Mof_C 	C 	0.83652	0.5691	0.02528	0.35
Mof_C 	C 	0.74232	0.6127	0.03228	-0.118
Mof_C 	C 	0.5691	0.5691	0.83652	0.342
Mof_C 	C 	0.6127	0.6127	0.74232	-0.043
Mof_C 	C 	0.02528	0.83652	0.5691	0.35
Mof_C 	C 	0.03228	0.74232	0.6127	-0.118
Mof_C 	C 	0.5691	0.5691	0.02528	0.371
Mof_C 	C 	0.6127	0.6127	0.03228	-0.142
Mof_C 	C 	0.83652	0.02528	0.5691	0.35
Mof_C 	C 	0.74232	0.03228	0.6127	-0.118
Mof_C 	C 	0.5691	0.83652	0.02528	0.35
Mof_C 	C 	0.6127	0.74232	0.03228	-0.118
Mof_C 	C 	0.02528	0.5691	0.5691	0.371
Mof_C 	C 	0.03228	0.6127	0.6127	-0.142
Mof_C 	C 	0.5691	0.02528	0.83652	0.35
Mof_C 	C 	0.6127	0.03228	0.74232	-0.118
Mof_C 	C 	0.83652	0.5691	0.5691	0.342
Mof_C 	C 	0.74232	0.6127	0.6127	-0.043
Mof_C 	C 	0.97472	0.4309	0.4309	0.345
Mof_C 	C 	0.96772	0.3873	0.3873	-0.068
Mof_C 	C 	0.4309	0.97472	0.16348	0.346
Mof_C 	C 	0.3873	0.96772	0.25768	-0.085
Mof_C 	C 	0.16348	0.4309	0.4309	0.377
Mof_C 	C 	0.25768	0.3873	0.3873	-0.178
Mof_C 	C 	0.4309	0.16348	0.97472	0.346
Mof_C 	C 	0.3873	0.25768	0.96772	-0.085
Mof_C 	C 	0.4309	0.4309	0.16348	0.377
Mof_C 	C 	0.3873	0.3873	0.25768	-0.178
Mof_C 	C 	0.16348	0.97472	0.4309	0.346
Mof_C 	C 	0.25768	0.96772	0.3873	-0.085
Mof_C 	C 	0.4309	0.4309	0.97472	0.345
Mof_C 	C 	0.3873	0.3873	0.96772	-0.068
Mof_C 	C 	0.97472	0.16348	0.4309	0.346
Mof_C 	C 	0.96772	0.25768	0.3873	-0.085
Mof_C 	C 	0.16348	0.4309	0.97472	0.346
Mof_C 	C 	0.25768	0.3873	0.96772	-0.085
Mof_C 	C 	0.4309	0.97472	0.4309	0.345
Mof_C 	C 	0.3873	0.96772	0.3873	-0.068
Mof_C 	C 	0.97472	0.4309	0.16348	0.346
Mof_C 	C 	0.96772	0.3873	0.25768	-0.085
Mof_C 	C 	0.4309	0.16348	0.4309	0.377
Mof_C 	C 	0.3873	0.25768	0.3873	-0.178
Mof_C 	C 	0.6992	0.03206	0.56954	0.062
Mof_C 	C 	0.03206	0.6992	0.6992	0.055
Mof_C 	C 	0.56954	0.6992	0.6992	0.026
Mof_C 	C 	0.6992	0.56954	0.03206	0.062
Mof_C 	C 	0.6992	0.56954	0.6992	0.026
Mof_C 	C 	0.03206	0.6992	0.56954	0.062
Mof_C 	C 	0.56954	0.6992	0.03206	0.062
Mof_C 	C 	0.6992	0.03206	0.6992	0.055
Mof_C 	C 	0.6992	0.6992	0.03206	0.055
Mof_C 	C 	0.03206	0.56954	0.6992	0.062
Mof_C 	C 	0.56954	0.03206	0.6992	0.062
Mof_C 	C 	0.6992	0.6992	0.56954	0.026
Mof_C 	C 	0.96794	0.3008	0.43046	0.039
Mof_C 	C 	0.3008	0.96794	0.3008	0.042
Mof_C 	C 	0.3008	0.43046	0.3008	0.085
Mof_C 	C 	0.43046	0.3008	0.96794	0.039
Mof_C 	C 	0.43046	0.3008	0.3008	0.085
Mof_C 	C 	0.3008	0.96794	0.43046	0.039
Mof_C 	C 	0.3008	0.43046	0.96794	0.039
Mof_C 	C 	0.96794	0.3008	0.3008	0.042
Mof_C 	C 	0.3008	0.3008	0.96794	0.042
Mof_C 	C 	0.43046	0.96794	0.3008	0.039
Mof_C 	C 	0.96794	0.43046	0.3008	0.039
Mof_C 	C 	0.3008	0.3008	0.43046	0.085
Mof_O 	O 	0.49246	0.02118	0.61244	-0.46
Mof_O 	O 	0.02118	0.49246	0.87392	-0.363
Mof_O 	O 	0.61244	0.87392	0.49246	-0.281
Mof_O 	O 	0.87392	0.61244	0.02118	-0.343
Mof_O 	O 	0.49246	0.61244	0.87392	-0.281
Mof_O 	O 	0.02118	0.87392	0.61244	-0.343
Mof_O 	O 	0.61244	0.49246	0.02118	-0.46
Mof_O 	O 	0.87392	0.02118	0.49246	-0.363
Mof_O 	O 	0.49246	0.87392	0.02118	-0.363
Mof_O 	O 	0.02118	0.61244	0.49246	-0.46
Mof_O 	O 	0.61244	0.02118	0.87392	-0.343
Mof_O 	O 	0.87392	0.49246	0.61244	-0.281
Mof_O 	O 	0.97882	0.50754	0.38756	-0.29
Mof_O 	O 	0.50754	0.97882	0.12608	-0.331
Mof_O 	O 	0.12608	0.38756	0.50754	-0.471
Mof_O 	O 	0.38756	0.12608	0.97882	-0.35
Mof_O 	O 	0.38756	0.50754	0.12608	-0.471
Mof_O 	O 	0.12608	0.97882	0.38756	-0.35
Mof_O 	O 	0.50754	0.38756	0.97882	-0.29
Mof_O 	O 	0.97882	0.12608	0.50754	-0.331
Mof_O 	O 	0.12608	0.50754	0.97882	-0.331
Mof_O 	O 	0.38756	0.97882	0.50754	-0.29
Mof_O 	O 	0.97882	0.38756	0.12608	-0.35
Mof_O 	O 	0.50754	0.12608	0.38756	-0.471
Mof_O 	O 	0.50754	0.97882	0.38756	-0.29
Mof_O 	O 	0.97882	0.50754	0.12608	-0.331
Mof_O 	O 	0.38756	0.12608	0.50754	-0.471
Mof_O 	O 	0.12608	0.38756	0.97882	-0.35
Mof_O 	O 	0.50754	0.38756	0.12608	-0.471
Mof_O 	O 	0.97882	0.12608	0.38756	-0.35
Mof_O 	O 	0.38756	0.50754	0.97882	-0.29
Mof_O 	O 	0.12608	0.97882	0.50754	-0.331
Mof_O 	O 	0.50754	0.12608	0.97882	-0.331
Mof_O 	O 	0.97882	0.38756	0.50754	-0.29
Mof_O 	O 	0.38756	0.97882	0.12608	-0.35
Mof_O 	O 	0.12608	0.50754	0.38756	-0.471
Mof_O 	O 	0.02118	0.49246	0.61244	-0.46
Mof_O 	O 	0.49246	0.02118	0.87392	-0.363
Mof_O 	O 	0.87392	0.61244	0.49246	-0.281
Mof_O 	O 	0.61244	0.87392	0.02118	-0.343
Mof_O 	O 	0.61244	0.49246	0.87392	-0.281
Mof_O 	O 	0.87392	0.02118	0.61244	-0.343
Mof_O 	O 	0.49246	0.61244	0.02118	-0.46
Mof_O 	O 	0.02118	0.87392	0.49246	-0.363
Mof_O 	O 	0.87392	0.49246	0.02118	-0.363
Mof_O 	O 	0.61244	0.02118	0.49246	-0.46
Mof_O 	O 	0.02118	0.61244	0.87392	-0.343
Mof_O 	O 	0.49246	0.87392	0.61244	-0.281
_end
