data_functionalizedCrystal
_audit_creation_method	'EQeq! by Chris Wilmer'
_symmetry_space_group_name_H-M	'P1'
_symmetry_Int_Tables_number	1
_symmetry_cell_setting	triclinic
loop_
_symmetry_equiv_pos_as_xyz
  x,y,z
_cell_length_a	13.7195
_cell_length_b	13.6998
_cell_length_c	18.1247
_cell_angle_alpha	77.634
_cell_angle_beta	77.225
_cell_angle_gamma	63.562
loop_
_atom_site_label
_atom_site_type_symbol
_atom_site_fract_x
_atom_site_fract_y
_atom_site_fract_z
_atom_site_charge
Mof_Co	Co	0.96921	0.2129	0.12336	1.116
Mof_S 	S 	0.1536	0.82179	0.13762	-0.063
Mof_S 	S 	0.73376	0.58891	0.08803	-0.078
Mof_N 	N 	0.9997	0.2579	0.9991	-0.23
Mof_N 	N 	0.9499	0.1638	0.2482	-0.254
Mof_N 	N 	0.816	0.2018	0.1194	-0.255
Mof_N 	N 	0.124	0.2235	0.1309	-0.286
Mof_N 	N 	0.0573	0.048	0.1091	-0.262
Mof_N 	N 	0.8801	0.3775	0.1375	-0.264
Mof_C 	C 	0.0959	0.2018	0.9598	0.026
Mof_H 	H 	0.1449	0.1363	0.9833	0
Mof_C 	C 	0.1251	0.2385	0.8846	-0.049
Mof_H 	H 	0.1947	0.1986	0.8598	0.043
Mof_C 	C 	0.0581	0.3276	0.8472	0.014
Mof_C 	C 	0.9568	0.3874	0.8869	-0.07
Mof_H 	H 	0.9056	0.4517	0.8639	0.042
Mof_C 	C 	0.9365	0.3485	0.959	0.035
Mof_H 	H 	0.8687	0.3903	0.9851	-0.001
Mof_C 	C 	0.0406	0.1842	0.9501	0.015
Mof_H 	H 	0.0461	0.1135	0.9689	0.01
Mof_C 	C 	0.0758	0.2063	0.8723	-0.064
Mof_H 	H 	0.1065	0.1535	0.8392	0.048
Mof_C 	C 	0.0231	0.3842	0.8936	-0.054
Mof_H 	H 	0.0121	0.4572	0.8781	0.045
Mof_C 	C 	0.996	0.3553	0.9691	0.029
Mof_H 	H 	0.9735	0.4079	0.0016	-0.002
Mof_C 	C 	0.0936	0.3642	0.7678	0.107
Mof_H 	H 	0.0651	0.3404	0.7367	0.008
Mof_C 	C 	0.9529	0.0652	0.2795	0.111
Mof_H 	H 	0.9487	0.0216	0.2485	-0.024
Mof_C 	C 	0.9618	0.0247	0.3555	-0.205
Mof_H 	H 	0.9631	0.9557	0.3753	0.105
Mof_C 	C 	0.969	0.0895	0.402	0.149
Mof_C 	C 	0.9607	0.1913	0.3713	-0.222
Mof_H 	H 	0.9618	0.2381	0.4011	0.1
Mof_C 	C 	0.9507	0.2239	0.2966	0.126
Mof_H 	H 	0.9436	0.2949	0.2771	-0.03
Mof_C 	C 	0.988	0.0496	0.4826	-0.094
Mof_H 	H 	0.9819	0.1013	0.5113	0.062
Mof_C 	C 	0.8108	0.1386	0.0763	0.111
Mof_H 	H 	0.8743	0.0996	0.0449	-0.025
Mof_C 	C 	0.7162	0.1272	0.0752	-0.191
Mof_H 	H 	0.7166	0.0802	0.0448	0.093
Mof_C 	C 	0.6214	0.1866	0.12	0.124
Mof_C 	C 	0.6261	0.2505	0.1641	-0.198
Mof_H 	H 	0.5633	0.2911	0.1954	0.098
Mof_C 	C 	0.7223	0.2559	0.1632	0.114
Mof_H 	H 	0.7234	0.3002	0.1951	-0.022
Mof_C 	C 	0.5178	0.1775	0.1193	-0.038
Mof_H 	H 	0.5247	0.1165	0.1003	0.039
Mof_C 	C 	0.2171	0.1403	0.1344	0.188
Mof_H 	H 	0.2182	0.072	0.1344	-0.049
Mof_C 	C 	0.3155	0.1416	0.1381	-0.308
Mof_H 	H 	0.379	0.0766	0.141	0.137
Mof_C 	C 	0.3183	0.2362	0.1376	0.26
Mof_C 	C 	0.2234	0.3222	0.1395	-0.311
Mof_H 	H 	0.2194	0.3898	0.1455	0.131
Mof_C 	C 	0.1304	0.3136	0.1328	0.192
Mof_H 	H 	0.0666	0.3783	0.1293	-0.052
Mof_C 	C 	0.4216	0.2434	0.1417	-0.174
Mof_H 	H 	0.4145	0.3027	0.163	0.09
Mof_C 	C 	0.0972	0.9549	0.1209	0.097
Mof_C 	C 	0.819	0.4654	0.119	0.087
Mof_Co	Co	0.28713	0.53075	0.37657	1.119
Mof_S 	S 	0.67838	0.3461	0.36235	-0.065
Mof_S 	S 	0.91119	0.76622	0.41188	-0.07
Mof_N 	N 	0.2421	0.5001	0.5008	-0.25
Mof_N 	N 	0.3355	0.5502	0.2518	-0.253
Mof_N 	N 	0.2988	0.6839	0.3805	-0.253
Mof_N 	N 	0.2769	0.376	0.3693	-0.289
Mof_N 	N 	0.452	0.4424	0.3913	-0.265
Mof_N 	N 	0.1225	0.6198	0.3627	-0.262
Mof_C 	C 	0.297	0.4042	0.5389	-0.016
Mof_H 	H 	0.3622	0.3548	0.5147	0.014
Mof_C 	C 	0.2596	0.3749	0.6148	-0.055
Mof_H 	H 	0.2984	0.3048	0.6389	0.052
Mof_C 	C 	0.1723	0.4425	0.6527	0.198
Mof_C 	C 	0.1122	0.5442	0.6121	-0.162
Mof_H 	H 	0.0471	0.5951	0.6352	0.075
Mof_C 	C 	0.1513	0.5651	0.5399	0.122
Mof_H 	H 	0.1104	0.6329	0.514	-0.034
Mof_C 	C 	0.3137	0.4595	0.5501	0.108
Mof_H 	H 	0.3827	0.4592	0.5317	-0.02
Mof_C 	C 	0.2964	0.418	0.6259	-0.156
Mof_H 	H 	0.3513	0.3796	0.6568	0.08
Mof_C 	C 	0.116	0.4765	0.6071	-0.093
Mof_H 	H 	0.0435	0.4857	0.6228	0.069
Mof_C 	C 	0.1452	0.5052	0.531	-0.006
Mof_H 	H 	0.0921	0.5299	0.499	0.01
Mof_C 	C 	0.1362	0.4045	0.7331	-0.28
Mof_H 	H 	0.1651	0.4277	0.7643	0.119
Mof_C 	C 	0.4347	0.5472	0.2205	0.106
Mof_H 	H 	0.4781	0.5513	0.2515	-0.022
Mof_C 	C 	0.4754	0.5381	0.1439	-0.199
Mof_H 	H 	0.5443	0.537	0.1238	0.101
Mof_C 	C 	0.4109	0.5305	0.0981	0.152
Mof_C 	C 	0.3093	0.5396	0.1287	-0.226
Mof_H 	H 	0.2627	0.5392	0.0987	0.103
Mof_C 	C 	0.2759	0.5491	0.2033	0.129
Mof_H 	H 	0.205	0.5555	0.2228	-0.03
Mof_C 	C 	0.4503	0.5121	0.0172	-0.093
Mof_H 	H 	0.3988	0.5184	0.9886	0.062
Mof_C 	C 	0.3613	0.6895	0.424	0.109
Mof_H 	H 	0.3992	0.6267	0.4558	-0.022
Mof_C 	C 	0.3727	0.784	0.4244	-0.187
Mof_H 	H 	0.4199	0.7842	0.4541	0.092
Mof_C 	C 	0.3133	0.8784	0.38	0.119
Mof_C 	C 	0.2499	0.8739	0.3356	-0.194
Mof_H 	H 	0.2101	0.9361	0.3042	0.096
Mof_C 	C 	0.2446	0.7772	0.3371	0.111
Mof_H 	H 	0.2001	0.7755	0.3058	-0.021
Mof_C 	C 	0.3223	0.9827	0.3802	-0.03
Mof_H 	H 	0.3834	0.9758	0.3987	0.037
Mof_C 	C 	0.1867	0.3699	0.3662	0.191
Mof_H 	H 	0.1226	0.4345	0.3674	-0.053
Mof_C 	C 	0.1776	0.2757	0.3613	-0.319
Mof_H 	H 	0.1098	0.2789	0.3573	0.134
Mof_C 	C 	0.2641	0.1817	0.3621	0.274
Mof_C 	C 	0.3584	0.1849	0.3609	-0.32
Mof_H 	H 	0.4236	0.1216	0.3569	0.141
Mof_C 	C 	0.3598	0.283	0.3657	0.195
Mof_H 	H 	0.428	0.2816	0.3663	-0.053
Mof_C 	C 	0.2569	0.0787	0.3585	-0.185
Mof_H 	H 	0.1975	0.0856	0.3379	0.095
Mof_C 	C 	0.5452	0.4026	0.379	0.1
Mof_C 	C 	0.0347	0.6815	0.3813	0.092
Mof_Co	Co	0.03079	0.7871	0.87664	1.117
Mof_S 	S 	0.8464	0.17821	0.86238	-0.062
Mof_S 	S 	0.26624	0.41109	0.91197	-0.078
Mof_N 	N 	0.0003	0.7421	0.0009	-0.23
Mof_N 	N 	0.0501	0.8362	0.7518	-0.254
Mof_N 	N 	0.184	0.7982	0.8806	-0.255
Mof_N 	N 	0.876	0.7765	0.8691	-0.286
Mof_N 	N 	0.9427	0.952	0.8909	-0.262
Mof_N 	N 	0.1199	0.6225	0.8625	-0.264
Mof_C 	C 	0.9041	0.7982	0.0402	0.026
Mof_H 	H 	0.8551	0.8637	0.0167	0
Mof_C 	C 	0.8749	0.7615	0.1154	-0.049
Mof_H 	H 	0.8053	0.8014	0.1402	0.043
Mof_C 	C 	0.9419	0.6724	0.1528	0.014
Mof_C 	C 	0.0432	0.6126	0.1131	-0.07
Mof_H 	H 	0.0944	0.5483	0.1361	0.042
Mof_C 	C 	0.0635	0.6515	0.041	0.035
Mof_H 	H 	0.1313	0.6097	0.0149	-0.001
Mof_C 	C 	0.9594	0.8158	0.0499	0.015
Mof_H 	H 	0.9539	0.8865	0.0311	0.01
Mof_C 	C 	0.9242	0.7937	0.1277	-0.064
Mof_H 	H 	0.8935	0.8465	0.1608	0.048
Mof_C 	C 	0.9769	0.6158	0.1064	-0.054
Mof_H 	H 	0.9879	0.5428	0.1219	0.045
Mof_C 	C 	0.004	0.6447	0.0309	0.029
Mof_H 	H 	0.0265	0.5921	0.9984	-0.002
Mof_C 	C 	0.9064	0.6358	0.2322	0.107
Mof_H 	H 	0.9349	0.6596	0.2633	0.008
Mof_C 	C 	0.0471	0.9348	0.7205	0.111
Mof_H 	H 	0.0513	0.9784	0.7515	-0.024
Mof_C 	C 	0.0382	0.9753	0.6445	-0.205
Mof_H 	H 	0.0369	0.0443	0.6247	0.105
Mof_C 	C 	0.031	0.9105	0.598	0.149
Mof_C 	C 	0.0393	0.8087	0.6287	-0.222
Mof_H 	H 	0.0382	0.7619	0.5989	0.1
Mof_C 	C 	0.0493	0.7761	0.7034	0.126
Mof_H 	H 	0.0564	0.7051	0.7229	-0.03
Mof_C 	C 	0.012	0.9504	0.5174	-0.094
Mof_H 	H 	0.0181	0.8987	0.4887	0.062
Mof_C 	C 	0.1892	0.8614	0.9237	0.111
Mof_H 	H 	0.1257	0.9004	0.9551	-0.025
Mof_C 	C 	0.2838	0.8728	0.9248	-0.191
Mof_H 	H 	0.2834	0.9198	0.9552	0.093
Mof_C 	C 	0.3786	0.8134	0.88	0.124
Mof_C 	C 	0.3739	0.7495	0.8359	-0.198
Mof_H 	H 	0.4367	0.7089	0.8046	0.098
Mof_C 	C 	0.2777	0.7441	0.8368	0.114
Mof_H 	H 	0.2766	0.6998	0.8049	-0.022
Mof_C 	C 	0.4822	0.8225	0.8807	-0.038
Mof_H 	H 	0.4753	0.8835	0.8997	0.039
Mof_C 	C 	0.7829	0.8597	0.8656	0.188
Mof_H 	H 	0.7818	0.928	0.8656	-0.049
Mof_C 	C 	0.6845	0.8584	0.8619	-0.308
Mof_H 	H 	0.621	0.9234	0.859	0.137
Mof_C 	C 	0.6817	0.7638	0.8624	0.26
Mof_C 	C 	0.7766	0.6778	0.8605	-0.311
Mof_H 	H 	0.7806	0.6102	0.8545	0.131
Mof_C 	C 	0.8696	0.6864	0.8672	0.192
Mof_H 	H 	0.9334	0.6217	0.8707	-0.052
Mof_C 	C 	0.5784	0.7566	0.8583	-0.174
Mof_H 	H 	0.5855	0.6973	0.837	0.09
Mof_C 	C 	0.9028	0.0451	0.8791	0.097
Mof_C 	C 	0.181	0.5346	0.881	0.087
Mof_Co	Co	0.71287	0.46925	0.62343	1.119
Mof_S 	S 	0.32162	0.6539	0.63765	-0.065
Mof_S 	S 	0.08881	0.23378	0.58812	-0.07
Mof_N 	N 	0.7579	0.4999	0.4992	-0.25
Mof_N 	N 	0.6645	0.4498	0.7482	-0.253
Mof_N 	N 	0.7012	0.3161	0.6195	-0.253
Mof_N 	N 	0.7231	0.624	0.6307	-0.289
Mof_N 	N 	0.548	0.5576	0.6087	-0.265
Mof_N 	N 	0.8775	0.3802	0.6373	-0.262
Mof_C 	C 	0.703	0.5958	0.4611	-0.016
Mof_H 	H 	0.6378	0.6452	0.4853	0.014
Mof_C 	C 	0.7404	0.6251	0.3852	-0.055
Mof_H 	H 	0.7016	0.6952	0.3611	0.052
Mof_C 	C 	0.8277	0.5575	0.3473	0.198
Mof_C 	C 	0.8878	0.4558	0.3879	-0.162
Mof_H 	H 	0.9529	0.4049	0.3648	0.075
Mof_C 	C 	0.8487	0.4349	0.4601	0.122
Mof_H 	H 	0.8896	0.3671	0.486	-0.034
Mof_C 	C 	0.6863	0.5405	0.4499	0.108
Mof_H 	H 	0.6173	0.5408	0.4683	-0.02
Mof_C 	C 	0.7036	0.582	0.3741	-0.156
Mof_H 	H 	0.6487	0.6204	0.3432	0.08
Mof_C 	C 	0.884	0.5235	0.3929	-0.093
Mof_H 	H 	0.9565	0.5143	0.3772	0.069
Mof_C 	C 	0.8548	0.4948	0.469	-0.006
Mof_H 	H 	0.9079	0.4701	0.501	0.01
Mof_C 	C 	0.8638	0.5955	0.2669	-0.28
Mof_H 	H 	0.8349	0.5723	0.2357	0.119
Mof_C 	C 	0.5653	0.4528	0.7795	0.106
Mof_H 	H 	0.5219	0.4487	0.7485	-0.022
Mof_C 	C 	0.5246	0.4619	0.8561	-0.199
Mof_H 	H 	0.4557	0.463	0.8762	0.101
Mof_C 	C 	0.5891	0.4695	0.9019	0.152
Mof_C 	C 	0.6907	0.4604	0.8713	-0.226
Mof_H 	H 	0.7373	0.4608	0.9013	0.103
Mof_C 	C 	0.7241	0.4509	0.7967	0.129
Mof_H 	H 	0.795	0.4445	0.7772	-0.03
Mof_C 	C 	0.5497	0.4879	0.9828	-0.093
Mof_H 	H 	0.6012	0.4816	0.0114	0.062
Mof_C 	C 	0.6387	0.3105	0.576	0.109
Mof_H 	H 	0.6008	0.3733	0.5442	-0.022
Mof_C 	C 	0.6273	0.216	0.5756	-0.187
Mof_H 	H 	0.5801	0.2158	0.5459	0.092
Mof_C 	C 	0.6867	0.1216	0.62	0.119
Mof_C 	C 	0.7501	0.1261	0.6644	-0.194
Mof_H 	H 	0.7899	0.0639	0.6958	0.096
Mof_C 	C 	0.7554	0.2228	0.6629	0.111
Mof_H 	H 	0.7999	0.2245	0.6942	-0.021
Mof_C 	C 	0.6777	0.0173	0.6198	-0.03
Mof_H 	H 	0.6166	0.0242	0.6013	0.037
Mof_C 	C 	0.8133	0.6301	0.6338	0.191
Mof_H 	H 	0.8774	0.5655	0.6326	-0.053
Mof_C 	C 	0.8224	0.7243	0.6387	-0.319
Mof_H 	H 	0.8902	0.7211	0.6427	0.134
Mof_C 	C 	0.7359	0.8183	0.6379	0.274
Mof_C 	C 	0.6416	0.8151	0.6391	-0.32
Mof_H 	H 	0.5764	0.8784	0.6431	0.141
Mof_C 	C 	0.6402	0.717	0.6343	0.195
Mof_H 	H 	0.572	0.7184	0.6337	-0.053
Mof_C 	C 	0.7431	0.9213	0.6415	-0.185
Mof_H 	H 	0.8025	0.9144	0.6621	0.095
Mof_C 	C 	0.4548	0.5974	0.621	0.1
Mof_C 	C 	0.9653	0.3185	0.6187	0.092
_end
