# CIF file generated by openbabel 3.1.0, see https://openbabel.org
data_I
_chemical_name_common 'POBGAQ_clean'
_cell_length_a 15.7537
_cell_length_b 18.9925
_cell_length_c 36.0206
_cell_angle_alpha 90
_cell_angle_beta 90
_cell_angle_gamma 90
_space_group_name_H-M_alt 'P 1'
_space_group_name_Hall 'P 1'
loop_
    _symmetry_equiv_pos_as_xyz
    x,y,z
loop_
    _atom_site_label
    _atom_site_type_symbol
    _atom_site_fract_x
    _atom_site_fract_y
    _atom_site_fract_z
    _atom_site_occupancy
    Fe1      Fe       0.25000    0.50000    0.25000    1.000
    Fe2      Fe       0.75000    0.00000    0.75000    1.000
    B1       B        0.48120    0.05490    0.74670    1.000
    B2       B        0.48120    0.94510    0.75330    1.000
    B3       B        0.01880    0.05490    0.75330    1.000
    B4       B        0.01880    0.94510    0.74670    1.000
    H1       H        0.65340    0.47650    0.58320    1.000
    H2       H        0.04380    0.54500    0.41950    1.000
    H3       H        0.98160    0.59440    0.47550    1.000
    H4       H        0.64790    0.60650    0.52870    1.000
    H5       H        0.87920    0.41550    0.97850    1.000
    H6       H        0.65590    0.61700    0.87540    1.000
    H7       H        0.87920    0.58450    0.52150    1.000
    H8       H        0.64960    0.87620    0.77460    1.000
    H9       H        0.95320    0.54280    0.12220    1.000
    H10      H        0.84660    0.52350    0.58320    1.000
    H11      H        0.37780    0.56870    0.12810    1.000
    H12      H        0.77840    0.58200    0.03140    1.000
    H13      H        0.88080    0.57210    0.07740    1.000
    H14      H        0.65110    0.78600    0.81810    1.000
    H15      H        0.88080    0.42790    0.42260    1.000
    H16      H        0.64020    0.95840    0.67930    1.000
    H17      H        0.72160    0.58200    0.46860    1.000
    H18      H        0.62080    0.58450    0.97850    1.000
    H19      H        0.84660    0.47650    0.91680    1.000
    H20      H        0.85040    0.12380    0.77460    1.000
    H21      H        0.54680    0.45720    0.12220    1.000
    H22      H        0.54680    0.54280    0.37780    1.000
    H23      H        0.29050    0.57590    0.17800    1.000
    H24      H        0.85040    0.87620    0.72540    1.000
    H25      H        0.70200    0.71840    0.85290    1.000
    H26      H        0.85210    0.60650    0.97130    1.000
    H27      H        0.79800    0.71840    0.64710    1.000
    H28      H        0.51840    0.59440    0.02450    1.000
    H29      H        0.48960    0.41640    0.17880    1.000
    H30      H        0.84890    0.78600    0.68190    1.000
    H31      H        0.51840    0.40560    0.47550    1.000
    H32      H        0.84410    0.38300    0.87540    1.000
    H33      H        0.79800    0.28160    0.85290    1.000
    H34      H        0.48960    0.58360    0.32120    1.000
    H35      H        0.64530    0.29990    0.92990    1.000
    H36      H        0.01040    0.58360    0.17880    1.000
    H37      H        0.67520    0.22350    0.89140    1.000
    H38      H        0.64960    0.12380    0.72540    1.000
    H39      H        0.63880    0.13170    0.86420    1.000
    H40      H        0.40060    0.42700    0.22800    1.000
    H41      H        0.65340    0.52350    0.91680    1.000
    H42      H        0.82480    0.22350    0.60860    1.000
    H43      H        0.86120    0.13170    0.63580    1.000
    H44      H        0.85980    0.95840    0.82070    1.000
    H45      H        0.77840    0.41800    0.46860    1.000
    H46      H        0.12220    0.56870    0.37190    1.000
    H47      H        0.09940    0.57300    0.22800    1.000
    H48      H        0.85980    0.04160    0.67930    1.000
    H49      H        0.45620    0.45500    0.41950    1.000
    H50      H        0.64790    0.39350    0.97130    1.000
    H51      H        0.20950    0.42410    0.17800    1.000
    H52      H        0.01040    0.41640    0.32120    1.000
    H53      H        0.12220    0.43130    0.12810    1.000
    H54      H        0.64020    0.04160    0.82070    1.000
    H55      H        0.09940    0.42700    0.27200    1.000
    H56      H        0.82480    0.77650    0.89140    1.000
    H57      H        0.61920    0.42790    0.07740    1.000
    H58      H        0.65590    0.38300    0.62460    1.000
    H59      H        0.95320    0.45720    0.37780    1.000
    H60      H        0.62080    0.41550    0.52150    1.000
    H61      H        0.40060    0.57300    0.27200    1.000
    H62      H        0.84890    0.21400    0.81810    1.000
    H63      H        0.61920    0.57210    0.42260    1.000
    H64      H        0.29050    0.42410    0.32200    1.000
    H65      H        0.85470    0.29990    0.57010    1.000
    H66      H        0.04380    0.45500    0.08050    1.000
    H67      H        0.84410    0.61700    0.62460    1.000
    H68      H        0.63880    0.86830    0.63580    1.000
    H69      H        0.37780    0.43130    0.37190    1.000
    H70      H        0.85210    0.39350    0.52870    1.000
    H71      H        0.70200    0.28160    0.64710    1.000
    H72      H        0.64530    0.70010    0.57010    1.000
    H73      H        0.67520    0.77650    0.60860    1.000
    H74      H        0.86120    0.86830    0.86420    1.000
    H75      H        0.45620    0.54500    0.08050    1.000
    H76      H        0.85470    0.70010    0.92990    1.000
    H77      H        0.20950    0.57590    0.32200    1.000
    H78      H        0.72160    0.41800    0.03140    1.000
    H79      H        0.65110    0.21400    0.68190    1.000
    H80      H        0.98160    0.40560    0.02450    1.000
    C1       C        0.38520    0.46160    0.35190    1.000
    C2       C        0.99830    0.48750    0.38254    1.000
    C3       C        0.81790    0.92380    0.82020    1.000
    C4       C        0.69370    0.44110    0.58060    1.000
    C5       C        0.11480    0.53840    0.35190    1.000
    C6       C        0.74750    0.44426    0.94813    1.000
    C7       C        0.55870    0.51220    0.05547    1.000
    C8       C        0.74250    0.27730    0.62840    1.000
    C9       C        0.57100    0.00000    0.75000    1.000
    C10      C        0.75750    0.27730    0.87160    1.000
    C11      C        0.92900    0.00000    0.75000    1.000
    C12      C        0.75630    0.18180    0.65450    1.000
    C13      C        0.68090    0.54662    0.47003    1.000
    C14      C        0.38520    0.53840    0.14810    1.000
    C15      C        0.88050    0.54067    0.05753    1.000
    C16      C        0.81880    0.86980    0.84620    1.000
    C17      C        0.55870    0.48780    0.44453    1.000
    C18      C        0.80630    0.44110    0.91940    1.000
    C19      C        0.68135    0.49971    0.49965    1.000
    C20      C        0.05230    0.54910    0.17842    1.000
    C21      C        0.74370    0.81820    0.65450    1.000
    C22      C        0.05840    0.50500    0.14796    1.000
    C23      C        0.75560    0.66780    0.89851    1.000
    C24      C        0.80710    0.82060    0.68140    1.000
    C25      C        0.80480    0.38510    0.89459    1.000
    C26      C        0.69290    0.17940    0.68140    1.000
    C27      C        0.68120    0.86980    0.65380    1.000
    C28      C        0.81910    0.45338    0.47003    1.000
    C29      C        0.33280    0.45830    0.32174    1.000
    C30      C        0.39390    0.45680    0.20772    1.000
    C31      C        0.81280    0.39140    0.54795    1.000
    C32      C        0.99740    0.51600    0.41501    1.000
    C33      C        0.71800    0.23060    0.87400    1.000
    C34      C        0.71800    0.76940    0.62600    1.000
    C35      C        0.68570    0.33532    0.92724    1.000
    C36      C        0.80630    0.55890    0.58060    1.000
    C37      C        0.10610    0.54320    0.20772    1.000
    C38      C        0.05840    0.49500    0.35204    1.000
    C39      C        0.50260    0.48400    0.41501    1.000
    C40      C        0.94130    0.48780    0.05547    1.000
    C41      C        0.78200    0.23060    0.62600    1.000
    C42      C        0.81910    0.54662    0.02997    1.000
    C43      C        0.05230    0.45090    0.32158    1.000
    C44      C        0.80480    0.61490    0.60541    1.000
    C45      C        0.44770    0.54910    0.32158    1.000
    C46      C        0.69210    0.87460    0.79260    1.000
    C47      C        0.74370    0.18180    0.84550    1.000
    C48      C        0.81430    0.33532    0.57276    1.000
    C49      C        0.50170    0.48750    0.11746    1.000
    C50      C        0.39390    0.54320    0.29228    1.000
    C51      C        0.16720    0.45830    0.17826    1.000
    C52      C        0.61950    0.45933    0.05753    1.000
    C53      C        0.81280    0.60860    0.95205    1.000
    C54      C        0.80790    0.12540    0.79260    1.000
    C55      C        0.81790    0.07620    0.67980    1.000
    C56      C        0.80710    0.17940    0.81860    1.000
    C57      C        0.69370    0.55890    0.91940    1.000
    C58      C        0.68120    0.13020    0.84620    1.000
    C59      C        0.44770    0.45090    0.17842    1.000
    C60      C        0.62050    0.44686    0.50171    1.000
    C61      C        0.16720    0.54170    0.32174    1.000
    C62      C        0.75750    0.72270    0.62840    1.000
    C63      C        0.75000    0.50000    0.97447    1.000
    C64      C        0.68720    0.39140    0.95205    1.000
    C65      C        0.87950    0.44686    0.99829    1.000
    C66      C        0.61950    0.54067    0.44247    1.000
    C67      C        0.69520    0.61490    0.89459    1.000
    C68      C        0.94080    0.55909    0.47415    1.000
    C69      C        0.69520    0.38510    0.60541    1.000
    C70      C        0.33280    0.54170    0.17826    1.000
    C71      C        0.81865    0.50029    0.49965    1.000
    C72      C        0.75250    0.44426    0.55187    1.000
    C73      C        0.75000    0.50000    0.52553    1.000
    C74      C        0.94080    0.44091    0.02585    1.000
    C75      C        0.55920    0.55909    0.02585    1.000
    C76      C        0.74440    0.33220    0.89851    1.000
    C77      C        0.81865    0.49971    0.00035    1.000
    C78      C        0.87950    0.55314    0.50171    1.000
    C79      C        0.81880    0.13020    0.65380    1.000
    C80      C        0.75250    0.55574    0.94813    1.000
    C81      C        0.80790    0.87460    0.70740    1.000
    C82      C        0.10610    0.45680    0.29228    1.000
    C83      C        0.25000    0.64220    0.25000    1.000
    C84      C        0.62050    0.55314    0.99829    1.000
    C85      C        0.81430    0.66468    0.92724    1.000
    C86      C        0.75560    0.33220    0.60149    1.000
    C87      C        0.75630    0.81820    0.84550    1.000
    C88      C        0.44160    0.49500    0.14796    1.000
    C89      C        0.68090    0.45338    0.02997    1.000
    C90      C        0.74750    0.55574    0.55187    1.000
    C91      C        0.74440    0.66780    0.60149    1.000
    C92      C        0.94130    0.51220    0.44453    1.000
    C93      C        0.88050    0.45933    0.44247    1.000
    C94      C        0.50260    0.51600    0.08499    1.000
    C95      C        0.99740    0.48400    0.08499    1.000
    C96      C        0.69290    0.82060    0.81860    1.000
    C97      C        0.68135    0.50029    0.00035    1.000
    C98      C        0.68720    0.60860    0.54795    1.000
    C99      C        0.68570    0.66468    0.57276    1.000
    C100     C        0.11480    0.46160    0.14810    1.000
    C101     C        0.25000    0.35780    0.25000    1.000
    C102     C        0.44160    0.50500    0.35204    1.000
    C103     C        0.50170    0.51250    0.38254    1.000
    C104     C        0.74250    0.72270    0.87160    1.000
    C105     C        0.69210    0.12540    0.70740    1.000
    C106     C        0.68210    0.07620    0.82020    1.000
    C107     C        0.68210    0.92380    0.67980    1.000
    C108     C        0.99830    0.51250    0.11746    1.000
    C109     C        0.78200    0.76940    0.87400    1.000
    C110     C        0.55920    0.44091    0.47415    1.000
    N1       N        0.25000    0.40370    0.25000    1.000
    N2       N        0.63290    0.00000    0.75000    1.000
    N3       N        0.33730    0.50010    0.20805    1.000
    N4       N        0.33730    0.49990    0.29195    1.000
    N5       N        0.16270    0.50010    0.29195    1.000
    N6       N        0.75460    0.07380    0.70664    1.000
    N7       N        0.74540    0.92620    0.70664    1.000
    N8       N        0.75460    0.92620    0.79336    1.000
    N9       N        0.25000    0.59630    0.25000    1.000
    N10      N        0.74540    0.07380    0.79336    1.000
    N11      N        0.86710    0.00000    0.75000    1.000
    N12      N        0.16270    0.49990    0.20805    1.000
    Fe3      Fe       0.75000    0.50000    0.75000    1.000
    Fe4      Fe       0.25000    0.00000    0.25000    1.000
    B5       B        0.51880    0.05490    0.24670    1.000
    B6       B        0.51880    0.94510    0.25330    1.000
    B7       B        0.98120    0.94510    0.24670    1.000
    B8       B        0.98120    0.05490    0.25330    1.000
    H81      H        0.36120    0.13170    0.36420    1.000
    H82      H        0.62220    0.43130    0.87190    1.000
    H83      H        0.35040    0.12380    0.22540    1.000
    H84      H        0.17520    0.22350    0.10860    1.000
    H85      H        0.15340    0.47650    0.41680    1.000
    H86      H        0.14530    0.70010    0.42990    1.000
    H87      H        0.35470    0.70010    0.07010    1.000
    H88      H        0.22160    0.41800    0.96860    1.000
    H89      H        0.35470    0.29990    0.42990    1.000
    H90      H        0.14020    0.95840    0.32070    1.000
    H91      H        0.11920    0.57210    0.57740    1.000
    H92      H        0.35980    0.95840    0.17930    1.000
    H93      H        0.90060    0.57300    0.72800    1.000
    H94      H        0.32480    0.22350    0.39140    1.000
    H95      H        0.13880    0.13170    0.13580    1.000
    H96      H        0.34890    0.78600    0.31810    1.000
    H97      H        0.15590    0.38300    0.37540    1.000
    H98      H        0.12080    0.58450    0.02150    1.000
    H99      H        0.95620    0.54500    0.91950    1.000
    H100     H        0.17520    0.77650    0.39140    1.000
    H101     H        0.27840    0.58200    0.96860    1.000
    H102     H        0.14020    0.04160    0.17930    1.000
    H103     H        0.37920    0.41550    0.02150    1.000
    H104     H        0.32480    0.77650    0.10860    1.000
    H105     H        0.34410    0.38300    0.12460    1.000
    H106     H        0.38080    0.57210    0.92260    1.000
    H107     H        0.22160    0.58200    0.53140    1.000
    H108     H        0.79050    0.42410    0.67800    1.000
    H109     H        0.14790    0.39350    0.02870    1.000
    H110     H        0.14960    0.12380    0.27460    1.000
    H111     H        0.11920    0.42790    0.92260    1.000
    H112     H        0.54380    0.45500    0.91950    1.000
    H113     H        0.15590    0.61700    0.12460    1.000
    H114     H        0.48160    0.40560    0.97550    1.000
    H115     H        0.70950    0.42410    0.82200    1.000
    H116     H        0.35210    0.39350    0.47130    1.000
    H117     H        0.95620    0.45500    0.58050    1.000
    H118     H        0.15110    0.21400    0.31810    1.000
    H119     H        0.79050    0.57590    0.82200    1.000
    H120     H        0.45320    0.45720    0.62220    1.000
    H121     H        0.20200    0.28160    0.35290    1.000
    H122     H        0.04680    0.54280    0.62220    1.000
    H123     H        0.14530    0.29990    0.07010    1.000
    H124     H        0.45320    0.54280    0.87780    1.000
    H125     H        0.59940    0.57300    0.77200    1.000
    H126     H        0.35040    0.87620    0.27460    1.000
    H127     H        0.87780    0.56870    0.87190    1.000
    H128     H        0.01840    0.59440    0.97550    1.000
    H129     H        0.34410    0.61700    0.37540    1.000
    H130     H        0.34890    0.21400    0.18190    1.000
    H131     H        0.13880    0.86830    0.36420    1.000
    H132     H        0.34660    0.52350    0.41680    1.000
    H133     H        0.14960    0.87620    0.22540    1.000
    H134     H        0.01840    0.40560    0.52450    1.000
    H135     H        0.70950    0.57590    0.67800    1.000
    H136     H        0.14790    0.60650    0.47130    1.000
    H137     H        0.37920    0.58450    0.47850    1.000
    H138     H        0.51040    0.41640    0.67880    1.000
    H139     H        0.36120    0.86830    0.13580    1.000
    H140     H        0.15110    0.78600    0.18190    1.000
    H141     H        0.35980    0.04160    0.32070    1.000
    H142     H        0.62220    0.56870    0.62810    1.000
    H143     H        0.29800    0.71840    0.35290    1.000
    H144     H        0.98960    0.41640    0.82120    1.000
    H145     H        0.59940    0.42700    0.72800    1.000
    H146     H        0.38080    0.42790    0.57740    1.000
    H147     H        0.98960    0.58360    0.67880    1.000
    H148     H        0.29800    0.28160    0.14710    1.000
    H149     H        0.87780    0.43130    0.62810    1.000
    H150     H        0.20200    0.71840    0.14710    1.000
    H151     H        0.54380    0.54500    0.58050    1.000
    H152     H        0.04680    0.45720    0.87780    1.000
    H153     H        0.48160    0.59440    0.52450    1.000
    H154     H        0.15340    0.52350    0.08320    1.000
    H155     H        0.90060    0.42700    0.77200    1.000
    H156     H        0.51040    0.58360    0.82120    1.000
    H157     H        0.34660    0.47650    0.08320    1.000
    H158     H        0.12080    0.41550    0.47850    1.000
    H159     H        0.27840    0.41800    0.53140    1.000
    H160     H        0.35210    0.60650    0.02870    1.000
    C111     C        0.31790    0.07620    0.32020    1.000
    C112     C        0.25630    0.81820    0.15450    1.000
    C113     C        0.38050    0.45933    0.55753    1.000
    C114     C        0.49740    0.48400    0.91501    1.000
    C115     C        0.00260    0.48400    0.58499    1.000
    C116     C        0.11950    0.45933    0.94247    1.000
    C117     C        0.24250    0.72270    0.12840    1.000
    C118     C        0.31865    0.49971    0.99965    1.000
    C119     C        0.83280    0.45830    0.67826    1.000
    C120     C        0.37950    0.44686    0.00171    1.000
    C121     C        0.66720    0.54170    0.67826    1.000
    C122     C        0.05870    0.51220    0.94453    1.000
    C123     C        0.38050    0.54067    0.94247    1.000
    C124     C        0.19210    0.87460    0.20740    1.000
    C125     C        0.05870    0.48780    0.55547    1.000
    C126     C        0.30630    0.44110    0.08060    1.000
    C127     C        0.94160    0.50500    0.64796    1.000
    C128     C        0.30710    0.82060    0.31860    1.000
    C129     C        0.31430    0.33532    0.42724    1.000
    C130     C        0.44130    0.51220    0.55547    1.000
    C131     C        0.21800    0.23060    0.12600    1.000
    C132     C        0.12050    0.55314    0.00171    1.000
    C133     C        0.44080    0.44091    0.97415    1.000
    C134     C        0.18090    0.54662    0.52997    1.000
    C135     C        0.24370    0.81820    0.34550    1.000
    C136     C        0.30480    0.61490    0.39459    1.000
    C137     C        0.55230    0.45090    0.67842    1.000
    C138     C        0.24250    0.27730    0.37160    1.000
    C139     C        0.31910    0.45338    0.52997    1.000
    C140     C        0.94770    0.54910    0.67842    1.000
    C141     C        0.28200    0.76940    0.12600    1.000
    C142     C        0.31280    0.39140    0.45205    1.000
    C143     C        0.25750    0.72270    0.37160    1.000
    C144     C        0.55840    0.50500    0.85204    1.000
    C145     C        0.19520    0.38510    0.39459    1.000
    C146     C        0.18720    0.39140    0.04795    1.000
    C147     C        0.89390    0.54320    0.70772    1.000
    C148     C        0.24750    0.44426    0.05187    1.000
    C149     C        0.83280    0.54170    0.82174    1.000
    C150     C        0.44130    0.48780    0.94453    1.000
    C151     C        0.88520    0.53840    0.85190    1.000
    C152     C        0.12050    0.44686    0.49829    1.000
    C153     C        0.30790    0.87460    0.29260    1.000
    C154     C        0.18570    0.33532    0.07276    1.000
    C155     C        0.30710    0.17940    0.18140    1.000
    C156     C        0.00260    0.51600    0.91501    1.000
    C157     C        0.49830    0.51250    0.88254    1.000
    C158     C        0.19520    0.61490    0.10541    1.000
    C159     C        0.25560    0.33220    0.39851    1.000
    C160     C        0.18135    0.49971    0.50035    1.000
    C161     C        0.94160    0.49500    0.85204    1.000
    C162     C        0.25750    0.27730    0.12840    1.000
    C163     C        0.25000    0.50000    0.47447    1.000
    C164     C        0.37950    0.55314    0.49829    1.000
    C165     C        0.75000    0.64220    0.75000    1.000
    C166     C        0.24440    0.33220    0.10149    1.000
    C167     C        0.11950    0.54067    0.55753    1.000
    C168     C        0.28200    0.23060    0.37400    1.000
    C169     C        0.19370    0.55890    0.08060    1.000
    C170     C        0.75000    0.35780    0.75000    1.000
    C171     C        0.49740    0.51600    0.58499    1.000
    C172     C        0.05920    0.55909    0.97415    1.000
    C173     C        0.18135    0.50029    0.99965    1.000
    C174     C        0.31865    0.50029    0.50035    1.000
    C175     C        0.19370    0.44110    0.41940    1.000
    C176     C        0.89390    0.45680    0.79228    1.000
    C177     C        0.24750    0.55574    0.44813    1.000
    C178     C        0.31880    0.86980    0.15380    1.000
    C179     C        0.07100    0.00000    0.25000    1.000
    C180     C        0.18570    0.66468    0.42724    1.000
    C181     C        0.18210    0.92380    0.32020    1.000
    C182     C        0.18120    0.86980    0.34620    1.000
    C183     C        0.61480    0.46160    0.85190    1.000
    C184     C        0.00170    0.48750    0.88254    1.000
    C185     C        0.18120    0.13020    0.15380    1.000
    C186     C        0.05920    0.44091    0.52585    1.000
    C187     C        0.19290    0.17940    0.31860    1.000
    C188     C        0.31280    0.60860    0.04795    1.000
    C189     C        0.44080    0.55909    0.52585    1.000
    C190     C        0.55230    0.54910    0.82158    1.000
    C191     C        0.25250    0.55574    0.05187    1.000
    C192     C        0.24440    0.66780    0.39851    1.000
    C193     C        0.25630    0.18180    0.34550    1.000
    C194     C        0.19210    0.12540    0.29260    1.000
    C195     C        0.19290    0.82060    0.18140    1.000
    C196     C        0.31790    0.92380    0.17980    1.000
    C197     C        0.25000    0.50000    0.02553    1.000
    C198     C        0.42900    0.00000    0.25000    1.000
    C199     C        0.25250    0.44426    0.44813    1.000
    C200     C        0.30790    0.12540    0.20740    1.000
    C201     C        0.61480    0.53840    0.64810    1.000
    C202     C        0.60610    0.54320    0.79228    1.000
    C203     C        0.25560    0.66780    0.10149    1.000
    C204     C        0.55840    0.49500    0.64796    1.000
    C205     C        0.30630    0.55890    0.41940    1.000
    C206     C        0.00170    0.51250    0.61746    1.000
    C207     C        0.94770    0.45090    0.82158    1.000
    C208     C        0.31880    0.13020    0.34620    1.000
    C209     C        0.31430    0.66468    0.07276    1.000
    C210     C        0.66720    0.45830    0.82174    1.000
    C211     C        0.49830    0.48750    0.61746    1.000
    C212     C        0.18720    0.60860    0.45205    1.000
    C213     C        0.18090    0.45338    0.97003    1.000
    C214     C        0.21800    0.76940    0.37400    1.000
    C215     C        0.30480    0.38510    0.10541    1.000
    C216     C        0.18210    0.07620    0.17980    1.000
    C217     C        0.31910    0.54662    0.97003    1.000
    C218     C        0.88520    0.46160    0.64810    1.000
    C219     C        0.24370    0.18180    0.15450    1.000
    C220     C        0.60610    0.45680    0.70772    1.000
    N13      N        0.66270    0.49990    0.79195    1.000
    N14      N        0.66270    0.50010    0.70805    1.000
    N15      N        0.13290    0.00000    0.25000    1.000
    N16      N        0.24540    0.92620    0.29336    1.000
    N17      N        0.75000    0.59630    0.75000    1.000
    N18      N        0.24540    0.07380    0.20664    1.000
    N19      N        0.75000    0.40370    0.75000    1.000
    N20      N        0.25460    0.92620    0.20664    1.000
    N21      N        0.36710    0.00000    0.25000    1.000
    N22      N        0.83730    0.49990    0.70805    1.000
    N23      N        0.83730    0.50010    0.79195    1.000
    N24      N        0.25460    0.07380    0.29336    1.000
