data_functionalizedCrystal
_audit_creation_method	'EQeq! by Chris Wilmer'
_symmetry_space_group_name_H-M	'P1'
_symmetry_Int_Tables_number	1
_symmetry_cell_setting	triclinic
loop_
_symmetry_equiv_pos_as_xyz
  x,y,z
_cell_length_a	6.822
_cell_length_b	9.97
_cell_length_c	10.9102
_cell_angle_alpha	90
_cell_angle_beta	90
_cell_angle_gamma	90
loop_
_atom_site_label
_atom_site_type_symbol
_atom_site_fract_x
_atom_site_fract_y
_atom_site_fract_z
_atom_site_charge
Mof_Co	Co	0.14164	0.70302	0.29004	1.167
Mof_Co	Co	0.35836	0.29698	0.79004	1.168
Mof_Co	Co	0.85836	0.20302	0.20996	1.168
Mof_Co	Co	0.64164	0.79698	0.70996	1.169
Mof_H 	H 	0.626	0.625	0.4206	0.2
Mof_H 	H 	0.47	0.586	0.509	0.164
Mof_H 	H 	0.451	0.397	0.3102	0.133
Mof_H 	H 	0.336	0.418	0.4286	0.121
Mof_H 	H 	0.874	0.375	0.9206	0.192
Mof_H 	H 	0.03	0.414	0.009	0.157
Mof_H 	H 	0.049	0.603	0.8102	0.134
Mof_H 	H 	0.164	0.582	0.9286	0.122
Mof_H 	H 	0.374	0.125	0.0794	0.198
Mof_H 	H 	0.53	0.086	0.991	0.159
Mof_H 	H 	0.549	0.897	0.1898	0.133
Mof_H 	H 	0.664	0.918	0.0714	0.121
Mof_H 	H 	0.126	0.875	0.5794	0.2
Mof_H 	H 	0.97	0.914	0.491	0.164
Mof_H 	H 	0.951	0.103	0.6898	0.133
Mof_H 	H 	0.836	0.082	0.5714	0.121
Mof_C 	C 	0.4544	0.7833	0.44811	0.433
Mof_C 	C 	0.4995	0.63475	0.43512	-0.417
Mof_C 	C 	0.3413	0.44302	0.34464	-0.294
Mof_C 	C 	0.1502	0.41557	0.27613	0.405
Mof_C 	C 	0.0456	0.2167	0.94811	0.427
Mof_C 	C 	0.0005	0.36525	0.93512	-0.399
Mof_C 	C 	0.1587	0.55698	0.84464	-0.292
Mof_C 	C 	0.3498	0.58443	0.77613	0.404
Mof_C 	C 	0.5456	0.2833	0.05189	0.431
Mof_C 	C 	0.5005	0.13475	0.06488	-0.409
Mof_C 	C 	0.6587	0.94302	0.15536	-0.294
Mof_C 	C 	0.8498	0.91557	0.22387	0.404
Mof_C 	C 	0.9544	0.7167	0.55189	0.433
Mof_C 	C 	0.9995	0.86525	0.56488	-0.417
Mof_C 	C 	0.8413	0.05698	0.65536	-0.295
Mof_C 	C 	0.6502	0.08443	0.72387	0.402
Mof_O 	O 	0.33669	0.83676	0.37259	-0.43
Mof_O 	O 	0.53659	0.84711	0.53243	-0.419
Mof_O 	O 	0.04806	0.51017	0.23843	-0.441
Mof_O 	O 	0.11078	0.29178	0.26394	-0.447
Mof_O 	O 	0.38461	0.58238	0.33661	-0.177
Mof_O 	O 	0.16331	0.16324	0.87259	-0.429
Mof_O 	O 	0.96341	0.15289	0.03243	-0.415
Mof_O 	O 	0.45194	0.48983	0.73843	-0.441
Mof_O 	O 	0.38922	0.70822	0.76394	-0.446
Mof_O 	O 	0.11539	0.41762	0.83661	-0.18
Mof_O 	O 	0.66331	0.33676	0.12741	-0.429
Mof_O 	O 	0.46341	0.34711	0.96757	-0.419
Mof_O 	O 	0.95194	0.01017	0.26157	-0.44
Mof_O 	O 	0.88922	0.79178	0.23606	-0.446
Mof_O 	O 	0.61539	0.08238	0.16339	-0.178
Mof_O 	O 	0.83669	0.66324	0.62741	-0.43
Mof_O 	O 	0.03659	0.65289	0.46757	-0.419
Mof_O 	O 	0.54806	0.98983	0.76157	-0.438
Mof_O 	O 	0.61078	0.20822	0.73606	-0.446
Mof_O 	O 	0.88461	0.91762	0.66339	-0.176
_end
