data_functionalizedCrystal
_audit_creation_method	'EQeq! by Chris Wilmer'
_symmetry_space_group_name_H-M	'P1'
_symmetry_Int_Tables_number	1
_symmetry_cell_setting	triclinic
loop_
_symmetry_equiv_pos_as_xyz
  x,y,z
_cell_length_a	14.5286
_cell_length_b	20.8778
_cell_length_c	22.757
_cell_angle_alpha	90
_cell_angle_beta	90
_cell_angle_gamma	90
loop_
_atom_site_label
_atom_site_type_symbol
_atom_site_fract_x
_atom_site_fract_y
_atom_site_fract_z
_atom_site_charge
Mof_C 	C 	0.3923	0.8266	0.45847	0.258
Mof_C 	C 	0.4743	0.794	0.42732	0.274
Mof_C 	C 	0.6372	0.7956	0.5885	0.259
Mof_C 	C 	0.7116	0.8376	0.5592	0.274
Mof_C 	C 	0.5188	0.9956	0.54612	0.282
Mof_C 	C 	0.5251	0.9971	0.47811	0.269
Mof_C 	C 	0.5541	0.2188	0.42924	0.278
Mof_C 	C 	0.6422	0.1883	0.45803	0.281
Mof_C 	C 	0.3082	0.1562	0.55868	0.28
Mof_C 	C 	0.3758	0.1946	0.59687	0.248
Mof_C 	C 	0.3086	0.722	0.2421	0.271
Mof_C 	C 	0.3144	0.7962	0.2468	0.269
Mof_O 	O 	0.41253	0.86229	0.5023	-0.49
Mof_O 	O 	0.553	0.80942	0.44755	-0.502
Mof_O 	O 	0.3143	0.81636	0.44048	-0.288
Mof_O 	O 	0.45841	0.7568	0.38658	-0.295
Mof_O 	O 	0.5553	0.80572	0.57218	-0.5
Mof_O 	O 	0.68139	0.876	0.52115	-0.502
Mof_O 	O 	0.66248	0.75424	0.62517	-0.281
Mof_O 	O 	0.7932	0.83097	0.57392	-0.286
Mof_O 	O 	0.53077	0.94133	0.56918	-0.507
Mof_O 	O 	0.5445	0.94393	0.45464	-0.494
Mof_O 	O 	0.5046	0.04616	0.57208	-0.299
Mof_O 	O 	0.5087	0.04788	0.45276	-0.289
Mof_O 	O 	0.4794	0.20176	0.44713	-0.302
Mof_O 	O 	0.63207	0.15225	0.49945	-0.304
Mof_O 	O 	0.57157	0.25941	0.38855	-0.496
Mof_O 	O 	0.71796	0.20499	0.43452	-0.496
Mof_O 	O 	0.33965	0.12261	0.51977	-0.298
Mof_O 	O 	0.4593	0.19012	0.58782	-0.289
Mof_O 	O 	0.2236	0.16331	0.57215	-0.496
Mof_O 	O 	0.33852	0.2288	0.63803	-0.483
Mof_O 	O 	0.3099	0.69056	0.28787	-0.298
Mof_O 	O 	0.3183	0.82117	0.29532	-0.297
Mof_O 	O 	0.3048	0.69991	0.19041	-0.493
Mof_O 	O 	0.3137	0.8253	0.19742	-0.497
Mof_Cr	Cr	0.29614	0.76762	0.12993	2.13
Mof_Cr	Cr	0.54697	0.87224	0.51162	2.152
Mof_Mn	Mn	0.48872	0.12838	0.51468	0.981
Mof_Mn	Mn	0.31256	0.75019	0.3653	0.97
Mof_C 	C 	0.1077	0.1734	0.95847	0.256
Mof_C 	C 	0.0257	0.206	0.92732	0.275
Mof_C 	C 	0.8628	0.2044	0.0885	0.26
Mof_C 	C 	0.7884	0.1624	0.0592	0.275
Mof_C 	C 	0.9812	0.0044	0.04612	0.281
Mof_C 	C 	0.9749	0.0029	0.97811	0.269
Mof_C 	C 	0.9459	0.7812	0.92924	0.282
Mof_C 	C 	0.8578	0.8117	0.95803	0.28
Mof_C 	C 	0.1918	0.8438	0.05868	0.28
Mof_C 	C 	0.1242	0.8054	0.09687	0.248
Mof_C 	C 	0.1914	0.278	0.7421	0.271
Mof_C 	C 	0.1856	0.2038	0.7468	0.269
Mof_O 	O 	0.08747	0.13771	0.0023	-0.485
Mof_O 	O 	0.947	0.19058	0.94755	-0.501
Mof_O 	O 	0.1857	0.18364	0.94048	-0.287
Mof_O 	O 	0.04159	0.2432	0.88658	-0.295
Mof_O 	O 	0.9447	0.19428	0.07218	-0.5
Mof_O 	O 	0.81861	0.124	0.02115	-0.502
Mof_O 	O 	0.83752	0.24576	0.12517	-0.281
Mof_O 	O 	0.7068	0.16903	0.07392	-0.286
Mof_O 	O 	0.96923	0.05867	0.06918	-0.506
Mof_O 	O 	0.9555	0.05607	0.95464	-0.494
Mof_O 	O 	0.9954	0.95384	0.07208	-0.299
Mof_O 	O 	0.9913	0.95212	0.95276	-0.289
Mof_O 	O 	0.0206	0.79824	0.94713	-0.306
Mof_O 	O 	0.86793	0.84775	0.99945	-0.303
Mof_O 	O 	0.92843	0.74059	0.88855	-0.497
Mof_O 	O 	0.78204	0.79501	0.93452	-0.496
Mof_O 	O 	0.16035	0.87739	0.01977	-0.298
Mof_O 	O 	0.0407	0.80988	0.08782	-0.288
Mof_O 	O 	0.2764	0.83669	0.07215	-0.496
Mof_O 	O 	0.16148	0.7712	0.13803	-0.483
Mof_O 	O 	0.1901	0.30944	0.78787	-0.298
Mof_O 	O 	0.1817	0.17883	0.79532	-0.297
Mof_O 	O 	0.1952	0.30009	0.69041	-0.493
Mof_O 	O 	0.1863	0.1747	0.69742	-0.497
Mof_Cr	Cr	0.20386	0.23238	0.62993	2.13
Mof_Cr	Cr	0.95303	0.12776	0.01162	2.148
Mof_Mn	Mn	0.01128	0.87162	0.01468	0.983
Mof_Mn	Mn	0.18744	0.24981	0.8653	0.97
Mof_C 	C 	0.6077	0.3266	0.04153	0.26
Mof_C 	C 	0.5257	0.294	0.07268	0.274
Mof_C 	C 	0.3628	0.2956	0.9115	0.26
Mof_C 	C 	0.2884	0.3376	0.9408	0.275
Mof_C 	C 	0.4812	0.4956	0.95388	0.283
Mof_C 	C 	0.4749	0.4971	0.02189	0.271
Mof_C 	C 	0.4459	0.7188	0.07076	0.278
Mof_C 	C 	0.3578	0.6883	0.04197	0.281
Mof_C 	C 	0.6918	0.6562	0.94132	0.28
Mof_C 	C 	0.6242	0.6946	0.90313	0.248
Mof_C 	C 	0.6914	0.222	0.2579	0.271
Mof_C 	C 	0.6856	0.2962	0.2532	0.269
Mof_O 	O 	0.58747	0.36229	0.9977	-0.49
Mof_O 	O 	0.447	0.30942	0.05245	-0.501
Mof_O 	O 	0.6857	0.31636	0.05952	-0.288
Mof_O 	O 	0.54159	0.2568	0.11342	-0.294
Mof_O 	O 	0.4447	0.30572	0.92782	-0.499
Mof_O 	O 	0.31861	0.376	0.97885	-0.502
Mof_O 	O 	0.33752	0.25424	0.87483	-0.281
Mof_O 	O 	0.2068	0.33097	0.92608	-0.287
Mof_O 	O 	0.46923	0.44133	0.93082	-0.506
Mof_O 	O 	0.4555	0.44393	0.04536	-0.493
Mof_O 	O 	0.4954	0.54616	0.92792	-0.3
Mof_O 	O 	0.4913	0.54788	0.04724	-0.289
Mof_O 	O 	0.5206	0.70176	0.05287	-0.301
Mof_O 	O 	0.36793	0.65225	0.00055	-0.302
Mof_O 	O 	0.42843	0.75941	0.11145	-0.496
Mof_O 	O 	0.28204	0.70499	0.06548	-0.495
Mof_O 	O 	0.66035	0.62261	0.98023	-0.298
Mof_O 	O 	0.5407	0.69012	0.91218	-0.289
Mof_O 	O 	0.7764	0.66331	0.92785	-0.496
Mof_O 	O 	0.66148	0.7288	0.86197	-0.484
Mof_O 	O 	0.6901	0.19056	0.21213	-0.298
Mof_O 	O 	0.6817	0.32117	0.20468	-0.297
Mof_O 	O 	0.6952	0.19991	0.30959	-0.493
Mof_O 	O 	0.6863	0.3253	0.30258	-0.497
Mof_Cr	Cr	0.70386	0.26762	0.37007	2.13
Mof_Cr	Cr	0.45303	0.37224	0.98838	2.15
Mof_Mn	Mn	0.51128	0.62838	0.98532	0.98
Mof_Mn	Mn	0.68744	0.25019	0.1347	0.97
Mof_C 	C 	0.8923	0.6734	0.54153	0.259
Mof_C 	C 	0.9743	0.706	0.57268	0.276
Mof_C 	C 	0.1372	0.7044	0.4115	0.26
Mof_C 	C 	0.2116	0.6624	0.4408	0.275
Mof_C 	C 	0.0188	0.5044	0.45388	0.284
Mof_C 	C 	0.0251	0.5029	0.52189	0.27
Mof_C 	C 	0.0541	0.2812	0.57076	0.279
Mof_C 	C 	0.1422	0.3117	0.54197	0.28
Mof_C 	C 	0.8082	0.3438	0.44132	0.28
Mof_C 	C 	0.8758	0.3054	0.40313	0.248
Mof_C 	C 	0.8086	0.778	0.7579	0.271
Mof_C 	C 	0.8144	0.7038	0.7532	0.269
Mof_O 	O 	0.91253	0.63771	0.4977	-0.49
Mof_O 	O 	0.053	0.69058	0.55245	-0.503
Mof_O 	O 	0.8143	0.68364	0.55952	-0.288
Mof_O 	O 	0.95841	0.7432	0.61342	-0.295
Mof_O 	O 	0.0553	0.69428	0.42782	-0.5
Mof_O 	O 	0.18139	0.624	0.47885	-0.502
Mof_O 	O 	0.16248	0.74576	0.37483	-0.281
Mof_O 	O 	0.2932	0.66903	0.42608	-0.286
Mof_O 	O 	0.03077	0.55867	0.43082	-0.506
Mof_O 	O 	0.0445	0.55607	0.54536	-0.494
Mof_O 	O 	0.0046	0.45384	0.42792	-0.299
Mof_O 	O 	0.0087	0.45212	0.54724	-0.289
Mof_O 	O 	0.9794	0.29824	0.55287	-0.303
Mof_O 	O 	0.13207	0.34775	0.50055	-0.303
Mof_O 	O 	0.07157	0.24059	0.61145	-0.496
Mof_O 	O 	0.21796	0.29501	0.56548	-0.496
Mof_O 	O 	0.83965	0.37739	0.48023	-0.298
Mof_O 	O 	0.9593	0.30988	0.41218	-0.289
Mof_O 	O 	0.7236	0.33669	0.42785	-0.496
Mof_O 	O 	0.83852	0.2712	0.36197	-0.484
Mof_O 	O 	0.8099	0.80944	0.71213	-0.298
Mof_O 	O 	0.8183	0.67883	0.70468	-0.297
Mof_O 	O 	0.8048	0.80009	0.80959	-0.493
Mof_O 	O 	0.8137	0.6747	0.80258	-0.497
Mof_Cr	Cr	0.79614	0.73238	0.87007	2.131
Mof_Cr	Cr	0.04697	0.62776	0.48838	2.152
Mof_Mn	Mn	0.98872	0.37162	0.48532	0.981
Mof_Mn	Mn	0.81256	0.74981	0.6347	0.97
_end
