data_functionalizedCrystal
_audit_creation_method	'EQeq! by Chris Wilmer'
_symmetry_space_group_name_H-M	'P1'
_symmetry_Int_Tables_number	1
_symmetry_cell_setting	triclinic
loop_
_symmetry_equiv_pos_as_xyz
  x,y,z
_cell_length_a	17.0778
_cell_length_b	16.9284
_cell_length_c	20.3385
_cell_angle_alpha	90
_cell_angle_beta	108.115
_cell_angle_gamma	90
loop_
_atom_site_label
_atom_site_type_symbol
_atom_site_fract_x
_atom_site_fract_y
_atom_site_fract_z
_atom_site_charge
Mof_Tb	Tb	0.49445	0.06205	0.58235	1.914
Mof_C 	C 	0.5122	0.3085	0.6385	-0.015
Mof_C 	C 	0.4407	0.3528	0.6247	-0.076
Mof_H 	H 	0.3898	0.3309	0.601	0.068
Mof_C 	C 	0.4469	0.4307	0.6471	0.039
Mof_C 	C 	0.588	0.4207	0.6943	0.054
Mof_H 	H 	0.6385	0.4436	0.718	-0.006
Mof_C 	C 	0.5874	0.3437	0.6715	-0.088
Mof_H 	H 	0.6363	0.3161	0.6783	0.066
Mof_C 	C 	0.374	0.4823	0.6338	0.021
Mof_C 	C 	0.3011	0.4675	0.5813	-0.038
Mof_H 	H 	0.2962	0.4236	0.5528	0.052
Mof_C 	C 	0.236	0.5191	0.5721	-0.093
Mof_C 	C 	0.245	0.5866	0.6128	-0.048
Mof_H 	H 	0.2024	0.623	0.606	0.033
Mof_C 	C 	0.3188	0.5978	0.6633	0.022
Mof_H 	H 	0.3257	0.6427	0.6909	0.003
Mof_C 	C 	0.5479	0.6528	0.6368	0.024
Mof_H 	H 	0.5607	0.6038	0.6222	0.006
Mof_C 	C 	0.5493	0.7181	0.5966	-0.031
Mof_H 	H 	0.5626	0.7131	0.5558	0.053
Mof_C 	C 	0.5303	0.7921	0.6187	-0.104
Mof_C 	C 	0.5119	0.7962	0.6813	-0.024
Mof_H 	H 	0.5007	0.8445	0.698	0.026
Mof_C 	C 	0.5108	0.7277	0.7175	0.019
Mof_C 	C 	0.5281	0.8661	0.5772	0.465
Mof_C 	C 	0.1539	0.5001	0.5184	0.412
Mof_C 	C 	0.5082	0.2226	0.6186	0.29
Mof_N 	N 	0.5194	0.464	0.684	-0.233
Mof_N 	N 	0.3818	0.5466	0.6747	-0.236
Mof_N 	N 	0.5288	0.6566	0.6959	-0.238
Mof_O 	O 	0.5706	0.1893	0.6112	-0.42
Mof_O 	O 	0.4415	0.1862	0.6107	-0.433
Mof_O 	O 	0.1535	0.4576	0.4667	-0.452
Mof_O 	O 	0.0892	0.5265	0.5258	-0.611
Mof_O 	O 	0.5113	0.9278	0.6043	-0.556
Mof_O 	O 	0.5409	0.8607	0.5198	-0.48
Mof_Tb	Tb	0.99445	0.56205	0.58235	2.014
Mof_C 	C 	0.0122	0.8085	0.6385	-0.059
Mof_C 	C 	0.9407	0.8528	0.6247	-0.029
Mof_H 	H 	0.8898	0.8309	0.601	0.056
Mof_C 	C 	0.9469	0.9307	0.6471	0.056
Mof_C 	C 	0.088	0.9207	0.6943	0.039
Mof_H 	H 	0.1385	0.9436	0.718	-0.002
Mof_C 	C 	0.0874	0.8437	0.6715	-0.073
Mof_H 	H 	0.1363	0.8161	0.6783	0.058
Mof_C 	C 	0.874	0.9823	0.6338	0.025
Mof_C 	C 	0.8011	0.9675	0.5813	-0.04
Mof_H 	H 	0.7962	0.9236	0.5528	0.054
Mof_C 	C 	0.736	0.0191	0.5721	-0.084
Mof_C 	C 	0.745	0.0866	0.6128	-0.051
Mof_H 	H 	0.7024	0.123	0.606	0.04
Mof_C 	C 	0.8188	0.0978	0.6633	0.029
Mof_H 	H 	0.8257	0.1427	0.6909	0.006
Mof_C 	C 	0.0479	0.1528	0.6368	0.011
Mof_H 	H 	0.0607	0.1038	0.6222	0.005
Mof_C 	C 	0.0493	0.2181	0.5966	-0.021
Mof_H 	H 	0.0626	0.2131	0.5558	0.045
Mof_C 	C 	0.0303	0.2921	0.6187	-0.126
Mof_C 	C 	0.0119	0.2962	0.6813	0.005
Mof_H 	H 	0.0007	0.3445	0.698	0.002
Mof_C 	C 	0.0108	0.2277	0.7175	-0.038
Mof_C 	C 	0.0281	0.3661	0.5772	0.473
Mof_C 	C 	0.6539	0.0001	0.5184	0.405
Mof_C 	C 	0.0082	0.7226	0.6186	0.257
Mof_N 	N 	0.0194	0.964	0.684	-0.249
Mof_N 	N 	0.8818	0.0466	0.6747	-0.229
Mof_N 	N 	0.0288	0.1566	0.6959	-0.234
Mof_O 	O 	0.0706	0.6893	0.6112	-0.434
Mof_O 	O 	0.9415	0.6862	0.6107	-0.411
Mof_O 	O 	0.6535	0.9576	0.4667	-0.453
Mof_O 	O 	0.5892	0.0265	0.5258	-0.588
Mof_O 	O 	0.0113	0.4278	0.6043	-0.586
Mof_O 	O 	0.0409	0.3607	0.5198	-0.484
Mof_Tb	Tb	0.50555	0.06205	0.91765	1.906
Mof_C 	C 	0.4878	0.3085	0.8615	-0.017
Mof_C 	C 	0.5593	0.3528	0.8753	-0.077
Mof_H 	H 	0.6102	0.3309	0.899	0.068
Mof_C 	C 	0.5531	0.4307	0.8529	0.038
Mof_C 	C 	0.412	0.4207	0.8057	0.053
Mof_H 	H 	0.3615	0.4436	0.782	-0.008
Mof_C 	C 	0.4126	0.3437	0.8285	-0.088
Mof_H 	H 	0.3637	0.3161	0.8217	0.064
Mof_C 	C 	0.626	0.4823	0.8662	0.025
Mof_C 	C 	0.6989	0.4675	0.9187	-0.045
Mof_H 	H 	0.7038	0.4236	0.9472	0.055
Mof_C 	C 	0.764	0.5191	0.9279	-0.077
Mof_C 	C 	0.755	0.5866	0.8872	-0.056
Mof_H 	H 	0.7976	0.623	0.894	0.046
Mof_C 	C 	0.6812	0.5978	0.8367	0.03
Mof_H 	H 	0.6743	0.6427	0.8091	0.002
Mof_C 	C 	0.4521	0.6528	0.8632	0.024
Mof_H 	H 	0.4393	0.6038	0.8778	0.005
Mof_C 	C 	0.4507	0.7181	0.9034	-0.031
Mof_H 	H 	0.4374	0.7131	0.9442	0.053
Mof_C 	C 	0.4697	0.7921	0.8813	-0.104
Mof_C 	C 	0.4881	0.7962	0.8187	-0.024
Mof_H 	H 	0.4993	0.8445	0.802	0.026
Mof_C 	C 	0.4892	0.7277	0.7825	0.019
Mof_C 	C 	0.4719	0.8661	0.9228	0.465
Mof_C 	C 	0.8461	0.5001	0.9816	0.397
Mof_C 	C 	0.4918	0.2226	0.8814	0.29
Mof_N 	N 	0.4806	0.464	0.816	-0.233
Mof_N 	N 	0.6182	0.5466	0.8253	-0.237
Mof_N 	N 	0.4712	0.6566	0.8041	-0.238
Mof_O 	O 	0.4294	0.1893	0.8888	-0.422
Mof_O 	O 	0.5585	0.1862	0.8893	-0.433
Mof_O 	O 	0.8465	0.4576	0.0333	-0.457
Mof_O 	O 	0.9108	0.5265	0.9742	-0.563
Mof_O 	O 	0.4887	0.9278	0.8957	-0.553
Mof_O 	O 	0.4591	0.8607	0.9802	-0.479
Mof_Tb	Tb	0.00555	0.56205	0.91765	1.803
Mof_C 	C 	0.9878	0.8085	0.8615	0.031
Mof_C 	C 	0.0593	0.8528	0.8753	-0.129
Mof_H 	H 	0.1102	0.8309	0.899	0.081
Mof_C 	C 	0.0531	0.9307	0.8529	0.023
Mof_C 	C 	0.912	0.9207	0.8057	0.07
Mof_H 	H 	0.8615	0.9436	0.782	-0.01
Mof_C 	C 	0.9126	0.8437	0.8285	-0.104
Mof_H 	H 	0.8637	0.8161	0.8217	0.073
Mof_C 	C 	0.126	0.9823	0.8662	0.022
Mof_C 	C 	0.1989	0.9675	0.9187	-0.038
Mof_H 	H 	0.2038	0.9236	0.9472	0.051
Mof_C 	C 	0.264	0.0191	0.9279	-0.091
Mof_C 	C 	0.255	0.0866	0.8872	-0.052
Mof_H 	H 	0.2976	0.123	0.894	0.037
Mof_C 	C 	0.1812	0.0978	0.8367	0.021
Mof_H 	H 	0.1743	0.1427	0.8091	0
Mof_C 	C 	0.9521	0.1528	0.8632	0.036
Mof_H 	H 	0.9393	0.1038	0.8778	0.008
Mof_C 	C 	0.9507	0.2181	0.9034	-0.041
Mof_H 	H 	0.9374	0.2131	0.9442	0.062
Mof_C 	C 	0.9697	0.2921	0.8813	-0.082
Mof_C 	C 	0.9881	0.2962	0.8187	-0.052
Mof_H 	H 	0.9993	0.3445	0.802	0.05
Mof_C 	C 	0.9892	0.2277	0.7825	0.076
Mof_C 	C 	0.9719	0.3661	0.9228	0.458
Mof_C 	C 	0.3461	0.0001	0.9816	0.399
Mof_C 	C 	0.9918	0.7226	0.8814	0.327
Mof_N 	N 	0.9806	0.964	0.816	-0.211
Mof_N 	N 	0.1182	0.0466	0.8253	-0.243
Mof_N 	N 	0.9712	0.1566	0.8041	-0.239
Mof_O 	O 	0.9294	0.6893	0.8888	-0.407
Mof_O 	O 	0.0585	0.6862	0.8893	-0.456
Mof_O 	O 	0.3465	0.9576	0.0333	-0.452
Mof_O 	O 	0.4108	0.0265	0.9742	-0.588
Mof_O 	O 	0.9887	0.4278	0.8957	-0.524
Mof_O 	O 	0.9591	0.3607	0.9802	-0.475
Mof_Tb	Tb	0.50555	0.93795	0.41765	1.912
Mof_C 	C 	0.4878	0.6915	0.3615	-0.017
Mof_C 	C 	0.5593	0.6472	0.3753	-0.077
Mof_H 	H 	0.6102	0.6691	0.399	0.068
Mof_C 	C 	0.5531	0.5693	0.3529	0.038
Mof_C 	C 	0.412	0.5793	0.3057	0.054
Mof_H 	H 	0.3615	0.5564	0.282	-0.008
Mof_C 	C 	0.4126	0.6563	0.3285	-0.088
Mof_H 	H 	0.3637	0.6839	0.3217	0.064
Mof_C 	C 	0.626	0.5177	0.3662	0.025
Mof_C 	C 	0.6989	0.5325	0.4187	-0.045
Mof_H 	H 	0.7038	0.5764	0.4472	0.055
Mof_C 	C 	0.764	0.4809	0.4279	-0.077
Mof_C 	C 	0.755	0.4134	0.3872	-0.056
Mof_H 	H 	0.7976	0.377	0.394	0.045
Mof_C 	C 	0.6812	0.4022	0.3367	0.03
Mof_H 	H 	0.6743	0.3573	0.3091	0.002
Mof_C 	C 	0.4521	0.3472	0.3632	0.024
Mof_H 	H 	0.4393	0.3962	0.3778	0.006
Mof_C 	C 	0.4507	0.2819	0.4034	-0.031
Mof_H 	H 	0.4374	0.2869	0.4442	0.053
Mof_C 	C 	0.4697	0.2079	0.3813	-0.104
Mof_C 	C 	0.4881	0.2038	0.3187	-0.023
Mof_H 	H 	0.4993	0.1555	0.302	0.026
Mof_C 	C 	0.4892	0.2723	0.2825	0.019
Mof_C 	C 	0.4719	0.1339	0.4228	0.466
Mof_C 	C 	0.8461	0.4999	0.4816	0.397
Mof_C 	C 	0.4918	0.7774	0.3814	0.29
Mof_N 	N 	0.4806	0.536	0.316	-0.233
Mof_N 	N 	0.6182	0.4534	0.3253	-0.237
Mof_N 	N 	0.4712	0.3434	0.3041	-0.238
Mof_O 	O 	0.4294	0.8107	0.3888	-0.421
Mof_O 	O 	0.5585	0.8138	0.3893	-0.433
Mof_O 	O 	0.8465	0.5424	0.5333	-0.457
Mof_O 	O 	0.9108	0.4735	0.4742	-0.567
Mof_O 	O 	0.4887	0.0722	0.3957	-0.555
Mof_O 	O 	0.4591	0.1393	0.4802	-0.48
Mof_Tb	Tb	0.00555	0.43795	0.41765	1.824
Mof_C 	C 	0.9878	0.1915	0.3615	0.026
Mof_C 	C 	0.0593	0.1472	0.3753	-0.123
Mof_H 	H 	0.1102	0.1691	0.399	0.08
Mof_C 	C 	0.0531	0.0693	0.3529	0.024
Mof_C 	C 	0.912	0.0793	0.3057	0.069
Mof_H 	H 	0.8615	0.0564	0.282	-0.009
Mof_C 	C 	0.9126	0.1563	0.3285	-0.102
Mof_H 	H 	0.8637	0.1839	0.3217	0.072
Mof_C 	C 	0.126	0.0177	0.3662	0.022
Mof_C 	C 	0.1989	0.0325	0.4187	-0.042
Mof_H 	H 	0.2038	0.0764	0.4472	0.053
Mof_C 	C 	0.264	0.9809	0.4279	-0.086
Mof_C 	C 	0.255	0.9134	0.3872	-0.053
Mof_H 	H 	0.2976	0.877	0.394	0.038
Mof_C 	C 	0.1812	0.9022	0.3367	0.023
Mof_H 	H 	0.1743	0.8573	0.3091	0
Mof_C 	C 	0.9521	0.8472	0.3632	0.035
Mof_H 	H 	0.9393	0.8962	0.3778	0.008
Mof_C 	C 	0.9507	0.7819	0.4034	-0.039
Mof_H 	H 	0.9374	0.7869	0.4442	0.062
Mof_C 	C 	0.9697	0.7079	0.3813	-0.085
Mof_C 	C 	0.9881	0.7038	0.3187	-0.047
Mof_H 	H 	0.9993	0.6555	0.302	0.047
Mof_C 	C 	0.9892	0.7723	0.2825	0.067
Mof_C 	C 	0.9719	0.6339	0.4228	0.461
Mof_C 	C 	0.3461	0.9999	0.4816	0.404
Mof_C 	C 	0.9918	0.2774	0.3814	0.323
Mof_N 	N 	0.9806	0.036	0.316	-0.214
Mof_N 	N 	0.1182	0.9534	0.3253	-0.242
Mof_N 	N 	0.9712	0.8434	0.3041	-0.238
Mof_O 	O 	0.9294	0.3107	0.3888	-0.409
Mof_O 	O 	0.0585	0.3138	0.3893	-0.453
Mof_O 	O 	0.3465	0.0424	0.5333	-0.455
Mof_O 	O 	0.4108	0.9735	0.4742	-0.588
Mof_O 	O 	0.9887	0.5722	0.3957	-0.529
Mof_O 	O 	0.9591	0.6393	0.4802	-0.477
Mof_Tb	Tb	0.49445	0.93795	0.08235	1.91
Mof_C 	C 	0.5122	0.6915	0.1385	-0.016
Mof_C 	C 	0.4407	0.6472	0.1247	-0.078
Mof_H 	H 	0.3898	0.6691	0.101	0.068
Mof_C 	C 	0.4469	0.5693	0.1471	0.039
Mof_C 	C 	0.588	0.5793	0.1943	0.054
Mof_H 	H 	0.6385	0.5564	0.218	-0.006
Mof_C 	C 	0.5874	0.6563	0.1715	-0.088
Mof_H 	H 	0.6363	0.6839	0.1783	0.066
Mof_C 	C 	0.374	0.5177	0.1338	0.021
Mof_C 	C 	0.3011	0.5325	0.0813	-0.037
Mof_H 	H 	0.2962	0.5764	0.0528	0.053
Mof_C 	C 	0.236	0.4809	0.0721	-0.093
Mof_C 	C 	0.245	0.4134	0.1128	-0.048
Mof_H 	H 	0.2024	0.377	0.106	0.033
Mof_C 	C 	0.3188	0.4022	0.1633	0.022
Mof_H 	H 	0.3257	0.3573	0.1909	0.003
Mof_C 	C 	0.5479	0.3472	0.1368	0.024
Mof_H 	H 	0.5607	0.3962	0.1222	0.006
Mof_C 	C 	0.5493	0.2819	0.0966	-0.031
Mof_H 	H 	0.5626	0.2869	0.0558	0.054
Mof_C 	C 	0.5303	0.2079	0.1187	-0.103
Mof_C 	C 	0.5119	0.2038	0.1813	-0.024
Mof_H 	H 	0.5007	0.1555	0.198	0.026
Mof_C 	C 	0.5108	0.2723	0.2175	0.019
Mof_C 	C 	0.5281	0.1339	0.0772	0.465
Mof_C 	C 	0.1539	0.4999	0.0184	0.417
Mof_C 	C 	0.5082	0.7774	0.1186	0.29
Mof_N 	N 	0.5194	0.536	0.184	-0.233
Mof_N 	N 	0.3818	0.4534	0.1747	-0.236
Mof_N 	N 	0.5288	0.3434	0.1959	-0.238
Mof_O 	O 	0.5706	0.8107	0.1112	-0.42
Mof_O 	O 	0.4415	0.8138	0.1107	-0.433
Mof_O 	O 	0.1535	0.5424	0.9667	-0.456
Mof_O 	O 	0.0892	0.4735	0.0258	-0.606
Mof_O 	O 	0.5113	0.0722	0.1043	-0.553
Mof_O 	O 	0.5409	0.1393	0.0198	-0.476
Mof_Tb	Tb	0.99445	0.43795	0.08235	1.997
Mof_C 	C 	0.0122	0.1915	0.1385	-0.053
Mof_C 	C 	0.9407	0.1472	0.1247	-0.036
Mof_H 	H 	0.8898	0.1691	0.101	0.058
Mof_C 	C 	0.9469	0.0693	0.1471	0.054
Mof_C 	C 	0.088	0.0793	0.1943	0.041
Mof_H 	H 	0.1385	0.0564	0.218	-0.003
Mof_C 	C 	0.0874	0.1563	0.1715	-0.075
Mof_H 	H 	0.1363	0.1839	0.1783	0.06
Mof_C 	C 	0.874	0.0177	0.1338	0.025
Mof_C 	C 	0.8011	0.0325	0.0813	-0.034
Mof_H 	H 	0.7962	0.0764	0.0528	0.053
Mof_C 	C 	0.736	0.9809	0.0721	-0.09
Mof_C 	C 	0.745	0.9134	0.1128	-0.049
Mof_H 	H 	0.7024	0.877	0.106	0.038
Mof_C 	C 	0.8188	0.9022	0.1633	0.026
Mof_H 	H 	0.8257	0.8573	0.1909	0.006
Mof_C 	C 	0.0479	0.8472	0.1368	0.013
Mof_H 	H 	0.0607	0.8962	0.1222	0.004
Mof_C 	C 	0.0493	0.7819	0.0966	-0.023
Mof_H 	H 	0.0626	0.7869	0.0558	0.046
Mof_C 	C 	0.0303	0.7079	0.1187	-0.122
Mof_C 	C 	0.0119	0.7038	0.1813	-0
Mof_H 	H 	0.0007	0.6555	0.198	0.006
Mof_C 	C 	0.0108	0.7723	0.2175	-0.029
Mof_C 	C 	0.0281	0.6339	0.0772	0.47
Mof_C 	C 	0.6539	0.9999	0.0184	0.404
Mof_C 	C 	0.0082	0.2774	0.1186	0.262
Mof_N 	N 	0.0194	0.036	0.184	-0.247
Mof_N 	N 	0.8818	0.9534	0.1747	-0.231
Mof_N 	N 	0.0288	0.8434	0.1959	-0.235
Mof_O 	O 	0.0706	0.3107	0.1112	-0.431
Mof_O 	O 	0.9415	0.3138	0.1107	-0.414
Mof_O 	O 	0.6535	0.0424	0.9667	-0.454
Mof_O 	O 	0.5892	0.9735	0.0258	-0.588
Mof_O 	O 	0.0113	0.5722	0.1043	-0.58
Mof_O 	O 	0.0409	0.6393	0.0198	-0.478
Mof_Zn	Zn	0.5	0.55993	0.75	1.183
Mof_Zn	Zn	4.39024e-33	0.05993	0.75	1.17
Mof_Zn	Zn	0.5	0.44007	0.25	1.183
Mof_Zn	Zn	-2.03433e-17	0.94007	0.25	1.172
_end
