data_functionalizedCrystal
_audit_creation_method	'EQeq! by Chris Wilmer'
_symmetry_space_group_name_H-M	'P1'
_symmetry_Int_Tables_number	1
_symmetry_cell_setting	triclinic
loop_
_symmetry_equiv_pos_as_xyz
  x,y,z
_cell_length_a	10.4641
_cell_length_b	15.6701
_cell_length_c	31.1907
_cell_angle_alpha	90
_cell_angle_beta	94.884
_cell_angle_gamma	90
loop_
_atom_site_label
_atom_site_type_symbol
_atom_site_fract_x
_atom_site_fract_y
_atom_site_fract_z
_atom_site_charge
Mof_Ag	Ag	0.48654	0.57476	0.66455	0.593
Mof_C 	C 	0.477	0.8602	0.57098	0.054
Mof_H 	H 	0.4758	0.9193	0.5779	-0.014
Mof_C 	C 	0.5759	0.8108	0.58985	-0.119
Mof_H 	H 	0.6416	0.8356	0.6088	0.063
Mof_C 	C 	0.5771	0.7248	0.58051	0.033
Mof_C 	C 	0.48	0.691	0.55264	-0.125
Mof_H 	H 	0.4776	0.6319	0.5458	0.057
Mof_C 	C 	0.3867	0.7464	0.53516	0.066
Mof_H 	H 	0.3204	0.7236	0.5158	-0.002
Mof_C 	C 	0.6792	0.6697	0.60092	0.084
Mof_C 	C 	0.8693	0.6246	0.62389	0.075
Mof_C 	C 	0.2213	0.6083	0.61082	0.065
Mof_H 	H 	0.2766	0.6054	0.5882	-0.012
Mof_C 	C 	0.0905	0.6146	0.59958	-0.123
Mof_H 	H 	0.0573	0.6162	0.5703	0.059
Mof_C 	C 	0.0097	0.6186	0.63271	0.027
Mof_C 	C 	0.0631	0.61598	0.67482	-0.124
Mof_H 	H 	0.0102	0.6181	0.6981	0.058
Mof_C 	C 	0.1955	0.6102	0.68246	0.068
Mof_H 	H 	0.2315	0.609	0.7115	-0.014
Mof_C 	C 	0.0926	0.4062	0.72102	0.068
Mof_H 	H 	0.0423	0.4097	0.7449	-0.016
Mof_C 	C 	0.2238	0.3965	0.72928	-0.127
Mof_H 	H 	0.2624	0.3924	0.7579	0.06
Mof_C 	C 	0.2971	0.39278	0.69415	0.028
Mof_C 	C 	0.237	0.39916	0.65306	-0.122
Mof_H 	H 	0.2855	0.3977	0.6287	0.059
Mof_C 	C 	0.1044	0.4077	0.64807	0.064
Mof_H 	H 	0.063	0.4113	0.6198	-0.01
Mof_C 	C 	0.438	0.38195	0.70078	0.075
Mof_C 	C 	0.6254	0.32943	0.72181	0.082
Mof_C 	C 	0.8216	0.1366	0.75401	0.062
Mof_H 	H 	0.8214	0.0771	0.7482	-0.015
Mof_C 	C 	0.7261	0.18622	0.73338	-0.121
Mof_H 	H 	0.6618	0.1614	0.7139	0.067
Mof_C 	C 	0.7262	0.27351	0.74187	0.032
Mof_C 	C 	0.823	0.30718	0.77014	-0.123
Mof_H 	H 	0.8263	0.3665	0.7764	0.052
Mof_C 	C 	0.9146	0.2521	0.78899	0.064
Mof_H 	H 	0.9811	0.2753	0.8082	-0.008
Mof_N 	N 	0.3837	0.82958	0.5437	-0.178
Mof_N 	N 	0.6639	0.60525	0.62643	-0.159
Mof_N 	N 	0.7853	0.57651	0.64154	-0.16
Mof_N 	N 	0.8068	0.68309	0.59791	-0.105
Mof_N 	N 	0.8552	0.7455	0.57128	-0.275
Mof_H 	H 	0.907	0.772	0.5885	0.146
Mof_H 	H 	0.884	0.722	0.5504	0.147
Mof_N 	N 	0.2748	0.60605	0.65118	-0.196
Mof_N 	N 	0.0323	0.41106	0.68179	-0.198
Mof_N 	N 	0.5239	0.43585	0.68878	-0.16
Mof_N 	N 	0.6438	0.40253	0.70253	-0.163
Mof_N 	N 	0.4968	0.31433	0.72105	-0.098
Mof_N 	N 	0.4408	0.24406	0.74019	-0.318
Mof_H 	H 	0.391	0.22	0.723	0.167
Mof_H 	H 	0.412	0.259	0.7615	0.176
Mof_N 	N 	0.9146	0.16801	0.78171	-0.185
Mof_Ag	Ag	0.01346	0.07476	0.83545	0.592
Mof_C 	C 	0.023	0.3602	0.92902	0.055
Mof_H 	H 	0.0242	0.4193	0.9221	-0.014
Mof_C 	C 	0.9241	0.3108	0.91015	-0.119
Mof_H 	H 	0.8584	0.3356	0.8912	0.062
Mof_C 	C 	0.9229	0.2248	0.91949	0.034
Mof_C 	C 	0.02	0.191	0.94736	-0.126
Mof_H 	H 	0.0224	0.1319	0.9542	0.057
Mof_C 	C 	0.1133	0.2464	0.96484	0.066
Mof_H 	H 	0.1796	0.2236	0.9842	-0.002
Mof_C 	C 	0.8208	0.1697	0.89908	0.084
Mof_C 	C 	0.6307	0.1246	0.87611	0.074
Mof_C 	C 	0.2787	0.1083	0.88918	0.065
Mof_H 	H 	0.2234	0.1054	0.9118	-0.012
Mof_C 	C 	0.4095	0.1146	0.90042	-0.123
Mof_H 	H 	0.4427	0.1162	0.9297	0.059
Mof_C 	C 	0.4903	0.1186	0.86729	0.028
Mof_C 	C 	0.4369	0.11598	0.82518	-0.125
Mof_H 	H 	0.4898	0.1181	0.8019	0.058
Mof_C 	C 	0.3045	0.1102	0.81754	0.068
Mof_H 	H 	0.2685	0.109	0.7885	-0.014
Mof_C 	C 	0.4074	0.9062	0.77898	0.068
Mof_H 	H 	0.4577	0.9097	0.7551	-0.015
Mof_C 	C 	0.2762	0.8965	0.77072	-0.127
Mof_H 	H 	0.2376	0.8924	0.7421	0.06
Mof_C 	C 	0.2029	0.89278	0.80585	0.028
Mof_C 	C 	0.263	0.89916	0.84694	-0.122
Mof_H 	H 	0.2145	0.8977	0.8713	0.059
Mof_C 	C 	0.3956	0.9077	0.85193	0.064
Mof_H 	H 	0.437	0.9113	0.8802	-0.009
Mof_C 	C 	0.062	0.88195	0.79922	0.075
Mof_C 	C 	0.8746	0.82943	0.77819	0.082
Mof_C 	C 	0.6784	0.6366	0.74599	0.062
Mof_H 	H 	0.6786	0.5771	0.7518	-0.016
Mof_C 	C 	0.7739	0.68622	0.76662	-0.121
Mof_H 	H 	0.8382	0.6614	0.7861	0.067
Mof_C 	C 	0.7738	0.77351	0.75813	0.032
Mof_C 	C 	0.677	0.80718	0.72986	-0.123
Mof_H 	H 	0.6737	0.8665	0.7236	0.052
Mof_C 	C 	0.5854	0.7521	0.71101	0.064
Mof_H 	H 	0.5189	0.7753	0.6918	-0.008
Mof_N 	N 	0.1163	0.32958	0.9563	-0.178
Mof_N 	N 	0.8361	0.10525	0.87357	-0.159
Mof_N 	N 	0.7147	0.07651	0.85846	-0.16
Mof_N 	N 	0.6932	0.18309	0.90209	-0.105
Mof_N 	N 	0.6448	0.2455	0.92872	-0.275
Mof_H 	H 	0.593	0.272	0.9115	0.146
Mof_H 	H 	0.616	0.222	0.9496	0.147
Mof_N 	N 	0.2252	0.10605	0.84882	-0.196
Mof_N 	N 	0.4677	0.91106	0.81821	-0.197
Mof_N 	N 	0.9761	0.93585	0.81122	-0.159
Mof_N 	N 	0.8562	0.90253	0.79747	-0.163
Mof_N 	N 	0.0032	0.81433	0.77895	-0.098
Mof_N 	N 	0.0592	0.74406	0.75981	-0.318
Mof_H 	H 	0.109	0.72	0.777	0.167
Mof_H 	H 	0.088	0.759	0.7385	0.176
Mof_N 	N 	0.5854	0.66801	0.71829	-0.185
Mof_Ag	Ag	0.82285	0.44354	0.67167	0.602
Mof_Ag	Ag	0.67715	0.94354	0.82833	0.602
Mof_Ag	Ag	0.17715	0.55646	0.32833	0.602
Mof_Ag	Ag	0.32285	0.05646	0.17167	0.602
Mof_Ag	Ag	0.51346	0.42524	0.33545	0.594
Mof_C 	C 	0.523	0.1398	0.42902	0.055
Mof_H 	H 	0.5242	0.0807	0.4221	-0.014
Mof_C 	C 	0.4241	0.1892	0.41015	-0.119
Mof_H 	H 	0.3584	0.1644	0.3912	0.063
Mof_C 	C 	0.4229	0.2752	0.41949	0.033
Mof_C 	C 	0.52	0.309	0.44736	-0.125
Mof_H 	H 	0.5224	0.3681	0.4542	0.057
Mof_C 	C 	0.6133	0.2536	0.46484	0.066
Mof_H 	H 	0.6796	0.2764	0.4842	-0.002
Mof_C 	C 	0.3208	0.3303	0.39908	0.084
Mof_C 	C 	0.1307	0.3754	0.37611	0.075
Mof_C 	C 	0.7787	0.3917	0.38918	0.065
Mof_H 	H 	0.7234	0.3946	0.4118	-0.012
Mof_C 	C 	0.9095	0.3854	0.40042	-0.123
Mof_H 	H 	0.9427	0.3838	0.4297	0.059
Mof_C 	C 	0.9903	0.3814	0.36729	0.027
Mof_C 	C 	0.9369	0.38402	0.32518	-0.124
Mof_H 	H 	0.9898	0.3819	0.3019	0.058
Mof_C 	C 	0.8045	0.3898	0.31754	0.068
Mof_H 	H 	0.7685	0.391	0.2885	-0.014
Mof_C 	C 	0.9074	0.5938	0.27898	0.068
Mof_H 	H 	0.9577	0.5903	0.2551	-0.016
Mof_C 	C 	0.7762	0.6035	0.27072	-0.127
Mof_H 	H 	0.7376	0.6076	0.2421	0.06
Mof_C 	C 	0.7029	0.60722	0.30585	0.028
Mof_C 	C 	0.763	0.60084	0.34694	-0.122
Mof_H 	H 	0.7145	0.6023	0.3713	0.059
Mof_C 	C 	0.8956	0.5923	0.35193	0.064
Mof_H 	H 	0.937	0.5887	0.3802	-0.01
Mof_C 	C 	0.562	0.61805	0.29922	0.075
Mof_C 	C 	0.3746	0.67057	0.27819	0.082
Mof_C 	C 	0.1784	0.8634	0.24599	0.062
Mof_H 	H 	0.1786	0.9229	0.2518	-0.015
Mof_C 	C 	0.2739	0.81378	0.26662	-0.121
Mof_H 	H 	0.3382	0.8386	0.2861	0.067
Mof_C 	C 	0.2738	0.72649	0.25813	0.032
Mof_C 	C 	0.177	0.69282	0.22986	-0.123
Mof_H 	H 	0.1737	0.6335	0.2236	0.052
Mof_C 	C 	0.0854	0.7479	0.21101	0.064
Mof_H 	H 	0.0189	0.7247	0.1918	-0.008
Mof_N 	N 	0.6163	0.17042	0.4563	-0.178
Mof_N 	N 	0.3361	0.39475	0.37357	-0.159
Mof_N 	N 	0.2147	0.42349	0.35846	-0.16
Mof_N 	N 	0.1932	0.31691	0.40209	-0.105
Mof_N 	N 	0.1448	0.2545	0.42872	-0.275
Mof_H 	H 	0.093	0.228	0.4115	0.146
Mof_H 	H 	0.116	0.278	0.4496	0.147
Mof_N 	N 	0.7252	0.39395	0.34882	-0.196
Mof_N 	N 	0.9677	0.58894	0.31821	-0.198
Mof_N 	N 	0.4761	0.56415	0.31122	-0.16
Mof_N 	N 	0.3562	0.59747	0.29747	-0.163
Mof_N 	N 	0.5032	0.68567	0.27895	-0.098
Mof_N 	N 	0.5592	0.75594	0.25981	-0.318
Mof_H 	H 	0.609	0.78	0.277	0.167
Mof_H 	H 	0.588	0.741	0.2385	0.176
Mof_N 	N 	0.0854	0.83199	0.21829	-0.185
Mof_Ag	Ag	0.98654	0.92524	0.16455	0.592
Mof_C 	C 	0.977	0.6398	0.07098	0.055
Mof_H 	H 	0.9758	0.5807	0.0779	-0.014
Mof_C 	C 	0.0759	0.6892	0.08985	-0.119
Mof_H 	H 	0.1416	0.6644	0.1088	0.062
Mof_C 	C 	0.0771	0.7752	0.08051	0.034
Mof_C 	C 	0.98	0.809	0.05264	-0.126
Mof_H 	H 	0.9776	0.8681	0.0458	0.057
Mof_C 	C 	0.8867	0.7536	0.03516	0.066
Mof_H 	H 	0.8204	0.7764	0.0158	-0.002
Mof_C 	C 	0.1792	0.8303	0.10092	0.084
Mof_C 	C 	0.3693	0.8754	0.12389	0.074
Mof_C 	C 	0.7213	0.8917	0.11082	0.065
Mof_H 	H 	0.7766	0.8946	0.0882	-0.012
Mof_C 	C 	0.5905	0.8854	0.09958	-0.123
Mof_H 	H 	0.5573	0.8838	0.0703	0.059
Mof_C 	C 	0.5097	0.8814	0.13271	0.028
Mof_C 	C 	0.5631	0.88402	0.17482	-0.125
Mof_H 	H 	0.5102	0.8819	0.1981	0.058
Mof_C 	C 	0.6955	0.8898	0.18246	0.068
Mof_H 	H 	0.7315	0.891	0.2115	-0.014
Mof_C 	C 	0.5926	0.0938	0.22102	0.068
Mof_H 	H 	0.5423	0.0903	0.2449	-0.015
Mof_C 	C 	0.7238	0.1035	0.22928	-0.127
Mof_H 	H 	0.7624	0.1076	0.2579	0.06
Mof_C 	C 	0.7971	0.10722	0.19415	0.028
Mof_C 	C 	0.737	0.10084	0.15306	-0.122
Mof_H 	H 	0.7855	0.1023	0.1287	0.059
Mof_C 	C 	0.6044	0.0923	0.14807	0.064
Mof_H 	H 	0.563	0.0887	0.1198	-0.009
Mof_C 	C 	0.938	0.11805	0.20078	0.075
Mof_C 	C 	0.1254	0.17057	0.22181	0.082
Mof_C 	C 	0.3216	0.3634	0.25401	0.062
Mof_H 	H 	0.3214	0.4229	0.2482	-0.016
Mof_C 	C 	0.2261	0.31378	0.23338	-0.121
Mof_H 	H 	0.1618	0.3386	0.2139	0.067
Mof_C 	C 	0.2262	0.22649	0.24187	0.032
Mof_C 	C 	0.323	0.19282	0.27014	-0.123
Mof_H 	H 	0.3263	0.1335	0.2764	0.052
Mof_C 	C 	0.4146	0.2479	0.28899	0.064
Mof_H 	H 	0.4811	0.2247	0.3082	-0.008
Mof_N 	N 	0.8837	0.67042	0.0437	-0.178
Mof_N 	N 	0.1639	0.89475	0.12643	-0.159
Mof_N 	N 	0.2853	0.92349	0.14154	-0.16
Mof_N 	N 	0.3068	0.81691	0.09791	-0.105
Mof_N 	N 	0.3552	0.7545	0.07128	-0.275
Mof_H 	H 	0.407	0.728	0.0885	0.146
Mof_H 	H 	0.384	0.778	0.0504	0.147
Mof_N 	N 	0.7748	0.89395	0.15118	-0.196
Mof_N 	N 	0.5323	0.08894	0.18179	-0.197
Mof_N 	N 	0.0239	0.06415	0.18878	-0.159
Mof_N 	N 	0.1438	0.09747	0.20253	-0.163
Mof_N 	N 	0.9968	0.18567	0.22105	-0.098
Mof_N 	N 	0.9408	0.25594	0.24019	-0.318
Mof_H 	H 	0.891	0.28	0.223	0.167
Mof_H 	H 	0.912	0.241	0.2615	0.176
Mof_N 	N 	0.4146	0.33199	0.28171	-0.185
Mof_Ag	Ag	0.33358	0.9421	0.48851	0.595
Mof_C 	C 	0.3479	0.6311	0.40946	0.059
Mof_H 	H 	0.3572	0.5715	0.4146	-0.011
Mof_C 	C 	0.444	0.6846	0.42595	-0.114
Mof_H 	H 	0.5179	0.6624	0.4419	0.066
Mof_C 	C 	0.4309	0.7721	0.41885	0.031
Mof_C 	C 	0.3211	0.8021	0.39618	-0.119
Mof_H 	H 	0.3084	0.8615	0.3914	0.048
Mof_C 	C 	0.2301	0.7433	0.38054	0.059
Mof_H 	H 	0.1549	0.7639	0.3647	-0.003
Mof_C 	C 	0.5307	0.8309	0.43661	0.086
Mof_C 	C 	0.7187	0.8849	0.45565	0.068
Mof_C 	C 	0.0608	0.9205	0.43615	0.001
Mof_H 	H 	0.107	0.9312	0.4118	0.007
Mof_C 	C 	0.9297	0.9117	0.42893	-0.012
Mof_H 	H 	0.8899	0.9169	0.4005	0.023
Mof_C 	C 	0.8595	0.8963	0.46071	0.047
Mof_C 	C 	0.9254	0.8898	0.50504	-0.006
Mof_H 	H 	0.8786	0.8812	0.5295	0.018
Mof_C 	C 	0.0571	0.8968	0.50875	-0.067
Mof_H 	H 	0.1036	0.8892	0.536	0.034
Mof_N 	N 	0.1242	0.91568	0.47159	-0.2
Mof_C 	C 	0.0435	0.9821	0.4493	0.041
Mof_H 	H 	0.0831	0.0316	0.4389	-0.005
Mof_C 	C 	0.9112	0.974	0.4433	-0.111
Mof_H 	H 	0.8581	0.0161	0.4288	0.049
Mof_C 	C 	0.9355	0.8327	0.4707	-0.162
Mof_H 	H 	0.9017	0.7771	0.4743	0.069
Mof_C 	C 	0.067	0.8467	0.4759	0.146
Mof_H 	H 	0.1191	0.7986	0.4836	-0.035
Mof_N 	N 	0.2421	0.6587	0.38656	-0.177
Mof_N 	N 	0.5136	0.89965	0.45918	-0.165
Mof_N 	N 	0.6336	0.93404	0.47186	-0.16
Mof_N 	N 	0.6592	0.81982	0.43359	-0.103
Mof_N 	N 	0.7113	0.755	0.40904	-0.297
Mof_H 	H 	0.746	0.78	0.389	0.148
Mof_H 	H 	0.762	0.732	0.4246	0.169
Mof_Ag	Ag	0.66642	0.0579	0.51149	0.595
Mof_C 	C 	0.6521	0.3689	0.59054	0.059
Mof_H 	H 	0.6428	0.4285	0.5854	-0.011
Mof_C 	C 	0.556	0.3154	0.57405	-0.114
Mof_H 	H 	0.4821	0.3376	0.5581	0.066
Mof_C 	C 	0.5691	0.2279	0.58115	0.031
Mof_C 	C 	0.6789	0.1979	0.60382	-0.119
Mof_H 	H 	0.6916	0.1385	0.6086	0.048
Mof_C 	C 	0.7699	0.2567	0.61946	0.059
Mof_H 	H 	0.8451	0.2361	0.6353	-0.003
Mof_C 	C 	0.4693	0.1691	0.56339	0.086
Mof_C 	C 	0.2813	0.1151	0.54435	0.068
Mof_C 	C 	0.9392	0.0795	0.56385	0.001
Mof_H 	H 	0.893	0.0688	0.5882	0.007
Mof_C 	C 	0.0703	0.0883	0.57107	-0.012
Mof_H 	H 	0.1101	0.0831	0.5995	0.023
Mof_C 	C 	0.1405	0.1037	0.53929	0.047
Mof_C 	C 	0.0746	0.1102	0.49496	-0.006
Mof_H 	H 	0.1214	0.1188	0.4705	0.018
Mof_C 	C 	0.9429	0.1032	0.49125	-0.067
Mof_H 	H 	0.8964	0.1108	0.464	0.034
Mof_N 	N 	0.8758	0.08432	0.52841	-0.2
Mof_C 	C 	0.9565	0.0179	0.5507	0.041
Mof_H 	H 	0.9169	0.9684	0.5611	-0.005
Mof_C 	C 	0.0888	0.026	0.5567	-0.111
Mof_H 	H 	0.1419	0.9839	0.5712	0.049
Mof_C 	C 	0.0645	0.1673	0.5293	-0.162
Mof_H 	H 	0.0983	0.2229	0.5257	0.069
Mof_C 	C 	0.933	0.1533	0.5241	0.146
Mof_H 	H 	0.8809	0.2014	0.5164	-0.035
Mof_N 	N 	0.7579	0.3413	0.61344	-0.177
Mof_N 	N 	0.4864	0.10035	0.54082	-0.165
Mof_N 	N 	0.3664	0.06596	0.52814	-0.16
Mof_N 	N 	0.3408	0.18018	0.56641	-0.103
Mof_N 	N 	0.2887	0.245	0.59096	-0.297
Mof_H 	H 	0.254	0.22	0.611	0.148
Mof_H 	H 	0.238	0.268	0.5754	0.169
Mof_Ag	Ag	0.16642	0.4421	0.01149	0.594
Mof_C 	C 	0.1521	0.1311	0.09054	0.059
Mof_H 	H 	0.1428	0.0715	0.0854	-0.011
Mof_C 	C 	0.056	0.1846	0.07405	-0.115
Mof_H 	H 	0.9821	0.1624	0.0581	0.066
Mof_C 	C 	0.0691	0.2721	0.08115	0.031
Mof_C 	C 	0.1789	0.3021	0.10382	-0.119
Mof_H 	H 	0.1916	0.3615	0.1086	0.048
Mof_C 	C 	0.2699	0.2433	0.11946	0.059
Mof_H 	H 	0.3451	0.2639	0.1353	-0.003
Mof_C 	C 	0.9693	0.3309	0.06339	0.086
Mof_C 	C 	0.7813	0.3849	0.04435	0.069
Mof_C 	C 	0.4392	0.4205	0.06385	-0.004
Mof_H 	H 	0.393	0.4312	0.0882	0.008
Mof_C 	C 	0.5703	0.4117	0.07107	-0.007
Mof_H 	H 	0.6101	0.4169	0.0995	0.022
Mof_C 	C 	0.6405	0.3963	0.03929	0.045
Mof_C 	C 	0.5746	0.3898	0.99496	-0.003
Mof_H 	H 	0.6214	0.3812	0.9705	0.017
Mof_C 	C 	0.4429	0.3968	0.99125	-0.07
Mof_H 	H 	0.3964	0.3892	0.964	0.035
Mof_N 	N 	0.3758	0.41568	0.02841	-0.2
Mof_C 	C 	0.4565	0.4821	0.0507	0.043
Mof_H 	H 	0.4169	0.5316	0.0611	-0.005
Mof_C 	C 	0.5888	0.474	0.0567	-0.113
Mof_H 	H 	0.6419	0.5161	0.0712	0.049
Mof_C 	C 	0.5645	0.3327	0.0293	-0.163
Mof_H 	H 	0.5983	0.2771	0.0257	0.069
Mof_C 	C 	0.433	0.3467	0.0241	0.148
Mof_H 	H 	0.3809	0.2986	0.0164	-0.035
Mof_N 	N 	0.2579	0.1587	0.11344	-0.177
Mof_N 	N 	0.9864	0.39965	0.04082	-0.165
Mof_N 	N 	0.8664	0.43404	0.02814	-0.16
Mof_N 	N 	0.8408	0.31982	0.06641	-0.103
Mof_N 	N 	0.7887	0.255	0.09096	-0.297
Mof_H 	H 	0.754	0.28	0.111	0.148
Mof_H 	H 	0.738	0.232	0.0754	0.169
Mof_Ag	Ag	0.83358	0.5579	0.98851	0.594
Mof_C 	C 	0.8479	0.8689	0.90946	0.059
Mof_H 	H 	0.8572	0.9285	0.9146	-0.011
Mof_C 	C 	0.944	0.8154	0.92595	-0.115
Mof_H 	H 	0.0179	0.8376	0.9419	0.066
Mof_C 	C 	0.9309	0.7279	0.91885	0.031
Mof_C 	C 	0.8211	0.6979	0.89618	-0.119
Mof_H 	H 	0.8084	0.6385	0.8914	0.048
Mof_C 	C 	0.7301	0.7567	0.88054	0.059
Mof_H 	H 	0.6549	0.7361	0.8647	-0.003
Mof_C 	C 	0.0307	0.6691	0.93661	0.086
Mof_C 	C 	0.2187	0.6151	0.95565	0.069
Mof_C 	C 	0.5608	0.5795	0.93615	-0.004
Mof_H 	H 	0.607	0.5688	0.9118	0.008
Mof_C 	C 	0.4297	0.5883	0.92893	-0.007
Mof_H 	H 	0.3899	0.5831	0.9005	0.022
Mof_C 	C 	0.3595	0.6037	0.96071	0.045
Mof_C 	C 	0.4254	0.6102	0.00504	-0.003
Mof_H 	H 	0.3786	0.6188	0.0295	0.017
Mof_C 	C 	0.5571	0.6032	0.00875	-0.07
Mof_H 	H 	0.6036	0.6108	0.036	0.035
Mof_N 	N 	0.6242	0.58432	0.97159	-0.2
Mof_C 	C 	0.5435	0.5179	0.9493	0.043
Mof_H 	H 	0.5831	0.4684	0.9389	-0.005
Mof_C 	C 	0.4112	0.526	0.9433	-0.113
Mof_H 	H 	0.3581	0.4839	0.9288	0.049
Mof_C 	C 	0.4355	0.6673	0.9707	-0.163
Mof_H 	H 	0.4017	0.7229	0.9743	0.069
Mof_C 	C 	0.567	0.6533	0.9759	0.148
Mof_H 	H 	0.6191	0.7014	0.9836	-0.035
Mof_N 	N 	0.7421	0.8413	0.88656	-0.177
Mof_N 	N 	0.0136	0.60035	0.95918	-0.165
Mof_N 	N 	0.1336	0.56596	0.97186	-0.16
Mof_N 	N 	0.1592	0.68018	0.93359	-0.103
Mof_N 	N 	0.2113	0.745	0.90904	-0.297
Mof_H 	H 	0.246	0.72	0.889	0.148
Mof_H 	H 	0.262	0.768	0.9246	0.169
_end
