# CIF file generated by openbabel 3.1.0, see https://openbabel.org
data_I
_chemical_name_common 'image0'
_cell_length_a 10.1838
_cell_length_b 13.8721
_cell_length_c 33.049
_cell_angle_alpha 90
_cell_angle_beta 93.73
_cell_angle_gamma 90
_space_group_name_H-M_alt 'P 1'
_space_group_name_Hall 'P 1'
loop_
    _symmetry_equiv_pos_as_xyz
    x,y,z
loop_
    _atom_site_label
    _atom_site_type_symbol
    _atom_site_fract_x
    _atom_site_fract_y
    _atom_site_fract_z
    _atom_site_occupancy
    Mn1      Mn       0.38906    0.98069    0.70956    1.000
    O1       O        0.21080    0.97040    0.67119    1.000
    O2       O        0.60810    0.99350    0.71156    1.000
    O3       O        0.50900    0.96840    0.65200    1.000
    N1       N        0.38470    0.81780    0.71302    1.000
    C1       C        0.85850    0.96490    0.68160    1.000
    H1       H        0.85530    0.98490    0.70910    1.000
    N2       N        0.36550    0.14240    0.70610    1.000
    C2       C        0.10730    0.97590    0.68921    1.000
    C3       C        0.61180    0.97690    0.67490    1.000
    C4       C        0.98000    0.95050    0.66420    1.000
    C5       C        0.42350    0.76910    0.74620    1.000
    H2       H        0.45230    0.80440    0.76970    1.000
    C6       C        0.74420    0.94900    0.65750    1.000
    C7       C        0.34570    0.76460    0.68000    1.000
    H3       H        0.31680    0.79740    0.65590    1.000
    C8       C        0.34560    0.66450    0.67970    1.000
    H4       H        0.31860    0.63040    0.65570    1.000
    C9       C        0.38540    0.61470    0.71480    1.000
    C10      C        0.35180    0.33890    0.69690    1.000
    C11      C        0.42430    0.66990    0.74820    1.000
    H5       H        0.45200    0.63900    0.77300    1.000
    C12      C        0.30140    0.18470    0.67480    1.000
    H6       H        0.25870    0.14450    0.65470    1.000
    C13      C        0.38590    0.51020    0.72000    1.000
    H7       H        0.41630    0.48610    0.74580    1.000
    C14      C        0.34730    0.44460    0.69140    1.000
    H8       H        0.31460    0.46830    0.66570    1.000
    C15      C        0.29250    0.28120    0.66950    1.000
    H9       H        0.24440    0.30720    0.64650    1.000
    C16      C        0.41600    0.30030    0.73170    1.000
    H10      H        0.45390    0.34020    0.75270    1.000
    C17      C        0.42170    0.19930    0.73410    1.000
    H11      H        0.46800    0.17070    0.75690    1.000
    C18      C        0.98490    0.91810    0.62590    1.000
    H12      H        0.06780    0.90760    0.61500    1.000
    O4       O        0.10380    0.98940    0.72635    1.000
    C19      C        0.74690    0.91940    0.61880    1.000
    H13      H        0.66740    0.91130    0.60250    1.000
    C20      C        0.87140    0.90020    0.60240    1.000
    N3       N        0.97300    0.81300    0.55540    1.000
    N4       N        0.86580    0.84640    0.56520    1.000
    N5       N        0.05900    0.78300    0.53920    1.000
    C21      C        0.98300    0.97300    0.62120    1.000
    H14      H        0.06480    0.97060    0.60900    1.000
    C22      C        0.86600    0.96570    0.59770    1.000
    C23      C        0.74670    0.97440    0.61490    1.000
    H15      H        0.66710    0.97170    0.59820    1.000
    C24      C        0.74280    0.98700    0.65640    1.000
    C25      C        0.86000    0.98960    0.68070    1.000
    H16      H        0.85750    0.99510    0.70930    1.000
    C26      C        0.97960    0.98430    0.66410    1.000
    C27      C        0.35800    0.50800    0.69520    1.000
    H17      H        0.32230    0.49080    0.66890    1.000
    C28      C        0.39400    0.46000    0.72260    1.000
    H18      H        0.43160    0.47580    0.74880    1.000
    N6       N        0.85700    0.94200    0.55480    1.000
    N7       N        0.95900    0.99480    0.53680    1.000
    N8       N        0.05300    0.92700    0.51830    1.000
    N9       N        0.96800    0.85100    0.54740    1.000
    N10      N        0.86200    0.99400    0.55410    1.000
    N11      N        0.02900    0.00000    0.51740    1.000
    N12      N        0.86500    0.89500    0.55900    1.000
    N13      N        0.96100    0.92300    0.53920    1.000
    N14      N        0.05100    0.85600    0.53030    1.000
    Mn2      Mn       0.11094    0.98069    0.79044    1.000
    O5       O        0.28920    0.97040    0.82881    1.000
    O6       O        0.89190    0.99350    0.78844    1.000
    O7       O        0.99100    0.96840    0.84800    1.000
    N15      N        0.11530    0.81780    0.78698    1.000
    C29      C        0.64150    0.96490    0.81840    1.000
    H19      H        0.64470    0.98490    0.79090    1.000
    N16      N        0.13450    0.14240    0.79390    1.000
    C30      C        0.39270    0.97590    0.81079    1.000
    C31      C        0.88820    0.97690    0.82510    1.000
    C32      C        0.52000    0.95050    0.83580    1.000
    C33      C        0.07650    0.76910    0.75380    1.000
    H20      H        0.04770    0.80440    0.73030    1.000
    C34      C        0.75580    0.94900    0.84250    1.000
    C35      C        0.15430    0.76460    0.82000    1.000
    H21      H        0.18320    0.79740    0.84410    1.000
    C36      C        0.15440    0.66450    0.82030    1.000
    H22      H        0.18140    0.63040    0.84430    1.000
    C37      C        0.11460    0.61470    0.78520    1.000
    C38      C        0.14820    0.33890    0.80310    1.000
    C39      C        0.07570    0.66990    0.75180    1.000
    H23      H        0.04800    0.63900    0.72700    1.000
    C40      C        0.19860    0.18470    0.82520    1.000
    H24      H        0.24130    0.14450    0.84530    1.000
    C41      C        0.11410    0.51020    0.78000    1.000
    H25      H        0.08370    0.48610    0.75420    1.000
    C42      C        0.15270    0.44460    0.80860    1.000
    H26      H        0.18540    0.46830    0.83430    1.000
    C43      C        0.20750    0.28120    0.83050    1.000
    H27      H        0.25560    0.30720    0.85350    1.000
    C44      C        0.08400    0.30030    0.76830    1.000
    H28      H        0.04610    0.34020    0.74730    1.000
    C45      C        0.07830    0.19930    0.76590    1.000
    H29      H        0.03200    0.17070    0.74310    1.000
    C46      C        0.51510    0.91810    0.87410    1.000
    H30      H        0.43220    0.90760    0.88500    1.000
    O8       O        0.39620    0.98940    0.77365    1.000
    C47      C        0.75310    0.91940    0.88120    1.000
    H31      H        0.83260    0.91130    0.89750    1.000
    C48      C        0.62860    0.90020    0.89760    1.000
    N17      N        0.52700    0.81300    0.94460    1.000
    N18      N        0.63420    0.84640    0.93480    1.000
    N19      N        0.44100    0.78300    0.96080    1.000
    C49      C        0.51700    0.97300    0.87880    1.000
    H32      H        0.43520    0.97060    0.89100    1.000
    C50      C        0.63400    0.96570    0.90230    1.000
    C51      C        0.75330    0.97440    0.88510    1.000
    H33      H        0.83290    0.97170    0.90180    1.000
    C52      C        0.75720    0.98700    0.84360    1.000
    C53      C        0.64000    0.98960    0.81930    1.000
    H34      H        0.64250    0.99510    0.79070    1.000
    C54      C        0.52040    0.98430    0.83590    1.000
    C55      C        0.14200    0.50800    0.80480    1.000
    H35      H        0.17770    0.49080    0.83110    1.000
    C56      C        0.10600    0.46000    0.77740    1.000
    H36      H        0.06840    0.47580    0.75120    1.000
    N20      N        0.64300    0.94200    0.94520    1.000
    N21      N        0.54100    0.99480    0.96320    1.000
    N22      N        0.44700    0.92700    0.98170    1.000
    N23      N        0.53200    0.85100    0.95260    1.000
    N24      N        0.63800    0.99400    0.94590    1.000
    N25      N        0.47100    0.00000    0.98260    1.000
    N26      N        0.63500    0.89500    0.94100    1.000
    N27      N        0.53900    0.92300    0.96080    1.000
    N28      N        0.44900    0.85600    0.96970    1.000
    Mn3      Mn       0.61094    0.01931    0.29044    1.000
    O9       O        0.78920    0.02960    0.32881    1.000
    O10      O        0.39190    0.00650    0.28844    1.000
    O11      O        0.49100    0.03160    0.34800    1.000
    N29      N        0.61530    0.18220    0.28698    1.000
    C57      C        0.14150    0.03510    0.31840    1.000
    H37      H        0.14470    0.01510    0.29090    1.000
    N30      N        0.63450    0.85760    0.29390    1.000
    C58      C        0.89270    0.02410    0.31079    1.000
    C59      C        0.38820    0.02310    0.32510    1.000
    C60      C        0.02000    0.04950    0.33580    1.000
    C61      C        0.57650    0.23090    0.25380    1.000
    H38      H        0.54770    0.19560    0.23030    1.000
    C62      C        0.25580    0.05100    0.34250    1.000
    C63      C        0.65430    0.23540    0.32000    1.000
    H39      H        0.68320    0.20260    0.34410    1.000
    C64      C        0.65440    0.33550    0.32030    1.000
    H40      H        0.68140    0.36960    0.34430    1.000
    C65      C        0.61460    0.38530    0.28520    1.000
    C66      C        0.64820    0.66110    0.30310    1.000
    C67      C        0.57570    0.33010    0.25180    1.000
    H41      H        0.54800    0.36100    0.22700    1.000
    C68      C        0.69860    0.81530    0.32520    1.000
    H42      H        0.74130    0.85550    0.34530    1.000
    C69      C        0.61410    0.48980    0.28000    1.000
    H43      H        0.58370    0.51390    0.25420    1.000
    C70      C        0.65270    0.55540    0.30860    1.000
    H44      H        0.68540    0.53170    0.33430    1.000
    C71      C        0.70750    0.71880    0.33050    1.000
    H45      H        0.75560    0.69280    0.35350    1.000
    C72      C        0.58400    0.69970    0.26830    1.000
    H46      H        0.54610    0.65980    0.24730    1.000
    C73      C        0.57830    0.80070    0.26590    1.000
    H47      H        0.53200    0.82930    0.24310    1.000
    C74      C        0.01510    0.08190    0.37410    1.000
    H48      H        0.93220    0.09240    0.38500    1.000
    O12      O        0.89620    0.01060    0.27365    1.000
    C75      C        0.25310    0.08060    0.38120    1.000
    H49      H        0.33260    0.08870    0.39750    1.000
    C76      C        0.12860    0.09980    0.39760    1.000
    N31      N        0.02700    0.18700    0.44460    1.000
    N32      N        0.13420    0.15360    0.43480    1.000
    N33      N        0.94100    0.21700    0.46080    1.000
    C77      C        0.01700    0.02700    0.37880    1.000
    H50      H        0.93520    0.02940    0.39100    1.000
    C78      C        0.13400    0.03430    0.40230    1.000
    C79      C        0.25330    0.02560    0.38510    1.000
    H51      H        0.33290    0.02830    0.40180    1.000
    C80      C        0.25720    0.01300    0.34360    1.000
    C81      C        0.14000    0.01040    0.31930    1.000
    H52      H        0.14250    0.00490    0.29070    1.000
    C82      C        0.02040    0.01570    0.33590    1.000
    C83      C        0.64200    0.49200    0.30480    1.000
    H53      H        0.67770    0.50920    0.33110    1.000
    C84      C        0.60600    0.54000    0.27740    1.000
    H54      H        0.56840    0.52420    0.25120    1.000
    N34      N        0.14300    0.05800    0.44520    1.000
    N35      N        0.04100    0.00520    0.46320    1.000
    N36      N        0.94700    0.07300    0.48170    1.000
    N37      N        0.03200    0.14900    0.45260    1.000
    N38      N        0.13800    0.00600    0.44590    1.000
    N39      N        0.97100    0.00000    0.48260    1.000
    N40      N        0.13500    0.10500    0.44100    1.000
    N41      N        0.03900    0.07700    0.46080    1.000
    N42      N        0.94900    0.14400    0.46970    1.000
    Mn4      Mn       0.88906    0.01931    0.20956    1.000
    O13      O        0.71080    0.02960    0.17119    1.000
    O14      O        0.10810    0.00650    0.21156    1.000
    O15      O        0.00900    0.03160    0.15200    1.000
    N43      N        0.88470    0.18220    0.21302    1.000
    C85      C        0.35850    0.03510    0.18160    1.000
    H55      H        0.35530    0.01510    0.20910    1.000
    N44      N        0.86550    0.85760    0.20610    1.000
    C86      C        0.60730    0.02410    0.18921    1.000
    C87      C        0.11180    0.02310    0.17490    1.000
    C88      C        0.48000    0.04950    0.16420    1.000
    C89      C        0.92350    0.23090    0.24620    1.000
    H56      H        0.95230    0.19560    0.26970    1.000
    C90      C        0.24420    0.05100    0.15750    1.000
    C91      C        0.84570    0.23540    0.18000    1.000
    H57      H        0.81680    0.20260    0.15590    1.000
    C92      C        0.84560    0.33550    0.17970    1.000
    H58      H        0.81860    0.36960    0.15570    1.000
    C93      C        0.88540    0.38530    0.21480    1.000
    C94      C        0.85180    0.66110    0.19690    1.000
    C95      C        0.92430    0.33010    0.24820    1.000
    H59      H        0.95200    0.36100    0.27300    1.000
    C96      C        0.80140    0.81530    0.17480    1.000
    H60      H        0.75870    0.85550    0.15470    1.000
    C97      C        0.88590    0.48980    0.22000    1.000
    H61      H        0.91630    0.51390    0.24580    1.000
    C98      C        0.84730    0.55540    0.19140    1.000
    H62      H        0.81460    0.53170    0.16570    1.000
    C99      C        0.79250    0.71880    0.16950    1.000
    H63      H        0.74440    0.69280    0.14650    1.000
    C100     C        0.91600    0.69970    0.23170    1.000
    H64      H        0.95390    0.65980    0.25270    1.000
    C101     C        0.92170    0.80070    0.23410    1.000
    H65      H        0.96800    0.82930    0.25690    1.000
    C102     C        0.48490    0.08190    0.12590    1.000
    H66      H        0.56780    0.09240    0.11500    1.000
    O16      O        0.60380    0.01060    0.22635    1.000
    C103     C        0.24690    0.08060    0.11880    1.000
    H67      H        0.16740    0.08870    0.10250    1.000
    C104     C        0.37140    0.09980    0.10240    1.000
    N45      N        0.47300    0.18700    0.05540    1.000
    N46      N        0.36580    0.15360    0.06520    1.000
    N47      N        0.55900    0.21700    0.03920    1.000
    C105     C        0.48300    0.02700    0.12120    1.000
    H68      H        0.56480    0.02940    0.10900    1.000
    C106     C        0.36600    0.03430    0.09770    1.000
    C107     C        0.24670    0.02560    0.11490    1.000
    H69      H        0.16710    0.02830    0.09820    1.000
    C108     C        0.24280    0.01300    0.15640    1.000
    C109     C        0.36000    0.01040    0.18070    1.000
    H70      H        0.35750    0.00490    0.20930    1.000
    C110     C        0.47960    0.01570    0.16410    1.000
    C111     C        0.85800    0.49200    0.19520    1.000
    H71      H        0.82230    0.50920    0.16890    1.000
    C112     C        0.89400    0.54000    0.22260    1.000
    H72      H        0.93160    0.52420    0.24880    1.000
    N48      N        0.35700    0.05800    0.05480    1.000
    N49      N        0.45900    0.00520    0.03680    1.000
    N50      N        0.55300    0.07300    0.01830    1.000
    N51      N        0.46800    0.14900    0.04740    1.000
    N52      N        0.36200    0.00600    0.05410    1.000
    N53      N        0.52900    0.00000    0.01740    1.000
    N54      N        0.36500    0.10500    0.05900    1.000
    N55      N        0.46100    0.07700    0.03920    1.000
    N56      N        0.55100    0.14400    0.03030    1.000
