data_functionalizedCrystal
_audit_creation_method	'EQeq! by Chris Wilmer'
_symmetry_space_group_name_H-M	'P1'
_symmetry_Int_Tables_number	1
_symmetry_cell_setting	triclinic
loop_
_symmetry_equiv_pos_as_xyz
  x,y,z
_cell_length_a	12.7593
_cell_length_b	15.0296
_cell_length_c	16.9098
_cell_angle_alpha	114.509
_cell_angle_beta	94.816
_cell_angle_gamma	90.432
loop_
_atom_site_label
_atom_site_type_symbol
_atom_site_fract_x
_atom_site_fract_y
_atom_site_fract_z
_atom_site_charge
Mof_C 	C 	0.8399	0.0405	0.5925	0.047
Mof_H 	H 	0.8687	0.9745	0.5684	0.026
Mof_H 	H 	0.7623	0.0331	0.5804	0.027
Mof_C 	C 	0.8701	0.091	0.6905	-0.109
Mof_H 	H 	0.946	0.1106	0.7008	0.077
Mof_H 	H 	0.8593	0.0435	0.716	0.067
Mof_C 	C 	0.8082	0.1813	0.7379	-0.14
Mof_H 	H 	0.8254	0.2334	0.719	0.093
Mof_H 	H 	0.7317	0.1646	0.7241	0.088
Mof_C 	C 	0.8376	0.2166	0.8351	0.073
Mof_H 	H 	0.8264	0.1625	0.8529	0.017
Mof_H 	H 	0.9128	0.2387	0.8495	0.021
Mof_C 	C 	0.7855	0.3339	0.9698	0.19
Mof_C 	C 	0.8498	0.293	0.0159	-0.129
Mof_H 	H 	0.8883	0.2371	0.9856	0.098
Mof_C 	C 	0.8568	0.3355	0.1068	0.011
Mof_C 	C 	0.8024	0.4184	0.152	-0.056
Mof_H 	H 	0.8071	0.4471	0.214	0.082
Mof_C 	C 	0.74	0.4589	0.1034	0.006
Mof_C 	C 	0.7321	0.4163	0.0134	-0.124
Mof_H 	H 	0.6895	0.4441	0.9814	0.107
Mof_C 	C 	0.6835	0.5497	0.1507	0.296
Mof_C 	C 	0.9298	0.2924	0.1541	0.29
Mof_C 	C 	0.2238	0.0831	0.1567	0.299
Mof_C 	C 	0.2947	0.0032	0.1077	0.01
Mof_C 	C 	0.3004	0.9794	0.0197	-0.152
Mof_H 	H 	0.2634	0.0156	0.9926	0.11
Mof_C 	C 	0.3607	0.9026	0.9716	0.209
Mof_C 	C 	0.4099	0.8474	0.0114	-0.153
Mof_H 	H 	0.4478	0.7923	0.9778	0.116
Mof_C 	C 	0.4045	0.8714	0.0979	0.023
Mof_C 	C 	0.3466	0.9513	0.1492	-0.068
Mof_H 	H 	0.3434	0.9688	0.2098	0.077
Mof_C 	C 	0.4587	0.8115	0.1419	0.294
Mof_C 	C 	0.3364	0.9404	0.8468	0.048
Mof_H 	H 	0.368	0.0072	0.8809	0.03
Mof_H 	H 	0.2589	0.9433	0.8462	0.031
Mof_C 	C 	0.3679	0.9002	0.7546	-0.111
Mof_H 	H 	0.445	0.893	0.7564	0.078
Mof_H 	H 	0.3511	0.9479	0.7295	0.068
Mof_C 	C 	0.3132	0.8015	0.6949	-0.13
Mof_H 	H 	0.3365	0.7516	0.7158	0.096
Mof_H 	H 	0.2362	0.8063	0.6978	0.084
Mof_C 	C 	0.3376	0.7693	0.601	0.058
Mof_H 	H 	0.3089	0.8152	0.5772	0.025
Mof_H 	H 	0.4147	0.7676	0.5973	0.025
Mof_C 	C 	0.3005	0.6268	0.4656	0.198
Mof_C 	C 	0.3595	0.6649	0.4206	-0.142
Mof_H 	H 	0.3966	0.7265	0.4504	0.102
Mof_C 	C 	0.3634	0.6109	0.3305	0.007
Mof_C 	C 	0.3083	0.521	0.2854	-0.054
Mof_H 	H 	0.3091	0.4867	0.224	0.083
Mof_C 	C 	0.2525	0.4825	0.3314	0.006
Mof_C 	C 	0.2475	0.5342	0.4219	-0.131
Mof_H 	H 	0.209	0.5072	0.453	0.113
Mof_C 	C 	0.1964	0.3849	0.2872	0.298
Mof_C 	C 	0.4338	0.6494	0.2849	0.301
Mof_O 	O 	0.7736	0.2955	0.8805	-0.234
Mof_O 	O 	0.6447	0.5963	0.1069	-0.544
Mof_O 	O 	0.6738	0.5824	0.2307	-0.414
Mof_O 	O 	0.9444	0.3289	0.2364	-0.442
Mof_O 	O 	0.9822	0.2205	0.1091	-0.506
Mof_O 	O 	0.1665	0.1199	0.1147	-0.535
Mof_O 	O 	0.2212	0.1133	0.2377	-0.433
Mof_O 	O 	0.4715	0.8429	0.2223	-0.488
Mof_O 	O 	0.4952	0.7306	0.0931	-0.496
Mof_O 	O 	0.3743	0.8752	0.8856	-0.23
Mof_O 	O 	0.2885	0.6725	0.5524	-0.226
Mof_O 	O 	0.178	0.3462	0.206	-0.445
Mof_O 	O 	0.1671	0.3416	0.3323	-0.514
Mof_O 	O 	0.4347	0.6069	0.2024	-0.483
Mof_O 	O 	0.4961	0.7211	0.3277	-0.501
Mof_C 	C 	0.9736	0.1205	0.2894	0.306
Mof_C 	C 	0.9175	0.0687	0.3313	-0.009
Mof_C 	C 	0.9237	0.1063	0.4217	-0.129
Mof_H 	H 	0.9643	0.1651	0.456	0.11
Mof_C 	C 	0.8696	0.0574	0.463	0.194
Mof_C 	C 	0.8086	0.9733	0.4116	-0.146
Mof_H 	H 	0.7717	0.94	0.4385	0.104
Mof_C 	C 	0.8008	0.9375	0.3215	0.002
Mof_C 	C 	0.8546	0.9827	0.2812	-0.062
Mof_H 	H 	0.8498	0.9564	0.2193	0.074
Mof_C 	C 	0.7272	0.8511	0.2693	0.305
Mof_O 	O 	0.9727	0.0874	0.207	-0.477
Mof_O 	O 	0.0255	0.1997	0.3347	-0.513
Mof_O 	O 	0.7024	0.8282	0.1907	-0.404
Mof_O 	O 	0.6878	0.806	0.3093	-0.548
Mof_O 	O 	0.8823	0.0996	0.5518	-0.225
Mof_In	In	0.08178	0.21821	0.22132	2.493
Mof_In	In	0.57124	0.71066	0.20879	2.507
Mof_C 	C 	0.1601	0.9595	0.4075	0.048
Mof_H 	H 	0.1313	0.0255	0.4316	0.027
Mof_H 	H 	0.2377	0.9669	0.4196	0.028
Mof_C 	C 	0.1299	0.909	0.3095	-0.108
Mof_H 	H 	0.054	0.8894	0.2992	0.078
Mof_H 	H 	0.1407	0.9565	0.284	0.068
Mof_C 	C 	0.1918	0.8187	0.2621	-0.14
Mof_H 	H 	0.1746	0.7666	0.281	0.093
Mof_H 	H 	0.2683	0.8354	0.2759	0.088
Mof_C 	C 	0.1624	0.7834	0.1649	0.073
Mof_H 	H 	0.1736	0.8375	0.1471	0.017
Mof_H 	H 	0.0872	0.7613	0.1505	0.021
Mof_C 	C 	0.2145	0.6661	0.0302	0.19
Mof_C 	C 	0.1502	0.707	0.9841	-0.129
Mof_H 	H 	0.1117	0.7629	0.0144	0.098
Mof_C 	C 	0.1432	0.6645	0.8932	0.011
Mof_C 	C 	0.1976	0.5816	0.848	-0.056
Mof_H 	H 	0.1929	0.5529	0.786	0.082
Mof_C 	C 	0.26	0.5411	0.8966	0.006
Mof_C 	C 	0.2679	0.5837	0.9866	-0.124
Mof_H 	H 	0.3105	0.5559	0.0186	0.107
Mof_C 	C 	0.3165	0.4503	0.8493	0.296
Mof_C 	C 	0.0702	0.7076	0.8459	0.29
Mof_C 	C 	0.7762	0.9169	0.8433	0.299
Mof_C 	C 	0.7053	0.9968	0.8923	0.01
Mof_C 	C 	0.6996	0.0206	0.9803	-0.152
Mof_H 	H 	0.7366	0.9844	0.0074	0.11
Mof_C 	C 	0.6393	0.0974	0.0284	0.209
Mof_C 	C 	0.5901	0.1526	0.9886	-0.153
Mof_H 	H 	0.5522	0.2077	0.0222	0.116
Mof_C 	C 	0.5955	0.1286	0.9021	0.023
Mof_C 	C 	0.6534	0.0487	0.8508	-0.068
Mof_H 	H 	0.6566	0.0312	0.7902	0.077
Mof_C 	C 	0.5413	0.1885	0.8581	0.294
Mof_C 	C 	0.6636	0.0596	0.1532	0.048
Mof_H 	H 	0.632	0.9928	0.1191	0.03
Mof_H 	H 	0.7411	0.0567	0.1538	0.031
Mof_C 	C 	0.6321	0.0998	0.2454	-0.111
Mof_H 	H 	0.555	0.107	0.2436	0.078
Mof_H 	H 	0.6489	0.0521	0.2705	0.068
Mof_C 	C 	0.6868	0.1985	0.3051	-0.13
Mof_H 	H 	0.6635	0.2484	0.2842	0.096
Mof_H 	H 	0.7638	0.1937	0.3022	0.084
Mof_C 	C 	0.6624	0.2307	0.399	0.058
Mof_H 	H 	0.6911	0.1848	0.4228	0.025
Mof_H 	H 	0.5853	0.2324	0.4027	0.025
Mof_C 	C 	0.6995	0.3732	0.5344	0.198
Mof_C 	C 	0.6405	0.3351	0.5794	-0.142
Mof_H 	H 	0.6034	0.2735	0.5496	0.102
Mof_C 	C 	0.6366	0.3891	0.6695	0.007
Mof_C 	C 	0.6917	0.479	0.7146	-0.054
Mof_H 	H 	0.6909	0.5133	0.776	0.083
Mof_C 	C 	0.7475	0.5175	0.6686	0.006
Mof_C 	C 	0.7525	0.4658	0.5781	-0.131
Mof_H 	H 	0.791	0.4928	0.547	0.113
Mof_C 	C 	0.8036	0.6151	0.7128	0.298
Mof_C 	C 	0.5662	0.3506	0.7151	0.301
Mof_O 	O 	0.2264	0.7045	0.1195	-0.234
Mof_O 	O 	0.3553	0.4037	0.8931	-0.544
Mof_O 	O 	0.3262	0.4176	0.7693	-0.414
Mof_O 	O 	0.0556	0.6711	0.7636	-0.442
Mof_O 	O 	0.0178	0.7795	0.8909	-0.506
Mof_O 	O 	0.8335	0.8801	0.8853	-0.535
Mof_O 	O 	0.7788	0.8867	0.7623	-0.433
Mof_O 	O 	0.5285	0.1571	0.7777	-0.488
Mof_O 	O 	0.5048	0.2694	0.9069	-0.496
Mof_O 	O 	0.6257	0.1248	0.1144	-0.23
Mof_O 	O 	0.7115	0.3275	0.4476	-0.226
Mof_O 	O 	0.822	0.6538	0.794	-0.445
Mof_O 	O 	0.8329	0.6584	0.6677	-0.514
Mof_O 	O 	0.5653	0.3931	0.7976	-0.483
Mof_O 	O 	0.5039	0.2789	0.6723	-0.501
Mof_C 	C 	0.0264	0.8795	0.7106	0.306
Mof_C 	C 	0.0825	0.9313	0.6687	-0.009
Mof_C 	C 	0.0763	0.8937	0.5783	-0.129
Mof_H 	H 	0.0357	0.8349	0.544	0.11
Mof_C 	C 	0.1304	0.9426	0.537	0.194
Mof_C 	C 	0.1914	0.0267	0.5884	-0.146
Mof_H 	H 	0.2283	0.06	0.5615	0.104
Mof_C 	C 	0.1992	0.0625	0.6785	0.002
Mof_C 	C 	0.1454	0.0173	0.7188	-0.062
Mof_H 	H 	0.1502	0.0436	0.7807	0.074
Mof_C 	C 	0.2728	0.1489	0.7307	0.305
Mof_O 	O 	0.0273	0.9126	0.793	-0.477
Mof_O 	O 	0.9745	0.8003	0.6653	-0.513
Mof_O 	O 	0.2976	0.1718	0.8093	-0.404
Mof_O 	O 	0.3122	0.194	0.6907	-0.548
Mof_O 	O 	0.1177	0.9004	0.4482	-0.225
Mof_In	In	0.91822	0.78179	0.77868	2.493
Mof_In	In	0.42876	0.28934	0.79121	2.507
_end
