data_functionalizedCrystal
_audit_creation_method	'EQeq! by Chris Wilmer'
_symmetry_space_group_name_H-M	'P1'
_symmetry_Int_Tables_number	1
_symmetry_cell_setting	triclinic
loop_
_symmetry_equiv_pos_as_xyz
  x,y,z
_cell_length_a	10.6897
_cell_length_b	8.4857
_cell_length_c	17.2965
_cell_angle_alpha	90
_cell_angle_beta	90
_cell_angle_gamma	90
loop_
_atom_site_label
_atom_site_type_symbol
_atom_site_fract_x
_atom_site_fract_y
_atom_site_fract_z
_atom_site_charge
Mof_Zn	Zn	0.86911	0.62885	0.30064	1.24
Mof_Zn	Zn	0.08628	0.35019	0.13499	1.238
Mof_P 	P 	0.14628	0.65367	0.23569	0.455
Mof_P 	P 	0.9732	0.5342	0.46465	0.516
Mof_P 	P 	0.80705	0.39957	0.16187	0.503
Mof_O 	O 	0.0247	0.7183	0.266	-0.445
Mof_O 	O 	0.2557	0.6903	0.2884	-0.405
Mof_O 	O 	0.1435	0.4789	0.221	-0.436
Mof_O 	O 	0.9171	0.5193	0.5447	-0.442
Mof_O 	O 	0.875	0.5773	0.4082	-0.444
Mof_O 	O 	0.0431	0.3897	0.4428	-0.232
Mof_O 	O 	0.9131	0.2814	0.1562	-0.435
Mof_O 	O 	0.7962	0.4575	0.2444	-0.448
Mof_O 	O 	0.6845	0.3389	0.1322	-0.43
Mof_H 	H 	0.1616	0.7167	0.1599	-0.029
Mof_H 	H 	0.0516	0.621	0.4651	-0.094
Mof_H 	H 	0.8238	0.5029	0.1216	-0.097
Mof_Zn	Zn	0.13089	0.37115	0.80064	1.239
Mof_Zn	Zn	0.91372	0.64981	0.63499	1.236
Mof_P 	P 	0.85372	0.34633	0.73569	0.454
Mof_P 	P 	0.0268	0.4658	0.96465	0.501
Mof_P 	P 	0.19295	0.60043	0.66187	0.503
Mof_O 	O 	0.9753	0.2817	0.766	-0.447
Mof_O 	O 	0.7443	0.3097	0.7884	-0.407
Mof_O 	O 	0.8565	0.5211	0.721	-0.437
Mof_O 	O 	0.0829	0.4807	0.0447	-0.428
Mof_O 	O 	0.125	0.4227	0.9082	-0.446
Mof_O 	O 	0.9569	0.6103	0.9428	-0.236
Mof_O 	O 	0.0869	0.7186	0.6562	-0.437
Mof_O 	O 	0.2038	0.5425	0.7444	-0.449
Mof_O 	O 	0.3155	0.6611	0.6322	-0.433
Mof_H 	H 	0.8384	0.2833	0.6599	-0.03
Mof_H 	H 	0.9484	0.379	0.9651	-0.096
Mof_H 	H 	0.1762	0.4971	0.6216	-0.099
Mof_Zn	Zn	0.36911	0.87115	0.30064	1.239
Mof_Zn	Zn	0.58628	0.14981	0.13499	1.237
Mof_P 	P 	0.64628	0.84633	0.23569	0.452
Mof_P 	P 	0.4732	0.9658	0.46465	0.517
Mof_P 	P 	0.30705	0.10043	0.16187	0.505
Mof_O 	O 	0.5247	0.7817	0.266	-0.446
Mof_O 	O 	0.7557	0.8097	0.2884	-0.406
Mof_O 	O 	0.6435	0.0211	0.221	-0.434
Mof_O 	O 	0.4171	0.9807	0.5447	-0.442
Mof_O 	O 	0.375	0.9227	0.4082	-0.444
Mof_O 	O 	0.5431	0.1103	0.4428	-0.233
Mof_O 	O 	0.4131	0.2186	0.1562	-0.435
Mof_O 	O 	0.2962	0.0425	0.2444	-0.448
Mof_O 	O 	0.1845	0.1611	0.1322	-0.43
Mof_H 	H 	0.6616	0.7833	0.1599	-0.029
Mof_H 	H 	0.5516	0.879	0.4651	-0.095
Mof_H 	H 	0.3238	0.9971	0.1216	-0.097
Mof_Zn	Zn	0.63089	0.12885	0.80064	1.239
Mof_Zn	Zn	0.41372	0.85019	0.63499	1.236
Mof_P 	P 	0.35372	0.15367	0.73569	0.452
Mof_P 	P 	0.5268	0.0342	0.96465	0.501
Mof_P 	P 	0.69295	0.89957	0.66187	0.503
Mof_O 	O 	0.4753	0.2183	0.766	-0.448
Mof_O 	O 	0.2443	0.1903	0.7884	-0.408
Mof_O 	O 	0.3565	0.9789	0.721	-0.435
Mof_O 	O 	0.5829	0.0193	0.0447	-0.427
Mof_O 	O 	0.625	0.0773	0.9082	-0.445
Mof_O 	O 	0.4569	0.8897	0.9428	-0.235
Mof_O 	O 	0.5869	0.7814	0.6562	-0.437
Mof_O 	O 	0.7038	0.9575	0.7444	-0.449
Mof_O 	O 	0.8155	0.8389	0.6322	-0.434
Mof_H 	H 	0.3384	0.2167	0.6599	-0.031
Mof_H 	H 	0.4484	0.121	0.9651	-0.097
Mof_H 	H 	0.6762	0.0029	0.6216	-0.099
_end
