data_functionalizedCrystal
_audit_creation_method	'EQeq! by Chris Wilmer'
_symmetry_space_group_name_H-M	'P1'
_symmetry_Int_Tables_number	1
_symmetry_cell_setting	triclinic
loop_
_symmetry_equiv_pos_as_xyz
  x,y,z
_cell_length_a	17.5838
_cell_length_b	17.5838
_cell_length_c	17.5838
_cell_angle_alpha	96.8299
_cell_angle_beta	96.8299
_cell_angle_gamma	96.8299
loop_
_atom_site_label
_atom_site_type_symbol
_atom_site_fract_x
_atom_site_fract_y
_atom_site_fract_z
_atom_site_charge
Mof_Cu	Cu	0.30717	0.90466	0.90466	0.911
Mof_Cu	Cu	0.90466	0.30717	0.90466	0.911
Mof_Cu	Cu	0.90466	0.90466	0.30717	0.91
Mof_Cu	Cu	0.85178	0.16317	0.85178	0.908
Mof_Cu	Cu	0.85178	0.85178	0.16317	0.908
Mof_Cu	Cu	0.16317	0.85178	0.85178	0.908
Mof_H 	H 	0.2131	0.4881	0.8384	0.066
Mof_H 	H 	0.1836	0.6086	0.8302	0.035
Mof_H 	H 	0.4254	0.5675	0.9271	0.063
Mof_H 	H 	0.3953	0.692	0.9272	0.033
Mof_H 	H 	0.2353	0.3865	0.8965	0.08
Mof_H 	H 	0.1471	0.298	0.8881	0.045
Mof_H 	H 	0.8384	0.2131	0.4881	0.066
Mof_H 	H 	0.8302	0.1836	0.6086	0.035
Mof_H 	H 	0.9271	0.4254	0.5675	0.063
Mof_H 	H 	0.9272	0.3953	0.692	0.033
Mof_H 	H 	0.8965	0.2353	0.3865	0.08
Mof_H 	H 	0.8881	0.1471	0.298	0.045
Mof_H 	H 	0.4881	0.8384	0.2131	0.066
Mof_H 	H 	0.6086	0.8302	0.1836	0.035
Mof_H 	H 	0.5675	0.9271	0.4254	0.063
Mof_H 	H 	0.692	0.9272	0.3953	0.033
Mof_H 	H 	0.3865	0.8965	0.2353	0.08
Mof_H 	H 	0.298	0.8881	0.1471	0.045
Mof_H 	H 	0.4881	0.2131	0.8384	0.066
Mof_H 	H 	0.6086	0.1836	0.8302	0.035
Mof_H 	H 	0.5675	0.4254	0.9271	0.063
Mof_H 	H 	0.692	0.3953	0.9272	0.033
Mof_H 	H 	0.3865	0.2353	0.8965	0.08
Mof_H 	H 	0.298	0.1471	0.8881	0.045
Mof_H 	H 	0.2131	0.8384	0.4881	0.066
Mof_H 	H 	0.1836	0.8302	0.6086	0.035
Mof_H 	H 	0.4254	0.9271	0.5675	0.063
Mof_H 	H 	0.3953	0.9272	0.692	0.033
Mof_H 	H 	0.2353	0.8965	0.3865	0.08
Mof_H 	H 	0.1471	0.8881	0.298	0.045
Mof_H 	H 	0.8384	0.4881	0.2131	0.066
Mof_H 	H 	0.8302	0.6086	0.1836	0.035
Mof_H 	H 	0.9271	0.5675	0.4254	0.063
Mof_H 	H 	0.9272	0.692	0.3953	0.033
Mof_H 	H 	0.8965	0.3865	0.2353	0.08
Mof_H 	H 	0.8881	0.298	0.1471	0.045
Mof_H 	H 	0.45385	0.45385	0.8836	0.079
Mof_H 	H 	0.07015	0.07015	0.8737	0.06
Mof_H 	H 	0.8836	0.45385	0.45385	0.079
Mof_H 	H 	0.8737	0.07015	0.07015	0.06
Mof_H 	H 	0.45385	0.8836	0.45385	0.079
Mof_H 	H 	0.07015	0.8737	0.07015	0.06
Mof_C 	C 	0.2873	0.664	0.8829	-0.106
Mof_C 	C 	0.2514	0.5295	0.8571	-0.096
Mof_C 	C 	0.2323	0.6015	0.8528	0.036
Mof_C 	C 	0.3238	0.5117	0.8874	0.03
Mof_C 	C 	0.3748	0.574	0.9097	-0.098
Mof_C 	C 	0.3569	0.6506	0.9089	0.036
Mof_C 	C 	0.271	0.7461	0.8807	0.355
Mof_C 	C 	0.0142	0.2035	0.8803	0.348
Mof_C 	C 	0.343	0.4326	0.8867	0.073
Mof_C 	C 	0.2848	0.3739	0.8929	-0.137
Mof_C 	C 	0.0978	0.191	0.8842	-0.075
Mof_C 	C 	0.1571	0.2472	0.8881	-0
Mof_C 	C 	0.8829	0.2873	0.664	-0.106
Mof_C 	C 	0.8571	0.2514	0.5295	-0.096
Mof_C 	C 	0.8528	0.2323	0.6015	0.036
Mof_C 	C 	0.8874	0.3238	0.5117	0.03
Mof_C 	C 	0.9097	0.3748	0.574	-0.098
Mof_C 	C 	0.9089	0.3569	0.6506	0.036
Mof_C 	C 	0.8807	0.271	0.7461	0.355
Mof_C 	C 	0.8803	0.0142	0.2035	0.348
Mof_C 	C 	0.8867	0.343	0.4326	0.073
Mof_C 	C 	0.8929	0.2848	0.3739	-0.137
Mof_C 	C 	0.8842	0.0978	0.191	-0.075
Mof_C 	C 	0.8881	0.1571	0.2472	-0
Mof_C 	C 	0.664	0.8829	0.2873	-0.106
Mof_C 	C 	0.5295	0.8571	0.2514	-0.096
Mof_C 	C 	0.6015	0.8528	0.2323	0.036
Mof_C 	C 	0.5117	0.8874	0.3238	0.03
Mof_C 	C 	0.574	0.9097	0.3748	-0.098
Mof_C 	C 	0.6506	0.9089	0.3569	0.036
Mof_C 	C 	0.7461	0.8807	0.271	0.355
Mof_C 	C 	0.2035	0.8803	0.0142	0.348
Mof_C 	C 	0.4326	0.8867	0.343	0.073
Mof_C 	C 	0.3739	0.8929	0.2848	-0.137
Mof_C 	C 	0.191	0.8842	0.0978	-0.075
Mof_C 	C 	0.2472	0.8881	0.1571	-0
Mof_C 	C 	0.664	0.2873	0.8829	-0.106
Mof_C 	C 	0.5295	0.2514	0.8571	-0.096
Mof_C 	C 	0.6015	0.2323	0.8528	0.036
Mof_C 	C 	0.5117	0.3238	0.8874	0.03
Mof_C 	C 	0.574	0.3748	0.9097	-0.098
Mof_C 	C 	0.6506	0.3569	0.9089	0.036
Mof_C 	C 	0.7461	0.271	0.8807	0.355
Mof_C 	C 	0.2035	0.0142	0.8803	0.348
Mof_C 	C 	0.4326	0.343	0.8867	0.073
Mof_C 	C 	0.3739	0.2848	0.8929	-0.137
Mof_C 	C 	0.191	0.0978	0.8842	-0.075
Mof_C 	C 	0.2472	0.1571	0.8881	-0
Mof_C 	C 	0.2873	0.8829	0.664	-0.106
Mof_C 	C 	0.2514	0.8571	0.5295	-0.096
Mof_C 	C 	0.2323	0.8528	0.6015	0.036
Mof_C 	C 	0.3238	0.8874	0.5117	0.03
Mof_C 	C 	0.3748	0.9097	0.574	-0.098
Mof_C 	C 	0.3569	0.9089	0.6506	0.036
Mof_C 	C 	0.271	0.8807	0.7461	0.355
Mof_C 	C 	0.0142	0.8803	0.2035	0.348
Mof_C 	C 	0.343	0.8867	0.4326	0.073
Mof_C 	C 	0.2848	0.8929	0.3739	-0.137
Mof_C 	C 	0.0978	0.8842	0.191	-0.075
Mof_C 	C 	0.1571	0.8881	0.2472	-0
Mof_C 	C 	0.8829	0.664	0.2873	-0.106
Mof_C 	C 	0.8571	0.5295	0.2514	-0.096
Mof_C 	C 	0.8528	0.6015	0.2323	0.036
Mof_C 	C 	0.8874	0.5117	0.3238	0.03
Mof_C 	C 	0.9097	0.574	0.3748	-0.098
Mof_C 	C 	0.9089	0.6506	0.3569	0.036
Mof_C 	C 	0.8807	0.7461	0.271	0.355
Mof_C 	C 	0.8803	0.2035	0.0142	0.348
Mof_C 	C 	0.8867	0.4326	0.343	0.073
Mof_C 	C 	0.8929	0.3739	0.2848	-0.137
Mof_C 	C 	0.8842	0.191	0.0978	-0.075
Mof_C 	C 	0.8881	0.2472	0.1571	-0
Mof_C 	C 	0.41425	0.41425	0.8854	-0.143
Mof_C 	C 	0.29655	0.29655	0.894	0.085
Mof_C 	C 	0.23235	0.23235	0.8922	-0.032
Mof_C 	C 	0.11049	0.1105	0.87941	0.009
Mof_C 	C 	0.8854	0.41425	0.41425	-0.143
Mof_C 	C 	0.894	0.29655	0.29655	0.084
Mof_C 	C 	0.8922	0.23235	0.23235	-0.032
Mof_C 	C 	0.87941	0.11049	0.11049	0.009
Mof_C 	C 	0.41425	0.8854	0.41425	-0.143
Mof_C 	C 	0.29655	0.894	0.29655	0.084
Mof_C 	C 	0.23235	0.8922	0.23235	-0.032
Mof_C 	C 	0.11049	0.87941	0.11049	0.009
Mof_O 	O 	0.3233	0.7996	0.9012	-0.423
Mof_O 	O 	0.9598	0.1491	0.8571	-0.409
Mof_O 	O 	0.00628	0.27395	0.90072	-0.395
Mof_O 	O 	0.19869	0.75245	0.85642	-0.399
Mof_O 	O 	0.9012	0.3233	0.7996	-0.423
Mof_O 	O 	0.8571	0.9598	0.1491	-0.409
Mof_O 	O 	0.90072	0.00628	0.27395	-0.395
Mof_O 	O 	0.85642	0.19869	0.75245	-0.399
Mof_O 	O 	0.7996	0.9012	0.3233	-0.423
Mof_O 	O 	0.1491	0.8571	0.9598	-0.409
Mof_O 	O 	0.27395	0.90072	0.00628	-0.395
Mof_O 	O 	0.75245	0.85642	0.19869	-0.399
Mof_O 	O 	0.7996	0.3233	0.9012	-0.423
Mof_O 	O 	0.1491	0.9598	0.8571	-0.409
Mof_O 	O 	0.27395	0.00628	0.90072	-0.395
Mof_O 	O 	0.75245	0.19869	0.85642	-0.399
Mof_O 	O 	0.3233	0.9012	0.7996	-0.423
Mof_O 	O 	0.9598	0.8571	0.1491	-0.409
Mof_O 	O 	0.00628	0.90072	0.27395	-0.395
Mof_O 	O 	0.19869	0.85642	0.75245	-0.399
Mof_O 	O 	0.9012	0.7996	0.3233	-0.423
Mof_O 	O 	0.8571	0.1491	0.9598	-0.409
Mof_O 	O 	0.90072	0.27395	0.00628	-0.395
Mof_O 	O 	0.85642	0.75245	0.19869	-0.399
_end
