# CIF file generated by openbabel 3.1.0, see https://openbabel.org
data_I
_chemical_name_common 'image0'
_cell_length_a 34.6711
_cell_length_b 34.6711
_cell_length_c 8.4273
_cell_angle_alpha 90
_cell_angle_beta 90
_cell_angle_gamma 120
_space_group_name_H-M_alt 'P 1'
_space_group_name_Hall 'P 1'
loop_
    _symmetry_equiv_pos_as_xyz
    x,y,z
loop_
    _atom_site_label
    _atom_site_type_symbol
    _atom_site_fract_x
    _atom_site_fract_y
    _atom_site_fract_z
    _atom_site_occupancy
    Ag1      Ag       0.14648    0.31740    0.50825    1.000
    O1       O        0.33431    0.32790    0.75380    1.000
    N1       N        0.20503    0.33641    0.65900    1.000
    N2       N        0.27698    0.19613    0.60700    1.000
    C1       C        0.21861    0.37150    0.75730    1.000
    H1       H        0.20180    0.38630    0.76190    1.000
    C2       C        0.25614    0.38686    0.85200    1.000
    H2       H        0.26470    0.41160    0.92020    1.000
    C3       C        0.28093    0.36583    0.84620    1.000
    H3       H        0.30720    0.37630    0.90830    1.000
    C4       C        0.26676    0.32891    0.74760    1.000
    C5       C        0.22857    0.31526    0.65580    1.000
    H4       H        0.21890    0.29010    0.58850    1.000
    C6       C        0.29405    0.30658    0.73770    1.000
    C7       C        0.27114    0.25732    0.71240    1.000
    C8       C        0.23044    0.22813    0.78130    1.000
    H5       H        0.21440    0.23900    0.83970    1.000
    C9       C        0.21370    0.18281    0.76290    1.000
    H6       H        0.18610    0.16200    0.81010    1.000
    C10      C        0.23748    0.16826    0.67530    1.000
    H7       H        0.22550    0.13710    0.66230    1.000
    C11      C        0.29334    0.23987    0.62690    1.000
    H8       H        0.32130    0.25990    0.58070    1.000
    Ag2      Ag       0.68260    0.82907    0.50825    1.000
    O2       O        0.67210    0.00641    0.75380    1.000
    N3       N        0.66359    0.86862    0.65900    1.000
    N4       N        0.80387    0.08085    0.60700    1.000
    C12      C        0.62850    0.84711    0.75730    1.000
    H9       H        0.61370    0.81550    0.76190    1.000
    C13      C        0.61314    0.86928    0.85200    1.000
    H10      H        0.58840    0.85310    0.92020    1.000
    C14      C        0.63417    0.91510    0.84620    1.000
    H11      H        0.62370    0.93090    0.90830    1.000
    C15      C        0.67109    0.93785    0.74760    1.000
    C16      C        0.68474    0.91331    0.65580    1.000
    H12      H        0.70990    0.92880    0.58850    1.000
    C17      C        0.69342    0.98747    0.73770    1.000
    C18      C        0.74268    0.01382    0.71240    1.000
    C19      C        0.77187    0.00231    0.78130    1.000
    H13      H        0.76100    0.97540    0.83970    1.000
    C20      C        0.81719    0.03089    0.76290    1.000
    H14      H        0.83800    0.02410    0.81010    1.000
    C21      C        0.83174    0.06922    0.67530    1.000
    H15      H        0.86290    0.08840    0.66230    1.000
    C22      C        0.76013    0.05347    0.62690    1.000
    H16      H        0.74010    0.06140    0.58070    1.000
    Ag3      Ag       0.17093    0.85352    0.50825    1.000
    O3       O        0.99359    0.66569    0.75380    1.000
    N5       N        0.13138    0.79497    0.65900    1.000
    N6       N        0.91915    0.72302    0.60700    1.000
    C23      C        0.15289    0.78139    0.75730    1.000
    H17      H        0.18450    0.79820    0.76190    1.000
    C24      C        0.13072    0.74386    0.85200    1.000
    H18      H        0.14690    0.73530    0.92020    1.000
    C25      C        0.08490    0.71907    0.84620    1.000
    H19      H        0.06910    0.69280    0.90830    1.000
    C26      C        0.06215    0.73324    0.74760    1.000
    C27      C        0.08669    0.77143    0.65580    1.000
    H20      H        0.07120    0.78110    0.58850    1.000
    C28      C        0.01253    0.70595    0.73770    1.000
    C29      C        0.98618    0.72886    0.71240    1.000
    C30      C        0.99769    0.76956    0.78130    1.000
    H21      H        0.02460    0.78560    0.83970    1.000
    C31      C        0.96911    0.78630    0.76290    1.000
    H22      H        0.97590    0.81390    0.81010    1.000
    C32      C        0.93078    0.76252    0.67530    1.000
    H23      H        0.91160    0.77450    0.66230    1.000
    C33      C        0.94653    0.70666    0.62690    1.000
    H24      H        0.93860    0.67870    0.58070    1.000
    Ag4      Ag       0.85352    0.68260    0.49175    1.000
    O4       O        0.66569    0.67210    0.24620    1.000
    N7       N        0.79497    0.66359    0.34100    1.000
    N8       N        0.72302    0.80387    0.39300    1.000
    C34      C        0.78139    0.62850    0.24270    1.000
    H25      H        0.79820    0.61370    0.23810    1.000
    C35      C        0.74386    0.61314    0.14800    1.000
    H26      H        0.73530    0.58840    0.07980    1.000
    C36      C        0.71907    0.63417    0.15380    1.000
    H27      H        0.69280    0.62370    0.09170    1.000
    C37      C        0.73324    0.67109    0.25240    1.000
    C38      C        0.77143    0.68474    0.34420    1.000
    H28      H        0.78110    0.70990    0.41150    1.000
    C39      C        0.70595    0.69342    0.26230    1.000
    C40      C        0.72886    0.74268    0.28760    1.000
    C41      C        0.76956    0.77187    0.21870    1.000
    H29      H        0.78560    0.76100    0.16030    1.000
    C42      C        0.78630    0.81719    0.23710    1.000
    H30      H        0.81390    0.83800    0.18990    1.000
    C43      C        0.76252    0.83174    0.32470    1.000
    H31      H        0.77450    0.86290    0.33770    1.000
    C44      C        0.70666    0.76013    0.37310    1.000
    H32      H        0.67870    0.74010    0.41930    1.000
    Ag5      Ag       0.31740    0.17093    0.49175    1.000
    O5       O        0.32790    0.99359    0.24620    1.000
    N9       N        0.33641    0.13138    0.34100    1.000
    N10      N        0.19613    0.91915    0.39300    1.000
    C45      C        0.37150    0.15289    0.24270    1.000
    H33      H        0.38630    0.18450    0.23810    1.000
    C46      C        0.38686    0.13072    0.14800    1.000
    H34      H        0.41160    0.14690    0.07980    1.000
    C47      C        0.36583    0.08490    0.15380    1.000
    H35      H        0.37630    0.06910    0.09170    1.000
    C48      C        0.32891    0.06215    0.25240    1.000
    C49      C        0.31526    0.08669    0.34420    1.000
    H36      H        0.29010    0.07120    0.41150    1.000
    C50      C        0.30658    0.01253    0.26230    1.000
    C51      C        0.25732    0.98618    0.28760    1.000
    C52      C        0.22813    0.99769    0.21870    1.000
    H37      H        0.23900    0.02460    0.16030    1.000
    C53      C        0.18281    0.96911    0.23710    1.000
    H38      H        0.16200    0.97590    0.18990    1.000
    C54      C        0.16826    0.93078    0.32470    1.000
    H39      H        0.13710    0.91160    0.33770    1.000
    C55      C        0.23987    0.94653    0.37310    1.000
    H40      H        0.25990    0.93860    0.41930    1.000
    Ag6      Ag       0.82907    0.14648    0.49175    1.000
    O6       O        0.00641    0.33431    0.24620    1.000
    N11      N        0.86862    0.20503    0.34100    1.000
    N12      N        0.08085    0.27698    0.39300    1.000
    C56      C        0.84711    0.21861    0.24270    1.000
    H41      H        0.81550    0.20180    0.23810    1.000
    C57      C        0.86928    0.25614    0.14800    1.000
    H42      H        0.85310    0.26470    0.07980    1.000
    C58      C        0.91510    0.28093    0.15380    1.000
    H43      H        0.93090    0.30720    0.09170    1.000
    C59      C        0.93785    0.26676    0.25240    1.000
    C60      C        0.91331    0.22857    0.34420    1.000
    H44      H        0.92880    0.21890    0.41150    1.000
    C61      C        0.98747    0.29405    0.26230    1.000
    C62      C        0.01382    0.27114    0.28760    1.000
    C63      C        0.00231    0.23044    0.21870    1.000
    H45      H        0.97540    0.21440    0.16030    1.000
    C64      C        0.03089    0.21370    0.23710    1.000
    H46      H        0.02410    0.18610    0.18990    1.000
    C65      C        0.06922    0.23748    0.32470    1.000
    H47      H        0.08840    0.22550    0.33770    1.000
    C66      C        0.05347    0.29334    0.37310    1.000
    H48      H        0.06140    0.32130    0.41930    1.000
    Ag7      Ag       0.81314    0.65074    0.84158    1.000
    O7       O        0.00098    0.66123    0.08713    1.000
    N13      N        0.87170    0.66974    0.99233    1.000
    N14      N        0.94365    0.52946    0.94033    1.000
    C67      C        0.88528    0.70483    0.09063    1.000
    H49      H        0.86847    0.71963    0.09523    1.000
    C68      C        0.92281    0.72019    0.18533    1.000
    H50      H        0.93137    0.74493    0.25353    1.000
    C69      C        0.94760    0.69916    0.17953    1.000
    H51      H        0.97387    0.70963    0.24163    1.000
    C70      C        0.93343    0.66224    0.08093    1.000
    C71      C        0.89524    0.64859    0.98913    1.000
    H52      H        0.88557    0.62343    0.92183    1.000
    C72      C        0.96072    0.63991    0.07103    1.000
    C73      C        0.93781    0.59065    0.04573    1.000
    C74      C        0.89711    0.56146    0.11463    1.000
    H53      H        0.88107    0.57233    0.17303    1.000
    C75      C        0.88037    0.51614    0.09623    1.000
    H54      H        0.85277    0.49533    0.14343    1.000
    C76      C        0.90415    0.50159    0.00863    1.000
    H55      H        0.89217    0.47043    0.99563    1.000
    C77      C        0.96001    0.57320    0.96023    1.000
    H56      H        0.98797    0.59323    0.91403    1.000
    Ag8      Ag       0.34926    0.16241    0.84158    1.000
    O8       O        0.33877    0.33974    0.08713    1.000
    N15      N        0.33026    0.20195    0.99233    1.000
    N16      N        0.47054    0.41418    0.94033    1.000
    C78      C        0.29517    0.18044    0.09063    1.000
    H57      H        0.28037    0.14883    0.09523    1.000
    C79      C        0.27981    0.20261    0.18533    1.000
    H58      H        0.25507    0.18643    0.25353    1.000
    C80      C        0.30084    0.24843    0.17953    1.000
    H59      H        0.29037    0.26423    0.24163    1.000
    C81      C        0.33776    0.27118    0.08093    1.000
    C82      C        0.35141    0.24664    0.98913    1.000
    H60      H        0.37657    0.26213    0.92183    1.000
    C83      C        0.36009    0.32080    0.07103    1.000
    C84      C        0.40935    0.34715    0.04573    1.000
    C85      C        0.43854    0.33564    0.11463    1.000
    H61      H        0.42767    0.30873    0.17303    1.000
    C86      C        0.48386    0.36422    0.09623    1.000
    H62      H        0.50467    0.35743    0.14343    1.000
    C87      C        0.49841    0.40255    0.00863    1.000
    H63      H        0.52957    0.42173    0.99563    1.000
    C88      C        0.42680    0.38680    0.96023    1.000
    H64      H        0.40677    0.39473    0.91403    1.000
    Ag9      Ag       0.83759    0.18686    0.84158    1.000
    O9       O        0.66026    0.99902    0.08713    1.000
    N17      N        0.79805    0.12830    0.99233    1.000
    N18      N        0.58582    0.05635    0.94033    1.000
    C89      C        0.81956    0.11472    0.09063    1.000
    H65      H        0.85117    0.13153    0.09523    1.000
    C90      C        0.79739    0.07719    0.18533    1.000
    H66      H        0.81357    0.06863    0.25353    1.000
    C91      C        0.75157    0.05240    0.17953    1.000
    H67      H        0.73577    0.02613    0.24163    1.000
    C92      C        0.72882    0.06657    0.08093    1.000
    C93      C        0.75336    0.10476    0.98913    1.000
    H68      H        0.73787    0.11443    0.92183    1.000
    C94      C        0.67920    0.03928    0.07103    1.000
    C95      C        0.65285    0.06219    0.04573    1.000
    C96      C        0.66436    0.10289    0.11463    1.000
    H69      H        0.69127    0.11893    0.17303    1.000
    C97      C        0.63578    0.11963    0.09623    1.000
    H70      H        0.64257    0.14723    0.14343    1.000
    C98      C        0.59745    0.09585    0.00863    1.000
    H71      H        0.57827    0.10783    0.99563    1.000
    C99      C        0.61320    0.03999    0.96023    1.000
    H72      H        0.60527    0.01203    0.91403    1.000
    Ag10     Ag       0.52019    0.01593    0.82508    1.000
    O10      O        0.33236    0.00543    0.57953    1.000
    N19      N        0.46164    0.99692    0.67433    1.000
    N20      N        0.38969    0.13720    0.72633    1.000
    C100     C        0.44806    0.96183    0.57603    1.000
    H73      H        0.46487    0.94703    0.57143    1.000
    C101     C        0.41053    0.94647    0.48133    1.000
    H74      H        0.40197    0.92173    0.41313    1.000
    C102     C        0.38574    0.96750    0.48713    1.000
    H75      H        0.35947    0.95703    0.42503    1.000
    C103     C        0.39991    0.00442    0.58573    1.000
    C104     C        0.43810    0.01807    0.67753    1.000
    H76      H        0.44777    0.04323    0.74483    1.000
    C105     C        0.37262    0.02675    0.59563    1.000
    C106     C        0.39553    0.07601    0.62093    1.000
    C107     C        0.43623    0.10520    0.55203    1.000
    H77      H        0.45227    0.09433    0.49363    1.000
    C108     C        0.45297    0.15052    0.57043    1.000
    H78      H        0.48057    0.17133    0.52323    1.000
    C109     C        0.42919    0.16507    0.65803    1.000
    H79      H        0.44117    0.19623    0.67103    1.000
    C110     C        0.37333    0.09346    0.70643    1.000
    H80      H        0.34537    0.07343    0.75263    1.000
    Ag11     Ag       0.98407    0.50426    0.82508    1.000
    O11      O        0.99457    0.32692    0.57953    1.000
    N21      N        0.00308    0.46471    0.67433    1.000
    N22      N        0.86280    0.25248    0.72633    1.000
    C111     C        0.03817    0.48622    0.57603    1.000
    H81      H        0.05297    0.51783    0.57143    1.000
    C112     C        0.05353    0.46405    0.48133    1.000
    H82      H        0.07827    0.48023    0.41313    1.000
    C113     C        0.03250    0.41823    0.48713    1.000
    H83      H        0.04297    0.40243    0.42503    1.000
    C114     C        0.99558    0.39548    0.58573    1.000
    C115     C        0.98193    0.42002    0.67753    1.000
    H84      H        0.95677    0.40453    0.74483    1.000
    C116     C        0.97325    0.34586    0.59563    1.000
    C117     C        0.92399    0.31951    0.62093    1.000
    C118     C        0.89480    0.33102    0.55203    1.000
    H85      H        0.90567    0.35793    0.49363    1.000
    C119     C        0.84948    0.30244    0.57043    1.000
    H86      H        0.82867    0.30923    0.52323    1.000
    C120     C        0.83493    0.26411    0.65803    1.000
    H87      H        0.80377    0.24493    0.67103    1.000
    C121     C        0.90654    0.27986    0.70643    1.000
    H88      H        0.92657    0.27193    0.75263    1.000
    Ag12     Ag       0.49574    0.47981    0.82508    1.000
    O12      O        0.67308    0.66764    0.57953    1.000
    N23      N        0.53529    0.53836    0.67433    1.000
    N24      N        0.74752    0.61031    0.72633    1.000
    C122     C        0.51378    0.55194    0.57603    1.000
    H89      H        0.48217    0.53513    0.57143    1.000
    C123     C        0.53595    0.58947    0.48133    1.000
    H90      H        0.51977    0.59803    0.41313    1.000
    C124     C        0.58177    0.61426    0.48713    1.000
    H91      H        0.59757    0.64053    0.42503    1.000
    C125     C        0.60452    0.60009    0.58573    1.000
    C126     C        0.57998    0.56190    0.67753    1.000
    H92      H        0.59547    0.55223    0.74483    1.000
    C127     C        0.65414    0.62738    0.59563    1.000
    C128     C        0.68049    0.60447    0.62093    1.000
    C129     C        0.66898    0.56377    0.55203    1.000
    H93      H        0.64207    0.54773    0.49363    1.000
    C130     C        0.69756    0.54703    0.57043    1.000
    H94      H        0.69077    0.51943    0.52323    1.000
    C131     C        0.73589    0.57081    0.65803    1.000
    H95      H        0.75507    0.55883    0.67103    1.000
    C132     C        0.72014    0.62667    0.70643    1.000
    H96      H        0.72807    0.65463    0.75263    1.000
    Ag13     Ag       0.47981    0.98407    0.17492    1.000
    O13      O        0.66764    0.99457    0.42047    1.000
    N25      N        0.53836    0.00308    0.32567    1.000
    N26      N        0.61031    0.86280    0.27367    1.000
    C133     C        0.55194    0.03817    0.42397    1.000
    H97      H        0.53513    0.05297    0.42857    1.000
    C134     C        0.58947    0.05353    0.51867    1.000
    H98      H        0.59803    0.07827    0.58687    1.000
    C135     C        0.61426    0.03250    0.51287    1.000
    H99      H        0.64053    0.04297    0.57497    1.000
    C136     C        0.60009    0.99558    0.41427    1.000
    C137     C        0.56190    0.98193    0.32247    1.000
    H100     H        0.55223    0.95677    0.25517    1.000
    C138     C        0.62738    0.97325    0.40437    1.000
    C139     C        0.60447    0.92399    0.37907    1.000
    C140     C        0.56377    0.89480    0.44797    1.000
    H101     H        0.54773    0.90567    0.50637    1.000
    C141     C        0.54703    0.84948    0.42957    1.000
    H102     H        0.51943    0.82867    0.47677    1.000
    C142     C        0.57081    0.83493    0.34197    1.000
    H103     H        0.55883    0.80377    0.32897    1.000
    C143     C        0.62667    0.90654    0.29357    1.000
    H104     H        0.65463    0.92657    0.24737    1.000
    Ag14     Ag       0.01593    0.49574    0.17492    1.000
    O14      O        0.00543    0.67308    0.42047    1.000
    N27      N        0.99692    0.53529    0.32567    1.000
    N28      N        0.13720    0.74752    0.27367    1.000
    C144     C        0.96183    0.51378    0.42397    1.000
    H105     H        0.94703    0.48217    0.42857    1.000
    C145     C        0.94647    0.53595    0.51867    1.000
    H106     H        0.92173    0.51977    0.58687    1.000
    C146     C        0.96750    0.58177    0.51287    1.000
    H107     H        0.95703    0.59757    0.57497    1.000
    C147     C        0.00442    0.60452    0.41427    1.000
    C148     C        0.01807    0.57998    0.32247    1.000
    H108     H        0.04323    0.59547    0.25517    1.000
    C149     C        0.02675    0.65414    0.40437    1.000
    C150     C        0.07601    0.68049    0.37907    1.000
    C151     C        0.10520    0.66898    0.44797    1.000
    H109     H        0.09433    0.64207    0.50637    1.000
    C152     C        0.15052    0.69756    0.42957    1.000
    H110     H        0.17133    0.69077    0.47677    1.000
    C153     C        0.16507    0.73589    0.34197    1.000
    H111     H        0.19623    0.75507    0.32897    1.000
    C154     C        0.09346    0.72014    0.29357    1.000
    H112     H        0.07343    0.72807    0.24737    1.000
    Ag15     Ag       0.50426    0.52019    0.17492    1.000
    O15      O        0.32692    0.33236    0.42047    1.000
    N29      N        0.46471    0.46164    0.32567    1.000
    N30      N        0.25248    0.38969    0.27367    1.000
    C155     C        0.48622    0.44806    0.42397    1.000
    H113     H        0.51783    0.46487    0.42857    1.000
    C156     C        0.46405    0.41053    0.51867    1.000
    H114     H        0.48023    0.40197    0.58687    1.000
    C157     C        0.41823    0.38574    0.51287    1.000
    H115     H        0.40243    0.35947    0.57497    1.000
    C158     C        0.39548    0.39991    0.41427    1.000
    C159     C        0.42002    0.43810    0.32247    1.000
    H116     H        0.40453    0.44777    0.25517    1.000
    C160     C        0.34586    0.37262    0.40437    1.000
    C161     C        0.31951    0.39553    0.37907    1.000
    C162     C        0.33102    0.43623    0.44797    1.000
    H117     H        0.35793    0.45227    0.50637    1.000
    C163     C        0.30244    0.45297    0.42957    1.000
    H118     H        0.30923    0.48057    0.47677    1.000
    C164     C        0.26411    0.42919    0.34197    1.000
    H119     H        0.24493    0.44117    0.32897    1.000
    C165     C        0.27986    0.37333    0.29357    1.000
    H120     H        0.27193    0.34537    0.24737    1.000
    Ag16     Ag       0.18686    0.34926    0.15842    1.000
    O16      O        0.99902    0.33877    0.91287    1.000
    N31      N        0.12830    0.33026    0.00767    1.000
    N32      N        0.05635    0.47054    0.05967    1.000
    C166     C        0.11472    0.29517    0.90937    1.000
    H121     H        0.13153    0.28037    0.90477    1.000
    C167     C        0.07719    0.27981    0.81467    1.000
    H122     H        0.06863    0.25507    0.74647    1.000
    C168     C        0.05240    0.30084    0.82047    1.000
    H123     H        0.02613    0.29037    0.75837    1.000
    C169     C        0.06657    0.33776    0.91907    1.000
    C170     C        0.10476    0.35141    0.01087    1.000
    H124     H        0.11443    0.37657    0.07817    1.000
    C171     C        0.03928    0.36009    0.92897    1.000
    C172     C        0.06219    0.40935    0.95427    1.000
    C173     C        0.10289    0.43854    0.88537    1.000
    H125     H        0.11893    0.42767    0.82697    1.000
    C174     C        0.11963    0.48386    0.90377    1.000
    H126     H        0.14723    0.50467    0.85657    1.000
    C175     C        0.09585    0.49841    0.99137    1.000
    H127     H        0.10783    0.52957    0.00437    1.000
    C176     C        0.03999    0.42680    0.03977    1.000
    H128     H        0.01203    0.40677    0.08597    1.000
    Ag17     Ag       0.65074    0.83759    0.15842    1.000
    O17      O        0.66123    0.66026    0.91287    1.000
    N33      N        0.66974    0.79805    0.00767    1.000
    N34      N        0.52946    0.58582    0.05967    1.000
    C177     C        0.70483    0.81956    0.90937    1.000
    H129     H        0.71963    0.85117    0.90477    1.000
    C178     C        0.72019    0.79739    0.81467    1.000
    H130     H        0.74493    0.81357    0.74647    1.000
    C179     C        0.69916    0.75157    0.82047    1.000
    H131     H        0.70963    0.73577    0.75837    1.000
    C180     C        0.66224    0.72882    0.91907    1.000
    C181     C        0.64859    0.75336    0.01087    1.000
    H132     H        0.62343    0.73787    0.07817    1.000
    C182     C        0.63991    0.67920    0.92897    1.000
    C183     C        0.59065    0.65285    0.95427    1.000
    C184     C        0.56146    0.66436    0.88537    1.000
    H133     H        0.57233    0.69127    0.82697    1.000
    C185     C        0.51614    0.63578    0.90377    1.000
    H134     H        0.49533    0.64257    0.85657    1.000
    C186     C        0.50159    0.59745    0.99137    1.000
    H135     H        0.47043    0.57827    0.00437    1.000
    C187     C        0.57320    0.61320    0.03977    1.000
    H136     H        0.59323    0.60527    0.08597    1.000
    Ag18     Ag       0.16241    0.81314    0.15842    1.000
    O18      O        0.33974    0.00098    0.91287    1.000
    N35      N        0.20195    0.87170    0.00767    1.000
    N36      N        0.41418    0.94365    0.05967    1.000
    C188     C        0.18044    0.88528    0.90937    1.000
    H137     H        0.14883    0.86847    0.90477    1.000
    C189     C        0.20261    0.92281    0.81467    1.000
    H138     H        0.18643    0.93137    0.74647    1.000
    C190     C        0.24843    0.94760    0.82047    1.000
    H139     H        0.26423    0.97387    0.75837    1.000
    C191     C        0.27118    0.93343    0.91907    1.000
    C192     C        0.24664    0.89524    0.01087    1.000
    H140     H        0.26213    0.88557    0.07817    1.000
    C193     C        0.32080    0.96072    0.92897    1.000
    C194     C        0.34715    0.93781    0.95427    1.000
    C195     C        0.33564    0.89711    0.88537    1.000
    H141     H        0.30873    0.88107    0.82697    1.000
    C196     C        0.36422    0.88037    0.90377    1.000
    H142     H        0.35743    0.85277    0.85657    1.000
    C197     C        0.40255    0.90415    0.99137    1.000
    H143     H        0.42173    0.89217    0.00437    1.000
    C198     C        0.38680    0.96001    0.03977    1.000
    H144     H        0.39473    0.98797    0.08597    1.000
