data_functionalizedCrystal
_audit_creation_method	'EQeq! by Chris Wilmer'
_symmetry_space_group_name_H-M	'P1'
_symmetry_Int_Tables_number	1
_symmetry_cell_setting	triclinic
loop_
_symmetry_equiv_pos_as_xyz
  x,y,z
_cell_length_a	28.965
_cell_length_b	28.965
_cell_length_c	12.4113
_cell_angle_alpha	90
_cell_angle_beta	90
_cell_angle_gamma	90
loop_
_atom_site_label
_atom_site_type_symbol
_atom_site_fract_x
_atom_site_fract_y
_atom_site_fract_z
_atom_site_charge
Mof_Na	Na	0.70441	1e-05	0.99999	2.831
Mof_O 	O 	0.74397	0.05452	0.55949	-1.067
Mof_O 	O 	0.69561	0.00619	0.19024	-1.063
Mof_O 	O 	0.69572	0.09579	0.65398	-0.687
Mof_O 	O 	0.65419	0.05428	0.09597	-0.685
Mof_N 	N 	0.50008	0.17966	0.37113	-0.343
Mof_C 	C 	0.62059	0.12946	0.37501	-0.064
Mof_C 	C 	0.59859	0.2121	0.37738	0.055
Mof_C 	C 	0.53795	0.15153	0.37276	0.056
Mof_C 	C 	0.58383	0.16618	0.37502	-0.103
Mof_C 	C 	0.68821	0.06182	0.3751	0.265
Mof_H 	H 	0.7114	0.0386	0.3752	-0.198
Mof_C 	C 	0.64601	0.12097	0.46617	0.079
Mof_H 	H 	0.6401	0.1383	0.5296	-0.005
Mof_C 	C 	0.62902	0.10405	0.28324	0.077
Mof_H 	H 	0.6117	0.11	0.2198	-0.004
Mof_C 	C 	0.66294	0.06943	0.28254	-0.304
Mof_C 	C 	0.6805	0.0871	0.46716	-0.305
Mof_C 	C 	0.47678	0.10365	0.37377	-0.078
Mof_H 	H 	0.4573	0.0773	0.3745	0.041
Mof_C 	C 	0.52323	0.10367	0.37367	-0.079
Mof_H 	H 	0.5427	0.0773	0.3741	0.041
Mof_C 	C 	0.70869	0.07891	0.56726	0.571
Mof_C 	C 	0.67119	0.04145	0.18245	0.572
Mof_Na	Na	0.20441	0.50001	0.49999	2.845
Mof_O 	O 	0.24397	0.55452	0.05949	-1.068
Mof_O 	O 	0.19561	0.50619	0.69024	-1.07
Mof_O 	O 	0.19572	0.59579	0.15398	-0.69
Mof_O 	O 	0.15419	0.55428	0.59597	-0.693
Mof_N 	N 	8e-05	0.67966	0.87113	-0.364
Mof_C 	C 	0.12059	0.62946	0.87501	-0.064
Mof_C 	C 	0.09859	0.7121	0.87738	0.055
Mof_C 	C 	0.03795	0.65153	0.87276	0.068
Mof_C 	C 	0.08383	0.66618	0.87502	-0.111
Mof_C 	C 	0.18821	0.56182	0.8751	0.265
Mof_H 	H 	0.2114	0.5386	0.8752	-0.198
Mof_C 	C 	0.14601	0.62097	0.96617	0.08
Mof_H 	H 	0.1401	0.6383	0.0296	-0.007
Mof_C 	C 	0.12902	0.60405	0.78324	0.077
Mof_H 	H 	0.1117	0.61	0.7198	-0.007
Mof_C 	C 	0.16294	0.56943	0.78254	-0.307
Mof_C 	C 	0.1805	0.5871	0.96716	-0.306
Mof_C 	C 	0.97678	0.60365	0.87377	-0.022
Mof_H 	H 	0.9573	0.5773	0.8745	0.028
Mof_C 	C 	0.02323	0.60367	0.87367	-0.14
Mof_H 	H 	0.0427	0.5773	0.8741	0.055
Mof_C 	C 	0.20869	0.57891	0.06726	0.57
Mof_C 	C 	0.17119	0.54145	0.68245	0.573
Mof_Na	Na	0.79559	0.99999	0.49999	2.856
Mof_O 	O 	0.75603	0.94548	0.05949	-1.065
Mof_O 	O 	0.80439	0.99381	0.69024	-1.067
Mof_O 	O 	0.80428	0.90421	0.15398	-0.686
Mof_O 	O 	0.84581	0.94572	0.59597	-0.688
Mof_N 	N 	0.99992	0.82034	0.87113	-0.321
Mof_C 	C 	0.87941	0.87054	0.87501	-0.069
Mof_C 	C 	0.90141	0.7879	0.87738	0.053
Mof_C 	C 	0.96205	0.84847	0.87276	0.043
Mof_C 	C 	0.91617	0.83382	0.87502	-0.093
Mof_C 	C 	0.81179	0.93818	0.8751	0.263
Mof_H 	H 	0.7886	0.9614	0.8752	-0.196
Mof_C 	C 	0.85399	0.87903	0.96617	0.086
Mof_H 	H 	0.8599	0.8617	0.0296	-0.007
Mof_C 	C 	0.87098	0.89595	0.78324	0.08
Mof_H 	H 	0.8883	0.89	0.7198	-0.002
Mof_C 	C 	0.83706	0.93057	0.78254	-0.304
Mof_C 	C 	0.8195	0.9129	0.96716	-0.302
Mof_C 	C 	0.02322	0.89635	0.87377	-0.134
Mof_H 	H 	0.0427	0.9227	0.8745	0.053
Mof_C 	C 	0.97677	0.89633	0.87367	-0.017
Mof_H 	H 	0.9573	0.9227	0.8741	0.027
Mof_C 	C 	0.79131	0.92109	0.06726	0.566
Mof_C 	C 	0.82881	0.95855	0.68245	0.573
Mof_Na	Na	0.29559	0.49999	0.99999	2.85
Mof_O 	O 	0.25603	0.44548	0.55949	-1.067
Mof_O 	O 	0.30439	0.49381	0.19024	-1.069
Mof_O 	O 	0.30428	0.40421	0.65398	-0.689
Mof_O 	O 	0.34581	0.44572	0.09597	-0.69
Mof_N 	N 	0.49992	0.32034	0.37113	-0.344
Mof_C 	C 	0.37941	0.37054	0.37501	-0.065
Mof_C 	C 	0.40141	0.2879	0.37738	0.054
Mof_C 	C 	0.46205	0.34847	0.37276	0.055
Mof_C 	C 	0.41617	0.33382	0.37502	-0.103
Mof_C 	C 	0.31179	0.43818	0.3751	0.264
Mof_H 	H 	0.2886	0.4614	0.3752	-0.198
Mof_C 	C 	0.35399	0.37903	0.46617	0.079
Mof_H 	H 	0.3599	0.3617	0.5296	-0.005
Mof_C 	C 	0.37098	0.39595	0.28324	0.078
Mof_H 	H 	0.3883	0.39	0.2198	-0.004
Mof_C 	C 	0.33706	0.43057	0.28254	-0.305
Mof_C 	C 	0.3195	0.4129	0.46716	-0.305
Mof_C 	C 	0.52322	0.39635	0.37377	-0.078
Mof_H 	H 	0.5427	0.4227	0.3745	0.04
Mof_C 	C 	0.47677	0.39633	0.37367	-0.079
Mof_H 	H 	0.4573	0.4227	0.3741	0.041
Mof_C 	C 	0.29131	0.42109	0.56726	0.57
Mof_C 	C 	0.32881	0.45855	0.18245	0.573
Mof_Na	Na	0.74999	0.95441	0.24999	2.845
Mof_O 	O 	0.69548	0.99397	0.80949	-1.063
Mof_O 	O 	0.74381	0.94561	0.44024	-1.07
Mof_O 	O 	0.65421	0.94572	0.90398	-0.684
Mof_O 	O 	0.69572	0.90419	0.34597	-0.69
Mof_N 	N 	0.57034	0.75008	0.62113	-0.344
Mof_C 	C 	0.62054	0.87059	0.62501	-0.065
Mof_C 	C 	0.5379	0.84859	0.62738	0.054
Mof_C 	C 	0.59847	0.78795	0.62276	0.055
Mof_C 	C 	0.58382	0.83383	0.62502	-0.103
Mof_C 	C 	0.68818	0.93821	0.6251	0.264
Mof_H 	H 	0.7114	0.9614	0.6252	-0.198
Mof_C 	C 	0.62903	0.89601	0.71617	0.079
Mof_H 	H 	0.6117	0.8901	0.7796	-0.004
Mof_C 	C 	0.64595	0.87902	0.53324	0.078
Mof_H 	H 	0.64	0.8617	0.4698	-0.004
Mof_C 	C 	0.68057	0.91294	0.53254	-0.305
Mof_C 	C 	0.6629	0.9305	0.71716	-0.304
Mof_C 	C 	0.64635	0.72678	0.62377	-0.078
Mof_H 	H 	0.6727	0.7073	0.6245	0.041
Mof_C 	C 	0.64633	0.77323	0.62367	-0.079
Mof_H 	H 	0.6727	0.7927	0.6241	0.041
Mof_C 	C 	0.67109	0.95869	0.81726	0.569
Mof_C 	C 	0.70855	0.92119	0.43245	0.574
Mof_Na	Na	0.24999	0.45441	0.74999	2.848
Mof_O 	O 	0.19548	0.49397	0.30949	-1.068
Mof_O 	O 	0.24381	0.44561	0.94024	-1.07
Mof_O 	O 	0.15421	0.44572	0.40398	-0.691
Mof_O 	O 	0.19572	0.40419	0.84597	-0.692
Mof_N 	N 	0.07034	0.25008	0.12113	-0.347
Mof_C 	C 	0.12054	0.37059	0.12501	-0.069
Mof_C 	C 	0.0379	0.34859	0.12738	0.042
Mof_C 	C 	0.09847	0.28795	0.12276	0.05
Mof_C 	C 	0.08382	0.33383	0.12502	-0.102
Mof_C 	C 	0.18818	0.43821	0.1251	0.266
Mof_H 	H 	0.2114	0.4614	0.1252	-0.199
Mof_C 	C 	0.12903	0.39601	0.21617	0.081
Mof_H 	H 	0.1117	0.3901	0.2796	-0.008
Mof_C 	C 	0.14595	0.37902	0.03324	0.082
Mof_H 	H 	0.14	0.3617	0.9698	-0.009
Mof_C 	C 	0.18057	0.41294	0.03254	-0.307
Mof_C 	C 	0.1629	0.4305	0.21716	-0.308
Mof_C 	C 	0.14635	0.22678	0.12377	-0.081
Mof_H 	H 	0.1727	0.2073	0.1245	0.041
Mof_C 	C 	0.14633	0.27323	0.12367	-0.077
Mof_H 	H 	0.1727	0.2927	0.1241	0.04
Mof_C 	C 	0.17109	0.45869	0.31726	0.571
Mof_C 	C 	0.20855	0.42119	0.93245	0.573
Mof_Na	Na	0.75001	0.04559	0.74999	2.847
Mof_O 	O 	0.80452	0.00603	0.30949	-1.065
Mof_O 	O 	0.75619	0.05439	0.94024	-1.067
Mof_O 	O 	0.84579	0.05428	0.40398	-0.685
Mof_O 	O 	0.80428	0.09581	0.84597	-0.687
Mof_N 	N 	0.92966	0.24992	0.12113	-0.337
Mof_C 	C 	0.87946	0.12941	0.12501	-0.065
Mof_C 	C 	0.9621	0.15141	0.12738	0.066
Mof_C 	C 	0.90153	0.21205	0.12276	0.06
Mof_C 	C 	0.91618	0.16617	0.12502	-0.102
Mof_C 	C 	0.81182	0.06179	0.1251	0.262
Mof_H 	H 	0.7886	0.0386	0.1252	-0.195
Mof_C 	C 	0.87097	0.10399	0.21617	0.079
Mof_H 	H 	0.8883	0.1099	0.2796	-0.002
Mof_C 	C 	0.85405	0.12098	0.03324	0.083
Mof_H 	H 	0.86	0.1383	0.9698	-0.007
Mof_C 	C 	0.81943	0.08706	0.03254	-0.3
Mof_C 	C 	0.8371	0.0695	0.21716	-0.302
Mof_C 	C 	0.85365	0.27322	0.12377	-0.075
Mof_H 	H 	0.8273	0.2927	0.1245	0.04
Mof_C 	C 	0.85367	0.22677	0.12367	-0.08
Mof_H 	H 	0.8273	0.2073	0.1241	0.042
Mof_C 	C 	0.82891	0.04131	0.31726	0.569
Mof_C 	C 	0.79145	0.07881	0.93245	0.568
Mof_Na	Na	0.25001	0.54559	0.24999	2.848
Mof_O 	O 	0.30452	0.50603	0.80949	-1.068
Mof_O 	O 	0.25619	0.55439	0.44024	-1.069
Mof_O 	O 	0.34579	0.55428	0.90398	-0.688
Mof_O 	O 	0.30428	0.59581	0.34597	-0.69
Mof_N 	N 	0.42966	0.74992	0.62113	-0.344
Mof_C 	C 	0.37946	0.62941	0.62501	-0.065
Mof_C 	C 	0.4621	0.65141	0.62738	0.054
Mof_C 	C 	0.40153	0.71205	0.62276	0.055
Mof_C 	C 	0.41618	0.66617	0.62502	-0.103
Mof_C 	C 	0.31182	0.56179	0.6251	0.264
Mof_H 	H 	0.2886	0.5386	0.6252	-0.198
Mof_C 	C 	0.37097	0.60399	0.71617	0.079
Mof_H 	H 	0.3883	0.6099	0.7796	-0.004
Mof_C 	C 	0.35405	0.62098	0.53324	0.078
Mof_H 	H 	0.36	0.6383	0.4698	-0.004
Mof_C 	C 	0.31943	0.58706	0.53254	-0.305
Mof_C 	C 	0.3371	0.5695	0.71716	-0.305
Mof_C 	C 	0.35365	0.77322	0.62377	-0.078
Mof_H 	H 	0.3273	0.7927	0.6245	0.04
Mof_C 	C 	0.35367	0.72677	0.62367	-0.079
Mof_H 	H 	0.3273	0.7073	0.6241	0.04
Mof_C 	C 	0.32891	0.54131	0.81726	0.57
Mof_C 	C 	0.29145	0.57881	0.43245	0.573
Mof_Na	Na	0.29559	0.99999	1e-05	2.831
Mof_O 	O 	0.25603	0.94548	0.44051	-1.067
Mof_O 	O 	0.30439	0.99381	0.80976	-1.064
Mof_O 	O 	0.30428	0.90421	0.34602	-0.688
Mof_O 	O 	0.34581	0.94572	0.90403	-0.685
Mof_N 	N 	0.49992	0.82034	0.62887	-0.344
Mof_C 	C 	0.37941	0.87054	0.62499	-0.064
Mof_C 	C 	0.40141	0.7879	0.62262	0.054
Mof_C 	C 	0.46205	0.84847	0.62724	0.055
Mof_C 	C 	0.41617	0.83382	0.62498	-0.104
Mof_C 	C 	0.31179	0.93818	0.6249	0.263
Mof_H 	H 	0.2886	0.9614	0.6248	-0.197
Mof_C 	C 	0.35399	0.87903	0.53383	0.079
Mof_H 	H 	0.3599	0.8617	0.4704	-0.005
Mof_C 	C 	0.37098	0.89595	0.71676	0.077
Mof_H 	H 	0.3883	0.89	0.7802	-0.003
Mof_C 	C 	0.33706	0.93057	0.71746	-0.304
Mof_C 	C 	0.3195	0.9129	0.53284	-0.305
Mof_C 	C 	0.52322	0.89635	0.62623	-0.078
Mof_H 	H 	0.5427	0.9227	0.6255	0.041
Mof_C 	C 	0.47677	0.89633	0.62633	-0.079
Mof_H 	H 	0.4573	0.9227	0.6259	0.041
Mof_C 	C 	0.29131	0.92109	0.43274	0.57
Mof_C 	C 	0.32881	0.95855	0.81755	0.572
Mof_Na	Na	0.79559	0.49999	0.50001	2.856
Mof_O 	O 	0.75603	0.44548	0.94051	-1.068
Mof_O 	O 	0.80439	0.49381	0.30976	-1.07
Mof_O 	O 	0.80428	0.40421	0.84602	-0.687
Mof_O 	O 	0.84581	0.44572	0.40403	-0.688
Mof_N 	N 	0.99992	0.32034	0.12887	-0.321
Mof_C 	C 	0.87941	0.37054	0.12499	-0.068
Mof_C 	C 	0.90141	0.2879	0.12262	0.053
Mof_C 	C 	0.96205	0.34847	0.12724	0.043
Mof_C 	C 	0.91617	0.33382	0.12498	-0.093
Mof_C 	C 	0.81179	0.43818	0.1249	0.265
Mof_H 	H 	0.7886	0.4614	0.1248	-0.198
Mof_C 	C 	0.85399	0.37903	0.03383	0.084
Mof_H 	H 	0.8599	0.3617	0.9704	-0.005
Mof_C 	C 	0.87098	0.39595	0.21676	0.08
Mof_H 	H 	0.8883	0.39	0.2802	-0.002
Mof_C 	C 	0.83706	0.43057	0.21746	-0.305
Mof_C 	C 	0.8195	0.4129	0.03284	-0.305
Mof_C 	C 	0.02322	0.39635	0.12623	-0.135
Mof_H 	H 	0.0427	0.4227	0.1255	0.053
Mof_C 	C 	0.97677	0.39633	0.12633	-0.017
Mof_H 	H 	0.9573	0.4227	0.1259	0.026
Mof_C 	C 	0.79131	0.42109	0.93274	0.57
Mof_C 	C 	0.82881	0.45855	0.31755	0.574
Mof_Na	Na	0.20441	1e-05	0.50001	2.846
Mof_O 	O 	0.24397	0.05452	0.94051	-1.065
Mof_O 	O 	0.19561	0.00619	0.30976	-1.068
Mof_O 	O 	0.19572	0.09579	0.84602	-0.689
Mof_O 	O 	0.15419	0.05428	0.40403	-0.693
Mof_N 	N 	8e-05	0.17966	0.12887	-0.364
Mof_C 	C 	0.12059	0.12946	0.12499	-0.065
Mof_C 	C 	0.09859	0.2121	0.12262	0.055
Mof_C 	C 	0.03795	0.15153	0.12724	0.068
Mof_C 	C 	0.08383	0.16618	0.12498	-0.111
Mof_C 	C 	0.18821	0.06182	0.1249	0.262
Mof_H 	H 	0.2114	0.0386	0.1248	-0.196
Mof_C 	C 	0.14601	0.12097	0.03383	0.083
Mof_H 	H 	0.1401	0.1383	0.9704	-0.01
Mof_C 	C 	0.12902	0.10405	0.21676	0.077
Mof_H 	H 	0.1117	0.11	0.2802	-0.006
Mof_C 	C 	0.16294	0.06943	0.21746	-0.305
Mof_C 	C 	0.1805	0.0871	0.03284	-0.303
Mof_C 	C 	0.97678	0.10365	0.12623	-0.022
Mof_H 	H 	0.9573	0.0773	0.1255	0.029
Mof_C 	C 	0.02323	0.10367	0.12633	-0.14
Mof_H 	H 	0.0427	0.0773	0.1259	0.055
Mof_C 	C 	0.20869	0.07891	0.93274	0.566
Mof_C 	C 	0.17119	0.04145	0.31755	0.572
Mof_Na	Na	0.70441	0.50001	1e-05	2.849
Mof_O 	O 	0.74397	0.55452	0.44051	-1.069
Mof_O 	O 	0.69561	0.50619	0.80976	-1.07
Mof_O 	O 	0.69572	0.59579	0.34602	-0.689
Mof_O 	O 	0.65419	0.55428	0.90403	-0.69
Mof_N 	N 	0.50008	0.67966	0.62887	-0.344
Mof_C 	C 	0.62059	0.62946	0.62499	-0.065
Mof_C 	C 	0.59859	0.7121	0.62262	0.054
Mof_C 	C 	0.53795	0.65153	0.62724	0.055
Mof_C 	C 	0.58383	0.66618	0.62498	-0.103
Mof_C 	C 	0.68821	0.56182	0.6249	0.265
Mof_H 	H 	0.7114	0.5386	0.6248	-0.198
Mof_C 	C 	0.64601	0.62097	0.53383	0.079
Mof_H 	H 	0.6401	0.6383	0.4704	-0.005
Mof_C 	C 	0.62902	0.60405	0.71676	0.078
Mof_H 	H 	0.6117	0.61	0.7802	-0.004
Mof_C 	C 	0.66294	0.56943	0.71746	-0.306
Mof_C 	C 	0.6805	0.5871	0.53284	-0.306
Mof_C 	C 	0.47678	0.60365	0.62623	-0.078
Mof_H 	H 	0.4573	0.5773	0.6255	0.04
Mof_C 	C 	0.52323	0.60367	0.62633	-0.079
Mof_H 	H 	0.5427	0.5773	0.6259	0.041
Mof_C 	C 	0.70869	0.57891	0.43274	0.571
Mof_C 	C 	0.67119	0.54145	0.81755	0.574
Mof_Na	Na	0.25001	0.04559	0.75001	2.842
Mof_O 	O 	0.30452	0.00603	0.19051	-1.062
Mof_O 	O 	0.25619	0.05439	0.55976	-1.069
Mof_O 	O 	0.34579	0.05428	0.09602	-0.684
Mof_O 	O 	0.30428	0.09581	0.65403	-0.69
Mof_N 	N 	0.42966	0.24992	0.37887	-0.344
Mof_C 	C 	0.37946	0.12941	0.37499	-0.064
Mof_C 	C 	0.4621	0.15141	0.37262	0.054
Mof_C 	C 	0.40153	0.21205	0.37724	0.055
Mof_C 	C 	0.41618	0.16617	0.37498	-0.104
Mof_C 	C 	0.31182	0.06179	0.3749	0.264
Mof_H 	H 	0.2886	0.0386	0.3748	-0.197
Mof_C 	C 	0.37097	0.10399	0.28383	0.078
Mof_H 	H 	0.3883	0.1099	0.2204	-0.004
Mof_C 	C 	0.35405	0.12098	0.46676	0.077
Mof_H 	H 	0.36	0.1383	0.5302	-0.004
Mof_C 	C 	0.31943	0.08706	0.46746	-0.305
Mof_C 	C 	0.3371	0.0695	0.28284	-0.304
Mof_C 	C 	0.35365	0.27322	0.37623	-0.078
Mof_H 	H 	0.3273	0.2927	0.3755	0.04
Mof_C 	C 	0.35367	0.22677	0.37633	-0.079
Mof_H 	H 	0.3273	0.2073	0.3759	0.04
Mof_C 	C 	0.32891	0.04131	0.18274	0.569
Mof_C 	C 	0.29145	0.07881	0.56755	0.573
Mof_Na	Na	0.75001	0.54559	0.25001	2.852
Mof_O 	O 	0.80452	0.50603	0.69051	-1.068
Mof_O 	O 	0.75619	0.55439	0.05976	-1.07
Mof_O 	O 	0.84579	0.55428	0.59602	-0.686
Mof_O 	O 	0.80428	0.59581	0.15403	-0.689
Mof_N 	N 	0.92966	0.74992	0.87887	-0.337
Mof_C 	C 	0.87946	0.62941	0.87499	-0.064
Mof_C 	C 	0.9621	0.65141	0.87262	0.066
Mof_C 	C 	0.90153	0.71205	0.87724	0.06
Mof_C 	C 	0.91618	0.66617	0.87498	-0.103
Mof_C 	C 	0.81182	0.56179	0.8749	0.264
Mof_H 	H 	0.7886	0.5386	0.8748	-0.198
Mof_C 	C 	0.87097	0.60399	0.78383	0.079
Mof_H 	H 	0.8883	0.6099	0.7204	-0.002
Mof_C 	C 	0.85405	0.62098	0.96676	0.08
Mof_H 	H 	0.86	0.6383	0.0302	-0.004
Mof_C 	C 	0.81943	0.58706	0.96746	-0.304
Mof_C 	C 	0.8371	0.5695	0.78284	-0.304
Mof_C 	C 	0.85365	0.77322	0.87623	-0.075
Mof_H 	H 	0.8273	0.7927	0.8755	0.04
Mof_C 	C 	0.85367	0.72677	0.87633	-0.08
Mof_H 	H 	0.8273	0.7073	0.8759	0.042
Mof_C 	C 	0.82891	0.54131	0.68274	0.57
Mof_C 	C 	0.79145	0.57881	0.06755	0.572
Mof_Na	Na	0.24999	0.95441	0.25001	2.842
Mof_O 	O 	0.19548	0.99397	0.69051	-1.066
Mof_O 	O 	0.24381	0.94561	0.05976	-1.067
Mof_O 	O 	0.15421	0.94572	0.59602	-0.691
Mof_O 	O 	0.19572	0.90419	0.15403	-0.691
Mof_N 	N 	0.07034	0.75008	0.87887	-0.347
Mof_C 	C 	0.12054	0.87059	0.87499	-0.069
Mof_C 	C 	0.0379	0.84859	0.87262	0.042
Mof_C 	C 	0.09847	0.78795	0.87724	0.05
Mof_C 	C 	0.08382	0.83383	0.87498	-0.101
Mof_C 	C 	0.18818	0.93821	0.8749	0.264
Mof_H 	H 	0.2114	0.9614	0.8748	-0.196
Mof_C 	C 	0.12903	0.89601	0.78383	0.081
Mof_H 	H 	0.1117	0.8901	0.7204	-0.008
Mof_C 	C 	0.14595	0.87902	0.96676	0.085
Mof_H 	H 	0.14	0.8617	0.0302	-0.011
Mof_C 	C 	0.18057	0.91294	0.96746	-0.304
Mof_C 	C 	0.1629	0.9305	0.78284	-0.307
Mof_C 	C 	0.14635	0.72678	0.87623	-0.081
Mof_H 	H 	0.1727	0.7073	0.8755	0.041
Mof_C 	C 	0.14633	0.77323	0.87633	-0.077
Mof_H 	H 	0.1727	0.7927	0.8759	0.04
Mof_C 	C 	0.17109	0.95869	0.68274	0.57
Mof_C 	C 	0.20855	0.92119	0.06755	0.569
Mof_Na	Na	0.74999	0.45441	0.75001	2.852
Mof_O 	O 	0.69548	0.49397	0.19051	-1.068
Mof_O 	O 	0.74381	0.44561	0.55976	-1.07
Mof_O 	O 	0.65421	0.44572	0.09602	-0.688
Mof_O 	O 	0.69572	0.40419	0.65403	-0.69
Mof_N 	N 	0.57034	0.25008	0.37887	-0.344
Mof_C 	C 	0.62054	0.37059	0.37499	-0.065
Mof_C 	C 	0.5379	0.34859	0.37262	0.054
Mof_C 	C 	0.59847	0.28795	0.37724	0.055
Mof_C 	C 	0.58382	0.33383	0.37498	-0.103
Mof_C 	C 	0.68818	0.43821	0.3749	0.265
Mof_H 	H 	0.7114	0.4614	0.3748	-0.198
Mof_C 	C 	0.62903	0.39601	0.28383	0.079
Mof_H 	H 	0.6117	0.3901	0.2204	-0.004
Mof_C 	C 	0.64595	0.37902	0.46676	0.078
Mof_H 	H 	0.64	0.3617	0.5302	-0.004
Mof_C 	C 	0.68057	0.41294	0.46746	-0.306
Mof_C 	C 	0.6629	0.4305	0.28284	-0.306
Mof_C 	C 	0.64635	0.22678	0.37623	-0.078
Mof_H 	H 	0.6727	0.2073	0.3755	0.041
Mof_C 	C 	0.64633	0.27323	0.37633	-0.079
Mof_H 	H 	0.6727	0.2927	0.3759	0.041
Mof_C 	C 	0.67109	0.45869	0.18274	0.57
Mof_C 	C 	0.70855	0.42119	0.56755	0.574
Mof_Zn	Zn	0.5	0.25	0.34511	0.793
Mof_Zn	Zn	6.20634e-33	0.75	0.84511	0.787
Mof_Zn	Zn	0.5	0.75	0.59511	0.793
Mof_Zn	Zn	7.58878e-34	0.25	0.09511	0.787
Mof_Zn	Zn	0.5	0.75	0.65489	0.793
Mof_Zn	Zn	2.06707e-33	0.25	0.15489	0.787
Mof_Zn	Zn	0.5	0.25	0.40489	0.793
Mof_Zn	Zn	6.30239e-33	0.75	0.90489	0.787
_end
