data_functionalizedCrystal
_audit_creation_method	'EQeq! by Chris Wilmer'
_symmetry_space_group_name_H-M	'P1'
_symmetry_Int_Tables_number	1
_symmetry_cell_setting	triclinic
loop_
_symmetry_equiv_pos_as_xyz
  x,y,z
_cell_length_a	16.955
_cell_length_b	9.543
_cell_length_c	18.549
_cell_angle_alpha	90
_cell_angle_beta	90.01
_cell_angle_gamma	90
loop_
_atom_site_label
_atom_site_type_symbol
_atom_site_fract_x
_atom_site_fract_y
_atom_site_fract_z
_atom_site_charge
Mof_Cd	Cd	0.41415	0.91346	0.63139	0.532
Mof_Cd	Cd	0.08065	0.75183	0.56832	0.505
Mof_O 	O 	0.4921	0.7578	0.6931	-0.189
Mof_O 	O 	0.3804	0.7662	0.7572	-0.165
Mof_O 	O 	0.5551	0.579	0.7863	-0.197
Mof_O 	O 	0.4443	0.5822	0.8518	-0.174
Mof_O 	O 	0.4112	0.0666	0.5349	-0.197
Mof_O 	O 	0.4901	0.1585	0.4533	-0.189
Mof_O 	O 	0.2819	0.9777	0.6569	-0.185
Mof_O 	O 	0.1582	0.9227	0.63	-0.2
Mof_O 	O 	0.3337	0.7667	0.5705	-0.198
Mof_O 	O 	0.211	0.7187	0.5421	-0.199
Mof_O 	O 	0.0673	0.8803	0.4633	-0.196
Mof_O 	O 	0.013	0.0686	0.4132	-0.193
Mof_O 	O 	0.9598	0.6395	0.5492	-0.204
Mof_O 	O 	0.9003	0.4652	0.49	-0.194
Mof_C 	C 	0.4497	0.7228	0.7453	0.224
Mof_C 	C 	0.4859	0.6193	0.8002	0.237
Mof_C 	C 	0.472	0.0666	0.4958	0.244
Mof_C 	C 	0.2304	0.9056	0.6252	0.227
Mof_C 	C 	0.2602	0.7861	0.5754	0.238
Mof_C 	C 	0.0228	0.9876	0.4642	0.23
Mof_C 	C 	0.9588	0.5318	0.5118	0.237
Mof_Cd	Cd	0.58585	0.41346	0.86861	0.533
Mof_Cd	Cd	0.91935	0.25183	0.93168	0.506
Mof_O 	O 	0.5079	0.2578	0.8069	-0.188
Mof_O 	O 	0.6196	0.2662	0.7428	-0.164
Mof_O 	O 	0.4449	0.079	0.7137	-0.195
Mof_O 	O 	0.5557	0.0822	0.6482	-0.173
Mof_O 	O 	0.5888	0.5666	0.9651	-0.197
Mof_O 	O 	0.5099	0.6585	0.0467	-0.189
Mof_O 	O 	0.7181	0.4777	0.8431	-0.185
Mof_O 	O 	0.8418	0.4227	0.87	-0.199
Mof_O 	O 	0.6663	0.2667	0.9295	-0.198
Mof_O 	O 	0.789	0.2187	0.9579	-0.199
Mof_O 	O 	0.9327	0.3803	0.0367	-0.196
Mof_O 	O 	0.987	0.5686	0.0868	-0.194
Mof_O 	O 	0.0402	0.1395	0.9508	-0.204
Mof_O 	O 	0.0997	0.9652	0.01	-0.196
Mof_C 	C 	0.5503	0.2228	0.7547	0.224
Mof_C 	C 	0.5141	0.1193	0.6998	0.236
Mof_C 	C 	0.528	0.5666	0.0042	0.245
Mof_C 	C 	0.7696	0.4056	0.8748	0.227
Mof_C 	C 	0.7398	0.2861	0.9246	0.238
Mof_C 	C 	0.9772	0.4876	0.0358	0.232
Mof_C 	C 	0.0412	0.0318	0.9882	0.239
Mof_Cd	Cd	0.58585	0.08654	0.36861	0.533
Mof_Cd	Cd	0.91935	0.24817	0.43168	0.506
Mof_O 	O 	0.5079	0.2422	0.3069	-0.188
Mof_O 	O 	0.6196	0.2338	0.2428	-0.164
Mof_O 	O 	0.4449	0.421	0.2137	-0.196
Mof_O 	O 	0.5557	0.4178	0.1482	-0.173
Mof_O 	O 	0.5888	0.9334	0.4651	-0.197
Mof_O 	O 	0.5099	0.8415	0.5467	-0.189
Mof_O 	O 	0.7181	0.0223	0.3431	-0.185
Mof_O 	O 	0.8418	0.0773	0.37	-0.2
Mof_O 	O 	0.6663	0.2333	0.4295	-0.198
Mof_O 	O 	0.789	0.2813	0.4579	-0.199
Mof_O 	O 	0.9327	0.1197	0.5367	-0.196
Mof_O 	O 	0.987	0.9314	0.5868	-0.193
Mof_O 	O 	0.0402	0.3605	0.4508	-0.204
Mof_O 	O 	0.0997	0.5348	0.51	-0.194
Mof_C 	C 	0.5503	0.2772	0.2547	0.224
Mof_C 	C 	0.5141	0.3807	0.1998	0.237
Mof_C 	C 	0.528	0.9334	0.5042	0.244
Mof_C 	C 	0.7696	0.0944	0.3748	0.227
Mof_C 	C 	0.7398	0.2139	0.4246	0.238
Mof_C 	C 	0.9772	0.0124	0.5358	0.23
Mof_C 	C 	0.0412	0.4682	0.4882	0.237
Mof_Cd	Cd	0.41415	0.58654	0.13139	0.533
Mof_Cd	Cd	0.08065	0.74817	0.06832	0.506
Mof_O 	O 	0.4921	0.7422	0.1931	-0.188
Mof_O 	O 	0.3804	0.7338	0.2572	-0.164
Mof_O 	O 	0.5551	0.921	0.2863	-0.195
Mof_O 	O 	0.4443	0.9178	0.3518	-0.173
Mof_O 	O 	0.4112	0.4334	0.0349	-0.197
Mof_O 	O 	0.4901	0.3415	0.9533	-0.189
Mof_O 	O 	0.2819	0.5223	0.1569	-0.185
Mof_O 	O 	0.1582	0.5773	0.13	-0.199
Mof_O 	O 	0.3337	0.7333	0.0705	-0.198
Mof_O 	O 	0.211	0.7813	0.0421	-0.199
Mof_O 	O 	0.0673	0.6197	0.9633	-0.196
Mof_O 	O 	0.013	0.4314	0.9132	-0.194
Mof_O 	O 	0.9598	0.8605	0.0492	-0.204
Mof_O 	O 	0.9003	0.0348	0.99	-0.196
Mof_C 	C 	0.4497	0.7772	0.2453	0.224
Mof_C 	C 	0.4859	0.8807	0.3002	0.236
Mof_C 	C 	0.472	0.4334	0.9958	0.245
Mof_C 	C 	0.2304	0.5944	0.1252	0.227
Mof_C 	C 	0.2602	0.7139	0.0754	0.238
Mof_C 	C 	0.0228	0.5124	0.9642	0.232
Mof_C 	C 	0.9588	0.9682	0.0118	0.239
_end
