# CIF file generated by openbabel 3.1.0, see https://openbabel.org
data_I
_chemical_name_common 'SAHNIZ_charged'
_cell_length_a 17.8474
_cell_length_b 17.8474
_cell_length_c 18.0638
_cell_angle_alpha 90
_cell_angle_beta 90
_cell_angle_gamma 120
_space_group_name_H-M_alt 'P 1'
_space_group_name_Hall 'P 1'
loop_
    _symmetry_equiv_pos_as_xyz
    x,y,z
loop_
    _atom_site_label
    _atom_site_type_symbol
    _atom_site_fract_x
    _atom_site_fract_y
    _atom_site_fract_z
    _atom_site_occupancy
    Na1      Na       0.33264    0.39431    0.15882    1.000
    Na2      Na       0.06167    0.66736    0.15882    1.000
    Na3      Na       0.60569    0.93833    0.15882    1.000
    Na4      Na       0.66736    0.60569    0.65882    1.000
    Na5      Na       0.93833    0.33264    0.65882    1.000
    Na6      Na       0.39431    0.06167    0.65882    1.000
    Na7      Na       0.66736    0.60569    0.84118    1.000
    Na8      Na       0.93833    0.33264    0.84118    1.000
    Na9      Na       0.39431    0.06167    0.84118    1.000
    Na10     Na       0.33264    0.39431    0.34118    1.000
    Na11     Na       0.06167    0.66736    0.34118    1.000
    Na12     Na       0.60569    0.93833    0.34118    1.000
    Fe1      Fe       0.27733    0.39968    0.83469    1.000
    Fe2      Fe       0.12235    0.72267    0.83469    1.000
    Fe3      Fe       0.60032    0.87765    0.83469    1.000
    Fe4      Fe       0.72267    0.60032    0.33469    1.000
    Fe5      Fe       0.87765    0.27733    0.33469    1.000
    Fe6      Fe       0.39968    0.12235    0.33469    1.000
    Fe7      Fe       0.72267    0.60032    0.16531    1.000
    Fe8      Fe       0.87765    0.27733    0.16531    1.000
    Fe9      Fe       0.39968    0.12235    0.16531    1.000
    Fe10     Fe       0.27733    0.39968    0.66531    1.000
    Fe11     Fe       0.12235    0.72267    0.66531    1.000
    Fe12     Fe       0.60032    0.87765    0.66531    1.000
    H1       H        0.35780    0.54960    0.00500    1.000
    H2       H        0.40180    0.49330    0.99420    1.000
    H3       H        0.49560    0.58300    0.90750    1.000
    H4       H        0.46460    0.56990    0.82480    1.000
    H5       H        0.19180    0.64220    0.00500    1.000
    H6       H        0.09150    0.59820    0.99420    1.000
    H7       H        0.08740    0.50440    0.90750    1.000
    H8       H        0.10530    0.53540    0.82480    1.000
    H9       H        0.45040    0.80820    0.00500    1.000
    H10      H        0.50670    0.90850    0.99420    1.000
    H11      H        0.41700    0.91260    0.90750    1.000
    H12      H        0.43010    0.89470    0.82480    1.000
    H13      H        0.64220    0.45040    0.50500    1.000
    H14      H        0.59820    0.50670    0.49420    1.000
    H15      H        0.50440    0.41700    0.40750    1.000
    H16      H        0.53540    0.43010    0.32480    1.000
    H17      H        0.80820    0.35780    0.50500    1.000
    H18      H        0.90850    0.40180    0.49420    1.000
    H19      H        0.91260    0.49560    0.40750    1.000
    H20      H        0.89470    0.46460    0.32480    1.000
    H21      H        0.54960    0.19180    0.50500    1.000
    H22      H        0.49330    0.09150    0.49420    1.000
    H23      H        0.58300    0.08740    0.40750    1.000
    H24      H        0.56990    0.10530    0.32480    1.000
    H25      H        0.64220    0.45040    0.99500    1.000
    H26      H        0.59820    0.50670    0.00580    1.000
    H27      H        0.50440    0.41700    0.09250    1.000
    H28      H        0.53540    0.43010    0.17520    1.000
    H29      H        0.80820    0.35780    0.99500    1.000
    H30      H        0.90850    0.40180    0.00580    1.000
    H31      H        0.91260    0.49560    0.09250    1.000
    H32      H        0.89470    0.46460    0.17520    1.000
    H33      H        0.54960    0.19180    0.99500    1.000
    H34      H        0.49330    0.09150    0.00580    1.000
    H35      H        0.58300    0.08740    0.09250    1.000
    H36      H        0.56990    0.10530    0.17520    1.000
    H37      H        0.35780    0.54960    0.49500    1.000
    H38      H        0.40180    0.49330    0.50580    1.000
    H39      H        0.49560    0.58300    0.59250    1.000
    H40      H        0.46460    0.56990    0.67520    1.000
    H41      H        0.19180    0.64220    0.49500    1.000
    H42      H        0.09150    0.59820    0.50580    1.000
    H43      H        0.08740    0.50440    0.59250    1.000
    H44      H        0.10530    0.53540    0.67520    1.000
    H45      H        0.45040    0.80820    0.49500    1.000
    H46      H        0.50670    0.90850    0.50580    1.000
    H47      H        0.41700    0.91260    0.59250    1.000
    H48      H        0.43010    0.89470    0.67520    1.000
    C1       C        0.26200    0.57740    0.90560    1.000
    C2       C        0.35080    0.59590    0.87780    1.000
    C3       C        0.35460    0.50130    0.97760    1.000
    C4       C        0.27040    0.42120    0.99520    1.000
    C5       C        0.45250    0.54270    0.87320    1.000
    C6       C        0.45830    0.46060    0.86920    1.000
    C7       C        0.31540    0.73800    0.90560    1.000
    C8       C        0.24510    0.64920    0.87780    1.000
    C9       C        0.14670    0.64540    0.97760    1.000
    C10      C        0.15080    0.72960    0.99520    1.000
    C11      C        0.09020    0.54750    0.87320    1.000
    C12      C        0.00230    0.54170    0.86920    1.000
    C13      C        0.42260    0.68460    0.90560    1.000
    C14      C        0.40410    0.75490    0.87780    1.000
    C15      C        0.49870    0.85330    0.97760    1.000
    C16      C        0.57880    0.84920    0.99520    1.000
    C17      C        0.45730    0.90980    0.87320    1.000
    C18      C        0.53940    0.99770    0.86920    1.000
    C19      C        0.73800    0.42260    0.40560    1.000
    C20      C        0.64920    0.40410    0.37780    1.000
    C21      C        0.64540    0.49870    0.47760    1.000
    C22      C        0.72960    0.57880    0.49520    1.000
    C23      C        0.54750    0.45730    0.37320    1.000
    C24      C        0.54170    0.53940    0.36920    1.000
    C25      C        0.68460    0.26200    0.40560    1.000
    C26      C        0.75490    0.35080    0.37780    1.000
    C27      C        0.85330    0.35460    0.47760    1.000
    C28      C        0.84920    0.27040    0.49520    1.000
    C29      C        0.90980    0.45250    0.37320    1.000
    C30      C        0.99770    0.45830    0.36920    1.000
    C31      C        0.57740    0.31540    0.40560    1.000
    C32      C        0.59590    0.24510    0.37780    1.000
    C33      C        0.50130    0.14670    0.47760    1.000
    C34      C        0.42120    0.15080    0.49520    1.000
    C35      C        0.54270    0.09020    0.37320    1.000
    C36      C        0.46060    0.00230    0.36920    1.000
    C37      C        0.73800    0.42260    0.09440    1.000
    C38      C        0.64920    0.40410    0.12220    1.000
    C39      C        0.64540    0.49870    0.02240    1.000
    C40      C        0.72960    0.57880    0.00480    1.000
    C41      C        0.54750    0.45730    0.12680    1.000
    C42      C        0.54170    0.53940    0.13080    1.000
    C43      C        0.68460    0.26200    0.09440    1.000
    C44      C        0.75490    0.35080    0.12220    1.000
    C45      C        0.85330    0.35460    0.02240    1.000
    C46      C        0.84920    0.27040    0.00480    1.000
    C47      C        0.90980    0.45250    0.12680    1.000
    C48      C        0.99770    0.45830    0.13080    1.000
    C49      C        0.57740    0.31540    0.09440    1.000
    C50      C        0.59590    0.24510    0.12220    1.000
    C51      C        0.50130    0.14670    0.02240    1.000
    C52      C        0.42120    0.15080    0.00480    1.000
    C53      C        0.54270    0.09020    0.12680    1.000
    C54      C        0.46060    0.00230    0.13080    1.000
    C55      C        0.26200    0.57740    0.59440    1.000
    C56      C        0.35080    0.59590    0.62220    1.000
    C57      C        0.35460    0.50130    0.52240    1.000
    C58      C        0.27040    0.42120    0.50480    1.000
    C59      C        0.45250    0.54270    0.62680    1.000
    C60      C        0.45830    0.46060    0.63080    1.000
    C61      C        0.31540    0.73800    0.59440    1.000
    C62      C        0.24510    0.64920    0.62220    1.000
    C63      C        0.14670    0.64540    0.52240    1.000
    C64      C        0.15080    0.72960    0.50480    1.000
    C65      C        0.09020    0.54750    0.62680    1.000
    C66      C        0.00230    0.54170    0.63080    1.000
    C67      C        0.42260    0.68460    0.59440    1.000
    C68      C        0.40410    0.75490    0.62220    1.000
    C69      C        0.49870    0.85330    0.52240    1.000
    C70      C        0.57880    0.84920    0.50480    1.000
    C71      C        0.45730    0.90980    0.62680    1.000
    C72      C        0.53940    0.99770    0.63080    1.000
    C73      C        0.12600    0.39310    0.75000    1.000
    C74      C        0.19780    0.23430    0.75000    1.000
    C75      C        0.26710    0.87400    0.75000    1.000
    C76      C        0.03650    0.80220    0.75000    1.000
    C77      C        0.60690    0.73290    0.75000    1.000
    C78      C        0.76570    0.96350    0.75000    1.000
    C79      C        0.87400    0.60690    0.25000    1.000
    C80      C        0.80220    0.76570    0.25000    1.000
    C81      C        0.73290    0.12600    0.25000    1.000
    C82      C        0.96350    0.19780    0.25000    1.000
    C83      C        0.39310    0.26710    0.25000    1.000
    C84      C        0.23430    0.03650    0.25000    1.000
    N1       N        0.36630    0.52340    0.89750    1.000
    N2       N        0.15710    0.63370    0.89750    1.000
    N3       N        0.47660    0.84290    0.89750    1.000
    N4       N        0.63370    0.47660    0.39750    1.000
    N5       N        0.84290    0.36630    0.39750    1.000
    N6       N        0.52340    0.15710    0.39750    1.000
    N7       N        0.63370    0.47660    0.10250    1.000
    N8       N        0.84290    0.36630    0.10250    1.000
    N9       N        0.52340    0.15710    0.10250    1.000
    N10      N        0.36630    0.52340    0.60250    1.000
    N11      N        0.15710    0.63370    0.60250    1.000
    N12      N        0.47660    0.84290    0.60250    1.000
    O1       O        0.22930    0.37070    0.94208    1.000
    O2       O        0.24600    0.40840    0.06120    1.000
    O3       O        0.38680    0.38900    0.86659    1.000
    O4       O        0.53140    0.46850    0.86740    1.000
    O5       O        0.16502    0.39732    0.81258    1.000
    O6       O        0.22300    0.27350    0.81200    1.000
    O7       O        0.33300    0.29400    0.07910    1.000
    O8       O        0.14140    0.77070    0.94208    1.000
    O9       O        0.16240    0.75400    0.06120    1.000
    O10      O        0.00220    0.61320    0.86659    1.000
    O11      O        0.93710    0.46860    0.86740    1.000
    O12      O        0.23230    0.83498    0.81258    1.000
    O13      O        0.05050    0.77700    0.81200    1.000
    O14      O        0.96100    0.66700    0.07910    1.000
    O15      O        0.62930    0.85860    0.94208    1.000
    O16      O        0.59160    0.83760    0.06120    1.000
    O17      O        0.61100    0.99780    0.86659    1.000
    O18      O        0.53150    0.06290    0.86740    1.000
    O19      O        0.60268    0.76770    0.81258    1.000
    O20      O        0.72650    0.94950    0.81200    1.000
    O21      O        0.70600    0.03900    0.07910    1.000
    O22      O        0.77070    0.62930    0.44208    1.000
    O23      O        0.75400    0.59160    0.56120    1.000
    O24      O        0.61320    0.61100    0.36659    1.000
    O25      O        0.46860    0.53150    0.36740    1.000
    O26      O        0.83498    0.60268    0.31258    1.000
    O27      O        0.77700    0.72650    0.31200    1.000
    O28      O        0.66700    0.70600    0.57910    1.000
    O29      O        0.85860    0.22930    0.44208    1.000
    O30      O        0.83760    0.24600    0.56120    1.000
    O31      O        0.99780    0.38680    0.36659    1.000
    O32      O        0.06290    0.53140    0.36740    1.000
    O33      O        0.76770    0.16502    0.31258    1.000
    O34      O        0.94950    0.22300    0.31200    1.000
    O35      O        0.03900    0.33300    0.57910    1.000
    O36      O        0.37070    0.14140    0.44208    1.000
    O37      O        0.40840    0.16240    0.56120    1.000
    O38      O        0.38900    0.00220    0.36659    1.000
    O39      O        0.46850    0.93710    0.36740    1.000
    O40      O        0.39732    0.23230    0.31258    1.000
    O41      O        0.27350    0.05050    0.31200    1.000
    O42      O        0.29400    0.96100    0.57910    1.000
    O43      O        0.77070    0.62930    0.05792    1.000
    O44      O        0.75400    0.59160    0.93880    1.000
    O45      O        0.61320    0.61100    0.13341    1.000
    O46      O        0.46860    0.53150    0.13260    1.000
    O47      O        0.83498    0.60268    0.18742    1.000
    O48      O        0.77700    0.72650    0.18800    1.000
    O49      O        0.66700    0.70600    0.92090    1.000
    O50      O        0.85860    0.22930    0.05792    1.000
    O51      O        0.83760    0.24600    0.93880    1.000
    O52      O        0.99780    0.38680    0.13341    1.000
    O53      O        0.06290    0.53140    0.13260    1.000
    O54      O        0.76770    0.16502    0.18742    1.000
    O55      O        0.94950    0.22300    0.18800    1.000
    O56      O        0.03900    0.33300    0.92090    1.000
    O57      O        0.37070    0.14140    0.05792    1.000
    O58      O        0.40840    0.16240    0.93880    1.000
    O59      O        0.38900    0.00220    0.13341    1.000
    O60      O        0.46850    0.93710    0.13260    1.000
    O61      O        0.39732    0.23230    0.18742    1.000
    O62      O        0.27350    0.05050    0.18800    1.000
    O63      O        0.29400    0.96100    0.92090    1.000
    O64      O        0.22930    0.37070    0.55792    1.000
    O65      O        0.24600    0.40840    0.43880    1.000
    O66      O        0.38680    0.38900    0.63341    1.000
    O67      O        0.53140    0.46850    0.63260    1.000
    O68      O        0.16502    0.39732    0.68742    1.000
    O69      O        0.22300    0.27350    0.68800    1.000
    O70      O        0.33300    0.29400    0.42090    1.000
    O71      O        0.14140    0.77070    0.55792    1.000
    O72      O        0.16240    0.75400    0.43880    1.000
    O73      O        0.00220    0.61320    0.63341    1.000
    O74      O        0.93710    0.46860    0.63260    1.000
    O75      O        0.23230    0.83498    0.68742    1.000
    O76      O        0.05050    0.77700    0.68800    1.000
    O77      O        0.96100    0.66700    0.42090    1.000
    O78      O        0.62930    0.85860    0.55792    1.000
    O79      O        0.59160    0.83760    0.43880    1.000
    O80      O        0.61100    0.99780    0.63341    1.000
    O81      O        0.53150    0.06290    0.63260    1.000
    O82      O        0.60268    0.76770    0.68742    1.000
    O83      O        0.72650    0.94950    0.68800    1.000
    O84      O        0.70600    0.03900    0.42090    1.000
    O85      O        0.05300    0.38610    0.75000    1.000
    O86      O        0.12840    0.15660    0.75000    1.000
    O87      O        0.32800    0.45390    0.75000    1.000
    O88      O        0.33310    0.94700    0.75000    1.000
    O89      O        0.02820    0.87160    0.75000    1.000
    O90      O        0.12590    0.67200    0.75000    1.000
    O91      O        0.61390    0.66690    0.75000    1.000
    O92      O        0.84340    0.97180    0.75000    1.000
    O93      O        0.54610    0.87410    0.75000    1.000
    O94      O        0.94700    0.61390    0.25000    1.000
    O95      O        0.87160    0.84340    0.25000    1.000
    O96      O        0.67200    0.54610    0.25000    1.000
    O97      O        0.66690    0.05300    0.25000    1.000
    O98      O        0.97180    0.12840    0.25000    1.000
    O99      O        0.87410    0.32800    0.25000    1.000
    O100     O        0.38610    0.33310    0.25000    1.000
    O101     O        0.15660    0.02820    0.25000    1.000
    O102     O        0.45390    0.12590    0.25000    1.000
    O103     O        0.28720    0.45120    0.25000    1.000
    O104     O        0.16400    0.71280    0.25000    1.000
    O105     O        0.54880    0.83600    0.25000    1.000
    O106     O        0.71280    0.54880    0.75000    1.000
    O107     O        0.83600    0.28720    0.75000    1.000
    O108     O        0.45120    0.16400    0.75000    1.000
