data_functionalizedCrystal
_audit_creation_method	'EQeq! by Chris Wilmer'
_symmetry_space_group_name_H-M	'P1'
_symmetry_Int_Tables_number	1
_symmetry_cell_setting	triclinic
loop_
_symmetry_equiv_pos_as_xyz
  x,y,z
_cell_length_a	24.2372
_cell_length_b	24.2372
_cell_length_c	13.2135
_cell_angle_alpha	90
_cell_angle_beta	90
_cell_angle_gamma	120
loop_
_atom_site_label
_atom_site_type_symbol
_atom_site_fract_x
_atom_site_fract_y
_atom_site_fract_z
_atom_site_charge
Mof_O 	O 	0.7653	0.0376	0.1081	-0.489
Mof_O 	O 	0.7166	0.0698	0.9988	-0.563
Mof_O 	O 	0.994	0.569	0.0838	-0.525
Mof_C 	C 	0.9407	0.2527	0.0129	0.221
Mof_C 	C 	0.8846	0.2468	0.9744	-0.253
Mof_H 	H 	0.8852	0.2812	0.9419	0.122
Mof_C 	C 	0.8277	0.1896	0.9843	0.164
Mof_H 	H 	0.7902	0.1856	0.9585	-0.039
Mof_C 	C 	0.8268	0.1383	0.0329	-0.219
Mof_C 	C 	0.8829	0.1442	0.0714	0.15
Mof_H 	H 	0.8823	0.1099	0.1039	-0.012
Mof_C 	C 	0.9398	0.2014	0.0615	-0.249
Mof_H 	H 	0.9773	0.2054	0.0873	0.127
Mof_C 	C 	0.767	0.0771	0.0461	0.406
Mof_C 	C 	0.9721	0.3856	0.0773	-0.269
Mof_H 	H 	0.9529	0.3569	0.1301	0.134
Mof_C 	C 	0.9725	0.4417	0.077	0.258
Mof_H 	H 	0.9536	0.4514	0.1302	-0.047
Mof_O 	O 	0.43197	0.37093	0.44143	-0.467
Mof_O 	O 	0.38327	0.40313	0.33213	-0.559
Mof_O 	O 	0.66067	0.90233	0.41713	-0.562
Mof_C 	C 	0.60737	0.58603	0.34623	0.182
Mof_C 	C 	0.55127	0.58013	0.30773	-0.231
Mof_H 	H 	0.55187	0.61453	0.27523	0.109
Mof_C 	C 	0.49437	0.52293	0.31763	0.143
Mof_H 	H 	0.45687	0.51893	0.29183	-0.034
Mof_C 	C 	0.49347	0.47163	0.36623	-0.202
Mof_C 	C 	0.54957	0.47753	0.40473	0.129
Mof_H 	H 	0.54897	0.44323	0.43723	-0.005
Mof_C 	C 	0.60647	0.53473	0.39483	-0.225
Mof_H 	H 	0.64397	0.53873	0.42063	0.107
Mof_C 	C 	0.43367	0.41043	0.37943	0.405
Mof_C 	C 	0.63877	0.71893	0.41063	-0.322
Mof_H 	H 	0.61957	0.69023	0.46343	0.145
Mof_C 	C 	0.63917	0.77503	0.41033	0.229
Mof_H 	H 	0.62027	0.78473	0.46353	-0.045
Mof_O 	O 	0.09863	0.70427	0.77477	-0.479
Mof_O 	O 	0.04993	0.73647	0.66547	-0.566
Mof_O 	O 	0.32733	0.23567	0.75047	-0.581
Mof_C 	C 	0.27403	0.91937	0.67957	0.19
Mof_C 	C 	0.21793	0.91347	0.64107	-0.233
Mof_H 	H 	0.21853	0.94787	0.60857	0.119
Mof_C 	C 	0.16103	0.85627	0.65097	0.147
Mof_H 	H 	0.12353	0.85227	0.62517	-0.034
Mof_C 	C 	0.16013	0.80497	0.69957	-0.204
Mof_C 	C 	0.21623	0.81087	0.73807	0.133
Mof_H 	H 	0.21563	0.77657	0.77057	-0.004
Mof_C 	C 	0.27313	0.86807	0.72817	-0.227
Mof_H 	H 	0.31063	0.87207	0.75397	0.109
Mof_C 	C 	0.10033	0.74377	0.71277	0.406
Mof_C 	C 	0.30543	0.05227	0.74397	-0.292
Mof_H 	H 	0.28623	0.02357	0.79677	0.122
Mof_C 	C 	0.30583	0.10837	0.74367	0.202
Mof_H 	H 	0.28693	0.11807	0.79687	-0.04
Mof_O 	O 	0.9624	0.7277	0.1081	-0.441
Mof_O 	O 	0.9302	0.6468	0.9988	-0.548
Mof_O 	O 	0.431	0.425	0.0838	-0.58
Mof_C 	C 	0.7473	0.688	0.0129	0.173
Mof_C 	C 	0.7532	0.6378	0.9744	-0.221
Mof_H 	H 	0.7188	0.604	0.9419	0.108
Mof_C 	C 	0.8104	0.6381	0.9843	0.146
Mof_H 	H 	0.8144	0.6046	0.9585	-0.034
Mof_C 	C 	0.8617	0.6885	0.0329	-0.203
Mof_C 	C 	0.8558	0.7387	0.0714	0.127
Mof_H 	H 	0.8901	0.7724	0.1039	0.003
Mof_C 	C 	0.7986	0.7384	0.0615	-0.22
Mof_H 	H 	0.7946	0.7719	0.0873	0.107
Mof_C 	C 	0.9229	0.6899	0.0461	0.4
Mof_C 	C 	0.6144	0.5865	0.0773	-0.321
Mof_H 	H 	0.6431	0.596	0.1301	0.145
Mof_C 	C 	0.5583	0.5308	0.077	0.23
Mof_H 	H 	0.5486	0.5022	0.1302	-0.046
Mof_O 	O 	0.62907	0.06103	0.44143	-0.459
Mof_O 	O 	0.59687	0.98013	0.33213	-0.531
Mof_O 	O 	0.09767	0.75833	0.41713	-0.573
Mof_C 	C 	0.41397	0.02133	0.34623	0.143
Mof_C 	C 	0.41987	0.97113	0.30773	-0.192
Mof_H 	H 	0.38547	0.93733	0.27523	0.102
Mof_C 	C 	0.47707	0.97143	0.31763	0.174
Mof_H 	H 	0.48107	0.93793	0.29183	-0.039
Mof_C 	C 	0.52837	0.02183	0.36623	-0.231
Mof_C 	C 	0.52247	0.07203	0.40473	0.128
Mof_H 	H 	0.55677	0.10573	0.43723	-0.005
Mof_C 	C 	0.46527	0.07173	0.39483	-0.216
Mof_H 	H 	0.46127	0.10523	0.42063	0.103
Mof_C 	C 	0.58957	0.02323	0.37943	0.375
Mof_C 	C 	0.28107	0.91983	0.41063	-0.354
Mof_H 	H 	0.30977	0.92933	0.46343	0.162
Mof_C 	C 	0.22497	0.86413	0.41033	0.256
Mof_H 	H 	0.21527	0.83553	0.46353	-0.054
Mof_O 	O 	0.29573	0.39437	0.77477	-0.466
Mof_O 	O 	0.26353	0.31347	0.66547	-0.561
Mof_O 	O 	0.76433	0.09167	0.75047	-0.575
Mof_C 	C 	0.08063	0.35467	0.67957	0.177
Mof_C 	C 	0.08653	0.30447	0.64107	-0.23
Mof_H 	H 	0.05213	0.27067	0.60857	0.099
Mof_C 	C 	0.14373	0.30477	0.65097	0.14
Mof_H 	H 	0.14773	0.27127	0.62517	-0.036
Mof_C 	C 	0.19503	0.35517	0.69957	-0.201
Mof_C 	C 	0.18913	0.40537	0.73807	0.128
Mof_H 	H 	0.22343	0.43907	0.77057	-0.003
Mof_C 	C 	0.13193	0.40507	0.72817	-0.222
Mof_H 	H 	0.12793	0.43857	0.75397	0.106
Mof_C 	C 	0.25623	0.35657	0.71277	0.404
Mof_C 	C 	0.94773	0.25317	0.74397	-0.355
Mof_H 	H 	0.97643	0.26267	0.79677	0.17
Mof_C 	C 	0.89163	0.19747	0.74367	0.259
Mof_H 	H 	0.88193	0.16887	0.79687	-0.054
Mof_O 	O 	0.2723	0.2347	0.1081	-0.47
Mof_O 	O 	0.3532	0.2834	0.9988	-0.553
Mof_O 	O 	0.575	0.006	0.0838	-0.594
Mof_C 	C 	0.312	0.0593	0.0129	0.169
Mof_C 	C 	0.3622	0.1154	0.9744	-0.221
Mof_H 	H 	0.396	0.1148	0.9419	0.107
Mof_C 	C 	0.3619	0.1723	0.9843	0.146
Mof_H 	H 	0.3954	0.2098	0.9585	-0.033
Mof_C 	C 	0.3115	0.1732	0.0329	-0.207
Mof_C 	C 	0.2613	0.1171	0.0714	0.125
Mof_H 	H 	0.2276	0.1177	0.1039	-0.01
Mof_C 	C 	0.2616	0.0602	0.0615	-0.226
Mof_H 	H 	0.2281	0.0227	0.0873	0.091
Mof_C 	C 	0.3101	0.233	0.0461	0.398
Mof_C 	C 	0.4135	0.0279	0.0773	-0.308
Mof_H 	H 	0.404	0.0471	0.1301	0.136
Mof_C 	C 	0.4692	0.0275	0.077	0.222
Mof_H 	H 	0.4978	0.0464	0.1302	-0.047
Mof_O 	O 	0.93897	0.56803	0.44143	-0.457
Mof_O 	O 	0.01987	0.61673	0.33213	-0.577
Mof_O 	O 	0.24167	0.33933	0.41713	-0.58
Mof_C 	C 	0.97867	0.39263	0.34623	0.226
Mof_C 	C 	0.02887	0.44873	0.30773	-0.272
Mof_H 	H 	0.06267	0.44813	0.27523	0.118
Mof_C 	C 	0.02857	0.50563	0.31763	0.111
Mof_H 	H 	0.06207	0.54313	0.29183	-0.027
Mof_C 	C 	0.97817	0.50653	0.36623	-0.17
Mof_C 	C 	0.92797	0.45043	0.40473	0.131
Mof_H 	H 	0.89427	0.45103	0.43723	-0.004
Mof_C 	C 	0.92827	0.39353	0.39483	-0.234
Mof_H 	H 	0.89477	0.35603	0.42063	0.11
Mof_C 	C 	0.97677	0.56633	0.37943	0.434
Mof_C 	C 	0.08017	0.36123	0.41063	-0.294
Mof_H 	H 	0.07067	0.38043	0.46343	0.13
Mof_C 	C 	0.13587	0.36083	0.41033	0.204
Mof_H 	H 	0.16447	0.37973	0.46353	-0.037
Mof_O 	O 	0.60563	0.90137	0.77477	-0.449
Mof_O 	O 	0.68653	0.95007	0.66547	-0.527
Mof_O 	O 	0.90833	0.67267	0.75047	-0.581
Mof_C 	C 	0.64533	0.72597	0.67957	0.18
Mof_C 	C 	0.69553	0.78207	0.64107	-0.225
Mof_H 	H 	0.72933	0.78147	0.60857	0.111
Mof_C 	C 	0.69523	0.83897	0.65097	0.137
Mof_H 	H 	0.72873	0.87647	0.62517	-0.024
Mof_C 	C 	0.64483	0.83987	0.69957	-0.194
Mof_C 	C 	0.59463	0.78377	0.73807	0.124
Mof_H 	H 	0.56093	0.78437	0.77057	-0.002
Mof_C 	C 	0.59493	0.72687	0.72817	-0.221
Mof_H 	H 	0.56143	0.68937	0.75397	0.106
Mof_C 	C 	0.64343	0.89967	0.71277	0.397
Mof_C 	C 	0.74683	0.69457	0.74397	-0.32
Mof_H 	H 	0.73733	0.71377	0.79677	0.146
Mof_C 	C 	0.80253	0.69417	0.74367	0.229
Mof_H 	H 	0.83113	0.71307	0.79687	-0.041
Mof_O 	O 	0.0376	0.7653	0.8919	-0.49
Mof_O 	O 	0.0698	0.7166	0.0012	-0.576
Mof_O 	O 	0.569	0.994	0.9162	-0.523
Mof_C 	C 	0.2527	0.9407	0.9871	0.243
Mof_C 	C 	0.2468	0.8846	0.0256	-0.272
Mof_H 	H 	0.2812	0.8852	0.0581	0.126
Mof_C 	C 	0.1896	0.8277	0.0157	0.156
Mof_H 	H 	0.1856	0.7902	0.0415	-0.039
Mof_C 	C 	0.1383	0.8268	0.9671	-0.21
Mof_C 	C 	0.1442	0.8829	0.9286	0.154
Mof_H 	H 	0.1099	0.8823	0.8961	-0.012
Mof_C 	C 	0.2014	0.9398	0.9385	-0.254
Mof_H 	H 	0.2054	0.9773	0.9127	0.132
Mof_C 	C 	0.0771	0.767	0.9539	0.419
Mof_C 	C 	0.3856	0.9721	0.9227	-0.266
Mof_H 	H 	0.3569	0.9529	0.8699	0.134
Mof_C 	C 	0.4417	0.9725	0.923	0.261
Mof_H 	H 	0.4514	0.9536	0.8698	-0.047
Mof_O 	O 	0.70427	0.09863	0.22523	-0.481
Mof_O 	O 	0.73647	0.04993	0.33453	-0.566
Mof_O 	O 	0.23567	0.32733	0.24953	-0.581
Mof_C 	C 	0.91937	0.27403	0.32043	0.19
Mof_C 	C 	0.91347	0.21793	0.35893	-0.233
Mof_H 	H 	0.94787	0.21853	0.39143	0.12
Mof_C 	C 	0.85627	0.16103	0.34903	0.148
Mof_H 	H 	0.85227	0.12353	0.37483	-0.034
Mof_C 	C 	0.80497	0.16013	0.30043	-0.205
Mof_C 	C 	0.81087	0.21623	0.26193	0.133
Mof_H 	H 	0.77657	0.21563	0.22943	-0.006
Mof_C 	C 	0.86807	0.27313	0.27183	-0.228
Mof_H 	H 	0.87207	0.31063	0.24603	0.108
Mof_C 	C 	0.74377	0.10033	0.28723	0.406
Mof_C 	C 	0.05227	0.30543	0.25603	-0.293
Mof_H 	H 	0.02357	0.28623	0.20323	0.122
Mof_C 	C 	0.10837	0.30583	0.25633	0.202
Mof_H 	H 	0.11807	0.28693	0.20313	-0.041
Mof_O 	O 	0.37093	0.43197	0.55857	-0.467
Mof_O 	O 	0.40313	0.38327	0.66787	-0.56
Mof_O 	O 	0.90233	0.66067	0.58287	-0.562
Mof_C 	C 	0.58603	0.60737	0.65377	0.183
Mof_C 	C 	0.58013	0.55127	0.69227	-0.231
Mof_H 	H 	0.61453	0.55187	0.72477	0.11
Mof_C 	C 	0.52293	0.49437	0.68237	0.144
Mof_H 	H 	0.51893	0.45687	0.70817	-0.033
Mof_C 	C 	0.47163	0.49347	0.63377	-0.202
Mof_C 	C 	0.47753	0.54957	0.59527	0.13
Mof_H 	H 	0.44323	0.54897	0.56277	-0.005
Mof_C 	C 	0.53473	0.60647	0.60517	-0.225
Mof_H 	H 	0.53873	0.64397	0.57937	0.107
Mof_C 	C 	0.41043	0.43367	0.62057	0.405
Mof_C 	C 	0.71893	0.63877	0.58937	-0.321
Mof_H 	H 	0.69023	0.61957	0.53657	0.145
Mof_C 	C 	0.77503	0.63917	0.58967	0.229
Mof_H 	H 	0.78473	0.62027	0.53647	-0.045
Mof_O 	O 	0.7277	0.9624	0.8919	-0.442
Mof_O 	O 	0.6468	0.9302	0.0012	-0.562
Mof_O 	O 	0.425	0.431	0.9162	-0.575
Mof_C 	C 	0.688	0.7473	0.9871	0.197
Mof_C 	C 	0.6378	0.7532	0.0256	-0.242
Mof_H 	H 	0.604	0.7188	0.0581	0.112
Mof_C 	C 	0.6381	0.8104	0.0157	0.138
Mof_H 	H 	0.6046	0.8144	0.0415	-0.034
Mof_C 	C 	0.6885	0.8617	0.9671	-0.195
Mof_C 	C 	0.7387	0.8558	0.9286	0.132
Mof_H 	H 	0.7724	0.8901	0.8961	0.003
Mof_C 	C 	0.7384	0.7986	0.9385	-0.227
Mof_H 	H 	0.7719	0.7946	0.9127	0.113
Mof_C 	C 	0.6899	0.9229	0.9539	0.413
Mof_C 	C 	0.5865	0.6144	0.9227	-0.315
Mof_H 	H 	0.596	0.6431	0.8699	0.144
Mof_C 	C 	0.5308	0.5583	0.923	0.237
Mof_H 	H 	0.5022	0.5486	0.8698	-0.047
Mof_O 	O 	0.39437	0.29573	0.22523	-0.468
Mof_O 	O 	0.31347	0.26353	0.33453	-0.561
Mof_O 	O 	0.09167	0.76433	0.24953	-0.575
Mof_C 	C 	0.35467	0.08063	0.32043	0.177
Mof_C 	C 	0.30447	0.08653	0.35893	-0.231
Mof_H 	H 	0.27067	0.05213	0.39143	0.099
Mof_C 	C 	0.30477	0.14373	0.34903	0.141
Mof_H 	H 	0.27127	0.14773	0.37483	-0.037
Mof_C 	C 	0.35517	0.19503	0.30043	-0.202
Mof_C 	C 	0.40537	0.18913	0.26193	0.128
Mof_H 	H 	0.43907	0.22343	0.22943	-0.005
Mof_C 	C 	0.40507	0.13193	0.27183	-0.223
Mof_H 	H 	0.43857	0.12793	0.24603	0.106
Mof_C 	C 	0.35657	0.25623	0.28723	0.405
Mof_C 	C 	0.25317	0.94773	0.25603	-0.356
Mof_H 	H 	0.26267	0.97643	0.20323	0.169
Mof_C 	C 	0.19747	0.89163	0.25633	0.259
Mof_H 	H 	0.16887	0.88193	0.20313	-0.056
Mof_O 	O 	0.06103	0.62907	0.55857	-0.458
Mof_O 	O 	0.98013	0.59687	0.66787	-0.531
Mof_O 	O 	0.75833	0.09767	0.58287	-0.573
Mof_C 	C 	0.02133	0.41397	0.65377	0.143
Mof_C 	C 	0.97113	0.41987	0.69227	-0.192
Mof_H 	H 	0.93733	0.38547	0.72477	0.102
Mof_C 	C 	0.97143	0.47707	0.68237	0.175
Mof_H 	H 	0.93793	0.48107	0.70817	-0.039
Mof_C 	C 	0.02183	0.52837	0.63377	-0.231
Mof_C 	C 	0.07203	0.52247	0.59527	0.128
Mof_H 	H 	0.10573	0.55677	0.56277	-0.005
Mof_C 	C 	0.07173	0.46527	0.60517	-0.216
Mof_H 	H 	0.10523	0.46127	0.57937	0.103
Mof_C 	C 	0.02323	0.58957	0.62057	0.375
Mof_C 	C 	0.91983	0.28107	0.58937	-0.354
Mof_H 	H 	0.92933	0.30977	0.53657	0.162
Mof_C 	C 	0.86413	0.22497	0.58967	0.256
Mof_H 	H 	0.83553	0.21527	0.53647	-0.054
Mof_O 	O 	0.2347	0.2723	0.8919	-0.471
Mof_O 	O 	0.2834	0.3532	0.0012	-0.567
Mof_O 	O 	0.006	0.575	0.9162	-0.585
Mof_C 	C 	0.0593	0.312	0.9871	0.194
Mof_C 	C 	0.1154	0.3622	0.0256	-0.244
Mof_H 	H 	0.1148	0.396	0.0581	0.111
Mof_C 	C 	0.1723	0.3619	0.0157	0.138
Mof_H 	H 	0.2098	0.3954	0.0415	-0.034
Mof_C 	C 	0.1732	0.3115	0.9671	-0.199
Mof_C 	C 	0.1171	0.2613	0.9286	0.131
Mof_H 	H 	0.1177	0.2276	0.8961	-0.01
Mof_C 	C 	0.0602	0.2616	0.9385	-0.234
Mof_H 	H 	0.0227	0.2281	0.9127	0.097
Mof_C 	C 	0.233	0.3101	0.9539	0.412
Mof_C 	C 	0.0279	0.4135	0.9227	-0.298
Mof_H 	H 	0.0471	0.404	0.8699	0.135
Mof_C 	C 	0.0275	0.4692	0.923	0.231
Mof_H 	H 	0.0464	0.4978	0.8698	-0.049
Mof_O 	O 	0.90137	0.60563	0.22523	-0.45
Mof_O 	O 	0.95007	0.68653	0.33453	-0.526
Mof_O 	O 	0.67267	0.90833	0.24953	-0.581
Mof_C 	C 	0.72597	0.64533	0.32043	0.18
Mof_C 	C 	0.78207	0.69553	0.35893	-0.226
Mof_H 	H 	0.78147	0.72933	0.39143	0.111
Mof_C 	C 	0.83897	0.69523	0.34903	0.138
Mof_H 	H 	0.87647	0.72873	0.37483	-0.024
Mof_C 	C 	0.83987	0.64483	0.30043	-0.194
Mof_C 	C 	0.78377	0.59463	0.26193	0.124
Mof_H 	H 	0.78437	0.56093	0.22943	-0.003
Mof_C 	C 	0.72687	0.59493	0.27183	-0.221
Mof_H 	H 	0.68937	0.56143	0.24603	0.105
Mof_C 	C 	0.89967	0.64343	0.28723	0.397
Mof_C 	C 	0.69457	0.74683	0.25603	-0.321
Mof_H 	H 	0.71377	0.73733	0.20323	0.146
Mof_C 	C 	0.69417	0.80253	0.25633	0.23
Mof_H 	H 	0.71307	0.83113	0.20313	-0.043
Mof_O 	O 	0.56803	0.93897	0.55857	-0.457
Mof_O 	O 	0.61673	0.01987	0.66787	-0.578
Mof_O 	O 	0.33933	0.24167	0.58287	-0.58
Mof_C 	C 	0.39263	0.97867	0.65377	0.225
Mof_C 	C 	0.44873	0.02887	0.69227	-0.272
Mof_H 	H 	0.44813	0.06267	0.72477	0.119
Mof_C 	C 	0.50563	0.02857	0.68237	0.112
Mof_H 	H 	0.54313	0.06207	0.70817	-0.027
Mof_C 	C 	0.50653	0.97817	0.63377	-0.171
Mof_C 	C 	0.45043	0.92797	0.59527	0.131
Mof_H 	H 	0.45103	0.89427	0.56277	-0.004
Mof_C 	C 	0.39353	0.92827	0.60517	-0.234
Mof_H 	H 	0.35603	0.89477	0.57937	0.11
Mof_C 	C 	0.56633	0.97677	0.62057	0.434
Mof_C 	C 	0.36123	0.08017	0.58937	-0.293
Mof_H 	H 	0.38043	0.07067	0.53657	0.13
Mof_C 	C 	0.36083	0.13587	0.58967	0.204
Mof_H 	H 	0.37973	0.16447	0.53647	-0.037
Mof_La	La	0.65071	0.98404	0.16667	2.251
Mof_La	La	0.31738	0.31738	0.5	2.16
Mof_La	La	0.01596	0.66667	0.16667	2.062
Mof_La	La	0.68262	3.75523e-33	0.5	2.075
Mof_La	La	0.33333	0.34929	0.16667	2.16
Mof_La	La	-3.33823e-17	0.68262	0.5	2.074
Mof_La	La	0.98404	0.65071	0.83333	2.258
Mof_La	La	0.66667	0.01596	0.83333	2.071
Mof_La	La	0.34929	0.33333	0.83333	2.168
Mof_N 	N 	-0	0.3108	-0	-0.224
Mof_C 	C 	3.38241e-17	0.3715	-0	0.188
Mof_C 	C 	-0	0.4841	-0	-0.334
Mof_C 	C 	3.38241e-17	0.5484	-0	0.478
Mof_N 	N 	0.66667	0.64413	0.33333	-0.205
Mof_C 	C 	0.66667	0.70483	0.33333	0.25
Mof_C 	C 	0.66667	0.81743	0.33333	-0.295
Mof_C 	C 	0.66667	0.88173	0.33333	0.529
Mof_N 	N 	0.33333	0.97747	0.66667	-0.192
Mof_C 	C 	0.33333	0.03817	0.66667	0.203
Mof_C 	C 	0.33333	0.15077	0.66667	-0.281
Mof_C 	C 	0.33333	0.21507	0.66667	0.523
Mof_N 	N 	0.6892	0.6892	-0	-0.208
Mof_C 	C 	0.6285	0.6285	-0	0.242
Mof_C 	C 	0.5159	0.5159	-0	-0.305
Mof_C 	C 	0.4516	0.4516	-0	0.522
Mof_N 	N 	0.35587	0.02253	0.33333	-0.219
Mof_C 	C 	0.29517	0.96183	0.33333	0.299
Mof_C 	C 	0.18257	0.84923	0.33333	-0.316
Mof_C 	C 	0.11827	0.78493	0.33333	0.529
Mof_N 	N 	0.02253	0.35587	0.66667	-0.218
Mof_C 	C 	0.96183	0.29517	0.66667	0.299
Mof_C 	C 	0.84923	0.18257	0.66667	-0.315
Mof_C 	C 	0.78493	0.11827	0.66667	0.529
Mof_N 	N 	0.3108	0	-0	-0.223
Mof_C 	C 	0.3715	0	-0	0.195
Mof_C 	C 	0.4841	0	-0	-0.329
Mof_C 	C 	0.5484	0	-0	0.486
Mof_N 	N 	0.97747	0.33333	0.33333	-0.192
Mof_C 	C 	0.03817	0.33333	0.33333	0.203
Mof_C 	C 	0.15077	0.33333	0.33333	-0.282
Mof_C 	C 	0.21507	0.33333	0.33333	0.523
Mof_N 	N 	0.64413	0.66667	0.66667	-0.205
Mof_C 	C 	0.70483	0.66667	0.66667	0.25
Mof_C 	C 	0.81743	0.66667	0.66667	-0.294
Mof_C 	C 	0.88173	0.66667	0.66667	0.529
_end
