data_functionalizedCrystal
_audit_creation_method	'EQeq! by Chris Wilmer'
_symmetry_space_group_name_H-M	'P1'
_symmetry_Int_Tables_number	1
_symmetry_cell_setting	triclinic
loop_
_symmetry_equiv_pos_as_xyz
  x,y,z
_cell_length_a	8.6937
_cell_length_b	12.0563
_cell_length_c	20.6607
_cell_angle_alpha	90
_cell_angle_beta	90
_cell_angle_gamma	101.903
loop_
_atom_site_label
_atom_site_type_symbol
_atom_site_fract_x
_atom_site_fract_y
_atom_site_fract_z
_atom_site_charge
Mof_Zn	Zn	0.66061	0.23951	0.5063	1.238
Mof_Zn	Zn	0.94629	0.82078	0.0021	1.174
Mof_Zn	Zn	0.33939	0.76049	0.0063	1.222
Mof_Zn	Zn	0.05371	0.17922	0.5021	1.199
Mof_H 	H 	0.5076	0.1896	0.9116	0.396
Mof_H 	H 	0.9612	0.3034	0.0918	0.057
Mof_H 	H 	0.4064	0.4923	0.0606	0.433
Mof_H 	H 	0.091	0.262	0.3267	0.254
Mof_H 	H 	0.0453	0.3135	0.2615	0.288
Mof_H 	H 	0.3521	0.4187	0.999	0.46
Mof_H 	H 	0.6173	0.659	0.2936	0.065
Mof_H 	H 	0.4924	0.8104	0.4116	0.354
Mof_H 	H 	0.4476	0.9046	0.4558	0.343
Mof_H 	H 	0.0197	0.3141	0.7634	0.236
Mof_H 	H 	0.9127	0.6087	0.8224	0.296
Mof_H 	H 	0.0873	0.3913	0.3224	0.293
Mof_H 	H 	0.0704	0.2384	0.709	0.227
Mof_H 	H 	0.909	0.738	0.8267	0.26
Mof_H 	H 	0.5936	0.5077	0.5606	0.262
Mof_H 	H 	0.9547	0.6865	0.7615	0.292
Mof_H 	H 	0.6793	0.4582	0.5041	0.214
Mof_H 	H 	0.9803	0.6859	0.2634	0.242
Mof_H 	H 	0.8981	0.2105	0.7359	0.239
Mof_H 	H 	0.8874	0.2979	0.8679	0.072
Mof_H 	H 	0.3207	0.5418	0.0041	0.368
Mof_H 	H 	0.5524	0.0954	0.9558	0.397
Mof_H 	H 	0.3827	0.341	0.7936	0.062
Mof_H 	H 	0.493	0.7973	0.4871	0.352
Mof_H 	H 	0.1126	0.7021	0.3679	0.046
Mof_H 	H 	0.6479	0.5813	0.499	0.251
Mof_H 	H 	0.0388	0.6966	0.5918	0.078
Mof_H 	H 	0.3673	0.3149	0.1971	0.045
Mof_H 	H 	0.1019	0.7895	0.2359	0.243
Mof_H 	H 	0.9296	0.7616	0.209	0.231
Mof_H 	H 	0.6327	0.6851	0.6971	0.05
Mof_H 	H 	0.507	0.2027	0.9871	0.409
Mof_C 	C 	0.6303	0.6579	0.0014	0.126
Mof_C 	C 	0.8771	0.8058	0.4118	0.225
Mof_C 	C 	0.5677	0.591	0.2747	-0.034
Mof_C 	C 	0.7187	0.0177	0.5	0.324
Mof_C 	C 	0.351	0.4784	0.2128	-0.084
Mof_C 	C 	0.0391	0.2486	0.0083	-0.129
Mof_C 	C 	0.8151	0.3533	0.9538	0.015
Mof_C 	C 	0.9609	0.7514	0.5083	-0.039
Mof_C 	C 	0.514	0.8503	0.4519	-1.038
Mof_C 	C 	0.9009	0.2979	0.9126	-0.061
Mof_C 	C 	0.795	0.5033	0.687	0.255
Mof_C 	C 	0.1733	0.2041	0.0194	0.193
Mof_C 	C 	0.7684	0.4619	0.3136	0.221
Mof_C 	C 	0.9616	0.683	0.8078	-0.799
Mof_C 	C 	0.008	0.2425	0.9417	0.019
Mof_C 	C 	0.1849	0.6467	0.4538	-0.085
Mof_C 	C 	0.33	0.6624	0.2331	0.188
Mof_C 	C 	0.8789	0.2887	0.6093	0.351
Mof_C 	C 	0.84	0.2877	0.3988	0.266
Mof_C 	C 	0.1644	0.6422	0.521	-0.012
Mof_C 	C 	0.8786	0.2926	0.3266	0.208
Mof_C 	C 	0.5743	0.4199	0.7419	-0.006
Mof_C 	C 	0.1229	0.1942	0.9118	0.197
Mof_C 	C 	0.393	0.494	0.015	-1.272
Mof_C 	C 	0.2813	0.9823	-0	0.205
Mof_C 	C 	0.5426	0.5381	0.9842	0.397
Mof_C 	C 	0.3687	0.5057	0.7775	-0.015
Mof_C 	C 	0.663	0.9034	0.4535	0.33
Mof_C 	C 	0.5829	0.617	0.7158	0.006
Mof_C 	C 	0.0526	0.6967	0.5472	-0.038
Mof_C 	C 	0.486	0.1497	0.9519	-1.186
Mof_C 	C 	0.4323	0.409	0.7747	-0.032
Mof_C 	C 	0.014	0.73	0.2253	-0.619
Mof_C 	C 	0.66	0.3051	0.2597	0.257
Mof_C 	C 	0.1214	0.7074	0.8266	0.213
Mof_C 	C 	0.9474	0.3033	0.0472	0.016
Mof_C 	C 	0.3697	0.3421	0.5014	0.319
Mof_C 	C 	0.0384	0.317	0.3078	-0.792
Mof_C 	C 	0.0991	0.7021	0.4126	0.013
Mof_C 	C 	0.0645	0.6523	0.1732	0.125
Mof_C 	C 	0.5601	0.3924	0.2477	-0.05
Mof_C 	C 	0.1211	0.7113	0.1093	0.351
Mof_C 	C 	0.337	0.0966	0.9535	0.414
Mof_C 	C 	0.205	0.4967	0.187	0.252
Mof_C 	C 	0.4574	0.4619	0.4842	0.147
Mof_C 	C 	0.274	0.5777	0.4315	0.211
Mof_C 	C 	0.607	0.506	0.515	-0.684
Mof_C 	C 	0.726	0.4223	0.9315	0.18
Mof_C 	C 	0.16	0.7123	0.8988	0.26
Mof_C 	C 	0.4257	0.5801	0.2419	-0.004
Mof_C 	C 	0.9355	0.3477	0.6732	0.126
Mof_C 	C 	0.649	0.5216	0.7128	-0.078
Mof_C 	C 	0.4399	0.6076	0.7477	-0.047
Mof_C 	C 	0.2316	0.5381	0.8136	0.222
Mof_C 	C 	0.34	0.6949	0.7597	0.256
Mof_C 	C 	0.6313	0.4943	0.2775	-0.013
Mof_C 	C 	0.2806	0.5715	0.5415	0.204
Mof_C 	C 	0.67	0.3376	0.7331	0.189
Mof_C 	C 	0.986	0.27	0.7253	-0.605
Mof_C 	C 	0.7194	0.4285	0.0415	0.182
Mof_C 	C 	0.8356	0.3578	0.021	-0.104
Mof_C 	C 	0.8267	0.7959	0.5194	0.22
Mof_C 	C 	0.992	0.7575	0.4417	-0.069
Mof_C 	C 	0.4171	0.383	0.2158	0.006
Mof_N 	N 	0.2251	0.1705	0.9598	-0.21
Mof_N 	N 	0.7808	0.3602	0.296	-0.211
Mof_N 	N 	0.8069	0.3966	0.7012	-0.176
Mof_N 	N 	0.7749	0.8295	0.4598	-0.219
Mof_N 	N 	0.1931	0.6034	0.2012	-0.176
Mof_N 	N 	0.2192	0.6398	0.796	-0.211
Mof_N 	N 	0.6489	0.4581	0.9872	-0.184
Mof_N 	N 	0.3511	0.5419	0.4872	-0.177
Mof_O 	O 	0.3858	0.9235	0.0039	-0.47
Mof_O 	O 	0.9264	0.2767	0.4451	-0.456
Mof_O 	O 	0.0164	0.7643	0.0865	-0.464
Mof_O 	O 	0.245	0.7017	0.0867	-0.494
Mof_O 	O 	0.2258	0.3237	0.4981	-0.425
Mof_O 	O 	0.0736	0.7233	0.9451	-0.438
Mof_O 	O 	0.4498	0.2683	0.5168	-0.466
Mof_O 	O 	0.321	0.5609	0.3766	-0.231
Mof_O 	O 	0.3009	0.7068	0.9166	-0.397
Mof_O 	O 	0.854	0.5351	0.3472	-0.232
Mof_O 	O 	0.8778	0.8441	0.3579	-0.25
Mof_O 	O 	0.6142	0.0765	0.5039	-0.476
Mof_O 	O 	0.213	0.1851	0.0712	-0.255
Mof_O 	O 	0.895	0.5615	0.66	-0.259
Mof_O 	O 	0.143	0.952	0.9973	-0.392
Mof_O 	O 	0.627	0.2095	0.2488	-0.251
Mof_O 	O 	0.5502	0.7317	0.0168	-0.437
Mof_O 	O 	0.787	0.8149	0.5712	-0.244
Mof_O 	O 	0.9836	0.2357	0.5865	-0.446
Mof_O 	O 	0.755	0.2983	0.5867	-0.48
Mof_O 	O 	0.6435	0.2374	0.7546	-0.222
Mof_O 	O 	0.3565	0.7626	0.2546	-0.22
Mof_O 	O 	0.679	0.4391	0.8766	-0.228
Mof_O 	O 	0.7742	0.6763	0.9981	-0.321
Mof_O 	O 	0.1222	0.1559	0.8579	-0.245
Mof_O 	O 	0.3124	0.5465	0.5959	-0.216
Mof_O 	O 	0.6991	0.2932	0.4166	-0.414
Mof_O 	O 	0.857	0.048	0.4973	-0.483
Mof_O 	O 	0.373	0.7905	0.7488	-0.245
Mof_O 	O 	0.105	0.4385	0.16	-0.264
Mof_O 	O 	0.6876	0.4535	0.0959	-0.225
Mof_O 	O 	0.146	0.4649	0.8472	-0.232
_end
