data_functionalizedCrystal
_audit_creation_method	'EQeq! by Chris Wilmer'
_symmetry_space_group_name_H-M	'P1'
_symmetry_Int_Tables_number	1
_symmetry_cell_setting	triclinic
loop_
_symmetry_equiv_pos_as_xyz
  x,y,z
_cell_length_a	27.9319
_cell_length_b	14.3167
_cell_length_c	21.4476
_cell_angle_alpha	90
_cell_angle_beta	90
_cell_angle_gamma	90
loop_
_atom_site_label
_atom_site_type_symbol
_atom_site_fract_x
_atom_site_fract_y
_atom_site_fract_z
_atom_site_charge
Mof_N 	N 	0.109	0.3726	0.8262	-0.129
Mof_N 	N 	0.9325	0.6765	0.8954	-0.12
Mof_C 	C 	0.2071	0.2516	0.9589	0.291
Mof_H 	H 	0.6949	0.6871	0.9671	-0.833
Mof_O 	O 	0.1899	0.1629	0.9751	0.858
Mof_H 	H 	0.2131	0.1275	0.9833	-0.104
Mof_C 	C 	0.2575	0.2403	0.9324	-0.481
Mof_H 	H 	0.2561	0.1998	0.8951	0.177
Mof_H 	H 	0.2695	0.3023	0.9191	0.143
Mof_C 	C 	0.2075	0.3015	0.0211	0.629
Mof_H 	H 	0.2186	0.3667	0.0127	-1.235
Mof_O 	O 	0.777	0.6012	0.9922	1.322
Mof_H 	H 	0.747	0.598	0.9904	-0.334
Mof_C 	C 	0.1734	0.2946	0.9119	-0.072
Mof_C 	C 	0.1847	0.3732	0.8802	-0.052
Mof_H 	H 	0.2149	0.4023	0.8862	0.006
Mof_C 	C 	0.1518	0.411	0.8387	0.018
Mof_H 	H 	0.1601	0.4673	0.8179	0.032
Mof_C 	C 	0.097	0.3007	0.8588	0.024
Mof_H 	H 	0.0655	0.2767	0.8538	0.041
Mof_C 	C 	0.1283	0.2546	0.9021	-0.042
Mof_H 	H 	0.1188	0.1993	0.9232	0.025
Mof_C 	C 	0.1582	0.3096	0.0501	-0.237
Mof_C 	C 	0.1362	0.3959	0.06	0.073
Mof_H 	H 	0.1523	0.4518	0.0484	-0.044
Mof_C 	C 	0.9084	0.5994	0.9134	-0.036
Mof_H 	H 	0.9228	0.5399	0.9076	0.052
Mof_C 	C 	0.9115	0.7559	0.9045	-0.016
Mof_H 	H 	0.928	0.8105	0.8915	0.022
Mof_C 	C 	0.133	0.2321	0.0683	0.046
Mof_H 	H 	0.1458	0.1713	0.0624	-0.03
Mof_N 	N 	0.609	0.8726	0.8262	-0.129
Mof_N 	N 	0.4325	0.1765	0.8954	-0.119
Mof_C 	C 	0.7071	0.7516	0.9589	0.291
Mof_H 	H 	0.1949	0.1871	0.9671	-0.835
Mof_O 	O 	0.6899	0.6629	0.9751	0.857
Mof_H 	H 	0.7131	0.6275	0.9833	-0.105
Mof_C 	C 	0.7575	0.7403	0.9324	-0.482
Mof_H 	H 	0.7561	0.6998	0.8951	0.176
Mof_H 	H 	0.7695	0.8023	0.9191	0.142
Mof_C 	C 	0.7075	0.8015	0.0211	0.628
Mof_H 	H 	0.7186	0.8667	0.0127	-1.236
Mof_O 	O 	0.277	0.1012	0.9922	1.321
Mof_H 	H 	0.247	0.098	0.9904	-0.335
Mof_C 	C 	0.6734	0.7946	0.9119	-0.073
Mof_C 	C 	0.6847	0.8732	0.8802	-0.053
Mof_H 	H 	0.7149	0.9023	0.8862	0.005
Mof_C 	C 	0.6518	0.911	0.8387	0.017
Mof_H 	H 	0.6601	0.9673	0.8179	0.031
Mof_C 	C 	0.597	0.8007	0.8588	0.024
Mof_H 	H 	0.5655	0.7767	0.8538	0.04
Mof_C 	C 	0.6283	0.7546	0.9021	-0.042
Mof_H 	H 	0.6188	0.6993	0.9232	0.025
Mof_C 	C 	0.6582	0.8096	0.0501	-0.237
Mof_C 	C 	0.6362	0.8959	0.06	0.073
Mof_H 	H 	0.6523	0.9518	0.0484	-0.044
Mof_C 	C 	0.4084	0.0994	0.9134	-0.036
Mof_H 	H 	0.4228	0.0399	0.9076	0.053
Mof_C 	C 	0.4115	0.2559	0.9045	-0.016
Mof_H 	H 	0.428	0.3105	0.8915	0.024
Mof_C 	C 	0.633	0.7321	0.0683	0.046
Mof_H 	H 	0.6458	0.6713	0.0624	-0.03
Mof_N 	N 	0.891	0.6274	0.3262	-0.13
Mof_N 	N 	0.0675	0.3235	0.3954	-0.119
Mof_C 	C 	0.7929	0.7484	0.4589	0.291
Mof_H 	H 	0.3051	0.3129	0.4671	-0.835
Mof_O 	O 	0.8101	0.8371	0.4751	0.857
Mof_H 	H 	0.7869	0.8725	0.4833	-0.105
Mof_C 	C 	0.7425	0.7597	0.4324	-0.483
Mof_H 	H 	0.7439	0.8002	0.3951	0.176
Mof_H 	H 	0.7305	0.6977	0.4191	0.142
Mof_C 	C 	0.7925	0.6985	0.5211	0.628
Mof_H 	H 	0.7814	0.6333	0.5127	-1.237
Mof_O 	O 	0.223	0.3988	0.4922	1.321
Mof_H 	H 	0.253	0.402	0.4904	-0.335
Mof_C 	C 	0.8266	0.7054	0.4119	-0.073
Mof_C 	C 	0.8153	0.6268	0.3802	-0.053
Mof_H 	H 	0.7851	0.5977	0.3862	0.005
Mof_C 	C 	0.8482	0.589	0.3387	0.017
Mof_H 	H 	0.8399	0.5327	0.3179	0.031
Mof_C 	C 	0.903	0.6993	0.3588	0.024
Mof_H 	H 	0.9345	0.7233	0.3538	0.038
Mof_C 	C 	0.8717	0.7454	0.4021	-0.042
Mof_H 	H 	0.8812	0.8007	0.4232	0.024
Mof_C 	C 	0.8418	0.6904	0.5501	-0.237
Mof_C 	C 	0.8638	0.6041	0.56	0.072
Mof_H 	H 	0.8477	0.5482	0.5484	-0.044
Mof_C 	C 	0.0916	0.4006	0.4134	-0.036
Mof_H 	H 	0.0772	0.4601	0.4076	0.054
Mof_C 	C 	0.0885	0.2441	0.4045	-0.016
Mof_H 	H 	0.072	0.1895	0.3915	0.025
Mof_C 	C 	0.867	0.7679	0.5683	0.046
Mof_H 	H 	0.8542	0.8287	0.5624	-0.03
Mof_N 	N 	0.391	0.1274	0.3262	-0.13
Mof_N 	N 	0.5675	0.8235	0.3954	-0.119
Mof_C 	C 	0.2929	0.2484	0.4589	0.29
Mof_H 	H 	0.8051	0.8129	0.4671	-0.835
Mof_O 	O 	0.3101	0.3371	0.4751	0.857
Mof_H 	H 	0.2869	0.3725	0.4833	-0.105
Mof_C 	C 	0.2425	0.2597	0.4324	-0.483
Mof_H 	H 	0.2439	0.3002	0.3951	0.176
Mof_H 	H 	0.2305	0.1977	0.4191	0.142
Mof_C 	C 	0.2925	0.1985	0.5211	0.628
Mof_H 	H 	0.2814	0.1333	0.5127	-1.236
Mof_O 	O 	0.723	0.8988	0.4922	1.321
Mof_H 	H 	0.753	0.902	0.4904	-0.335
Mof_C 	C 	0.3266	0.2054	0.4119	-0.073
Mof_C 	C 	0.3153	0.1268	0.3802	-0.053
Mof_H 	H 	0.2851	0.0977	0.3862	0.005
Mof_C 	C 	0.3482	0.089	0.3387	0.017
Mof_H 	H 	0.3399	0.0327	0.3179	0.031
Mof_C 	C 	0.403	0.1993	0.3588	0.024
Mof_H 	H 	0.4345	0.2233	0.3538	0.04
Mof_C 	C 	0.3717	0.2454	0.4021	-0.042
Mof_H 	H 	0.3812	0.3007	0.4232	0.024
Mof_C 	C 	0.3418	0.1904	0.5501	-0.237
Mof_C 	C 	0.3638	0.1041	0.56	0.073
Mof_H 	H 	0.3477	0.0482	0.5484	-0.044
Mof_C 	C 	0.5916	0.9006	0.4134	-0.036
Mof_H 	H 	0.5772	0.9601	0.4076	0.054
Mof_C 	C 	0.5885	0.7441	0.4045	-0.016
Mof_H 	H 	0.572	0.6895	0.3915	0.024
Mof_C 	C 	0.367	0.2679	0.5683	0.046
Mof_H 	H 	0.3542	0.3287	0.5624	-0.03
Mof_N 	N 	0.891	0.3726	0.6738	-0.13
Mof_N 	N 	0.0675	0.6765	0.6046	-0.119
Mof_C 	C 	0.7929	0.2516	0.5411	0.291
Mof_H 	H 	0.3051	0.6871	0.5329	-0.835
Mof_O 	O 	0.8101	0.1629	0.5249	0.857
Mof_H 	H 	0.7869	0.1275	0.5167	-0.105
Mof_C 	C 	0.7425	0.2403	0.5676	-0.483
Mof_H 	H 	0.7439	0.1998	0.6049	0.176
Mof_H 	H 	0.7305	0.3023	0.5809	0.142
Mof_C 	C 	0.7925	0.3015	0.4789	0.628
Mof_H 	H 	0.7814	0.3667	0.4873	-1.237
Mof_O 	O 	0.223	0.6012	0.5078	1.321
Mof_H 	H 	0.253	0.598	0.5096	-0.335
Mof_C 	C 	0.8266	0.2946	0.5881	-0.073
Mof_C 	C 	0.8153	0.3732	0.6198	-0.053
Mof_H 	H 	0.7851	0.4023	0.6138	0.005
Mof_C 	C 	0.8482	0.411	0.6613	0.017
Mof_H 	H 	0.8399	0.4673	0.6821	0.031
Mof_C 	C 	0.903	0.3007	0.6412	0.024
Mof_H 	H 	0.9345	0.2767	0.6462	0.038
Mof_C 	C 	0.8717	0.2546	0.5979	-0.042
Mof_H 	H 	0.8812	0.1993	0.5768	0.024
Mof_C 	C 	0.8418	0.3096	0.4499	-0.237
Mof_C 	C 	0.8638	0.3959	0.44	0.072
Mof_H 	H 	0.8477	0.4518	0.4516	-0.044
Mof_C 	C 	0.0916	0.5994	0.5866	-0.036
Mof_H 	H 	0.0772	0.5399	0.5924	0.054
Mof_C 	C 	0.0885	0.7559	0.5955	-0.016
Mof_H 	H 	0.072	0.8105	0.6085	0.025
Mof_C 	C 	0.867	0.2321	0.4317	0.046
Mof_H 	H 	0.8542	0.1713	0.4376	-0.03
Mof_N 	N 	0.391	0.8726	0.6738	-0.13
Mof_N 	N 	0.5675	0.1765	0.6046	-0.119
Mof_C 	C 	0.2929	0.7516	0.5411	0.29
Mof_H 	H 	0.8051	0.1871	0.5329	-0.835
Mof_O 	O 	0.3101	0.6629	0.5249	0.857
Mof_H 	H 	0.2869	0.6275	0.5167	-0.105
Mof_C 	C 	0.2425	0.7403	0.5676	-0.483
Mof_H 	H 	0.2439	0.6998	0.6049	0.176
Mof_H 	H 	0.2305	0.8023	0.5809	0.142
Mof_C 	C 	0.2925	0.8015	0.4789	0.628
Mof_H 	H 	0.2814	0.8667	0.4873	-1.236
Mof_O 	O 	0.723	0.1012	0.5078	1.321
Mof_H 	H 	0.753	0.098	0.5096	-0.335
Mof_C 	C 	0.3266	0.7946	0.5881	-0.073
Mof_C 	C 	0.3153	0.8732	0.6198	-0.053
Mof_H 	H 	0.2851	0.9023	0.6138	0.005
Mof_C 	C 	0.3482	0.911	0.6613	0.017
Mof_H 	H 	0.3399	0.9673	0.6821	0.031
Mof_C 	C 	0.403	0.8007	0.6412	0.024
Mof_H 	H 	0.4345	0.7767	0.6462	0.04
Mof_C 	C 	0.3717	0.7546	0.5979	-0.042
Mof_H 	H 	0.3812	0.6993	0.5768	0.024
Mof_C 	C 	0.3418	0.8096	0.4499	-0.237
Mof_C 	C 	0.3638	0.8959	0.44	0.073
Mof_H 	H 	0.3477	0.9518	0.4516	-0.044
Mof_C 	C 	0.5916	0.0994	0.5866	-0.036
Mof_H 	H 	0.5772	0.0399	0.5924	0.054
Mof_C 	C 	0.5885	0.2559	0.5955	-0.016
Mof_H 	H 	0.572	0.3105	0.6085	0.024
Mof_C 	C 	0.367	0.7321	0.4317	0.046
Mof_H 	H 	0.3542	0.6713	0.4376	-0.03
Mof_N 	N 	0.109	0.6274	0.1738	-0.13
Mof_N 	N 	0.9325	0.3235	0.1046	-0.121
Mof_C 	C 	0.2071	0.7484	0.0411	0.29
Mof_H 	H 	0.6949	0.3129	0.0329	-0.834
Mof_O 	O 	0.1899	0.8371	0.0249	0.857
Mof_H 	H 	0.2131	0.8725	0.0167	-0.105
Mof_C 	C 	0.2575	0.7597	0.0676	-0.482
Mof_H 	H 	0.2561	0.8002	0.1049	0.176
Mof_H 	H 	0.2695	0.6977	0.0809	0.142
Mof_C 	C 	0.2075	0.6985	0.9789	0.628
Mof_H 	H 	0.2186	0.6333	0.9873	-1.236
Mof_O 	O 	0.777	0.3988	0.0078	1.321
Mof_H 	H 	0.747	0.402	0.0096	-0.335
Mof_C 	C 	0.1734	0.7054	0.0881	-0.073
Mof_C 	C 	0.1847	0.6268	0.1198	-0.053
Mof_H 	H 	0.2149	0.5977	0.1138	0.005
Mof_C 	C 	0.1518	0.589	0.1613	0.017
Mof_H 	H 	0.1601	0.5327	0.1821	0.031
Mof_C 	C 	0.097	0.6993	0.1412	0.024
Mof_H 	H 	0.0655	0.7233	0.1462	0.041
Mof_C 	C 	0.1283	0.7454	0.0979	-0.042
Mof_H 	H 	0.1188	0.8007	0.0768	0.025
Mof_C 	C 	0.1582	0.6904	0.9499	-0.237
Mof_C 	C 	0.1362	0.6041	0.94	0.073
Mof_H 	H 	0.1523	0.5482	0.9516	-0.044
Mof_C 	C 	0.9084	0.4006	0.0866	-0.036
Mof_H 	H 	0.9228	0.4601	0.0924	0.052
Mof_C 	C 	0.9115	0.2441	0.0955	-0.016
Mof_H 	H 	0.928	0.1895	0.1085	0.022
Mof_C 	C 	0.133	0.7679	0.9317	0.046
Mof_H 	H 	0.1458	0.8287	0.9376	-0.03
Mof_N 	N 	0.609	0.1274	0.1738	-0.129
Mof_N 	N 	0.4325	0.8235	0.1046	-0.119
Mof_C 	C 	0.7071	0.2484	0.0411	0.291
Mof_H 	H 	0.1949	0.8129	0.0329	-0.835
Mof_O 	O 	0.6899	0.3371	0.0249	0.857
Mof_H 	H 	0.7131	0.3725	0.0167	-0.105
Mof_C 	C 	0.7575	0.2597	0.0676	-0.482
Mof_H 	H 	0.7561	0.3002	0.1049	0.176
Mof_H 	H 	0.7695	0.1977	0.0809	0.142
Mof_C 	C 	0.7075	0.1985	0.9789	0.628
Mof_H 	H 	0.7186	0.1333	0.9873	-1.236
Mof_O 	O 	0.277	0.8988	0.0078	1.321
Mof_H 	H 	0.247	0.902	0.0096	-0.335
Mof_C 	C 	0.6734	0.2054	0.0881	-0.073
Mof_C 	C 	0.6847	0.1268	0.1198	-0.053
Mof_H 	H 	0.7149	0.0977	0.1138	0.005
Mof_C 	C 	0.6518	0.089	0.1613	0.017
Mof_H 	H 	0.6601	0.0327	0.1821	0.031
Mof_C 	C 	0.597	0.1993	0.1412	0.024
Mof_H 	H 	0.5655	0.2233	0.1462	0.04
Mof_C 	C 	0.6283	0.2454	0.0979	-0.042
Mof_H 	H 	0.6188	0.3007	0.0768	0.025
Mof_C 	C 	0.6582	0.1904	0.9499	-0.237
Mof_C 	C 	0.6362	0.1041	0.94	0.073
Mof_H 	H 	0.6523	0.0482	0.9516	-0.044
Mof_C 	C 	0.4084	0.9006	0.0866	-0.036
Mof_H 	H 	0.4228	0.9601	0.0924	0.053
Mof_C 	C 	0.4115	0.7441	0.0955	-0.016
Mof_H 	H 	0.428	0.6895	0.1085	0.024
Mof_C 	C 	0.633	0.2679	0.9317	0.046
Mof_H 	H 	0.6458	0.3287	0.9376	-0.03
Mof_N 	N 	0.891	0.6274	0.1738	-0.13
Mof_N 	N 	0.0675	0.3235	0.1046	-0.119
Mof_C 	C 	0.7929	0.7484	0.0411	0.29
Mof_H 	H 	0.3051	0.3129	0.0329	-0.834
Mof_O 	O 	0.8101	0.8371	0.0249	0.857
Mof_H 	H 	0.7869	0.8725	0.0167	-0.105
Mof_C 	C 	0.7425	0.7597	0.0676	-0.482
Mof_H 	H 	0.7439	0.8002	0.1049	0.176
Mof_H 	H 	0.7305	0.6977	0.0809	0.142
Mof_C 	C 	0.7925	0.6985	0.9789	0.628
Mof_H 	H 	0.7814	0.6333	0.9873	-1.236
Mof_O 	O 	0.223	0.3988	0.0078	1.32
Mof_H 	H 	0.253	0.402	0.0096	-0.335
Mof_C 	C 	0.8266	0.7054	0.0881	-0.073
Mof_C 	C 	0.8153	0.6268	0.1198	-0.053
Mof_H 	H 	0.7851	0.5977	0.1138	0.005
Mof_C 	C 	0.8482	0.589	0.1613	0.017
Mof_H 	H 	0.8399	0.5327	0.1821	0.031
Mof_C 	C 	0.903	0.6993	0.1412	0.024
Mof_H 	H 	0.9345	0.7233	0.1462	0.038
Mof_C 	C 	0.8717	0.7454	0.0979	-0.042
Mof_H 	H 	0.8812	0.8007	0.0768	0.024
Mof_C 	C 	0.8418	0.6904	0.9499	-0.237
Mof_C 	C 	0.8638	0.6041	0.94	0.072
Mof_H 	H 	0.8477	0.5482	0.9516	-0.044
Mof_C 	C 	0.0916	0.4006	0.0866	-0.036
Mof_H 	H 	0.0772	0.4601	0.0924	0.054
Mof_C 	C 	0.0885	0.2441	0.0955	-0.016
Mof_H 	H 	0.072	0.1895	0.1085	0.025
Mof_C 	C 	0.867	0.7679	0.9317	0.046
Mof_H 	H 	0.8542	0.8287	0.9376	-0.03
Mof_N 	N 	0.391	0.1274	0.1738	-0.13
Mof_N 	N 	0.5675	0.8235	0.1046	-0.119
Mof_C 	C 	0.2929	0.2484	0.0411	0.291
Mof_H 	H 	0.8051	0.8129	0.0329	-0.835
Mof_O 	O 	0.3101	0.3371	0.0249	0.857
Mof_H 	H 	0.2869	0.3725	0.0167	-0.105
Mof_C 	C 	0.2425	0.2597	0.0676	-0.483
Mof_H 	H 	0.2439	0.3002	0.1049	0.176
Mof_H 	H 	0.2305	0.1977	0.0809	0.143
Mof_C 	C 	0.2925	0.1985	0.9789	0.628
Mof_H 	H 	0.2814	0.1333	0.9873	-1.236
Mof_O 	O 	0.723	0.8988	0.0078	1.321
Mof_H 	H 	0.753	0.902	0.0096	-0.335
Mof_C 	C 	0.3266	0.2054	0.0881	-0.073
Mof_C 	C 	0.3153	0.1268	0.1198	-0.053
Mof_H 	H 	0.2851	0.0977	0.1138	0.005
Mof_C 	C 	0.3482	0.089	0.1613	0.017
Mof_H 	H 	0.3399	0.0327	0.1821	0.031
Mof_C 	C 	0.403	0.1993	0.1412	0.024
Mof_H 	H 	0.4345	0.2233	0.1462	0.04
Mof_C 	C 	0.3717	0.2454	0.0979	-0.042
Mof_H 	H 	0.3812	0.3007	0.0768	0.025
Mof_C 	C 	0.3418	0.1904	0.9499	-0.237
Mof_C 	C 	0.3638	0.1041	0.94	0.073
Mof_H 	H 	0.3477	0.0482	0.9516	-0.044
Mof_C 	C 	0.5916	0.9006	0.0866	-0.036
Mof_H 	H 	0.5772	0.9601	0.0924	0.053
Mof_C 	C 	0.5885	0.7441	0.0955	-0.016
Mof_H 	H 	0.572	0.6895	0.1085	0.024
Mof_C 	C 	0.367	0.2679	0.9317	0.046
Mof_H 	H 	0.3542	0.3287	0.9376	-0.03
Mof_N 	N 	0.109	0.3726	0.6738	-0.13
Mof_N 	N 	0.9325	0.6765	0.6046	-0.121
Mof_C 	C 	0.2071	0.2516	0.5411	0.29
Mof_H 	H 	0.6949	0.6871	0.5329	-0.835
Mof_O 	O 	0.1899	0.1629	0.5249	0.857
Mof_H 	H 	0.2131	0.1275	0.5167	-0.105
Mof_C 	C 	0.2575	0.2403	0.5676	-0.482
Mof_H 	H 	0.2561	0.1998	0.6049	0.176
Mof_H 	H 	0.2695	0.3023	0.5809	0.142
Mof_C 	C 	0.2075	0.3015	0.4789	0.628
Mof_H 	H 	0.2186	0.3667	0.4873	-1.236
Mof_O 	O 	0.777	0.6012	0.5078	1.321
Mof_H 	H 	0.747	0.598	0.5096	-0.335
Mof_C 	C 	0.1734	0.2946	0.5881	-0.073
Mof_C 	C 	0.1847	0.3732	0.6198	-0.053
Mof_H 	H 	0.2149	0.4023	0.6138	0.005
Mof_C 	C 	0.1518	0.411	0.6613	0.017
Mof_H 	H 	0.1601	0.4673	0.6821	0.031
Mof_C 	C 	0.097	0.3007	0.6412	0.024
Mof_H 	H 	0.0655	0.2767	0.6462	0.041
Mof_C 	C 	0.1283	0.2546	0.5979	-0.042
Mof_H 	H 	0.1188	0.1993	0.5768	0.025
Mof_C 	C 	0.1582	0.3096	0.4499	-0.237
Mof_C 	C 	0.1362	0.3959	0.44	0.073
Mof_H 	H 	0.1523	0.4518	0.4516	-0.044
Mof_C 	C 	0.9084	0.5994	0.5866	-0.036
Mof_H 	H 	0.9228	0.5399	0.5924	0.052
Mof_C 	C 	0.9115	0.7559	0.5955	-0.016
Mof_H 	H 	0.928	0.8105	0.6085	0.022
Mof_C 	C 	0.133	0.2321	0.4317	0.046
Mof_H 	H 	0.1458	0.1713	0.4376	-0.03
Mof_N 	N 	0.609	0.8726	0.6738	-0.13
Mof_N 	N 	0.4325	0.1765	0.6046	-0.119
Mof_C 	C 	0.7071	0.7516	0.5411	0.29
Mof_H 	H 	0.1949	0.1871	0.5329	-0.835
Mof_O 	O 	0.6899	0.6629	0.5249	0.857
Mof_H 	H 	0.7131	0.6275	0.5167	-0.105
Mof_C 	C 	0.7575	0.7403	0.5676	-0.482
Mof_H 	H 	0.7561	0.6998	0.6049	0.176
Mof_H 	H 	0.7695	0.8023	0.5809	0.142
Mof_C 	C 	0.7075	0.8015	0.4789	0.628
Mof_H 	H 	0.7186	0.8667	0.4873	-1.236
Mof_O 	O 	0.277	0.1012	0.5078	1.321
Mof_H 	H 	0.247	0.098	0.5096	-0.335
Mof_C 	C 	0.6734	0.7946	0.5881	-0.073
Mof_C 	C 	0.6847	0.8732	0.6198	-0.053
Mof_H 	H 	0.7149	0.9023	0.6138	0.005
Mof_C 	C 	0.6518	0.911	0.6613	0.017
Mof_H 	H 	0.6601	0.9673	0.6821	0.031
Mof_C 	C 	0.597	0.8007	0.6412	0.024
Mof_H 	H 	0.5655	0.7767	0.6462	0.04
Mof_C 	C 	0.6283	0.7546	0.5979	-0.042
Mof_H 	H 	0.6188	0.6993	0.5768	0.024
Mof_C 	C 	0.6582	0.8096	0.4499	-0.237
Mof_C 	C 	0.6362	0.8959	0.44	0.073
Mof_H 	H 	0.6523	0.9518	0.4516	-0.044
Mof_C 	C 	0.4084	0.0994	0.5866	-0.036
Mof_H 	H 	0.4228	0.0399	0.5924	0.054
Mof_C 	C 	0.4115	0.2559	0.5955	-0.016
Mof_H 	H 	0.428	0.3105	0.6085	0.024
Mof_C 	C 	0.633	0.7321	0.4317	0.046
Mof_H 	H 	0.6458	0.6713	0.4376	-0.03
Mof_N 	N 	0.109	0.6274	0.3262	-0.13
Mof_N 	N 	0.9325	0.3235	0.3954	-0.121
Mof_C 	C 	0.2071	0.7484	0.4589	0.29
Mof_H 	H 	0.6949	0.3129	0.4671	-0.835
Mof_O 	O 	0.1899	0.8371	0.4751	0.857
Mof_H 	H 	0.2131	0.8725	0.4833	-0.105
Mof_C 	C 	0.2575	0.7597	0.4324	-0.482
Mof_H 	H 	0.2561	0.8002	0.3951	0.176
Mof_H 	H 	0.2695	0.6977	0.4191	0.142
Mof_C 	C 	0.2075	0.6985	0.5211	0.628
Mof_H 	H 	0.2186	0.6333	0.5127	-1.236
Mof_O 	O 	0.777	0.3988	0.4922	1.321
Mof_H 	H 	0.747	0.402	0.4904	-0.335
Mof_C 	C 	0.1734	0.7054	0.4119	-0.073
Mof_C 	C 	0.1847	0.6268	0.3802	-0.053
Mof_H 	H 	0.2149	0.5977	0.3862	0.005
Mof_C 	C 	0.1518	0.589	0.3387	0.017
Mof_H 	H 	0.1601	0.5327	0.3179	0.031
Mof_C 	C 	0.097	0.6993	0.3588	0.024
Mof_H 	H 	0.0655	0.7233	0.3538	0.041
Mof_C 	C 	0.1283	0.7454	0.4021	-0.042
Mof_H 	H 	0.1188	0.8007	0.4232	0.025
Mof_C 	C 	0.1582	0.6904	0.5501	-0.237
Mof_C 	C 	0.1362	0.6041	0.56	0.073
Mof_H 	H 	0.1523	0.5482	0.5484	-0.044
Mof_C 	C 	0.9084	0.4006	0.4134	-0.036
Mof_H 	H 	0.9228	0.4601	0.4076	0.052
Mof_C 	C 	0.9115	0.2441	0.4045	-0.016
Mof_H 	H 	0.928	0.1895	0.3915	0.022
Mof_C 	C 	0.133	0.7679	0.5683	0.046
Mof_H 	H 	0.1458	0.8287	0.5624	-0.03
Mof_N 	N 	0.609	0.1274	0.3262	-0.13
Mof_N 	N 	0.4325	0.8235	0.3954	-0.119
Mof_C 	C 	0.7071	0.2484	0.4589	0.29
Mof_H 	H 	0.1949	0.8129	0.4671	-0.835
Mof_O 	O 	0.6899	0.3371	0.4751	0.857
Mof_H 	H 	0.7131	0.3725	0.4833	-0.105
Mof_C 	C 	0.7575	0.2597	0.4324	-0.482
Mof_H 	H 	0.7561	0.3002	0.3951	0.176
Mof_H 	H 	0.7695	0.1977	0.4191	0.142
Mof_C 	C 	0.7075	0.1985	0.5211	0.628
Mof_H 	H 	0.7186	0.1333	0.5127	-1.236
Mof_O 	O 	0.277	0.8988	0.4922	1.321
Mof_H 	H 	0.247	0.902	0.4904	-0.335
Mof_C 	C 	0.6734	0.2054	0.4119	-0.073
Mof_C 	C 	0.6847	0.1268	0.3802	-0.053
Mof_H 	H 	0.7149	0.0977	0.3862	0.005
Mof_C 	C 	0.6518	0.089	0.3387	0.017
Mof_H 	H 	0.6601	0.0327	0.3179	0.031
Mof_C 	C 	0.597	0.1993	0.3588	0.024
Mof_H 	H 	0.5655	0.2233	0.3538	0.04
Mof_C 	C 	0.6283	0.2454	0.4021	-0.042
Mof_H 	H 	0.6188	0.3007	0.4232	0.024
Mof_C 	C 	0.6582	0.1904	0.5501	-0.237
Mof_C 	C 	0.6362	0.1041	0.56	0.073
Mof_H 	H 	0.6523	0.0482	0.5484	-0.044
Mof_C 	C 	0.4084	0.9006	0.4134	-0.036
Mof_H 	H 	0.4228	0.9601	0.4076	0.054
Mof_C 	C 	0.4115	0.7441	0.4045	-0.016
Mof_H 	H 	0.428	0.6895	0.3915	0.024
Mof_C 	C 	0.633	0.2679	0.5683	0.046
Mof_H 	H 	0.6458	0.3287	0.5624	-0.03
Mof_N 	N 	0.891	0.3726	0.8262	-0.13
Mof_N 	N 	0.0675	0.6765	0.8954	-0.119
Mof_C 	C 	0.7929	0.2516	0.9589	0.29
Mof_H 	H 	0.3051	0.6871	0.9671	-0.834
Mof_O 	O 	0.8101	0.1629	0.9751	0.857
Mof_H 	H 	0.7869	0.1275	0.9833	-0.105
Mof_C 	C 	0.7425	0.2403	0.9324	-0.482
Mof_H 	H 	0.7439	0.1998	0.8951	0.176
Mof_H 	H 	0.7305	0.3023	0.9191	0.142
Mof_C 	C 	0.7925	0.3015	0.0211	0.628
Mof_H 	H 	0.7814	0.3667	0.0127	-1.236
Mof_O 	O 	0.223	0.6012	0.9922	1.32
Mof_H 	H 	0.253	0.598	0.9904	-0.335
Mof_C 	C 	0.8266	0.2946	0.9119	-0.073
Mof_C 	C 	0.8153	0.3732	0.8802	-0.053
Mof_H 	H 	0.7851	0.4023	0.8862	0.005
Mof_C 	C 	0.8482	0.411	0.8387	0.017
Mof_H 	H 	0.8399	0.4673	0.8179	0.031
Mof_C 	C 	0.903	0.3007	0.8588	0.024
Mof_H 	H 	0.9345	0.2767	0.8538	0.038
Mof_C 	C 	0.8717	0.2546	0.9021	-0.042
Mof_H 	H 	0.8812	0.1993	0.9232	0.024
Mof_C 	C 	0.8418	0.3096	0.0501	-0.237
Mof_C 	C 	0.8638	0.3959	0.06	0.072
Mof_H 	H 	0.8477	0.4518	0.0484	-0.044
Mof_C 	C 	0.0916	0.5994	0.9134	-0.036
Mof_H 	H 	0.0772	0.5399	0.9076	0.054
Mof_C 	C 	0.0885	0.7559	0.9045	-0.016
Mof_H 	H 	0.072	0.8105	0.8915	0.025
Mof_C 	C 	0.867	0.2321	0.0683	0.046
Mof_H 	H 	0.8542	0.1713	0.0624	-0.03
Mof_N 	N 	0.391	0.8726	0.8262	-0.13
Mof_N 	N 	0.5675	0.1765	0.8954	-0.119
Mof_C 	C 	0.2929	0.7516	0.9589	0.291
Mof_H 	H 	0.8051	0.1871	0.9671	-0.835
Mof_O 	O 	0.3101	0.6629	0.9751	0.857
Mof_H 	H 	0.2869	0.6275	0.9833	-0.105
Mof_C 	C 	0.2425	0.7403	0.9324	-0.483
Mof_H 	H 	0.2439	0.6998	0.8951	0.176
Mof_H 	H 	0.2305	0.8023	0.9191	0.143
Mof_C 	C 	0.2925	0.8015	0.0211	0.628
Mof_H 	H 	0.2814	0.8667	0.0127	-1.236
Mof_O 	O 	0.723	0.1012	0.9922	1.321
Mof_H 	H 	0.753	0.098	0.9904	-0.335
Mof_C 	C 	0.3266	0.7946	0.9119	-0.073
Mof_C 	C 	0.3153	0.8732	0.8802	-0.053
Mof_H 	H 	0.2851	0.9023	0.8862	0.005
Mof_C 	C 	0.3482	0.911	0.8387	0.017
Mof_H 	H 	0.3399	0.9673	0.8179	0.031
Mof_C 	C 	0.403	0.8007	0.8588	0.024
Mof_H 	H 	0.4345	0.7767	0.8538	0.04
Mof_C 	C 	0.3717	0.7546	0.9021	-0.042
Mof_H 	H 	0.3812	0.6993	0.9232	0.025
Mof_C 	C 	0.3418	0.8096	0.0501	-0.237
Mof_C 	C 	0.3638	0.8959	0.06	0.073
Mof_H 	H 	0.3477	0.9518	0.0484	-0.044
Mof_C 	C 	0.5916	0.0994	0.9134	-0.036
Mof_H 	H 	0.5772	0.0399	0.9076	0.053
Mof_C 	C 	0.5885	0.2559	0.9045	-0.016
Mof_H 	H 	0.572	0.3105	0.8915	0.024
Mof_C 	C 	0.367	0.7321	0.0683	0.046
Mof_H 	H 	0.3542	0.6713	0.0624	-0.03
Mof_Cd	Cd	8.28774e-33	0.66464	0.83405	0.452
Mof_Cl	Cl	-9.37656e-33	0.4948	0.8324	-0.703
Mof_Cd	Cd	0.5	0.16464	0.83405	0.447
Mof_Cl	Cl	0.5	0.9948	0.8324	-0.707
Mof_Cd	Cd	3.90498e-33	0.33536	0.33405	0.452
Mof_Cl	Cl	9.56976e-34	0.5052	0.3324	-0.703
Mof_Cd	Cd	0.5	0.83536	0.33405	0.447
Mof_Cl	Cl	0.5	0.0052	0.3324	-0.707
Mof_Cd	Cd	7.80378e-33	0.66464	0.66595	0.452
Mof_Cl	Cl	1.92201e-33	0.4948	0.6676	-0.703
Mof_Cd	Cd	0.5	0.16464	0.66595	0.447
Mof_Cl	Cl	0.5	0.9948	0.6676	-0.707
Mof_Cd	Cd	6.36428e-33	0.33536	0.16595	0.452
Mof_Cl	Cl	4.89741e-33	0.5052	0.1676	-0.703
Mof_Cd	Cd	0.5	0.83536	0.16595	0.447
Mof_Cl	Cl	0.5	0.0052	0.1676	-0.707
Mof_Cd	Cd	0.05959	0.43526	0.75	0.516
Mof_O 	O 	0.0535	0.6765	0.75	-0.297
Mof_O 	O 	0.1084	0.5625	0.75	-0.298
Mof_C 	C 	0.1357	0.716	0.75	-0.101
Mof_C 	C 	0.124	0.81	0.75	0.015
Mof_H 	H 	0.0913	0.8283	0.75	0.027
Mof_C 	C 	0.16	0.8787	0.75	-0.086
Mof_H 	H 	0.1519	0.9431	0.75	0.049
Mof_C 	C 	0.2076	0.851	0.75	-0.007
Mof_H 	H 	0.2323	0.8967	0.75	0.022
Mof_C 	C 	0.2195	0.7548	0.75	-0.089
Mof_H 	H 	0.2521	0.7358	0.75	0.052
Mof_C 	C 	0.183	0.6881	0.75	0.015
Mof_H 	H 	0.1907	0.6235	0.75	0.027
Mof_C 	C 	0.0972	0.6447	0.75	0.332
Mof_Cd	Cd	0.55959	0.93526	0.75	0.516
Mof_O 	O 	0.5535	0.1765	0.75	-0.297
Mof_O 	O 	0.6084	0.0625	0.75	-0.298
Mof_C 	C 	0.6357	0.216	0.75	-0.101
Mof_C 	C 	0.624	0.31	0.75	0.015
Mof_H 	H 	0.5913	0.3283	0.75	0.026
Mof_C 	C 	0.66	0.3787	0.75	-0.087
Mof_H 	H 	0.6519	0.4431	0.75	0.049
Mof_C 	C 	0.7076	0.351	0.75	-0.006
Mof_H 	H 	0.7323	0.3967	0.75	0.022
Mof_C 	C 	0.7195	0.2548	0.75	-0.089
Mof_H 	H 	0.7521	0.2358	0.75	0.052
Mof_C 	C 	0.683	0.1881	0.75	0.015
Mof_H 	H 	0.6907	0.1235	0.75	0.026
Mof_C 	C 	0.5972	0.1447	0.75	0.333
Mof_Cd	Cd	0.94041	0.56474	0.25	0.51
Mof_O 	O 	0.9465	0.3235	0.25	-0.302
Mof_O 	O 	0.8916	0.4375	0.25	-0.299
Mof_C 	C 	0.8643	0.284	0.25	-0.102
Mof_C 	C 	0.876	0.19	0.25	0.016
Mof_H 	H 	0.9087	0.1717	0.25	0.025
Mof_C 	C 	0.84	0.1213	0.25	-0.087
Mof_H 	H 	0.8481	0.0569	0.25	0.049
Mof_C 	C 	0.7924	0.149	0.25	-0.006
Mof_H 	H 	0.7677	0.1033	0.25	0.022
Mof_C 	C 	0.7805	0.2452	0.25	-0.09
Mof_H 	H 	0.7479	0.2642	0.25	0.052
Mof_C 	C 	0.817	0.3119	0.25	0.016
Mof_H 	H 	0.8093	0.3765	0.25	0.026
Mof_C 	C 	0.9028	0.3553	0.25	0.333
Mof_Cd	Cd	0.44041	0.06474	0.25	0.516
Mof_O 	O 	0.4465	0.8235	0.25	-0.298
Mof_O 	O 	0.3916	0.9375	0.25	-0.298
Mof_C 	C 	0.3643	0.784	0.25	-0.101
Mof_C 	C 	0.376	0.69	0.25	0.015
Mof_H 	H 	0.4087	0.6717	0.25	0.026
Mof_C 	C 	0.34	0.6213	0.25	-0.087
Mof_H 	H 	0.3481	0.5569	0.25	0.049
Mof_C 	C 	0.2924	0.649	0.25	-0.006
Mof_H 	H 	0.2677	0.6033	0.25	0.022
Mof_C 	C 	0.2805	0.7452	0.25	-0.089
Mof_H 	H 	0.2479	0.7642	0.25	0.052
Mof_C 	C 	0.317	0.8119	0.25	0.015
Mof_H 	H 	0.3093	0.8765	0.25	0.026
Mof_C 	C 	0.4028	0.8553	0.25	0.333
Mof_Cd	Cd	0.94041	0.43526	0.75	0.51
Mof_O 	O 	0.9465	0.6765	0.75	-0.302
Mof_O 	O 	0.8916	0.5625	0.75	-0.299
Mof_C 	C 	0.8643	0.716	0.75	-0.102
Mof_C 	C 	0.876	0.81	0.75	0.016
Mof_H 	H 	0.9087	0.8283	0.75	0.025
Mof_C 	C 	0.84	0.8787	0.75	-0.087
Mof_H 	H 	0.8481	0.9431	0.75	0.049
Mof_C 	C 	0.7924	0.851	0.75	-0.006
Mof_H 	H 	0.7677	0.8967	0.75	0.022
Mof_C 	C 	0.7805	0.7548	0.75	-0.09
Mof_H 	H 	0.7479	0.7358	0.75	0.052
Mof_C 	C 	0.817	0.6881	0.75	0.016
Mof_H 	H 	0.8093	0.6235	0.75	0.026
Mof_C 	C 	0.9028	0.6447	0.75	0.333
Mof_Cd	Cd	0.44041	0.93526	0.75	0.516
Mof_O 	O 	0.4465	0.1765	0.75	-0.298
Mof_O 	O 	0.3916	0.0625	0.75	-0.298
Mof_C 	C 	0.3643	0.216	0.75	-0.101
Mof_C 	C 	0.376	0.31	0.75	0.015
Mof_H 	H 	0.4087	0.3283	0.75	0.026
Mof_C 	C 	0.34	0.3787	0.75	-0.087
Mof_H 	H 	0.3481	0.4431	0.75	0.049
Mof_C 	C 	0.2924	0.351	0.75	-0.006
Mof_H 	H 	0.2677	0.3967	0.75	0.022
Mof_C 	C 	0.2805	0.2548	0.75	-0.089
Mof_H 	H 	0.2479	0.2358	0.75	0.052
Mof_C 	C 	0.317	0.1881	0.75	0.015
Mof_H 	H 	0.3093	0.1235	0.75	0.026
Mof_C 	C 	0.4028	0.1447	0.75	0.333
Mof_Cd	Cd	0.05959	0.56474	0.25	0.516
Mof_O 	O 	0.0535	0.3235	0.25	-0.297
Mof_O 	O 	0.1084	0.4375	0.25	-0.298
Mof_C 	C 	0.1357	0.284	0.25	-0.101
Mof_C 	C 	0.124	0.19	0.25	0.015
Mof_H 	H 	0.0913	0.1717	0.25	0.027
Mof_C 	C 	0.16	0.1213	0.25	-0.086
Mof_H 	H 	0.1519	0.0569	0.25	0.049
Mof_C 	C 	0.2076	0.149	0.25	-0.007
Mof_H 	H 	0.2323	0.1033	0.25	0.022
Mof_C 	C 	0.2195	0.2452	0.25	-0.089
Mof_H 	H 	0.2521	0.2642	0.25	0.052
Mof_C 	C 	0.183	0.3119	0.25	0.015
Mof_H 	H 	0.1907	0.3765	0.25	0.027
Mof_C 	C 	0.0972	0.3553	0.25	0.332
Mof_Cd	Cd	0.55959	0.06474	0.25	0.516
Mof_O 	O 	0.5535	0.8235	0.25	-0.297
Mof_O 	O 	0.6084	0.9375	0.25	-0.298
Mof_C 	C 	0.6357	0.784	0.25	-0.101
Mof_C 	C 	0.624	0.69	0.25	0.015
Mof_H 	H 	0.5913	0.6717	0.25	0.026
Mof_C 	C 	0.66	0.6213	0.25	-0.087
Mof_H 	H 	0.6519	0.5569	0.25	0.049
Mof_C 	C 	0.7076	0.649	0.25	-0.006
Mof_H 	H 	0.7323	0.6033	0.25	0.022
Mof_C 	C 	0.7195	0.7452	0.25	-0.089
Mof_H 	H 	0.7521	0.7642	0.25	0.052
Mof_C 	C 	0.683	0.8119	0.25	0.015
Mof_H 	H 	0.6907	0.8765	0.25	0.026
Mof_C 	C 	0.5972	0.8553	0.25	0.333
Mof_H 	H 	0.5	0.9623	0.8737	0.314
Mof_H 	H 	-3.37114e-33	0.4623	0.8737	0.314
Mof_H 	H 	0.5	0.0377	0.3737	0.313
Mof_H 	H 	1.07588e-33	0.5377	0.3737	0.314
Mof_H 	H 	0.5	0.9623	0.6263	0.313
Mof_H 	H 	7.68963e-33	0.4623	0.6263	0.314
Mof_H 	H 	0.5	0.0377	0.1263	0.314
Mof_H 	H 	4.04269e-33	0.5377	0.1263	0.314
Mof_Cl	Cl	-3.72727e-33	0.288	0.75	-0.375
Mof_Cl	Cl	0.5	0.788	0.75	-0.38
Mof_Cl	Cl	5.13463e-33	0.712	0.25	-0.375
Mof_Cl	Cl	0.5	0.212	0.25	-0.38
_end
