data_functionalizedCrystal
_audit_creation_method	'EQeq! by Chris Wilmer'
_symmetry_space_group_name_H-M	'P1'
_symmetry_Int_Tables_number	1
_symmetry_cell_setting	triclinic
loop_
_symmetry_equiv_pos_as_xyz
  x,y,z
_cell_length_a	10.3325
_cell_length_b	14.6405
_cell_length_c	9.5112
_cell_angle_alpha	90
_cell_angle_beta	90
_cell_angle_gamma	90
loop_
_atom_site_label
_atom_site_type_symbol
_atom_site_fract_x
_atom_site_fract_y
_atom_site_fract_z
_atom_site_charge
Mof_P 	P 	0.339	0.77	0.157	1.304
Mof_P 	P 	0.146	0.612	0.632	1.253
Mof_P 	P 	0.343	0.415	0.369	1.578
Mof_Al	Al	0.354	0.608	0.387	6.369
Mof_Al	Al	0.366	0.896	0.383	5.975
Mof_Al	Al	0.651	0.751	0.139	4.794
Mof_O 	O 	0.338	0.696	0.272	-2.092
Mof_O 	O 	0.311	0.864	0.218	-1.813
Mof_O 	O 	0.482	0.758	0.086	-1.438
Mof_O 	O 	0.249	0.764	0.018	-1.408
Mof_O 	O 	0.182	0.637	0.79	-1.493
Mof_O 	O 	0.13	0.512	0.619	-2.026
Mof_O 	O 	0.015	0.668	0.588	-1.754
Mof_O 	O 	0.256	0.643	0.534	-1.824
Mof_O 	O 	0.3	0.506	0.317	-2.011
Mof_O 	O 	0.337	0.349	0.242	-1.585
Mof_O 	O 	0.482	0.412	0.425	-1.973
Mof_O 	O 	0.254	0.381	0.488	-1.848
Mof_P 	P 	0.661	0.23	0.157	1.305
Mof_P 	P 	0.854	0.388	0.632	1.254
Mof_P 	P 	0.657	0.585	0.369	1.579
Mof_Al	Al	0.646	0.392	0.387	6.37
Mof_Al	Al	0.634	0.104	0.383	5.975
Mof_Al	Al	0.349	0.249	0.139	4.794
Mof_O 	O 	0.662	0.304	0.272	-2.092
Mof_O 	O 	0.689	0.136	0.218	-1.813
Mof_O 	O 	0.518	0.242	0.086	-1.438
Mof_O 	O 	0.751	0.236	0.018	-1.408
Mof_O 	O 	0.818	0.363	0.79	-1.493
Mof_O 	O 	0.87	0.488	0.619	-2.026
Mof_O 	O 	0.985	0.332	0.588	-1.754
Mof_O 	O 	0.744	0.357	0.534	-1.824
Mof_O 	O 	0.7	0.494	0.317	-2.011
Mof_O 	O 	0.663	0.651	0.242	-1.585
Mof_O 	O 	0.518	0.588	0.425	-1.973
Mof_O 	O 	0.746	0.619	0.488	-1.848
Mof_P 	P 	0.161	0.27	0.843	1.303
Mof_P 	P 	0.354	0.112	0.368	1.254
Mof_P 	P 	0.157	0.915	0.631	1.582
Mof_Al	Al	0.146	0.108	0.613	6.348
Mof_Al	Al	0.134	0.396	0.617	5.961
Mof_Al	Al	0.849	0.251	0.861	4.805
Mof_O 	O 	0.162	0.196	0.728	-2.088
Mof_O 	O 	0.189	0.364	0.782	-1.811
Mof_O 	O 	0.018	0.258	0.914	-1.442
Mof_O 	O 	0.251	0.264	0.982	-1.407
Mof_O 	O 	0.318	0.137	0.21	-1.493
Mof_O 	O 	0.37	0.012	0.381	-2.031
Mof_O 	O 	0.485	0.168	0.412	-1.758
Mof_O 	O 	0.244	0.143	0.466	-1.821
Mof_O 	O 	0.2	0.006	0.683	-2.011
Mof_O 	O 	0.163	0.849	0.758	-1.586
Mof_O 	O 	0.018	0.912	0.575	-1.965
Mof_O 	O 	0.246	0.881	0.512	-1.85
Mof_P 	P 	0.839	0.73	0.843	1.303
Mof_P 	P 	0.646	0.888	0.368	1.254
Mof_P 	P 	0.843	0.085	0.631	1.582
Mof_Al	Al	0.854	0.892	0.613	6.348
Mof_Al	Al	0.866	0.604	0.617	5.961
Mof_Al	Al	0.151	0.749	0.861	4.805
Mof_O 	O 	0.838	0.804	0.728	-2.088
Mof_O 	O 	0.811	0.636	0.782	-1.811
Mof_O 	O 	0.982	0.742	0.914	-1.442
Mof_O 	O 	0.749	0.736	0.982	-1.407
Mof_O 	O 	0.682	0.863	0.21	-1.493
Mof_O 	O 	0.63	0.988	0.381	-2.031
Mof_O 	O 	0.515	0.832	0.412	-1.758
Mof_O 	O 	0.756	0.857	0.466	-1.821
Mof_O 	O 	0.8	0.994	0.683	-2.011
Mof_O 	O 	0.837	0.151	0.758	-1.586
Mof_O 	O 	0.982	0.088	0.575	-1.965
Mof_O 	O 	0.754	0.119	0.512	-1.85
_end
