data_functionalizedCrystal
_audit_creation_method	'EQeq! by Chris Wilmer'
_symmetry_space_group_name_H-M	'P1'
_symmetry_Int_Tables_number	1
_symmetry_cell_setting	triclinic
loop_
_symmetry_equiv_pos_as_xyz
  x,y,z
_cell_length_a	34.3
_cell_length_b	9.426
_cell_length_c	21.337
_cell_angle_alpha	90
_cell_angle_beta	113.766
_cell_angle_gamma	90
loop_
_atom_site_label
_atom_site_type_symbol
_atom_site_fract_x
_atom_site_fract_y
_atom_site_fract_z
_atom_site_charge
Mof_Cd	Cd	0.2659	0.12249	0.95351	0.434
Mof_O 	O 	0.23576	0.1401	0.0278	-0.273
Mof_N 	N 	0.22672	0.9142	0.9449	-0.138
Mof_C 	C 	0.20748	0.0422	0.0254	0.188
Mof_O 	O 	0.34353	0.1243	0.0309	-0.28
Mof_N 	N 	0.27337	0.6874	0.6622	-0.13
Mof_C 	C 	0.1835	0.0476	0.0644	-0.189
Mof_H 	H 	0.1874	0.1237	0.0955	0.108
Mof_O 	O 	0.32064	0.0697	0.9217	-0.293
Mof_C 	C 	0.1536	0.9412	0.0582	0.085
Mof_H 	H 	0.1367	0.95	0.0839	0.005
Mof_C 	C 	0.148	0.8282	0.018	-0.144
Mof_H 	H 	0.128	0.757	0.0166	0.083
Mof_C 	C 	0.1717	0.8144	0.9772	0.064
Mof_C 	C 	0.20225	0.9217	0.9816	-0.02
Mof_C 	C 	0.1677	0.7002	0.9324	-0.057
Mof_H 	H 	0.1473	0.6277	0.9267	0.061
Mof_C 	C 	0.1932	0.6941	0.8972	-0.08
Mof_H 	H 	0.1912	0.6155	0.8682	0.064
Mof_C 	C 	0.2227	0.8045	0.9036	0.106
Mof_C 	C 	0.2488	0.8062	0.8643	-0.107
Mof_H 	H 	0.2713	0.8736	0.8779	0.079
Mof_C 	C 	0.2447	0.7243	0.812	-0.022
Mof_H 	H 	0.2237	0.6518	0.7998	0.041
Mof_C 	C 	0.2702	0.737	0.7711	0.006
Mof_C 	C 	0.3081	0.8174	0.7909	-0.042
Mof_H 	H 	0.3201	0.8616	0.8346	0.053
Mof_C 	C 	0.3271	0.83	0.7454	-0.066
Mof_H 	H 	0.3526	0.883	0.7574	0.052
Mof_C 	C 	0.3085	0.764	0.6812	0.04
Mof_H 	H 	0.3217	0.775	0.65	0.031
Mof_C 	C 	0.2555	0.6727	0.7073	0.004
Mof_H 	H 	0.2309	0.6142	0.6946	0.043
Mof_C 	C 	0.3503	0.0906	0.9809	0.306
Mof_C 	C 	0.3946	0.0652	0.9853	-0.094
Mof_C 	C 	0.4286	0.0626	0.0497	0.015
Mof_H 	H 	0.424	0.0798	0.09	0.036
Mof_C 	C 	0.4699	0.0339	0.0536	-0.089
Mof_H 	H 	0.4928	0.0295	0.0974	0.058
Mof_C 	C 	0.478	0.0123	0.9967	0.036
Mof_C 	C 	0.4434	0.0086	0.9353	-0.095
Mof_H 	H 	0.4477	0.9859	0.8951	0.06
Mof_C 	C 	0.4025	0.0369	0.9295	0.024
Mof_H 	H 	0.3796	0.0364	0.8856	0.031
Mof_Cd	Cd	0.7659	0.62249	0.95351	0.436
Mof_O 	O 	0.73576	0.6401	0.0278	-0.272
Mof_N 	N 	0.72672	0.4142	0.9449	-0.137
Mof_C 	C 	0.70748	0.5422	0.0254	0.189
Mof_O 	O 	0.84353	0.6243	0.0309	-0.28
Mof_N 	N 	0.77337	0.1874	0.6622	-0.13
Mof_C 	C 	0.6835	0.5476	0.0644	-0.189
Mof_H 	H 	0.6874	0.6237	0.0955	0.108
Mof_O 	O 	0.82064	0.5697	0.9217	-0.292
Mof_C 	C 	0.6536	0.4412	0.0582	0.086
Mof_H 	H 	0.6367	0.45	0.0839	0.005
Mof_C 	C 	0.648	0.3282	0.018	-0.143
Mof_H 	H 	0.628	0.257	0.0166	0.083
Mof_C 	C 	0.6717	0.3144	0.9772	0.063
Mof_C 	C 	0.70225	0.4217	0.9816	-0.02
Mof_C 	C 	0.6677	0.2002	0.9324	-0.057
Mof_H 	H 	0.6473	0.1277	0.9267	0.061
Mof_C 	C 	0.6932	0.1941	0.8972	-0.08
Mof_H 	H 	0.6912	0.1155	0.8682	0.064
Mof_C 	C 	0.7227	0.3045	0.9036	0.106
Mof_C 	C 	0.7488	0.3062	0.8643	-0.107
Mof_H 	H 	0.7713	0.3736	0.8779	0.079
Mof_C 	C 	0.7447	0.2243	0.812	-0.022
Mof_H 	H 	0.7237	0.1518	0.7998	0.041
Mof_C 	C 	0.7702	0.237	0.7711	0.006
Mof_C 	C 	0.8081	0.3174	0.7909	-0.042
Mof_H 	H 	0.8201	0.3616	0.8346	0.053
Mof_C 	C 	0.8271	0.33	0.7454	-0.066
Mof_H 	H 	0.8526	0.383	0.7574	0.052
Mof_C 	C 	0.8085	0.264	0.6812	0.04
Mof_H 	H 	0.8217	0.275	0.65	0.031
Mof_C 	C 	0.7555	0.1727	0.7073	0.004
Mof_H 	H 	0.7309	0.1142	0.6946	0.043
Mof_C 	C 	0.8503	0.5906	0.9809	0.306
Mof_C 	C 	0.8946	0.5652	0.9853	-0.094
Mof_C 	C 	0.9286	0.5626	0.0497	0.015
Mof_H 	H 	0.924	0.5798	0.09	0.036
Mof_C 	C 	0.9699	0.5339	0.0536	-0.089
Mof_H 	H 	0.9928	0.5295	0.0974	0.058
Mof_C 	C 	0.978	0.5123	0.9967	0.036
Mof_C 	C 	0.9434	0.5086	0.9353	-0.094
Mof_H 	H 	0.9477	0.4859	0.8951	0.059
Mof_C 	C 	0.9025	0.5369	0.9295	0.024
Mof_H 	H 	0.8796	0.5364	0.8856	0.031
Mof_Cd	Cd	0.7341	0.12249	0.54649	0.436
Mof_O 	O 	0.76424	0.1401	0.4722	-0.272
Mof_N 	N 	0.77328	0.9142	0.5551	-0.137
Mof_C 	C 	0.79252	0.0422	0.4746	0.189
Mof_O 	O 	0.65647	0.1243	0.4691	-0.28
Mof_N 	N 	0.72663	0.6874	0.8378	-0.13
Mof_C 	C 	0.8165	0.0476	0.4356	-0.189
Mof_H 	H 	0.8126	0.1237	0.4045	0.108
Mof_O 	O 	0.67936	0.0697	0.5783	-0.293
Mof_C 	C 	0.8464	0.9412	0.4418	0.086
Mof_H 	H 	0.8633	0.95	0.4161	0.005
Mof_C 	C 	0.852	0.8282	0.482	-0.143
Mof_H 	H 	0.872	0.757	0.4834	0.083
Mof_C 	C 	0.8283	0.8144	0.5228	0.064
Mof_C 	C 	0.79775	0.9217	0.5184	-0.02
Mof_C 	C 	0.8323	0.7002	0.5676	-0.057
Mof_H 	H 	0.8527	0.6277	0.5733	0.061
Mof_C 	C 	0.8068	0.6941	0.6028	-0.08
Mof_H 	H 	0.8088	0.6155	0.6318	0.064
Mof_C 	C 	0.7773	0.8045	0.5964	0.106
Mof_C 	C 	0.7512	0.8062	0.6357	-0.107
Mof_H 	H 	0.7287	0.8736	0.6221	0.079
Mof_C 	C 	0.7553	0.7243	0.688	-0.022
Mof_H 	H 	0.7763	0.6518	0.7002	0.041
Mof_C 	C 	0.7298	0.737	0.7289	0.006
Mof_C 	C 	0.6919	0.8174	0.7091	-0.042
Mof_H 	H 	0.6799	0.8616	0.6654	0.053
Mof_C 	C 	0.6729	0.83	0.7546	-0.066
Mof_H 	H 	0.6474	0.883	0.7426	0.052
Mof_C 	C 	0.6915	0.764	0.8188	0.04
Mof_H 	H 	0.6783	0.775	0.85	0.031
Mof_C 	C 	0.7445	0.6727	0.7927	0.004
Mof_H 	H 	0.7691	0.6142	0.8054	0.043
Mof_C 	C 	0.6497	0.0906	0.5191	0.306
Mof_C 	C 	0.6054	0.0652	0.5147	-0.094
Mof_C 	C 	0.5714	0.0626	0.4503	0.015
Mof_H 	H 	0.576	0.0798	0.41	0.036
Mof_C 	C 	0.5301	0.0339	0.4464	-0.089
Mof_H 	H 	0.5072	0.0295	0.4026	0.059
Mof_C 	C 	0.522	0.0123	0.5033	0.036
Mof_C 	C 	0.5566	0.0086	0.5647	-0.094
Mof_H 	H 	0.5523	0.9859	0.6049	0.059
Mof_C 	C 	0.5975	0.0369	0.5705	0.024
Mof_H 	H 	0.6204	0.0364	0.6144	0.031
Mof_Cd	Cd	0.2341	0.62249	0.54649	0.436
Mof_O 	O 	0.26424	0.6401	0.4722	-0.272
Mof_N 	N 	0.27328	0.4142	0.5551	-0.137
Mof_C 	C 	0.29252	0.5422	0.4746	0.189
Mof_O 	O 	0.15647	0.6243	0.4691	-0.28
Mof_N 	N 	0.22663	0.1874	0.8378	-0.13
Mof_C 	C 	0.3165	0.5476	0.4356	-0.189
Mof_H 	H 	0.3126	0.6237	0.4045	0.108
Mof_O 	O 	0.17936	0.5697	0.5783	-0.292
Mof_C 	C 	0.3464	0.4412	0.4418	0.086
Mof_H 	H 	0.3633	0.45	0.4161	0.005
Mof_C 	C 	0.352	0.3282	0.482	-0.144
Mof_H 	H 	0.372	0.257	0.4834	0.083
Mof_C 	C 	0.3283	0.3144	0.5228	0.064
Mof_C 	C 	0.29775	0.4217	0.5184	-0.02
Mof_C 	C 	0.3323	0.2002	0.5676	-0.057
Mof_H 	H 	0.3527	0.1277	0.5733	0.061
Mof_C 	C 	0.3068	0.1941	0.6028	-0.08
Mof_H 	H 	0.3088	0.1155	0.6318	0.064
Mof_C 	C 	0.2773	0.3045	0.5964	0.106
Mof_C 	C 	0.2512	0.3062	0.6357	-0.107
Mof_H 	H 	0.2287	0.3736	0.6221	0.079
Mof_C 	C 	0.2553	0.2243	0.688	-0.022
Mof_H 	H 	0.2763	0.1518	0.7002	0.041
Mof_C 	C 	0.2298	0.237	0.7289	0.006
Mof_C 	C 	0.1919	0.3174	0.7091	-0.042
Mof_H 	H 	0.1799	0.3616	0.6654	0.053
Mof_C 	C 	0.1729	0.33	0.7546	-0.066
Mof_H 	H 	0.1474	0.383	0.7426	0.052
Mof_C 	C 	0.1915	0.264	0.8188	0.04
Mof_H 	H 	0.1783	0.275	0.85	0.031
Mof_C 	C 	0.2445	0.1727	0.7927	0.004
Mof_H 	H 	0.2691	0.1142	0.8054	0.043
Mof_C 	C 	0.1497	0.5906	0.5191	0.306
Mof_C 	C 	0.1054	0.5652	0.5147	-0.094
Mof_C 	C 	0.0714	0.5626	0.4503	0.015
Mof_H 	H 	0.076	0.5798	0.41	0.036
Mof_C 	C 	0.0301	0.5339	0.4464	-0.089
Mof_H 	H 	0.0072	0.5295	0.4026	0.058
Mof_C 	C 	0.022	0.5123	0.5033	0.036
Mof_C 	C 	0.0566	0.5086	0.5647	-0.094
Mof_H 	H 	0.0523	0.4859	0.6049	0.059
Mof_C 	C 	0.0975	0.5369	0.5705	0.024
Mof_H 	H 	0.1204	0.5364	0.6144	0.031
Mof_Cd	Cd	0.7341	0.87751	0.04649	0.435
Mof_O 	O 	0.76424	0.8599	0.9722	-0.272
Mof_N 	N 	0.77328	0.0858	0.0551	-0.137
Mof_C 	C 	0.79252	0.9578	0.9746	0.189
Mof_O 	O 	0.65647	0.8757	0.9691	-0.28
Mof_N 	N 	0.72663	0.3126	0.3378	-0.13
Mof_C 	C 	0.8165	0.9524	0.9356	-0.189
Mof_H 	H 	0.8126	0.8763	0.9045	0.108
Mof_O 	O 	0.67936	0.9303	0.0783	-0.293
Mof_C 	C 	0.8464	0.0588	0.9418	0.085
Mof_H 	H 	0.8633	0.05	0.9161	0.005
Mof_C 	C 	0.852	0.1718	0.982	-0.144
Mof_H 	H 	0.872	0.243	0.9834	0.083
Mof_C 	C 	0.8283	0.1856	0.0228	0.064
Mof_C 	C 	0.79775	0.0783	0.0184	-0.02
Mof_C 	C 	0.8323	0.2998	0.0676	-0.057
Mof_H 	H 	0.8527	0.3723	0.0733	0.061
Mof_C 	C 	0.8068	0.3059	0.1028	-0.08
Mof_H 	H 	0.8088	0.3845	0.1318	0.064
Mof_C 	C 	0.7773	0.1955	0.0964	0.106
Mof_C 	C 	0.7512	0.1938	0.1357	-0.107
Mof_H 	H 	0.7287	0.1264	0.1221	0.079
Mof_C 	C 	0.7553	0.2757	0.188	-0.022
Mof_H 	H 	0.7763	0.3482	0.2002	0.041
Mof_C 	C 	0.7298	0.263	0.2289	0.006
Mof_C 	C 	0.6919	0.1826	0.2091	-0.042
Mof_H 	H 	0.6799	0.1384	0.1654	0.053
Mof_C 	C 	0.6729	0.17	0.2546	-0.066
Mof_H 	H 	0.6474	0.117	0.2426	0.052
Mof_C 	C 	0.6915	0.236	0.3188	0.04
Mof_H 	H 	0.6783	0.225	0.35	0.031
Mof_C 	C 	0.7445	0.3273	0.2927	0.004
Mof_H 	H 	0.7691	0.3858	0.3054	0.043
Mof_C 	C 	0.6497	0.9094	0.0191	0.306
Mof_C 	C 	0.6054	0.9348	0.0147	-0.094
Mof_C 	C 	0.5714	0.9374	0.9503	0.015
Mof_H 	H 	0.576	0.9202	0.91	0.036
Mof_C 	C 	0.5301	0.9661	0.9464	-0.089
Mof_H 	H 	0.5072	0.9705	0.9026	0.058
Mof_C 	C 	0.522	0.9877	0.0033	0.036
Mof_C 	C 	0.5566	0.9914	0.0647	-0.095
Mof_H 	H 	0.5523	0.0141	0.1049	0.06
Mof_C 	C 	0.5975	0.9631	0.0705	0.024
Mof_H 	H 	0.6204	0.9636	0.1144	0.031
Mof_Cd	Cd	0.2341	0.37751	0.04649	0.436
Mof_O 	O 	0.26424	0.3599	0.9722	-0.272
Mof_N 	N 	0.27328	0.5858	0.0551	-0.137
Mof_C 	C 	0.29252	0.4578	0.9746	0.189
Mof_O 	O 	0.15647	0.3757	0.9691	-0.28
Mof_N 	N 	0.22663	0.8126	0.3378	-0.13
Mof_C 	C 	0.3165	0.4524	0.9356	-0.189
Mof_H 	H 	0.3126	0.3763	0.9045	0.108
Mof_O 	O 	0.17936	0.4303	0.0783	-0.292
Mof_C 	C 	0.3464	0.5588	0.9418	0.086
Mof_H 	H 	0.3633	0.55	0.9161	0.005
Mof_C 	C 	0.352	0.6718	0.982	-0.143
Mof_H 	H 	0.372	0.743	0.9834	0.083
Mof_C 	C 	0.3283	0.6856	0.0228	0.063
Mof_C 	C 	0.29775	0.5783	0.0184	-0.02
Mof_C 	C 	0.3323	0.7998	0.0676	-0.057
Mof_H 	H 	0.3527	0.8723	0.0733	0.061
Mof_C 	C 	0.3068	0.8059	0.1028	-0.08
Mof_H 	H 	0.3088	0.8845	0.1318	0.064
Mof_C 	C 	0.2773	0.6955	0.0964	0.106
Mof_C 	C 	0.2512	0.6938	0.1357	-0.107
Mof_H 	H 	0.2287	0.6264	0.1221	0.079
Mof_C 	C 	0.2553	0.7757	0.188	-0.022
Mof_H 	H 	0.2763	0.8482	0.2002	0.041
Mof_C 	C 	0.2298	0.763	0.2289	0.006
Mof_C 	C 	0.1919	0.6826	0.2091	-0.042
Mof_H 	H 	0.1799	0.6384	0.1654	0.053
Mof_C 	C 	0.1729	0.67	0.2546	-0.066
Mof_H 	H 	0.1474	0.617	0.2426	0.052
Mof_C 	C 	0.1915	0.736	0.3188	0.04
Mof_H 	H 	0.1783	0.725	0.35	0.031
Mof_C 	C 	0.2445	0.8273	0.2927	0.004
Mof_H 	H 	0.2691	0.8858	0.3054	0.043
Mof_C 	C 	0.1497	0.4094	0.0191	0.306
Mof_C 	C 	0.1054	0.4348	0.0147	-0.094
Mof_C 	C 	0.0714	0.4374	0.9503	0.015
Mof_H 	H 	0.076	0.4202	0.91	0.036
Mof_C 	C 	0.0301	0.4661	0.9464	-0.089
Mof_H 	H 	0.0072	0.4705	0.9026	0.058
Mof_C 	C 	0.022	0.4877	0.0033	0.036
Mof_C 	C 	0.0566	0.4914	0.0647	-0.094
Mof_H 	H 	0.0523	0.5141	0.1049	0.059
Mof_C 	C 	0.0975	0.4631	0.0705	0.024
Mof_H 	H 	0.1204	0.4636	0.1144	0.031
Mof_Cd	Cd	0.2659	0.87751	0.45351	0.436
Mof_O 	O 	0.23576	0.8599	0.5278	-0.272
Mof_N 	N 	0.22672	0.0858	0.4449	-0.137
Mof_C 	C 	0.20748	0.9578	0.5254	0.189
Mof_O 	O 	0.34353	0.8757	0.5309	-0.28
Mof_N 	N 	0.27337	0.3126	0.1622	-0.13
Mof_C 	C 	0.1835	0.9524	0.5644	-0.189
Mof_H 	H 	0.1874	0.8763	0.5955	0.108
Mof_O 	O 	0.32064	0.9303	0.4217	-0.293
Mof_C 	C 	0.1536	0.0588	0.5582	0.086
Mof_H 	H 	0.1367	0.05	0.5839	0.005
Mof_C 	C 	0.148	0.1718	0.518	-0.143
Mof_H 	H 	0.128	0.243	0.5166	0.083
Mof_C 	C 	0.1717	0.1856	0.4772	0.064
Mof_C 	C 	0.20225	0.0783	0.4816	-0.02
Mof_C 	C 	0.1677	0.2998	0.4324	-0.057
Mof_H 	H 	0.1473	0.3723	0.4267	0.061
Mof_C 	C 	0.1932	0.3059	0.3972	-0.08
Mof_H 	H 	0.1912	0.3845	0.3682	0.064
Mof_C 	C 	0.2227	0.1955	0.4036	0.106
Mof_C 	C 	0.2488	0.1938	0.3643	-0.107
Mof_H 	H 	0.2713	0.1264	0.3779	0.079
Mof_C 	C 	0.2447	0.2757	0.312	-0.022
Mof_H 	H 	0.2237	0.3482	0.2998	0.041
Mof_C 	C 	0.2702	0.263	0.2711	0.006
Mof_C 	C 	0.3081	0.1826	0.2909	-0.042
Mof_H 	H 	0.3201	0.1384	0.3346	0.053
Mof_C 	C 	0.3271	0.17	0.2454	-0.066
Mof_H 	H 	0.3526	0.117	0.2574	0.052
Mof_C 	C 	0.3085	0.236	0.1812	0.04
Mof_H 	H 	0.3217	0.225	0.15	0.031
Mof_C 	C 	0.2555	0.3273	0.2073	0.004
Mof_H 	H 	0.2309	0.3858	0.1946	0.043
Mof_C 	C 	0.3503	0.9094	0.4809	0.306
Mof_C 	C 	0.3946	0.9348	0.4853	-0.094
Mof_C 	C 	0.4286	0.9374	0.5497	0.015
Mof_H 	H 	0.424	0.9202	0.59	0.036
Mof_C 	C 	0.4699	0.9661	0.5536	-0.089
Mof_H 	H 	0.4928	0.9705	0.5974	0.059
Mof_C 	C 	0.478	0.9877	0.4967	0.036
Mof_C 	C 	0.4434	0.9914	0.4353	-0.094
Mof_H 	H 	0.4477	0.0141	0.3951	0.059
Mof_C 	C 	0.4025	0.9631	0.4295	0.024
Mof_H 	H 	0.3796	0.9636	0.3856	0.031
Mof_Cd	Cd	0.7659	0.37751	0.45351	0.436
Mof_O 	O 	0.73576	0.3599	0.5278	-0.272
Mof_N 	N 	0.72672	0.5858	0.4449	-0.137
Mof_C 	C 	0.70748	0.4578	0.5254	0.189
Mof_O 	O 	0.84353	0.3757	0.5309	-0.28
Mof_N 	N 	0.77337	0.8126	0.1622	-0.13
Mof_C 	C 	0.6835	0.4524	0.5644	-0.189
Mof_H 	H 	0.6874	0.3763	0.5955	0.108
Mof_O 	O 	0.82064	0.4303	0.4217	-0.292
Mof_C 	C 	0.6536	0.5588	0.5582	0.086
Mof_H 	H 	0.6367	0.55	0.5839	0.005
Mof_C 	C 	0.648	0.6718	0.518	-0.144
Mof_H 	H 	0.628	0.743	0.5166	0.083
Mof_C 	C 	0.6717	0.6856	0.4772	0.064
Mof_C 	C 	0.70225	0.5783	0.4816	-0.02
Mof_C 	C 	0.6677	0.7998	0.4324	-0.057
Mof_H 	H 	0.6473	0.8723	0.4267	0.061
Mof_C 	C 	0.6932	0.8059	0.3972	-0.08
Mof_H 	H 	0.6912	0.8845	0.3682	0.064
Mof_C 	C 	0.7227	0.6955	0.4036	0.106
Mof_C 	C 	0.7488	0.6938	0.3643	-0.107
Mof_H 	H 	0.7713	0.6264	0.3779	0.079
Mof_C 	C 	0.7447	0.7757	0.312	-0.022
Mof_H 	H 	0.7237	0.8482	0.2998	0.041
Mof_C 	C 	0.7702	0.763	0.2711	0.006
Mof_C 	C 	0.8081	0.6826	0.2909	-0.042
Mof_H 	H 	0.8201	0.6384	0.3346	0.053
Mof_C 	C 	0.8271	0.67	0.2454	-0.066
Mof_H 	H 	0.8526	0.617	0.2574	0.052
Mof_C 	C 	0.8085	0.736	0.1812	0.04
Mof_H 	H 	0.8217	0.725	0.15	0.031
Mof_C 	C 	0.7555	0.8273	0.2073	0.004
Mof_H 	H 	0.7309	0.8858	0.1946	0.043
Mof_C 	C 	0.8503	0.4094	0.4809	0.306
Mof_C 	C 	0.8946	0.4348	0.4853	-0.094
Mof_C 	C 	0.9286	0.4374	0.5497	0.015
Mof_H 	H 	0.924	0.4202	0.59	0.036
Mof_C 	C 	0.9699	0.4661	0.5536	-0.089
Mof_H 	H 	0.9928	0.4705	0.5974	0.058
Mof_C 	C 	0.978	0.4877	0.4967	0.036
Mof_C 	C 	0.9434	0.4914	0.4353	-0.094
Mof_H 	H 	0.9477	0.5141	0.3951	0.059
Mof_C 	C 	0.9025	0.4631	0.4295	0.024
Mof_H 	H 	0.8796	0.4636	0.3856	0.031
_end
