# CIF file generated by openbabel 3.1.0, see https://openbabel.org
data_I
_chemical_name_common 'image0'
_cell_length_a 17.898
_cell_length_b 20.275
_cell_length_c 21.796
_cell_angle_alpha 63.375
_cell_angle_beta 76.644
_cell_angle_gamma 84.876
_space_group_name_H-M_alt 'P 1'
_space_group_name_Hall 'P 1'
loop_
    _symmetry_equiv_pos_as_xyz
    x,y,z
loop_
    _atom_site_label
    _atom_site_type_symbol
    _atom_site_fract_x
    _atom_site_fract_y
    _atom_site_fract_z
    _atom_site_occupancy
    C1       C        0.05389    0.04147    0.13588    1.000
    H1       H        0.01900    0.03190    0.17790    1.000
    C2       C        0.28900    0.10830    0.09663    1.000
    H2       H        0.25260    0.12980    0.11980    1.000
    C3       C        0.12948    0.04770    0.13302    1.000
    H3       H        0.14570    0.04360    0.17220    1.000
    C4       C        0.36518    0.11572    0.09228    1.000
    H4       H        0.37980    0.14250    0.11290    1.000
    C5       C        0.64044    0.51039    0.35980    1.000
    C6       C        0.63842    0.66392    0.28570    1.000
    C7       C        0.18319    0.06023    0.07063    1.000
    C8       C        0.62591    0.98126    0.13296    1.000
    C9       C        0.63704    0.74498    0.24576    1.000
    C10      C        0.56752    0.19048    0.91883    1.000
    C11      C        0.63843    0.39777    0.46994    1.000
    C12      C        0.32099    0.03625    0.03429    1.000
    H5       H        0.30770    0.00790    0.01460    1.000
    C13      C        0.07842    0.05959    0.02071    1.000
    H6       H        0.06050    0.06340    0.98250    1.000
    C14      C        0.60050    0.28084    0.23777    1.000
    C15      C        0.58248    0.21066    0.15701    1.000
    C16      C        0.87774    0.91781    0.19482    1.000
    C17      C        0.67923    0.86694    0.21774    1.000
    H7       H        0.71020    0.89670    0.22420    1.000
    C18      C        0.61949    0.29651    0.69283    1.000
    C19      C        0.88056    0.24966    0.66894    1.000
    C20      C        0.57373    0.17334    0.11380    1.000
    C21      C        0.26569    0.06799    0.06615    1.000
    C22      C        0.88441    0.79145    0.20063    1.000
    H8       H        0.88640    0.81240    0.15260    1.000
    C23      C        0.63099    0.39095    0.36007    1.000
    C24      C        0.63120    0.89939    0.17118    1.000
    C25      C        0.15627    0.06547    0.01370    1.000
    H9       H        0.19020    0.07280    0.97170    1.000
    C26      C        0.61092    0.31856    0.28023    1.000
    C27      C        0.82779    0.12840    0.16112    1.000
    C28      C        0.60036    0.18531    0.80310    1.000
    H10      H        0.59870    0.13410    0.82710    1.000
    C29      C        0.84382    0.09979    0.96949    1.000
    C30      C        0.65974    0.29559    0.57560    1.000
    H11      H        0.67670    0.24770    0.59790    1.000
    C31      C        0.68226    0.79131    0.25486    1.000
    H12      H        0.71470    0.77090    0.28630    1.000
    C32      C        0.57703    0.62052    0.29693    1.000
    H13      H        0.53430    0.64310    0.27880    1.000
    C33      C        0.59020    0.22786    0.84020    1.000
    C34      C        0.57674    0.54413    0.33436    1.000
    H14      H        0.53400    0.51620    0.34210    1.000
    C35      C        0.66495    0.32701    0.50401    1.000
    H15      H        0.68620    0.30080    0.47860    1.000
    C36      C        0.59018    0.77810    0.19739    1.000
    H16      H        0.56110    0.74870    0.18880    1.000
    C37      C        0.87412    0.83624    0.23475    1.000
    C38      C        0.39671    0.04658    0.03154    1.000
    H17      H        0.43380    0.02500    0.00900    1.000
    C39      C        0.92404    0.15126    0.84891    1.000
    H18      H        0.96710    0.13800    0.86870    1.000
    C40      C        0.89552    0.60288    0.34683    1.000
    C41      C        0.58438    0.28770    0.35247    1.000
    H19      H        0.55980    0.24180    0.37520    1.000
    C42      C        0.88616    0.68240    0.30905    1.000
    C43      C        0.83870    0.15548    0.21152    1.000
    C44      C        0.60968    0.43732    0.50869    1.000
    H20      H        0.59240    0.48510    0.48650    1.000
    C45      C        0.90041    0.32897    0.52359    1.000
    C46      C        0.86013    0.21641    0.29853    1.000
    C47      C        0.64443    0.25873    0.13477    1.000
    H21      H        0.67980    0.26760    0.09310    1.000
    C48      C        0.65891    0.42221    0.28741    1.000
    H22      H        0.68450    0.46760    0.26490    1.000
    C49      C        0.70301    0.55166    0.34950    1.000
    H23      H        0.74600    0.52880    0.36690    1.000
    C50      C        0.61284    0.21976    0.73101    1.000
    H24      H        0.61700    0.19120    0.70690    1.000
    C51      C        0.85264    0.13298    0.89150    1.000
    C52      C        0.60701    0.40511    0.58018    1.000
    H25      H        0.58930    0.43260    0.60500    1.000
    C53      C        0.59631    0.30411    0.80370    1.000
    H26      H        0.58900    0.33260    0.82820    1.000
    C54      C        0.62969    0.33358    0.61580    1.000
    C55      C        0.79790    0.18579    0.78985    1.000
    H27      H        0.75490    0.19640    0.77000    1.000
    C56      C        0.58628    0.85353    0.16222    1.000
    H28      H        0.55280    0.87420    0.13180    1.000
    C57      C        0.54031    0.23326    0.25841    1.000
    H29      H        0.50490    0.22420    0.30010    1.000
    C58      C        0.59329    0.32313    0.39161    1.000
    H30      H        0.57370    0.30120    0.43990    1.000
    C59      C        0.83807    0.35094    0.37685    1.000
    H31      H        0.80650    0.39000    0.37680    1.000
    C60      C        0.87131    0.72764    0.34416    1.000
    H32      H        0.86520    0.70620    0.39270    1.000
    C61      C        0.78837    0.14922    0.86189    1.000
    H33      H        0.73950    0.13560    0.89040    1.000
    C62      C        0.70125    0.62704    0.31330    1.000
    H34      H        0.74360    0.65460    0.30690    1.000
    C63      C        0.86955    0.20696    0.74658    1.000
    C64      C        0.64912    0.38679    0.24867    1.000
    H35      H        0.66840    0.40880    0.20040    1.000
    C65      C        0.78600    0.20145    0.29698    1.000
    H36      H        0.74360    0.21220    0.32470    1.000
    C66      C        0.53050    0.19775    0.21859    1.000
    H37      H        0.48900    0.16560    0.23370    1.000
    C67      C        0.83957    0.23097    0.63191    1.000
    H38      H        0.80490    0.19140    0.65590    1.000
    C68      C        0.89164    0.71713    0.23671    1.000
    H39      H        0.90050    0.68870    0.21220    1.000
    C69      C        0.61311    0.33780    0.73134    1.000
    H40      H        0.62040    0.38870    0.70740    1.000
    C70      C        0.77560    0.17058    0.25398    1.000
    H41      H        0.72630    0.16000    0.25360    1.000
    C71      C        0.65306    0.29353    0.17554    1.000
    H42      H        0.69450    0.32560    0.16080    1.000
    C72      C        0.89810    0.33197    0.41164    1.000
    C73      C        0.93318    0.18925    0.77678    1.000
    H43      H        0.98210    0.20300    0.74850    1.000
    C74      C        0.86564    0.80299    0.30775    1.000
    H44      H        0.85610    0.83190    0.33180    1.000
    C75      C        0.94170    0.34884    0.56003    1.000
    H45      H        0.97600    0.38870    0.53580    1.000
    C76      C        0.87175    0.25490    0.33980    1.000
    C77      C        0.84974    0.27046    0.55970    1.000
    H46      H        0.82200    0.25720    0.53560    1.000
    C78      C        0.93600    0.56180    0.31333    1.000
    H47      H        0.95950    0.58620    0.26600    1.000
    C79      C        0.94210    0.48746    0.34726    1.000
    H48      H        0.97070    0.46260    0.32290    1.000
    C80      C        0.82525    0.31154    0.34208    1.000
    H49      H        0.78410    0.32390    0.31980    1.000
    C81      C        0.90688    0.44749    0.41742    1.000
    C82      C        0.93148    0.30939    0.63184    1.000
    H50      H        0.95910    0.32290    0.65590    1.000
    C83      C        0.91197    0.16739    0.21507    1.000
    H51      H        0.95420    0.15480    0.18870    1.000
    C84      C        0.92269    0.19820    0.25797    1.000
    H52      H        0.97220    0.20670    0.25960    1.000
    C85      C        0.86270    0.56271    0.41768    1.000
    H53      H        0.83620    0.58760    0.44280    1.000
    C86      C        0.86830    0.48689    0.45179    1.000
    H54      H        0.84530    0.46200    0.49920    1.000
    C87      C        0.94420    0.27380    0.41110    1.000
    H55      H        0.98400    0.25990    0.43510    1.000
    C88      C        0.93160    0.23650    0.37537    1.000
    H56      H        0.96360    0.19800    0.37480    1.000
    N1       N        0.42019    0.08577    0.05923    1.000
    N2       N        0.02708    0.04860    0.08035    1.000
    N3       N        0.64114    0.43092    0.39691    1.000
    N4       N        0.91093    0.37028    0.44928    1.000
    O1       O        0.76140    0.11601    0.16006    1.000
    O2       O        0.90553    0.09053    0.99080    1.000
    O3       O        0.57558    0.00604    0.09729    1.000
    O4       O        0.77831    0.08351    0.00812    1.000
    O5       O        0.67226    0.01884    0.14096    1.000
    O6       O        0.62870    0.17091    0.06709    1.000
    O7       O        0.87902    0.94418    0.12873    1.000
    O8       O        0.50999    0.14549    0.12334    1.000
    O9       O        0.57841    0.12253    0.95049    1.000
    O10      O        0.88740    0.12174    0.12111    1.000
    O11      O        0.88394    0.95708    0.22328    1.000
    O12      O        0.53913    0.22803    0.95106    1.000
    Zn1      Zn       0.53496    0.10612    0.04959    1.000
    Zn2      Zn       0.72771    0.11702    0.08063    1.000
    Zn3      Zn       0.91141    0.04580    0.08897    1.000
    C89      C        0.94611    0.95853    0.86412    1.000
    H57      H        0.98100    0.96810    0.82210    1.000
    C90      C        0.71100    0.89170    0.90337    1.000
    H58      H        0.74740    0.87020    0.88020    1.000
    C91      C        0.87052    0.95230    0.86698    1.000
    H59      H        0.85430    0.95640    0.82780    1.000
    C92      C        0.63482    0.88428    0.90772    1.000
    H60      H        0.62020    0.85750    0.88710    1.000
    C93      C        0.35956    0.48961    0.64020    1.000
    C94      C        0.36158    0.33608    0.71430    1.000
    C95      C        0.81681    0.93977    0.92937    1.000
    C96      C        0.37409    0.01874    0.86704    1.000
    C97      C        0.36296    0.25502    0.75424    1.000
    C98      C        0.43248    0.80952    0.08117    1.000
    C99      C        0.36157    0.60223    0.53006    1.000
    C100     C        0.67901    0.96375    0.96571    1.000
    H61      H        0.69230    0.99210    0.98540    1.000
    C101     C        0.92158    0.94041    0.97929    1.000
    H62      H        0.93950    0.93660    0.01750    1.000
    C102     C        0.39950    0.71916    0.76223    1.000
    C103     C        0.41752    0.78934    0.84299    1.000
    C104     C        0.12226    0.08219    0.80518    1.000
    C105     C        0.32077    0.13306    0.78226    1.000
    H63      H        0.28980    0.10330    0.77580    1.000
    C106     C        0.38051    0.70349    0.30717    1.000
    C107     C        0.11944    0.75034    0.33106    1.000
    C108     C        0.42627    0.82666    0.88620    1.000
    C109     C        0.73431    0.93201    0.93385    1.000
    C110     C        0.11559    0.20855    0.79937    1.000
    H64      H        0.11360    0.18760    0.84740    1.000
    C111     C        0.36901    0.60905    0.63993    1.000
    C112     C        0.36880    0.10061    0.82882    1.000
    C113     C        0.84373    0.93453    0.98630    1.000
    H65      H        0.80980    0.92720    0.02830    1.000
    C114     C        0.38908    0.68144    0.71977    1.000
    C115     C        0.17221    0.87160    0.83888    1.000
    C116     C        0.39964    0.81469    0.19690    1.000
    H66      H        0.40130    0.86590    0.17290    1.000
    C117     C        0.15618    0.90021    0.03051    1.000
    C118     C        0.34026    0.70441    0.42440    1.000
    H67      H        0.32330    0.75230    0.40210    1.000
    C119     C        0.31774    0.20869    0.74514    1.000
    H68      H        0.28530    0.22910    0.71370    1.000
    C120     C        0.42297    0.37948    0.70307    1.000
    H69      H        0.46570    0.35690    0.72120    1.000
    C121     C        0.40980    0.77214    0.15980    1.000
    C122     C        0.42326    0.45587    0.66564    1.000
    H70      H        0.46600    0.48380    0.65790    1.000
    C123     C        0.33505    0.67299    0.49599    1.000
    H71      H        0.31380    0.69920    0.52140    1.000
    C124     C        0.40982    0.22190    0.80261    1.000
    H72      H        0.43890    0.25130    0.81120    1.000
    C125     C        0.12588    0.16376    0.76525    1.000
    C126     C        0.60329    0.95342    0.96846    1.000
    H73      H        0.56620    0.97500    0.99100    1.000
    C127     C        0.07596    0.84874    0.15109    1.000
    H74      H        0.03290    0.86200    0.13130    1.000
    C128     C        0.10448    0.39712    0.65317    1.000
    C129     C        0.41562    0.71230    0.64753    1.000
    H75      H        0.44020    0.75820    0.62480    1.000
    C130     C        0.11384    0.31760    0.69095    1.000
    C131     C        0.16130    0.84452    0.78848    1.000
    C132     C        0.39032    0.56268    0.49131    1.000
    H76      H        0.40760    0.51490    0.51350    1.000
    C133     C        0.09959    0.67103    0.47641    1.000
    C134     C        0.13987    0.78359    0.70147    1.000
    C135     C        0.35557    0.74127    0.86523    1.000
    H77      H        0.32020    0.73240    0.90690    1.000
    C136     C        0.34109    0.57779    0.71259    1.000
    H78      H        0.31550    0.53240    0.73510    1.000
    C137     C        0.29699    0.44834    0.65050    1.000
    H79      H        0.25400    0.47120    0.63310    1.000
    C138     C        0.38716    0.78024    0.26899    1.000
    H80      H        0.38300    0.80880    0.29310    1.000
    C139     C        0.14736    0.86702    0.10850    1.000
    C140     C        0.39299    0.59489    0.41982    1.000
    H81      H        0.41070    0.56740    0.39500    1.000
    C141     C        0.40369    0.69589    0.19630    1.000
    H82      H        0.41100    0.66740    0.17180    1.000
    C142     C        0.37031    0.66642    0.38420    1.000
    C143     C        0.20210    0.81421    0.21015    1.000
    H83      H        0.24510    0.80360    0.23000    1.000
    C144     C        0.41372    0.14647    0.83778    1.000
    H84      H        0.44720    0.12580    0.86820    1.000
    C145     C        0.45969    0.76674    0.74159    1.000
    H85      H        0.49510    0.77580    0.69990    1.000
    C146     C        0.40671    0.67687    0.60839    1.000
    H86      H        0.42630    0.69880    0.56010    1.000
    C147     C        0.16193    0.64906    0.62315    1.000
    H87      H        0.19350    0.61000    0.62320    1.000
    C148     C        0.12869    0.27236    0.65584    1.000
    H88      H        0.13480    0.29380    0.60730    1.000
    C149     C        0.21163    0.85078    0.13811    1.000
    H89      H        0.26050    0.86440    0.10960    1.000
    C150     C        0.29875    0.37296    0.68670    1.000
    H90      H        0.25640    0.34540    0.69310    1.000
    C151     C        0.13045    0.79304    0.25342    1.000
    C152     C        0.35088    0.61321    0.75133    1.000
    H91      H        0.33160    0.59120    0.79960    1.000
    C153     C        0.21400    0.79855    0.70302    1.000
    H92      H        0.25640    0.78780    0.67530    1.000
    C154     C        0.46950    0.80225    0.78141    1.000
    H93      H        0.51100    0.83440    0.76630    1.000
    C155     C        0.16043    0.76903    0.36809    1.000
    H94      H        0.19510    0.80860    0.34410    1.000
    C156     C        0.10836    0.28287    0.76329    1.000
    H95      H        0.09950    0.31130    0.78780    1.000
    C157     C        0.38689    0.66220    0.26866    1.000
    H96      H        0.37960    0.61130    0.29260    1.000
    C158     C        0.22440    0.82942    0.74602    1.000
    H97      H        0.27370    0.84000    0.74640    1.000
    C159     C        0.34694    0.70647    0.82446    1.000
    H98      H        0.30550    0.67440    0.83920    1.000
    C160     C        0.10190    0.66803    0.58836    1.000
    C161     C        0.06682    0.81075    0.22322    1.000
    H99      H        0.01790    0.79700    0.25150    1.000
    C162     C        0.13436    0.19701    0.69225    1.000
    H100     H        0.14390    0.16810    0.66820    1.000
    C163     C        0.05830    0.65116    0.43997    1.000
    H101     H        0.02400    0.61130    0.46420    1.000
    C164     C        0.12825    0.74510    0.66020    1.000
    C165     C        0.15026    0.72954    0.44030    1.000
    H102     H        0.17800    0.74280    0.46440    1.000
    C166     C        0.06400    0.43820    0.68667    1.000
    H103     H        0.04050    0.41380    0.73400    1.000
    C167     C        0.05790    0.51254    0.65274    1.000
    H104     H        0.02930    0.53740    0.67710    1.000
    C168     C        0.17475    0.68846    0.65792    1.000
    H105     H        0.21590    0.67610    0.68020    1.000
    C169     C        0.09312    0.55251    0.58258    1.000
    C170     C        0.06852    0.69061    0.36816    1.000
    H106     H        0.04090    0.67710    0.34410    1.000
    C171     C        0.08803    0.83261    0.78493    1.000
    H107     H        0.04580    0.84520    0.81130    1.000
    C172     C        0.07731    0.80180    0.74203    1.000
    H108     H        0.02780    0.79330    0.74040    1.000
    C173     C        0.13730    0.43729    0.58232    1.000
    H109     H        0.16380    0.41240    0.55720    1.000
    C174     C        0.13170    0.51311    0.54821    1.000
    H110     H        0.15470    0.53800    0.50080    1.000
    C175     C        0.05580    0.72620    0.58890    1.000
    H111     H        0.01600    0.74010    0.56490    1.000
    C176     C        0.06840    0.76350    0.62463    1.000
    H112     H        0.03640    0.80200    0.62520    1.000
    N5       N        0.57981    0.91423    0.94077    1.000
    N6       N        0.97292    0.95140    0.91965    1.000
    N7       N        0.35886    0.56908    0.60309    1.000
    N8       N        0.08907    0.62972    0.55072    1.000
    O13      O        0.23860    0.88399    0.83994    1.000
    O14      O        0.09447    0.90947    0.00920    1.000
    O15      O        0.42442    0.99396    0.90271    1.000
    O16      O        0.22169    0.91649    0.99188    1.000
    O17      O        0.32774    0.98116    0.85904    1.000
    O18      O        0.37130    0.82909    0.93291    1.000
    O19      O        0.12098    0.05582    0.87127    1.000
    O20      O        0.49001    0.85451    0.87666    1.000
    O21      O        0.42159    0.87747    0.04951    1.000
    O22      O        0.11260    0.87826    0.87889    1.000
    O23      O        0.11606    0.04292    0.77672    1.000
    O24      O        0.46087    0.77197    0.04894    1.000
    Zn4      Zn       0.46504    0.89388    0.95041    1.000
    Zn5      Zn       0.27229    0.88298    0.91937    1.000
    Zn6      Zn       0.08859    0.95420    0.91103    1.000
