# CIF file generated by openbabel 3.1.0, see https://openbabel.org
data_I
_chemical_name_common 'image0'
_cell_length_a 9.551
_cell_length_b 9.979
_cell_length_c 10
_cell_angle_alpha 107.67
_cell_angle_beta 97.92
_cell_angle_gamma 114.91
_space_group_name_H-M_alt 'P 1'
_space_group_name_Hall 'P 1'
loop_
    _symmetry_equiv_pos_as_xyz
    x,y,z
loop_
    _atom_site_label
    _atom_site_type_symbol
    _atom_site_fract_x
    _atom_site_fract_y
    _atom_site_fract_z
    _atom_site_occupancy
    Co1      Co       0.68560    0.20660    0.15670    1.000
    Co2      Co       0.86380    0.03300    0.61260    1.000
    P1       P        0.82510    0.59930    0.27000    1.000
    P2       P        0.84420    0.02920    0.30630    1.000
    P3       P        0.66310    0.96950    0.83850    1.000
    O1       O        0.65880    0.10940    0.94920    1.000
    O2       O        0.82300    0.15920    0.27570    1.000
    O3       O        0.82900    0.44130    0.21080    1.000
    O4       O        0.50920    0.81080    0.79660    1.000
    O5       O        0.75050    0.96460    0.40380    1.000
    O6       O        0.99350    0.73600    0.30180    1.000
    O7       O        0.69380    0.99960    0.70320    1.000
    O8       O        0.02620    0.09310    0.37420    1.000
    O9       O        0.69570    0.60440    0.16800    1.000
    O10      O        0.78100    0.61560    0.41970    1.000
    O11      O        0.78090    0.88220    0.15130    1.000
    O12      O        0.81310    0.95460    0.90830    1.000
    Co3      Co       0.31440    0.79340    0.84330    1.000
    Co4      Co       0.13620    0.96700    0.38740    1.000
    P4       P        0.17490    0.40070    0.73000    1.000
    P5       P        0.15580    0.97080    0.69370    1.000
    P6       P        0.33690    0.03050    0.16150    1.000
    O13      O        0.34120    0.89060    0.05080    1.000
    O14      O        0.17700    0.84080    0.72430    1.000
    O15      O        0.17100    0.55870    0.78920    1.000
    O16      O        0.49080    0.18920    0.20340    1.000
    O17      O        0.24950    0.03540    0.59620    1.000
    O18      O        0.00650    0.26400    0.69820    1.000
    O19      O        0.30620    0.00040    0.29680    1.000
    O20      O        0.97380    0.90690    0.62580    1.000
    O21      O        0.30430    0.39560    0.83200    1.000
    O22      O        0.21900    0.38440    0.58030    1.000
    O23      O        0.21910    0.11780    0.84870    1.000
    O24      O        0.18690    0.04540    0.09170    1.000
