data_functionalizedCrystal
_audit_creation_method	'EQeq! by Chris Wilmer'
_symmetry_space_group_name_H-M	'P1'
_symmetry_Int_Tables_number	1
_symmetry_cell_setting	triclinic
loop_
_symmetry_equiv_pos_as_xyz
  x,y,z
_cell_length_a	38.9025
_cell_length_b	38.9025
_cell_length_c	18.9223
_cell_angle_alpha	90
_cell_angle_beta	90
_cell_angle_gamma	90
loop_
_atom_site_label
_atom_site_type_symbol
_atom_site_fract_x
_atom_site_fract_y
_atom_site_fract_z
_atom_site_charge
Mof_Zr	Zr	0.26363	0.46466	0.78595	3.196
Mof_Zr	Zr	0.18925	0.50987	0.83637	3.177
Mof_Zr	Zr	0.23566	0.55545	0.96369	3.215
Mof_C 	C 	0.3438	0.4527	0.8087	0.594
Mof_C 	C 	0.37455	0.4129	0.7255	0.113
Mof_H 	H 	0.35329	0.40648	0.70726	-0.002
Mof_C 	C 	0.3764	0.4371	0.7793	-0.22
Mof_C 	C 	0.40817	0.4467	0.8065	0.109
Mof_H 	H 	0.40941	0.46293	0.84258	-0.013
Mof_C 	C 	0.43809	0.4321	0.7798	-0.156
Mof_H 	H 	0.45935	0.43857	0.79802	0.08
Mof_C 	C 	0.43623	0.4079	0.7259	0.07
Mof_C 	C 	0.40446	0.3983	0.6987	-0.154
Mof_H 	H 	0.40322	0.38212	0.66269	0.089
Mof_C 	C 	0.4681	0.3946	0.6933	0.097
Mof_C 	C 	0.4944	0.361	0.6128	0.091
Mof_C 	C 	0.5258	0.3894	0.6946	0.093
Mof_C 	C 	0.52418	0.3309	0.5146	-0.143
Mof_H 	H 	0.54515	0.33567	0.53605	0.084
Mof_C 	C 	0.52325	0.3122	0.452	0.096
Mof_H 	H 	0.54359	0.30456	0.4315	0
Mof_C 	C 	0.49192	0.305	0.4199	-0.188
Mof_C 	C 	0.46152	0.3165	0.4505	0.096
Mof_H 	H 	0.44055	0.3117	0.429	0.01
Mof_C 	C 	0.46245	0.3351	0.5131	-0.142
Mof_H 	H 	0.44211	0.34281	0.53355	0.085
Mof_C 	C 	0.49378	0.3423	0.5452	0.068
Mof_C 	C 	0.491	0.2881	0.3489	0.536
Mof_C 	C 	0.55913	0.3996	0.7259	0.062
Mof_C 	C 	0.5596	0.4222	0.7828	-0.153
Mof_H 	H 	0.53906	0.43005	0.80201	0.076
Mof_C 	C 	0.59078	0.4331	0.8108	0.099
Mof_H 	H 	0.5911	0.44821	0.84885	-0.011
Mof_C 	C 	0.62148	0.4213	0.7821	-0.203
Mof_C 	C 	0.62101	0.3987	0.7252	0.097
Mof_H 	H 	0.64155	0.39082	0.70596	0.011
Mof_C 	C 	0.58983	0.3878	0.6972	-0.145
Mof_H 	H 	0.58952	0.37266	0.65912	0.084
Mof_C 	C 	0.6552	0.4346	0.8092	0.568
Mof_N 	N 	0.4649	0.3743	0.6364	-0.138
Mof_N 	N 	0.5259	0.3698	0.6388	-0.139
Mof_N 	N 	0.497	0.4037	0.7224	-0.145
Mof_O 	O 	0.31691	0.4458	0.7792	-0.713
Mof_O 	O 	0.34783	0.4739	0.8594	-0.733
Mof_O 	O 	0.4621	0.2827	0.3222	-0.619
Mof_O 	O 	0.52027	0.2803	0.3211	-0.707
Mof_O 	O 	0.68184	0.42497	0.7789	-0.662
Mof_O 	O 	0.65247	0.4555	0.8604	-0.745
Mof_O 	O 	0.262	0.4087	0.8198	-0.955
Mof_O 	O 	0.239	0.611	0.9325	-0.578
Mof_O 	O 	0.2199	0.4662	0.8544	-1.381
Mof_O 	O 	0.2329	0.5113	0.7656	-1.334
Mof_O 	O 	0.2059	0.5101	0.9459	-1.245
Mof_O 	O 	0.2796	0.5554	0.8965	-1.278
Mof_O 	O 	0.2644	0.9164	0.2082	-0.825
Mof_C 	C 	0.247	0.6825	0.9369	0.061
Mof_H 	H 	0.24478	0.67053	0.97922	0.022
Mof_N 	N 	0.2559	0.7896	0.9373	-0.131
Mof_C 	C 	0.2472	0.7181	0.9389	-0.129
Mof_H 	H 	0.24544	0.7297	0.98167	0.064
Mof_C 	C 	0.2595	0.8253	0.9349	0.041
Mof_O 	O 	0.2826	0.9548	0.1229	-0.343
Mof_C 	C 	0.2727	0.9262	0.1477	0.415
Mof_C 	C 	0.2846	0.9062	0.025	0.107
Mof_H 	H 	0.29634	0.92666	0.0173	0.004
Mof_C 	C 	0.2785	0.8839	0.969	-0.199
Mof_H 	H 	0.28619	0.88937	0.92392	0.099
Mof_C 	C 	0.2609	0.8533	0.9805	0.164
Mof_C 	C 	0.2494	0.845	0.048	-0.236
Mof_H 	H 	0.23757	0.82456	0.05565	0.11
Mof_C 	C 	0.2554	0.8674	0.1039	0.299
Mof_H 	H 	0.24772	0.86185	0.14903	-0.046
Mof_C 	C 	0.273	0.898	0.0924	-0.241
Mof_O 	O 	0.3048	0.8812	0.2426	-0.346
Mof_C 	C 	0.2832	0.891	0.1986	0.493
Mof_C 	C 	0.2877	0.8396	0.1215	-0.011
Mof_H 	H 	0.29936	0.82896	0.15846	0.002
Mof_C 	C 	0.2814	0.8218	0.0592	-0.026
Mof_H 	H 	0.28883	0.79917	0.05448	-0.014
Mof_C 	C 	0.2641	0.8377	0.0041	-0.026
Mof_C 	C 	0.253	0.8715	0.0112	-0.061
Mof_H 	H 	0.24137	0.88221	0.97426	0.051
Mof_C 	C 	0.2593	0.8894	0.0735	0.046
Mof_H 	H 	0.2519	0.912	0.07824	0.06
Mof_C 	C 	0.2767	0.8734	0.1287	-0.238
Mof_H 	H 	0.25947	0.34625	0.83131	0.603
Mof_H 	H 	0.26367	0.34625	0.91371	0.585
Mof_H 	H 	0.22686	0.34625	0.87998	0.593
Mof_Zr	Zr	0.76363	0.96466	0.28595	3.195
Mof_Zr	Zr	0.68925	0.00987	0.33637	3.176
Mof_Zr	Zr	0.73566	0.05545	0.46369	3.214
Mof_C 	C 	0.8438	0.9527	0.3087	0.593
Mof_C 	C 	0.87455	0.9129	0.2255	0.112
Mof_H 	H 	0.85329	0.90648	0.20726	-0.003
Mof_C 	C 	0.8764	0.9371	0.2793	-0.221
Mof_C 	C 	0.90817	0.9467	0.3065	0.108
Mof_H 	H 	0.90941	0.96293	0.34258	-0.014
Mof_C 	C 	0.93809	0.9321	0.2798	-0.157
Mof_H 	H 	0.95935	0.93857	0.29802	0.079
Mof_C 	C 	0.93623	0.9079	0.2259	0.069
Mof_C 	C 	0.90446	0.8983	0.1987	-0.155
Mof_H 	H 	0.90322	0.88212	0.16269	0.088
Mof_C 	C 	0.9681	0.8946	0.1933	0.096
Mof_C 	C 	0.9944	0.861	0.1128	0.09
Mof_C 	C 	0.0258	0.8894	0.1946	0.093
Mof_C 	C 	0.02418	0.8309	0.0146	-0.142
Mof_H 	H 	0.04515	0.83567	0.03605	0.084
Mof_C 	C 	0.02325	0.8122	0.952	0.095
Mof_H 	H 	0.04359	0.80456	0.9315	0.001
Mof_C 	C 	0.99192	0.805	0.9199	-0.188
Mof_C 	C 	0.96152	0.8165	0.9505	0.095
Mof_H 	H 	0.94055	0.8117	0.929	0.01
Mof_C 	C 	0.96245	0.8351	0.0131	-0.141
Mof_H 	H 	0.94211	0.84281	0.03355	0.085
Mof_C 	C 	0.99378	0.8423	0.0452	0.068
Mof_C 	C 	0.991	0.7881	0.8489	0.536
Mof_C 	C 	0.05913	0.8996	0.2259	0.062
Mof_C 	C 	0.0596	0.9222	0.2828	-0.153
Mof_H 	H 	0.03906	0.93005	0.30201	0.076
Mof_C 	C 	0.09078	0.9331	0.3108	0.099
Mof_H 	H 	0.0911	0.94821	0.34885	-0.011
Mof_C 	C 	0.12148	0.9213	0.2821	-0.203
Mof_C 	C 	0.12101	0.8987	0.2252	0.097
Mof_H 	H 	0.14155	0.89082	0.20596	0.011
Mof_C 	C 	0.08983	0.8878	0.1972	-0.145
Mof_H 	H 	0.08952	0.87266	0.15912	0.084
Mof_C 	C 	0.1552	0.9346	0.3092	0.568
Mof_N 	N 	0.9649	0.8743	0.1364	-0.138
Mof_N 	N 	0.0259	0.8698	0.1388	-0.139
Mof_N 	N 	0.997	0.9037	0.2224	-0.145
Mof_O 	O 	0.81691	0.9458	0.2792	-0.713
Mof_O 	O 	0.84783	0.9739	0.3594	-0.733
Mof_O 	O 	0.9621	0.7827	0.8222	-0.619
Mof_O 	O 	0.02027	0.7803	0.8211	-0.707
Mof_O 	O 	0.18184	0.92497	0.2789	-0.662
Mof_O 	O 	0.15247	0.9555	0.3604	-0.745
Mof_O 	O 	0.762	0.9087	0.3198	-0.955
Mof_O 	O 	0.739	0.111	0.4325	-0.578
Mof_O 	O 	0.7199	0.9662	0.3544	-1.381
Mof_O 	O 	0.7329	0.0113	0.2656	-1.334
Mof_O 	O 	0.7059	0.0101	0.4459	-1.245
Mof_O 	O 	0.7796	0.0554	0.3965	-1.278
Mof_O 	O 	0.7644	0.4164	0.7082	-0.825
Mof_C 	C 	0.747	0.1825	0.4369	0.061
Mof_H 	H 	0.74478	0.17053	0.47922	0.022
Mof_N 	N 	0.7559	0.2896	0.4373	-0.131
Mof_C 	C 	0.7472	0.2181	0.4389	-0.129
Mof_H 	H 	0.74544	0.2297	0.48167	0.064
Mof_C 	C 	0.7595	0.3253	0.4349	0.041
Mof_O 	O 	0.7826	0.4548	0.6229	-0.343
Mof_C 	C 	0.7727	0.4262	0.6477	0.416
Mof_C 	C 	0.7846	0.4062	0.525	0.108
Mof_H 	H 	0.79634	0.42666	0.5173	0.003
Mof_C 	C 	0.7785	0.3839	0.469	-0.201
Mof_H 	H 	0.78619	0.38937	0.42392	0.1
Mof_C 	C 	0.7609	0.3533	0.4805	0.165
Mof_C 	C 	0.7494	0.345	0.548	-0.236
Mof_H 	H 	0.73757	0.32456	0.55565	0.11
Mof_C 	C 	0.7554	0.3674	0.6039	0.3
Mof_H 	H 	0.74772	0.36185	0.64903	-0.047
Mof_C 	C 	0.773	0.398	0.5924	-0.242
Mof_O 	O 	0.8048	0.3812	0.7426	-0.346
Mof_C 	C 	0.7832	0.391	0.6986	0.492
Mof_C 	C 	0.7877	0.3396	0.6215	-0.013
Mof_H 	H 	0.79936	0.32896	0.65846	0.002
Mof_C 	C 	0.7814	0.3218	0.5592	-0.024
Mof_H 	H 	0.78883	0.29917	0.55448	-0.015
Mof_C 	C 	0.7641	0.3377	0.5041	-0.028
Mof_C 	C 	0.753	0.3715	0.5112	-0.06
Mof_H 	H 	0.74137	0.38221	0.47426	0.051
Mof_C 	C 	0.7593	0.3894	0.5735	0.046
Mof_H 	H 	0.7519	0.412	0.57824	0.06
Mof_C 	C 	0.7767	0.3734	0.6287	-0.237
Mof_H 	H 	0.75947	0.84625	0.33131	0.603
Mof_H 	H 	0.76367	0.84625	0.41371	0.585
Mof_H 	H 	0.72686	0.84625	0.37998	0.593
Mof_Zr	Zr	0.73637	0.53534	0.78595	3.195
Mof_Zr	Zr	0.81075	0.49013	0.83637	3.176
Mof_Zr	Zr	0.76434	0.44455	0.96369	3.214
Mof_C 	C 	0.6562	0.5473	0.8087	0.593
Mof_C 	C 	0.62545	0.5871	0.7255	0.112
Mof_H 	H 	0.64671	0.59352	0.70726	-0.003
Mof_C 	C 	0.6236	0.5629	0.7793	-0.221
Mof_C 	C 	0.59183	0.5533	0.8065	0.108
Mof_H 	H 	0.59059	0.53707	0.84258	-0.014
Mof_C 	C 	0.56191	0.5679	0.7798	-0.157
Mof_H 	H 	0.54065	0.56143	0.79802	0.079
Mof_C 	C 	0.56377	0.5921	0.7259	0.069
Mof_C 	C 	0.59554	0.6017	0.6987	-0.155
Mof_H 	H 	0.59678	0.61788	0.66269	0.088
Mof_C 	C 	0.5319	0.6054	0.6933	0.096
Mof_C 	C 	0.5056	0.639	0.6128	0.09
Mof_C 	C 	0.4742	0.6106	0.6946	0.093
Mof_C 	C 	0.47582	0.6691	0.5146	-0.143
Mof_H 	H 	0.45485	0.66433	0.53605	0.084
Mof_C 	C 	0.47675	0.6878	0.452	0.096
Mof_H 	H 	0.45641	0.69544	0.4315	0
Mof_C 	C 	0.50808	0.695	0.4199	-0.188
Mof_C 	C 	0.53848	0.6835	0.4505	0.096
Mof_H 	H 	0.55945	0.6883	0.429	0.01
Mof_C 	C 	0.53755	0.6649	0.5131	-0.142
Mof_H 	H 	0.55789	0.65719	0.53355	0.085
Mof_C 	C 	0.50622	0.6577	0.5452	0.068
Mof_C 	C 	0.509	0.7119	0.3489	0.536
Mof_C 	C 	0.44087	0.6004	0.7259	0.062
Mof_C 	C 	0.4404	0.5778	0.7828	-0.153
Mof_H 	H 	0.46094	0.56995	0.80201	0.076
Mof_C 	C 	0.40922	0.5669	0.8108	0.099
Mof_H 	H 	0.4089	0.55179	0.84885	-0.011
Mof_C 	C 	0.37852	0.5787	0.7821	-0.203
Mof_C 	C 	0.37899	0.6013	0.7252	0.097
Mof_H 	H 	0.35845	0.60918	0.70596	0.011
Mof_C 	C 	0.41017	0.6122	0.6972	-0.145
Mof_H 	H 	0.41048	0.62734	0.65912	0.084
Mof_C 	C 	0.3448	0.5654	0.8092	0.568
Mof_N 	N 	0.5351	0.6257	0.6364	-0.138
Mof_N 	N 	0.4741	0.6302	0.6388	-0.139
Mof_N 	N 	0.503	0.5963	0.7224	-0.145
Mof_O 	O 	0.68309	0.5542	0.7792	-0.713
Mof_O 	O 	0.65217	0.5261	0.8594	-0.733
Mof_O 	O 	0.5379	0.7173	0.3222	-0.619
Mof_O 	O 	0.47973	0.7197	0.3211	-0.707
Mof_O 	O 	0.31816	0.57503	0.7789	-0.662
Mof_O 	O 	0.34753	0.5445	0.8604	-0.745
Mof_O 	O 	0.738	0.5913	0.8198	-0.955
Mof_O 	O 	0.761	0.389	0.9325	-0.578
Mof_O 	O 	0.7801	0.5338	0.8544	-1.381
Mof_O 	O 	0.7671	0.4887	0.7656	-1.334
Mof_O 	O 	0.7941	0.4899	0.9459	-1.245
Mof_O 	O 	0.7204	0.4446	0.8965	-1.278
Mof_O 	O 	0.7356	0.0836	0.2082	-0.825
Mof_C 	C 	0.753	0.3175	0.9369	0.061
Mof_H 	H 	0.75522	0.32947	0.97922	0.022
Mof_N 	N 	0.7441	0.2104	0.9373	-0.131
Mof_C 	C 	0.7528	0.2819	0.9389	-0.129
Mof_H 	H 	0.75456	0.2703	0.98167	0.064
Mof_C 	C 	0.7405	0.1747	0.9349	0.041
Mof_O 	O 	0.7174	0.0452	0.1229	-0.343
Mof_C 	C 	0.7273	0.0738	0.1477	0.415
Mof_C 	C 	0.7154	0.0938	0.025	0.107
Mof_H 	H 	0.70366	0.07334	0.0173	0.004
Mof_C 	C 	0.7215	0.1161	0.969	-0.199
Mof_H 	H 	0.71381	0.11063	0.92392	0.099
Mof_C 	C 	0.7391	0.1467	0.9805	0.164
Mof_C 	C 	0.7506	0.155	0.048	-0.236
Mof_H 	H 	0.76243	0.17544	0.05565	0.11
Mof_C 	C 	0.7446	0.1326	0.1039	0.299
Mof_H 	H 	0.75228	0.13815	0.14903	-0.046
Mof_C 	C 	0.727	0.102	0.0924	-0.241
Mof_O 	O 	0.6952	0.1188	0.2426	-0.346
Mof_C 	C 	0.7168	0.109	0.1986	0.493
Mof_C 	C 	0.7123	0.1604	0.1215	-0.011
Mof_H 	H 	0.70064	0.17104	0.15846	0.002
Mof_C 	C 	0.7186	0.1782	0.0592	-0.026
Mof_H 	H 	0.71117	0.20083	0.05448	-0.014
Mof_C 	C 	0.7359	0.1623	0.0041	-0.026
Mof_C 	C 	0.747	0.1285	0.0112	-0.061
Mof_H 	H 	0.75863	0.11779	0.97426	0.051
Mof_C 	C 	0.7407	0.1106	0.0735	0.046
Mof_H 	H 	0.7481	0.088	0.07824	0.06
Mof_C 	C 	0.7233	0.1266	0.1287	-0.238
Mof_H 	H 	0.74053	0.65375	0.83131	0.603
Mof_H 	H 	0.73633	0.65375	0.91371	0.585
Mof_H 	H 	0.77314	0.65375	0.87998	0.593
Mof_Zr	Zr	0.23637	0.03534	0.28595	3.195
Mof_Zr	Zr	0.31075	0.99013	0.33637	3.176
Mof_Zr	Zr	0.26434	0.94455	0.46369	3.214
Mof_C 	C 	0.1562	0.0473	0.3087	0.593
Mof_C 	C 	0.12545	0.0871	0.2255	0.112
Mof_H 	H 	0.14671	0.09352	0.20726	-0.003
Mof_C 	C 	0.1236	0.0629	0.2793	-0.221
Mof_C 	C 	0.09183	0.0533	0.3065	0.108
Mof_H 	H 	0.09059	0.03707	0.34258	-0.014
Mof_C 	C 	0.06191	0.0679	0.2798	-0.157
Mof_H 	H 	0.04065	0.06143	0.29802	0.079
Mof_C 	C 	0.06377	0.0921	0.2259	0.069
Mof_C 	C 	0.09554	0.1017	0.1987	-0.155
Mof_H 	H 	0.09678	0.11788	0.16269	0.088
Mof_C 	C 	0.0319	0.1054	0.1933	0.096
Mof_C 	C 	0.0056	0.139	0.1128	0.09
Mof_C 	C 	0.9742	0.1106	0.1946	0.093
Mof_C 	C 	0.97582	0.1691	0.0146	-0.142
Mof_H 	H 	0.95485	0.16433	0.03605	0.084
Mof_C 	C 	0.97675	0.1878	0.952	0.095
Mof_H 	H 	0.95641	0.19544	0.9315	0.001
Mof_C 	C 	0.00808	0.195	0.9199	-0.188
Mof_C 	C 	0.03848	0.1835	0.9505	0.095
Mof_H 	H 	0.05945	0.1883	0.929	0.01
Mof_C 	C 	0.03755	0.1649	0.0131	-0.141
Mof_H 	H 	0.05789	0.15719	0.03355	0.085
Mof_C 	C 	0.00622	0.1577	0.0452	0.068
Mof_C 	C 	0.009	0.2119	0.8489	0.536
Mof_C 	C 	0.94087	0.1004	0.2259	0.062
Mof_C 	C 	0.9404	0.0778	0.2828	-0.153
Mof_H 	H 	0.96094	0.06995	0.30201	0.076
Mof_C 	C 	0.90922	0.0669	0.3108	0.099
Mof_H 	H 	0.9089	0.05179	0.34885	-0.011
Mof_C 	C 	0.87852	0.0787	0.2821	-0.203
Mof_C 	C 	0.87899	0.1013	0.2252	0.097
Mof_H 	H 	0.85845	0.10918	0.20596	0.011
Mof_C 	C 	0.91017	0.1122	0.1972	-0.145
Mof_H 	H 	0.91048	0.12734	0.15912	0.084
Mof_C 	C 	0.8448	0.0654	0.3092	0.568
Mof_N 	N 	0.0351	0.1257	0.1364	-0.138
Mof_N 	N 	0.9741	0.1302	0.1388	-0.139
Mof_N 	N 	0.003	0.0963	0.2224	-0.145
Mof_O 	O 	0.18309	0.0542	0.2792	-0.713
Mof_O 	O 	0.15217	0.0261	0.3594	-0.733
Mof_O 	O 	0.0379	0.2173	0.8222	-0.619
Mof_O 	O 	0.97973	0.2197	0.8211	-0.707
Mof_O 	O 	0.81816	0.07503	0.2789	-0.662
Mof_O 	O 	0.84753	0.0445	0.3604	-0.745
Mof_O 	O 	0.238	0.0913	0.3198	-0.955
Mof_O 	O 	0.261	0.889	0.4325	-0.578
Mof_O 	O 	0.2801	0.0338	0.3544	-1.381
Mof_O 	O 	0.2671	0.9887	0.2656	-1.334
Mof_O 	O 	0.2941	0.9899	0.4459	-1.245
Mof_O 	O 	0.2204	0.9446	0.3965	-1.278
Mof_O 	O 	0.2356	0.5836	0.7082	-0.825
Mof_C 	C 	0.253	0.8175	0.4369	0.061
Mof_H 	H 	0.25522	0.82947	0.47922	0.022
Mof_N 	N 	0.2441	0.7104	0.4373	-0.131
Mof_C 	C 	0.2528	0.7819	0.4389	-0.129
Mof_H 	H 	0.25456	0.7703	0.48167	0.064
Mof_C 	C 	0.2405	0.6747	0.4349	0.041
Mof_O 	O 	0.2174	0.5452	0.6229	-0.343
Mof_C 	C 	0.2273	0.5738	0.6477	0.416
Mof_C 	C 	0.2154	0.5938	0.525	0.108
Mof_H 	H 	0.20366	0.57334	0.5173	0.003
Mof_C 	C 	0.2215	0.6161	0.469	-0.201
Mof_H 	H 	0.21381	0.61063	0.42392	0.1
Mof_C 	C 	0.2391	0.6467	0.4805	0.165
Mof_C 	C 	0.2506	0.655	0.548	-0.236
Mof_H 	H 	0.26243	0.67544	0.55565	0.11
Mof_C 	C 	0.2446	0.6326	0.6039	0.3
Mof_H 	H 	0.25228	0.63815	0.64903	-0.047
Mof_C 	C 	0.227	0.602	0.5924	-0.242
Mof_O 	O 	0.1952	0.6188	0.7426	-0.346
Mof_C 	C 	0.2168	0.609	0.6986	0.492
Mof_C 	C 	0.2123	0.6604	0.6215	-0.013
Mof_H 	H 	0.20064	0.67104	0.65846	0.002
Mof_C 	C 	0.2186	0.6782	0.5592	-0.024
Mof_H 	H 	0.21117	0.70083	0.55448	-0.015
Mof_C 	C 	0.2359	0.6623	0.5041	-0.028
Mof_C 	C 	0.247	0.6285	0.5112	-0.06
Mof_H 	H 	0.25863	0.61779	0.47426	0.051
Mof_C 	C 	0.2407	0.6106	0.5735	0.046
Mof_H 	H 	0.2481	0.588	0.57824	0.06
Mof_C 	C 	0.2233	0.6266	0.6287	-0.237
Mof_H 	H 	0.24053	0.15375	0.33131	0.603
Mof_H 	H 	0.23633	0.15375	0.41371	0.585
Mof_H 	H 	0.27314	0.15375	0.37998	0.593
Mof_Zr	Zr	0.46466	0.73637	0.21405	3.195
Mof_Zr	Zr	0.50987	0.81075	0.16363	3.176
Mof_Zr	Zr	0.55545	0.76434	0.03631	3.214
Mof_C 	C 	0.4527	0.6562	0.1913	0.593
Mof_C 	C 	0.4129	0.62545	0.2745	0.112
Mof_H 	H 	0.40648	0.64671	0.29274	-0.003
Mof_C 	C 	0.4371	0.6236	0.2207	-0.221
Mof_C 	C 	0.4467	0.59183	0.1935	0.108
Mof_H 	H 	0.46293	0.59059	0.15742	-0.014
Mof_C 	C 	0.4321	0.56191	0.2202	-0.157
Mof_H 	H 	0.43857	0.54065	0.20198	0.079
Mof_C 	C 	0.4079	0.56377	0.2741	0.069
Mof_C 	C 	0.3983	0.59554	0.3013	-0.155
Mof_H 	H 	0.38212	0.59678	0.33731	0.088
Mof_C 	C 	0.3946	0.5319	0.3067	0.096
Mof_C 	C 	0.361	0.5056	0.3872	0.09
Mof_C 	C 	0.3894	0.4742	0.3054	0.093
Mof_C 	C 	0.3309	0.47582	0.4854	-0.143
Mof_H 	H 	0.33567	0.45485	0.46395	0.084
Mof_C 	C 	0.3122	0.47675	0.548	0.096
Mof_H 	H 	0.30456	0.45641	0.5685	0
Mof_C 	C 	0.305	0.50808	0.5801	-0.188
Mof_C 	C 	0.3165	0.53848	0.5495	0.096
Mof_H 	H 	0.3117	0.55945	0.571	0.01
Mof_C 	C 	0.3351	0.53755	0.4869	-0.142
Mof_H 	H 	0.34281	0.55789	0.46645	0.085
Mof_C 	C 	0.3423	0.50622	0.4548	0.068
Mof_C 	C 	0.2881	0.509	0.6511	0.536
Mof_C 	C 	0.3996	0.44087	0.2741	0.062
Mof_C 	C 	0.4222	0.4404	0.2172	-0.153
Mof_H 	H 	0.43005	0.46094	0.19799	0.076
Mof_C 	C 	0.4331	0.40922	0.1892	0.099
Mof_H 	H 	0.44821	0.4089	0.15115	-0.011
Mof_C 	C 	0.4213	0.37852	0.2179	-0.203
Mof_C 	C 	0.3987	0.37899	0.2748	0.097
Mof_H 	H 	0.39082	0.35845	0.29404	0.011
Mof_C 	C 	0.3878	0.41017	0.3028	-0.145
Mof_H 	H 	0.37266	0.41048	0.34088	0.084
Mof_C 	C 	0.4346	0.3448	0.1908	0.568
Mof_N 	N 	0.3743	0.5351	0.3636	-0.138
Mof_N 	N 	0.3698	0.4741	0.3612	-0.139
Mof_N 	N 	0.4037	0.503	0.2776	-0.145
Mof_O 	O 	0.4458	0.68309	0.2208	-0.713
Mof_O 	O 	0.4739	0.65217	0.1406	-0.733
Mof_O 	O 	0.2827	0.5379	0.6778	-0.619
Mof_O 	O 	0.2803	0.47973	0.6789	-0.707
Mof_O 	O 	0.42497	0.31816	0.2211	-0.662
Mof_O 	O 	0.4555	0.34753	0.1396	-0.745
Mof_O 	O 	0.4087	0.738	0.1802	-0.955
Mof_O 	O 	0.611	0.761	0.0675	-0.578
Mof_O 	O 	0.4662	0.7801	0.1456	-1.381
Mof_O 	O 	0.5113	0.7671	0.2344	-1.334
Mof_O 	O 	0.5101	0.7941	0.0541	-1.245
Mof_O 	O 	0.5554	0.7204	0.1035	-1.278
Mof_O 	O 	0.9164	0.7356	0.7918	-0.825
Mof_C 	C 	0.6825	0.753	0.0631	0.061
Mof_H 	H 	0.67053	0.75522	0.02078	0.022
Mof_N 	N 	0.7896	0.7441	0.0627	-0.131
Mof_C 	C 	0.7181	0.7528	0.0611	-0.129
Mof_H 	H 	0.7297	0.75456	0.01833	0.064
Mof_C 	C 	0.8253	0.7405	0.0651	0.041
Mof_O 	O 	0.9548	0.7174	0.8771	-0.343
Mof_C 	C 	0.9262	0.7273	0.8523	0.415
Mof_C 	C 	0.9062	0.7154	0.975	0.107
Mof_H 	H 	0.92666	0.70366	0.9827	0.004
Mof_C 	C 	0.8839	0.7215	0.031	-0.199
Mof_H 	H 	0.88937	0.71381	0.07608	0.099
Mof_C 	C 	0.8533	0.7391	0.0195	0.164
Mof_C 	C 	0.845	0.7506	0.952	-0.236
Mof_H 	H 	0.82456	0.76243	0.94435	0.11
Mof_C 	C 	0.8674	0.7446	0.8961	0.299
Mof_H 	H 	0.86185	0.75228	0.85097	-0.046
Mof_C 	C 	0.898	0.727	0.9076	-0.241
Mof_O 	O 	0.8812	0.6952	0.7574	-0.346
Mof_C 	C 	0.891	0.7168	0.8014	0.493
Mof_C 	C 	0.8396	0.7123	0.8785	-0.011
Mof_H 	H 	0.82896	0.70064	0.84154	0.002
Mof_C 	C 	0.8218	0.7186	0.9408	-0.026
Mof_H 	H 	0.79917	0.71117	0.94552	-0.014
Mof_C 	C 	0.8377	0.7359	0.9959	-0.026
Mof_C 	C 	0.8715	0.747	0.9888	-0.061
Mof_H 	H 	0.88221	0.75863	0.02574	0.051
Mof_C 	C 	0.8894	0.7407	0.9265	0.046
Mof_H 	H 	0.912	0.7481	0.92176	0.06
Mof_C 	C 	0.8734	0.7233	0.8713	-0.238
Mof_H 	H 	0.34625	0.74053	0.16869	0.603
Mof_H 	H 	0.34625	0.73633	0.08629	0.585
Mof_H 	H 	0.34625	0.77314	0.12002	0.593
Mof_Zr	Zr	0.96466	0.23637	0.71405	3.195
Mof_Zr	Zr	0.00987	0.31075	0.66363	3.176
Mof_Zr	Zr	0.05545	0.26434	0.53631	3.214
Mof_C 	C 	0.9527	0.1562	0.6913	0.593
Mof_C 	C 	0.9129	0.12545	0.7745	0.112
Mof_H 	H 	0.90648	0.14671	0.79274	-0.003
Mof_C 	C 	0.9371	0.1236	0.7207	-0.221
Mof_C 	C 	0.9467	0.09183	0.6935	0.108
Mof_H 	H 	0.96293	0.09059	0.65742	-0.014
Mof_C 	C 	0.9321	0.06191	0.7202	-0.157
Mof_H 	H 	0.93857	0.04065	0.70198	0.079
Mof_C 	C 	0.9079	0.06377	0.7741	0.069
Mof_C 	C 	0.8983	0.09554	0.8013	-0.155
Mof_H 	H 	0.88212	0.09678	0.83731	0.088
Mof_C 	C 	0.8946	0.0319	0.8067	0.096
Mof_C 	C 	0.861	0.0056	0.8872	0.09
Mof_C 	C 	0.8894	0.9742	0.8054	0.093
Mof_C 	C 	0.8309	0.97582	0.9854	-0.142
Mof_H 	H 	0.83567	0.95485	0.96395	0.084
Mof_C 	C 	0.8122	0.97675	0.048	0.095
Mof_H 	H 	0.80456	0.95641	0.0685	0.001
Mof_C 	C 	0.805	0.00808	0.0801	-0.188
Mof_C 	C 	0.8165	0.03848	0.0495	0.095
Mof_H 	H 	0.8117	0.05945	0.071	0.01
Mof_C 	C 	0.8351	0.03755	0.9869	-0.141
Mof_H 	H 	0.84281	0.05789	0.96645	0.085
Mof_C 	C 	0.8423	0.00622	0.9548	0.068
Mof_C 	C 	0.7881	0.009	0.1511	0.536
Mof_C 	C 	0.8996	0.94087	0.7741	0.062
Mof_C 	C 	0.9222	0.9404	0.7172	-0.153
Mof_H 	H 	0.93005	0.96094	0.69799	0.076
Mof_C 	C 	0.9331	0.90922	0.6892	0.099
Mof_H 	H 	0.94821	0.9089	0.65115	-0.011
Mof_C 	C 	0.9213	0.87852	0.7179	-0.203
Mof_C 	C 	0.8987	0.87899	0.7748	0.097
Mof_H 	H 	0.89082	0.85845	0.79404	0.011
Mof_C 	C 	0.8878	0.91017	0.8028	-0.145
Mof_H 	H 	0.87266	0.91048	0.84088	0.084
Mof_C 	C 	0.9346	0.8448	0.6908	0.568
Mof_N 	N 	0.8743	0.0351	0.8636	-0.138
Mof_N 	N 	0.8698	0.9741	0.8612	-0.139
Mof_N 	N 	0.9037	0.003	0.7776	-0.145
Mof_O 	O 	0.9458	0.18309	0.7208	-0.713
Mof_O 	O 	0.9739	0.15217	0.6406	-0.733
Mof_O 	O 	0.7827	0.0379	0.1778	-0.619
Mof_O 	O 	0.7803	0.97973	0.1789	-0.707
Mof_O 	O 	0.92497	0.81816	0.7211	-0.662
Mof_O 	O 	0.9555	0.84753	0.6396	-0.745
Mof_O 	O 	0.9087	0.238	0.6802	-0.955
Mof_O 	O 	0.111	0.261	0.5675	-0.578
Mof_O 	O 	0.9662	0.2801	0.6456	-1.381
Mof_O 	O 	0.0113	0.2671	0.7344	-1.334
Mof_O 	O 	0.0101	0.2941	0.5541	-1.245
Mof_O 	O 	0.0554	0.2204	0.6035	-1.278
Mof_O 	O 	0.4164	0.2356	0.2918	-0.825
Mof_C 	C 	0.1825	0.253	0.5631	0.061
Mof_H 	H 	0.17053	0.25522	0.52078	0.022
Mof_N 	N 	0.2896	0.2441	0.5627	-0.131
Mof_C 	C 	0.2181	0.2528	0.5611	-0.129
Mof_H 	H 	0.2297	0.25456	0.51833	0.064
Mof_C 	C 	0.3253	0.2405	0.5651	0.041
Mof_O 	O 	0.4548	0.2174	0.3771	-0.343
Mof_C 	C 	0.4262	0.2273	0.3523	0.416
Mof_C 	C 	0.4062	0.2154	0.475	0.108
Mof_H 	H 	0.42666	0.20366	0.4827	0.003
Mof_C 	C 	0.3839	0.2215	0.531	-0.201
Mof_H 	H 	0.38937	0.21381	0.57608	0.1
Mof_C 	C 	0.3533	0.2391	0.5195	0.165
Mof_C 	C 	0.345	0.2506	0.452	-0.236
Mof_H 	H 	0.32456	0.26243	0.44435	0.11
Mof_C 	C 	0.3674	0.2446	0.3961	0.3
Mof_H 	H 	0.36185	0.25228	0.35097	-0.047
Mof_C 	C 	0.398	0.227	0.4076	-0.242
Mof_O 	O 	0.3812	0.1952	0.2574	-0.346
Mof_C 	C 	0.391	0.2168	0.3014	0.492
Mof_C 	C 	0.3396	0.2123	0.3785	-0.013
Mof_H 	H 	0.32896	0.20064	0.34154	0.002
Mof_C 	C 	0.3218	0.2186	0.4408	-0.024
Mof_H 	H 	0.29917	0.21117	0.44552	-0.015
Mof_C 	C 	0.3377	0.2359	0.4959	-0.028
Mof_C 	C 	0.3715	0.247	0.4888	-0.06
Mof_H 	H 	0.38221	0.25863	0.52574	0.051
Mof_C 	C 	0.3894	0.2407	0.4265	0.046
Mof_H 	H 	0.412	0.2481	0.42176	0.06
Mof_C 	C 	0.3734	0.2233	0.3713	-0.237
Mof_H 	H 	0.84625	0.24053	0.66869	0.603
Mof_H 	H 	0.84625	0.23633	0.58629	0.585
Mof_H 	H 	0.84625	0.27314	0.62002	0.593
Mof_Zr	Zr	0.53534	0.26363	0.21405	3.195
Mof_Zr	Zr	0.49013	0.18925	0.16363	3.176
Mof_Zr	Zr	0.44455	0.23566	0.03631	3.214
Mof_C 	C 	0.5473	0.3438	0.1913	0.593
Mof_C 	C 	0.5871	0.37455	0.2745	0.112
Mof_H 	H 	0.59352	0.35329	0.29274	-0.003
Mof_C 	C 	0.5629	0.3764	0.2207	-0.221
Mof_C 	C 	0.5533	0.40817	0.1935	0.108
Mof_H 	H 	0.53707	0.40941	0.15742	-0.014
Mof_C 	C 	0.5679	0.43809	0.2202	-0.157
Mof_H 	H 	0.56143	0.45935	0.20198	0.079
Mof_C 	C 	0.5921	0.43623	0.2741	0.069
Mof_C 	C 	0.6017	0.40446	0.3013	-0.155
Mof_H 	H 	0.61788	0.40322	0.33731	0.088
Mof_C 	C 	0.6054	0.4681	0.3067	0.096
Mof_C 	C 	0.639	0.4944	0.3872	0.09
Mof_C 	C 	0.6106	0.5258	0.3054	0.093
Mof_C 	C 	0.6691	0.52418	0.4854	-0.143
Mof_H 	H 	0.66433	0.54515	0.46395	0.084
Mof_C 	C 	0.6878	0.52325	0.548	0.096
Mof_H 	H 	0.69544	0.54359	0.5685	0
Mof_C 	C 	0.695	0.49192	0.5801	-0.188
Mof_C 	C 	0.6835	0.46152	0.5495	0.096
Mof_H 	H 	0.6883	0.44055	0.571	0.01
Mof_C 	C 	0.6649	0.46245	0.4869	-0.142
Mof_H 	H 	0.65719	0.44211	0.46645	0.085
Mof_C 	C 	0.6577	0.49378	0.4548	0.068
Mof_C 	C 	0.7119	0.491	0.6511	0.536
Mof_C 	C 	0.6004	0.55913	0.2741	0.062
Mof_C 	C 	0.5778	0.5596	0.2172	-0.153
Mof_H 	H 	0.56995	0.53906	0.19799	0.076
Mof_C 	C 	0.5669	0.59078	0.1892	0.099
Mof_H 	H 	0.55179	0.5911	0.15115	-0.011
Mof_C 	C 	0.5787	0.62148	0.2179	-0.203
Mof_C 	C 	0.6013	0.62101	0.2748	0.097
Mof_H 	H 	0.60918	0.64155	0.29404	0.011
Mof_C 	C 	0.6122	0.58983	0.3028	-0.145
Mof_H 	H 	0.62734	0.58952	0.34088	0.084
Mof_C 	C 	0.5654	0.6552	0.1908	0.568
Mof_N 	N 	0.6257	0.4649	0.3636	-0.138
Mof_N 	N 	0.6302	0.5259	0.3612	-0.139
Mof_N 	N 	0.5963	0.497	0.2776	-0.145
Mof_O 	O 	0.5542	0.31691	0.2208	-0.713
Mof_O 	O 	0.5261	0.34783	0.1406	-0.733
Mof_O 	O 	0.7173	0.4621	0.6778	-0.619
Mof_O 	O 	0.7197	0.52027	0.6789	-0.707
Mof_O 	O 	0.57503	0.68184	0.2211	-0.662
Mof_O 	O 	0.5445	0.65247	0.1396	-0.745
Mof_O 	O 	0.5913	0.262	0.1802	-0.955
Mof_O 	O 	0.389	0.239	0.0675	-0.578
Mof_O 	O 	0.5338	0.2199	0.1456	-1.381
Mof_O 	O 	0.4887	0.2329	0.2344	-1.334
Mof_O 	O 	0.4899	0.2059	0.0541	-1.245
Mof_O 	O 	0.4446	0.2796	0.1035	-1.278
Mof_O 	O 	0.0836	0.2644	0.7918	-0.825
Mof_C 	C 	0.3175	0.247	0.0631	0.061
Mof_H 	H 	0.32947	0.24478	0.02078	0.022
Mof_N 	N 	0.2104	0.2559	0.0627	-0.131
Mof_C 	C 	0.2819	0.2472	0.0611	-0.129
Mof_H 	H 	0.2703	0.24544	0.01833	0.064
Mof_C 	C 	0.1747	0.2595	0.0651	0.041
Mof_O 	O 	0.0452	0.2826	0.8771	-0.343
Mof_C 	C 	0.0738	0.2727	0.8523	0.415
Mof_C 	C 	0.0938	0.2846	0.975	0.107
Mof_H 	H 	0.07334	0.29634	0.9827	0.004
Mof_C 	C 	0.1161	0.2785	0.031	-0.199
Mof_H 	H 	0.11063	0.28619	0.07608	0.099
Mof_C 	C 	0.1467	0.2609	0.0195	0.164
Mof_C 	C 	0.155	0.2494	0.952	-0.236
Mof_H 	H 	0.17544	0.23757	0.94435	0.11
Mof_C 	C 	0.1326	0.2554	0.8961	0.299
Mof_H 	H 	0.13815	0.24772	0.85097	-0.046
Mof_C 	C 	0.102	0.273	0.9076	-0.241
Mof_O 	O 	0.1188	0.3048	0.7574	-0.346
Mof_C 	C 	0.109	0.2832	0.8014	0.493
Mof_C 	C 	0.1604	0.2877	0.8785	-0.011
Mof_H 	H 	0.17104	0.29936	0.84154	0.002
Mof_C 	C 	0.1782	0.2814	0.9408	-0.026
Mof_H 	H 	0.20083	0.28883	0.94552	-0.014
Mof_C 	C 	0.1623	0.2641	0.9959	-0.026
Mof_C 	C 	0.1285	0.253	0.9888	-0.061
Mof_H 	H 	0.11779	0.24137	0.02574	0.051
Mof_C 	C 	0.1106	0.2593	0.9265	0.046
Mof_H 	H 	0.088	0.2519	0.92176	0.06
Mof_C 	C 	0.1266	0.2767	0.8713	-0.238
Mof_H 	H 	0.65375	0.25947	0.16869	0.603
Mof_H 	H 	0.65375	0.26367	0.08629	0.585
Mof_H 	H 	0.65375	0.22686	0.12002	0.593
Mof_Zr	Zr	0.03534	0.76363	0.71405	3.195
Mof_Zr	Zr	0.99013	0.68925	0.66363	3.176
Mof_Zr	Zr	0.94455	0.73566	0.53631	3.214
Mof_C 	C 	0.0473	0.8438	0.6913	0.593
Mof_C 	C 	0.0871	0.87455	0.7745	0.112
Mof_H 	H 	0.09352	0.85329	0.79274	-0.003
Mof_C 	C 	0.0629	0.8764	0.7207	-0.221
Mof_C 	C 	0.0533	0.90817	0.6935	0.108
Mof_H 	H 	0.03707	0.90941	0.65742	-0.014
Mof_C 	C 	0.0679	0.93809	0.7202	-0.157
Mof_H 	H 	0.06143	0.95935	0.70198	0.079
Mof_C 	C 	0.0921	0.93623	0.7741	0.069
Mof_C 	C 	0.1017	0.90446	0.8013	-0.155
Mof_H 	H 	0.11788	0.90322	0.83731	0.088
Mof_C 	C 	0.1054	0.9681	0.8067	0.096
Mof_C 	C 	0.139	0.9944	0.8872	0.09
Mof_C 	C 	0.1106	0.0258	0.8054	0.093
Mof_C 	C 	0.1691	0.02418	0.9854	-0.142
Mof_H 	H 	0.16433	0.04515	0.96395	0.084
Mof_C 	C 	0.1878	0.02325	0.048	0.095
Mof_H 	H 	0.19544	0.04359	0.0685	0.001
Mof_C 	C 	0.195	0.99192	0.0801	-0.188
Mof_C 	C 	0.1835	0.96152	0.0495	0.095
Mof_H 	H 	0.1883	0.94055	0.071	0.01
Mof_C 	C 	0.1649	0.96245	0.9869	-0.141
Mof_H 	H 	0.15719	0.94211	0.96645	0.085
Mof_C 	C 	0.1577	0.99378	0.9548	0.068
Mof_C 	C 	0.2119	0.991	0.1511	0.536
Mof_C 	C 	0.1004	0.05913	0.7741	0.062
Mof_C 	C 	0.0778	0.0596	0.7172	-0.153
Mof_H 	H 	0.06995	0.03906	0.69799	0.076
Mof_C 	C 	0.0669	0.09078	0.6892	0.099
Mof_H 	H 	0.05179	0.0911	0.65115	-0.011
Mof_C 	C 	0.0787	0.12148	0.7179	-0.203
Mof_C 	C 	0.1013	0.12101	0.7748	0.097
Mof_H 	H 	0.10918	0.14155	0.79404	0.011
Mof_C 	C 	0.1122	0.08983	0.8028	-0.145
Mof_H 	H 	0.12734	0.08952	0.84088	0.084
Mof_C 	C 	0.0654	0.1552	0.6908	0.568
Mof_N 	N 	0.1257	0.9649	0.8636	-0.138
Mof_N 	N 	0.1302	0.0259	0.8612	-0.139
Mof_N 	N 	0.0963	0.997	0.7776	-0.145
Mof_O 	O 	0.0542	0.81691	0.7208	-0.713
Mof_O 	O 	0.0261	0.84783	0.6406	-0.733
Mof_O 	O 	0.2173	0.9621	0.1778	-0.619
Mof_O 	O 	0.2197	0.02027	0.1789	-0.707
Mof_O 	O 	0.07503	0.18184	0.7211	-0.662
Mof_O 	O 	0.0445	0.15247	0.6396	-0.745
Mof_O 	O 	0.0913	0.762	0.6802	-0.955
Mof_O 	O 	0.889	0.739	0.5675	-0.578
Mof_O 	O 	0.0338	0.7199	0.6456	-1.381
Mof_O 	O 	0.9887	0.7329	0.7344	-1.334
Mof_O 	O 	0.9899	0.7059	0.5541	-1.245
Mof_O 	O 	0.9446	0.7796	0.6035	-1.278
Mof_O 	O 	0.5836	0.7644	0.2918	-0.825
Mof_C 	C 	0.8175	0.747	0.5631	0.061
Mof_H 	H 	0.82947	0.74478	0.52078	0.022
Mof_N 	N 	0.7104	0.7559	0.5627	-0.131
Mof_C 	C 	0.7819	0.7472	0.5611	-0.129
Mof_H 	H 	0.7703	0.74544	0.51833	0.064
Mof_C 	C 	0.6747	0.7595	0.5651	0.041
Mof_O 	O 	0.5452	0.7826	0.3771	-0.343
Mof_C 	C 	0.5738	0.7727	0.3523	0.416
Mof_C 	C 	0.5938	0.7846	0.475	0.108
Mof_H 	H 	0.57334	0.79634	0.4827	0.003
Mof_C 	C 	0.6161	0.7785	0.531	-0.201
Mof_H 	H 	0.61063	0.78619	0.57608	0.1
Mof_C 	C 	0.6467	0.7609	0.5195	0.165
Mof_C 	C 	0.655	0.7494	0.452	-0.236
Mof_H 	H 	0.67544	0.73757	0.44435	0.11
Mof_C 	C 	0.6326	0.7554	0.3961	0.3
Mof_H 	H 	0.63815	0.74772	0.35097	-0.047
Mof_C 	C 	0.602	0.773	0.4076	-0.242
Mof_O 	O 	0.6188	0.8048	0.2574	-0.346
Mof_C 	C 	0.609	0.7832	0.3014	0.492
Mof_C 	C 	0.6604	0.7877	0.3785	-0.013
Mof_H 	H 	0.67104	0.79936	0.34154	0.002
Mof_C 	C 	0.6782	0.7814	0.4408	-0.024
Mof_H 	H 	0.70083	0.78883	0.44552	-0.015
Mof_C 	C 	0.6623	0.7641	0.4959	-0.028
Mof_C 	C 	0.6285	0.753	0.4888	-0.06
Mof_H 	H 	0.61779	0.74137	0.52574	0.051
Mof_C 	C 	0.6106	0.7593	0.4265	0.046
Mof_H 	H 	0.588	0.7519	0.42176	0.06
Mof_C 	C 	0.6266	0.7767	0.3713	-0.237
Mof_H 	H 	0.15375	0.75947	0.66869	0.603
Mof_H 	H 	0.15375	0.76367	0.58629	0.585
Mof_H 	H 	0.15375	0.72686	0.62002	0.593
Mof_Zr	Zr	0.23637	0.46466	0.96405	3.195
Mof_Zr	Zr	0.31075	0.50987	0.91363	3.176
Mof_Zr	Zr	0.26434	0.55545	0.78631	3.214
Mof_C 	C 	0.1562	0.4527	0.9413	0.594
Mof_C 	C 	0.12545	0.4129	0.0245	0.114
Mof_H 	H 	0.14671	0.40648	0.04274	-0.004
Mof_C 	C 	0.1236	0.4371	0.9707	-0.223
Mof_C 	C 	0.09183	0.4467	0.9435	0.11
Mof_H 	H 	0.09059	0.46293	0.90742	-0.015
Mof_C 	C 	0.06191	0.4321	0.9702	-0.16
Mof_H 	H 	0.04065	0.43857	0.95198	0.08
Mof_C 	C 	0.06377	0.4079	0.0241	0.071
Mof_C 	C 	0.09554	0.3983	0.0513	-0.157
Mof_H 	H 	0.09678	0.38212	0.08731	0.089
Mof_C 	C 	0.0319	0.3946	0.0567	0.096
Mof_C 	C 	0.0056	0.361	0.1372	0.09
Mof_C 	C 	0.9742	0.3894	0.0554	0.092
Mof_C 	C 	0.97582	0.3309	0.2354	-0.143
Mof_H 	H 	0.95485	0.33567	0.21395	0.084
Mof_C 	C 	0.97675	0.3122	0.298	0.096
Mof_H 	H 	0.95641	0.30456	0.3185	0
Mof_C 	C 	0.00808	0.305	0.3301	-0.188
Mof_C 	C 	0.03848	0.3165	0.2995	0.096
Mof_H 	H 	0.05945	0.3117	0.321	0.01
Mof_C 	C 	0.03755	0.3351	0.2369	-0.142
Mof_H 	H 	0.05789	0.34281	0.21645	0.085
Mof_C 	C 	0.00622	0.3423	0.2048	0.068
Mof_C 	C 	0.009	0.2881	0.4011	0.536
Mof_C 	C 	0.94087	0.3996	0.0241	0.064
Mof_C 	C 	0.9404	0.4222	0.9672	-0.155
Mof_H 	H 	0.96094	0.43005	0.94799	0.077
Mof_C 	C 	0.90922	0.4331	0.9392	0.101
Mof_H 	H 	0.9089	0.44821	0.90115	-0.012
Mof_C 	C 	0.87852	0.4213	0.9679	-0.205
Mof_C 	C 	0.87899	0.3987	0.0248	0.099
Mof_H 	H 	0.85845	0.39082	0.04404	0.01
Mof_C 	C 	0.91017	0.3878	0.0528	-0.147
Mof_H 	H 	0.91048	0.37266	0.09088	0.084
Mof_C 	C 	0.8448	0.4346	0.9408	0.568
Mof_N 	N 	0.0351	0.3743	0.1136	-0.138
Mof_N 	N 	0.9741	0.3698	0.1112	-0.139
Mof_N 	N 	0.003	0.4037	0.0276	-0.145
Mof_O 	O 	0.18309	0.4458	0.9708	-0.713
Mof_O 	O 	0.15217	0.4739	0.8906	-0.734
Mof_O 	O 	0.0379	0.2827	0.4278	-0.619
Mof_O 	O 	0.97973	0.2803	0.4289	-0.707
Mof_O 	O 	0.81816	0.42497	0.9711	-0.663
Mof_O 	O 	0.84753	0.4555	0.8896	-0.745
Mof_O 	O 	0.238	0.4087	0.9302	-0.955
Mof_O 	O 	0.261	0.611	0.8175	-0.578
Mof_O 	O 	0.2801	0.4662	0.8956	-1.381
Mof_O 	O 	0.2671	0.5113	0.9844	-1.334
Mof_O 	O 	0.2941	0.5101	0.8041	-1.245
Mof_O 	O 	0.2204	0.5554	0.8535	-1.278
Mof_O 	O 	0.2356	0.9164	0.5418	-0.825
Mof_C 	C 	0.253	0.6825	0.8131	0.061
Mof_H 	H 	0.25522	0.67053	0.77078	0.022
Mof_N 	N 	0.2441	0.7896	0.8127	-0.131
Mof_C 	C 	0.2528	0.7181	0.8111	-0.129
Mof_H 	H 	0.25456	0.7297	0.76833	0.064
Mof_C 	C 	0.2405	0.8253	0.8151	0.041
Mof_O 	O 	0.2174	0.9548	0.6271	-0.343
Mof_C 	C 	0.2273	0.9262	0.6023	0.416
Mof_C 	C 	0.2154	0.9062	0.725	0.108
Mof_H 	H 	0.20366	0.92666	0.7327	0.003
Mof_C 	C 	0.2215	0.8839	0.781	-0.201
Mof_H 	H 	0.21381	0.88937	0.82608	0.1
Mof_C 	C 	0.2391	0.8533	0.7695	0.165
Mof_C 	C 	0.2506	0.845	0.702	-0.236
Mof_H 	H 	0.26243	0.82456	0.69435	0.11
Mof_C 	C 	0.2446	0.8674	0.6461	0.3
Mof_H 	H 	0.25228	0.86185	0.60097	-0.047
Mof_C 	C 	0.227	0.898	0.6576	-0.242
Mof_O 	O 	0.1952	0.8812	0.5074	-0.346
Mof_C 	C 	0.2168	0.891	0.5514	0.492
Mof_C 	C 	0.2123	0.8396	0.6285	-0.013
Mof_H 	H 	0.20064	0.82896	0.59154	0.002
Mof_C 	C 	0.2186	0.8218	0.6908	-0.024
Mof_H 	H 	0.21117	0.79917	0.69552	-0.015
Mof_C 	C 	0.2359	0.8377	0.7459	-0.028
Mof_C 	C 	0.247	0.8715	0.7388	-0.06
Mof_H 	H 	0.25863	0.88221	0.77574	0.051
Mof_C 	C 	0.2407	0.8894	0.6765	0.046
Mof_H 	H 	0.2481	0.912	0.67176	0.06
Mof_C 	C 	0.2233	0.8734	0.6213	-0.237
Mof_H 	H 	0.24053	0.34625	0.91869	0.603
Mof_H 	H 	0.23633	0.34625	0.83629	0.585
Mof_H 	H 	0.27314	0.34625	0.87002	0.593
Mof_Zr	Zr	0.73637	0.96466	0.46405	3.195
Mof_Zr	Zr	0.81075	0.00987	0.41363	3.176
Mof_Zr	Zr	0.76434	0.05545	0.28631	3.214
Mof_C 	C 	0.6562	0.9527	0.4413	0.593
Mof_C 	C 	0.62545	0.9129	0.5245	0.112
Mof_H 	H 	0.64671	0.90648	0.54274	-0.003
Mof_C 	C 	0.6236	0.9371	0.4707	-0.221
Mof_C 	C 	0.59183	0.9467	0.4435	0.108
Mof_H 	H 	0.59059	0.96293	0.40742	-0.014
Mof_C 	C 	0.56191	0.9321	0.4702	-0.157
Mof_H 	H 	0.54065	0.93857	0.45198	0.079
Mof_C 	C 	0.56377	0.9079	0.5241	0.069
Mof_C 	C 	0.59554	0.8983	0.5513	-0.155
Mof_H 	H 	0.59678	0.88212	0.58731	0.088
Mof_C 	C 	0.5319	0.8946	0.5567	0.096
Mof_C 	C 	0.5056	0.861	0.6372	0.09
Mof_C 	C 	0.4742	0.8894	0.5554	0.093
Mof_C 	C 	0.47582	0.8309	0.7354	-0.143
Mof_H 	H 	0.45485	0.83567	0.71395	0.084
Mof_C 	C 	0.47675	0.8122	0.798	0.096
Mof_H 	H 	0.45641	0.80456	0.8185	0.001
Mof_C 	C 	0.50808	0.805	0.8301	-0.188
Mof_C 	C 	0.53848	0.8165	0.7995	0.096
Mof_H 	H 	0.55945	0.8117	0.821	0.01
Mof_C 	C 	0.53755	0.8351	0.7369	-0.142
Mof_H 	H 	0.55789	0.84281	0.71645	0.085
Mof_C 	C 	0.50622	0.8423	0.7048	0.068
Mof_C 	C 	0.509	0.7881	0.9011	0.536
Mof_C 	C 	0.44087	0.8996	0.5241	0.062
Mof_C 	C 	0.4404	0.9222	0.4672	-0.153
Mof_H 	H 	0.46094	0.93005	0.44799	0.076
Mof_C 	C 	0.40922	0.9331	0.4392	0.099
Mof_H 	H 	0.4089	0.94821	0.40115	-0.011
Mof_C 	C 	0.37852	0.9213	0.4679	-0.203
Mof_C 	C 	0.37899	0.8987	0.5248	0.097
Mof_H 	H 	0.35845	0.89082	0.54404	0.011
Mof_C 	C 	0.41017	0.8878	0.5528	-0.145
Mof_H 	H 	0.41048	0.87266	0.59088	0.084
Mof_C 	C 	0.3448	0.9346	0.4408	0.568
Mof_N 	N 	0.5351	0.8743	0.6136	-0.138
Mof_N 	N 	0.4741	0.8698	0.6112	-0.139
Mof_N 	N 	0.503	0.9037	0.5276	-0.145
Mof_O 	O 	0.68309	0.9458	0.4708	-0.713
Mof_O 	O 	0.65217	0.9739	0.3906	-0.733
Mof_O 	O 	0.5379	0.7827	0.9278	-0.619
Mof_O 	O 	0.47973	0.7803	0.9289	-0.707
Mof_O 	O 	0.31816	0.92497	0.4711	-0.662
Mof_O 	O 	0.34753	0.9555	0.3896	-0.745
Mof_O 	O 	0.738	0.9087	0.4302	-0.955
Mof_O 	O 	0.761	0.111	0.3175	-0.578
Mof_O 	O 	0.7801	0.9662	0.3956	-1.381
Mof_O 	O 	0.7671	0.0113	0.4844	-1.334
Mof_O 	O 	0.7941	0.0101	0.3041	-1.245
Mof_O 	O 	0.7204	0.0554	0.3535	-1.278
Mof_O 	O 	0.7356	0.4164	0.0418	-0.825
Mof_C 	C 	0.753	0.1825	0.3131	0.061
Mof_H 	H 	0.75522	0.17053	0.27078	0.022
Mof_N 	N 	0.7441	0.2896	0.3127	-0.131
Mof_C 	C 	0.7528	0.2181	0.3111	-0.129
Mof_H 	H 	0.75456	0.2297	0.26833	0.064
Mof_C 	C 	0.7405	0.3253	0.3151	0.041
Mof_O 	O 	0.7174	0.4548	0.1271	-0.342
Mof_C 	C 	0.7273	0.4262	0.1023	0.416
Mof_C 	C 	0.7154	0.4062	0.225	0.108
Mof_H 	H 	0.70366	0.42666	0.2327	0.003
Mof_C 	C 	0.7215	0.3839	0.281	-0.201
Mof_H 	H 	0.71381	0.38937	0.32608	0.1
Mof_C 	C 	0.7391	0.3533	0.2695	0.165
Mof_C 	C 	0.7506	0.345	0.202	-0.236
Mof_H 	H 	0.76243	0.32456	0.19435	0.11
Mof_C 	C 	0.7446	0.3674	0.1461	0.3
Mof_H 	H 	0.75228	0.36185	0.10097	-0.047
Mof_C 	C 	0.727	0.398	0.1576	-0.242
Mof_O 	O 	0.6952	0.3812	0.0074	-0.345
Mof_C 	C 	0.7168	0.391	0.0514	0.492
Mof_C 	C 	0.7123	0.3396	0.1285	-0.013
Mof_H 	H 	0.70064	0.32896	0.09154	0.002
Mof_C 	C 	0.7186	0.3218	0.1908	-0.024
Mof_H 	H 	0.71117	0.29917	0.19552	-0.015
Mof_C 	C 	0.7359	0.3377	0.2459	-0.028
Mof_C 	C 	0.747	0.3715	0.2388	-0.06
Mof_H 	H 	0.75863	0.38221	0.27574	0.051
Mof_C 	C 	0.7407	0.3894	0.1765	0.046
Mof_H 	H 	0.7481	0.412	0.17176	0.06
Mof_C 	C 	0.7233	0.3734	0.1213	-0.237
Mof_H 	H 	0.74053	0.84625	0.41869	0.603
Mof_H 	H 	0.73633	0.84625	0.33629	0.585
Mof_H 	H 	0.77314	0.84625	0.37002	0.593
Mof_Zr	Zr	0.76363	0.53534	0.96405	3.195
Mof_Zr	Zr	0.68925	0.49013	0.91363	3.176
Mof_Zr	Zr	0.73566	0.44455	0.78631	3.214
Mof_C 	C 	0.8438	0.5473	0.9413	0.594
Mof_C 	C 	0.87455	0.5871	0.0245	0.114
Mof_H 	H 	0.85329	0.59352	0.04274	-0.004
Mof_C 	C 	0.8764	0.5629	0.9707	-0.223
Mof_C 	C 	0.90817	0.5533	0.9435	0.11
Mof_H 	H 	0.90941	0.53707	0.90742	-0.015
Mof_C 	C 	0.93809	0.5679	0.9702	-0.16
Mof_H 	H 	0.95935	0.56143	0.95198	0.08
Mof_C 	C 	0.93623	0.5921	0.0241	0.071
Mof_C 	C 	0.90446	0.6017	0.0513	-0.157
Mof_H 	H 	0.90322	0.61788	0.08731	0.089
Mof_C 	C 	0.9681	0.6054	0.0567	0.096
Mof_C 	C 	0.9944	0.639	0.1372	0.09
Mof_C 	C 	0.0258	0.6106	0.0554	0.092
Mof_C 	C 	0.02418	0.6691	0.2354	-0.143
Mof_H 	H 	0.04515	0.66433	0.21395	0.084
Mof_C 	C 	0.02325	0.6878	0.298	0.096
Mof_H 	H 	0.04359	0.69544	0.3185	0
Mof_C 	C 	0.99192	0.695	0.3301	-0.188
Mof_C 	C 	0.96152	0.6835	0.2995	0.096
Mof_H 	H 	0.94055	0.6883	0.321	0.01
Mof_C 	C 	0.96245	0.6649	0.2369	-0.142
Mof_H 	H 	0.94211	0.65719	0.21645	0.085
Mof_C 	C 	0.99378	0.6577	0.2048	0.068
Mof_C 	C 	0.991	0.7119	0.4011	0.536
Mof_C 	C 	0.05913	0.6004	0.0241	0.064
Mof_C 	C 	0.0596	0.5778	0.9672	-0.155
Mof_H 	H 	0.03906	0.56995	0.94799	0.077
Mof_C 	C 	0.09078	0.5669	0.9392	0.101
Mof_H 	H 	0.0911	0.55179	0.90115	-0.012
Mof_C 	C 	0.12148	0.5787	0.9679	-0.205
Mof_C 	C 	0.12101	0.6013	0.0248	0.099
Mof_H 	H 	0.14155	0.60918	0.04404	0.01
Mof_C 	C 	0.08983	0.6122	0.0528	-0.147
Mof_H 	H 	0.08952	0.62734	0.09088	0.084
Mof_C 	C 	0.1552	0.5654	0.9408	0.568
Mof_N 	N 	0.9649	0.6257	0.1136	-0.138
Mof_N 	N 	0.0259	0.6302	0.1112	-0.139
Mof_N 	N 	0.997	0.5963	0.0276	-0.145
Mof_O 	O 	0.81691	0.5542	0.9708	-0.713
Mof_O 	O 	0.84783	0.5261	0.8906	-0.734
Mof_O 	O 	0.9621	0.7173	0.4278	-0.619
Mof_O 	O 	0.02027	0.7197	0.4289	-0.707
Mof_O 	O 	0.18184	0.57503	0.9711	-0.663
Mof_O 	O 	0.15247	0.5445	0.8896	-0.745
Mof_O 	O 	0.762	0.5913	0.9302	-0.955
Mof_O 	O 	0.739	0.389	0.8175	-0.578
Mof_O 	O 	0.7199	0.5338	0.8956	-1.381
Mof_O 	O 	0.7329	0.4887	0.9844	-1.334
Mof_O 	O 	0.7059	0.4899	0.8041	-1.245
Mof_O 	O 	0.7796	0.4446	0.8535	-1.278
Mof_O 	O 	0.7644	0.0836	0.5418	-0.825
Mof_C 	C 	0.747	0.3175	0.8131	0.061
Mof_H 	H 	0.74478	0.32947	0.77078	0.022
Mof_N 	N 	0.7559	0.2104	0.8127	-0.131
Mof_C 	C 	0.7472	0.2819	0.8111	-0.129
Mof_H 	H 	0.74544	0.2703	0.76833	0.064
Mof_C 	C 	0.7595	0.1747	0.8151	0.041
Mof_O 	O 	0.7826	0.0452	0.6271	-0.343
Mof_C 	C 	0.7727	0.0738	0.6023	0.416
Mof_C 	C 	0.7846	0.0938	0.725	0.108
Mof_H 	H 	0.79634	0.07334	0.7327	0.003
Mof_C 	C 	0.7785	0.1161	0.781	-0.201
Mof_H 	H 	0.78619	0.11063	0.82608	0.1
Mof_C 	C 	0.7609	0.1467	0.7695	0.165
Mof_C 	C 	0.7494	0.155	0.702	-0.236
Mof_H 	H 	0.73757	0.17544	0.69435	0.11
Mof_C 	C 	0.7554	0.1326	0.6461	0.3
Mof_H 	H 	0.74772	0.13815	0.60097	-0.047
Mof_C 	C 	0.773	0.102	0.6576	-0.242
Mof_O 	O 	0.8048	0.1188	0.5074	-0.346
Mof_C 	C 	0.7832	0.109	0.5514	0.492
Mof_C 	C 	0.7877	0.1604	0.6285	-0.013
Mof_H 	H 	0.79936	0.17104	0.59154	0.002
Mof_C 	C 	0.7814	0.1782	0.6908	-0.024
Mof_H 	H 	0.78883	0.20083	0.69552	-0.015
Mof_C 	C 	0.7641	0.1623	0.7459	-0.028
Mof_C 	C 	0.753	0.1285	0.7388	-0.06
Mof_H 	H 	0.74137	0.11779	0.77574	0.051
Mof_C 	C 	0.7593	0.1106	0.6765	0.046
Mof_H 	H 	0.7519	0.088	0.67176	0.06
Mof_C 	C 	0.7767	0.1266	0.6213	-0.237
Mof_H 	H 	0.75947	0.65375	0.91869	0.603
Mof_H 	H 	0.76367	0.65375	0.83629	0.585
Mof_H 	H 	0.72686	0.65375	0.87002	0.593
Mof_Zr	Zr	0.26363	0.03534	0.46405	3.195
Mof_Zr	Zr	0.18925	0.99013	0.41363	3.176
Mof_Zr	Zr	0.23566	0.94455	0.28631	3.214
Mof_C 	C 	0.3438	0.0473	0.4413	0.593
Mof_C 	C 	0.37455	0.0871	0.5245	0.112
Mof_H 	H 	0.35329	0.09352	0.54274	-0.003
Mof_C 	C 	0.3764	0.0629	0.4707	-0.221
Mof_C 	C 	0.40817	0.0533	0.4435	0.108
Mof_H 	H 	0.40941	0.03707	0.40742	-0.014
Mof_C 	C 	0.43809	0.0679	0.4702	-0.157
Mof_H 	H 	0.45935	0.06143	0.45198	0.079
Mof_C 	C 	0.43623	0.0921	0.5241	0.069
Mof_C 	C 	0.40446	0.1017	0.5513	-0.155
Mof_H 	H 	0.40322	0.11788	0.58731	0.088
Mof_C 	C 	0.4681	0.1054	0.5567	0.096
Mof_C 	C 	0.4944	0.139	0.6372	0.09
Mof_C 	C 	0.5258	0.1106	0.5554	0.093
Mof_C 	C 	0.52418	0.1691	0.7354	-0.143
Mof_H 	H 	0.54515	0.16433	0.71395	0.084
Mof_C 	C 	0.52325	0.1878	0.798	0.096
Mof_H 	H 	0.54359	0.19544	0.8185	0.001
Mof_C 	C 	0.49192	0.195	0.8301	-0.188
Mof_C 	C 	0.46152	0.1835	0.7995	0.096
Mof_H 	H 	0.44055	0.1883	0.821	0.01
Mof_C 	C 	0.46245	0.1649	0.7369	-0.142
Mof_H 	H 	0.44211	0.15719	0.71645	0.085
Mof_C 	C 	0.49378	0.1577	0.7048	0.068
Mof_C 	C 	0.491	0.2119	0.9011	0.536
Mof_C 	C 	0.55913	0.1004	0.5241	0.062
Mof_C 	C 	0.5596	0.0778	0.4672	-0.153
Mof_H 	H 	0.53906	0.06995	0.44799	0.076
Mof_C 	C 	0.59078	0.0669	0.4392	0.099
Mof_H 	H 	0.5911	0.05179	0.40115	-0.011
Mof_C 	C 	0.62148	0.0787	0.4679	-0.203
Mof_C 	C 	0.62101	0.1013	0.5248	0.097
Mof_H 	H 	0.64155	0.10918	0.54404	0.011
Mof_C 	C 	0.58983	0.1122	0.5528	-0.145
Mof_H 	H 	0.58952	0.12734	0.59088	0.084
Mof_C 	C 	0.6552	0.0654	0.4408	0.568
Mof_N 	N 	0.4649	0.1257	0.6136	-0.138
Mof_N 	N 	0.5259	0.1302	0.6112	-0.139
Mof_N 	N 	0.497	0.0963	0.5276	-0.145
Mof_O 	O 	0.31691	0.0542	0.4708	-0.713
Mof_O 	O 	0.34783	0.0261	0.3906	-0.733
Mof_O 	O 	0.4621	0.2173	0.9278	-0.619
Mof_O 	O 	0.52027	0.2197	0.9289	-0.707
Mof_O 	O 	0.68184	0.07503	0.4711	-0.662
Mof_O 	O 	0.65247	0.0445	0.3896	-0.745
Mof_O 	O 	0.262	0.0913	0.4302	-0.955
Mof_O 	O 	0.239	0.889	0.3175	-0.578
Mof_O 	O 	0.2199	0.0338	0.3956	-1.381
Mof_O 	O 	0.2329	0.9887	0.4844	-1.334
Mof_O 	O 	0.2059	0.9899	0.3041	-1.245
Mof_O 	O 	0.2796	0.9446	0.3535	-1.278
Mof_O 	O 	0.2644	0.5836	0.0418	-0.825
Mof_C 	C 	0.247	0.8175	0.3131	0.061
Mof_H 	H 	0.24478	0.82947	0.27078	0.022
Mof_N 	N 	0.2559	0.7104	0.3127	-0.131
Mof_C 	C 	0.2472	0.7819	0.3111	-0.129
Mof_H 	H 	0.24544	0.7703	0.26833	0.064
Mof_C 	C 	0.2595	0.6747	0.3151	0.041
Mof_O 	O 	0.2826	0.5452	0.1271	-0.342
Mof_C 	C 	0.2727	0.5738	0.1023	0.416
Mof_C 	C 	0.2846	0.5938	0.225	0.108
Mof_H 	H 	0.29634	0.57334	0.2327	0.003
Mof_C 	C 	0.2785	0.6161	0.281	-0.201
Mof_H 	H 	0.28619	0.61063	0.32608	0.1
Mof_C 	C 	0.2609	0.6467	0.2695	0.165
Mof_C 	C 	0.2494	0.655	0.202	-0.236
Mof_H 	H 	0.23757	0.67544	0.19435	0.11
Mof_C 	C 	0.2554	0.6326	0.1461	0.3
Mof_H 	H 	0.24772	0.63815	0.10097	-0.047
Mof_C 	C 	0.273	0.602	0.1576	-0.242
Mof_O 	O 	0.3048	0.6188	0.0074	-0.345
Mof_C 	C 	0.2832	0.609	0.0514	0.492
Mof_C 	C 	0.2877	0.6604	0.1285	-0.013
Mof_H 	H 	0.29936	0.67104	0.09154	0.002
Mof_C 	C 	0.2814	0.6782	0.1908	-0.024
Mof_H 	H 	0.28883	0.70083	0.19552	-0.015
Mof_C 	C 	0.2641	0.6623	0.2459	-0.028
Mof_C 	C 	0.253	0.6285	0.2388	-0.06
Mof_H 	H 	0.24137	0.61779	0.27574	0.051
Mof_C 	C 	0.2593	0.6106	0.1765	0.046
Mof_H 	H 	0.2519	0.588	0.17176	0.06
Mof_C 	C 	0.2767	0.6266	0.1213	-0.237
Mof_H 	H 	0.25947	0.15375	0.41869	0.603
Mof_H 	H 	0.26367	0.15375	0.33629	0.585
Mof_H 	H 	0.22686	0.15375	0.37002	0.593
Mof_Zr	Zr	0.03534	0.73637	0.53595	3.195
Mof_Zr	Zr	0.99013	0.81075	0.58637	3.176
Mof_Zr	Zr	0.94455	0.76434	0.71369	3.214
Mof_C 	C 	0.0473	0.6562	0.5587	0.593
Mof_C 	C 	0.0871	0.62545	0.4755	0.112
Mof_H 	H 	0.09352	0.64671	0.45726	-0.003
Mof_C 	C 	0.0629	0.6236	0.5293	-0.221
Mof_C 	C 	0.0533	0.59183	0.5565	0.108
Mof_H 	H 	0.03707	0.59059	0.59258	-0.014
Mof_C 	C 	0.0679	0.56191	0.5298	-0.157
Mof_H 	H 	0.06143	0.54065	0.54802	0.079
Mof_C 	C 	0.0921	0.56377	0.4759	0.069
Mof_C 	C 	0.1017	0.59554	0.4487	-0.155
Mof_H 	H 	0.11788	0.59678	0.41269	0.088
Mof_C 	C 	0.1054	0.5319	0.4433	0.096
Mof_C 	C 	0.139	0.5056	0.3628	0.09
Mof_C 	C 	0.1106	0.4742	0.4446	0.093
Mof_C 	C 	0.1691	0.47582	0.2646	-0.143
Mof_H 	H 	0.16433	0.45485	0.28605	0.084
Mof_C 	C 	0.1878	0.47675	0.202	0.096
Mof_H 	H 	0.19544	0.45641	0.1815	0.001
Mof_C 	C 	0.195	0.50808	0.1699	-0.188
Mof_C 	C 	0.1835	0.53848	0.2005	0.096
Mof_H 	H 	0.1883	0.55945	0.179	0.01
Mof_C 	C 	0.1649	0.53755	0.2631	-0.142
Mof_H 	H 	0.15719	0.55789	0.28355	0.085
Mof_C 	C 	0.1577	0.50622	0.2952	0.068
Mof_C 	C 	0.2119	0.509	0.0989	0.536
Mof_C 	C 	0.1004	0.44087	0.4759	0.062
Mof_C 	C 	0.0778	0.4404	0.5328	-0.153
Mof_H 	H 	0.06995	0.46094	0.55201	0.076
Mof_C 	C 	0.0669	0.40922	0.5608	0.099
Mof_H 	H 	0.05179	0.4089	0.59885	-0.011
Mof_C 	C 	0.0787	0.37852	0.5321	-0.203
Mof_C 	C 	0.1013	0.37899	0.4752	0.097
Mof_H 	H 	0.10918	0.35845	0.45596	0.011
Mof_C 	C 	0.1122	0.41017	0.4472	-0.145
Mof_H 	H 	0.12734	0.41048	0.40912	0.084
Mof_C 	C 	0.0654	0.3448	0.5592	0.568
Mof_N 	N 	0.1257	0.5351	0.3864	-0.138
Mof_N 	N 	0.1302	0.4741	0.3888	-0.139
Mof_N 	N 	0.0963	0.503	0.4724	-0.145
Mof_O 	O 	0.0542	0.68309	0.5292	-0.713
Mof_O 	O 	0.0261	0.65217	0.6094	-0.733
Mof_O 	O 	0.2173	0.5379	0.0722	-0.619
Mof_O 	O 	0.2197	0.47973	0.0711	-0.707
Mof_O 	O 	0.07503	0.31816	0.5289	-0.662
Mof_O 	O 	0.0445	0.34753	0.6104	-0.745
Mof_O 	O 	0.0913	0.738	0.5698	-0.955
Mof_O 	O 	0.889	0.761	0.6825	-0.578
Mof_O 	O 	0.0338	0.7801	0.6044	-1.381
Mof_O 	O 	0.9887	0.7671	0.5156	-1.334
Mof_O 	O 	0.9899	0.7941	0.6959	-1.245
Mof_O 	O 	0.9446	0.7204	0.6465	-1.278
Mof_O 	O 	0.5836	0.7356	0.9582	-0.825
Mof_C 	C 	0.8175	0.753	0.6869	0.061
Mof_H 	H 	0.82947	0.75522	0.72922	0.022
Mof_N 	N 	0.7104	0.7441	0.6873	-0.131
Mof_C 	C 	0.7819	0.7528	0.6889	-0.129
Mof_H 	H 	0.7703	0.75456	0.73167	0.064
Mof_C 	C 	0.6747	0.7405	0.6849	0.041
Mof_O 	O 	0.5452	0.7174	0.8729	-0.342
Mof_C 	C 	0.5738	0.7273	0.8977	0.416
Mof_C 	C 	0.5938	0.7154	0.775	0.108
Mof_H 	H 	0.57334	0.70366	0.7673	0.003
Mof_C 	C 	0.6161	0.7215	0.719	-0.201
Mof_H 	H 	0.61063	0.71381	0.67392	0.1
Mof_C 	C 	0.6467	0.7391	0.7305	0.165
Mof_C 	C 	0.655	0.7506	0.798	-0.236
Mof_H 	H 	0.67544	0.76243	0.80565	0.11
Mof_C 	C 	0.6326	0.7446	0.8539	0.3
Mof_H 	H 	0.63815	0.75228	0.89903	-0.047
Mof_C 	C 	0.602	0.727	0.8424	-0.242
Mof_O 	O 	0.6188	0.6952	0.9926	-0.345
Mof_C 	C 	0.609	0.7168	0.9486	0.492
Mof_C 	C 	0.6604	0.7123	0.8715	-0.013
Mof_H 	H 	0.67104	0.70064	0.90846	0.002
Mof_C 	C 	0.6782	0.7186	0.8092	-0.024
Mof_H 	H 	0.70083	0.71117	0.80448	-0.015
Mof_C 	C 	0.6623	0.7359	0.7541	-0.028
Mof_C 	C 	0.6285	0.747	0.7612	-0.06
Mof_H 	H 	0.61779	0.75863	0.72426	0.051
Mof_C 	C 	0.6106	0.7407	0.8235	0.046
Mof_H 	H 	0.588	0.7481	0.82824	0.06
Mof_C 	C 	0.6266	0.7233	0.8787	-0.237
Mof_H 	H 	0.15375	0.74053	0.58131	0.603
Mof_H 	H 	0.15375	0.73633	0.66371	0.585
Mof_H 	H 	0.15375	0.77314	0.62998	0.593
Mof_Zr	Zr	0.53534	0.23637	0.03595	3.195
Mof_Zr	Zr	0.49013	0.31075	0.08637	3.176
Mof_Zr	Zr	0.44455	0.26434	0.21369	3.214
Mof_C 	C 	0.5473	0.1562	0.0587	0.594
Mof_C 	C 	0.5871	0.12545	0.9755	0.114
Mof_H 	H 	0.59352	0.14671	0.95726	-0.004
Mof_C 	C 	0.5629	0.1236	0.0293	-0.223
Mof_C 	C 	0.5533	0.09183	0.0565	0.11
Mof_H 	H 	0.53707	0.09059	0.09258	-0.015
Mof_C 	C 	0.5679	0.06191	0.0298	-0.16
Mof_H 	H 	0.56143	0.04065	0.04802	0.08
Mof_C 	C 	0.5921	0.06377	0.9759	0.071
Mof_C 	C 	0.6017	0.09554	0.9487	-0.157
Mof_H 	H 	0.61788	0.09678	0.91269	0.089
Mof_C 	C 	0.6054	0.0319	0.9433	0.096
Mof_C 	C 	0.639	0.0056	0.8628	0.09
Mof_C 	C 	0.6106	0.9742	0.9446	0.092
Mof_C 	C 	0.6691	0.97582	0.7646	-0.143
Mof_H 	H 	0.66433	0.95485	0.78605	0.084
Mof_C 	C 	0.6878	0.97675	0.702	0.096
Mof_H 	H 	0.69544	0.95641	0.6815	0
Mof_C 	C 	0.695	0.00808	0.6699	-0.188
Mof_C 	C 	0.6835	0.03848	0.7005	0.096
Mof_H 	H 	0.6883	0.05945	0.679	0.01
Mof_C 	C 	0.6649	0.03755	0.7631	-0.142
Mof_H 	H 	0.65719	0.05789	0.78355	0.085
Mof_C 	C 	0.6577	0.00622	0.7952	0.068
Mof_C 	C 	0.7119	0.009	0.5989	0.536
Mof_C 	C 	0.6004	0.94087	0.9759	0.064
Mof_C 	C 	0.5778	0.9404	0.0328	-0.155
Mof_H 	H 	0.56995	0.96094	0.05201	0.077
Mof_C 	C 	0.5669	0.90922	0.0608	0.101
Mof_H 	H 	0.55179	0.9089	0.09885	-0.012
Mof_C 	C 	0.5787	0.87852	0.0321	-0.205
Mof_C 	C 	0.6013	0.87899	0.9752	0.099
Mof_H 	H 	0.60918	0.85845	0.95596	0.01
Mof_C 	C 	0.6122	0.91017	0.9472	-0.147
Mof_H 	H 	0.62734	0.91048	0.90912	0.084
Mof_C 	C 	0.5654	0.8448	0.0592	0.568
Mof_N 	N 	0.6257	0.0351	0.8864	-0.138
Mof_N 	N 	0.6302	0.9741	0.8888	-0.139
Mof_N 	N 	0.5963	0.003	0.9724	-0.145
Mof_O 	O 	0.5542	0.18309	0.0292	-0.713
Mof_O 	O 	0.5261	0.15217	0.1094	-0.734
Mof_O 	O 	0.7173	0.0379	0.5722	-0.619
Mof_O 	O 	0.7197	0.97973	0.5711	-0.707
Mof_O 	O 	0.57503	0.81816	0.0289	-0.663
Mof_O 	O 	0.5445	0.84753	0.1104	-0.745
Mof_O 	O 	0.5913	0.238	0.0698	-0.955
Mof_O 	O 	0.389	0.261	0.1825	-0.578
Mof_O 	O 	0.5338	0.2801	0.1044	-1.381
Mof_O 	O 	0.4887	0.2671	0.0156	-1.334
Mof_O 	O 	0.4899	0.2941	0.1959	-1.245
Mof_O 	O 	0.4446	0.2204	0.1465	-1.278
Mof_O 	O 	0.0836	0.2356	0.4582	-0.825
Mof_C 	C 	0.3175	0.253	0.1869	0.061
Mof_H 	H 	0.32947	0.25522	0.22922	0.022
Mof_N 	N 	0.2104	0.2441	0.1873	-0.131
Mof_C 	C 	0.2819	0.2528	0.1889	-0.129
Mof_H 	H 	0.2703	0.25456	0.23167	0.064
Mof_C 	C 	0.1747	0.2405	0.1849	0.041
Mof_O 	O 	0.0452	0.2174	0.3729	-0.343
Mof_C 	C 	0.0738	0.2273	0.3977	0.416
Mof_C 	C 	0.0938	0.2154	0.275	0.108
Mof_H 	H 	0.07334	0.20366	0.2673	0.003
Mof_C 	C 	0.1161	0.2215	0.219	-0.201
Mof_H 	H 	0.11063	0.21381	0.17392	0.1
Mof_C 	C 	0.1467	0.2391	0.2305	0.165
Mof_C 	C 	0.155	0.2506	0.298	-0.236
Mof_H 	H 	0.17544	0.26243	0.30565	0.11
Mof_C 	C 	0.1326	0.2446	0.3539	0.3
Mof_H 	H 	0.13815	0.25228	0.39903	-0.047
Mof_C 	C 	0.102	0.227	0.3424	-0.242
Mof_O 	O 	0.1188	0.1952	0.4926	-0.346
Mof_C 	C 	0.109	0.2168	0.4486	0.492
Mof_C 	C 	0.1604	0.2123	0.3715	-0.013
Mof_H 	H 	0.17104	0.20064	0.40846	0.002
Mof_C 	C 	0.1782	0.2186	0.3092	-0.024
Mof_H 	H 	0.20083	0.21117	0.30448	-0.015
Mof_C 	C 	0.1623	0.2359	0.2541	-0.028
Mof_C 	C 	0.1285	0.247	0.2612	-0.06
Mof_H 	H 	0.11779	0.25863	0.22426	0.051
Mof_C 	C 	0.1106	0.2407	0.3235	0.046
Mof_H 	H 	0.088	0.2481	0.32824	0.06
Mof_C 	C 	0.1266	0.2233	0.3787	-0.237
Mof_H 	H 	0.65375	0.24053	0.08131	0.603
Mof_H 	H 	0.65375	0.23633	0.16371	0.585
Mof_H 	H 	0.65375	0.27314	0.12998	0.593
Mof_Zr	Zr	0.96466	0.26363	0.53595	3.195
Mof_Zr	Zr	0.00987	0.18925	0.58637	3.176
Mof_Zr	Zr	0.05545	0.23566	0.71369	3.214
Mof_C 	C 	0.9527	0.3438	0.5587	0.593
Mof_C 	C 	0.9129	0.37455	0.4755	0.112
Mof_H 	H 	0.90648	0.35329	0.45726	-0.003
Mof_C 	C 	0.9371	0.3764	0.5293	-0.221
Mof_C 	C 	0.9467	0.40817	0.5565	0.108
Mof_H 	H 	0.96293	0.40941	0.59258	-0.014
Mof_C 	C 	0.9321	0.43809	0.5298	-0.157
Mof_H 	H 	0.93857	0.45935	0.54802	0.079
Mof_C 	C 	0.9079	0.43623	0.4759	0.069
Mof_C 	C 	0.8983	0.40446	0.4487	-0.155
Mof_H 	H 	0.88212	0.40322	0.41269	0.088
Mof_C 	C 	0.8946	0.4681	0.4433	0.096
Mof_C 	C 	0.861	0.4944	0.3628	0.09
Mof_C 	C 	0.8894	0.5258	0.4446	0.093
Mof_C 	C 	0.8309	0.52418	0.2646	-0.143
Mof_H 	H 	0.83567	0.54515	0.28605	0.084
Mof_C 	C 	0.8122	0.52325	0.202	0.096
Mof_H 	H 	0.80456	0.54359	0.1815	0.001
Mof_C 	C 	0.805	0.49192	0.1699	-0.188
Mof_C 	C 	0.8165	0.46152	0.2005	0.096
Mof_H 	H 	0.8117	0.44055	0.179	0.01
Mof_C 	C 	0.8351	0.46245	0.2631	-0.142
Mof_H 	H 	0.84281	0.44211	0.28355	0.085
Mof_C 	C 	0.8423	0.49378	0.2952	0.068
Mof_C 	C 	0.7881	0.491	0.0989	0.536
Mof_C 	C 	0.8996	0.55913	0.4759	0.062
Mof_C 	C 	0.9222	0.5596	0.5328	-0.153
Mof_H 	H 	0.93005	0.53906	0.55201	0.076
Mof_C 	C 	0.9331	0.59078	0.5608	0.099
Mof_H 	H 	0.94821	0.5911	0.59885	-0.011
Mof_C 	C 	0.9213	0.62148	0.5321	-0.203
Mof_C 	C 	0.8987	0.62101	0.4752	0.097
Mof_H 	H 	0.89082	0.64155	0.45596	0.011
Mof_C 	C 	0.8878	0.58983	0.4472	-0.145
Mof_H 	H 	0.87266	0.58952	0.40912	0.084
Mof_C 	C 	0.9346	0.6552	0.5592	0.568
Mof_N 	N 	0.8743	0.4649	0.3864	-0.138
Mof_N 	N 	0.8698	0.5259	0.3888	-0.139
Mof_N 	N 	0.9037	0.497	0.4724	-0.145
Mof_O 	O 	0.9458	0.31691	0.5292	-0.713
Mof_O 	O 	0.9739	0.34783	0.6094	-0.733
Mof_O 	O 	0.7827	0.4621	0.0722	-0.619
Mof_O 	O 	0.7803	0.52027	0.0711	-0.707
Mof_O 	O 	0.92497	0.68184	0.5289	-0.662
Mof_O 	O 	0.9555	0.65247	0.6104	-0.745
Mof_O 	O 	0.9087	0.262	0.5698	-0.955
Mof_O 	O 	0.111	0.239	0.6825	-0.578
Mof_O 	O 	0.9662	0.2199	0.6044	-1.381
Mof_O 	O 	0.0113	0.2329	0.5156	-1.334
Mof_O 	O 	0.0101	0.2059	0.6959	-1.245
Mof_O 	O 	0.0554	0.2796	0.6465	-1.278
Mof_O 	O 	0.4164	0.2644	0.9582	-0.825
Mof_C 	C 	0.1825	0.247	0.6869	0.061
Mof_H 	H 	0.17053	0.24478	0.72922	0.022
Mof_N 	N 	0.2896	0.2559	0.6873	-0.131
Mof_C 	C 	0.2181	0.2472	0.6889	-0.129
Mof_H 	H 	0.2297	0.24544	0.73167	0.064
Mof_C 	C 	0.3253	0.2595	0.6849	0.041
Mof_O 	O 	0.4548	0.2826	0.8729	-0.342
Mof_C 	C 	0.4262	0.2727	0.8977	0.416
Mof_C 	C 	0.4062	0.2846	0.775	0.108
Mof_H 	H 	0.42666	0.29634	0.7673	0.003
Mof_C 	C 	0.3839	0.2785	0.719	-0.201
Mof_H 	H 	0.38937	0.28619	0.67392	0.1
Mof_C 	C 	0.3533	0.2609	0.7305	0.165
Mof_C 	C 	0.345	0.2494	0.798	-0.236
Mof_H 	H 	0.32456	0.23757	0.80565	0.11
Mof_C 	C 	0.3674	0.2554	0.8539	0.3
Mof_H 	H 	0.36185	0.24772	0.89903	-0.047
Mof_C 	C 	0.398	0.273	0.8424	-0.242
Mof_O 	O 	0.3812	0.3048	0.9926	-0.345
Mof_C 	C 	0.391	0.2832	0.9486	0.492
Mof_C 	C 	0.3396	0.2877	0.8715	-0.013
Mof_H 	H 	0.32896	0.29936	0.90846	0.002
Mof_C 	C 	0.3218	0.2814	0.8092	-0.024
Mof_H 	H 	0.29917	0.28883	0.80448	-0.015
Mof_C 	C 	0.3377	0.2641	0.7541	-0.028
Mof_C 	C 	0.3715	0.253	0.7612	-0.06
Mof_H 	H 	0.38221	0.24137	0.72426	0.051
Mof_C 	C 	0.3894	0.2593	0.8235	0.046
Mof_H 	H 	0.412	0.2519	0.82824	0.06
Mof_C 	C 	0.3734	0.2767	0.8787	-0.237
Mof_H 	H 	0.84625	0.25947	0.58131	0.603
Mof_H 	H 	0.84625	0.26367	0.66371	0.585
Mof_H 	H 	0.84625	0.22686	0.62998	0.593
Mof_Zr	Zr	0.46466	0.76363	0.03595	3.195
Mof_Zr	Zr	0.50987	0.68925	0.08637	3.176
Mof_Zr	Zr	0.55545	0.73566	0.21369	3.214
Mof_C 	C 	0.4527	0.8438	0.0587	0.594
Mof_C 	C 	0.4129	0.87455	0.9755	0.114
Mof_H 	H 	0.40648	0.85329	0.95726	-0.004
Mof_C 	C 	0.4371	0.8764	0.0293	-0.223
Mof_C 	C 	0.4467	0.90817	0.0565	0.11
Mof_H 	H 	0.46293	0.90941	0.09258	-0.015
Mof_C 	C 	0.4321	0.93809	0.0298	-0.16
Mof_H 	H 	0.43857	0.95935	0.04802	0.08
Mof_C 	C 	0.4079	0.93623	0.9759	0.071
Mof_C 	C 	0.3983	0.90446	0.9487	-0.157
Mof_H 	H 	0.38212	0.90322	0.91269	0.089
Mof_C 	C 	0.3946	0.9681	0.9433	0.096
Mof_C 	C 	0.361	0.9944	0.8628	0.09
Mof_C 	C 	0.3894	0.0258	0.9446	0.092
Mof_C 	C 	0.3309	0.02418	0.7646	-0.143
Mof_H 	H 	0.33567	0.04515	0.78605	0.084
Mof_C 	C 	0.3122	0.02325	0.702	0.096
Mof_H 	H 	0.30456	0.04359	0.6815	0
Mof_C 	C 	0.305	0.99192	0.6699	-0.188
Mof_C 	C 	0.3165	0.96152	0.7005	0.096
Mof_H 	H 	0.3117	0.94055	0.679	0.01
Mof_C 	C 	0.3351	0.96245	0.7631	-0.142
Mof_H 	H 	0.34281	0.94211	0.78355	0.085
Mof_C 	C 	0.3423	0.99378	0.7952	0.068
Mof_C 	C 	0.2881	0.991	0.5989	0.536
Mof_C 	C 	0.3996	0.05913	0.9759	0.064
Mof_C 	C 	0.4222	0.0596	0.0328	-0.155
Mof_H 	H 	0.43005	0.03906	0.05201	0.077
Mof_C 	C 	0.4331	0.09078	0.0608	0.101
Mof_H 	H 	0.44821	0.0911	0.09885	-0.012
Mof_C 	C 	0.4213	0.12148	0.0321	-0.205
Mof_C 	C 	0.3987	0.12101	0.9752	0.099
Mof_H 	H 	0.39082	0.14155	0.95596	0.01
Mof_C 	C 	0.3878	0.08983	0.9472	-0.147
Mof_H 	H 	0.37266	0.08952	0.90912	0.084
Mof_C 	C 	0.4346	0.1552	0.0592	0.568
Mof_N 	N 	0.3743	0.9649	0.8864	-0.138
Mof_N 	N 	0.3698	0.0259	0.8888	-0.139
Mof_N 	N 	0.4037	0.997	0.9724	-0.145
Mof_O 	O 	0.4458	0.81691	0.0292	-0.713
Mof_O 	O 	0.4739	0.84783	0.1094	-0.734
Mof_O 	O 	0.2827	0.9621	0.5722	-0.619
Mof_O 	O 	0.2803	0.02027	0.5711	-0.707
Mof_O 	O 	0.42497	0.18184	0.0289	-0.663
Mof_O 	O 	0.4555	0.15247	0.1104	-0.745
Mof_O 	O 	0.4087	0.762	0.0698	-0.955
Mof_O 	O 	0.611	0.739	0.1825	-0.578
Mof_O 	O 	0.4662	0.7199	0.1044	-1.381
Mof_O 	O 	0.5113	0.7329	0.0156	-1.334
Mof_O 	O 	0.5101	0.7059	0.1959	-1.245
Mof_O 	O 	0.5554	0.7796	0.1465	-1.278
Mof_O 	O 	0.9164	0.7644	0.4582	-0.825
Mof_C 	C 	0.6825	0.747	0.1869	0.061
Mof_H 	H 	0.67053	0.74478	0.22922	0.022
Mof_N 	N 	0.7896	0.7559	0.1873	-0.131
Mof_C 	C 	0.7181	0.7472	0.1889	-0.129
Mof_H 	H 	0.7297	0.74544	0.23167	0.064
Mof_C 	C 	0.8253	0.7595	0.1849	0.041
Mof_O 	O 	0.9548	0.7826	0.3729	-0.343
Mof_C 	C 	0.9262	0.7727	0.3977	0.416
Mof_C 	C 	0.9062	0.7846	0.275	0.108
Mof_H 	H 	0.92666	0.79634	0.2673	0.003
Mof_C 	C 	0.8839	0.7785	0.219	-0.201
Mof_H 	H 	0.88937	0.78619	0.17392	0.1
Mof_C 	C 	0.8533	0.7609	0.2305	0.165
Mof_C 	C 	0.845	0.7494	0.298	-0.236
Mof_H 	H 	0.82456	0.73757	0.30565	0.11
Mof_C 	C 	0.8674	0.7554	0.3539	0.3
Mof_H 	H 	0.86185	0.74772	0.39903	-0.047
Mof_C 	C 	0.898	0.773	0.3424	-0.242
Mof_O 	O 	0.8812	0.8048	0.4926	-0.346
Mof_C 	C 	0.891	0.7832	0.4486	0.492
Mof_C 	C 	0.8396	0.7877	0.3715	-0.013
Mof_H 	H 	0.82896	0.79936	0.40846	0.002
Mof_C 	C 	0.8218	0.7814	0.3092	-0.024
Mof_H 	H 	0.79917	0.78883	0.30448	-0.015
Mof_C 	C 	0.8377	0.7641	0.2541	-0.028
Mof_C 	C 	0.8715	0.753	0.2612	-0.06
Mof_H 	H 	0.88221	0.74137	0.22426	0.051
Mof_C 	C 	0.8894	0.7593	0.3235	0.046
Mof_H 	H 	0.912	0.7519	0.32824	0.06
Mof_C 	C 	0.8734	0.7767	0.3787	-0.237
Mof_H 	H 	0.34625	0.75947	0.08131	0.603
Mof_H 	H 	0.34625	0.76367	0.16371	0.585
Mof_H 	H 	0.34625	0.72686	0.12998	0.593
Mof_C 	C 	0.25	0.394	0.875	1.368
Mof_C 	C 	0.25	0.3545	0.875	-3.491
Mof_C 	C 	0.25	0.6267	0.875	0.445
Mof_C 	C 	0.25	0.6641	0.875	-0.151
Mof_C 	C 	0.25	0.7719	0.875	0.073
Mof_C 	C 	0.25	0.7362	0.875	0.038
Mof_N 	N 	0.25	0.8433	0.875	-0.131
Mof_C 	C 	0.75	0.894	0.375	1.368
Mof_C 	C 	0.75	0.8545	0.375	-3.491
Mof_C 	C 	0.75	0.1267	0.375	0.445
Mof_C 	C 	0.75	0.1641	0.375	-0.151
Mof_C 	C 	0.75	0.2719	0.375	0.073
Mof_C 	C 	0.75	0.2362	0.375	0.038
Mof_N 	N 	0.75	0.3433	0.375	-0.131
Mof_C 	C 	0.75	0.606	0.875	1.368
Mof_C 	C 	0.75	0.6455	0.875	-3.491
Mof_C 	C 	0.75	0.3733	0.875	0.445
Mof_C 	C 	0.75	0.3359	0.875	-0.151
Mof_C 	C 	0.75	0.2281	0.875	0.073
Mof_C 	C 	0.75	0.2638	0.875	0.038
Mof_N 	N 	0.75	0.1567	0.875	-0.131
Mof_C 	C 	0.25	0.106	0.375	1.368
Mof_C 	C 	0.25	0.1455	0.375	-3.491
Mof_C 	C 	0.25	0.8733	0.375	0.445
Mof_C 	C 	0.25	0.8359	0.375	-0.151
Mof_C 	C 	0.25	0.7281	0.375	0.073
Mof_C 	C 	0.25	0.7638	0.375	0.038
Mof_N 	N 	0.25	0.6567	0.375	-0.131
Mof_C 	C 	0.394	0.75	0.125	1.368
Mof_C 	C 	0.3545	0.75	0.125	-3.491
Mof_C 	C 	0.6267	0.75	0.125	0.445
Mof_C 	C 	0.6641	0.75	0.125	-0.151
Mof_C 	C 	0.7719	0.75	0.125	0.073
Mof_C 	C 	0.7362	0.75	0.125	0.038
Mof_N 	N 	0.8433	0.75	0.125	-0.131
Mof_C 	C 	0.606	0.25	0.125	1.368
Mof_C 	C 	0.6455	0.25	0.125	-3.491
Mof_C 	C 	0.3733	0.25	0.125	0.445
Mof_C 	C 	0.3359	0.25	0.125	-0.151
Mof_C 	C 	0.2281	0.25	0.125	0.073
Mof_C 	C 	0.2638	0.25	0.125	0.038
Mof_N 	N 	0.1567	0.25	0.125	-0.131
Mof_C 	C 	0.106	0.75	0.625	1.368
Mof_C 	C 	0.1455	0.75	0.625	-3.491
Mof_C 	C 	0.8733	0.75	0.625	0.445
Mof_C 	C 	0.8359	0.75	0.625	-0.151
Mof_C 	C 	0.7281	0.75	0.625	0.073
Mof_C 	C 	0.7638	0.75	0.625	0.038
Mof_N 	N 	0.6567	0.75	0.625	-0.131
Mof_C 	C 	0.894	0.25	0.625	1.368
Mof_C 	C 	0.8545	0.25	0.625	-3.491
Mof_C 	C 	0.1267	0.25	0.625	0.445
Mof_C 	C 	0.1641	0.25	0.625	-0.151
Mof_C 	C 	0.2719	0.25	0.625	0.073
Mof_C 	C 	0.2362	0.25	0.625	0.038
Mof_N 	N 	0.3433	0.25	0.625	-0.131
_end
