data_functionalizedCrystal
_audit_creation_method	'EQeq! by Chris Wilmer'
_symmetry_space_group_name_H-M	'P1'
_symmetry_Int_Tables_number	1
_symmetry_cell_setting	triclinic
loop_
_symmetry_equiv_pos_as_xyz
  x,y,z
_cell_length_a	13.502
_cell_length_b	15.465
_cell_length_c	32.416
_cell_angle_alpha	90
_cell_angle_beta	90
_cell_angle_gamma	90
loop_
_atom_site_label
_atom_site_type_symbol
_atom_site_fract_x
_atom_site_fract_y
_atom_site_fract_z
_atom_site_charge
Mof_In	In	0.72237	0.92376	0.65882	2.946
Mof_In	In	0.27721	0.81818	0.38154	3.074
Mof_In	In	0.77763	0.07624	0.15882	2.945
Mof_In	In	0.22279	0.18182	0.88154	3.075
Mof_In	In	0.27763	0.42376	0.84118	2.945
Mof_In	In	0.72279	0.31818	0.11846	3.075
Mof_In	In	0.22237	0.57624	0.34118	2.945
Mof_In	In	0.77721	0.68182	0.61846	3.075
Mof_In	In	0.27763	0.07624	0.34118	2.946
Mof_In	In	0.72279	0.18182	0.61846	3.074
Mof_In	In	0.22237	0.92376	0.84118	2.945
Mof_In	In	0.77721	0.81818	0.11846	3.075
Mof_In	In	0.72237	0.57624	0.15882	2.944
Mof_In	In	0.27721	0.68182	0.88154	3.074
Mof_In	In	0.77763	0.42376	0.65882	2.944
Mof_In	In	0.22279	0.31818	0.38154	3.074
Mof_H 	H 	0.9984	0.9921	0.7596	0.023
Mof_H 	H 	0.0271	0.2511	0.8033	0.008
Mof_H 	H 	0.9181	0.3069	0.7553	0.069
Mof_H 	H 	0.4364	0.7194	0.4852	0.048
Mof_H 	H 	0.5346	0.6855	0.5394	0.009
Mof_H 	H 	0.5132	0.9442	0.5778	-0.003
Mof_H 	H 	0.4059	0.9733	0.5254	0.07
Mof_H 	H 	0.8748	0.8457	0.6231	0.288
Mof_H 	H 	0.7762	0.0132	0.5885	0.27
Mof_H 	H 	0.5016	0.0079	0.2596	0.021
Mof_H 	H 	0.4729	0.7489	0.3033	0.006
Mof_H 	H 	0.5819	0.6931	0.2553	0.07
Mof_H 	H 	0.0636	0.2806	0.9852	0.046
Mof_H 	H 	0.9654	0.3145	0.0394	0.01
Mof_H 	H 	0.9868	0.0558	0.0778	-0.001
Mof_H 	H 	0.0941	0.0267	0.0254	0.069
Mof_H 	H 	0.6252	0.1543	0.1231	0.288
Mof_H 	H 	0.7238	0.9868	0.0885	0.271
Mof_H 	H 	0.0016	0.4921	0.7404	0.019
Mof_H 	H 	0.9729	0.7511	0.6967	0.007
Mof_H 	H 	0.0819	0.8069	0.7447	0.07
Mof_H 	H 	0.5636	0.2194	0.0148	0.049
Mof_H 	H 	0.4654	0.1855	0.9606	0.009
Mof_H 	H 	0.4868	0.4442	0.9222	-0.003
Mof_H 	H 	0.5941	0.4733	0.9746	0.071
Mof_H 	H 	0.1252	0.3457	0.8769	0.288
Mof_H 	H 	0.2238	0.5132	0.9115	0.271
Mof_H 	H 	0.4984	0.5079	0.2404	0.019
Mof_H 	H 	0.5271	0.2489	0.1967	0.006
Mof_H 	H 	0.4181	0.1931	0.2447	0.071
Mof_H 	H 	0.9364	0.7806	0.5148	0.048
Mof_H 	H 	0.0346	0.8145	0.4606	0.009
Mof_H 	H 	0.0132	0.5558	0.4222	-0.002
Mof_H 	H 	0.9059	0.5267	0.4746	0.07
Mof_H 	H 	0.3748	0.6543	0.3769	0.288
Mof_H 	H 	0.2762	0.4868	0.4115	0.271
Mof_H 	H 	0.0016	0.0079	0.2404	0.023
Mof_H 	H 	0.9729	0.7489	0.1967	0.008
Mof_H 	H 	0.0819	0.6931	0.2447	0.069
Mof_H 	H 	0.5636	0.2806	0.5148	0.048
Mof_H 	H 	0.4654	0.3145	0.4606	0.009
Mof_H 	H 	0.4868	0.0558	0.4222	-0.003
Mof_H 	H 	0.5941	0.0267	0.4746	0.07
Mof_H 	H 	0.1252	0.1543	0.3769	0.288
Mof_H 	H 	0.2238	0.9868	0.4115	0.27
Mof_H 	H 	0.4984	0.9921	0.7404	0.021
Mof_H 	H 	0.5271	0.2511	0.6967	0.006
Mof_H 	H 	0.4181	0.3069	0.7447	0.07
Mof_H 	H 	0.9364	0.7194	0.0148	0.046
Mof_H 	H 	0.0346	0.6855	0.9606	0.01
Mof_H 	H 	0.0132	0.9442	0.9222	-0.001
Mof_H 	H 	0.9059	0.9733	0.9746	0.069
Mof_H 	H 	0.3748	0.8457	0.8769	0.288
Mof_H 	H 	0.2762	0.0132	0.9115	0.271
Mof_H 	H 	0.9984	0.5079	0.2596	0.019
Mof_H 	H 	0.0271	0.2489	0.3033	0.007
Mof_H 	H 	0.9181	0.1931	0.2553	0.07
Mof_H 	H 	0.4364	0.7806	0.9852	0.049
Mof_H 	H 	0.5346	0.8145	0.0394	0.009
Mof_H 	H 	0.5132	0.5558	0.0778	-0.003
Mof_H 	H 	0.4059	0.5267	0.0254	0.071
Mof_H 	H 	0.8748	0.6543	0.1231	0.288
Mof_H 	H 	0.7762	0.4868	0.0885	0.271
Mof_H 	H 	0.5016	0.4921	0.7596	0.019
Mof_H 	H 	0.4729	0.7511	0.8033	0.006
Mof_H 	H 	0.5819	0.8069	0.7553	0.071
Mof_H 	H 	0.0636	0.2194	0.4852	0.048
Mof_H 	H 	0.9654	0.1855	0.5394	0.009
Mof_H 	H 	0.9868	0.4442	0.5778	-0.002
Mof_H 	H 	0.0941	0.4733	0.5254	0.07
Mof_H 	H 	0.6252	0.3457	0.6231	0.288
Mof_H 	H 	0.7238	0.5132	0.5885	0.271
Mof_C 	C 	0.9189	0.0827	0.7306	-0.104
Mof_C 	C 	0.9818	0.0504	0.7579	0.055
Mof_C 	C 	0.0221	0.1175	0.7851	-0.162
Mof_C 	C 	0.9973	0.2147	0.7841	0.059
Mof_C 	C 	0.9348	0.2486	0.7567	-0.089
Mof_C 	C 	0.8968	0.1831	0.7298	-0.042
Mof_C 	C 	0.8783	0.0043	0.703	0.555
Mof_C 	C 	0.8363	0.2258	0.6978	0.422
Mof_C 	C 	0.0911	0.0842	0.8138	0.527
Mof_C 	C 	0.3617	0.8787	0.4629	0.366
Mof_C 	C 	0.4246	0.8573	0.4967	-0.053
Mof_C 	C 	0.4584	0.7621	0.5032	-0.058
Mof_C 	C 	0.516	0.7417	0.5329	0.044
Mof_C 	C 	0.55	0.8218	0.5561	-0.178
Mof_C 	C 	0.5013	0.9043	0.5569	0.073
Mof_C 	C 	0.4392	0.9208	0.5267	-0.088
Mof_C 	C 	0.6218	0.8062	0.5867	0.538
Mof_C 	C 	0.5811	0.9173	0.2306	-0.107
Mof_C 	C 	0.5182	0.9496	0.2579	0.061
Mof_C 	C 	0.4779	0.8825	0.2851	-0.166
Mof_C 	C 	0.5027	0.7853	0.2841	0.064
Mof_C 	C 	0.5652	0.7514	0.2567	-0.091
Mof_C 	C 	0.6032	0.8169	0.2298	-0.04
Mof_C 	C 	0.6217	0.9957	0.203	0.559
Mof_C 	C 	0.6637	0.7742	0.1978	0.421
Mof_C 	C 	0.4089	0.9158	0.3138	0.527
Mof_C 	C 	0.1383	0.1213	0.9629	0.367
Mof_C 	C 	0.0754	0.1427	0.9967	-0.056
Mof_C 	C 	0.0416	0.2379	0.0032	-0.054
Mof_C 	C 	0.984	0.2583	0.0329	0.04
Mof_C 	C 	0.95	0.1782	0.0561	-0.176
Mof_C 	C 	0.9987	0.0957	0.0569	0.068
Mof_C 	C 	0.0608	0.0792	0.0267	-0.083
Mof_C 	C 	0.8782	0.1938	0.0867	0.537
Mof_C 	C 	0.0811	0.5827	0.7694	-0.108
Mof_C 	C 	0.0182	0.5504	0.7421	0.063
Mof_C 	C 	0.9779	0.6175	0.7149	-0.165
Mof_C 	C 	0.0027	0.7147	0.7159	0.062
Mof_C 	C 	0.0652	0.7486	0.7433	-0.091
Mof_C 	C 	0.1032	0.6831	0.7702	-0.04
Mof_C 	C 	0.1217	0.5043	0.797	0.562
Mof_C 	C 	0.1637	0.7258	0.8022	0.421
Mof_C 	C 	0.9089	0.5842	0.6862	0.528
Mof_C 	C 	0.6383	0.3787	0.0371	0.366
Mof_C 	C 	0.5754	0.3573	0.0033	-0.052
Mof_C 	C 	0.5416	0.2621	0.9968	-0.059
Mof_C 	C 	0.484	0.2417	0.9671	0.045
Mof_C 	C 	0.45	0.3218	0.9439	-0.179
Mof_C 	C 	0.4987	0.4043	0.9431	0.074
Mof_C 	C 	0.5608	0.4208	0.9733	-0.089
Mof_C 	C 	0.3782	0.3062	0.9133	0.538
Mof_C 	C 	0.4189	0.4173	0.2694	-0.108
Mof_C 	C 	0.4818	0.4496	0.2421	0.064
Mof_C 	C 	0.5221	0.3825	0.2149	-0.167
Mof_C 	C 	0.4973	0.2853	0.2159	0.064
Mof_C 	C 	0.4348	0.2514	0.2433	-0.092
Mof_C 	C 	0.3968	0.3169	0.2702	-0.039
Mof_C 	C 	0.3783	0.4957	0.297	0.562
Mof_C 	C 	0.3363	0.2742	0.3022	0.421
Mof_C 	C 	0.5911	0.4158	0.1862	0.529
Mof_C 	C 	0.8617	0.6213	0.5371	0.366
Mof_C 	C 	0.9246	0.6427	0.5033	-0.053
Mof_C 	C 	0.9584	0.7379	0.4968	-0.056
Mof_C 	C 	0.016	0.7583	0.4671	0.042
Mof_C 	C 	0.05	0.6782	0.4439	-0.178
Mof_C 	C 	0.0013	0.5957	0.4431	0.072
Mof_C 	C 	0.9392	0.5792	0.4733	-0.087
Mof_C 	C 	0.1218	0.6938	0.4133	0.538
Mof_C 	C 	0.0811	0.9173	0.2694	-0.104
Mof_C 	C 	0.0182	0.9496	0.2421	0.055
Mof_C 	C 	0.9779	0.8825	0.2149	-0.162
Mof_C 	C 	0.0027	0.7853	0.2159	0.059
Mof_C 	C 	0.0652	0.7514	0.2433	-0.089
Mof_C 	C 	0.1032	0.8169	0.2702	-0.042
Mof_C 	C 	0.1217	0.9957	0.297	0.555
Mof_C 	C 	0.1637	0.7742	0.3022	0.422
Mof_C 	C 	0.9089	0.9158	0.1862	0.527
Mof_C 	C 	0.6383	0.1213	0.5371	0.366
Mof_C 	C 	0.5754	0.1427	0.5033	-0.053
Mof_C 	C 	0.5416	0.2379	0.4968	-0.058
Mof_C 	C 	0.484	0.2583	0.4671	0.044
Mof_C 	C 	0.45	0.1782	0.4439	-0.178
Mof_C 	C 	0.4987	0.0957	0.4431	0.073
Mof_C 	C 	0.5608	0.0792	0.4733	-0.088
Mof_C 	C 	0.3782	0.1938	0.4133	0.538
Mof_C 	C 	0.4189	0.0827	0.7694	-0.107
Mof_C 	C 	0.4818	0.0504	0.7421	0.061
Mof_C 	C 	0.5221	0.1175	0.7149	-0.166
Mof_C 	C 	0.4973	0.2147	0.7159	0.064
Mof_C 	C 	0.4348	0.2486	0.7433	-0.091
Mof_C 	C 	0.3968	0.1831	0.7702	-0.04
Mof_C 	C 	0.3783	0.0043	0.797	0.559
Mof_C 	C 	0.3363	0.2258	0.8022	0.421
Mof_C 	C 	0.5911	0.0842	0.6862	0.527
Mof_C 	C 	0.8617	0.8787	0.0371	0.367
Mof_C 	C 	0.9246	0.8573	0.0033	-0.056
Mof_C 	C 	0.9584	0.7621	0.9968	-0.054
Mof_C 	C 	0.016	0.7417	0.9671	0.04
Mof_C 	C 	0.05	0.8218	0.9439	-0.176
Mof_C 	C 	0.0013	0.9043	0.9431	0.068
Mof_C 	C 	0.9392	0.9208	0.9733	-0.083
Mof_C 	C 	0.1218	0.8062	0.9133	0.537
Mof_C 	C 	0.9189	0.4173	0.2306	-0.108
Mof_C 	C 	0.9818	0.4496	0.2579	0.063
Mof_C 	C 	0.0221	0.3825	0.2851	-0.165
Mof_C 	C 	0.9973	0.2853	0.2841	0.062
Mof_C 	C 	0.9348	0.2514	0.2567	-0.091
Mof_C 	C 	0.8968	0.3169	0.2298	-0.04
Mof_C 	C 	0.8783	0.4957	0.203	0.562
Mof_C 	C 	0.8363	0.2742	0.1978	0.421
Mof_C 	C 	0.0911	0.4158	0.3138	0.528
Mof_C 	C 	0.3617	0.6213	0.9629	0.366
Mof_C 	C 	0.4246	0.6427	0.9967	-0.052
Mof_C 	C 	0.4584	0.7379	0.0032	-0.059
Mof_C 	C 	0.516	0.7583	0.0329	0.045
Mof_C 	C 	0.55	0.6782	0.0561	-0.179
Mof_C 	C 	0.5013	0.5957	0.0569	0.074
Mof_C 	C 	0.4392	0.5792	0.0267	-0.089
Mof_C 	C 	0.6218	0.6938	0.0867	0.538
Mof_C 	C 	0.5811	0.5827	0.7306	-0.108
Mof_C 	C 	0.5182	0.5504	0.7579	0.064
Mof_C 	C 	0.4779	0.6175	0.7851	-0.167
Mof_C 	C 	0.5027	0.7147	0.7841	0.064
Mof_C 	C 	0.5652	0.7486	0.7567	-0.092
Mof_C 	C 	0.6032	0.6831	0.7298	-0.039
Mof_C 	C 	0.6217	0.5043	0.703	0.562
Mof_C 	C 	0.6637	0.7258	0.6978	0.421
Mof_C 	C 	0.4089	0.5842	0.8138	0.529
Mof_C 	C 	0.1383	0.3787	0.4629	0.366
Mof_C 	C 	0.0754	0.3573	0.4967	-0.053
Mof_C 	C 	0.0416	0.2621	0.5032	-0.056
Mof_C 	C 	0.984	0.2417	0.5329	0.042
Mof_C 	C 	0.95	0.3218	0.5561	-0.178
Mof_C 	C 	0.9987	0.4043	0.5569	0.072
Mof_C 	C 	0.0608	0.4208	0.5267	-0.087
Mof_C 	C 	0.8782	0.3062	0.5867	0.538
Mof_O 	O 	0.7966	0.9934	0.70683	-0.747
Mof_O 	O 	0.9236	0.9532	0.6811	-0.465
Mof_O 	O 	0.8078	0.3104	0.70441	-0.576
Mof_O 	O 	0.8229	0.1745	0.66613	-0.759
Mof_O 	O 	0.1227	0.149	0.8362	-0.788
Mof_O 	O 	0.1128	0.9962	0.81299	-0.717
Mof_O 	O 	0.3639	0.8206	0.4325	-0.75
Mof_O 	O 	0.3144	0.9524	0.465	-0.332
Mof_O 	O 	0.6737	0.7362	0.57941	-0.773
Mof_O 	O 	0.6229	0.863	0.61744	-0.741
Mof_O 	O 	0.8122	0.8274	0.6313	-1.052
Mof_O 	O 	0.7497	0.0311	0.61353	-0.969
Mof_O 	O 	0.7034	0.0066	0.20683	-0.749
Mof_O 	O 	0.5764	0.0468	0.1811	-0.467
Mof_O 	O 	0.6922	0.6896	0.20441	-0.576
Mof_O 	O 	0.6771	0.8255	0.16613	-0.759
Mof_O 	O 	0.3773	0.851	0.3362	-0.788
Mof_O 	O 	0.3872	0.0038	0.31299	-0.716
Mof_O 	O 	0.1361	0.1794	0.9325	-0.75
Mof_O 	O 	0.1856	0.0476	0.965	-0.332
Mof_O 	O 	0.8263	0.2638	0.07941	-0.773
Mof_O 	O 	0.8771	0.137	0.11744	-0.741
Mof_O 	O 	0.6878	0.1726	0.1313	-1.052
Mof_O 	O 	0.7503	0.9689	0.11353	-0.969
Mof_O 	O 	0.2034	0.4934	0.79317	-0.75
Mof_O 	O 	0.0764	0.4532	0.8189	-0.468
Mof_O 	O 	0.1922	0.8104	0.79559	-0.576
Mof_O 	O 	0.1771	0.6745	0.83387	-0.759
Mof_O 	O 	0.8773	0.649	0.6638	-0.788
Mof_O 	O 	0.8872	0.4962	0.68701	-0.717
Mof_O 	O 	0.6361	0.3206	0.0675	-0.75
Mof_O 	O 	0.6856	0.4524	0.035	-0.332
Mof_O 	O 	0.3263	0.2362	0.92059	-0.773
Mof_O 	O 	0.3771	0.363	0.88256	-0.741
Mof_O 	O 	0.1878	0.3274	0.8687	-1.052
Mof_O 	O 	0.2503	0.5311	0.88647	-0.969
Mof_O 	O 	0.2966	0.5066	0.29317	-0.75
Mof_O 	O 	0.4236	0.5468	0.3189	-0.468
Mof_O 	O 	0.3078	0.1896	0.29559	-0.576
Mof_O 	O 	0.3229	0.3255	0.33387	-0.759
Mof_O 	O 	0.6227	0.351	0.1638	-0.788
Mof_O 	O 	0.6128	0.5038	0.18701	-0.717
Mof_O 	O 	0.8639	0.6794	0.5675	-0.75
Mof_O 	O 	0.8144	0.5476	0.535	-0.332
Mof_O 	O 	0.1737	0.7638	0.42059	-0.773
Mof_O 	O 	0.1229	0.637	0.38256	-0.741
Mof_O 	O 	0.3122	0.6726	0.3687	-1.052
Mof_O 	O 	0.2497	0.4689	0.38647	-0.969
Mof_O 	O 	0.2034	0.0066	0.29317	-0.747
Mof_O 	O 	0.0764	0.0468	0.3189	-0.465
Mof_O 	O 	0.1922	0.6896	0.29559	-0.576
Mof_O 	O 	0.1771	0.8255	0.33387	-0.759
Mof_O 	O 	0.8773	0.851	0.1638	-0.788
Mof_O 	O 	0.8872	0.0038	0.18701	-0.717
Mof_O 	O 	0.6361	0.1794	0.5675	-0.75
Mof_O 	O 	0.6856	0.0476	0.535	-0.332
Mof_O 	O 	0.3263	0.2638	0.42059	-0.773
Mof_O 	O 	0.3771	0.137	0.38256	-0.741
Mof_O 	O 	0.1878	0.1726	0.3687	-1.052
Mof_O 	O 	0.2503	0.9689	0.38647	-0.969
Mof_O 	O 	0.2966	0.9934	0.79317	-0.749
Mof_O 	O 	0.4236	0.9532	0.8189	-0.467
Mof_O 	O 	0.3078	0.3104	0.79559	-0.576
Mof_O 	O 	0.3229	0.1745	0.83387	-0.759
Mof_O 	O 	0.6227	0.149	0.6638	-0.788
Mof_O 	O 	0.6128	0.9962	0.68701	-0.716
Mof_O 	O 	0.8639	0.8206	0.0675	-0.75
Mof_O 	O 	0.8144	0.9524	0.035	-0.332
Mof_O 	O 	0.1737	0.7362	0.92059	-0.773
Mof_O 	O 	0.1229	0.863	0.88256	-0.741
Mof_O 	O 	0.3122	0.8274	0.8687	-1.052
Mof_O 	O 	0.2497	0.0311	0.88647	-0.969
Mof_O 	O 	0.7966	0.5066	0.20683	-0.75
Mof_O 	O 	0.9236	0.5468	0.1811	-0.468
Mof_O 	O 	0.8078	0.1896	0.20441	-0.576
Mof_O 	O 	0.8229	0.3255	0.16613	-0.759
Mof_O 	O 	0.1227	0.351	0.3362	-0.788
Mof_O 	O 	0.1128	0.5038	0.31299	-0.717
Mof_O 	O 	0.3639	0.6794	0.9325	-0.75
Mof_O 	O 	0.3144	0.5476	0.965	-0.332
Mof_O 	O 	0.6737	0.7638	0.07941	-0.773
Mof_O 	O 	0.6229	0.637	0.11744	-0.741
Mof_O 	O 	0.8122	0.6726	0.1313	-1.052
Mof_O 	O 	0.7497	0.4689	0.11353	-0.969
Mof_O 	O 	0.7034	0.4934	0.70683	-0.75
Mof_O 	O 	0.5764	0.4532	0.6811	-0.468
Mof_O 	O 	0.6922	0.8104	0.70441	-0.576
Mof_O 	O 	0.6771	0.6745	0.66613	-0.759
Mof_O 	O 	0.3773	0.649	0.8362	-0.788
Mof_O 	O 	0.3872	0.4962	0.81299	-0.717
Mof_O 	O 	0.1361	0.3206	0.4325	-0.75
Mof_O 	O 	0.1856	0.4524	0.465	-0.332
Mof_O 	O 	0.8263	0.2362	0.57941	-0.773
Mof_O 	O 	0.8771	0.363	0.61744	-0.741
Mof_O 	O 	0.6878	0.3274	0.6313	-1.052
Mof_O 	O 	0.7503	0.5311	0.61353	-0.969
_end
