data_functionalizedCrystal
_audit_creation_method	'EQeq! by Chris Wilmer'
_symmetry_space_group_name_H-M	'P1'
_symmetry_Int_Tables_number	1
_symmetry_cell_setting	triclinic
loop_
_symmetry_equiv_pos_as_xyz
  x,y,z
_cell_length_a	9.915
_cell_length_b	18.65
_cell_length_c	20.341
_cell_angle_alpha	88.702
_cell_angle_beta	84.514
_cell_angle_gamma	85.703
loop_
_atom_site_label
_atom_site_type_symbol
_atom_site_fract_x
_atom_site_fract_y
_atom_site_fract_z
_atom_site_charge
Mof_Cd	Cd	0.09998	0.54052	0.04446	0.522
Mof_Cd	Cd	0.38519	0.048	0.46244	0.516
Mof_Cd	Cd	0.61481	0.952	0.53756	0.515
Mof_Cd	Cd	0.90002	0.45948	0.95554	0.521
Mof_H 	H 	0.1978	0.8025	0.8111	0.08
Mof_H 	H 	0.0657	0.3869	0.215	0.043
Mof_H 	H 	0.6002	0.1871	0.7839	0.084
Mof_H 	H 	0.0376	0.3026	0.2973	0.082
Mof_H 	H 	0.8944	0.8188	0.6752	0.062
Mof_H 	H 	0.9343	0.6131	0.785	0.043
Mof_H 	H 	0.7059	0.1717	0.3063	0.062
Mof_H 	H 	0.8022	0.1975	0.1889	0.08
Mof_H 	H 	0.7154	0.7051	0.2903	0.086
Mof_H 	H 	0.4426	0.4453	0.9332	0.069
Mof_H 	H 	0.1213	0.9443	0.5526	0.076
Mof_H 	H 	0.2372	0.3221	0.8239	0.06
Mof_H 	H 	0.9624	0.6974	0.7027	0.082
Mof_H 	H 	0.837	0.28	0.1056	0.042
Mof_H 	H 	0.3533	0.6904	0.1971	0.058
Mof_H 	H 	0.5574	0.5547	0.0668	0.069
Mof_H 	H 	0.2952	0.2118	0.6267	0.039
Mof_H 	H 	0.8787	0.0557	0.4474	0.076
Mof_H 	H 	0.1056	0.1812	0.3248	0.062
Mof_H 	H 	0.7628	0.6779	0.1761	0.06
Mof_H 	H 	0.6467	0.3096	0.8029	0.058
Mof_H 	H 	0.3921	0.8961	0.2985	0.039
Mof_H 	H 	0.2941	0.8283	0.6937	0.062
Mof_H 	H 	0.2846	0.2949	0.7097	0.086
Mof_H 	H 	0.6079	0.1039	0.7015	0.039
Mof_H 	H 	0.7048	0.7882	0.3733	0.039
Mof_H 	H 	0.163	0.72	0.8944	0.042
Mof_H 	H 	0.3998	0.8129	0.2161	0.084
Mof_C 	C 	0.0038	0.7023	0.7419	-0.112
Mof_C 	C 	0.9786	0.3953	0.0953	0.309
Mof_C 	C 	0.4381	0.6191	0.1294	-0.063
Mof_C 	C 	0.142	0.7648	0.8059	-0.113
Mof_C 	C 	0.2277	0.8875	0.6175	-0.049
Mof_C 	C 	0.0214	0.6047	0.9047	0.309
Mof_C 	C 	0.4362	0.6706	0.1767	-0.018
Mof_C 	C 	0.3071	0.5939	0.1116	0.319
Mof_C 	C 	0.6814	0.6119	0.1143	-0.067
Mof_C 	C 	0.8107	0.5809	0.0799	0.331
Mof_C 	C 	0.08	0.7599	0.7476	0.071
Mof_C 	C 	0.9786	0.8368	0.6613	-0.029
Mof_C 	C 	0.1367	0.0879	0.4224	0.307
Mof_C 	C 	0.4636	0.0968	0.6005	0.332
Mof_C 	C 	0.5638	0.3294	0.8233	-0.018
Mof_C 	C 	0.6474	0.7431	0.2922	-0.125
Mof_C 	C 	0.3199	0.3365	0.8363	-0.016
Mof_C 	C 	0.3526	0.2569	0.7078	-0.125
Mof_C 	C 	0.5428	0.1432	0.7027	0.052
Mof_C 	C 	0.4524	0.1507	0.6553	-0.102
Mof_C 	C 	0.858	0.2352	0.1941	-0.113
Mof_C 	C 	0.4414	0.4099	0.9011	0.014
Mof_C 	C 	0.1127	0.9115	0.5873	-0.005
Mof_C 	C 	0.9962	0.2977	0.2581	-0.112
Mof_C 	C 	0.1219	0.7152	0.8551	0.043
Mof_C 	C 	0.9072	0.1861	0.3069	-0.005
Mof_C 	C 	0.5596	0.6932	0.194	-0.015
Mof_C 	C 	0.3635	0.9116	0.5892	0.306
Mof_C 	C 	0.012	0.1133	0.3914	-0.05
Mof_C 	C 	0.9862	0.6522	0.791	0.04
Mof_C 	C 	0.8633	0.9121	0.5776	0.307
Mof_C 	C 	0.5586	0.5901	0.0989	0.014
Mof_C 	C 	0.7723	0.1125	0.3825	-0.049
Mof_C 	C 	0.4404	0.3068	0.806	-0.015
Mof_C 	C 	0.783	0.1585	0.3287	-0.028
Mof_C 	C 	0.0138	0.3478	0.209	0.04
Mof_C 	C 	0.4614	0.807	0.2484	-0.123
Mof_C 	C 	0.5386	0.193	0.7516	-0.123
Mof_C 	C 	0.5476	0.8493	0.3447	-0.102
Mof_C 	C 	0.6929	0.4061	0.8884	0.319
Mof_C 	C 	0.6418	0.7933	0.3415	0.055
Mof_C 	C 	0.0928	0.8139	0.6931	-0.005
Mof_C 	C 	0.8873	0.0885	0.4127	-0.005
Mof_C 	C 	0.6365	0.0884	0.4108	0.306
Mof_C 	C 	0.1893	0.4191	0.9201	0.331
Mof_C 	C 	0.4572	0.8568	0.2973	0.052
Mof_C 	C 	0.8781	0.2848	0.1449	0.043
Mof_C 	C 	0.4446	0.2518	0.7538	0.083
Mof_C 	C 	0.5364	0.9032	0.3995	0.332
Mof_C 	C 	0.988	0.8867	0.6086	-0.05
Mof_C 	C 	0.0441	0.6584	0.8496	-0.088
Mof_C 	C 	0.5619	0.3809	0.8706	-0.063
Mof_C 	C 	0.217	0.8415	0.6713	-0.028
Mof_C 	C 	0.9559	0.3416	0.1504	-0.088
Mof_C 	C 	0.0214	0.1632	0.3387	-0.029
Mof_C 	C 	0.92	0.2401	0.2524	0.071
Mof_C 	C 	0.3582	0.2067	0.6585	0.055
Mof_C 	C 	0.6801	0.6635	0.1637	-0.016
Mof_C 	C 	0.5554	0.7482	0.2462	0.083
Mof_C 	C 	0.3186	0.3881	0.8857	-0.067
Mof_O 	O 	0.7976	0.4002	0.8459	-0.09
Mof_O 	O 	0.0665	0.4407	0.1021	-0.266
Mof_O 	O 	0.1975	0.4619	0.9648	-0.276
Mof_O 	O 	0.9067	0.3903	0.047	-0.264
Mof_O 	O 	0.3692	0.9497	0.5378	-0.278
Mof_O 	O 	0.4678	0.8895	0.6154	-0.252
Mof_O 	O 	0.7703	0.8675	0.577	-0.245
Mof_O 	O 	0.3131	0.5529	0.063	-0.257
Mof_O 	O 	0.0933	0.6097	0.953	-0.264
Mof_O 	O 	0.8025	0.5381	0.0352	-0.276
Mof_O 	O 	0.1973	0.6251	0.1267	-0.171
Mof_O 	O 	0.8027	0.3749	0.8733	-0.171
Mof_O 	O 	0.5322	0.1105	0.3846	-0.252
Mof_O 	O 	0.2297	0.1325	0.423	-0.245
Mof_O 	O 	0.2024	0.5998	0.1541	-0.09
Mof_O 	O 	0.0802	0.403	0.9015	-0.273
Mof_O 	O 	0.6869	0.4471	0.937	-0.257
Mof_O 	O 	0.6212	0.8918	0.442	-0.269
Mof_O 	O 	0.1491	0.0297	0.4472	-0.258
Mof_O 	O 	0.9335	0.5593	0.8979	-0.266
Mof_O 	O 	0.557	0.0485	0.6008	-0.274
Mof_O 	O 	0.6308	0.0503	0.4622	-0.278
Mof_O 	O 	0.9198	0.597	0.0985	-0.273
Mof_O 	O 	0.3788	0.1082	0.558	-0.269
Mof_O 	O 	0.8509	0.9703	0.5528	-0.258
Mof_O 	O 	0.443	0.9515	0.3992	-0.274
_end
