# CIF file generated by openbabel 3.1.0, see https://openbabel.org
data_I
_chemical_name_common 'image0'
_cell_length_a 12.5078
_cell_length_b 9.4304
_cell_length_c 7.0637
_cell_angle_alpha 90
_cell_angle_beta 106.724
_cell_angle_gamma 90
_space_group_name_H-M_alt 'P 1'
_space_group_name_Hall 'P 1'
loop_
    _symmetry_equiv_pos_as_xyz
    x,y,z
loop_
    _atom_site_label
    _atom_site_type_symbol
    _atom_site_fract_x
    _atom_site_fract_y
    _atom_site_fract_z
    _atom_site_occupancy
    Cd1      Cd       0.78617    0.16221    0.62113    1.000
    O1       O        0.61240    0.24160    0.69580    1.000
    C1       C        0.57890    0.11850    0.66210    1.000
    N1       N        0.21710    0.23760    0.77440    1.000
    H1       H        0.23510    0.32580    0.78720    1.000
    H2       H        0.15400    0.21010    0.78730    1.000
    O2       O        0.63550    0.02350    0.60420    1.000
    C2       C        0.46780    0.07830    0.68470    1.000
    C3       C        0.43780    0.93550    0.67960    1.000
    H3       H        0.48760    0.86730    0.66130    1.000
    C4       C        0.39430    0.17900    0.71050    1.000
    H4       H        0.41290    0.27460    0.71360    1.000
    C5       C        0.26780    0.99220    0.72740    1.000
    H5       H        0.20000    0.96280    0.74380    1.000
    C6       C        0.29150    0.13740    0.73210    1.000
    N2       N        0.33990    0.89380    0.70010    1.000
    Cd2      Cd       0.28617    0.66221    0.62113    1.000
    O3       O        0.11240    0.74160    0.69580    1.000
    C7       C        0.07890    0.61850    0.66210    1.000
    N3       N        0.71710    0.73760    0.77440    1.000
    H6       H        0.73510    0.82580    0.78720    1.000
    H7       H        0.65400    0.71010    0.78730    1.000
    O4       O        0.13550    0.52350    0.60420    1.000
    C8       C        0.96780    0.57830    0.68470    1.000
    C9       C        0.93780    0.43550    0.67960    1.000
    H8       H        0.98760    0.36730    0.66130    1.000
    C10      C        0.89430    0.67900    0.71050    1.000
    H9       H        0.91290    0.77460    0.71360    1.000
    C11      C        0.76780    0.49220    0.72740    1.000
    H10      H        0.70000    0.46280    0.74380    1.000
    C12      C        0.79150    0.63740    0.73210    1.000
    N4       N        0.83990    0.39380    0.70010    1.000
    Cd3      Cd       0.78617    0.83779    0.12113    1.000
    O5       O        0.61240    0.75840    0.19580    1.000
    C13      C        0.57890    0.88150    0.16210    1.000
    N5       N        0.21710    0.76240    0.27440    1.000
    H11      H        0.23510    0.67420    0.28720    1.000
    H12      H        0.15400    0.78990    0.28730    1.000
    O6       O        0.63550    0.97650    0.10420    1.000
    C14      C        0.46780    0.92170    0.18470    1.000
    C15      C        0.43780    0.06450    0.17960    1.000
    H13      H        0.48760    0.13270    0.16130    1.000
    C16      C        0.39430    0.82100    0.21050    1.000
    H14      H        0.41290    0.72540    0.21360    1.000
    C17      C        0.26780    0.00780    0.22740    1.000
    H15      H        0.20000    0.03720    0.24380    1.000
    C18      C        0.29150    0.86260    0.23210    1.000
    N6       N        0.33990    0.10620    0.20010    1.000
    Cd4      Cd       0.28617    0.33779    0.12113    1.000
    O7       O        0.11240    0.25840    0.19580    1.000
    C19      C        0.07890    0.38150    0.16210    1.000
    N7       N        0.71710    0.26240    0.27440    1.000
    H16      H        0.73510    0.17420    0.28720    1.000
    H17      H        0.65400    0.28990    0.28730    1.000
    O8       O        0.13550    0.47650    0.10420    1.000
    C20      C        0.96780    0.42170    0.18470    1.000
    C21      C        0.93780    0.56450    0.17960    1.000
    H18      H        0.98760    0.63270    0.16130    1.000
    C22      C        0.89430    0.32100    0.21050    1.000
    H19      H        0.91290    0.22540    0.21360    1.000
    C23      C        0.76780    0.50780    0.22740    1.000
    H20      H        0.70000    0.53720    0.24380    1.000
    C24      C        0.79150    0.36260    0.23210    1.000
    N8       N        0.83990    0.60620    0.20010    1.000
