data_functionalizedCrystal
_audit_creation_method	'EQeq! by Chris Wilmer'
_symmetry_space_group_name_H-M	'P1'
_symmetry_Int_Tables_number	1
_symmetry_cell_setting	triclinic
loop_
_symmetry_equiv_pos_as_xyz
  x,y,z
_cell_length_a	11.4029
_cell_length_b	12.9964
_cell_length_c	23.057
_cell_angle_alpha	90
_cell_angle_beta	90
_cell_angle_gamma	111.636
loop_
_atom_site_label
_atom_site_type_symbol
_atom_site_fract_x
_atom_site_fract_y
_atom_site_fract_z
_atom_site_charge
Mof_Cu	Cu	0.0309	0.4095	0.44309	0.879
Mof_Cu	Cu	0.779	0.0599	0.93868	0.885
Mof_Cu	Cu	0.7181	0.5412	0.97288	0.846
Mof_Cu	Cu	0.1076	0.9342	0.48365	0.864
Mof_Cu	Cu	0.4155	0.3995	0.31891	0.859
Mof_Cu	Cu	0.5132	0.1685	0.7525	0.796
Mof_Cu	Cu	0.5309	0.9095	0.55691	0.881
Mof_Cu	Cu	0.279	0.5599	0.06132	0.878
Mof_Cu	Cu	0.2181	0.0412	0.02712	0.849
Mof_Cu	Cu	0.6076	0.4342	0.51635	0.874
Mof_Cu	Cu	0.9155	0.8995	0.68109	0.863
Mof_Cu	Cu	0.0132	0.6685	0.2475	0.785
Mof_H 	H 	0.5954	0.6604	0.9002	0.009
Mof_H 	H 	0.9278	0.0339	0.5283	0.01
Mof_H 	H 	0.1981	0.647	0.3809	0.006
Mof_H 	H 	0.8982	0.1965	0.5195	0.028
Mof_H 	H 	0.1958	0.1262	0.4073	0.014
Mof_H 	H 	0.2186	0.8193	0.4039	-0.002
Mof_H 	H 	0.0706	0.9757	0.8004	-0.01
Mof_H 	H 	0.8959	0.2647	0.0182	0.022
Mof_H 	H 	0.8924	0.7661	0.998	-0.017
Mof_H 	H 	0.6529	0.3658	0.9009	-0.056
Mof_H 	H 	0.3519	0.0575	0.6498	-0.019
Mof_H 	H 	0.2904	0.0655	0.8171	-0.011
Mof_H 	H 	0.6074	0.8455	0.8927	-0.008
Mof_H 	H 	0.9378	0.7125	0.5151	-0.007
Mof_H 	H 	0.8891	0.4416	0.0204	-0.009
Mof_H 	H 	0.0954	0.1604	0.0998	0.008
Mof_H 	H 	0.4278	0.5339	0.4717	0.007
Mof_H 	H 	0.6981	0.147	0.6191	0.01
Mof_H 	H 	0.3982	0.6965	0.4805	0.028
Mof_H 	H 	0.6958	0.6262	0.5927	0.014
Mof_H 	H 	0.7186	0.3193	0.5961	0.004
Mof_H 	H 	0.5706	0.4757	0.1996	-0.009
Mof_H 	H 	0.3959	0.7647	0.9818	0.011
Mof_H 	H 	0.3924	0.2661	0.002	-0.021
Mof_H 	H 	0.1529	0.8658	0.0991	-0.061
Mof_H 	H 	0.8519	0.5575	0.3502	-0.008
Mof_H 	H 	0.7904	0.5655	0.1829	0.001
Mof_H 	H 	0.1074	0.3455	0.1073	-0.007
Mof_H 	H 	0.4378	0.2125	0.4849	0.001
Mof_H 	H 	0.3891	0.9416	0.9796	-0.025
Mof_C 	C 	0.109	0.241	0.4256	-0.077
Mof_C 	C 	0.631	0.138	0.8814	0.361
Mof_C 	C 	0.703	0.241	0.9197	-0.14
Mof_C 	C 	0.975	0.588	0.4778	-0.08
Mof_C 	C 	0.657	0.716	0.9204	-0.02
Mof_C 	C 	0.188	0.321	0.3846	0.312
Mof_C 	C 	0.975	0.085	0.501	0.029
Mof_C 	C 	0.147	0.659	0.4092	-0.047
Mof_C 	C 	0.958	0.183	0.4965	-0.001
Mof_C 	C 	0.133	0.138	0.4292	0.011
Mof_C 	C 	0.156	0.76	0.4223	0.001
Mof_C 	C 	0.128	0.993	0.7698	-0.053
Mof_C 	C 	0.843	0.282	0.9922	0.001
Mof_C 	C 	0.829	0.777	0.9767	0.054
Mof_C 	C 	0.7	0.344	0.9276	0.121
Mof_C 	C 	0.835	0.88	0.9686	-0.101
Mof_C 	C 	0.936	0.981	0.9968	0.35
Mof_C 	C 	0.889	0.492	0.5081	0.326
Mof_C 	C 	0.125	0.964	0.6109	0.268
Mof_C 	C 	0.297	0.042	0.6812	0.064
Mof_C 	C 	0.261	0.047	0.7794	0.008
Mof_C 	C 	0.668	0.829	0.9136	0.04
Mof_C 	C 	0.991	0.698	0.4885	0.076
Mof_C 	C 	0.177	0.994	0.6713	-0.11
Mof_C 	C 	0.835	0.388	0.9959	0.005
Mof_C 	C 	0.609	0.741	0.5744	-0.076
Mof_C 	C 	0.131	0.638	0.1186	0.361
Mof_C 	C 	0.203	0.741	0.0803	-0.147
Mof_C 	C 	0.475	0.088	0.5222	-0.07
Mof_C 	C 	0.157	0.216	0.0796	-0.022
Mof_C 	C 	0.688	0.821	0.6154	0.313
Mof_C 	C 	0.475	0.585	0.499	0.005
Mof_C 	C 	0.647	0.159	0.5908	-0.038
Mof_C 	C 	0.458	0.683	0.5035	-0.022
Mof_C 	C 	0.633	0.638	0.5708	0.013
Mof_C 	C 	0.656	0.26	0.5777	0.003
Mof_C 	C 	0.628	0.493	0.2302	-0.022
Mof_C 	C 	0.343	0.782	0.0078	-0.001
Mof_C 	C 	0.329	0.277	0.0233	0.053
Mof_C 	C 	0.2	0.844	0.0724	0.121
Mof_C 	C 	0.335	0.38	0.0314	-0.102
Mof_C 	C 	0.436	0.481	0.0032	0.349
Mof_C 	C 	0.389	0.992	0.4919	0.29
Mof_C 	C 	0.625	0.464	0.3891	0.287
Mof_C 	C 	0.797	0.542	0.3188	0.037
Mof_C 	C 	0.761	0.547	0.2206	-0.014
Mof_C 	C 	0.168	0.329	0.0864	0.037
Mof_C 	C 	0.491	0.198	0.5115	0.044
Mof_C 	C 	0.677	0.494	0.3287	-0.082
Mof_C 	C 	0.335	0.888	0.0041	0.009
Mof_N 	N 	0.752	0.411	0.9659	-0.274
Mof_N 	N 	0.03	0.262	0.4579	-0.208
Mof_N 	N 	0.054	0.564	0.4387	-0.21
Mof_N 	N 	0.079	0.783	0.4618	-0.251
Mof_N 	N 	0.088	0.967	0.7132	-0.215
Mof_N 	N 	0.753	0.901	0.9343	-0.215
Mof_N 	N 	0.784	0.212	0.9553	-0.193
Mof_N 	N 	0.736	0.69	0.9558	-0.245
Mof_N 	N 	0.348	0.073	0.7348	-0.263
Mof_N 	N 	0.057	0.059	0.4676	-0.235
Mof_N 	N 	0.252	0.911	0.0341	-0.281
Mof_N 	N 	0.53	0.762	0.5421	-0.195
Mof_N 	N 	0.554	0.064	0.5613	-0.195
Mof_N 	N 	0.579	0.283	0.5382	-0.233
Mof_N 	N 	0.588	0.467	0.2868	-0.214
Mof_N 	N 	0.253	0.401	0.0657	-0.211
Mof_N 	N 	0.284	0.712	0.0447	-0.196
Mof_N 	N 	0.236	0.19	0.0442	-0.246
Mof_N 	N 	0.848	0.573	0.2652	-0.25
Mof_N 	N 	0.557	0.559	0.5324	-0.225
Mof_O 	O 	0.189	0.9782	0.5688	-0.383
Mof_O 	O 	0.6515	0.0565	0.8814	-0.461
Mof_O 	O 	0.555	0.155	0.8435	-0.416
Mof_O 	O 	0.2631	0.3049	0.3525	-0.451
Mof_O 	O 	0.174	0.42	0.3911	-0.421
Mof_O 	O 	0.9004	0.3993	0.4981	-0.405
Mof_O 	O 	0.921	0.07	0.9891	-0.422
Mof_O 	O 	0.023	0.964	0.0214	-0.442
Mof_O 	O 	0.8102	0.5066	0.5411	-0.365
Mof_O 	O 	0.9976	0.9147	0.6059	-0.39
Mof_O 	O 	0.689	0.4782	0.4312	-0.375
Mof_O 	O 	0.1515	0.5565	0.1186	-0.473
Mof_O 	O 	0.055	0.655	0.1565	-0.427
Mof_O 	O 	0.7631	0.8049	0.6475	-0.45
Mof_O 	O 	0.674	0.92	0.6089	-0.424
Mof_O 	O 	0.4004	0.8993	0.5019	-0.412
Mof_O 	O 	0.421	0.57	0.0109	-0.442
Mof_O 	O 	0.523	0.464	0.9786	-0.423
Mof_O 	O 	0.3102	0.0066	0.4589	-0.344
Mof_O 	O 	0.4976	0.4147	0.3941	-0.405
_end
