data_functionalizedCrystal
_audit_creation_method	'EQeq! by Chris Wilmer'
_symmetry_space_group_name_H-M	'P1'
_symmetry_Int_Tables_number	1
_symmetry_cell_setting	triclinic
loop_
_symmetry_equiv_pos_as_xyz
  x,y,z
_cell_length_a	10.3197
_cell_length_b	10.3197
_cell_length_c	14.0444
_cell_angle_alpha	90
_cell_angle_beta	90
_cell_angle_gamma	90
loop_
_atom_site_label
_atom_site_type_symbol
_atom_site_fract_x
_atom_site_fract_y
_atom_site_fract_z
_atom_site_charge
Mof_Gd	Gd	0.13679	0.87104	0.91626	1.807
Mof_Gd	Gd	0.86321	0.12896	0.41626	1.816
Mof_Gd	Gd	0.12896	0.13679	0.66626	1.815
Mof_Gd	Gd	0.87104	0.86321	0.16626	1.821
Mof_H 	H 	0.994	0.4544	0.1999	0.011
Mof_H 	H 	0.0084	0.1162	0.0494	-0.031
Mof_H 	H 	0.0952	0.4524	0.9217	-0.002
Mof_H 	H 	0.006	0.5456	0.6999	0.011
Mof_H 	H 	0.9916	0.8838	0.5494	-0.029
Mof_H 	H 	0.9048	0.5476	0.4217	-0.004
Mof_H 	H 	0.5456	0.994	0.9499	0.009
Mof_H 	H 	0.8838	0.0084	0.7994	-0.028
Mof_H 	H 	0.5476	0.0952	0.6717	-0.004
Mof_H 	H 	0.4544	0.006	0.4499	0.012
Mof_H 	H 	0.1162	0.9916	0.2994	-0.029
Mof_H 	H 	0.4524	0.9048	0.1717	-0.002
Mof_C 	C 	0.0448	0.6226	0.0585	0.523
Mof_C 	C 	0.9583	0.2002	0.2277	0.365
Mof_C 	C 	0.0772	0.2013	0.8833	0.486
Mof_C 	C 	0.044	0.475	0.0591	-0.209
Mof_C 	C 	0.0089	0.4081	0.1425	0.121
Mof_C 	C 	0.9958	0.2723	0.1406	-0.19
Mof_C 	C 	0.0184	0.2076	0.0527	0.174
Mof_C 	C 	0.0537	0.2734	0.9741	-0.252
Mof_C 	C 	0.0682	0.4073	0.9772	0.146
Mof_C 	C 	0.9552	0.3774	0.5585	0.511
Mof_C 	C 	0.0417	0.7998	0.7277	0.363
Mof_C 	C 	0.9228	0.7987	0.3833	0.484
Mof_C 	C 	0.956	0.525	0.5591	-0.217
Mof_C 	C 	0.9911	0.5919	0.6425	0.12
Mof_C 	C 	0.0042	0.7277	0.6406	-0.186
Mof_C 	C 	0.9816	0.7924	0.5527	0.157
Mof_C 	C 	0.9463	0.7266	0.4741	-0.24
Mof_C 	C 	0.9318	0.5927	0.4772	0.155
Mof_C 	C 	0.3774	0.0448	0.8085	0.51
Mof_C 	C 	0.7998	0.9583	0.9777	0.352
Mof_C 	C 	0.7987	0.0772	0.6333	0.484
Mof_C 	C 	0.525	0.044	0.8091	-0.217
Mof_C 	C 	0.5919	0.0089	0.8925	0.117
Mof_C 	C 	0.7277	0.9958	0.8906	-0.183
Mof_C 	C 	0.7924	0.0184	0.8027	0.155
Mof_C 	C 	0.7266	0.0537	0.7241	-0.239
Mof_C 	C 	0.5927	0.0682	0.7272	0.154
Mof_C 	C 	0.6226	0.9552	0.3085	0.51
Mof_C 	C 	0.2002	0.0417	0.4777	0.363
Mof_C 	C 	0.2013	0.9228	0.1333	0.483
Mof_C 	C 	0.475	0.956	0.3091	-0.216
Mof_C 	C 	0.4081	0.9911	0.3925	0.118
Mof_C 	C 	0.2723	0.0042	0.3906	-0.185
Mof_C 	C 	0.2076	0.9816	0.3027	0.156
Mof_C 	C 	0.2734	0.9463	0.2241	-0.238
Mof_C 	C 	0.4073	0.9318	0.2272	0.154
Mof_O 	O 	0.1071	0.675	0.9941	-0.533
Mof_O 	O 	0.9791	0.674	0.1238	-0.512
Mof_O 	O 	0.9918	0.252	0.309	-0.426
Mof_O 	O 	0.8952	0.0943	0.2245	-0.482
Mof_O 	O 	0.072	0.0789	0.8851	-0.534
Mof_O 	O 	0.0929	0.2618	0.8076	-0.469
Mof_O 	O 	0.8929	0.325	0.4941	-0.523
Mof_O 	O 	0.0209	0.326	0.6238	-0.51
Mof_O 	O 	0.0082	0.748	0.809	-0.426
Mof_O 	O 	0.1048	0.9057	0.7245	-0.481
Mof_O 	O 	0.928	0.9211	0.3851	-0.533
Mof_O 	O 	0.9071	0.7382	0.3076	-0.469
Mof_O 	O 	0.325	0.1071	0.7441	-0.523
Mof_O 	O 	0.326	0.9791	0.8738	-0.511
Mof_O 	O 	0.748	0.9918	0.059	-0.417
Mof_O 	O 	0.9057	0.8952	0.9745	-0.481
Mof_O 	O 	0.9211	0.072	0.6351	-0.532
Mof_O 	O 	0.7382	0.0929	0.5576	-0.468
Mof_O 	O 	0.675	0.8929	0.2441	-0.523
Mof_O 	O 	0.674	0.0209	0.3738	-0.51
Mof_O 	O 	0.252	0.0082	0.559	-0.426
Mof_O 	O 	0.0943	0.1048	0.4745	-0.481
Mof_O 	O 	0.0789	0.928	0.1351	-0.53
Mof_O 	O 	0.2618	0.9071	0.0576	-0.462
_end
