data_functionalizedCrystal
_audit_creation_method	'EQeq! by Chris Wilmer'
_symmetry_space_group_name_H-M	'P1'
_symmetry_Int_Tables_number	1
_symmetry_cell_setting	triclinic
loop_
_symmetry_equiv_pos_as_xyz
  x,y,z
_cell_length_a	6.8483
_cell_length_b	21.0561
_cell_length_c	21.0561
_cell_angle_alpha	61.1597
_cell_angle_beta	83.7762
_cell_angle_gamma	96.2238
loop_
_atom_site_label
_atom_site_type_symbol
_atom_site_fract_x
_atom_site_fract_y
_atom_site_fract_z
_atom_site_charge
Mof_Mg	Mg	0.17828	0.69636	0.61869	1.51
Mof_Mg	Mg	0.79697	0.61869	0.68495	1.51
Mof_Mg	Mg	0.48192	0.68495	0.69636	1.509
Mof_Mg	Mg	0.82172	0.30364	0.38131	1.509
Mof_Mg	Mg	0.20303	0.38131	0.31505	1.509
Mof_Mg	Mg	0.51808	0.31505	0.30364	1.509
Mof_H 	H 	0.26748	0.88574	0.57638	0.076
Mof_H 	H 	0.98857	0.9078	0.49824	0.02
Mof_H 	H 	0.84701	0.01672	0.44717	0.052
Mof_H 	H 	0.84386	0.57638	0.53788	0.076
Mof_H 	H 	0.48681	0.49824	0.59396	0.02
Mof_H 	H 	0.29418	0.44717	0.53611	0.051
Mof_H 	H 	0.38174	0.53788	0.88574	0.075
Mof_H 	H 	0.08077	0.59396	0.9078	0.022
Mof_H 	H 	0.83029	0.53611	0.01672	0.051
Mof_H 	H 	0.73252	0.11426	0.42362	0.076
Mof_H 	H 	0.01143	0.0922	0.50176	0.02
Mof_H 	H 	0.15299	0.98328	0.55283	0.052
Mof_H 	H 	0.15614	0.42362	0.46212	0.076
Mof_H 	H 	0.51319	0.50176	0.40604	0.02
Mof_H 	H 	0.70582	0.55283	0.46389	0.051
Mof_H 	H 	0.61826	0.46212	0.11426	0.075
Mof_H 	H 	0.91923	0.40604	0.0922	0.022
Mof_H 	H 	0.16971	0.46389	0.98328	0.051
Mof_C 	C 	0.81412	0.75851	0.60929	0.525
Mof_C 	C 	0.71237	0.8236	0.57898	-0.268
Mof_C 	C 	0.50196	0.81878	0.59693	0.208
Mof_C 	C 	0.42582	0.89309	0.55853	-0.128
Mof_C 	C 	0.54282	0.96441	0.50976	0.043
Mof_C 	C 	0.74653	0.96622	0.48778	-0.095
Mof_C 	C 	0.83005	0.90236	0.51734	0.063
Mof_C 	C 	0.42341	0.60929	0.6322	0.529
Mof_C 	C 	0.29135	0.57898	0.59742	-0.269
Mof_C 	C 	0.09889	0.59693	0.58429	0.21
Mof_C 	C 	0.98435	0.55853	0.54838	-0.132
Mof_C 	C 	0.05258	0.50976	0.52583	0.044
Mof_C 	C 	0.23431	0.48778	0.546	-0.095
Mof_C 	C 	0.34739	0.51734	0.5803	0.063
Mof_C 	C 	0.05561	0.6322	0.75851	0.531
Mof_C 	C 	0.88877	0.59742	0.8236	-0.271
Mof_C 	C 	0.68318	0.58429	0.81878	0.209
Mof_C 	C 	0.53273	0.54838	0.89309	-0.129
Mof_C 	C 	0.57841	0.52583	0.96441	0.042
Mof_C 	C 	0.78031	0.546	0.96622	-0.094
Mof_C 	C 	0.92769	0.5803	0.90236	0.061
Mof_C 	C 	0.18588	0.24149	0.39071	0.525
Mof_C 	C 	0.28763	0.1764	0.42102	-0.268
Mof_C 	C 	0.49804	0.18122	0.40307	0.208
Mof_C 	C 	0.57418	0.10691	0.44147	-0.128
Mof_C 	C 	0.45718	0.03559	0.49024	0.043
Mof_C 	C 	0.25347	0.03378	0.51222	-0.095
Mof_C 	C 	0.16995	0.09764	0.48266	0.063
Mof_C 	C 	0.57659	0.39071	0.3678	0.529
Mof_C 	C 	0.70865	0.42102	0.40258	-0.269
Mof_C 	C 	0.90111	0.40307	0.41571	0.21
Mof_C 	C 	0.01565	0.44147	0.45162	-0.132
Mof_C 	C 	0.94742	0.49024	0.47417	0.044
Mof_C 	C 	0.76569	0.51222	0.454	-0.095
Mof_C 	C 	0.65261	0.48266	0.4197	0.063
Mof_C 	C 	0.94439	0.3678	0.24149	0.531
Mof_C 	C 	0.11123	0.40258	0.1764	-0.271
Mof_C 	C 	0.31682	0.41571	0.18122	0.209
Mof_C 	C 	0.46727	0.45162	0.10691	-0.129
Mof_C 	C 	0.42159	0.47417	0.03559	0.042
Mof_C 	C 	0.21969	0.454	0.03378	-0.094
Mof_C 	C 	0.07231	0.4197	0.09764	0.061
Mof_O 	O 	0.00576	0.76905	0.58929	-0.486
Mof_O 	O 	0.71634	0.69405	0.65283	-0.88
Mof_O 	O 	0.36743	0.75296	0.64787	-0.638
Mof_O 	O 	0.59505	0.58929	0.64166	-0.49
Mof_O 	O 	0.36917	0.65283	0.65312	-0.88
Mof_O 	O 	0.0153	0.64787	0.59917	-0.637
Mof_O 	O 	0.23671	0.64166	0.76905	-0.49
Mof_O 	O 	0.02229	0.65312	0.69405	-0.879
Mof_O 	O 	0.61447	0.59917	0.75296	-0.638
Mof_O 	O 	0.99424	0.23095	0.41071	-0.486
Mof_O 	O 	0.28366	0.30595	0.34717	-0.88
Mof_O 	O 	0.63257	0.24704	0.35213	-0.638
Mof_O 	O 	0.40495	0.41071	0.35834	-0.49
Mof_O 	O 	0.63083	0.34717	0.34688	-0.88
Mof_O 	O 	0.9847	0.35213	0.40083	-0.637
Mof_O 	O 	0.76329	0.35834	0.23095	-0.49
Mof_O 	O 	0.97771	0.34688	0.30595	-0.879
Mof_O 	O 	0.38553	0.40083	0.24704	-0.638
_end
