data_functionalizedCrystal
_audit_creation_method	'EQeq! by Chris Wilmer'
_symmetry_space_group_name_H-M	'P1'
_symmetry_Int_Tables_number	1
_symmetry_cell_setting	triclinic
loop_
_symmetry_equiv_pos_as_xyz
  x,y,z
_cell_length_a	16.2752
_cell_length_b	16.2752
_cell_length_c	17.4231
_cell_angle_alpha	90
_cell_angle_beta	90
_cell_angle_gamma	90
loop_
_atom_site_label
_atom_site_type_symbol
_atom_site_fract_x
_atom_site_fract_y
_atom_site_fract_z
_atom_site_charge
Mof_C 	C 	0.7906	0.214	0.9092	0.075
Mof_N 	N 	0.87908	0.9709	0.7344	-0.183
Mof_Mn	Mn	0.76086	0.2266	0.71896	0.785
Mof_N 	N 	0.77446	0.2193	0.8452	-0.215
Mof_N 	N 	0.87976	0.29493	0.71222	-0.21
Mof_N 	N 	0.82526	0.10668	0.70949	-0.218
Mof_N 	N 	0.80559	0.84539	0.76649	-0.216
Mof_C 	C 	0.84639	0.0416	0.72282	0.186
Mof_C 	C 	0.83618	0.9065	0.75153	0.181
Mof_C 	C 	0.94023	0.32866	0.7194	0.154
Mof_N 	N 	0.13945	0.33669	0.7706	-0.215
Mof_C 	C 	0.0749	0.35042	0.7492	0.163
Mof_C 	C 	0.7737	0.227	0.0369	0.095
Mof_N 	N 	0.7381	0.2454	0.09379	-0.225
Mof_N 	N 	0.0051	0.3778	0.7218	-0.51
Mof_N 	N 	0.824	0.2269	0.9784	-0.049
Mof_N 	N 	0.0117	0.3598	0.6943	0.224
Mof_N 	N 	0.8121	0.2748	0.9771	-0.08
Mof_N 	N 	0.7587	0.1648	0.9786	-0.121
Mof_C 	C 	0.7928	0.246	0.9064	0.029
Mof_C 	C 	0.7688	0.2582	0.0366	-0.027
Mof_C 	C 	0.7634	0.1983	0.9058	0.087
Mof_C 	C 	0.742	0.2175	0.0409	0.142
Mof_N 	N 	0.9975	0.3824	0.7571	0.18
Mof_N 	N 	0.8014	0.1879	0.9796	-0.036
Mof_C 	C 	0.2094	0.786	0.9092	0.076
Mof_N 	N 	0.12092	0.0291	0.7344	-0.182
Mof_Mn	Mn	0.23914	0.7734	0.71896	0.786
Mof_N 	N 	0.22554	0.7807	0.8452	-0.214
Mof_N 	N 	0.12024	0.70507	0.71222	-0.21
Mof_N 	N 	0.17474	0.89332	0.70949	-0.218
Mof_N 	N 	0.19441	0.15461	0.76649	-0.216
Mof_C 	C 	0.15361	0.9584	0.72282	0.186
Mof_C 	C 	0.16382	0.0935	0.75153	0.181
Mof_C 	C 	0.05977	0.67134	0.7194	0.154
Mof_N 	N 	0.86055	0.66331	0.7706	-0.215
Mof_C 	C 	0.9251	0.64958	0.7492	0.163
Mof_C 	C 	0.2263	0.773	0.0369	0.095
Mof_N 	N 	0.2619	0.7546	0.09379	-0.225
Mof_N 	N 	0.9949	0.6222	0.7218	-0.51
Mof_N 	N 	0.176	0.7731	0.9784	-0.049
Mof_N 	N 	0.9883	0.6402	0.6943	0.224
Mof_N 	N 	0.1879	0.7252	0.9771	-0.08
Mof_N 	N 	0.2413	0.8352	0.9786	-0.121
Mof_C 	C 	0.2072	0.754	0.9064	0.029
Mof_C 	C 	0.2312	0.7418	0.0366	-0.027
Mof_C 	C 	0.2366	0.8017	0.9058	0.087
Mof_C 	C 	0.258	0.7825	0.0409	0.142
Mof_N 	N 	0.0025	0.6176	0.7571	0.18
Mof_N 	N 	0.1986	0.8121	0.9796	-0.036
Mof_C 	C 	0.214	0.2094	0.0908	0.076
Mof_N 	N 	0.9709	0.12092	0.2656	-0.182
Mof_Mn	Mn	0.2266	0.23914	0.28104	0.786
Mof_N 	N 	0.2193	0.22554	0.1548	-0.214
Mof_N 	N 	0.29493	0.12024	0.28778	-0.21
Mof_N 	N 	0.10668	0.17474	0.29051	-0.218
Mof_N 	N 	0.84539	0.19441	0.23351	-0.216
Mof_C 	C 	0.0416	0.15361	0.27718	0.186
Mof_C 	C 	0.9065	0.16382	0.24847	0.181
Mof_C 	C 	0.32866	0.05977	0.2806	0.154
Mof_N 	N 	0.33669	0.86055	0.2294	-0.215
Mof_C 	C 	0.35042	0.9251	0.2508	0.163
Mof_C 	C 	0.227	0.2263	0.9631	0.095
Mof_N 	N 	0.2454	0.2619	0.90621	-0.225
Mof_N 	N 	0.3778	0.9949	0.2782	-0.51
Mof_N 	N 	0.2269	0.176	0.0216	-0.049
Mof_N 	N 	0.3598	0.9883	0.3057	0.224
Mof_N 	N 	0.2748	0.1879	0.0229	-0.08
Mof_N 	N 	0.1648	0.2413	0.0214	-0.121
Mof_C 	C 	0.246	0.2072	0.0936	0.029
Mof_C 	C 	0.2582	0.2312	0.9634	-0.027
Mof_C 	C 	0.1983	0.2366	0.0942	0.087
Mof_C 	C 	0.2175	0.258	0.9591	0.142
Mof_N 	N 	0.3824	0.0025	0.2429	0.18
Mof_N 	N 	0.1879	0.1986	0.0204	-0.036
Mof_C 	C 	0.786	0.7906	0.0908	0.076
Mof_N 	N 	0.0291	0.87908	0.2656	-0.182
Mof_Mn	Mn	0.7734	0.76086	0.28104	0.786
Mof_N 	N 	0.7807	0.77446	0.1548	-0.214
Mof_N 	N 	0.70507	0.87976	0.28778	-0.21
Mof_N 	N 	0.89332	0.82526	0.29051	-0.218
Mof_N 	N 	0.15461	0.80559	0.23351	-0.216
Mof_C 	C 	0.9584	0.84639	0.27718	0.186
Mof_C 	C 	0.0935	0.83618	0.24847	0.181
Mof_C 	C 	0.67134	0.94023	0.2806	0.154
Mof_N 	N 	0.66331	0.13945	0.2294	-0.215
Mof_C 	C 	0.64958	0.0749	0.2508	0.163
Mof_C 	C 	0.773	0.7737	0.9631	0.095
Mof_N 	N 	0.7546	0.7381	0.90621	-0.225
Mof_N 	N 	0.6222	0.0051	0.2782	-0.51
Mof_N 	N 	0.7731	0.824	0.0216	-0.049
Mof_N 	N 	0.6402	0.0117	0.3057	0.224
Mof_N 	N 	0.7252	0.8121	0.0229	-0.08
Mof_N 	N 	0.8352	0.7587	0.0214	-0.121
Mof_C 	C 	0.754	0.7928	0.0936	0.029
Mof_C 	C 	0.7418	0.7688	0.9634	-0.027
Mof_C 	C 	0.8017	0.7634	0.0942	0.087
Mof_C 	C 	0.7825	0.742	0.9591	0.142
Mof_N 	N 	0.6176	0.9975	0.2429	0.18
Mof_N 	N 	0.8121	0.8014	0.0204	-0.036
Mof_C 	C 	0.7094	0.714	0.5908	0.076
Mof_N 	N 	0.62092	0.4709	0.7656	-0.182
Mof_Mn	Mn	0.73914	0.7266	0.78104	0.786
Mof_N 	N 	0.72554	0.7193	0.6548	-0.214
Mof_N 	N 	0.62024	0.79493	0.78778	-0.21
Mof_N 	N 	0.67474	0.60668	0.79051	-0.218
Mof_N 	N 	0.69441	0.34539	0.73351	-0.216
Mof_C 	C 	0.65361	0.5416	0.77718	0.186
Mof_C 	C 	0.66382	0.4065	0.74847	0.181
Mof_C 	C 	0.55977	0.82866	0.7806	0.154
Mof_N 	N 	0.36055	0.83669	0.7294	-0.215
Mof_C 	C 	0.4251	0.85042	0.7508	0.163
Mof_C 	C 	0.7263	0.727	0.4631	0.095
Mof_N 	N 	0.7619	0.7454	0.40621	-0.225
Mof_N 	N 	0.4949	0.8778	0.7782	-0.51
Mof_N 	N 	0.676	0.7269	0.5216	-0.048
Mof_N 	N 	0.4883	0.8598	0.8057	0.224
Mof_N 	N 	0.6879	0.7748	0.5229	-0.08
Mof_N 	N 	0.7413	0.6648	0.5214	-0.121
Mof_C 	C 	0.7072	0.746	0.5936	0.029
Mof_C 	C 	0.7312	0.7582	0.4634	-0.027
Mof_C 	C 	0.7366	0.6983	0.5942	0.087
Mof_C 	C 	0.758	0.7175	0.4591	0.142
Mof_N 	N 	0.5025	0.8824	0.7429	0.18
Mof_N 	N 	0.6986	0.6879	0.5204	-0.036
Mof_C 	C 	0.2906	0.286	0.5908	0.076
Mof_N 	N 	0.37908	0.5291	0.7656	-0.182
Mof_Mn	Mn	0.26086	0.2734	0.78104	0.786
Mof_N 	N 	0.27446	0.2807	0.6548	-0.214
Mof_N 	N 	0.37976	0.20507	0.78778	-0.21
Mof_N 	N 	0.32526	0.39332	0.79051	-0.218
Mof_N 	N 	0.30559	0.65461	0.73351	-0.216
Mof_C 	C 	0.34639	0.4584	0.77718	0.186
Mof_C 	C 	0.33618	0.5935	0.74847	0.181
Mof_C 	C 	0.44023	0.17134	0.7806	0.154
Mof_N 	N 	0.63945	0.16331	0.7294	-0.215
Mof_C 	C 	0.5749	0.14958	0.7508	0.163
Mof_C 	C 	0.2737	0.273	0.4631	0.095
Mof_N 	N 	0.2381	0.2546	0.40621	-0.225
Mof_N 	N 	0.5051	0.1222	0.7782	-0.51
Mof_N 	N 	0.324	0.2731	0.5216	-0.048
Mof_N 	N 	0.5117	0.1402	0.8057	0.224
Mof_N 	N 	0.3121	0.2252	0.5229	-0.08
Mof_N 	N 	0.2587	0.3352	0.5214	-0.121
Mof_C 	C 	0.2928	0.254	0.5936	0.029
Mof_C 	C 	0.2688	0.2418	0.4634	-0.027
Mof_C 	C 	0.2634	0.3017	0.5942	0.087
Mof_C 	C 	0.242	0.2825	0.4591	0.142
Mof_N 	N 	0.4975	0.1176	0.7429	0.18
Mof_N 	N 	0.3014	0.3121	0.5204	-0.036
Mof_C 	C 	0.286	0.7094	0.4092	0.076
Mof_N 	N 	0.5291	0.62092	0.2344	-0.182
Mof_Mn	Mn	0.2734	0.73914	0.21896	0.786
Mof_N 	N 	0.2807	0.72554	0.3452	-0.214
Mof_N 	N 	0.20507	0.62024	0.21222	-0.21
Mof_N 	N 	0.39332	0.67474	0.20949	-0.218
Mof_N 	N 	0.65461	0.69441	0.26649	-0.216
Mof_C 	C 	0.4584	0.65361	0.22282	0.186
Mof_C 	C 	0.5935	0.66382	0.25153	0.181
Mof_C 	C 	0.17134	0.55977	0.2194	0.154
Mof_N 	N 	0.16331	0.36055	0.2706	-0.215
Mof_C 	C 	0.14958	0.4251	0.2492	0.163
Mof_C 	C 	0.273	0.7263	0.5369	0.095
Mof_N 	N 	0.2546	0.7619	0.59379	-0.225
Mof_N 	N 	0.1222	0.4949	0.2218	-0.51
Mof_N 	N 	0.2731	0.676	0.4784	-0.048
Mof_N 	N 	0.1402	0.4883	0.1943	0.224
Mof_N 	N 	0.2252	0.6879	0.4771	-0.08
Mof_N 	N 	0.3352	0.7413	0.4786	-0.121
Mof_C 	C 	0.254	0.7072	0.4064	0.029
Mof_C 	C 	0.2418	0.7312	0.5366	-0.027
Mof_C 	C 	0.3017	0.7366	0.4058	0.087
Mof_C 	C 	0.2825	0.758	0.5409	0.142
Mof_N 	N 	0.1176	0.5025	0.2571	0.18
Mof_N 	N 	0.3121	0.6986	0.4796	-0.036
Mof_C 	C 	0.714	0.2906	0.4092	0.076
Mof_N 	N 	0.4709	0.37908	0.2344	-0.182
Mof_Mn	Mn	0.7266	0.26086	0.21896	0.786
Mof_N 	N 	0.7193	0.27446	0.3452	-0.214
Mof_N 	N 	0.79493	0.37976	0.21222	-0.21
Mof_N 	N 	0.60668	0.32526	0.20949	-0.218
Mof_N 	N 	0.34539	0.30559	0.26649	-0.216
Mof_C 	C 	0.5416	0.34639	0.22282	0.186
Mof_C 	C 	0.4065	0.33618	0.25153	0.181
Mof_C 	C 	0.82866	0.44023	0.2194	0.154
Mof_N 	N 	0.83669	0.63945	0.2706	-0.215
Mof_C 	C 	0.85042	0.5749	0.2492	0.163
Mof_C 	C 	0.727	0.2737	0.5369	0.095
Mof_N 	N 	0.7454	0.2381	0.59379	-0.225
Mof_N 	N 	0.8778	0.5051	0.2218	-0.51
Mof_N 	N 	0.7269	0.324	0.4784	-0.048
Mof_N 	N 	0.8598	0.5117	0.1943	0.224
Mof_N 	N 	0.7748	0.3121	0.4771	-0.08
Mof_N 	N 	0.6648	0.2587	0.4786	-0.121
Mof_C 	C 	0.746	0.2928	0.4064	0.029
Mof_C 	C 	0.7582	0.2688	0.5366	-0.027
Mof_C 	C 	0.6983	0.2634	0.4058	0.087
Mof_C 	C 	0.7175	0.242	0.5409	0.142
Mof_N 	N 	0.8824	0.4975	0.2571	0.18
Mof_N 	N 	0.6879	0.3014	0.4796	-0.036
_end
