# CIF file generated by openbabel 3.1.0, see https://openbabel.org
data_I
_chemical_name_common 'image0'
_cell_length_a 26.982
_cell_length_b 8.033
_cell_length_c 23.293
_cell_angle_alpha 90
_cell_angle_beta 98.992
_cell_angle_gamma 90
_space_group_name_H-M_alt 'P 1'
_space_group_name_Hall 'P 1'
loop_
    _symmetry_equiv_pos_as_xyz
    x,y,z
loop_
    _atom_site_label
    _atom_site_type_symbol
    _atom_site_fract_x
    _atom_site_fract_y
    _atom_site_fract_z
    _atom_site_occupancy
    Zn1      Zn       0.03981    0.12477    0.00164    1.000
    O1       O        0.98605    0.23340    0.04153    1.000
    O2       O        0.92559    0.04690    0.04215    1.000
    O3       O        0.85255    0.60990    0.19660    1.000
    O4       O        0.93886    0.99500    0.42339    1.000
    O5       O        0.99864    0.80830    0.42418    1.000
    N1       N        0.09385    0.30190    0.01482    1.000
    N2       N        0.23422    0.67980    0.99910    1.000
    C1       C        0.94578    0.18410    0.05560    1.000
    C2       C        0.92008    0.29870    0.09120    1.000
    C3       C        0.87800    0.24910    0.11410    1.000
    H1       H        0.86460    0.14360    0.10590    1.000
    C4       C        0.85600    0.35680    0.14920    1.000
    H2       H        0.82720    0.32430    0.16370    1.000
    C5       C        0.87540    0.50420    0.16200    1.000
    C6       C        0.91610    0.56310    0.13740    1.000
    H3       H        0.92800    0.67110    0.14440    1.000
    C7       C        0.93798    0.45760    0.10290    1.000
    H4       H        0.96560    0.49380    0.08690    1.000
    C8       C        0.88090    0.67490    0.24580    1.000
    C9       C        0.86380    0.81460    0.26770    1.000
    H5       H        0.83510    0.86630    0.24850    1.000
    C10      C        0.88910    0.88110    0.31870    1.000
    H6       H        0.87680    0.97650    0.33420    1.000
    C11      C        0.93218    0.80860    0.34690    1.000
    C12      C        0.94860    0.66430    0.32290    1.000
    H7       H        0.97740    0.61180    0.34140    1.000
    C13      C        0.92340    0.59780    0.27310    1.000
    H8       H        0.93500    0.50100    0.25770    1.000
    C14      C        0.95858    0.87510    0.40200    1.000
    C15      C        0.13486    0.29210    0.99040    1.000
    H9       H        0.13990    0.19730    0.96920    1.000
    C16      C        0.17047    0.41660    0.99520    1.000
    H10      H        0.19910    0.40380    0.97790    1.000
    C17      C        0.16389    0.55700    0.02490    1.000
    C18      C        0.12180    0.56750    0.05100    1.000
    H11      H        0.11570    0.66170    0.07200    1.000
    C19      C        0.08820    0.43260    0.04540    1.000
    H12      H        0.06040    0.43790    0.06450    1.000
    C20      C        0.19881    0.69900    0.02800    1.000
    C21      C        0.18960    0.84780    0.06200    1.000
    H13      H        0.19920    0.82510    0.10270    1.000
    H14      H        0.15450    0.87550    0.05440    1.000
    H15      H        0.20890    0.93940    0.05100    1.000
    Zn2      Zn       0.53981    0.62477    0.00164    1.000
    O6       O        0.48605    0.73340    0.04153    1.000
    O7       O        0.42559    0.54690    0.04215    1.000
    O8       O        0.35255    0.10990    0.19660    1.000
    O9       O        0.43886    0.49500    0.42339    1.000
    O10      O        0.49864    0.30830    0.42418    1.000
    N3       N        0.59385    0.80190    0.01482    1.000
    N4       N        0.73422    0.17980    0.99910    1.000
    C22      C        0.44578    0.68410    0.05560    1.000
    C23      C        0.42008    0.79870    0.09120    1.000
    C24      C        0.37800    0.74910    0.11410    1.000
    H16      H        0.36460    0.64360    0.10590    1.000
    C25      C        0.35600    0.85680    0.14920    1.000
    H17      H        0.32720    0.82430    0.16370    1.000
    C26      C        0.37540    0.00420    0.16200    1.000
    C27      C        0.41610    0.06310    0.13740    1.000
    H18      H        0.42800    0.17110    0.14440    1.000
    C28      C        0.43798    0.95760    0.10290    1.000
    H19      H        0.46560    0.99380    0.08690    1.000
    C29      C        0.38090    0.17490    0.24580    1.000
    C30      C        0.36380    0.31460    0.26770    1.000
    H20      H        0.33510    0.36630    0.24850    1.000
    C31      C        0.38910    0.38110    0.31870    1.000
    H21      H        0.37680    0.47650    0.33420    1.000
    C32      C        0.43218    0.30860    0.34690    1.000
    C33      C        0.44860    0.16430    0.32290    1.000
    H22      H        0.47740    0.11180    0.34140    1.000
    C34      C        0.42340    0.09780    0.27310    1.000
    H23      H        0.43500    0.00100    0.25770    1.000
    C35      C        0.45858    0.37510    0.40200    1.000
    C36      C        0.63486    0.79210    0.99040    1.000
    H24      H        0.63990    0.69730    0.96920    1.000
    C37      C        0.67047    0.91660    0.99520    1.000
    H25      H        0.69910    0.90380    0.97790    1.000
    C38      C        0.66389    0.05700    0.02490    1.000
    C39      C        0.62180    0.06750    0.05100    1.000
    H26      H        0.61570    0.16170    0.07200    1.000
    C40      C        0.58820    0.93260    0.04540    1.000
    H27      H        0.56040    0.93790    0.06450    1.000
    C41      C        0.69881    0.19900    0.02800    1.000
    C42      C        0.68960    0.34780    0.06200    1.000
    H28      H        0.69920    0.32510    0.10270    1.000
    H29      H        0.65450    0.37550    0.05440    1.000
    H30      H        0.70890    0.43940    0.05100    1.000
    Zn3      Zn       0.96019    0.12477    0.49836    1.000
    O11      O        0.01395    0.23340    0.45847    1.000
    O12      O        0.07441    0.04690    0.45785    1.000
    O13      O        0.14745    0.60990    0.30340    1.000
    O14      O        0.06114    0.99500    0.07661    1.000
    O15      O        0.00136    0.80830    0.07582    1.000
    N5       N        0.90615    0.30190    0.48518    1.000
    N6       N        0.76578    0.67980    0.50090    1.000
    C43      C        0.05422    0.18410    0.44440    1.000
    C44      C        0.07992    0.29870    0.40880    1.000
    C45      C        0.12200    0.24910    0.38590    1.000
    H31      H        0.13540    0.14360    0.39410    1.000
    C46      C        0.14400    0.35680    0.35080    1.000
    H32      H        0.17280    0.32430    0.33630    1.000
    C47      C        0.12460    0.50420    0.33800    1.000
    C48      C        0.08390    0.56310    0.36260    1.000
    H33      H        0.07200    0.67110    0.35560    1.000
    C49      C        0.06202    0.45760    0.39710    1.000
    H34      H        0.03440    0.49380    0.41310    1.000
    C50      C        0.11910    0.67490    0.25420    1.000
    C51      C        0.13620    0.81460    0.23230    1.000
    H35      H        0.16490    0.86630    0.25150    1.000
    C52      C        0.11090    0.88110    0.18130    1.000
    H36      H        0.12320    0.97650    0.16580    1.000
    C53      C        0.06782    0.80860    0.15310    1.000
    C54      C        0.05140    0.66430    0.17710    1.000
    H37      H        0.02260    0.61180    0.15860    1.000
    C55      C        0.07660    0.59780    0.22690    1.000
    H38      H        0.06500    0.50100    0.24230    1.000
    C56      C        0.04142    0.87510    0.09800    1.000
    C57      C        0.86514    0.29210    0.50960    1.000
    H39      H        0.86010    0.19730    0.53080    1.000
    C58      C        0.82953    0.41660    0.50480    1.000
    H40      H        0.80090    0.40380    0.52210    1.000
    C59      C        0.83611    0.55700    0.47510    1.000
    C60      C        0.87820    0.56750    0.44900    1.000
    H41      H        0.88430    0.66170    0.42800    1.000
    C61      C        0.91180    0.43260    0.45460    1.000
    H42      H        0.93960    0.43790    0.43550    1.000
    C62      C        0.80119    0.69900    0.47200    1.000
    C63      C        0.81040    0.84780    0.43800    1.000
    H43      H        0.80080    0.82510    0.39730    1.000
    H44      H        0.84550    0.87550    0.44560    1.000
    H45      H        0.79110    0.93940    0.44900    1.000
    Zn4      Zn       0.46019    0.62477    0.49836    1.000
    O16      O        0.51395    0.73340    0.45847    1.000
    O17      O        0.57441    0.54690    0.45785    1.000
    O18      O        0.64745    0.10990    0.30340    1.000
    O19      O        0.56114    0.49500    0.07661    1.000
    O20      O        0.50136    0.30830    0.07582    1.000
    N7       N        0.40615    0.80190    0.48518    1.000
    N8       N        0.26578    0.17980    0.50090    1.000
    C64      C        0.55422    0.68410    0.44440    1.000
    C65      C        0.57992    0.79870    0.40880    1.000
    C66      C        0.62200    0.74910    0.38590    1.000
    H46      H        0.63540    0.64360    0.39410    1.000
    C67      C        0.64400    0.85680    0.35080    1.000
    H47      H        0.67280    0.82430    0.33630    1.000
    C68      C        0.62460    0.00420    0.33800    1.000
    C69      C        0.58390    0.06310    0.36260    1.000
    H48      H        0.57200    0.17110    0.35560    1.000
    C70      C        0.56202    0.95760    0.39710    1.000
    H49      H        0.53440    0.99380    0.41310    1.000
    C71      C        0.61910    0.17490    0.25420    1.000
    C72      C        0.63620    0.31460    0.23230    1.000
    H50      H        0.66490    0.36630    0.25150    1.000
    C73      C        0.61090    0.38110    0.18130    1.000
    H51      H        0.62320    0.47650    0.16580    1.000
    C74      C        0.56782    0.30860    0.15310    1.000
    C75      C        0.55140    0.16430    0.17710    1.000
    H52      H        0.52260    0.11180    0.15860    1.000
    C76      C        0.57660    0.09780    0.22690    1.000
    H53      H        0.56500    0.00100    0.24230    1.000
    C77      C        0.54142    0.37510    0.09800    1.000
    C78      C        0.36514    0.79210    0.50960    1.000
    H54      H        0.36010    0.69730    0.53080    1.000
    C79      C        0.32953    0.91660    0.50480    1.000
    H55      H        0.30090    0.90380    0.52210    1.000
    C80      C        0.33611    0.05700    0.47510    1.000
    C81      C        0.37820    0.06750    0.44900    1.000
    H56      H        0.38430    0.16170    0.42800    1.000
    C82      C        0.41180    0.93260    0.45460    1.000
    H57      H        0.43960    0.93790    0.43550    1.000
    C83      C        0.30119    0.19900    0.47200    1.000
    C84      C        0.31040    0.34780    0.43800    1.000
    H58      H        0.30080    0.32510    0.39730    1.000
    H59      H        0.34550    0.37550    0.44560    1.000
    H60      H        0.29110    0.43940    0.44900    1.000
    Zn5      Zn       0.96019    0.87523    0.99836    1.000
    O21      O        0.01395    0.76660    0.95847    1.000
    O22      O        0.07441    0.95310    0.95785    1.000
    O23      O        0.14745    0.39010    0.80340    1.000
    O24      O        0.06114    0.00500    0.57661    1.000
    O25      O        0.00136    0.19170    0.57582    1.000
    N9       N        0.90615    0.69810    0.98518    1.000
    N10      N        0.76578    0.32020    0.00090    1.000
    C85      C        0.05422    0.81590    0.94440    1.000
    C86      C        0.07992    0.70130    0.90880    1.000
    C87      C        0.12200    0.75090    0.88590    1.000
    H61      H        0.13540    0.85640    0.89410    1.000
    C88      C        0.14400    0.64320    0.85080    1.000
    H62      H        0.17280    0.67570    0.83630    1.000
    C89      C        0.12460    0.49580    0.83800    1.000
    C90      C        0.08390    0.43690    0.86260    1.000
    H63      H        0.07200    0.32890    0.85560    1.000
    C91      C        0.06202    0.54240    0.89710    1.000
    H64      H        0.03440    0.50620    0.91310    1.000
    C92      C        0.11910    0.32510    0.75420    1.000
    C93      C        0.13620    0.18540    0.73230    1.000
    H65      H        0.16490    0.13370    0.75150    1.000
    C94      C        0.11090    0.11890    0.68130    1.000
    H66      H        0.12320    0.02350    0.66580    1.000
    C95      C        0.06782    0.19140    0.65310    1.000
    C96      C        0.05140    0.33570    0.67710    1.000
    H67      H        0.02260    0.38820    0.65860    1.000
    C97      C        0.07660    0.40220    0.72690    1.000
    H68      H        0.06500    0.49900    0.74230    1.000
    C98      C        0.04142    0.12490    0.59800    1.000
    C99      C        0.86514    0.70790    0.00960    1.000
    H69      H        0.86010    0.80270    0.03080    1.000
    C100     C        0.82953    0.58340    0.00480    1.000
    H70      H        0.80090    0.59620    0.02210    1.000
    C101     C        0.83611    0.44300    0.97510    1.000
    C102     C        0.87820    0.43250    0.94900    1.000
    H71      H        0.88430    0.33830    0.92800    1.000
    C103     C        0.91180    0.56740    0.95460    1.000
    H72      H        0.93960    0.56210    0.93550    1.000
    C104     C        0.80119    0.30100    0.97200    1.000
    C105     C        0.81040    0.15220    0.93800    1.000
    H73      H        0.80080    0.17490    0.89730    1.000
    H74      H        0.84550    0.12450    0.94560    1.000
    H75      H        0.79110    0.06060    0.94900    1.000
    Zn6      Zn       0.46019    0.37523    0.99836    1.000
    O26      O        0.51395    0.26660    0.95847    1.000
    O27      O        0.57441    0.45310    0.95785    1.000
    O28      O        0.64745    0.89010    0.80340    1.000
    O29      O        0.56114    0.50500    0.57661    1.000
    O30      O        0.50136    0.69170    0.57582    1.000
    N11      N        0.40615    0.19810    0.98518    1.000
    N12      N        0.26578    0.82020    0.00090    1.000
    C106     C        0.55422    0.31590    0.94440    1.000
    C107     C        0.57992    0.20130    0.90880    1.000
    C108     C        0.62200    0.25090    0.88590    1.000
    H76      H        0.63540    0.35640    0.89410    1.000
    C109     C        0.64400    0.14320    0.85080    1.000
    H77      H        0.67280    0.17570    0.83630    1.000
    C110     C        0.62460    0.99580    0.83800    1.000
    C111     C        0.58390    0.93690    0.86260    1.000
    H78      H        0.57200    0.82890    0.85560    1.000
    C112     C        0.56202    0.04240    0.89710    1.000
    H79      H        0.53440    0.00620    0.91310    1.000
    C113     C        0.61910    0.82510    0.75420    1.000
    C114     C        0.63620    0.68540    0.73230    1.000
    H80      H        0.66490    0.63370    0.75150    1.000
    C115     C        0.61090    0.61890    0.68130    1.000
    H81      H        0.62320    0.52350    0.66580    1.000
    C116     C        0.56782    0.69140    0.65310    1.000
    C117     C        0.55140    0.83570    0.67710    1.000
    H82      H        0.52260    0.88820    0.65860    1.000
    C118     C        0.57660    0.90220    0.72690    1.000
    H83      H        0.56500    0.99900    0.74230    1.000
    C119     C        0.54142    0.62490    0.59800    1.000
    C120     C        0.36514    0.20790    0.00960    1.000
    H84      H        0.36010    0.30270    0.03080    1.000
    C121     C        0.32953    0.08340    0.00480    1.000
    H85      H        0.30090    0.09620    0.02210    1.000
    C122     C        0.33611    0.94300    0.97510    1.000
    C123     C        0.37820    0.93250    0.94900    1.000
    H86      H        0.38430    0.83830    0.92800    1.000
    C124     C        0.41180    0.06740    0.95460    1.000
    H87      H        0.43960    0.06210    0.93550    1.000
    C125     C        0.30119    0.80100    0.97200    1.000
    C126     C        0.31040    0.65220    0.93800    1.000
    H88      H        0.30080    0.67490    0.89730    1.000
    H89      H        0.34550    0.62450    0.94560    1.000
    H90      H        0.29110    0.56060    0.94900    1.000
    Zn7      Zn       0.03981    0.87523    0.50164    1.000
    O31      O        0.98605    0.76660    0.54153    1.000
    O32      O        0.92559    0.95310    0.54215    1.000
    O33      O        0.85255    0.39010    0.69660    1.000
    O34      O        0.93886    0.00500    0.92339    1.000
    O35      O        0.99864    0.19170    0.92418    1.000
    N13      N        0.09385    0.69810    0.51482    1.000
    N14      N        0.23422    0.32020    0.49910    1.000
    C127     C        0.94578    0.81590    0.55560    1.000
    C128     C        0.92008    0.70130    0.59120    1.000
    C129     C        0.87800    0.75090    0.61410    1.000
    H91      H        0.86460    0.85640    0.60590    1.000
    C130     C        0.85600    0.64320    0.64920    1.000
    H92      H        0.82720    0.67570    0.66370    1.000
    C131     C        0.87540    0.49580    0.66200    1.000
    C132     C        0.91610    0.43690    0.63740    1.000
    H93      H        0.92800    0.32890    0.64440    1.000
    C133     C        0.93798    0.54240    0.60290    1.000
    H94      H        0.96560    0.50620    0.58690    1.000
    C134     C        0.88090    0.32510    0.74580    1.000
    C135     C        0.86380    0.18540    0.76770    1.000
    H95      H        0.83510    0.13370    0.74850    1.000
    C136     C        0.88910    0.11890    0.81870    1.000
    H96      H        0.87680    0.02350    0.83420    1.000
    C137     C        0.93218    0.19140    0.84690    1.000
    C138     C        0.94860    0.33570    0.82290    1.000
    H97      H        0.97740    0.38820    0.84140    1.000
    C139     C        0.92340    0.40220    0.77310    1.000
    H98      H        0.93500    0.49900    0.75770    1.000
    C140     C        0.95858    0.12490    0.90200    1.000
    C141     C        0.13486    0.70790    0.49040    1.000
    H99      H        0.13990    0.80270    0.46920    1.000
    C142     C        0.17047    0.58340    0.49520    1.000
    H100     H        0.19910    0.59620    0.47790    1.000
    C143     C        0.16389    0.44300    0.52490    1.000
    C144     C        0.12180    0.43250    0.55100    1.000
    H101     H        0.11570    0.33830    0.57200    1.000
    C145     C        0.08820    0.56740    0.54540    1.000
    H102     H        0.06040    0.56210    0.56450    1.000
    C146     C        0.19881    0.30100    0.52800    1.000
    C147     C        0.18960    0.15220    0.56200    1.000
    H103     H        0.19920    0.17490    0.60270    1.000
    H104     H        0.15450    0.12450    0.55440    1.000
    H105     H        0.20890    0.06060    0.55100    1.000
    Zn8      Zn       0.53981    0.37523    0.50164    1.000
    O36      O        0.48605    0.26660    0.54153    1.000
    O37      O        0.42559    0.45310    0.54215    1.000
    O38      O        0.35255    0.89010    0.69660    1.000
    O39      O        0.43886    0.50500    0.92339    1.000
    O40      O        0.49864    0.69170    0.92418    1.000
    N15      N        0.59385    0.19810    0.51482    1.000
    N16      N        0.73422    0.82020    0.49910    1.000
    C148     C        0.44578    0.31590    0.55560    1.000
    C149     C        0.42008    0.20130    0.59120    1.000
    C150     C        0.37800    0.25090    0.61410    1.000
    H106     H        0.36460    0.35640    0.60590    1.000
    C151     C        0.35600    0.14320    0.64920    1.000
    H107     H        0.32720    0.17570    0.66370    1.000
    C152     C        0.37540    0.99580    0.66200    1.000
    C153     C        0.41610    0.93690    0.63740    1.000
    H108     H        0.42800    0.82890    0.64440    1.000
    C154     C        0.43798    0.04240    0.60290    1.000
    H109     H        0.46560    0.00620    0.58690    1.000
    C155     C        0.38090    0.82510    0.74580    1.000
    C156     C        0.36380    0.68540    0.76770    1.000
    H110     H        0.33510    0.63370    0.74850    1.000
    C157     C        0.38910    0.61890    0.81870    1.000
    H111     H        0.37680    0.52350    0.83420    1.000
    C158     C        0.43218    0.69140    0.84690    1.000
    C159     C        0.44860    0.83570    0.82290    1.000
    H112     H        0.47740    0.88820    0.84140    1.000
    C160     C        0.42340    0.90220    0.77310    1.000
    H113     H        0.43500    0.99900    0.75770    1.000
    C161     C        0.45858    0.62490    0.90200    1.000
    C162     C        0.63486    0.20790    0.49040    1.000
    H114     H        0.63990    0.30270    0.46920    1.000
    C163     C        0.67047    0.08340    0.49520    1.000
    H115     H        0.69910    0.09620    0.47790    1.000
    C164     C        0.66389    0.94300    0.52490    1.000
    C165     C        0.62180    0.93250    0.55100    1.000
    H116     H        0.61570    0.83830    0.57200    1.000
    C166     C        0.58820    0.06740    0.54540    1.000
    H117     H        0.56040    0.06210    0.56450    1.000
    C167     C        0.69881    0.80100    0.52800    1.000
    C168     C        0.68960    0.65220    0.56200    1.000
    H118     H        0.69920    0.67490    0.60270    1.000
    H119     H        0.65450    0.62450    0.55440    1.000
    H120     H        0.70890    0.56060    0.55100    1.000
