data_functionalizedCrystal
_audit_creation_method	'EQeq! by Chris Wilmer'
_symmetry_space_group_name_H-M	'P1'
_symmetry_Int_Tables_number	1
_symmetry_cell_setting	triclinic
loop_
_symmetry_equiv_pos_as_xyz
  x,y,z
_cell_length_a	8.779
_cell_length_b	20.742
_cell_length_c	34.287
_cell_angle_alpha	90
_cell_angle_beta	90
_cell_angle_gamma	90
loop_
_atom_site_label
_atom_site_type_symbol
_atom_site_fract_x
_atom_site_fract_y
_atom_site_fract_z
_atom_site_charge
Mof_O 	O 	0.2459	0.3344	0.59262	-0.593
Mof_O 	O 	0.0091	0.3332	0.57028	-0.551
Mof_O 	O 	0.243	0.4582	0.63522	-0.583
Mof_C 	C 	0.1484	0.3203	0.5677	0.542
Mof_C 	C 	0.2021	0.2837	0.5324	-0.144
Mof_C 	C 	0.0963	0.2642	0.5045	-0.007
Mof_C 	C 	0.1478	0.2306	0.4722	0.017
Mof_C 	C 	0.2555	0.5895	0.6374	0.011
Mof_C 	C 	0.2514	0.6565	0.637	-0.013
Mof_H 	H 	0.991	0.2736	0.5077	0.046
Mof_H 	H 	0.077	0.2173	0.4529	0.027
Mof_H 	H 	0.3431	0.5665	0.6458	0.03
Mof_H 	H 	0.3393	0.6794	0.6454	0.031
Mof_O 	O 	0.2459	0.8344	0.09262	-0.593
Mof_O 	O 	0.0091	0.8332	0.07028	-0.549
Mof_O 	O 	0.243	0.9582	0.13522	-0.583
Mof_C 	C 	0.1484	0.8203	0.0677	0.543
Mof_C 	C 	0.2021	0.7837	0.0324	-0.149
Mof_C 	C 	0.0963	0.7642	0.0045	0.003
Mof_C 	C 	0.1478	0.7306	0.9722	0.01
Mof_C 	C 	0.2555	0.0895	0.1374	0.012
Mof_C 	C 	0.2514	0.1565	0.137	-0.013
Mof_H 	H 	0.991	0.7736	0.0077	0.041
Mof_H 	H 	0.077	0.7173	0.9529	0.029
Mof_H 	H 	0.3431	0.0665	0.1458	0.03
Mof_H 	H 	0.3393	0.1794	0.1454	0.031
Mof_O 	O 	0.7459	0.3344	0.09262	-0.593
Mof_O 	O 	0.5091	0.3332	0.07028	-0.551
Mof_O 	O 	0.743	0.4582	0.13522	-0.583
Mof_C 	C 	0.6484	0.3203	0.0677	0.542
Mof_C 	C 	0.7021	0.2837	0.0324	-0.143
Mof_C 	C 	0.5963	0.2642	0.0045	-0.007
Mof_C 	C 	0.6478	0.2306	0.9722	0.018
Mof_C 	C 	0.7555	0.5895	0.1374	0.011
Mof_C 	C 	0.7514	0.6565	0.137	-0.012
Mof_H 	H 	0.491	0.2736	0.0077	0.045
Mof_H 	H 	0.577	0.2173	0.9529	0.027
Mof_H 	H 	0.8431	0.5665	0.1458	0.03
Mof_H 	H 	0.8393	0.6794	0.1454	0.031
Mof_O 	O 	0.7459	0.8344	0.59262	-0.593
Mof_O 	O 	0.5091	0.8332	0.57028	-0.551
Mof_O 	O 	0.743	0.9582	0.63522	-0.583
Mof_C 	C 	0.6484	0.8203	0.5677	0.543
Mof_C 	C 	0.7021	0.7837	0.5324	-0.147
Mof_C 	C 	0.5963	0.7642	0.5045	-0.004
Mof_C 	C 	0.6478	0.7306	0.4722	0.014
Mof_C 	C 	0.7555	0.0895	0.6374	0.011
Mof_C 	C 	0.7514	0.1565	0.637	-0.012
Mof_H 	H 	0.491	0.7736	0.5077	0.044
Mof_H 	H 	0.577	0.7173	0.4529	0.028
Mof_H 	H 	0.8431	0.0665	0.6458	0.03
Mof_H 	H 	0.8393	0.1794	0.6454	0.031
Mof_O 	O 	0.5041	0.4156	0.59262	-0.593
Mof_O 	O 	0.7409	0.4168	0.57028	-0.551
Mof_O 	O 	0.507	0.2918	0.63522	-0.583
Mof_C 	C 	0.6016	0.4297	0.5677	0.543
Mof_C 	C 	0.5479	0.4663	0.5324	-0.146
Mof_C 	C 	0.6537	0.4858	0.5045	-0.004
Mof_C 	C 	0.6022	0.5194	0.4722	0.015
Mof_C 	C 	0.4945	0.1605	0.6374	0.011
Mof_C 	C 	0.4986	0.0935	0.637	-0.013
Mof_H 	H 	0.759	0.4764	0.5077	0.045
Mof_H 	H 	0.673	0.5327	0.4529	0.028
Mof_H 	H 	0.4069	0.1835	0.6458	0.03
Mof_H 	H 	0.4107	0.0706	0.6454	0.031
Mof_O 	O 	0.5041	0.9156	0.09262	-0.593
Mof_O 	O 	0.7409	0.9168	0.07028	-0.551
Mof_O 	O 	0.507	0.7918	0.13522	-0.583
Mof_C 	C 	0.6016	0.9297	0.0677	0.542
Mof_C 	C 	0.5479	0.9663	0.0324	-0.146
Mof_C 	C 	0.6537	0.9858	0.0045	-0.005
Mof_C 	C 	0.6022	0.0194	0.9722	0.016
Mof_C 	C 	0.4945	0.6605	0.1374	0.011
Mof_C 	C 	0.4986	0.5935	0.137	-0.012
Mof_H 	H 	0.759	0.9764	0.0077	0.044
Mof_H 	H 	0.673	0.0327	0.9529	0.028
Mof_H 	H 	0.4069	0.6835	0.1458	0.03
Mof_H 	H 	0.4107	0.5706	0.1454	0.031
Mof_O 	O 	0.0041	0.4156	0.09262	-0.593
Mof_O 	O 	0.2409	0.4168	0.07028	-0.551
Mof_O 	O 	0.007	0.2918	0.13522	-0.582
Mof_C 	C 	0.1016	0.4297	0.0677	0.542
Mof_C 	C 	0.0479	0.4663	0.0324	-0.145
Mof_C 	C 	0.1537	0.4858	0.0045	-0.004
Mof_C 	C 	0.1022	0.5194	0.9722	0.013
Mof_C 	C 	0.9945	0.1605	0.1374	0.011
Mof_C 	C 	0.9986	0.0935	0.137	-0.011
Mof_H 	H 	0.259	0.4764	0.0077	0.044
Mof_H 	H 	0.173	0.5327	0.9529	0.028
Mof_H 	H 	0.9069	0.1835	0.1458	0.03
Mof_H 	H 	0.9107	0.0706	0.1454	0.031
Mof_O 	O 	0.0041	0.9156	0.59262	-0.591
Mof_O 	O 	0.2409	0.9168	0.57028	-0.551
Mof_O 	O 	0.007	0.7918	0.63522	-0.581
Mof_C 	C 	0.1016	0.9297	0.5677	0.541
Mof_C 	C 	0.0479	0.9663	0.5324	-0.142
Mof_C 	C 	0.1537	0.9858	0.5045	-0.001
Mof_C 	C 	0.1022	0.0194	0.4722	0.009
Mof_C 	C 	0.9945	0.6605	0.6374	0.01
Mof_C 	C 	0.9986	0.5935	0.637	-0.013
Mof_H 	H 	0.259	0.9764	0.5077	0.044
Mof_H 	H 	0.173	0.0327	0.4529	0.029
Mof_H 	H 	0.9069	0.6835	0.6458	0.03
Mof_H 	H 	0.9107	0.5706	0.6454	0.031
Mof_O 	O 	0.5041	0.3344	0.15738	-0.593
Mof_O 	O 	0.7409	0.3332	0.17972	-0.551
Mof_O 	O 	0.507	0.4582	0.11478	-0.583
Mof_C 	C 	0.6016	0.3203	0.1823	0.542
Mof_C 	C 	0.5479	0.2837	0.2176	-0.146
Mof_C 	C 	0.6537	0.2642	0.2455	-0.004
Mof_C 	C 	0.6022	0.2306	0.2778	0.015
Mof_C 	C 	0.4945	0.5895	0.1126	0.011
Mof_C 	C 	0.4986	0.6565	0.113	-0.012
Mof_H 	H 	0.759	0.2736	0.2423	0.045
Mof_H 	H 	0.673	0.2173	0.2971	0.028
Mof_H 	H 	0.4069	0.5665	0.1042	0.03
Mof_H 	H 	0.4107	0.6794	0.1046	0.031
Mof_O 	O 	0.5041	0.8344	0.65738	-0.593
Mof_O 	O 	0.7409	0.8332	0.67972	-0.551
Mof_O 	O 	0.507	0.9582	0.61478	-0.582
Mof_C 	C 	0.6016	0.8203	0.6823	0.542
Mof_C 	C 	0.5479	0.7837	0.7176	-0.146
Mof_C 	C 	0.6537	0.7642	0.7455	-0.004
Mof_C 	C 	0.6022	0.7306	0.7778	0.015
Mof_C 	C 	0.4945	0.0895	0.6126	0.011
Mof_C 	C 	0.4986	0.1565	0.613	-0.012
Mof_H 	H 	0.759	0.7736	0.7423	0.044
Mof_H 	H 	0.673	0.7173	0.7971	0.028
Mof_H 	H 	0.4069	0.0665	0.6042	0.03
Mof_H 	H 	0.4107	0.1794	0.6046	0.031
Mof_O 	O 	0.0041	0.3344	0.65738	-0.594
Mof_O 	O 	0.2409	0.3332	0.67972	-0.552
Mof_O 	O 	0.007	0.4582	0.61478	-0.582
Mof_C 	C 	0.1016	0.3203	0.6823	0.544
Mof_C 	C 	0.0479	0.2837	0.7176	-0.15
Mof_C 	C 	0.1537	0.2642	0.7455	-0
Mof_C 	C 	0.1022	0.2306	0.7778	0.009
Mof_C 	C 	0.9945	0.5895	0.6126	0.011
Mof_C 	C 	0.9986	0.6565	0.613	-0.014
Mof_H 	H 	0.259	0.2736	0.7423	0.043
Mof_H 	H 	0.173	0.2173	0.7971	0.029
Mof_H 	H 	0.9069	0.5665	0.6042	0.03
Mof_H 	H 	0.9107	0.6794	0.6046	0.031
Mof_O 	O 	0.0041	0.8344	0.15738	-0.591
Mof_O 	O 	0.2409	0.8332	0.17972	-0.551
Mof_O 	O 	0.007	0.9582	0.11478	-0.581
Mof_C 	C 	0.1016	0.8203	0.1823	0.54
Mof_C 	C 	0.0479	0.7837	0.2176	-0.14
Mof_C 	C 	0.1537	0.7642	0.2455	-0.008
Mof_C 	C 	0.1022	0.7306	0.2778	0.02
Mof_C 	C 	0.9945	0.0895	0.1126	0.012
Mof_C 	C 	0.9986	0.1565	0.113	-0.013
Mof_H 	H 	0.259	0.7736	0.2423	0.046
Mof_H 	H 	0.173	0.7173	0.2971	0.026
Mof_H 	H 	0.9069	0.0665	0.1042	0.03
Mof_H 	H 	0.9107	0.1794	0.1046	0.031
Mof_O 	O 	0.2459	0.4156	0.15738	-0.593
Mof_O 	O 	0.0091	0.4168	0.17972	-0.551
Mof_O 	O 	0.243	0.2918	0.11478	-0.583
Mof_C 	C 	0.1484	0.4297	0.1823	0.543
Mof_C 	C 	0.2021	0.4663	0.2176	-0.146
Mof_C 	C 	0.0963	0.4858	0.2455	-0.003
Mof_C 	C 	0.1478	0.5194	0.2778	0.015
Mof_C 	C 	0.2555	0.1605	0.1126	0.011
Mof_C 	C 	0.2514	0.0935	0.113	-0.011
Mof_H 	H 	0.991	0.4764	0.2423	0.044
Mof_H 	H 	0.077	0.5327	0.2971	0.028
Mof_H 	H 	0.3431	0.1835	0.1042	0.03
Mof_H 	H 	0.3393	0.0706	0.1046	0.031
Mof_O 	O 	0.2459	0.9156	0.65738	-0.594
Mof_O 	O 	0.0091	0.9168	0.67972	-0.55
Mof_O 	O 	0.243	0.7918	0.61478	-0.582
Mof_C 	C 	0.1484	0.9297	0.6823	0.544
Mof_C 	C 	0.2021	0.9663	0.7176	-0.151
Mof_C 	C 	0.0963	0.9858	0.7455	0.007
Mof_C 	C 	0.1478	0.0194	0.7778	0.006
Mof_C 	C 	0.2555	0.6605	0.6126	0.011
Mof_C 	C 	0.2514	0.5935	0.613	-0.012
Mof_H 	H 	0.991	0.9764	0.7423	0.039
Mof_H 	H 	0.077	0.0327	0.7971	0.03
Mof_H 	H 	0.3431	0.6835	0.6042	0.03
Mof_H 	H 	0.3393	0.5706	0.6046	0.031
Mof_O 	O 	0.7459	0.4156	0.65738	-0.593
Mof_O 	O 	0.5091	0.4168	0.67972	-0.551
Mof_O 	O 	0.743	0.2918	0.61478	-0.583
Mof_C 	C 	0.6484	0.4297	0.6823	0.542
Mof_C 	C 	0.7021	0.4663	0.7176	-0.145
Mof_C 	C 	0.5963	0.4858	0.7455	-0.005
Mof_C 	C 	0.6478	0.5194	0.7778	0.015
Mof_C 	C 	0.7555	0.1605	0.6126	0.011
Mof_C 	C 	0.7514	0.0935	0.613	-0.013
Mof_H 	H 	0.491	0.4764	0.7423	0.045
Mof_H 	H 	0.577	0.5327	0.7971	0.028
Mof_H 	H 	0.8431	0.1835	0.6042	0.03
Mof_H 	H 	0.8393	0.0706	0.6046	0.031
Mof_O 	O 	0.7459	0.9156	0.15738	-0.593
Mof_O 	O 	0.5091	0.9168	0.17972	-0.551
Mof_O 	O 	0.743	0.7918	0.11478	-0.582
Mof_C 	C 	0.6484	0.9297	0.1823	0.54
Mof_C 	C 	0.7021	0.9663	0.2176	-0.141
Mof_C 	C 	0.5963	0.9858	0.2455	-0.01
Mof_C 	C 	0.6478	0.0194	0.2778	0.021
Mof_C 	C 	0.7555	0.6605	0.1126	0.011
Mof_C 	C 	0.7514	0.5935	0.113	-0.012
Mof_H 	H 	0.491	0.9764	0.2423	0.047
Mof_H 	H 	0.577	0.0327	0.2971	0.026
Mof_H 	H 	0.8431	0.6835	0.1042	0.03
Mof_H 	H 	0.8393	0.5706	0.1046	0.031
Mof_O 	O 	0.7541	0.6656	0.40738	-0.593
Mof_O 	O 	0.9909	0.6668	0.42972	-0.551
Mof_O 	O 	0.757	0.5418	0.36478	-0.583
Mof_C 	C 	0.8516	0.6797	0.4323	0.542
Mof_C 	C 	0.7979	0.7163	0.4676	-0.144
Mof_C 	C 	0.9037	0.7358	0.4955	-0.007
Mof_C 	C 	0.8522	0.7694	0.5278	0.017
Mof_C 	C 	0.7445	0.4105	0.3626	0.011
Mof_C 	C 	0.7486	0.3435	0.363	-0.013
Mof_H 	H 	0.009	0.7264	0.4923	0.046
Mof_H 	H 	0.923	0.7827	0.5471	0.027
Mof_H 	H 	0.6569	0.4335	0.3542	0.03
Mof_H 	H 	0.6607	0.3206	0.3546	0.031
Mof_O 	O 	0.7541	0.1656	0.90738	-0.593
Mof_O 	O 	0.9909	0.1668	0.92972	-0.549
Mof_O 	O 	0.757	0.0418	0.86478	-0.583
Mof_C 	C 	0.8516	0.1797	0.9323	0.543
Mof_C 	C 	0.7979	0.2163	0.9676	-0.149
Mof_C 	C 	0.9037	0.2358	0.9955	0.003
Mof_C 	C 	0.8522	0.2694	0.0278	0.01
Mof_C 	C 	0.7445	0.9105	0.8626	0.012
Mof_C 	C 	0.7486	0.8435	0.863	-0.013
Mof_H 	H 	0.009	0.2264	0.9923	0.041
Mof_H 	H 	0.923	0.2827	0.0471	0.029
Mof_H 	H 	0.6569	0.9335	0.8542	0.03
Mof_H 	H 	0.6607	0.8206	0.8546	0.031
Mof_O 	O 	0.2541	0.6656	0.90738	-0.593
Mof_O 	O 	0.4909	0.6668	0.92972	-0.551
Mof_O 	O 	0.257	0.5418	0.86478	-0.583
Mof_C 	C 	0.3516	0.6797	0.9323	0.542
Mof_C 	C 	0.2979	0.7163	0.9676	-0.143
Mof_C 	C 	0.4037	0.7358	0.9955	-0.007
Mof_C 	C 	0.3522	0.7694	0.0278	0.018
Mof_C 	C 	0.2445	0.4105	0.8626	0.011
Mof_C 	C 	0.2486	0.3435	0.863	-0.012
Mof_H 	H 	0.509	0.7264	0.9923	0.045
Mof_H 	H 	0.423	0.7827	0.0471	0.027
Mof_H 	H 	0.1569	0.4335	0.8542	0.03
Mof_H 	H 	0.1607	0.3206	0.8546	0.031
Mof_O 	O 	0.2541	0.1656	0.40738	-0.593
Mof_O 	O 	0.4909	0.1668	0.42972	-0.551
Mof_O 	O 	0.257	0.0418	0.36478	-0.583
Mof_C 	C 	0.3516	0.1797	0.4323	0.543
Mof_C 	C 	0.2979	0.2163	0.4676	-0.147
Mof_C 	C 	0.4037	0.2358	0.4955	-0.004
Mof_C 	C 	0.3522	0.2694	0.5278	0.014
Mof_C 	C 	0.2445	0.9105	0.3626	0.011
Mof_C 	C 	0.2486	0.8435	0.363	-0.012
Mof_H 	H 	0.509	0.2264	0.4923	0.044
Mof_H 	H 	0.423	0.2827	0.5471	0.028
Mof_H 	H 	0.1569	0.9335	0.3542	0.03
Mof_H 	H 	0.1607	0.8206	0.3546	0.031
Mof_O 	O 	0.4959	0.5844	0.40738	-0.593
Mof_O 	O 	0.2591	0.5832	0.42972	-0.551
Mof_O 	O 	0.493	0.7082	0.36478	-0.583
Mof_C 	C 	0.3984	0.5703	0.4323	0.543
Mof_C 	C 	0.4521	0.5337	0.4676	-0.146
Mof_C 	C 	0.3463	0.5142	0.4955	-0.004
Mof_C 	C 	0.3978	0.4806	0.5278	0.015
Mof_C 	C 	0.5055	0.8395	0.3626	0.011
Mof_C 	C 	0.5014	0.9065	0.363	-0.013
Mof_H 	H 	0.241	0.5236	0.4923	0.045
Mof_H 	H 	0.327	0.4673	0.5471	0.028
Mof_H 	H 	0.5931	0.8165	0.3542	0.03
Mof_H 	H 	0.5893	0.9294	0.3546	0.031
Mof_O 	O 	0.4959	0.0844	0.90738	-0.593
Mof_O 	O 	0.2591	0.0832	0.92972	-0.551
Mof_O 	O 	0.493	0.2082	0.86478	-0.583
Mof_C 	C 	0.3984	0.0703	0.9323	0.542
Mof_C 	C 	0.4521	0.0337	0.9676	-0.146
Mof_C 	C 	0.3463	0.0142	0.9955	-0.005
Mof_C 	C 	0.3978	0.9806	0.0278	0.016
Mof_C 	C 	0.5055	0.3395	0.8626	0.011
Mof_C 	C 	0.5014	0.4065	0.863	-0.012
Mof_H 	H 	0.241	0.0236	0.9923	0.044
Mof_H 	H 	0.327	0.9673	0.0471	0.028
Mof_H 	H 	0.5931	0.3165	0.8542	0.03
Mof_H 	H 	0.5893	0.4294	0.8546	0.031
Mof_O 	O 	0.9959	0.5844	0.90738	-0.593
Mof_O 	O 	0.7591	0.5832	0.92972	-0.551
Mof_O 	O 	0.993	0.7082	0.86478	-0.582
Mof_C 	C 	0.8984	0.5703	0.9323	0.542
Mof_C 	C 	0.9521	0.5337	0.9676	-0.145
Mof_C 	C 	0.8463	0.5142	0.9955	-0.004
Mof_C 	C 	0.8978	0.4806	0.0278	0.013
Mof_C 	C 	0.0055	0.8395	0.8626	0.011
Mof_C 	C 	0.0014	0.9065	0.863	-0.011
Mof_H 	H 	0.741	0.5236	0.9923	0.044
Mof_H 	H 	0.827	0.4673	0.0471	0.028
Mof_H 	H 	0.0931	0.8165	0.8542	0.03
Mof_H 	H 	0.0893	0.9294	0.8546	0.031
Mof_O 	O 	0.9959	0.0844	0.40738	-0.591
Mof_O 	O 	0.7591	0.0832	0.42972	-0.551
Mof_O 	O 	0.993	0.2082	0.36478	-0.581
Mof_C 	C 	0.8984	0.0703	0.4323	0.541
Mof_C 	C 	0.9521	0.0337	0.4676	-0.142
Mof_C 	C 	0.8463	0.0142	0.4955	-0.001
Mof_C 	C 	0.8978	0.9806	0.5278	0.009
Mof_C 	C 	0.0055	0.3395	0.3626	0.01
Mof_C 	C 	0.0014	0.4065	0.363	-0.013
Mof_H 	H 	0.741	0.0236	0.4923	0.044
Mof_H 	H 	0.827	0.9673	0.5471	0.029
Mof_H 	H 	0.0931	0.3165	0.3542	0.03
Mof_H 	H 	0.0893	0.4294	0.3546	0.031
Mof_O 	O 	0.4959	0.6656	0.84262	-0.593
Mof_O 	O 	0.2591	0.6668	0.82028	-0.551
Mof_O 	O 	0.493	0.5418	0.88522	-0.583
Mof_C 	C 	0.3984	0.6797	0.8177	0.542
Mof_C 	C 	0.4521	0.7163	0.7824	-0.146
Mof_C 	C 	0.3463	0.7358	0.7545	-0.004
Mof_C 	C 	0.3978	0.7694	0.7222	0.015
Mof_C 	C 	0.5055	0.4105	0.8874	0.011
Mof_C 	C 	0.5014	0.3435	0.887	-0.012
Mof_H 	H 	0.241	0.7264	0.7577	0.045
Mof_H 	H 	0.327	0.7827	0.7029	0.028
Mof_H 	H 	0.5931	0.4335	0.8958	0.03
Mof_H 	H 	0.5893	0.3206	0.8954	0.031
Mof_O 	O 	0.4959	0.1656	0.34262	-0.593
Mof_O 	O 	0.2591	0.1668	0.32028	-0.551
Mof_O 	O 	0.493	0.0418	0.38522	-0.582
Mof_C 	C 	0.3984	0.1797	0.3177	0.542
Mof_C 	C 	0.4521	0.2163	0.2824	-0.146
Mof_C 	C 	0.3463	0.2358	0.2545	-0.004
Mof_C 	C 	0.3978	0.2694	0.2222	0.015
Mof_C 	C 	0.5055	0.9105	0.3874	0.011
Mof_C 	C 	0.5014	0.8435	0.387	-0.012
Mof_H 	H 	0.241	0.2264	0.2577	0.044
Mof_H 	H 	0.327	0.2827	0.2029	0.028
Mof_H 	H 	0.5931	0.9335	0.3958	0.03
Mof_H 	H 	0.5893	0.8206	0.3954	0.031
Mof_O 	O 	0.9959	0.6656	0.34262	-0.594
Mof_O 	O 	0.7591	0.6668	0.32028	-0.552
Mof_O 	O 	0.993	0.5418	0.38522	-0.582
Mof_C 	C 	0.8984	0.6797	0.3177	0.544
Mof_C 	C 	0.9521	0.7163	0.2824	-0.15
Mof_C 	C 	0.8463	0.7358	0.2545	-0
Mof_C 	C 	0.8978	0.7694	0.2222	0.009
Mof_C 	C 	0.0055	0.4105	0.3874	0.011
Mof_C 	C 	0.0014	0.3435	0.387	-0.014
Mof_H 	H 	0.741	0.7264	0.2577	0.043
Mof_H 	H 	0.827	0.7827	0.2029	0.029
Mof_H 	H 	0.0931	0.4335	0.3958	0.03
Mof_H 	H 	0.0893	0.3206	0.3954	0.031
Mof_O 	O 	0.9959	0.1656	0.84262	-0.591
Mof_O 	O 	0.7591	0.1668	0.82028	-0.551
Mof_O 	O 	0.993	0.0418	0.88522	-0.581
Mof_C 	C 	0.8984	0.1797	0.8177	0.54
Mof_C 	C 	0.9521	0.2163	0.7824	-0.14
Mof_C 	C 	0.8463	0.2358	0.7545	-0.008
Mof_C 	C 	0.8978	0.2694	0.7222	0.02
Mof_C 	C 	0.0055	0.9105	0.8874	0.012
Mof_C 	C 	0.0014	0.8435	0.887	-0.013
Mof_H 	H 	0.741	0.2264	0.7577	0.046
Mof_H 	H 	0.827	0.2827	0.7029	0.026
Mof_H 	H 	0.0931	0.9335	0.8958	0.03
Mof_H 	H 	0.0893	0.8206	0.8954	0.031
Mof_O 	O 	0.7541	0.5844	0.84262	-0.593
Mof_O 	O 	0.9909	0.5832	0.82028	-0.551
Mof_O 	O 	0.757	0.7082	0.88522	-0.583
Mof_C 	C 	0.8516	0.5703	0.8177	0.543
Mof_C 	C 	0.7979	0.5337	0.7824	-0.146
Mof_C 	C 	0.9037	0.5142	0.7545	-0.003
Mof_C 	C 	0.8522	0.4806	0.7222	0.015
Mof_C 	C 	0.7445	0.8395	0.8874	0.011
Mof_C 	C 	0.7486	0.9065	0.887	-0.011
Mof_H 	H 	0.009	0.5236	0.7577	0.044
Mof_H 	H 	0.923	0.4673	0.7029	0.028
Mof_H 	H 	0.6569	0.8165	0.8958	0.03
Mof_H 	H 	0.6607	0.9294	0.8954	0.031
Mof_O 	O 	0.7541	0.0844	0.34262	-0.594
Mof_O 	O 	0.9909	0.0832	0.32028	-0.55
Mof_O 	O 	0.757	0.2082	0.38522	-0.582
Mof_C 	C 	0.8516	0.0703	0.3177	0.544
Mof_C 	C 	0.7979	0.0337	0.2824	-0.151
Mof_C 	C 	0.9037	0.0142	0.2545	0.007
Mof_C 	C 	0.8522	0.9806	0.2222	0.006
Mof_C 	C 	0.7445	0.3395	0.3874	0.011
Mof_C 	C 	0.7486	0.4065	0.387	-0.012
Mof_H 	H 	0.009	0.0236	0.2577	0.039
Mof_H 	H 	0.923	0.9673	0.2029	0.03
Mof_H 	H 	0.6569	0.3165	0.3958	0.03
Mof_H 	H 	0.6607	0.4294	0.3954	0.031
Mof_O 	O 	0.2541	0.5844	0.34262	-0.593
Mof_O 	O 	0.4909	0.5832	0.32028	-0.551
Mof_O 	O 	0.257	0.7082	0.38522	-0.583
Mof_C 	C 	0.3516	0.5703	0.3177	0.542
Mof_C 	C 	0.2979	0.5337	0.2824	-0.145
Mof_C 	C 	0.4037	0.5142	0.2545	-0.005
Mof_C 	C 	0.3522	0.4806	0.2222	0.015
Mof_C 	C 	0.2445	0.8395	0.3874	0.011
Mof_C 	C 	0.2486	0.9065	0.387	-0.013
Mof_H 	H 	0.509	0.5236	0.2577	0.045
Mof_H 	H 	0.423	0.4673	0.2029	0.028
Mof_H 	H 	0.1569	0.8165	0.3958	0.03
Mof_H 	H 	0.1607	0.9294	0.3954	0.031
Mof_O 	O 	0.2541	0.0844	0.84262	-0.593
Mof_O 	O 	0.4909	0.0832	0.82028	-0.551
Mof_O 	O 	0.257	0.2082	0.88522	-0.582
Mof_C 	C 	0.3516	0.0703	0.8177	0.54
Mof_C 	C 	0.2979	0.0337	0.7824	-0.141
Mof_C 	C 	0.4037	0.0142	0.7545	-0.01
Mof_C 	C 	0.3522	0.9806	0.7222	0.021
Mof_C 	C 	0.2445	0.3395	0.8874	0.011
Mof_C 	C 	0.2486	0.4065	0.887	-0.012
Mof_H 	H 	0.509	0.0236	0.7577	0.047
Mof_H 	H 	0.423	0.9673	0.7029	0.026
Mof_H 	H 	0.1569	0.3165	0.8958	0.03
Mof_H 	H 	0.1607	0.4294	0.8954	0.031
Mof_Sc	Sc	0.375	0.375	0.63577	1.966
Mof_Sc	Sc	0.375	0.875	0.13577	1.966
Mof_Sc	Sc	0.875	0.375	0.13577	1.964
Mof_Sc	Sc	0.875	0.875	0.63577	1.961
Mof_Sc	Sc	0.375	0.375	0.11423	1.966
Mof_Sc	Sc	0.375	0.875	0.61423	1.966
Mof_Sc	Sc	0.875	0.375	0.61423	1.966
Mof_Sc	Sc	0.875	0.875	0.11423	1.959
Mof_Sc	Sc	0.625	0.625	0.36423	1.966
Mof_Sc	Sc	0.625	0.125	0.86423	1.966
Mof_Sc	Sc	0.125	0.625	0.86423	1.964
Mof_Sc	Sc	0.125	0.125	0.36423	1.961
Mof_Sc	Sc	0.625	0.625	0.88577	1.966
Mof_Sc	Sc	0.625	0.125	0.38577	1.966
Mof_Sc	Sc	0.125	0.625	0.38577	1.966
Mof_Sc	Sc	0.125	0.125	0.88577	1.959
Mof_C 	C 	0.125	0.4862	0.625	0.568
Mof_C 	C 	0.125	0.5581	0.625	-0.158
Mof_C 	C 	0.125	0.9862	0.125	0.57
Mof_C 	C 	0.125	0.0581	0.125	-0.162
Mof_C 	C 	0.625	0.9862	0.625	0.568
Mof_C 	C 	0.625	0.0581	0.625	-0.158
Mof_C 	C 	0.625	0.2638	0.625	0.569
Mof_C 	C 	0.625	0.1919	0.625	-0.159
Mof_C 	C 	0.625	0.7638	0.125	0.568
Mof_C 	C 	0.625	0.6919	0.125	-0.159
Mof_C 	C 	0.625	0.4862	0.125	0.569
Mof_C 	C 	0.625	0.5581	0.125	-0.159
Mof_C 	C 	0.125	0.2638	0.125	0.568
Mof_C 	C 	0.125	0.1919	0.125	-0.159
Mof_C 	C 	0.125	0.7638	0.625	0.568
Mof_C 	C 	0.125	0.6919	0.625	-0.157
Mof_C 	C 	0.875	0.5138	0.375	0.568
Mof_C 	C 	0.875	0.4419	0.375	-0.158
Mof_C 	C 	0.875	0.0138	0.875	0.57
Mof_C 	C 	0.875	0.9419	0.875	-0.162
Mof_C 	C 	0.375	0.7362	0.375	0.569
Mof_C 	C 	0.375	0.8081	0.375	-0.159
Mof_C 	C 	0.375	0.2362	0.875	0.568
Mof_C 	C 	0.375	0.3081	0.875	-0.159
Mof_C 	C 	0.375	0.5138	0.875	0.569
Mof_C 	C 	0.375	0.4419	0.875	-0.159
Mof_C 	C 	0.375	0.0138	0.375	0.568
Mof_C 	C 	0.375	0.9419	0.375	-0.158
Mof_C 	C 	0.875	0.7362	0.875	0.568
Mof_C 	C 	0.875	0.8081	0.875	-0.159
Mof_C 	C 	0.875	0.2362	0.375	0.568
Mof_C 	C 	0.875	0.3081	0.375	-0.157
_end
