data_functionalizedCrystal
_audit_creation_method	'EQeq! by Chris Wilmer'
_symmetry_space_group_name_H-M	'P1'
_symmetry_Int_Tables_number	1
_symmetry_cell_setting	triclinic
loop_
_symmetry_equiv_pos_as_xyz
  x,y,z
_cell_length_a	27.3
_cell_length_b	27.3
_cell_length_c	15.123
_cell_angle_alpha	90
_cell_angle_beta	90
_cell_angle_gamma	120
loop_
_atom_site_label
_atom_site_type_symbol
_atom_site_fract_x
_atom_site_fract_y
_atom_site_fract_z
_atom_site_charge
Mof_S 	S 	0.2801	0.227	0.05	-0.242
Mof_O 	O 	0.3799	0.3193	0.1943	-0.419
Mof_O 	O 	0.336	0.2661	0.316	-0.355
Mof_C 	C 	0.3382	0.218	0.1929	-0.097
Mof_C 	C 	0.3151	0.196	0.1084	0.048
Mof_C 	C 	0.3543	0.1878	0.244	-0.027
Mof_C 	C 	0.348	0.2719	0.234	0.325
Mof_H 	H 	0.37284	0.2071	0.30699	0.047
Mof_S 	S 	0.94677	0.56033	0.38333	-0.226
Mof_O 	O 	0.04657	0.65263	0.52763	-0.433
Mof_O 	O 	0.00267	0.59943	0.64933	-0.365
Mof_C 	C 	0.00487	0.55133	0.52623	-0.154
Mof_C 	C 	0.98177	0.52933	0.44173	0.103
Mof_C 	C 	0.02097	0.52113	0.57733	0.006
Mof_C 	C 	0.01467	0.60523	0.56733	0.335
Mof_H 	H 	0.03951	0.54044	0.64032	0.036
Mof_S 	S 	0.61343	0.89367	0.71667	-0.223
Mof_O 	O 	0.71323	0.98597	0.86097	-0.393
Mof_O 	O 	0.66933	0.93277	0.98267	-0.35
Mof_C 	C 	0.67153	0.88467	0.85957	-0.091
Mof_C 	C 	0.64843	0.86267	0.77507	0.048
Mof_C 	C 	0.68763	0.85447	0.91067	-0.027
Mof_C 	C 	0.68133	0.93857	0.90067	0.326
Mof_H 	H 	0.70618	0.87377	0.97365	0.051
Mof_S 	S 	0.773	0.0531	0.05	-0.257
Mof_O 	O 	0.6807	0.0606	0.1943	-0.425
Mof_O 	O 	0.7339	0.0699	0.316	-0.354
Mof_C 	C 	0.782	0.1202	0.1929	-0.1
Mof_C 	C 	0.804	0.1191	0.1084	0.054
Mof_C 	C 	0.8122	0.1665	0.244	-0.024
Mof_C 	C 	0.7281	0.0761	0.234	0.322
Mof_H 	H 	0.7929	0.16574	0.30699	0.046
Mof_S 	S 	0.43967	0.38643	0.38333	-0.237
Mof_O 	O 	0.34737	0.39393	0.52763	-0.42
Mof_O 	O 	0.40057	0.40323	0.64933	-0.354
Mof_C 	C 	0.44867	0.45353	0.52623	-0.096
Mof_C 	C 	0.47067	0.45243	0.44173	0.049
Mof_C 	C 	0.47887	0.49983	0.57733	-0.027
Mof_C 	C 	0.39477	0.40943	0.56733	0.326
Mof_H 	H 	0.45956	0.49907	0.64032	0.047
Mof_S 	S 	0.10633	0.71977	0.71667	-0.235
Mof_O 	O 	0.01403	0.72727	0.86097	-0.435
Mof_O 	O 	0.06723	0.73657	0.98267	-0.356
Mof_C 	C 	0.11533	0.78687	0.85957	-0.099
Mof_C 	C 	0.13733	0.78577	0.77507	0.049
Mof_C 	C 	0.14553	0.83317	0.91067	-0.024
Mof_C 	C 	0.06143	0.74277	0.90067	0.325
Mof_H 	H 	0.12623	0.83241	0.97365	0.045
Mof_S 	S 	0.9469	0.7199	0.05	-0.208
Mof_O 	O 	0.9394	0.6201	0.1943	-0.399
Mof_O 	O 	0.9301	0.664	0.316	-0.35
Mof_C 	C 	0.8798	0.6618	0.1929	-0.09
Mof_C 	C 	0.8809	0.6849	0.1084	0.045
Mof_C 	C 	0.8335	0.6457	0.244	-0.028
Mof_C 	C 	0.9239	0.652	0.234	0.326
Mof_H 	H 	0.83426	0.62716	0.30699	0.048
Mof_S 	S 	0.61357	0.05323	0.38333	-0.228
Mof_O 	O 	0.60607	0.95343	0.52763	-0.406
Mof_O 	O 	0.59677	0.99733	0.64933	-0.328
Mof_C 	C 	0.54647	0.99513	0.52623	-0.036
Mof_C 	C 	0.54757	0.01823	0.44173	-0.007
Mof_C 	C 	0.50017	0.97903	0.57733	-0.058
Mof_C 	C 	0.59057	0.98533	0.56733	0.312
Mof_H 	H 	0.50093	0.96049	0.64032	0.06
Mof_S 	S 	0.28023	0.38657	0.71667	-0.237
Mof_O 	O 	0.27273	0.28677	0.86097	-0.422
Mof_O 	O 	0.26343	0.33067	0.98267	-0.355
Mof_C 	C 	0.21313	0.32847	0.85957	-0.096
Mof_C 	C 	0.21423	0.35157	0.77507	0.047
Mof_C 	C 	0.16683	0.31237	0.91067	-0.03
Mof_C 	C 	0.25723	0.31867	0.90067	0.325
Mof_H 	H 	0.16759	0.29382	0.97365	0.046
Mof_S 	S 	0.227	0.2801	0.45	-0.243
Mof_O 	O 	0.3193	0.3799	0.3057	-0.42
Mof_O 	O 	0.2661	0.336	0.184	-0.355
Mof_C 	C 	0.218	0.3382	0.3071	-0.097
Mof_C 	C 	0.196	0.3151	0.3916	0.048
Mof_C 	C 	0.1878	0.3543	0.256	-0.027
Mof_C 	C 	0.2719	0.348	0.266	0.325
Mof_H 	H 	0.2071	0.37284	0.19301	0.047
Mof_S 	S 	0.89367	0.61343	0.78333	-0.224
Mof_O 	O 	0.98597	0.71323	0.63903	-0.394
Mof_O 	O 	0.93277	0.66933	0.51733	-0.35
Mof_C 	C 	0.88467	0.67153	0.64043	-0.091
Mof_C 	C 	0.86267	0.64843	0.72493	0.048
Mof_C 	C 	0.85447	0.68763	0.58933	-0.027
Mof_C 	C 	0.93857	0.68133	0.59933	0.327
Mof_H 	H 	0.87377	0.70618	0.52635	0.051
Mof_S 	S 	0.56033	0.94677	0.11667	-0.227
Mof_O 	O 	0.65263	0.04657	0.97237	-0.433
Mof_O 	O 	0.59943	0.00267	0.85067	-0.365
Mof_C 	C 	0.55133	0.00487	0.97377	-0.154
Mof_C 	C 	0.52933	0.98177	0.05827	0.102
Mof_C 	C 	0.52113	0.02097	0.92267	0.005
Mof_C 	C 	0.60523	0.01467	0.93267	0.335
Mof_H 	H 	0.54044	0.03951	0.85968	0.036
Mof_S 	S 	0.0531	0.773	0.45	-0.26
Mof_O 	O 	0.0606	0.6807	0.3057	-0.426
Mof_O 	O 	0.0699	0.7339	0.184	-0.355
Mof_C 	C 	0.1202	0.782	0.3071	-0.1
Mof_C 	C 	0.1191	0.804	0.3916	0.054
Mof_C 	C 	0.1665	0.8122	0.256	-0.024
Mof_C 	C 	0.0761	0.7281	0.266	0.322
Mof_H 	H 	0.16574	0.7929	0.19301	0.046
Mof_S 	S 	0.71977	0.10633	0.78333	-0.235
Mof_O 	O 	0.72727	0.01403	0.63903	-0.436
Mof_O 	O 	0.73657	0.06723	0.51733	-0.358
Mof_C 	C 	0.78687	0.11533	0.64043	-0.099
Mof_C 	C 	0.78577	0.13733	0.72493	0.049
Mof_C 	C 	0.83317	0.14553	0.58933	-0.024
Mof_C 	C 	0.74277	0.06143	0.59933	0.326
Mof_H 	H 	0.83241	0.12623	0.52635	0.045
Mof_S 	S 	0.38643	0.43967	0.11667	-0.237
Mof_O 	O 	0.39393	0.34737	0.97237	-0.42
Mof_O 	O 	0.40323	0.40057	0.85067	-0.354
Mof_C 	C 	0.45353	0.44867	0.97377	-0.096
Mof_C 	C 	0.45243	0.47067	0.05827	0.049
Mof_C 	C 	0.49983	0.47887	0.92267	-0.027
Mof_C 	C 	0.40943	0.39477	0.93267	0.326
Mof_H 	H 	0.49907	0.45956	0.85968	0.047
Mof_S 	S 	0.7199	0.9469	0.45	-0.209
Mof_O 	O 	0.6201	0.9394	0.3057	-0.4
Mof_O 	O 	0.664	0.9301	0.184	-0.35
Mof_C 	C 	0.6618	0.8798	0.3071	-0.091
Mof_C 	C 	0.6849	0.8809	0.3916	0.045
Mof_C 	C 	0.6457	0.8335	0.256	-0.028
Mof_C 	C 	0.652	0.9239	0.266	0.326
Mof_H 	H 	0.62716	0.83426	0.19301	0.048
Mof_S 	S 	0.38657	0.28023	0.78333	-0.237
Mof_O 	O 	0.28677	0.27273	0.63903	-0.422
Mof_O 	O 	0.33067	0.26343	0.51733	-0.355
Mof_C 	C 	0.32847	0.21313	0.64043	-0.096
Mof_C 	C 	0.35157	0.21423	0.72493	0.047
Mof_C 	C 	0.31237	0.16683	0.58933	-0.03
Mof_C 	C 	0.31867	0.25723	0.59933	0.325
Mof_H 	H 	0.29382	0.16759	0.52635	0.046
Mof_S 	S 	0.05323	0.61357	0.11667	-0.228
Mof_O 	O 	0.95343	0.60607	0.97237	-0.406
Mof_O 	O 	0.99733	0.59677	0.85067	-0.329
Mof_C 	C 	0.99513	0.54647	0.97377	-0.037
Mof_C 	C 	0.01823	0.54757	0.05827	-0.006
Mof_C 	C 	0.97903	0.50017	0.92267	-0.058
Mof_C 	C 	0.98533	0.59057	0.93267	0.312
Mof_H 	H 	0.96049	0.50093	0.85968	0.06
Mof_S 	S 	0.7199	0.773	0.95	-0.231
Mof_O 	O 	0.6201	0.6807	0.8057	-0.421
Mof_O 	O 	0.664	0.7339	0.684	-0.353
Mof_C 	C 	0.6618	0.782	0.8071	-0.096
Mof_C 	C 	0.6849	0.804	0.8916	0.05
Mof_C 	C 	0.6457	0.8122	0.756	-0.025
Mof_C 	C 	0.652	0.7281	0.766	0.326
Mof_H 	H 	0.62716	0.7929	0.69301	0.047
Mof_S 	S 	0.38657	0.10633	0.28333	-0.235
Mof_O 	O 	0.28677	0.01403	0.13903	-0.437
Mof_O 	O 	0.33067	0.06723	0.01733	-0.357
Mof_C 	C 	0.32847	0.11533	0.14043	-0.098
Mof_C 	C 	0.35157	0.13733	0.22493	0.047
Mof_C 	C 	0.31237	0.14553	0.08933	-0.028
Mof_C 	C 	0.31867	0.06143	0.09933	0.325
Mof_H 	H 	0.29382	0.12623	0.02635	0.044
Mof_S 	S 	0.05323	0.43967	0.61667	-0.228
Mof_O 	O 	0.95343	0.34737	0.47237	-0.406
Mof_O 	O 	0.99733	0.40057	0.35067	-0.328
Mof_C 	C 	0.99513	0.44867	0.47377	-0.036
Mof_C 	C 	0.01823	0.47067	0.55827	-0.007
Mof_C 	C 	0.97903	0.47887	0.42267	-0.058
Mof_C 	C 	0.98533	0.39477	0.43267	0.312
Mof_H 	H 	0.96049	0.45956	0.35968	0.06
Mof_S 	S 	0.227	0.9469	0.95	-0.212
Mof_O 	O 	0.3193	0.9394	0.8057	-0.399
Mof_O 	O 	0.2661	0.9301	0.684	-0.351
Mof_C 	C 	0.218	0.8798	0.8071	-0.091
Mof_C 	C 	0.196	0.8809	0.8916	0.044
Mof_C 	C 	0.1878	0.8335	0.756	-0.028
Mof_C 	C 	0.2719	0.9239	0.766	0.326
Mof_H 	H 	0.2071	0.83426	0.69301	0.048
Mof_S 	S 	0.89367	0.28023	0.28333	-0.223
Mof_O 	O 	0.98597	0.27273	0.13903	-0.394
Mof_O 	O 	0.93277	0.26343	0.01733	-0.349
Mof_C 	C 	0.88467	0.21313	0.14043	-0.09
Mof_C 	C 	0.86267	0.21423	0.22493	0.046
Mof_C 	C 	0.85447	0.16683	0.08933	-0.03
Mof_C 	C 	0.93857	0.25723	0.09933	0.326
Mof_H 	H 	0.87377	0.16759	0.02635	0.05
Mof_S 	S 	0.56033	0.61357	0.61667	-0.237
Mof_O 	O 	0.65263	0.60607	0.47237	-0.421
Mof_O 	O 	0.59943	0.59677	0.35067	-0.354
Mof_C 	C 	0.55133	0.54647	0.47377	-0.096
Mof_C 	C 	0.52933	0.54757	0.55827	0.049
Mof_C 	C 	0.52113	0.50017	0.42267	-0.027
Mof_C 	C 	0.60523	0.59057	0.43267	0.326
Mof_H 	H 	0.54044	0.50093	0.35968	0.047
Mof_S 	S 	0.0531	0.2801	0.95	-0.264
Mof_O 	O 	0.0606	0.3799	0.8057	-0.425
Mof_O 	O 	0.0699	0.336	0.684	-0.356
Mof_C 	C 	0.1202	0.3382	0.8071	-0.1
Mof_C 	C 	0.1191	0.3151	0.8916	0.052
Mof_C 	C 	0.1665	0.3543	0.756	-0.026
Mof_C 	C 	0.0761	0.348	0.766	0.322
Mof_H 	H 	0.16574	0.37284	0.69301	0.046
Mof_S 	S 	0.71977	0.61343	0.28333	-0.237
Mof_O 	O 	0.72727	0.71323	0.13903	-0.419
Mof_O 	O 	0.73657	0.66933	0.01733	-0.354
Mof_C 	C 	0.78687	0.67153	0.14043	-0.097
Mof_C 	C 	0.78577	0.64843	0.22493	0.051
Mof_C 	C 	0.83317	0.68763	0.08933	-0.023
Mof_C 	C 	0.74277	0.68133	0.09933	0.326
Mof_H 	H 	0.83241	0.70618	0.02635	0.048
Mof_S 	S 	0.38643	0.94677	0.61667	-0.226
Mof_O 	O 	0.39393	0.04657	0.47237	-0.432
Mof_O 	O 	0.40323	0.00267	0.35067	-0.365
Mof_C 	C 	0.45353	0.00487	0.47377	-0.154
Mof_C 	C 	0.45243	0.98177	0.55827	0.103
Mof_C 	C 	0.49983	0.02097	0.42267	0.006
Mof_C 	C 	0.40943	0.01467	0.43267	0.335
Mof_H 	H 	0.49907	0.03951	0.35968	0.036
Mof_S 	S 	0.773	0.7199	0.55	-0.231
Mof_O 	O 	0.6807	0.6201	0.6943	-0.421
Mof_O 	O 	0.7339	0.664	0.816	-0.353
Mof_C 	C 	0.782	0.6618	0.6929	-0.096
Mof_C 	C 	0.804	0.6849	0.6084	0.05
Mof_C 	C 	0.8122	0.6457	0.744	-0.025
Mof_C 	C 	0.7281	0.652	0.734	0.326
Mof_H 	H 	0.7929	0.62716	0.80699	0.046
Mof_S 	S 	0.43967	0.05323	0.88333	-0.228
Mof_O 	O 	0.34737	0.95343	0.02763	-0.406
Mof_O 	O 	0.40057	0.99733	0.14933	-0.329
Mof_C 	C 	0.44867	0.99513	0.02623	-0.037
Mof_C 	C 	0.47067	0.01823	0.94173	-0.006
Mof_C 	C 	0.47887	0.97903	0.07733	-0.058
Mof_C 	C 	0.39477	0.98533	0.06733	0.312
Mof_H 	H 	0.45956	0.96049	0.14032	0.06
Mof_S 	S 	0.10633	0.38657	0.21667	-0.235
Mof_O 	O 	0.01403	0.28677	0.36097	-0.438
Mof_O 	O 	0.06723	0.33067	0.48267	-0.358
Mof_C 	C 	0.11533	0.32847	0.35957	-0.099
Mof_C 	C 	0.13733	0.35157	0.27507	0.047
Mof_C 	C 	0.14553	0.31237	0.41067	-0.028
Mof_C 	C 	0.06143	0.31867	0.40067	0.325
Mof_H 	H 	0.12623	0.29382	0.47365	0.044
Mof_S 	S 	0.9469	0.227	0.55	-0.214
Mof_O 	O 	0.9394	0.3193	0.6943	-0.4
Mof_O 	O 	0.9301	0.2661	0.816	-0.351
Mof_C 	C 	0.8798	0.218	0.6929	-0.092
Mof_C 	C 	0.8809	0.196	0.6084	0.044
Mof_C 	C 	0.8335	0.1878	0.744	-0.028
Mof_C 	C 	0.9239	0.2719	0.734	0.326
Mof_H 	H 	0.83426	0.2071	0.80699	0.047
Mof_S 	S 	0.61357	0.56033	0.88333	-0.237
Mof_O 	O 	0.60607	0.65263	0.02763	-0.421
Mof_O 	O 	0.59677	0.59943	0.14933	-0.354
Mof_C 	C 	0.54647	0.55133	0.02623	-0.096
Mof_C 	C 	0.54757	0.52933	0.94173	0.049
Mof_C 	C 	0.50017	0.52113	0.07733	-0.027
Mof_C 	C 	0.59057	0.60523	0.06733	0.326
Mof_H 	H 	0.50093	0.54044	0.14032	0.047
Mof_S 	S 	0.28023	0.89367	0.21667	-0.223
Mof_O 	O 	0.27273	0.98597	0.36097	-0.396
Mof_O 	O 	0.26343	0.93277	0.48267	-0.351
Mof_C 	C 	0.21313	0.88467	0.35957	-0.091
Mof_C 	C 	0.21423	0.86267	0.27507	0.046
Mof_C 	C 	0.16683	0.85447	0.41067	-0.031
Mof_C 	C 	0.25723	0.93857	0.40067	0.326
Mof_H 	H 	0.16759	0.87377	0.47365	0.05
Mof_S 	S 	0.2801	0.0531	0.55	-0.266
Mof_O 	O 	0.3799	0.0606	0.6943	-0.426
Mof_O 	O 	0.336	0.0699	0.816	-0.356
Mof_C 	C 	0.3382	0.1202	0.6929	-0.101
Mof_C 	C 	0.3151	0.1191	0.6084	0.052
Mof_C 	C 	0.3543	0.1665	0.744	-0.026
Mof_C 	C 	0.348	0.0761	0.734	0.322
Mof_H 	H 	0.37284	0.16574	0.80699	0.046
Mof_S 	S 	0.94677	0.38643	0.88333	-0.227
Mof_O 	O 	0.04657	0.39393	0.02763	-0.432
Mof_O 	O 	0.00267	0.40323	0.14933	-0.365
Mof_C 	C 	0.00487	0.45353	0.02623	-0.154
Mof_C 	C 	0.98177	0.45243	0.94173	0.102
Mof_C 	C 	0.02097	0.49983	0.07733	0.005
Mof_C 	C 	0.01467	0.40943	0.06733	0.335
Mof_H 	H 	0.03951	0.49907	0.14032	0.036
Mof_S 	S 	0.61343	0.71977	0.21667	-0.237
Mof_O 	O 	0.71323	0.72727	0.36097	-0.418
Mof_O 	O 	0.66933	0.73657	0.48267	-0.354
Mof_C 	C 	0.67153	0.78687	0.35957	-0.096
Mof_C 	C 	0.64843	0.78577	0.27507	0.051
Mof_C 	C 	0.68763	0.83317	0.41067	-0.023
Mof_C 	C 	0.68133	0.74277	0.40067	0.326
Mof_H 	H 	0.70618	0.83241	0.47365	0.048
Mof_Mn	Mn	0.3231	0.33333	0.08333	0.736
Mof_Mn	Mn	0.66667	0.98976	0.08333	0.78
Mof_Mn	Mn	0.33333	0.3231	0.41667	0.736
Mof_Mn	Mn	0.01024	0.6769	0.08333	0.693
Mof_Mn	Mn	0.34357	0.34357	0.75	0.736
Mof_Mn	Mn	4.22964e-17	0.65643	0.75	0.694
Mof_Mn	Mn	0.98976	0.66667	0.41667	0.783
Mof_Mn	Mn	0.65643	0	0.75	0.691
Mof_Mn	Mn	0.6769	0.01024	0.41667	0.695
Mof_Mn	Mn	0.6769	0.66667	0.91667	0.736
Mof_Mn	Mn	0.34357	0	0.25	0.693
Mof_Mn	Mn	0.01024	0.33333	0.58333	0.695
Mof_Mn	Mn	0.33333	0.01024	0.91667	0.694
Mof_Mn	Mn	2.96282e-17	0.34357	0.25	0.691
Mof_Mn	Mn	0.98976	0.3231	0.91667	0.78
Mof_Mn	Mn	0.65643	0.65643	0.25	0.736
Mof_Mn	Mn	0.66667	0.6769	0.58333	0.736
Mof_Mn	Mn	0.3231	0.98976	0.58333	0.783
Mof_Mn	Mn	0.39767	0.39767	0.25	0.69
Mof_Mn	Mn	0.06433	0.731	0.58333	0.673
Mof_Mn	Mn	0.731	0.06433	0.91667	0.67
Mof_Mn	Mn	0.60233	0	0.25	0.648
Mof_Mn	Mn	0.269	0.33333	0.58333	0.689
Mof_Mn	Mn	0.93567	0.66667	0.91667	0.711
Mof_Mn	Mn	-1.696e-17	0.60233	0.25	0.645
Mof_Mn	Mn	0.66667	0.93567	0.58333	0.713
Mof_Mn	Mn	0.33333	0.269	0.91667	0.688
Mof_Mn	Mn	0.60233	0.60233	0.75	0.69
Mof_Mn	Mn	0.269	0.93567	0.08333	0.709
Mof_Mn	Mn	0.93567	0.269	0.41667	0.712
Mof_Mn	Mn	0.39767	0	0.75	0.645
Mof_Mn	Mn	0.06433	0.33333	0.08333	0.67
Mof_Mn	Mn	0.731	0.66667	0.41667	0.692
Mof_Mn	Mn	4.22964e-17	0.39767	0.75	0.647
Mof_Mn	Mn	0.66667	0.731	0.08333	0.691
Mof_Mn	Mn	0.33333	0.06433	0.41667	0.671
_end
