data_functionalizedCrystal
_audit_creation_method	'EQeq! by Chris Wilmer'
_symmetry_space_group_name_H-M	'P1'
_symmetry_Int_Tables_number	1
_symmetry_cell_setting	triclinic
loop_
_symmetry_equiv_pos_as_xyz
  x,y,z
_cell_length_a	33.232
_cell_length_b	10.346
_cell_length_c	27.852
_cell_angle_alpha	90
_cell_angle_beta	106.872
_cell_angle_gamma	90
loop_
_atom_site_label
_atom_site_type_symbol
_atom_site_fract_x
_atom_site_fract_y
_atom_site_fract_z
_atom_site_charge
Mof_Eu	Eu	0.55547	0.10532	0.00907	2.307
Mof_O 	O 	0.1208	0.645	0.0781	-0.463
Mof_O 	O 	0.1259	0.4928	0.0265	-0.471
Mof_O 	O 	0.443	0.9453	0.4302	-0.559
Mof_O 	O 	0.49635	0.8042	0.4484	-0.576
Mof_O 	O 	0.4759	0.0771	0.0363	-0.647
Mof_O 	O 	0.5258	0.2223	0.0652	-0.54
Mof_C 	C 	0.1411	0.5617	0.0635	0.358
Mof_C 	C 	0.18621	0.5389	0.0941	-0.117
Mof_C 	C 	0.2072	0.6384	0.1249	0.04
Mof_H 	H 	0.1928	0.7132	0.1284	0.017
Mof_C 	C 	0.2497	0.6263	0.1503	-0.124
Mof_H 	H 	0.2637	0.6929	0.1708	0.067
Mof_C 	C 	0.27124	0.5146	0.1449	0.054
Mof_C 	C 	0.2503	0.4151	0.1142	-0.125
Mof_H 	H 	0.2647	0.3403	0.1106	0.064
Mof_C 	C 	0.2078	0.4272	0.0888	0.041
Mof_H 	H 	0.1937	0.3606	0.0683	0.013
Mof_C 	C 	0.3185	0.5112	0.17	0.008
Mof_C 	C 	0.3378	0.5734	0.2155	-0.077
Mof_H 	H 	0.3215	0.6229	0.2307	0.05
Mof_C 	C 	0.3813	0.5625	0.2388	-0.004
Mof_C 	C 	0.4053	0.5007	0.2137	-0.063
Mof_H 	H 	0.4344	0.5012	0.2277	0.046
Mof_C 	C 	0.3885	0.4362	0.1676	-0.022
Mof_C 	C 	0.3441	0.441	0.1467	-0.07
Mof_H 	H 	0.3317	0.3969	0.117	0.045
Mof_C 	C 	0.4008	0.6369	0.2863	0.094
Mof_C 	C 	0.3822	0.7416	0.2991	-0.175
Mof_H 	H 	0.3565	0.7692	0.278	0.085
Mof_C 	C 	0.4009	0.8112	0.3439	0.102
Mof_H 	H 	0.3873	0.8825	0.3524	0.003
Mof_C 	C 	0.4395	0.7718	0.3749	-0.221
Mof_C 	C 	0.4584	0.6653	0.3618	0.103
Mof_H 	H 	0.4846	0.6392	0.3822	-0.011
Mof_C 	C 	0.439	0.5952	0.3182	-0.179
Mof_H 	H 	0.4516	0.5207	0.3106	0.086
Mof_C 	C 	0.4618	0.8466	0.4215	0.515
Mof_C 	C 	0.4151	0.3668	0.142	0.133
Mof_C 	C 	0.4542	0.4115	0.1438	-0.223
Mof_H 	H 	0.4643	0.4861	0.1619	0.1
Mof_C 	C 	0.4785	0.3485	0.1195	0.149
Mof_H 	H 	0.5052	0.3802	0.1218	-0.02
Mof_C 	C 	0.4643	0.2378	0.0912	-0.259
Mof_C 	C 	0.4253	0.1933	0.09	0.16
Mof_H 	H 	0.4152	0.1185	0.0721	-0.057
Mof_C 	C 	0.4002	0.2585	0.1152	-0.229
Mof_H 	H 	0.3736	0.2275	0.1135	0.1
Mof_C 	C 	0.4913	0.1746	0.063	0.516
Mof_O 	O 	0.5755	0.33	0.0041	-0.514
Mof_S 	S 	0.5718	0.4468	0.0344	0.272
Mof_C 	C 	0.6042	0.576	0.025	-0.941
Mof_H 	H 	0.6332	0.552	0.0385	0.257
Mof_H 	H 	0.5986	0.6517	0.0418	0.301
Mof_H 	H 	0.5982	0.5928	0.9898	0.125
Mof_S 	S 	0.6129	0.4073	0.0312	0.237
Mof_C 	C 	0.6157	0.46	0.0926	-0.658
Mof_H 	H 	0.6198	0.3865	0.1147	0.228
Mof_H 	H 	0.59	0.5028	0.0922	0.206
Mof_H 	H 	0.6389	0.5185	0.1043	0.21
Mof_C 	C 	0.6	0.544	0.9913	0.144
Mof_H 	H 	0.5983	0.5186	0.9576	-0.066
Mof_H 	H 	0.6213	0.6087	0.0025	0.093
Mof_H 	H 	0.5734	0.5778	0.9922	0.085
Mof_C 	C 	0.5191	0.497	0.0062	-0.188
Mof_H 	H 	0.5283	0.4212	0.0261	0.054
Mof_H 	H 	0.5305	0.5725	0.0256	0.065
Mof_H 	H 	0.5286	0.4941	0.9769	0.076
Mof_Eu	Eu	0.05547	0.60532	0.00907	2.311
Mof_O 	O 	0.6208	0.145	0.0781	-0.463
Mof_O 	O 	0.6259	0.9928	0.0265	-0.469
Mof_O 	O 	0.943	0.4453	0.4302	-0.56
Mof_O 	O 	0.99635	0.3042	0.4484	-0.577
Mof_O 	O 	0.9759	0.5771	0.0363	-0.648
Mof_O 	O 	0.0258	0.7223	0.0652	-0.541
Mof_C 	C 	0.6411	0.0617	0.0635	0.355
Mof_C 	C 	0.68621	0.0389	0.0941	-0.119
Mof_C 	C 	0.7072	0.1384	0.1249	0.039
Mof_H 	H 	0.6928	0.2132	0.1284	0.017
Mof_C 	C 	0.7497	0.1263	0.1503	-0.124
Mof_H 	H 	0.7637	0.1929	0.1708	0.066
Mof_C 	C 	0.77124	0.0146	0.1449	0.052
Mof_C 	C 	0.7503	0.9151	0.1142	-0.123
Mof_H 	H 	0.7647	0.8403	0.1106	0.064
Mof_C 	C 	0.7078	0.9272	0.0888	0.042
Mof_H 	H 	0.6937	0.8606	0.0683	0.013
Mof_C 	C 	0.8185	0.0112	0.17	0.006
Mof_C 	C 	0.8378	0.0734	0.2155	-0.078
Mof_H 	H 	0.8215	0.1229	0.2307	0.05
Mof_C 	C 	0.8813	0.0625	0.2388	-0.003
Mof_C 	C 	0.9053	0.0007	0.2137	-0.067
Mof_H 	H 	0.9344	0.0012	0.2277	0.046
Mof_C 	C 	0.8885	0.9362	0.1676	-0.02
Mof_C 	C 	0.8441	0.941	0.1467	-0.068
Mof_H 	H 	0.8317	0.8969	0.117	0.045
Mof_C 	C 	0.9008	0.1369	0.2863	0.093
Mof_C 	C 	0.8822	0.2416	0.2991	-0.175
Mof_H 	H 	0.8565	0.2692	0.278	0.085
Mof_C 	C 	0.9009	0.3112	0.3439	0.102
Mof_H 	H 	0.8873	0.3825	0.3524	0.002
Mof_C 	C 	0.9395	0.2718	0.3749	-0.221
Mof_C 	C 	0.9584	0.1653	0.3618	0.102
Mof_H 	H 	0.9846	0.1392	0.3822	-0.011
Mof_C 	C 	0.939	0.0952	0.3182	-0.179
Mof_H 	H 	0.9516	0.0207	0.3106	0.085
Mof_C 	C 	0.9618	0.3466	0.4215	0.515
Mof_C 	C 	0.9151	0.8668	0.142	0.133
Mof_C 	C 	0.9542	0.9115	0.1438	-0.223
Mof_H 	H 	0.9643	0.9861	0.1619	0.1
Mof_C 	C 	0.9785	0.8485	0.1195	0.149
Mof_H 	H 	0.0052	0.8802	0.1218	-0.02
Mof_C 	C 	0.9643	0.7378	0.0912	-0.259
Mof_C 	C 	0.9253	0.6933	0.09	0.159
Mof_H 	H 	0.9152	0.6185	0.0721	-0.056
Mof_C 	C 	0.9002	0.7585	0.1152	-0.228
Mof_H 	H 	0.8736	0.7275	0.1135	0.1
Mof_C 	C 	0.9913	0.6746	0.063	0.516
Mof_O 	O 	0.0755	0.83	0.0041	-0.515
Mof_S 	S 	0.0718	0.9468	0.0344	0.275
Mof_C 	C 	0.1042	0.076	0.025	-0.949
Mof_H 	H 	0.1332	0.052	0.0385	0.259
Mof_H 	H 	0.0986	0.1517	0.0418	0.304
Mof_H 	H 	0.0982	0.0928	0.9898	0.132
Mof_S 	S 	0.1129	0.9073	0.0312	0.236
Mof_C 	C 	0.1157	0.96	0.0926	-0.647
Mof_H 	H 	0.1198	0.8865	0.1147	0.225
Mof_H 	H 	0.09	0.0028	0.0922	0.202
Mof_H 	H 	0.1389	0.0185	0.1043	0.205
Mof_C 	C 	0.1	0.044	0.9913	0.14
Mof_H 	H 	0.0983	0.0186	0.9576	-0.065
Mof_H 	H 	0.1213	0.1087	0.0025	0.091
Mof_H 	H 	0.0734	0.0778	0.9922	0.086
Mof_C 	C 	0.0191	0.997	0.0062	-0.183
Mof_H 	H 	0.0283	0.9212	0.0261	0.053
Mof_H 	H 	0.0305	0.0725	0.0256	0.063
Mof_H 	H 	0.0286	0.9941	0.9769	0.073
Mof_Eu	Eu	0.44453	0.10532	0.49093	2.308
Mof_O 	O 	0.8792	0.645	0.4219	-0.463
Mof_O 	O 	0.8741	0.4928	0.4735	-0.472
Mof_O 	O 	0.557	0.9453	0.0698	-0.559
Mof_O 	O 	0.50365	0.8042	0.0516	-0.576
Mof_O 	O 	0.5241	0.0771	0.4637	-0.647
Mof_O 	O 	0.4742	0.2223	0.4348	-0.541
Mof_C 	C 	0.8589	0.5617	0.4365	0.357
Mof_C 	C 	0.81379	0.5389	0.4059	-0.118
Mof_C 	C 	0.7928	0.6384	0.3751	0.039
Mof_H 	H 	0.8072	0.7132	0.3716	0.017
Mof_C 	C 	0.7503	0.6263	0.3497	-0.124
Mof_H 	H 	0.7363	0.6929	0.3292	0.066
Mof_C 	C 	0.72876	0.5146	0.3551	0.054
Mof_C 	C 	0.7497	0.4151	0.3858	-0.125
Mof_H 	H 	0.7353	0.3403	0.3894	0.064
Mof_C 	C 	0.7922	0.4272	0.4112	0.041
Mof_H 	H 	0.8063	0.3606	0.4317	0.014
Mof_C 	C 	0.6815	0.5112	0.33	0.008
Mof_C 	C 	0.6622	0.5734	0.2845	-0.077
Mof_H 	H 	0.6785	0.6229	0.2693	0.05
Mof_C 	C 	0.6187	0.5625	0.2612	-0.004
Mof_C 	C 	0.5947	0.5007	0.2863	-0.063
Mof_H 	H 	0.5656	0.5012	0.2723	0.046
Mof_C 	C 	0.6115	0.4362	0.3324	-0.022
Mof_C 	C 	0.6559	0.441	0.3533	-0.07
Mof_H 	H 	0.6683	0.3969	0.383	0.045
Mof_C 	C 	0.5992	0.6369	0.2137	0.094
Mof_C 	C 	0.6178	0.7416	0.2009	-0.175
Mof_H 	H 	0.6435	0.7692	0.222	0.085
Mof_C 	C 	0.5991	0.8112	0.1561	0.102
Mof_H 	H 	0.6127	0.8825	0.1476	0.003
Mof_C 	C 	0.5605	0.7718	0.1251	-0.221
Mof_C 	C 	0.5416	0.6653	0.1382	0.103
Mof_H 	H 	0.5154	0.6392	0.1178	-0.01
Mof_C 	C 	0.561	0.5952	0.1818	-0.179
Mof_H 	H 	0.5484	0.5207	0.1894	0.086
Mof_C 	C 	0.5382	0.8466	0.0785	0.515
Mof_C 	C 	0.5849	0.3668	0.358	0.133
Mof_C 	C 	0.5458	0.4115	0.3562	-0.223
Mof_H 	H 	0.5357	0.4861	0.3381	0.1
Mof_C 	C 	0.5215	0.3485	0.3805	0.149
Mof_H 	H 	0.4948	0.3802	0.3782	-0.02
Mof_C 	C 	0.5357	0.2378	0.4088	-0.259
Mof_C 	C 	0.5747	0.1933	0.41	0.16
Mof_H 	H 	0.5848	0.1185	0.4279	-0.057
Mof_C 	C 	0.5998	0.2585	0.3848	-0.229
Mof_H 	H 	0.6264	0.2275	0.3865	0.1
Mof_C 	C 	0.5087	0.1746	0.437	0.516
Mof_O 	O 	0.4245	0.33	0.4959	-0.515
Mof_S 	S 	0.4282	0.4468	0.4656	0.272
Mof_C 	C 	0.3958	0.576	0.475	-0.942
Mof_H 	H 	0.3668	0.552	0.4615	0.257
Mof_H 	H 	0.4014	0.6517	0.4582	0.302
Mof_H 	H 	0.4018	0.5928	0.5102	0.126
Mof_S 	S 	0.3871	0.4073	0.4688	0.236
Mof_C 	C 	0.3843	0.46	0.4074	-0.658
Mof_H 	H 	0.3802	0.3865	0.3853	0.228
Mof_H 	H 	0.41	0.5028	0.4078	0.206
Mof_H 	H 	0.3611	0.5185	0.3957	0.209
Mof_C 	C 	0.4	0.544	0.5087	0.144
Mof_H 	H 	0.4017	0.5186	0.5424	-0.066
Mof_H 	H 	0.3787	0.6087	0.4975	0.092
Mof_H 	H 	0.4266	0.5778	0.5078	0.084
Mof_C 	C 	0.4809	0.497	0.4938	-0.189
Mof_H 	H 	0.4717	0.4212	0.4739	0.054
Mof_H 	H 	0.4695	0.5725	0.4744	0.065
Mof_H 	H 	0.4714	0.4941	0.5231	0.076
Mof_Eu	Eu	0.94453	0.60532	0.49093	2.309
Mof_O 	O 	0.3792	0.145	0.4219	-0.463
Mof_O 	O 	0.3741	0.9928	0.4735	-0.471
Mof_O 	O 	0.057	0.4453	0.0698	-0.56
Mof_O 	O 	0.00365	0.3042	0.0516	-0.578
Mof_O 	O 	0.0241	0.5771	0.4637	-0.648
Mof_O 	O 	0.9742	0.7223	0.4348	-0.541
Mof_C 	C 	0.3589	0.0617	0.4365	0.356
Mof_C 	C 	0.31379	0.0389	0.4059	-0.119
Mof_C 	C 	0.2928	0.1384	0.3751	0.039
Mof_H 	H 	0.3072	0.2132	0.3716	0.017
Mof_C 	C 	0.2503	0.1263	0.3497	-0.124
Mof_H 	H 	0.2363	0.1929	0.3292	0.066
Mof_C 	C 	0.22876	0.0146	0.3551	0.053
Mof_C 	C 	0.2497	0.9151	0.3858	-0.124
Mof_H 	H 	0.2353	0.8403	0.3894	0.064
Mof_C 	C 	0.2922	0.9272	0.4112	0.041
Mof_H 	H 	0.3063	0.8606	0.4317	0.013
Mof_C 	C 	0.1815	0.0112	0.33	0.007
Mof_C 	C 	0.1622	0.0734	0.2845	-0.078
Mof_H 	H 	0.1785	0.1229	0.2693	0.05
Mof_C 	C 	0.1187	0.0625	0.2612	-0.004
Mof_C 	C 	0.0947	0.0007	0.2863	-0.066
Mof_H 	H 	0.0656	0.0012	0.2723	0.046
Mof_C 	C 	0.1115	0.9362	0.3324	-0.02
Mof_C 	C 	0.1559	0.941	0.3533	-0.069
Mof_H 	H 	0.1683	0.8969	0.383	0.045
Mof_C 	C 	0.0992	0.1369	0.2137	0.093
Mof_C 	C 	0.1178	0.2416	0.2009	-0.175
Mof_H 	H 	0.1435	0.2692	0.222	0.085
Mof_C 	C 	0.0991	0.3112	0.1561	0.102
Mof_H 	H 	0.1127	0.3825	0.1476	0.002
Mof_C 	C 	0.0605	0.2718	0.1251	-0.221
Mof_C 	C 	0.0416	0.1653	0.1382	0.103
Mof_H 	H 	0.0154	0.1392	0.1178	-0.011
Mof_C 	C 	0.061	0.0952	0.1818	-0.179
Mof_H 	H 	0.0484	0.0207	0.1894	0.085
Mof_C 	C 	0.0382	0.3466	0.0785	0.516
Mof_C 	C 	0.0849	0.8668	0.358	0.133
Mof_C 	C 	0.0458	0.9115	0.3562	-0.222
Mof_H 	H 	0.0357	0.9861	0.3381	0.1
Mof_C 	C 	0.0215	0.8485	0.3805	0.148
Mof_H 	H 	0.9948	0.8802	0.3782	-0.02
Mof_C 	C 	0.0357	0.7378	0.4088	-0.258
Mof_C 	C 	0.0747	0.6933	0.41	0.159
Mof_H 	H 	0.0848	0.6185	0.4279	-0.056
Mof_C 	C 	0.0998	0.7585	0.3848	-0.228
Mof_H 	H 	0.1264	0.7275	0.3865	0.1
Mof_C 	C 	0.0087	0.6746	0.437	0.515
Mof_O 	O 	0.9245	0.83	0.4959	-0.515
Mof_S 	S 	0.9282	0.9468	0.4656	0.273
Mof_C 	C 	0.8958	0.076	0.475	-0.942
Mof_H 	H 	0.8668	0.052	0.4615	0.257
Mof_H 	H 	0.9014	0.1517	0.4582	0.301
Mof_H 	H 	0.9018	0.0928	0.5102	0.126
Mof_S 	S 	0.8871	0.9073	0.4688	0.235
Mof_C 	C 	0.8843	0.96	0.4074	-0.653
Mof_H 	H 	0.8802	0.8865	0.3853	0.227
Mof_H 	H 	0.91	0.0028	0.4078	0.204
Mof_H 	H 	0.8611	0.0185	0.3957	0.207
Mof_C 	C 	0.9	0.044	0.5087	0.144
Mof_H 	H 	0.9017	0.0186	0.5424	-0.066
Mof_H 	H 	0.8787	0.1087	0.4975	0.092
Mof_H 	H 	0.9266	0.0778	0.5078	0.084
Mof_C 	C 	0.9809	0.997	0.4938	-0.188
Mof_H 	H 	0.9717	0.9212	0.4739	0.054
Mof_H 	H 	0.9695	0.0725	0.4744	0.065
Mof_H 	H 	0.9714	0.9941	0.5231	0.076
Mof_Eu	Eu	0.44453	0.89468	0.99093	2.306
Mof_O 	O 	0.8792	0.355	0.9219	-0.464
Mof_O 	O 	0.8741	0.5072	0.9735	-0.472
Mof_O 	O 	0.557	0.0547	0.5698	-0.56
Mof_O 	O 	0.50365	0.1958	0.5516	-0.577
Mof_O 	O 	0.5241	0.9229	0.9637	-0.648
Mof_O 	O 	0.4742	0.7777	0.9348	-0.541
Mof_C 	C 	0.8589	0.4383	0.9365	0.357
Mof_C 	C 	0.81379	0.4611	0.9059	-0.118
Mof_C 	C 	0.7928	0.3616	0.8751	0.039
Mof_H 	H 	0.8072	0.2868	0.8716	0.017
Mof_C 	C 	0.7503	0.3737	0.8497	-0.124
Mof_H 	H 	0.7363	0.3071	0.8292	0.067
Mof_C 	C 	0.72876	0.4854	0.8551	0.054
Mof_C 	C 	0.7497	0.5849	0.8858	-0.125
Mof_H 	H 	0.7353	0.6597	0.8894	0.064
Mof_C 	C 	0.7922	0.5728	0.9112	0.041
Mof_H 	H 	0.8063	0.6394	0.9317	0.013
Mof_C 	C 	0.6815	0.4888	0.83	0.008
Mof_C 	C 	0.6622	0.4266	0.7845	-0.077
Mof_H 	H 	0.6785	0.3771	0.7693	0.05
Mof_C 	C 	0.6187	0.4375	0.7612	-0.004
Mof_C 	C 	0.5947	0.4993	0.7863	-0.063
Mof_H 	H 	0.5656	0.4988	0.7723	0.046
Mof_C 	C 	0.6115	0.5638	0.8324	-0.022
Mof_C 	C 	0.6559	0.559	0.8533	-0.07
Mof_H 	H 	0.6683	0.6031	0.883	0.045
Mof_C 	C 	0.5992	0.3631	0.7137	0.094
Mof_C 	C 	0.6178	0.2584	0.7009	-0.175
Mof_H 	H 	0.6435	0.2308	0.722	0.085
Mof_C 	C 	0.5991	0.1888	0.6561	0.102
Mof_H 	H 	0.6127	0.1175	0.6476	0.003
Mof_C 	C 	0.5605	0.2282	0.6251	-0.221
Mof_C 	C 	0.5416	0.3347	0.6382	0.103
Mof_H 	H 	0.5154	0.3608	0.6178	-0.011
Mof_C 	C 	0.561	0.4048	0.6818	-0.179
Mof_H 	H 	0.5484	0.4793	0.6894	0.086
Mof_C 	C 	0.5382	0.1534	0.5785	0.515
Mof_C 	C 	0.5849	0.6332	0.858	0.133
Mof_C 	C 	0.5458	0.5885	0.8562	-0.223
Mof_H 	H 	0.5357	0.5139	0.8381	0.1
Mof_C 	C 	0.5215	0.6515	0.8805	0.149
Mof_H 	H 	0.4948	0.6198	0.8782	-0.02
Mof_C 	C 	0.5357	0.7622	0.9088	-0.259
Mof_C 	C 	0.5747	0.8067	0.91	0.16
Mof_H 	H 	0.5848	0.8815	0.9279	-0.057
Mof_C 	C 	0.5998	0.7415	0.8848	-0.229
Mof_H 	H 	0.6264	0.7725	0.8865	0.1
Mof_C 	C 	0.5087	0.8254	0.937	0.516
Mof_O 	O 	0.4245	0.67	0.9959	-0.514
Mof_S 	S 	0.4282	0.5532	0.9656	0.272
Mof_C 	C 	0.3958	0.424	0.975	-0.941
Mof_H 	H 	0.3668	0.448	0.9615	0.257
Mof_H 	H 	0.4014	0.3483	0.9582	0.301
Mof_H 	H 	0.4018	0.4072	0.0102	0.125
Mof_S 	S 	0.3871	0.5927	0.9688	0.237
Mof_C 	C 	0.3843	0.54	0.9074	-0.658
Mof_H 	H 	0.3802	0.6135	0.8853	0.228
Mof_H 	H 	0.41	0.4972	0.9078	0.206
Mof_H 	H 	0.3611	0.4815	0.8957	0.21
Mof_C 	C 	0.4	0.456	0.0087	0.144
Mof_H 	H 	0.4017	0.4814	0.0424	-0.066
Mof_H 	H 	0.3787	0.3913	0.9975	0.093
Mof_H 	H 	0.4266	0.4222	0.0078	0.085
Mof_C 	C 	0.4809	0.503	0.9938	-0.188
Mof_H 	H 	0.4717	0.5788	0.9739	0.054
Mof_H 	H 	0.4695	0.4275	0.9744	0.065
Mof_H 	H 	0.4714	0.5059	0.0231	0.076
Mof_Eu	Eu	0.94453	0.39468	0.99093	2.311
Mof_O 	O 	0.3792	0.855	0.9219	-0.463
Mof_O 	O 	0.3741	0.0072	0.9735	-0.469
Mof_O 	O 	0.057	0.5547	0.5698	-0.56
Mof_O 	O 	0.00365	0.6958	0.5516	-0.577
Mof_O 	O 	0.0241	0.4229	0.9637	-0.648
Mof_O 	O 	0.9742	0.2777	0.9348	-0.541
Mof_C 	C 	0.3589	0.9383	0.9365	0.355
Mof_C 	C 	0.31379	0.9611	0.9059	-0.119
Mof_C 	C 	0.2928	0.8616	0.8751	0.039
Mof_H 	H 	0.3072	0.7868	0.8716	0.017
Mof_C 	C 	0.2503	0.8737	0.8497	-0.124
Mof_H 	H 	0.2363	0.8071	0.8292	0.066
Mof_C 	C 	0.22876	0.9854	0.8551	0.052
Mof_C 	C 	0.2497	0.0849	0.8858	-0.123
Mof_H 	H 	0.2353	0.1597	0.8894	0.064
Mof_C 	C 	0.2922	0.0728	0.9112	0.042
Mof_H 	H 	0.3063	0.1394	0.9317	0.013
Mof_C 	C 	0.1815	0.9888	0.83	0.006
Mof_C 	C 	0.1622	0.9266	0.7845	-0.078
Mof_H 	H 	0.1785	0.8771	0.7693	0.05
Mof_C 	C 	0.1187	0.9375	0.7612	-0.003
Mof_C 	C 	0.0947	0.9993	0.7863	-0.067
Mof_H 	H 	0.0656	0.9988	0.7723	0.046
Mof_C 	C 	0.1115	0.0638	0.8324	-0.02
Mof_C 	C 	0.1559	0.059	0.8533	-0.068
Mof_H 	H 	0.1683	0.1031	0.883	0.045
Mof_C 	C 	0.0992	0.8631	0.7137	0.093
Mof_C 	C 	0.1178	0.7584	0.7009	-0.175
Mof_H 	H 	0.1435	0.7308	0.722	0.085
Mof_C 	C 	0.0991	0.6888	0.6561	0.102
Mof_H 	H 	0.1127	0.6175	0.6476	0.002
Mof_C 	C 	0.0605	0.7282	0.6251	-0.221
Mof_C 	C 	0.0416	0.8347	0.6382	0.102
Mof_H 	H 	0.0154	0.8608	0.6178	-0.011
Mof_C 	C 	0.061	0.9048	0.6818	-0.179
Mof_H 	H 	0.0484	0.9793	0.6894	0.085
Mof_C 	C 	0.0382	0.6534	0.5785	0.515
Mof_C 	C 	0.0849	0.1332	0.858	0.133
Mof_C 	C 	0.0458	0.0885	0.8562	-0.223
Mof_H 	H 	0.0357	0.0139	0.8381	0.1
Mof_C 	C 	0.0215	0.1515	0.8805	0.149
Mof_H 	H 	0.9948	0.1198	0.8782	-0.02
Mof_C 	C 	0.0357	0.2622	0.9088	-0.259
Mof_C 	C 	0.0747	0.3067	0.91	0.159
Mof_H 	H 	0.0848	0.3815	0.9279	-0.056
Mof_C 	C 	0.0998	0.2415	0.8848	-0.228
Mof_H 	H 	0.1264	0.2725	0.8865	0.1
Mof_C 	C 	0.0087	0.3254	0.937	0.516
Mof_O 	O 	0.9245	0.17	0.9959	-0.515
Mof_S 	S 	0.9282	0.0532	0.9656	0.275
Mof_C 	C 	0.8958	0.924	0.975	-0.949
Mof_H 	H 	0.8668	0.948	0.9615	0.259
Mof_H 	H 	0.9014	0.8483	0.9582	0.304
Mof_H 	H 	0.9018	0.9072	0.0102	0.132
Mof_S 	S 	0.8871	0.0927	0.9688	0.236
Mof_C 	C 	0.8843	0.04	0.9074	-0.647
Mof_H 	H 	0.8802	0.1135	0.8853	0.225
Mof_H 	H 	0.91	0.9972	0.9078	0.202
Mof_H 	H 	0.8611	0.9815	0.8957	0.205
Mof_C 	C 	0.9	0.956	0.0087	0.14
Mof_H 	H 	0.9017	0.9814	0.0424	-0.065
Mof_H 	H 	0.8787	0.8913	0.9975	0.091
Mof_H 	H 	0.9266	0.9222	0.0078	0.086
Mof_C 	C 	0.9809	0.003	0.9938	-0.183
Mof_H 	H 	0.9717	0.0788	0.9739	0.053
Mof_H 	H 	0.9695	0.9275	0.9744	0.063
Mof_H 	H 	0.9714	0.0059	0.0231	0.073
Mof_Eu	Eu	0.55547	0.89468	0.50907	2.308
Mof_O 	O 	0.1208	0.355	0.5781	-0.463
Mof_O 	O 	0.1259	0.5072	0.5265	-0.472
Mof_O 	O 	0.443	0.0547	0.9302	-0.559
Mof_O 	O 	0.49635	0.1958	0.9484	-0.576
Mof_O 	O 	0.4759	0.9229	0.5363	-0.647
Mof_O 	O 	0.5258	0.7777	0.5652	-0.541
Mof_C 	C 	0.1411	0.4383	0.5635	0.357
Mof_C 	C 	0.18621	0.4611	0.5941	-0.118
Mof_C 	C 	0.2072	0.3616	0.6249	0.039
Mof_H 	H 	0.1928	0.2868	0.6284	0.017
Mof_C 	C 	0.2497	0.3737	0.6503	-0.124
Mof_H 	H 	0.2637	0.3071	0.6708	0.066
Mof_C 	C 	0.27124	0.4854	0.6449	0.054
Mof_C 	C 	0.2503	0.5849	0.6142	-0.125
Mof_H 	H 	0.2647	0.6597	0.6106	0.064
Mof_C 	C 	0.2078	0.5728	0.5888	0.041
Mof_H 	H 	0.1937	0.6394	0.5683	0.014
Mof_C 	C 	0.3185	0.4888	0.67	0.008
Mof_C 	C 	0.3378	0.4266	0.7155	-0.077
Mof_H 	H 	0.3215	0.3771	0.7307	0.05
Mof_C 	C 	0.3813	0.4375	0.7388	-0.004
Mof_C 	C 	0.4053	0.4993	0.7137	-0.063
Mof_H 	H 	0.4344	0.4988	0.7277	0.046
Mof_C 	C 	0.3885	0.5638	0.6676	-0.022
Mof_C 	C 	0.3441	0.559	0.6467	-0.07
Mof_H 	H 	0.3317	0.6031	0.617	0.045
Mof_C 	C 	0.4008	0.3631	0.7863	0.094
Mof_C 	C 	0.3822	0.2584	0.7991	-0.175
Mof_H 	H 	0.3565	0.2308	0.778	0.085
Mof_C 	C 	0.4009	0.1888	0.8439	0.102
Mof_H 	H 	0.3873	0.1175	0.8524	0.003
Mof_C 	C 	0.4395	0.2282	0.8749	-0.221
Mof_C 	C 	0.4584	0.3347	0.8618	0.103
Mof_H 	H 	0.4846	0.3608	0.8822	-0.01
Mof_C 	C 	0.439	0.4048	0.8182	-0.179
Mof_H 	H 	0.4516	0.4793	0.8106	0.086
Mof_C 	C 	0.4618	0.1534	0.9215	0.515
Mof_C 	C 	0.4151	0.6332	0.642	0.133
Mof_C 	C 	0.4542	0.5885	0.6438	-0.223
Mof_H 	H 	0.4643	0.5139	0.6619	0.1
Mof_C 	C 	0.4785	0.6515	0.6195	0.149
Mof_H 	H 	0.5052	0.6198	0.6218	-0.02
Mof_C 	C 	0.4643	0.7622	0.5912	-0.259
Mof_C 	C 	0.4253	0.8067	0.59	0.16
Mof_H 	H 	0.4152	0.8815	0.5721	-0.057
Mof_C 	C 	0.4002	0.7415	0.6152	-0.229
Mof_H 	H 	0.3736	0.7725	0.6135	0.1
Mof_C 	C 	0.4913	0.8254	0.563	0.516
Mof_O 	O 	0.5755	0.67	0.5041	-0.515
Mof_S 	S 	0.5718	0.5532	0.5344	0.272
Mof_C 	C 	0.6042	0.424	0.525	-0.942
Mof_H 	H 	0.6332	0.448	0.5385	0.257
Mof_H 	H 	0.5986	0.3483	0.5418	0.302
Mof_H 	H 	0.5982	0.4072	0.4898	0.126
Mof_S 	S 	0.6129	0.5927	0.5312	0.236
Mof_C 	C 	0.6157	0.54	0.5926	-0.658
Mof_H 	H 	0.6198	0.6135	0.6147	0.228
Mof_H 	H 	0.59	0.4972	0.5922	0.206
Mof_H 	H 	0.6389	0.4815	0.6043	0.209
Mof_C 	C 	0.6	0.456	0.4913	0.144
Mof_H 	H 	0.5983	0.4814	0.4576	-0.066
Mof_H 	H 	0.6213	0.3913	0.5025	0.092
Mof_H 	H 	0.5734	0.4222	0.4922	0.084
Mof_C 	C 	0.5191	0.503	0.5062	-0.189
Mof_H 	H 	0.5283	0.5788	0.5261	0.054
Mof_H 	H 	0.5305	0.4275	0.5256	0.065
Mof_H 	H 	0.5286	0.5059	0.4769	0.076
Mof_Eu	Eu	0.05547	0.39468	0.50907	2.309
Mof_O 	O 	0.6208	0.855	0.5781	-0.463
Mof_O 	O 	0.6259	0.0072	0.5265	-0.471
Mof_O 	O 	0.943	0.5547	0.9302	-0.56
Mof_O 	O 	0.99635	0.6958	0.9484	-0.578
Mof_O 	O 	0.9759	0.4229	0.5363	-0.648
Mof_O 	O 	0.0258	0.2777	0.5652	-0.541
Mof_C 	C 	0.6411	0.9383	0.5635	0.356
Mof_C 	C 	0.68621	0.9611	0.5941	-0.119
Mof_C 	C 	0.7072	0.8616	0.6249	0.039
Mof_H 	H 	0.6928	0.7868	0.6284	0.017
Mof_C 	C 	0.7497	0.8737	0.6503	-0.124
Mof_H 	H 	0.7637	0.8071	0.6708	0.066
Mof_C 	C 	0.77124	0.9854	0.6449	0.053
Mof_C 	C 	0.7503	0.0849	0.6142	-0.124
Mof_H 	H 	0.7647	0.1597	0.6106	0.064
Mof_C 	C 	0.7078	0.0728	0.5888	0.041
Mof_H 	H 	0.6937	0.1394	0.5683	0.013
Mof_C 	C 	0.8185	0.9888	0.67	0.007
Mof_C 	C 	0.8378	0.9266	0.7155	-0.078
Mof_H 	H 	0.8215	0.8771	0.7307	0.05
Mof_C 	C 	0.8813	0.9375	0.7388	-0.004
Mof_C 	C 	0.9053	0.9993	0.7137	-0.066
Mof_H 	H 	0.9344	0.9988	0.7277	0.046
Mof_C 	C 	0.8885	0.0638	0.6676	-0.02
Mof_C 	C 	0.8441	0.059	0.6467	-0.069
Mof_H 	H 	0.8317	0.1031	0.617	0.045
Mof_C 	C 	0.9008	0.8631	0.7863	0.093
Mof_C 	C 	0.8822	0.7584	0.7991	-0.175
Mof_H 	H 	0.8565	0.7308	0.778	0.085
Mof_C 	C 	0.9009	0.6888	0.8439	0.102
Mof_H 	H 	0.8873	0.6175	0.8524	0.002
Mof_C 	C 	0.9395	0.7282	0.8749	-0.221
Mof_C 	C 	0.9584	0.8347	0.8618	0.103
Mof_H 	H 	0.9846	0.8608	0.8822	-0.011
Mof_C 	C 	0.939	0.9048	0.8182	-0.179
Mof_H 	H 	0.9516	0.9793	0.8106	0.085
Mof_C 	C 	0.9618	0.6534	0.9215	0.516
Mof_C 	C 	0.9151	0.1332	0.642	0.133
Mof_C 	C 	0.9542	0.0885	0.6438	-0.222
Mof_H 	H 	0.9643	0.0139	0.6619	0.1
Mof_C 	C 	0.9785	0.1515	0.6195	0.148
Mof_H 	H 	0.0052	0.1198	0.6218	-0.02
Mof_C 	C 	0.9643	0.2622	0.5912	-0.258
Mof_C 	C 	0.9253	0.3067	0.59	0.159
Mof_H 	H 	0.9152	0.3815	0.5721	-0.056
Mof_C 	C 	0.9002	0.2415	0.6152	-0.228
Mof_H 	H 	0.8736	0.2725	0.6135	0.1
Mof_C 	C 	0.9913	0.3254	0.563	0.515
Mof_O 	O 	0.0755	0.17	0.5041	-0.515
Mof_S 	S 	0.0718	0.0532	0.5344	0.273
Mof_C 	C 	0.1042	0.924	0.525	-0.942
Mof_H 	H 	0.1332	0.948	0.5385	0.257
Mof_H 	H 	0.0986	0.8483	0.5418	0.301
Mof_H 	H 	0.0982	0.9072	0.4898	0.126
Mof_S 	S 	0.1129	0.0927	0.5312	0.235
Mof_C 	C 	0.1157	0.04	0.5926	-0.653
Mof_H 	H 	0.1198	0.1135	0.6147	0.227
Mof_H 	H 	0.09	0.9972	0.5922	0.204
Mof_H 	H 	0.1389	0.9815	0.6043	0.207
Mof_C 	C 	0.1	0.956	0.4913	0.144
Mof_H 	H 	0.0983	0.9814	0.4576	-0.066
Mof_H 	H 	0.1213	0.8913	0.5025	0.092
Mof_H 	H 	0.0734	0.9222	0.4922	0.084
Mof_C 	C 	0.0191	0.003	0.5062	-0.188
Mof_H 	H 	0.0283	0.0788	0.5261	0.054
Mof_H 	H 	0.0305	0.9275	0.5256	0.065
Mof_H 	H 	0.0286	0.0059	0.4769	0.076
_end
