# CIF file generated by openbabel 3.1.0, see https://openbabel.org
data_I
_chemical_name_common 'OKITAE_clean'
_cell_length_a 7.1301
_cell_length_b 9.6227
_cell_length_c 16.7625
_cell_angle_alpha 90
_cell_angle_beta 90
_cell_angle_gamma 90
_space_group_name_H-M_alt 'P 1'
_space_group_name_Hall 'P 1'
loop_
    _symmetry_equiv_pos_as_xyz
    x,y,z
loop_
    _atom_site_label
    _atom_site_type_symbol
    _atom_site_fract_x
    _atom_site_fract_y
    _atom_site_fract_z
    _atom_site_occupancy
    Cd1      Cd       0.70710    0.28259    0.65697    1.000
    Cd2      Cd       0.95760    0.49952    0.50024    1.000
    Cd3      Cd       0.20710    0.71741    0.34303    1.000
    Cd4      Cd       0.45760    0.50048    0.49976    1.000
    Cd5      Cd       0.70710    0.78259    0.84303    1.000
    Cd6      Cd       0.95760    0.99952    0.99976    1.000
    Cd7      Cd       0.20710    0.21741    0.15697    1.000
    Cd8      Cd       0.45760    0.00048    0.00024    1.000
    H1       H        0.73300    0.29800    0.50200    1.000
    H2       H        0.06200    0.09920    0.75820    1.000
    H3       H        0.25130    0.03530    0.72800    1.000
    H4       H        0.25320    0.15240    0.79300    1.000
    H5       H        0.23300    0.70200    0.49800    1.000
    H6       H        0.56200    0.90080    0.24180    1.000
    H7       H        0.75130    0.96470    0.27200    1.000
    H8       H        0.75320    0.84760    0.20700    1.000
    H9       H        0.73300    0.79800    0.99800    1.000
    H10      H        0.06200    0.59920    0.74180    1.000
    H11      H        0.25130    0.53530    0.77200    1.000
    H12      H        0.25320    0.65240    0.70700    1.000
    H13      H        0.23300    0.20200    0.00200    1.000
    H14      H        0.56200    0.40080    0.25820    1.000
    H15      H        0.75130    0.46470    0.22800    1.000
    H16      H        0.75320    0.34760    0.29300    1.000
    C1       C        0.20100    0.22590    0.68240    1.000
    C2       C        0.19090    0.11870    0.74600    1.000
    C3       C        0.70100    0.77410    0.31760    1.000
    C4       C        0.69090    0.88130    0.25400    1.000
    C5       C        0.20100    0.72590    0.81760    1.000
    C6       C        0.19090    0.61870    0.75400    1.000
    C7       C        0.70100    0.27410    0.18240    1.000
    C8       C        0.69090    0.38130    0.24600    1.000
    S1       S        0.70520    0.14321    0.84828    1.000
    S2       S        0.20520    0.85679    0.15172    1.000
    S3       S        0.70520    0.64321    0.65172    1.000
    S4       S        0.20520    0.35679    0.34828    1.000
    N1       N        0.04650    0.28210    0.64910    1.000
    N2       N        0.12430    0.36810    0.59210    1.000
    N3       N        0.30630    0.36890    0.59580    1.000
    N4       N        0.35800    0.27850    0.64950    1.000
    N5       N        0.54650    0.71790    0.35090    1.000
    N6       N        0.62430    0.63190    0.40790    1.000
    N7       N        0.80630    0.63110    0.40420    1.000
    N8       N        0.85800    0.72150    0.35050    1.000
    N9       N        0.04650    0.78210    0.85090    1.000
    N10      N        0.12430    0.86810    0.90790    1.000
    N11      N        0.30630    0.86890    0.90420    1.000
    N12      N        0.35800    0.77850    0.85050    1.000
    N13      N        0.54650    0.21790    0.14910    1.000
    N14      N        0.62430    0.13190    0.09210    1.000
    N15      N        0.80630    0.13110    0.09580    1.000
    N16      N        0.85800    0.22150    0.14950    1.000
    O1       O        0.71700    0.25930    0.79160    1.000
    O2       O        0.72400    0.01110    0.80480    1.000
    O3       O        0.53560    0.15180    0.90080    1.000
    O4       O        0.87080    0.15250    0.89710    1.000
    O5       O        0.69700    0.36550    0.53030    1.000
    O6       O        0.21700    0.74070    0.20840    1.000
    O7       O        0.22400    0.98890    0.19520    1.000
    O8       O        0.03560    0.84820    0.09920    1.000
    O9       O        0.37080    0.84750    0.10290    1.000
    O10      O        0.19700    0.63450    0.46970    1.000
    O11      O        0.71700    0.75930    0.70840    1.000
    O12      O        0.72400    0.51110    0.69520    1.000
    O13      O        0.53560    0.65180    0.59920    1.000
    O14      O        0.87080    0.65250    0.60290    1.000
    O15      O        0.69700    0.86550    0.96970    1.000
    O16      O        0.21700    0.24070    0.29160    1.000
    O17      O        0.22400    0.48890    0.30480    1.000
    O18      O        0.03560    0.34820    0.40080    1.000
    O19      O        0.37080    0.34750    0.39710    1.000
    O20      O        0.19700    0.13450    0.03030    1.000
