data_functionalizedCrystal
_audit_creation_method	'EQeq! by Chris Wilmer'
_symmetry_space_group_name_H-M	'P1'
_symmetry_Int_Tables_number	1
_symmetry_cell_setting	triclinic
loop_
_symmetry_equiv_pos_as_xyz
  x,y,z
_cell_length_a	7.7266
_cell_length_b	7.9643
_cell_length_c	21.2205
_cell_angle_alpha	90.298
_cell_angle_beta	92.209
_cell_angle_gamma	90.805
loop_
_atom_site_label
_atom_site_type_symbol
_atom_site_fract_x
_atom_site_fract_y
_atom_site_fract_z
_atom_site_charge
Mof_Mn	Mn	0.6113	0.60285	0.60548	0.974
Mof_Mn	Mn	0.29072	0.8487	0.55381	0.938
Mof_Mn	Mn	0.20044	0.67359	0.82351	0.997
Mof_Mn	Mn	0.52334	0.4248	0.87939	0.987
Mof_Mn	Mn	0.59743	0.81821	0.9746	0.873
Mof_P 	P 	0.58733	0.74633	0.45622	0.587
Mof_P 	P 	0.26565	0.5745	0.97999	0.561
Mof_P 	P 	0.3231	0.05334	0.88056	0.594
Mof_O 	O 	0.5082	0.7126	0.52057	-0.465
Mof_O 	O 	0.7856	0.7022	0.46353	-0.477
Mof_H 	H 	0.7989	0.6035	0.4539	0.308
Mof_O 	O 	0.5001	0.6346	0.40543	-0.363
Mof_O 	O 	0.5795	0.928	0.4372	-0.369
Mof_O 	O 	0.4103	0.652	0.02233	-0.436
Mof_O 	O 	0.322	0.5841	0.91185	-0.466
Mof_O 	O 	0.1074	0.6948	0.98683	-0.454
Mof_H 	H 	0.0188	0.6386	0.991	0.284
Mof_O 	O 	0.2147	0.3967	0.99782	-0.376
Mof_O 	O 	0.4156	0.201	0.85274	-0.382
Mof_O 	O 	0.1313	0.1124	0.89545	-0.439
Mof_H 	H 	0.1101	0.1998	0.8766	0.289
Mof_O 	O 	0.4044	0.0028	0.94464	-0.423
Mof_O 	O 	0.3034	0.9085	0.83565	-0.366
Mof_O 	O 	0.8711	0.5107	0.58961	-0.311
Mof_O 	O 	0.1317	0.6051	0.56393	-0.331
Mof_O 	O 	0.785	0.8242	0.62137	-0.293
Mof_O 	O 	0.0406	0.9202	0.5912	-0.294
Mof_O 	O 	0.4225	0.5358	0.78878	-0.397
Mof_O 	O 	0.6089	0.543	0.71106	-0.294
Mof_O 	O 	0.1996	0.7201	0.71954	-0.305
Mof_O 	O 	0.3962	0.7457	0.64521	-0.384
Mof_O 	O 	0.7738	0.3551	0.84932	-0.305
Mof_O 	O 	0.0337	0.4492	0.82479	-0.323
Mof_O 	O 	0.6811	0.6716	0.87848	-0.363
Mof_O 	O 	0.9414	0.7625	0.84915	-0.297
Mof_C 	C 	0.9826	0.624	0.58308	0.258
Mof_C 	C 	0.9326	0.8061	0.60015	0.241
Mof_C 	C 	0.4712	0.5788	0.73479	0.269
Mof_C 	C 	0.3406	0.6915	0.69713	0.263
Mof_C 	C 	0.884	0.4697	0.84257	0.244
Mof_C 	C 	0.8294	0.6511	0.85815	0.248
Mof_Mn	Mn	0.3887	0.39715	0.39452	0.973
Mof_Mn	Mn	0.70928	0.1513	0.44619	0.937
Mof_Mn	Mn	0.79956	0.32641	0.17649	0.996
Mof_Mn	Mn	0.47666	0.5752	0.12061	0.986
Mof_Mn	Mn	0.40257	0.18179	0.0254	0.873
Mof_P 	P 	0.41267	0.25367	0.54378	0.587
Mof_P 	P 	0.73435	0.4255	0.02001	0.561
Mof_P 	P 	0.6769	0.94666	0.11944	0.594
Mof_O 	O 	0.4918	0.2874	0.47943	-0.465
Mof_O 	O 	0.2144	0.2978	0.53647	-0.477
Mof_H 	H 	0.2011	0.3965	0.5461	0.308
Mof_O 	O 	0.4999	0.3654	0.59457	-0.363
Mof_O 	O 	0.4205	0.072	0.5628	-0.369
Mof_O 	O 	0.5897	0.348	0.97767	-0.436
Mof_O 	O 	0.678	0.4159	0.08815	-0.466
Mof_O 	O 	0.8926	0.3052	0.01317	-0.454
Mof_H 	H 	0.9812	0.3614	0.009	0.284
Mof_O 	O 	0.7853	0.6033	0.00218	-0.376
Mof_O 	O 	0.5844	0.799	0.14726	-0.382
Mof_O 	O 	0.8687	0.8876	0.10455	-0.439
Mof_H 	H 	0.8899	0.8002	0.1234	0.289
Mof_O 	O 	0.5956	0.9972	0.05536	-0.423
Mof_O 	O 	0.6966	0.0915	0.16435	-0.366
Mof_O 	O 	0.1289	0.4893	0.41039	-0.311
Mof_O 	O 	0.8683	0.3949	0.43607	-0.331
Mof_O 	O 	0.215	0.1758	0.37863	-0.293
Mof_O 	O 	0.9594	0.0798	0.4088	-0.294
Mof_O 	O 	0.5775	0.4642	0.21122	-0.397
Mof_O 	O 	0.3911	0.457	0.28894	-0.294
Mof_O 	O 	0.8004	0.2799	0.28046	-0.305
Mof_O 	O 	0.6038	0.2543	0.35479	-0.384
Mof_O 	O 	0.2262	0.6449	0.15068	-0.305
Mof_O 	O 	0.9663	0.5508	0.17521	-0.323
Mof_O 	O 	0.3189	0.3284	0.12152	-0.363
Mof_O 	O 	0.0586	0.2375	0.15085	-0.297
Mof_C 	C 	0.0174	0.376	0.41692	0.258
Mof_C 	C 	0.0674	0.1939	0.39985	0.241
Mof_C 	C 	0.5288	0.4212	0.26521	0.269
Mof_C 	C 	0.6594	0.3085	0.30287	0.263
Mof_C 	C 	0.116	0.5303	0.15743	0.244
Mof_C 	C 	0.1706	0.3489	0.14185	0.248
_end
