# CIF file generated by openbabel 3.1.0, see https://openbabel.org
data_I
_chemical_name_common 'image0'
_cell_length_a 36.6284
_cell_length_b 36.6284
_cell_length_c 27.5127
_cell_angle_alpha 90
_cell_angle_beta 90
_cell_angle_gamma 120
_space_group_name_H-M_alt 'P 1'
_space_group_name_Hall 'P 1'
loop_
    _symmetry_equiv_pos_as_xyz
    x,y,z
loop_
    _atom_site_label
    _atom_site_type_symbol
    _atom_site_fract_x
    _atom_site_fract_y
    _atom_site_fract_z
    _atom_site_occupancy
    Ag1      Ag       0.07568    0.20254    0.68607    1.000
    P1       P        0.11563    0.25126    0.75162    1.000
    P2       P        0.39632    0.51993    0.76650    1.000
    C1       C        0.30750    0.32750    0.74390    1.000
    C2       C        0.26020    0.30610    0.74990    1.000
    C3       C        0.23600    0.29260    0.70730    1.000
    H1       H        0.24960    0.29480    0.67720    1.000
    C4       C        0.19300    0.27630    0.70780    1.000
    H2       H        0.17750    0.26800    0.67830    1.000
    C5       C        0.17200    0.27170    0.75250    1.000
    C6       C        0.19540    0.28310    0.79380    1.000
    H3       H        0.18220    0.27940    0.82460    1.000
    C7       C        0.23990    0.30070    0.79090    1.000
    H4       H        0.25570    0.30880    0.82020    1.000
    C8       C        0.32870    0.37470    0.74980    1.000
    C9       C        0.34040    0.39940    0.70940    1.000
    H5       H        0.33570    0.38710    0.67800    1.000
    C10      C        0.35970    0.44360    0.71470    1.000
    H6       H        0.36650    0.46030    0.68610    1.000
    C11      C        0.36900    0.46330    0.75830    1.000
    C12      C        0.35620    0.43890    0.79850    1.000
    H7       H        0.36050    0.45180    0.82950    1.000
    C13      C        0.33670    0.39540    0.79530    1.000
    H8       H        0.32870    0.37910    0.82420    1.000
    C14      C        0.11050    0.29750    0.74720    1.000
    C15      C        0.07010    0.29260    0.74710    1.000
    H9       H        0.04600    0.26530    0.75070    1.000
    C16      C        0.06510    0.32770    0.74180    1.000
    H10      H        0.03750    0.32400    0.74010    1.000
    C17      C        0.09870    0.36680    0.73890    1.000
    H11      H        0.09480    0.39050    0.73570    1.000
    C18      C        0.13870    0.37240    0.74050    1.000
    H12      H        0.16240    0.40010    0.73890    1.000
    C19      C        0.14460    0.33880    0.74430    1.000
    H13      H        0.17250    0.34330    0.74510    1.000
    C20      C        0.09900    0.23300    0.81300    1.000
    C21      C        0.09250    0.19250    0.82400    1.000
    H14      H        0.09540    0.17550    0.80010    1.000
    C22      C        0.08120    0.17860    0.87290    1.000
    H15      H        0.07650    0.15150    0.88150    1.000
    C23      C        0.07670    0.20220    0.90770    1.000
    H16      H        0.07010    0.19200    0.94000    1.000
    C24      C        0.08190    0.24100    0.89630    1.000
    H17      H        0.07770    0.25730    0.92020    1.000
    C25      C        0.09360    0.25650    0.84810    1.000
    H18      H        0.09780    0.28360    0.84010    1.000
    C26      C        0.36920    0.53810    0.72550    1.000
    C27      C        0.36970    0.53430    0.67660    1.000
    H19      H        0.38560    0.52340    0.66170    1.000
    C28      C        0.34610    0.54670    0.64870    1.000
    H20      H        0.34550    0.54320    0.61440    1.000
    C29      C        0.32490    0.56290    0.66720    1.000
    H21      H        0.30970    0.57140    0.64650    1.000
    C30      C        0.32420    0.56780    0.71520    1.000
    H22      H        0.30840    0.57950    0.72880    1.000
    C31      C        0.34750    0.55540    0.74600    1.000
    H23      H        0.34790    0.55910    0.78020    1.000
    C32      C        0.44610    0.53960    0.73570    1.000
    C33      C        0.46160    0.51490    0.72120    1.000
    H24      H        0.44520    0.48520    0.72530    1.000
    C34      C        0.50240    0.53280    0.69990    1.000
    H25      H        0.51260    0.51510    0.68840    1.000
    C35      C        0.52660    0.57550    0.69610    1.000
    H26      H        0.55530    0.58810    0.68640    1.000
    C36      C        0.50910    0.60020    0.70640    1.000
    H27      H        0.52380    0.62940    0.69850    1.000
    C37      C        0.46950    0.58210    0.72850    1.000
    H28      H        0.45860    0.59960    0.73870    1.000
    O1       O        0.02480    0.13710    0.72320    1.000
    Ag2      Ag       0.74235    0.53587    0.01940    1.000
    P3       P        0.78230    0.58459    0.08495    1.000
    P4       P        0.06299    0.85326    0.09983    1.000
    C38      C        0.97417    0.66083    0.07723    1.000
    C39      C        0.92687    0.63943    0.08323    1.000
    C40      C        0.90267    0.62593    0.04063    1.000
    H29      H        0.91627    0.62813    0.01053    1.000
    C41      C        0.85967    0.60963    0.04113    1.000
    H30      H        0.84417    0.60133    0.01163    1.000
    C42      C        0.83867    0.60503    0.08583    1.000
    C43      C        0.86207    0.61643    0.12713    1.000
    H31      H        0.84887    0.61273    0.15793    1.000
    C44      C        0.90657    0.63403    0.12423    1.000
    H32      H        0.92237    0.64213    0.15353    1.000
    C45      C        0.99537    0.70803    0.08313    1.000
    C46      C        0.00707    0.73273    0.04273    1.000
    H33      H        0.00237    0.72043    0.01133    1.000
    C47      C        0.02637    0.77693    0.04803    1.000
    H34      H        0.03317    0.79363    0.01943    1.000
    C48      C        0.03567    0.79663    0.09163    1.000
    C49      C        0.02287    0.77223    0.13183    1.000
    H35      H        0.02717    0.78513    0.16283    1.000
    C50      C        0.00337    0.72873    0.12863    1.000
    H36      H        0.99537    0.71243    0.15753    1.000
    C51      C        0.77717    0.63083    0.08053    1.000
    C52      C        0.73677    0.62593    0.08043    1.000
    H37      H        0.71267    0.59863    0.08403    1.000
    C53      C        0.73177    0.66103    0.07513    1.000
    H38      H        0.70417    0.65733    0.07343    1.000
    C54      C        0.76537    0.70013    0.07223    1.000
    H39      H        0.76147    0.72383    0.06903    1.000
    C55      C        0.80537    0.70573    0.07383    1.000
    H40      H        0.82907    0.73343    0.07223    1.000
    C56      C        0.81127    0.67213    0.07763    1.000
    H41      H        0.83917    0.67663    0.07843    1.000
    C57      C        0.76567    0.56633    0.14633    1.000
    C58      C        0.75917    0.52583    0.15733    1.000
    H42      H        0.76207    0.50883    0.13343    1.000
    C59      C        0.74787    0.51193    0.20623    1.000
    H43      H        0.74317    0.48483    0.21483    1.000
    C60      C        0.74337    0.53553    0.24103    1.000
    H44      H        0.73677    0.52533    0.27333    1.000
    C61      C        0.74857    0.57433    0.22963    1.000
    H45      H        0.74437    0.59063    0.25353    1.000
    C62      C        0.76027    0.58983    0.18143    1.000
    H46      H        0.76447    0.61693    0.17343    1.000
    C63      C        0.03587    0.87143    0.05883    1.000
    C64      C        0.03637    0.86763    0.00993    1.000
    H47      H        0.05227    0.85673    0.99503    1.000
    C65      C        0.01277    0.88003    0.98203    1.000
    H48      H        0.01217    0.87653    0.94773    1.000
    C66      C        0.99157    0.89623    0.00053    1.000
    H49      H        0.97637    0.90473    0.97983    1.000
    C67      C        0.99087    0.90113    0.04853    1.000
    H50      H        0.97507    0.91283    0.06213    1.000
    C68      C        0.01417    0.88873    0.07933    1.000
    H51      H        0.01457    0.89243    0.11353    1.000
    C69      C        0.11277    0.87293    0.06903    1.000
    C70      C        0.12827    0.84823    0.05453    1.000
    H52      H        0.11187    0.81853    0.05863    1.000
    C71      C        0.16907    0.86613    0.03323    1.000
    H53      H        0.17927    0.84843    0.02173    1.000
    C72      C        0.19327    0.90883    0.02943    1.000
    H54      H        0.22197    0.92143    0.01973    1.000
    C73      C        0.17577    0.93353    0.03973    1.000
    H55      H        0.19047    0.96273    0.03183    1.000
    C74      C        0.13617    0.91543    0.06183    1.000
    H56      H        0.12527    0.93293    0.07203    1.000
    O2       O        0.69147    0.47043    0.05653    1.000
    Ag3      Ag       0.40901    0.86921    0.35274    1.000
    P5       P        0.44896    0.91793    0.41829    1.000
    P6       P        0.72965    0.18660    0.43317    1.000
    C75      C        0.64083    0.99417    0.41057    1.000
    C76      C        0.59353    0.97277    0.41657    1.000
    C77      C        0.56933    0.95927    0.37397    1.000
    H57      H        0.58293    0.96147    0.34387    1.000
    C78      C        0.52633    0.94297    0.37447    1.000
    H58      H        0.51083    0.93467    0.34497    1.000
    C79      C        0.50533    0.93837    0.41917    1.000
    C80      C        0.52873    0.94977    0.46047    1.000
    H59      H        0.51553    0.94607    0.49127    1.000
    C81      C        0.57323    0.96737    0.45757    1.000
    H60      H        0.58903    0.97547    0.48687    1.000
    C82      C        0.66203    0.04137    0.41647    1.000
    C83      C        0.67373    0.06607    0.37607    1.000
    H61      H        0.66903    0.05377    0.34467    1.000
    C84      C        0.69303    0.11027    0.38137    1.000
    H62      H        0.69983    0.12697    0.35277    1.000
    C85      C        0.70233    0.12997    0.42497    1.000
    C86      C        0.68953    0.10557    0.46517    1.000
    H63      H        0.69383    0.11847    0.49617    1.000
    C87      C        0.67003    0.06207    0.46197    1.000
    H64      H        0.66203    0.04577    0.49087    1.000
    C88      C        0.44383    0.96417    0.41387    1.000
    C89      C        0.40343    0.95927    0.41377    1.000
    H65      H        0.37933    0.93197    0.41737    1.000
    C90      C        0.39843    0.99437    0.40847    1.000
    H66      H        0.37083    0.99067    0.40677    1.000
    C91      C        0.43203    0.03347    0.40557    1.000
    H67      H        0.42813    0.05717    0.40237    1.000
    C92      C        0.47203    0.03907    0.40717    1.000
    H68      H        0.49573    0.06677    0.40557    1.000
    C93      C        0.47793    0.00547    0.41097    1.000
    H69      H        0.50583    0.00997    0.41177    1.000
    C94      C        0.43233    0.89967    0.47967    1.000
    C95      C        0.42583    0.85917    0.49067    1.000
    H70      H        0.42873    0.84217    0.46677    1.000
    C96      C        0.41453    0.84527    0.53957    1.000
    H71      H        0.40983    0.81817    0.54817    1.000
    C97      C        0.41003    0.86887    0.57437    1.000
    H72      H        0.40343    0.85867    0.60667    1.000
    C98      C        0.41523    0.90767    0.56297    1.000
    H73      H        0.41103    0.92397    0.58687    1.000
    C99      C        0.42693    0.92317    0.51477    1.000
    H74      H        0.43113    0.95027    0.50677    1.000
    C100     C        0.70253    0.20477    0.39217    1.000
    C101     C        0.70303    0.20097    0.34327    1.000
    H75      H        0.71893    0.19007    0.32837    1.000
    C102     C        0.67943    0.21337    0.31537    1.000
    H76      H        0.67883    0.20987    0.28107    1.000
    C103     C        0.65823    0.22957    0.33387    1.000
    H77      H        0.64303    0.23807    0.31317    1.000
    C104     C        0.65753    0.23447    0.38187    1.000
    H78      H        0.64173    0.24617    0.39547    1.000
    C105     C        0.68083    0.22207    0.41267    1.000
    H79      H        0.68123    0.22577    0.44687    1.000
    C106     C        0.77943    0.20627    0.40237    1.000
    C107     C        0.79493    0.18157    0.38787    1.000
    H80      H        0.77853    0.15187    0.39197    1.000
    C108     C        0.83573    0.19947    0.36657    1.000
    H81      H        0.84593    0.18177    0.35507    1.000
    C109     C        0.85993    0.24217    0.36277    1.000
    H82      H        0.88863    0.25477    0.35307    1.000
    C110     C        0.84243    0.26687    0.37307    1.000
    H83      H        0.85713    0.29607    0.36517    1.000
    C111     C        0.80283    0.24877    0.39517    1.000
    H84      H        0.79193    0.26627    0.40537    1.000
    O3       O        0.35813    0.80377    0.38987    1.000
    Ag4      Ag       0.79746    0.87314    0.68607    1.000
    P7       P        0.74874    0.86437    0.75162    1.000
    P8       P        0.48007    0.87639    0.76650    1.000
    C112     C        0.67250    0.98000    0.74390    1.000
    C113     C        0.69390    0.95410    0.74990    1.000
    C114     C        0.70740    0.94340    0.70730    1.000
    H85      H        0.70520    0.95480    0.67720    1.000
    C115     C        0.72370    0.91670    0.70780    1.000
    H86      H        0.73200    0.90950    0.67830    1.000
    C116     C        0.72830    0.90030    0.75250    1.000
    C117     C        0.71690    0.91230    0.79380    1.000
    H87      H        0.72060    0.90280    0.82460    1.000
    C118     C        0.69930    0.93920    0.79090    1.000
    H88      H        0.69120    0.94690    0.82020    1.000
    C119     C        0.62530    0.95400    0.74980    1.000
    C120     C        0.60060    0.94100    0.70940    1.000
    H89      H        0.61290    0.94860    0.67800    1.000
    C121     C        0.55640    0.91610    0.71470    1.000
    H90      H        0.53970    0.90620    0.68610    1.000
    C122     C        0.53670    0.90570    0.75830    1.000
    C123     C        0.56110    0.91730    0.79850    1.000
    H91      H        0.54820    0.90870    0.82950    1.000
    C124     C        0.60460    0.94130    0.79530    1.000
    H92      H        0.62090    0.94960    0.82420    1.000
    C125     C        0.70250    0.81300    0.74720    1.000
    C126     C        0.70740    0.77750    0.74710    1.000
    H93      H        0.73470    0.78070    0.75070    1.000
    C127     C        0.67230    0.73740    0.74180    1.000
    H94      H        0.67600    0.71350    0.74010    1.000
    C128     C        0.63320    0.73190    0.73890    1.000
    H95      H        0.60950    0.70430    0.73570    1.000
    C129     C        0.62760    0.76630    0.74050    1.000
    H96      H        0.59990    0.76230    0.73890    1.000
    C130     C        0.66120    0.80580    0.74430    1.000
    H97      H        0.65670    0.82920    0.74510    1.000
    C131     C        0.76700    0.86600    0.81300    1.000
    C132     C        0.80750    0.90000    0.82400    1.000
    H98      H        0.82450    0.91990    0.80010    1.000
    C133     C        0.82140    0.90260    0.87290    1.000
    H99      H        0.84850    0.92500    0.88150    1.000
    C134     C        0.79780    0.87450    0.90770    1.000
    H100     H        0.80800    0.87810    0.94000    1.000
    C135     C        0.75900    0.84090    0.89630    1.000
    H101     H        0.74270    0.82040    0.92020    1.000
    C136     C        0.74350    0.83710    0.84810    1.000
    H102     H        0.71640    0.81420    0.84010    1.000
    C137     C        0.46190    0.83110    0.72550    1.000
    C138     C        0.46570    0.83540    0.67660    1.000
    H103     H        0.47660    0.86220    0.66170    1.000
    C139     C        0.45330    0.79940    0.64870    1.000
    H104     H        0.45680    0.80230    0.61440    1.000
    C140     C        0.43710    0.76200    0.66720    1.000
    H105     H        0.42860    0.73830    0.64650    1.000
    C141     C        0.43220    0.75640    0.71520    1.000
    H106     H        0.42050    0.72890    0.72880    1.000
    C142     C        0.44460    0.79210    0.74600    1.000
    H107     H        0.44090    0.78880    0.78020    1.000
    C143     C        0.46040    0.90650    0.73570    1.000
    C144     C        0.48510    0.94670    0.72120    1.000
    H108     H        0.51480    0.96000    0.72530    1.000
    C145     C        0.46720    0.96960    0.69990    1.000
    H109     H        0.48490    0.99750    0.68840    1.000
    C146     C        0.42450    0.95110    0.69610    1.000
    H110     H        0.41190    0.96720    0.68640    1.000
    C147     C        0.39980    0.90890    0.70640    1.000
    H111     H        0.37060    0.89440    0.69850    1.000
    C148     C        0.41790    0.88740    0.72850    1.000
    H112     H        0.40040    0.85900    0.73870    1.000
    O4       O        0.86290    0.88770    0.72320    1.000
    Ag5      Ag       0.46413    0.20647    0.01940    1.000
    P9       P        0.41541    0.19770    0.08495    1.000
    P10      P        0.14674    0.20972    0.09983    1.000
    C149     C        0.33917    0.31333    0.07723    1.000
    C150     C        0.36057    0.28743    0.08323    1.000
    C151     C        0.37407    0.27673    0.04063    1.000
    H113     H        0.37187    0.28813    0.01053    1.000
    C152     C        0.39037    0.25003    0.04113    1.000
    H114     H        0.39867    0.24283    0.01163    1.000
    C153     C        0.39497    0.23363    0.08583    1.000
    C154     C        0.38357    0.24563    0.12713    1.000
    H115     H        0.38727    0.23613    0.15793    1.000
    C155     C        0.36597    0.27253    0.12423    1.000
    H116     H        0.35787    0.28023    0.15353    1.000
    C156     C        0.29197    0.28733    0.08313    1.000
    C157     C        0.26727    0.27433    0.04273    1.000
    H117     H        0.27957    0.28193    0.01133    1.000
    C158     C        0.22307    0.24943    0.04803    1.000
    H118     H        0.20637    0.23953    0.01943    1.000
    C159     C        0.20337    0.23903    0.09163    1.000
    C160     C        0.22777    0.25063    0.13183    1.000
    H119     H        0.21487    0.24203    0.16283    1.000
    C161     C        0.27127    0.27463    0.12863    1.000
    H120     H        0.28757    0.28293    0.15753    1.000
    C162     C        0.36917    0.14633    0.08053    1.000
    C163     C        0.37407    0.11083    0.08043    1.000
    H121     H        0.40137    0.11403    0.08403    1.000
    C164     C        0.33897    0.07073    0.07513    1.000
    H122     H        0.34267    0.04683    0.07343    1.000
    C165     C        0.29987    0.06523    0.07223    1.000
    H123     H        0.27617    0.03763    0.06903    1.000
    C166     C        0.29427    0.09963    0.07383    1.000
    H124     H        0.26657    0.09563    0.07223    1.000
    C167     C        0.32787    0.13913    0.07763    1.000
    H125     H        0.32337    0.16253    0.07843    1.000
    C168     C        0.43367    0.19933    0.14633    1.000
    C169     C        0.47417    0.23333    0.15733    1.000
    H126     H        0.49117    0.25323    0.13343    1.000
    C170     C        0.48807    0.23593    0.20623    1.000
    H127     H        0.51517    0.25833    0.21483    1.000
    C171     C        0.46447    0.20783    0.24103    1.000
    H128     H        0.47467    0.21143    0.27333    1.000
    C172     C        0.42567    0.17423    0.22963    1.000
    H129     H        0.40937    0.15373    0.25353    1.000
    C173     C        0.41017    0.17043    0.18143    1.000
    H130     H        0.38307    0.14753    0.17343    1.000
    C174     C        0.12857    0.16443    0.05883    1.000
    C175     C        0.13237    0.16873    0.00993    1.000
    H131     H        0.14327    0.19553    0.99503    1.000
    C176     C        0.11997    0.13273    0.98203    1.000
    H132     H        0.12347    0.13563    0.94773    1.000
    C177     C        0.10377    0.09533    0.00053    1.000
    H133     H        0.09527    0.07163    0.97983    1.000
    C178     C        0.09887    0.08973    0.04853    1.000
    H134     H        0.08717    0.06223    0.06213    1.000
    C179     C        0.11127    0.12543    0.07933    1.000
    H135     H        0.10757    0.12213    0.11353    1.000
    C180     C        0.12707    0.23983    0.06903    1.000
    C181     C        0.15177    0.28003    0.05453    1.000
    H136     H        0.18147    0.29333    0.05863    1.000
    C182     C        0.13387    0.30293    0.03323    1.000
    H137     H        0.15157    0.33083    0.02173    1.000
    C183     C        0.09117    0.28443    0.02943    1.000
    H138     H        0.07857    0.30053    0.01973    1.000
    C184     C        0.06647    0.24223    0.03973    1.000
    H139     H        0.03727    0.22773    0.03183    1.000
    C185     C        0.08457    0.22073    0.06183    1.000
    H140     H        0.06707    0.19233    0.07203    1.000
    O5       O        0.52957    0.22103    0.05653    1.000
    Ag6      Ag       0.13079    0.53981    0.35274    1.000
    P11      P        0.08207    0.53104    0.41829    1.000
    P12      P        0.81340    0.54306    0.43317    1.000
    C186     C        0.00583    0.64667    0.41057    1.000
    C187     C        0.02723    0.62077    0.41657    1.000
    C188     C        0.04073    0.61007    0.37397    1.000
    H141     H        0.03853    0.62147    0.34387    1.000
    C189     C        0.05703    0.58337    0.37447    1.000
    H142     H        0.06533    0.57617    0.34497    1.000
    C190     C        0.06163    0.56697    0.41917    1.000
    C191     C        0.05023    0.57897    0.46047    1.000
    H143     H        0.05393    0.56947    0.49127    1.000
    C192     C        0.03263    0.60587    0.45757    1.000
    H144     H        0.02453    0.61357    0.48687    1.000
    C193     C        0.95863    0.62067    0.41647    1.000
    C194     C        0.93393    0.60767    0.37607    1.000
    H145     H        0.94623    0.61527    0.34467    1.000
    C195     C        0.88973    0.58277    0.38137    1.000
    H146     H        0.87303    0.57287    0.35277    1.000
    C196     C        0.87003    0.57237    0.42497    1.000
    C197     C        0.89443    0.58397    0.46517    1.000
    H147     H        0.88153    0.57537    0.49617    1.000
    C198     C        0.93793    0.60797    0.46197    1.000
    H148     H        0.95423    0.61627    0.49087    1.000
    C199     C        0.03583    0.47967    0.41387    1.000
    C200     C        0.04073    0.44417    0.41377    1.000
    H149     H        0.06803    0.44737    0.41737    1.000
    C201     C        0.00563    0.40407    0.40847    1.000
    H150     H        0.00933    0.38017    0.40677    1.000
    C202     C        0.96653    0.39857    0.40557    1.000
    H151     H        0.94283    0.37097    0.40237    1.000
    C203     C        0.96093    0.43297    0.40717    1.000
    H152     H        0.93323    0.42897    0.40557    1.000
    C204     C        0.99453    0.47247    0.41097    1.000
    H153     H        0.99003    0.49587    0.41177    1.000
    C205     C        0.10033    0.53267    0.47967    1.000
    C206     C        0.14083    0.56667    0.49067    1.000
    H154     H        0.15783    0.58657    0.46677    1.000
    C207     C        0.15473    0.56927    0.53957    1.000
    H155     H        0.18183    0.59167    0.54817    1.000
    C208     C        0.13113    0.54117    0.57437    1.000
    H156     H        0.14133    0.54477    0.60667    1.000
    C209     C        0.09233    0.50757    0.56297    1.000
    H157     H        0.07603    0.48707    0.58687    1.000
    C210     C        0.07683    0.50377    0.51477    1.000
    H158     H        0.04973    0.48087    0.50677    1.000
    C211     C        0.79523    0.49777    0.39217    1.000
    C212     C        0.79903    0.50207    0.34327    1.000
    H159     H        0.80993    0.52887    0.32837    1.000
    C213     C        0.78663    0.46607    0.31537    1.000
    H160     H        0.79013    0.46897    0.28107    1.000
    C214     C        0.77043    0.42867    0.33387    1.000
    H161     H        0.76193    0.40497    0.31317    1.000
    C215     C        0.76553    0.42307    0.38187    1.000
    H162     H        0.75383    0.39557    0.39547    1.000
    C216     C        0.77793    0.45877    0.41267    1.000
    H163     H        0.77423    0.45547    0.44687    1.000
    C217     C        0.79373    0.57317    0.40237    1.000
    C218     C        0.81843    0.61337    0.38787    1.000
    H164     H        0.84813    0.62667    0.39197    1.000
    C219     C        0.80053    0.63627    0.36657    1.000
    H165     H        0.81823    0.66417    0.35507    1.000
    C220     C        0.75783    0.61777    0.36277    1.000
    H166     H        0.74523    0.63387    0.35307    1.000
    C221     C        0.73313    0.57557    0.37307    1.000
    H167     H        0.70393    0.56107    0.36517    1.000
    C222     C        0.75123    0.55407    0.39517    1.000
    H168     H        0.73373    0.52567    0.40537    1.000
    O6       O        0.19623    0.55437    0.38987    1.000
    Ag7      Ag       0.12686    0.92432    0.68607    1.000
    P13      P        0.13563    0.88437    0.75162    1.000
    P14      P        0.12361    0.60368    0.76650    1.000
    C223     C        0.02000    0.69250    0.74390    1.000
    C224     C        0.04590    0.73980    0.74990    1.000
    C225     C        0.05660    0.76400    0.70730    1.000
    H169     H        0.04520    0.75040    0.67720    1.000
    C226     C        0.08330    0.80700    0.70780    1.000
    H170     H        0.09050    0.82250    0.67830    1.000
    C227     C        0.09970    0.82800    0.75250    1.000
    C228     C        0.08770    0.80460    0.79380    1.000
    H171     H        0.09720    0.81780    0.82460    1.000
    C229     C        0.06080    0.76010    0.79090    1.000
    H172     H        0.05310    0.74430    0.82020    1.000
    C230     C        0.04600    0.67130    0.74980    1.000
    C231     C        0.05900    0.65960    0.70940    1.000
    H173     H        0.05140    0.66430    0.67800    1.000
    C232     C        0.08390    0.64030    0.71470    1.000
    H174     H        0.09380    0.63350    0.68610    1.000
    C233     C        0.09430    0.63100    0.75830    1.000
    C234     C        0.08270    0.64380    0.79850    1.000
    H175     H        0.09130    0.63950    0.82950    1.000
    C235     C        0.05870    0.66330    0.79530    1.000
    H176     H        0.05040    0.67130    0.82420    1.000
    C236     C        0.18700    0.88950    0.74720    1.000
    C237     C        0.22250    0.92990    0.74710    1.000
    H177     H        0.21930    0.95400    0.75070    1.000
    C238     C        0.26260    0.93490    0.74180    1.000
    H178     H        0.28650    0.96250    0.74010    1.000
    C239     C        0.26810    0.90130    0.73890    1.000
    H179     H        0.29570    0.90520    0.73570    1.000
    C240     C        0.23370    0.86130    0.74050    1.000
    H180     H        0.23770    0.83760    0.73890    1.000
    C241     C        0.19420    0.85540    0.74430    1.000
    H181     H        0.17080    0.82750    0.74510    1.000
    C242     C        0.13400    0.90100    0.81300    1.000
    C243     C        0.10000    0.90750    0.82400    1.000
    H182     H        0.08010    0.90460    0.80010    1.000
    C244     C        0.09740    0.91880    0.87290    1.000
    H183     H        0.07500    0.92350    0.88150    1.000
    C245     C        0.12550    0.92330    0.90770    1.000
    H184     H        0.12190    0.92990    0.94000    1.000
    C246     C        0.15910    0.91810    0.89630    1.000
    H185     H        0.17960    0.92230    0.92020    1.000
    C247     C        0.16290    0.90640    0.84810    1.000
    H186     H        0.18580    0.90220    0.84010    1.000
    C248     C        0.16890    0.63080    0.72550    1.000
    C249     C        0.16460    0.63030    0.67660    1.000
    H187     H        0.13780    0.61440    0.66170    1.000
    C250     C        0.20060    0.65390    0.64870    1.000
    H188     H        0.19770    0.65450    0.61440    1.000
    C251     C        0.23800    0.67510    0.66720    1.000
    H189     H        0.26170    0.69030    0.64650    1.000
    C252     C        0.24360    0.67580    0.71520    1.000
    H190     H        0.27110    0.69160    0.72880    1.000
    C253     C        0.20790    0.65250    0.74600    1.000
    H191     H        0.21120    0.65210    0.78020    1.000
    C254     C        0.09350    0.55390    0.73570    1.000
    C255     C        0.05330    0.53840    0.72120    1.000
    H192     H        0.04000    0.55480    0.72530    1.000
    C256     C        0.03040    0.49760    0.69990    1.000
    H193     H        0.00250    0.48740    0.68840    1.000
    C257     C        0.04890    0.47340    0.69610    1.000
    H194     H        0.03280    0.44470    0.68640    1.000
    C258     C        0.09110    0.49090    0.70640    1.000
    H195     H        0.10560    0.47620    0.69850    1.000
    C259     C        0.11260    0.53050    0.72850    1.000
    H196     H        0.14100    0.54140    0.73870    1.000
    O7       O        0.11230    0.97520    0.72320    1.000
    Ag8      Ag       0.79353    0.25765    0.01940    1.000
    P15      P        0.80230    0.21770    0.08495    1.000
    P16      P        0.79028    0.93701    0.09983    1.000
    C260     C        0.68667    0.02583    0.07723    1.000
    C261     C        0.71257    0.07313    0.08323    1.000
    C262     C        0.72327    0.09733    0.04063    1.000
    H197     H        0.71187    0.08373    0.01053    1.000
    C263     C        0.74997    0.14033    0.04113    1.000
    H198     H        0.75717    0.15583    0.01163    1.000
    C264     C        0.76637    0.16133    0.08583    1.000
    C265     C        0.75437    0.13793    0.12713    1.000
    H199     H        0.76387    0.15113    0.15793    1.000
    C266     C        0.72747    0.09343    0.12423    1.000
    H200     H        0.71977    0.07763    0.15353    1.000
    C267     C        0.71267    0.00463    0.08313    1.000
    C268     C        0.72567    0.99293    0.04273    1.000
    H201     H        0.71807    0.99763    0.01133    1.000
    C269     C        0.75057    0.97363    0.04803    1.000
    H202     H        0.76047    0.96683    0.01943    1.000
    C270     C        0.76097    0.96433    0.09163    1.000
    C271     C        0.74937    0.97713    0.13183    1.000
    H203     H        0.75797    0.97283    0.16283    1.000
    C272     C        0.72537    0.99663    0.12863    1.000
    H204     H        0.71707    0.00463    0.15753    1.000
    C273     C        0.85367    0.22283    0.08053    1.000
    C274     C        0.88917    0.26323    0.08043    1.000
    H205     H        0.88597    0.28733    0.08403    1.000
    C275     C        0.92927    0.26823    0.07513    1.000
    H206     H        0.95317    0.29583    0.07343    1.000
    C276     C        0.93477    0.23463    0.07223    1.000
    H207     H        0.96237    0.23853    0.06903    1.000
    C277     C        0.90037    0.19463    0.07383    1.000
    H208     H        0.90437    0.17093    0.07223    1.000
    C278     C        0.86087    0.18873    0.07763    1.000
    H209     H        0.83747    0.16083    0.07843    1.000
    C279     C        0.80067    0.23433    0.14633    1.000
    C280     C        0.76667    0.24083    0.15733    1.000
    H210     H        0.74677    0.23793    0.13343    1.000
    C281     C        0.76407    0.25213    0.20623    1.000
    H211     H        0.74167    0.25683    0.21483    1.000
    C282     C        0.79217    0.25663    0.24103    1.000
    H212     H        0.78857    0.26323    0.27333    1.000
    C283     C        0.82577    0.25143    0.22963    1.000
    H213     H        0.84627    0.25563    0.25353    1.000
    C284     C        0.82957    0.23973    0.18143    1.000
    H214     H        0.85247    0.23553    0.17343    1.000
    C285     C        0.83557    0.96413    0.05883    1.000
    C286     C        0.83127    0.96363    0.00993    1.000
    H215     H        0.80447    0.94773    0.99503    1.000
    C287     C        0.86727    0.98723    0.98203    1.000
    H216     H        0.86437    0.98783    0.94773    1.000
    C288     C        0.90467    0.00843    0.00053    1.000
    H217     H        0.92837    0.02363    0.97983    1.000
    C289     C        0.91027    0.00913    0.04853    1.000
    H218     H        0.93777    0.02493    0.06213    1.000
    C290     C        0.87457    0.98583    0.07933    1.000
    H219     H        0.87787    0.98543    0.11353    1.000
    C291     C        0.76017    0.88723    0.06903    1.000
    C292     C        0.71997    0.87173    0.05453    1.000
    H220     H        0.70667    0.88813    0.05863    1.000
    C293     C        0.69707    0.83093    0.03323    1.000
    H221     H        0.66917    0.82073    0.02173    1.000
    C294     C        0.71557    0.80673    0.02943    1.000
    H222     H        0.69947    0.77803    0.01973    1.000
    C295     C        0.75777    0.82423    0.03973    1.000
    H223     H        0.77227    0.80953    0.03183    1.000
    C296     C        0.77927    0.86383    0.06183    1.000
    H224     H        0.80767    0.87473    0.07203    1.000
    O8       O        0.77897    0.30853    0.05653    1.000
    Ag9      Ag       0.46019    0.59099    0.35274    1.000
    P17      P        0.46896    0.55104    0.41829    1.000
    P18      P        0.45694    0.27035    0.43317    1.000
    C297     C        0.35333    0.35917    0.41057    1.000
    C298     C        0.37923    0.40647    0.41657    1.000
    C299     C        0.38993    0.43067    0.37397    1.000
    H225     H        0.37853    0.41707    0.34387    1.000
    C300     C        0.41663    0.47367    0.37447    1.000
    H226     H        0.42383    0.48917    0.34497    1.000
    C301     C        0.43303    0.49467    0.41917    1.000
    C302     C        0.42103    0.47127    0.46047    1.000
    H227     H        0.43053    0.48447    0.49127    1.000
    C303     C        0.39413    0.42677    0.45757    1.000
    H228     H        0.38643    0.41097    0.48687    1.000
    C304     C        0.37933    0.33797    0.41647    1.000
    C305     C        0.39233    0.32627    0.37607    1.000
    H229     H        0.38473    0.33097    0.34467    1.000
    C306     C        0.41723    0.30697    0.38137    1.000
    H230     H        0.42713    0.30017    0.35277    1.000
    C307     C        0.42763    0.29767    0.42497    1.000
    C308     C        0.41603    0.31047    0.46517    1.000
    H231     H        0.42463    0.30617    0.49617    1.000
    C309     C        0.39203    0.32997    0.46197    1.000
    H232     H        0.38373    0.33797    0.49087    1.000
    C310     C        0.52033    0.55617    0.41387    1.000
    C311     C        0.55583    0.59657    0.41377    1.000
    H233     H        0.55263    0.62067    0.41737    1.000
    C312     C        0.59593    0.60157    0.40847    1.000
    H234     H        0.61983    0.62917    0.40677    1.000
    C313     C        0.60143    0.56797    0.40557    1.000
    H235     H        0.62903    0.57187    0.40237    1.000
    C314     C        0.56703    0.52797    0.40717    1.000
    H236     H        0.57103    0.50427    0.40557    1.000
    C315     C        0.52753    0.52207    0.41097    1.000
    H237     H        0.50413    0.49417    0.41177    1.000
    C316     C        0.46733    0.56767    0.47967    1.000
    C317     C        0.43333    0.57417    0.49067    1.000
    H238     H        0.41343    0.57127    0.46677    1.000
    C318     C        0.43073    0.58547    0.53957    1.000
    H239     H        0.40833    0.59017    0.54817    1.000
    C319     C        0.45883    0.58997    0.57437    1.000
    H240     H        0.45523    0.59657    0.60667    1.000
    C320     C        0.49243    0.58477    0.56297    1.000
    H241     H        0.51293    0.58897    0.58687    1.000
    C321     C        0.49623    0.57307    0.51477    1.000
    H242     H        0.51913    0.56887    0.50677    1.000
    C322     C        0.50223    0.29747    0.39217    1.000
    C323     C        0.49793    0.29697    0.34327    1.000
    H243     H        0.47113    0.28107    0.32837    1.000
    C324     C        0.53393    0.32057    0.31537    1.000
    H244     H        0.53103    0.32117    0.28107    1.000
    C325     C        0.57133    0.34177    0.33387    1.000
    H245     H        0.59503    0.35697    0.31317    1.000
    C326     C        0.57693    0.34247    0.38187    1.000
    H246     H        0.60443    0.35827    0.39547    1.000
    C327     C        0.54123    0.31917    0.41267    1.000
    H247     H        0.54453    0.31877    0.44687    1.000
    C328     C        0.42683    0.22057    0.40237    1.000
    C329     C        0.38663    0.20507    0.38787    1.000
    H248     H        0.37333    0.22147    0.39197    1.000
    C330     C        0.36373    0.16427    0.36657    1.000
    H249     H        0.33583    0.15407    0.35507    1.000
    C331     C        0.38223    0.14007    0.36277    1.000
    H250     H        0.36613    0.11137    0.35307    1.000
    C332     C        0.42443    0.15757    0.37307    1.000
    H251     H        0.43893    0.14287    0.36517    1.000
    C333     C        0.44593    0.19717    0.39517    1.000
    H252     H        0.47433    0.20807    0.40537    1.000
    O9       O        0.44563    0.64187    0.38987    1.000
    Ag10     Ag       0.20254    0.07568    0.81393    1.000
    P19      P        0.25126    0.11563    0.74838    1.000
    P20      P        0.51993    0.39632    0.73350    1.000
    C334     C        0.32750    0.30750    0.75610    1.000
    C335     C        0.30610    0.26020    0.75010    1.000
    C336     C        0.29260    0.23600    0.79270    1.000
    H253     H        0.29480    0.24960    0.82280    1.000
    C337     C        0.27630    0.19300    0.79220    1.000
    H254     H        0.26800    0.17750    0.82170    1.000
    C338     C        0.27170    0.17200    0.74750    1.000
    C339     C        0.28310    0.19540    0.70620    1.000
    H255     H        0.27940    0.18220    0.67540    1.000
    C340     C        0.30070    0.23990    0.70910    1.000
    H256     H        0.30880    0.25570    0.67980    1.000
    C341     C        0.37470    0.32870    0.75020    1.000
    C342     C        0.39940    0.34040    0.79060    1.000
    H257     H        0.38710    0.33570    0.82200    1.000
    C343     C        0.44360    0.35970    0.78530    1.000
    H258     H        0.46030    0.36650    0.81390    1.000
    C344     C        0.46330    0.36900    0.74170    1.000
    C345     C        0.43890    0.35620    0.70150    1.000
    H259     H        0.45180    0.36050    0.67050    1.000
    C346     C        0.39540    0.33670    0.70470    1.000
    H260     H        0.37910    0.32870    0.67580    1.000
    C347     C        0.29750    0.11050    0.75280    1.000
    C348     C        0.29260    0.07010    0.75290    1.000
    H261     H        0.26530    0.04600    0.74930    1.000
    C349     C        0.32770    0.06510    0.75820    1.000
    H262     H        0.32400    0.03750    0.75990    1.000
    C350     C        0.36680    0.09870    0.76110    1.000
    H263     H        0.39050    0.09480    0.76430    1.000
    C351     C        0.37240    0.13870    0.75950    1.000
    H264     H        0.40010    0.16240    0.76110    1.000
    C352     C        0.33880    0.14460    0.75570    1.000
    H265     H        0.34330    0.17250    0.75490    1.000
    C353     C        0.23300    0.09900    0.68700    1.000
    C354     C        0.19250    0.09250    0.67600    1.000
    H266     H        0.17550    0.09540    0.69990    1.000
    C355     C        0.17860    0.08120    0.62710    1.000
    H267     H        0.15150    0.07650    0.61850    1.000
    C356     C        0.20220    0.07670    0.59230    1.000
    H268     H        0.19200    0.07010    0.56000    1.000
    C357     C        0.24100    0.08190    0.60370    1.000
    H269     H        0.25730    0.07770    0.57980    1.000
    C358     C        0.25650    0.09360    0.65190    1.000
    H270     H        0.28360    0.09780    0.65990    1.000
    C359     C        0.53810    0.36920    0.77450    1.000
    C360     C        0.53430    0.36970    0.82340    1.000
    H271     H        0.52340    0.38560    0.83830    1.000
    C361     C        0.54670    0.34610    0.85130    1.000
    H272     H        0.54320    0.34550    0.88560    1.000
    C362     C        0.56290    0.32490    0.83280    1.000
    H273     H        0.57140    0.30970    0.85350    1.000
    C363     C        0.56780    0.32420    0.78480    1.000
    H274     H        0.57950    0.30840    0.77120    1.000
    C364     C        0.55540    0.34750    0.75400    1.000
    H275     H        0.55910    0.34790    0.71980    1.000
    C365     C        0.53960    0.44610    0.76430    1.000
    C366     C        0.51490    0.46160    0.77880    1.000
    H276     H        0.48520    0.44520    0.77470    1.000
    C367     C        0.53280    0.50240    0.80010    1.000
    H277     H        0.51510    0.51260    0.81160    1.000
    C368     C        0.57550    0.52660    0.80390    1.000
    H278     H        0.58810    0.55530    0.81360    1.000
    C369     C        0.60020    0.50910    0.79360    1.000
    H279     H        0.62940    0.52380    0.80150    1.000
    C370     C        0.58210    0.46950    0.77150    1.000
    H280     H        0.59960    0.45860    0.76130    1.000
    O10      O        0.13710    0.02480    0.77680    1.000
    Ag11     Ag       0.86921    0.40901    0.14726    1.000
    P21      P        0.91793    0.44896    0.08171    1.000
    P22      P        0.18660    0.72965    0.06683    1.000
    C371     C        0.99417    0.64083    0.08943    1.000
    C372     C        0.97277    0.59353    0.08343    1.000
    C373     C        0.95927    0.56933    0.12603    1.000
    H281     H        0.96147    0.58293    0.15613    1.000
    C374     C        0.94297    0.52633    0.12553    1.000
    H282     H        0.93467    0.51083    0.15503    1.000
    C375     C        0.93837    0.50533    0.08083    1.000
    C376     C        0.94977    0.52873    0.03953    1.000
    H283     H        0.94607    0.51553    0.00873    1.000
    C377     C        0.96737    0.57323    0.04243    1.000
    H284     H        0.97547    0.58903    0.01313    1.000
    C378     C        0.04137    0.66203    0.08353    1.000
    C379     C        0.06607    0.67373    0.12393    1.000
    H285     H        0.05377    0.66903    0.15533    1.000
    C380     C        0.11027    0.69303    0.11863    1.000
    H286     H        0.12697    0.69983    0.14723    1.000
    C381     C        0.12997    0.70233    0.07503    1.000
    C382     C        0.10557    0.68953    0.03483    1.000
    H287     H        0.11847    0.69383    0.00383    1.000
    C383     C        0.06207    0.67003    0.03803    1.000
    H288     H        0.04577    0.66203    0.00913    1.000
    C384     C        0.96417    0.44383    0.08613    1.000
    C385     C        0.95927    0.40343    0.08623    1.000
    H289     H        0.93197    0.37933    0.08263    1.000
    C386     C        0.99437    0.39843    0.09153    1.000
    H290     H        0.99067    0.37083    0.09323    1.000
    C387     C        0.03347    0.43203    0.09443    1.000
    H291     H        0.05717    0.42813    0.09763    1.000
    C388     C        0.03907    0.47203    0.09283    1.000
    H292     H        0.06677    0.49573    0.09443    1.000
    C389     C        0.00547    0.47793    0.08903    1.000
    H293     H        0.00997    0.50583    0.08823    1.000
    C390     C        0.89967    0.43233    0.02033    1.000
    C391     C        0.85917    0.42583    0.00933    1.000
    H294     H        0.84217    0.42873    0.03323    1.000
    C392     C        0.84527    0.41453    0.96043    1.000
    H295     H        0.81817    0.40983    0.95183    1.000
    C393     C        0.86887    0.41003    0.92563    1.000
    H296     H        0.85867    0.40343    0.89333    1.000
    C394     C        0.90767    0.41523    0.93703    1.000
    H297     H        0.92397    0.41103    0.91313    1.000
    C395     C        0.92317    0.42693    0.98523    1.000
    H298     H        0.95027    0.43113    0.99323    1.000
    C396     C        0.20477    0.70253    0.10783    1.000
    C397     C        0.20097    0.70303    0.15673    1.000
    H299     H        0.19007    0.71893    0.17163    1.000
    C398     C        0.21337    0.67943    0.18463    1.000
    H300     H        0.20987    0.67883    0.21893    1.000
    C399     C        0.22957    0.65823    0.16613    1.000
    H301     H        0.23807    0.64303    0.18683    1.000
    C400     C        0.23447    0.65753    0.11813    1.000
    H302     H        0.24617    0.64173    0.10453    1.000
    C401     C        0.22207    0.68083    0.08733    1.000
    H303     H        0.22577    0.68123    0.05313    1.000
    C402     C        0.20627    0.77943    0.09763    1.000
    C403     C        0.18157    0.79493    0.11213    1.000
    H304     H        0.15187    0.77853    0.10803    1.000
    C404     C        0.19947    0.83573    0.13343    1.000
    H305     H        0.18177    0.84593    0.14493    1.000
    C405     C        0.24217    0.85993    0.13723    1.000
    H306     H        0.25477    0.88863    0.14693    1.000
    C406     C        0.26687    0.84243    0.12693    1.000
    H307     H        0.29607    0.85713    0.13483    1.000
    C407     C        0.24877    0.80283    0.10483    1.000
    H308     H        0.26627    0.79193    0.09463    1.000
    O11      O        0.80377    0.35813    0.11013    1.000
    Ag12     Ag       0.53587    0.74235    0.48060    1.000
    P23      P        0.58459    0.78230    0.41505    1.000
    P24      P        0.85326    0.06299    0.40017    1.000
    C408     C        0.66083    0.97417    0.42277    1.000
    C409     C        0.63943    0.92687    0.41677    1.000
    C410     C        0.62593    0.90267    0.45937    1.000
    H309     H        0.62813    0.91627    0.48947    1.000
    C411     C        0.60963    0.85967    0.45887    1.000
    H310     H        0.60133    0.84417    0.48837    1.000
    C412     C        0.60503    0.83867    0.41417    1.000
    C413     C        0.61643    0.86207    0.37287    1.000
    H311     H        0.61273    0.84887    0.34207    1.000
    C414     C        0.63403    0.90657    0.37577    1.000
    H312     H        0.64213    0.92237    0.34647    1.000
    C415     C        0.70803    0.99537    0.41687    1.000
    C416     C        0.73273    0.00707    0.45727    1.000
    H313     H        0.72043    0.00237    0.48867    1.000
    C417     C        0.77693    0.02637    0.45197    1.000
    H314     H        0.79363    0.03317    0.48057    1.000
    C418     C        0.79663    0.03567    0.40837    1.000
    C419     C        0.77223    0.02287    0.36817    1.000
    H315     H        0.78513    0.02717    0.33717    1.000
    C420     C        0.72873    0.00337    0.37137    1.000
    H316     H        0.71243    0.99537    0.34247    1.000
    C421     C        0.63083    0.77717    0.41947    1.000
    C422     C        0.62593    0.73677    0.41957    1.000
    H317     H        0.59863    0.71267    0.41597    1.000
    C423     C        0.66103    0.73177    0.42487    1.000
    H318     H        0.65733    0.70417    0.42657    1.000
    C424     C        0.70013    0.76537    0.42777    1.000
    H319     H        0.72383    0.76147    0.43097    1.000
    C425     C        0.70573    0.80537    0.42617    1.000
    H320     H        0.73343    0.82907    0.42777    1.000
    C426     C        0.67213    0.81127    0.42237    1.000
    H321     H        0.67663    0.83917    0.42157    1.000
    C427     C        0.56633    0.76567    0.35367    1.000
    C428     C        0.52583    0.75917    0.34267    1.000
    H322     H        0.50883    0.76207    0.36657    1.000
    C429     C        0.51193    0.74787    0.29377    1.000
    H323     H        0.48483    0.74317    0.28517    1.000
    C430     C        0.53553    0.74337    0.25897    1.000
    H324     H        0.52533    0.73677    0.22667    1.000
    C431     C        0.57433    0.74857    0.27037    1.000
    H325     H        0.59063    0.74437    0.24647    1.000
    C432     C        0.58983    0.76027    0.31857    1.000
    H326     H        0.61693    0.76447    0.32657    1.000
    C433     C        0.87143    0.03587    0.44117    1.000
    C434     C        0.86763    0.03637    0.49007    1.000
    H327     H        0.85673    0.05227    0.50497    1.000
    C435     C        0.88003    0.01277    0.51797    1.000
    H328     H        0.87653    0.01217    0.55227    1.000
    C436     C        0.89623    0.99157    0.49947    1.000
    H329     H        0.90473    0.97637    0.52017    1.000
    C437     C        0.90113    0.99087    0.45147    1.000
    H330     H        0.91283    0.97507    0.43787    1.000
    C438     C        0.88873    0.01417    0.42067    1.000
    H331     H        0.89243    0.01457    0.38647    1.000
    C439     C        0.87293    0.11277    0.43097    1.000
    C440     C        0.84823    0.12827    0.44547    1.000
    H332     H        0.81853    0.11187    0.44137    1.000
    C441     C        0.86613    0.16907    0.46677    1.000
    H333     H        0.84843    0.17927    0.47827    1.000
    C442     C        0.90883    0.19327    0.47057    1.000
    H334     H        0.92143    0.22197    0.48027    1.000
    C443     C        0.93353    0.17577    0.46027    1.000
    H335     H        0.96273    0.19047    0.46817    1.000
    C444     C        0.91543    0.13617    0.43817    1.000
    H336     H        0.93293    0.12527    0.42797    1.000
    O12      O        0.47043    0.69147    0.44347    1.000
    Ag13     Ag       0.87314    0.79746    0.81393    1.000
    P25      P        0.86437    0.74874    0.74838    1.000
    P26      P        0.87639    0.48007    0.73350    1.000
    C445     C        0.98000    0.67250    0.75610    1.000
    C446     C        0.95410    0.69390    0.75010    1.000
    C447     C        0.94340    0.70740    0.79270    1.000
    H337     H        0.95480    0.70520    0.82280    1.000
    C448     C        0.91670    0.72370    0.79220    1.000
    H338     H        0.90950    0.73200    0.82170    1.000
    C449     C        0.90030    0.72830    0.74750    1.000
    C450     C        0.91230    0.71690    0.70620    1.000
    H339     H        0.90280    0.72060    0.67540    1.000
    C451     C        0.93920    0.69930    0.70910    1.000
    H340     H        0.94690    0.69120    0.67980    1.000
    C452     C        0.95400    0.62530    0.75020    1.000
    C453     C        0.94100    0.60060    0.79060    1.000
    H341     H        0.94860    0.61290    0.82200    1.000
    C454     C        0.91610    0.55640    0.78530    1.000
    H342     H        0.90620    0.53970    0.81390    1.000
    C455     C        0.90570    0.53670    0.74170    1.000
    C456     C        0.91730    0.56110    0.70150    1.000
    H343     H        0.90870    0.54820    0.67050    1.000
    C457     C        0.94130    0.60460    0.70470    1.000
    H344     H        0.94960    0.62090    0.67580    1.000
    C458     C        0.81300    0.70250    0.75280    1.000
    C459     C        0.77750    0.70740    0.75290    1.000
    H345     H        0.78070    0.73470    0.74930    1.000
    C460     C        0.73740    0.67230    0.75820    1.000
    H346     H        0.71350    0.67600    0.75990    1.000
    C461     C        0.73190    0.63320    0.76110    1.000
    H347     H        0.70430    0.60950    0.76430    1.000
    C462     C        0.76630    0.62760    0.75950    1.000
    H348     H        0.76230    0.59990    0.76110    1.000
    C463     C        0.80580    0.66120    0.75570    1.000
    H349     H        0.82920    0.65670    0.75490    1.000
    C464     C        0.86600    0.76700    0.68700    1.000
    C465     C        0.90000    0.80750    0.67600    1.000
    H350     H        0.91990    0.82450    0.69990    1.000
    C466     C        0.90260    0.82140    0.62710    1.000
    H351     H        0.92500    0.84850    0.61850    1.000
    C467     C        0.87450    0.79780    0.59230    1.000
    H352     H        0.87810    0.80800    0.56000    1.000
    C468     C        0.84090    0.75900    0.60370    1.000
    H353     H        0.82040    0.74270    0.57980    1.000
    C469     C        0.83710    0.74350    0.65190    1.000
    H354     H        0.81420    0.71640    0.65990    1.000
    C470     C        0.83110    0.46190    0.77450    1.000
    C471     C        0.83540    0.46570    0.82340    1.000
    H355     H        0.86220    0.47660    0.83830    1.000
    C472     C        0.79940    0.45330    0.85130    1.000
    H356     H        0.80230    0.45680    0.88560    1.000
    C473     C        0.76200    0.43710    0.83280    1.000
    H357     H        0.73830    0.42860    0.85350    1.000
    C474     C        0.75640    0.43220    0.78480    1.000
    H358     H        0.72890    0.42050    0.77120    1.000
    C475     C        0.79210    0.44460    0.75400    1.000
    H359     H        0.78880    0.44090    0.71980    1.000
    C476     C        0.90650    0.46040    0.76430    1.000
    C477     C        0.94670    0.48510    0.77880    1.000
    H360     H        0.96000    0.51480    0.77470    1.000
    C478     C        0.96960    0.46720    0.80010    1.000
    H361     H        0.99750    0.48490    0.81160    1.000
    C479     C        0.95110    0.42450    0.80390    1.000
    H362     H        0.96720    0.41190    0.81360    1.000
    C480     C        0.90890    0.39980    0.79360    1.000
    H363     H        0.89440    0.37060    0.80150    1.000
    C481     C        0.88740    0.41790    0.77150    1.000
    H364     H        0.85900    0.40040    0.76130    1.000
    O13      O        0.88770    0.86290    0.77680    1.000
    Ag14     Ag       0.53981    0.13079    0.14726    1.000
    P27      P        0.53104    0.08207    0.08171    1.000
    P28      P        0.54306    0.81340    0.06683    1.000
    C482     C        0.64667    0.00583    0.08943    1.000
    C483     C        0.62077    0.02723    0.08343    1.000
    C484     C        0.61007    0.04073    0.12603    1.000
    H365     H        0.62147    0.03853    0.15613    1.000
    C485     C        0.58337    0.05703    0.12553    1.000
    H366     H        0.57617    0.06533    0.15503    1.000
    C486     C        0.56697    0.06163    0.08083    1.000
    C487     C        0.57897    0.05023    0.03953    1.000
    H367     H        0.56947    0.05393    0.00873    1.000
    C488     C        0.60587    0.03263    0.04243    1.000
    H368     H        0.61357    0.02453    0.01313    1.000
    C489     C        0.62067    0.95863    0.08353    1.000
    C490     C        0.60767    0.93393    0.12393    1.000
    H369     H        0.61527    0.94623    0.15533    1.000
    C491     C        0.58277    0.88973    0.11863    1.000
    H370     H        0.57287    0.87303    0.14723    1.000
    C492     C        0.57237    0.87003    0.07503    1.000
    C493     C        0.58397    0.89443    0.03483    1.000
    H371     H        0.57537    0.88153    0.00383    1.000
    C494     C        0.60797    0.93793    0.03803    1.000
    H372     H        0.61627    0.95423    0.00913    1.000
    C495     C        0.47967    0.03583    0.08613    1.000
    C496     C        0.44417    0.04073    0.08623    1.000
    H373     H        0.44737    0.06803    0.08263    1.000
    C497     C        0.40407    0.00563    0.09153    1.000
    H374     H        0.38017    0.00933    0.09323    1.000
    C498     C        0.39857    0.96653    0.09443    1.000
    H375     H        0.37097    0.94283    0.09763    1.000
    C499     C        0.43297    0.96093    0.09283    1.000
    H376     H        0.42897    0.93323    0.09443    1.000
    C500     C        0.47247    0.99453    0.08903    1.000
    H377     H        0.49587    0.99003    0.08823    1.000
    C501     C        0.53267    0.10033    0.02033    1.000
    C502     C        0.56667    0.14083    0.00933    1.000
    H378     H        0.58657    0.15783    0.03323    1.000
    C503     C        0.56927    0.15473    0.96043    1.000
    H379     H        0.59167    0.18183    0.95183    1.000
    C504     C        0.54117    0.13113    0.92563    1.000
    H380     H        0.54477    0.14133    0.89333    1.000
    C505     C        0.50757    0.09233    0.93703    1.000
    H381     H        0.48707    0.07603    0.91313    1.000
    C506     C        0.50377    0.07683    0.98523    1.000
    H382     H        0.48087    0.04973    0.99323    1.000
    C507     C        0.49777    0.79523    0.10783    1.000
    C508     C        0.50207    0.79903    0.15673    1.000
    H383     H        0.52887    0.80993    0.17163    1.000
    C509     C        0.46607    0.78663    0.18463    1.000
    H384     H        0.46897    0.79013    0.21893    1.000
    C510     C        0.42867    0.77043    0.16613    1.000
    H385     H        0.40497    0.76193    0.18683    1.000
    C511     C        0.42307    0.76553    0.11813    1.000
    H386     H        0.39557    0.75383    0.10453    1.000
    C512     C        0.45877    0.77793    0.08733    1.000
    H387     H        0.45547    0.77423    0.05313    1.000
    C513     C        0.57317    0.79373    0.09763    1.000
    C514     C        0.61337    0.81843    0.11213    1.000
    H388     H        0.62667    0.84813    0.10803    1.000
    C515     C        0.63627    0.80053    0.13343    1.000
    H389     H        0.66417    0.81823    0.14493    1.000
    C516     C        0.61777    0.75783    0.13723    1.000
    H390     H        0.63387    0.74523    0.14693    1.000
    C517     C        0.57557    0.73313    0.12693    1.000
    H391     H        0.56107    0.70393    0.13483    1.000
    C518     C        0.55407    0.75123    0.10483    1.000
    H392     H        0.52567    0.73373    0.09463    1.000
    O14      O        0.55437    0.19623    0.11013    1.000
    Ag15     Ag       0.20647    0.46413    0.48060    1.000
    P29      P        0.19770    0.41541    0.41505    1.000
    P30      P        0.20972    0.14674    0.40017    1.000
    C519     C        0.31333    0.33917    0.42277    1.000
    C520     C        0.28743    0.36057    0.41677    1.000
    C521     C        0.27673    0.37407    0.45937    1.000
    H393     H        0.28813    0.37187    0.48947    1.000
    C522     C        0.25003    0.39037    0.45887    1.000
    H394     H        0.24283    0.39867    0.48837    1.000
    C523     C        0.23363    0.39497    0.41417    1.000
    C524     C        0.24563    0.38357    0.37287    1.000
    H395     H        0.23613    0.38727    0.34207    1.000
    C525     C        0.27253    0.36597    0.37577    1.000
    H396     H        0.28023    0.35787    0.34647    1.000
    C526     C        0.28733    0.29197    0.41687    1.000
    C527     C        0.27433    0.26727    0.45727    1.000
    H397     H        0.28193    0.27957    0.48867    1.000
    C528     C        0.24943    0.22307    0.45197    1.000
    H398     H        0.23953    0.20637    0.48057    1.000
    C529     C        0.23903    0.20337    0.40837    1.000
    C530     C        0.25063    0.22777    0.36817    1.000
    H399     H        0.24203    0.21487    0.33717    1.000
    C531     C        0.27463    0.27127    0.37137    1.000
    H400     H        0.28293    0.28757    0.34247    1.000
    C532     C        0.14633    0.36917    0.41947    1.000
    C533     C        0.11083    0.37407    0.41957    1.000
    H401     H        0.11403    0.40137    0.41597    1.000
    C534     C        0.07073    0.33897    0.42487    1.000
    H402     H        0.04683    0.34267    0.42657    1.000
    C535     C        0.06523    0.29987    0.42777    1.000
    H403     H        0.03763    0.27617    0.43097    1.000
    C536     C        0.09963    0.29427    0.42617    1.000
    H404     H        0.09563    0.26657    0.42777    1.000
    C537     C        0.13913    0.32787    0.42237    1.000
    H405     H        0.16253    0.32337    0.42157    1.000
    C538     C        0.19933    0.43367    0.35367    1.000
    C539     C        0.23333    0.47417    0.34267    1.000
    H406     H        0.25323    0.49117    0.36657    1.000
    C540     C        0.23593    0.48807    0.29377    1.000
    H407     H        0.25833    0.51517    0.28517    1.000
    C541     C        0.20783    0.46447    0.25897    1.000
    H408     H        0.21143    0.47467    0.22667    1.000
    C542     C        0.17423    0.42567    0.27037    1.000
    H409     H        0.15373    0.40937    0.24647    1.000
    C543     C        0.17043    0.41017    0.31857    1.000
    H410     H        0.14753    0.38307    0.32657    1.000
    C544     C        0.16443    0.12857    0.44117    1.000
    C545     C        0.16873    0.13237    0.49007    1.000
    H411     H        0.19553    0.14327    0.50497    1.000
    C546     C        0.13273    0.11997    0.51797    1.000
    H412     H        0.13563    0.12347    0.55227    1.000
    C547     C        0.09533    0.10377    0.49947    1.000
    H413     H        0.07163    0.09527    0.52017    1.000
    C548     C        0.08973    0.09887    0.45147    1.000
    H414     H        0.06223    0.08717    0.43787    1.000
    C549     C        0.12543    0.11127    0.42067    1.000
    H415     H        0.12213    0.10757    0.38647    1.000
    C550     C        0.23983    0.12707    0.43097    1.000
    C551     C        0.28003    0.15177    0.44547    1.000
    H416     H        0.29333    0.18147    0.44137    1.000
    C552     C        0.30293    0.13387    0.46677    1.000
    H417     H        0.33083    0.15157    0.47827    1.000
    C553     C        0.28443    0.09117    0.47057    1.000
    H418     H        0.30053    0.07857    0.48027    1.000
    C554     C        0.24223    0.06647    0.46027    1.000
    H419     H        0.22773    0.03727    0.46817    1.000
    C555     C        0.22073    0.08457    0.43817    1.000
    H420     H        0.19233    0.06707    0.42797    1.000
    O15      O        0.22103    0.52957    0.44347    1.000
    Ag16     Ag       0.92432    0.12686    0.81393    1.000
    P31      P        0.88437    0.13563    0.74838    1.000
    P32      P        0.60368    0.12361    0.73350    1.000
    C556     C        0.69250    0.02000    0.75610    1.000
    C557     C        0.73980    0.04590    0.75010    1.000
    C558     C        0.76400    0.05660    0.79270    1.000
    H421     H        0.75040    0.04520    0.82280    1.000
    C559     C        0.80700    0.08330    0.79220    1.000
    H422     H        0.82250    0.09050    0.82170    1.000
    C560     C        0.82800    0.09970    0.74750    1.000
    C561     C        0.80460    0.08770    0.70620    1.000
    H423     H        0.81780    0.09720    0.67540    1.000
    C562     C        0.76010    0.06080    0.70910    1.000
    H424     H        0.74430    0.05310    0.67980    1.000
    C563     C        0.67130    0.04600    0.75020    1.000
    C564     C        0.65960    0.05900    0.79060    1.000
    H425     H        0.66430    0.05140    0.82200    1.000
    C565     C        0.64030    0.08390    0.78530    1.000
    H426     H        0.63350    0.09380    0.81390    1.000
    C566     C        0.63100    0.09430    0.74170    1.000
    C567     C        0.64380    0.08270    0.70150    1.000
    H427     H        0.63950    0.09130    0.67050    1.000
    C568     C        0.66330    0.05870    0.70470    1.000
    H428     H        0.67130    0.05040    0.67580    1.000
    C569     C        0.88950    0.18700    0.75280    1.000
    C570     C        0.92990    0.22250    0.75290    1.000
    H429     H        0.95400    0.21930    0.74930    1.000
    C571     C        0.93490    0.26260    0.75820    1.000
    H430     H        0.96250    0.28650    0.75990    1.000
    C572     C        0.90130    0.26810    0.76110    1.000
    H431     H        0.90520    0.29570    0.76430    1.000
    C573     C        0.86130    0.23370    0.75950    1.000
    H432     H        0.83760    0.23770    0.76110    1.000
    C574     C        0.85540    0.19420    0.75570    1.000
    H433     H        0.82750    0.17080    0.75490    1.000
    C575     C        0.90100    0.13400    0.68700    1.000
    C576     C        0.90750    0.10000    0.67600    1.000
    H434     H        0.90460    0.08010    0.69990    1.000
    C577     C        0.91880    0.09740    0.62710    1.000
    H435     H        0.92350    0.07500    0.61850    1.000
    C578     C        0.92330    0.12550    0.59230    1.000
    H436     H        0.92990    0.12190    0.56000    1.000
    C579     C        0.91810    0.15910    0.60370    1.000
    H437     H        0.92230    0.17960    0.57980    1.000
    C580     C        0.90640    0.16290    0.65190    1.000
    H438     H        0.90220    0.18580    0.65990    1.000
    C581     C        0.63080    0.16890    0.77450    1.000
    C582     C        0.63030    0.16460    0.82340    1.000
    H439     H        0.61440    0.13780    0.83830    1.000
    C583     C        0.65390    0.20060    0.85130    1.000
    H440     H        0.65450    0.19770    0.88560    1.000
    C584     C        0.67510    0.23800    0.83280    1.000
    H441     H        0.69030    0.26170    0.85350    1.000
    C585     C        0.67580    0.24360    0.78480    1.000
    H442     H        0.69160    0.27110    0.77120    1.000
    C586     C        0.65250    0.20790    0.75400    1.000
    H443     H        0.65210    0.21120    0.71980    1.000
    C587     C        0.55390    0.09350    0.76430    1.000
    C588     C        0.53840    0.05330    0.77880    1.000
    H444     H        0.55480    0.04000    0.77470    1.000
    C589     C        0.49760    0.03040    0.80010    1.000
    H445     H        0.48740    0.00250    0.81160    1.000
    C590     C        0.47340    0.04890    0.80390    1.000
    H446     H        0.44470    0.03280    0.81360    1.000
    C591     C        0.49090    0.09110    0.79360    1.000
    H447     H        0.47620    0.10560    0.80150    1.000
    C592     C        0.53050    0.11260    0.77150    1.000
    H448     H        0.54140    0.14100    0.76130    1.000
    O16      O        0.97520    0.11230    0.77680    1.000
    Ag17     Ag       0.59099    0.46019    0.14726    1.000
    P33      P        0.55104    0.46896    0.08171    1.000
    P34      P        0.27035    0.45694    0.06683    1.000
    C593     C        0.35917    0.35333    0.08943    1.000
    C594     C        0.40647    0.37923    0.08343    1.000
    C595     C        0.43067    0.38993    0.12603    1.000
    H449     H        0.41707    0.37853    0.15613    1.000
    C596     C        0.47367    0.41663    0.12553    1.000
    H450     H        0.48917    0.42383    0.15503    1.000
    C597     C        0.49467    0.43303    0.08083    1.000
    C598     C        0.47127    0.42103    0.03953    1.000
    H451     H        0.48447    0.43053    0.00873    1.000
    C599     C        0.42677    0.39413    0.04243    1.000
    H452     H        0.41097    0.38643    0.01313    1.000
    C600     C        0.33797    0.37933    0.08353    1.000
    C601     C        0.32627    0.39233    0.12393    1.000
    H453     H        0.33097    0.38473    0.15533    1.000
    C602     C        0.30697    0.41723    0.11863    1.000
    H454     H        0.30017    0.42713    0.14723    1.000
    C603     C        0.29767    0.42763    0.07503    1.000
    C604     C        0.31047    0.41603    0.03483    1.000
    H455     H        0.30617    0.42463    0.00383    1.000
    C605     C        0.32997    0.39203    0.03803    1.000
    H456     H        0.33797    0.38373    0.00913    1.000
    C606     C        0.55617    0.52033    0.08613    1.000
    C607     C        0.59657    0.55583    0.08623    1.000
    H457     H        0.62067    0.55263    0.08263    1.000
    C608     C        0.60157    0.59593    0.09153    1.000
    H458     H        0.62917    0.61983    0.09323    1.000
    C609     C        0.56797    0.60143    0.09443    1.000
    H459     H        0.57187    0.62903    0.09763    1.000
    C610     C        0.52797    0.56703    0.09283    1.000
    H460     H        0.50427    0.57103    0.09443    1.000
    C611     C        0.52207    0.52753    0.08903    1.000
    H461     H        0.49417    0.50413    0.08823    1.000
    C612     C        0.56767    0.46733    0.02033    1.000
    C613     C        0.57417    0.43333    0.00933    1.000
    H462     H        0.57127    0.41343    0.03323    1.000
    C614     C        0.58547    0.43073    0.96043    1.000
    H463     H        0.59017    0.40833    0.95183    1.000
    C615     C        0.58997    0.45883    0.92563    1.000
    H464     H        0.59657    0.45523    0.89333    1.000
    C616     C        0.58477    0.49243    0.93703    1.000
    H465     H        0.58897    0.51293    0.91313    1.000
    C617     C        0.57307    0.49623    0.98523    1.000
    H466     H        0.56887    0.51913    0.99323    1.000
    C618     C        0.29747    0.50223    0.10783    1.000
    C619     C        0.29697    0.49793    0.15673    1.000
    H467     H        0.28107    0.47113    0.17163    1.000
    C620     C        0.32057    0.53393    0.18463    1.000
    H468     H        0.32117    0.53103    0.21893    1.000
    C621     C        0.34177    0.57133    0.16613    1.000
    H469     H        0.35697    0.59503    0.18683    1.000
    C622     C        0.34247    0.57693    0.11813    1.000
    H470     H        0.35827    0.60443    0.10453    1.000
    C623     C        0.31917    0.54123    0.08733    1.000
    H471     H        0.31877    0.54453    0.05313    1.000
    C624     C        0.22057    0.42683    0.09763    1.000
    C625     C        0.20507    0.38663    0.11213    1.000
    H472     H        0.22147    0.37333    0.10803    1.000
    C626     C        0.16427    0.36373    0.13343    1.000
    H473     H        0.15407    0.33583    0.14493    1.000
    C627     C        0.14007    0.38223    0.13723    1.000
    H474     H        0.11137    0.36613    0.14693    1.000
    C628     C        0.15757    0.42443    0.12693    1.000
    H475     H        0.14287    0.43893    0.13483    1.000
    C629     C        0.19717    0.44593    0.10483    1.000
    H476     H        0.20807    0.47433    0.09463    1.000
    O17      O        0.64187    0.44563    0.11013    1.000
    Ag18     Ag       0.25765    0.79353    0.48060    1.000
    P35      P        0.21770    0.80230    0.41505    1.000
    P36      P        0.93701    0.79028    0.40017    1.000
    C630     C        0.02583    0.68667    0.42277    1.000
    C631     C        0.07313    0.71257    0.41677    1.000
    C632     C        0.09733    0.72327    0.45937    1.000
    H477     H        0.08373    0.71187    0.48947    1.000
    C633     C        0.14033    0.74997    0.45887    1.000
    H478     H        0.15583    0.75717    0.48837    1.000
    C634     C        0.16133    0.76637    0.41417    1.000
    C635     C        0.13793    0.75437    0.37287    1.000
    H479     H        0.15113    0.76387    0.34207    1.000
    C636     C        0.09343    0.72747    0.37577    1.000
    H480     H        0.07763    0.71977    0.34647    1.000
    C637     C        0.00463    0.71267    0.41687    1.000
    C638     C        0.99293    0.72567    0.45727    1.000
    H481     H        0.99763    0.71807    0.48867    1.000
    C639     C        0.97363    0.75057    0.45197    1.000
    H482     H        0.96683    0.76047    0.48057    1.000
    C640     C        0.96433    0.76097    0.40837    1.000
    C641     C        0.97713    0.74937    0.36817    1.000
    H483     H        0.97283    0.75797    0.33717    1.000
    C642     C        0.99663    0.72537    0.37137    1.000
    H484     H        0.00463    0.71707    0.34247    1.000
    C643     C        0.22283    0.85367    0.41947    1.000
    C644     C        0.26323    0.88917    0.41957    1.000
    H485     H        0.28733    0.88597    0.41597    1.000
    C645     C        0.26823    0.92927    0.42487    1.000
    H486     H        0.29583    0.95317    0.42657    1.000
    C646     C        0.23463    0.93477    0.42777    1.000
    H487     H        0.23853    0.96237    0.43097    1.000
    C647     C        0.19463    0.90037    0.42617    1.000
    H488     H        0.17093    0.90437    0.42777    1.000
    C648     C        0.18873    0.86087    0.42237    1.000
    H489     H        0.16083    0.83747    0.42157    1.000
    C649     C        0.23433    0.80067    0.35367    1.000
    C650     C        0.24083    0.76667    0.34267    1.000
    H490     H        0.23793    0.74677    0.36657    1.000
    C651     C        0.25213    0.76407    0.29377    1.000
    H491     H        0.25683    0.74167    0.28517    1.000
    C652     C        0.25663    0.79217    0.25897    1.000
    H492     H        0.26323    0.78857    0.22667    1.000
    C653     C        0.25143    0.82577    0.27037    1.000
    H493     H        0.25563    0.84627    0.24647    1.000
    C654     C        0.23973    0.82957    0.31857    1.000
    H494     H        0.23553    0.85247    0.32657    1.000
    C655     C        0.96413    0.83557    0.44117    1.000
    C656     C        0.96363    0.83127    0.49007    1.000
    H495     H        0.94773    0.80447    0.50497    1.000
    C657     C        0.98723    0.86727    0.51797    1.000
    H496     H        0.98783    0.86437    0.55227    1.000
    C658     C        0.00843    0.90467    0.49947    1.000
    H497     H        0.02363    0.92837    0.52017    1.000
    C659     C        0.00913    0.91027    0.45147    1.000
    H498     H        0.02493    0.93777    0.43787    1.000
    C660     C        0.98583    0.87457    0.42067    1.000
    H499     H        0.98543    0.87787    0.38647    1.000
    C661     C        0.88723    0.76017    0.43097    1.000
    C662     C        0.87173    0.71997    0.44547    1.000
    H500     H        0.88813    0.70667    0.44137    1.000
    C663     C        0.83093    0.69707    0.46677    1.000
    H501     H        0.82073    0.66917    0.47827    1.000
    C664     C        0.80673    0.71557    0.47057    1.000
    H502     H        0.77803    0.69947    0.48027    1.000
    C665     C        0.82423    0.75777    0.46027    1.000
    H503     H        0.80953    0.77227    0.46817    1.000
    C666     C        0.86383    0.77927    0.43817    1.000
    H504     H        0.87473    0.80767    0.42797    1.000
    O18      O        0.30853    0.77897    0.44347    1.000
    Ag19     Ag       0.92432    0.79746    0.31393    1.000
    P37      P        0.88437    0.74874    0.24838    1.000
    P38      P        0.60368    0.48007    0.23350    1.000
    C667     C        0.69250    0.67250    0.25610    1.000
    C668     C        0.73980    0.69390    0.25010    1.000
    C669     C        0.76400    0.70740    0.29270    1.000
    H505     H        0.75040    0.70520    0.32280    1.000
    C670     C        0.80700    0.72370    0.29220    1.000
    H506     H        0.82250    0.73200    0.32170    1.000
    C671     C        0.82800    0.72830    0.24750    1.000
    C672     C        0.80460    0.71690    0.20620    1.000
    H507     H        0.81780    0.72060    0.17540    1.000
    C673     C        0.76010    0.69930    0.20910    1.000
    H508     H        0.74430    0.69120    0.17980    1.000
    C674     C        0.67130    0.62530    0.25020    1.000
    C675     C        0.65960    0.60060    0.29060    1.000
    H509     H        0.66430    0.61290    0.32200    1.000
    C676     C        0.64030    0.55640    0.28530    1.000
    H510     H        0.63350    0.53970    0.31390    1.000
    C677     C        0.63100    0.53670    0.24170    1.000
    C678     C        0.64380    0.56110    0.20150    1.000
    H511     H        0.63950    0.54820    0.17050    1.000
    C679     C        0.66330    0.60460    0.20470    1.000
    H512     H        0.67130    0.62090    0.17580    1.000
    C680     C        0.88950    0.70250    0.25280    1.000
    C681     C        0.92990    0.70740    0.25290    1.000
    H513     H        0.95400    0.73470    0.24930    1.000
    C682     C        0.93490    0.67230    0.25820    1.000
    H514     H        0.96250    0.67600    0.25990    1.000
    C683     C        0.90130    0.63320    0.26110    1.000
    H515     H        0.90520    0.60950    0.26430    1.000
    C684     C        0.86130    0.62760    0.25950    1.000
    H516     H        0.83760    0.59990    0.26110    1.000
    C685     C        0.85540    0.66120    0.25570    1.000
    H517     H        0.82750    0.65670    0.25490    1.000
    C686     C        0.90100    0.76700    0.18700    1.000
    C687     C        0.90750    0.80750    0.17600    1.000
    H518     H        0.90460    0.82450    0.19990    1.000
    C688     C        0.91880    0.82140    0.12710    1.000
    H519     H        0.92350    0.84850    0.11850    1.000
    C689     C        0.92330    0.79780    0.09230    1.000
    H520     H        0.92990    0.80800    0.06000    1.000
    C690     C        0.91810    0.75900    0.10370    1.000
    H521     H        0.92230    0.74270    0.07980    1.000
    C691     C        0.90640    0.74350    0.15190    1.000
    H522     H        0.90220    0.71640    0.15990    1.000
    C692     C        0.63080    0.46190    0.27450    1.000
    C693     C        0.63030    0.46570    0.32340    1.000
    H523     H        0.61440    0.47660    0.33830    1.000
    C694     C        0.65390    0.45330    0.35130    1.000
    H524     H        0.65450    0.45680    0.38560    1.000
    C695     C        0.67510    0.43710    0.33280    1.000
    H525     H        0.69030    0.42860    0.35350    1.000
    C696     C        0.67580    0.43220    0.28480    1.000
    H526     H        0.69160    0.42050    0.27120    1.000
    C697     C        0.65250    0.44460    0.25400    1.000
    H527     H        0.65210    0.44090    0.21980    1.000
    C698     C        0.55390    0.46040    0.26430    1.000
    C699     C        0.53840    0.48510    0.27880    1.000
    H528     H        0.55480    0.51480    0.27470    1.000
    C700     C        0.49760    0.46720    0.30010    1.000
    H529     H        0.48740    0.48490    0.31160    1.000
    C701     C        0.47340    0.42450    0.30390    1.000
    H530     H        0.44470    0.41190    0.31360    1.000
    C702     C        0.49090    0.39980    0.29360    1.000
    H531     H        0.47620    0.37060    0.30150    1.000
    C703     C        0.53050    0.41790    0.27150    1.000
    H532     H        0.54140    0.40040    0.26130    1.000
    O19      O        0.97520    0.86290    0.27680    1.000
    Ag20     Ag       0.59099    0.13079    0.64726    1.000
    P39      P        0.55104    0.08207    0.58171    1.000
    P40      P        0.27035    0.81340    0.56683    1.000
    C704     C        0.35917    0.00583    0.58943    1.000
    C705     C        0.40647    0.02723    0.58343    1.000
    C706     C        0.43067    0.04073    0.62603    1.000
    H533     H        0.41707    0.03853    0.65613    1.000
    C707     C        0.47367    0.05703    0.62553    1.000
    H534     H        0.48917    0.06533    0.65503    1.000
    C708     C        0.49467    0.06163    0.58083    1.000
    C709     C        0.47127    0.05023    0.53953    1.000
    H535     H        0.48447    0.05393    0.50873    1.000
    C710     C        0.42677    0.03263    0.54243    1.000
    H536     H        0.41097    0.02453    0.51313    1.000
    C711     C        0.33797    0.95863    0.58353    1.000
    C712     C        0.32627    0.93393    0.62393    1.000
    H537     H        0.33097    0.94623    0.65533    1.000
    C713     C        0.30697    0.88973    0.61863    1.000
    H538     H        0.30017    0.87303    0.64723    1.000
    C714     C        0.29767    0.87003    0.57503    1.000
    C715     C        0.31047    0.89443    0.53483    1.000
    H539     H        0.30617    0.88153    0.50383    1.000
    C716     C        0.32997    0.93793    0.53803    1.000
    H540     H        0.33797    0.95423    0.50913    1.000
    C717     C        0.55617    0.03583    0.58613    1.000
    C718     C        0.59657    0.04073    0.58623    1.000
    H541     H        0.62067    0.06803    0.58263    1.000
    C719     C        0.60157    0.00563    0.59153    1.000
    H542     H        0.62917    0.00933    0.59323    1.000
    C720     C        0.56797    0.96653    0.59443    1.000
    H543     H        0.57187    0.94283    0.59763    1.000
    C721     C        0.52797    0.96093    0.59283    1.000
    H544     H        0.50427    0.93323    0.59443    1.000
    C722     C        0.52207    0.99453    0.58903    1.000
    H545     H        0.49417    0.99003    0.58823    1.000
    C723     C        0.56767    0.10033    0.52033    1.000
    C724     C        0.57417    0.14083    0.50933    1.000
    H546     H        0.57127    0.15783    0.53323    1.000
    C725     C        0.58547    0.15473    0.46043    1.000
    H547     H        0.59017    0.18183    0.45183    1.000
    C726     C        0.58997    0.13113    0.42563    1.000
    H548     H        0.59657    0.14133    0.39333    1.000
    C727     C        0.58477    0.09233    0.43703    1.000
    H549     H        0.58897    0.07603    0.41313    1.000
    C728     C        0.57307    0.07683    0.48523    1.000
    H550     H        0.56887    0.04973    0.49323    1.000
    C729     C        0.29747    0.79523    0.60783    1.000
    C730     C        0.29697    0.79903    0.65673    1.000
    H551     H        0.28107    0.80993    0.67163    1.000
    C731     C        0.32057    0.78663    0.68463    1.000
    H552     H        0.32117    0.79013    0.71893    1.000
    C732     C        0.34177    0.77043    0.66613    1.000
    H553     H        0.35697    0.76193    0.68683    1.000
    C733     C        0.34247    0.76553    0.61813    1.000
    H554     H        0.35827    0.75383    0.60453    1.000
    C734     C        0.31917    0.77793    0.58733    1.000
    H555     H        0.31877    0.77423    0.55313    1.000
    C735     C        0.22057    0.79373    0.59763    1.000
    C736     C        0.20507    0.81843    0.61213    1.000
    H556     H        0.22147    0.84813    0.60803    1.000
    C737     C        0.16427    0.80053    0.63343    1.000
    H557     H        0.15407    0.81823    0.64493    1.000
    C738     C        0.14007    0.75783    0.63723    1.000
    H558     H        0.11137    0.74523    0.64693    1.000
    C739     C        0.15757    0.73313    0.62693    1.000
    H559     H        0.14287    0.70393    0.63483    1.000
    C740     C        0.19717    0.75123    0.60483    1.000
    H560     H        0.20807    0.73373    0.59463    1.000
    O20      O        0.64187    0.19623    0.61013    1.000
    Ag21     Ag       0.25765    0.46413    0.98060    1.000
    P41      P        0.21770    0.41541    0.91505    1.000
    P42      P        0.93701    0.14674    0.90017    1.000
    C741     C        0.02583    0.33917    0.92277    1.000
    C742     C        0.07313    0.36057    0.91677    1.000
    C743     C        0.09733    0.37407    0.95937    1.000
    H561     H        0.08373    0.37187    0.98947    1.000
    C744     C        0.14033    0.39037    0.95887    1.000
    H562     H        0.15583    0.39867    0.98837    1.000
    C745     C        0.16133    0.39497    0.91417    1.000
    C746     C        0.13793    0.38357    0.87287    1.000
    H563     H        0.15113    0.38727    0.84207    1.000
    C747     C        0.09343    0.36597    0.87577    1.000
    H564     H        0.07763    0.35787    0.84647    1.000
    C748     C        0.00463    0.29197    0.91687    1.000
    C749     C        0.99293    0.26727    0.95727    1.000
    H565     H        0.99763    0.27957    0.98867    1.000
    C750     C        0.97363    0.22307    0.95197    1.000
    H566     H        0.96683    0.20637    0.98057    1.000
    C751     C        0.96433    0.20337    0.90837    1.000
    C752     C        0.97713    0.22777    0.86817    1.000
    H567     H        0.97283    0.21487    0.83717    1.000
    C753     C        0.99663    0.27127    0.87137    1.000
    H568     H        0.00463    0.28757    0.84247    1.000
    C754     C        0.22283    0.36917    0.91947    1.000
    C755     C        0.26323    0.37407    0.91957    1.000
    H569     H        0.28733    0.40137    0.91597    1.000
    C756     C        0.26823    0.33897    0.92487    1.000
    H570     H        0.29583    0.34267    0.92657    1.000
    C757     C        0.23463    0.29987    0.92777    1.000
    H571     H        0.23853    0.27617    0.93097    1.000
    C758     C        0.19463    0.29427    0.92617    1.000
    H572     H        0.17093    0.26657    0.92777    1.000
    C759     C        0.18873    0.32787    0.92237    1.000
    H573     H        0.16083    0.32337    0.92157    1.000
    C760     C        0.23433    0.43367    0.85367    1.000
    C761     C        0.24083    0.47417    0.84267    1.000
    H574     H        0.23793    0.49117    0.86657    1.000
    C762     C        0.25213    0.48807    0.79377    1.000
    H575     H        0.25683    0.51517    0.78517    1.000
    C763     C        0.25663    0.46447    0.75897    1.000
    H576     H        0.26323    0.47467    0.72667    1.000
    C764     C        0.25143    0.42567    0.77037    1.000
    H577     H        0.25563    0.40937    0.74647    1.000
    C765     C        0.23973    0.41017    0.81857    1.000
    H578     H        0.23553    0.38307    0.82657    1.000
    C766     C        0.96413    0.12857    0.94117    1.000
    C767     C        0.96363    0.13237    0.99007    1.000
    H579     H        0.94773    0.14327    0.00497    1.000
    C768     C        0.98723    0.11997    0.01797    1.000
    H580     H        0.98783    0.12347    0.05227    1.000
    C769     C        0.00843    0.10377    0.99947    1.000
    H581     H        0.02363    0.09527    0.02017    1.000
    C770     C        0.00913    0.09887    0.95147    1.000
    H582     H        0.02493    0.08717    0.93787    1.000
    C771     C        0.98583    0.11127    0.92067    1.000
    H583     H        0.98543    0.10757    0.88647    1.000
    C772     C        0.88723    0.12707    0.93097    1.000
    C773     C        0.87173    0.15177    0.94547    1.000
    H584     H        0.88813    0.18147    0.94137    1.000
    C774     C        0.83093    0.13387    0.96677    1.000
    H585     H        0.82073    0.15157    0.97827    1.000
    C775     C        0.80673    0.09117    0.97057    1.000
    H586     H        0.77803    0.07857    0.98027    1.000
    C776     C        0.82423    0.06647    0.96027    1.000
    H587     H        0.80953    0.03727    0.96817    1.000
    C777     C        0.86383    0.08457    0.93817    1.000
    H588     H        0.87473    0.06707    0.92797    1.000
    O21      O        0.30853    0.52957    0.94347    1.000
    Ag22     Ag       0.20254    0.12686    0.31393    1.000
    P43      P        0.25126    0.13563    0.24838    1.000
    P44      P        0.51993    0.12361    0.23350    1.000
    C778     C        0.32750    0.02000    0.25610    1.000
    C779     C        0.30610    0.04590    0.25010    1.000
    C780     C        0.29260    0.05660    0.29270    1.000
    H589     H        0.29480    0.04520    0.32280    1.000
    C781     C        0.27630    0.08330    0.29220    1.000
    H590     H        0.26800    0.09050    0.32170    1.000
    C782     C        0.27170    0.09970    0.24750    1.000
    C783     C        0.28310    0.08770    0.20620    1.000
    H591     H        0.27940    0.09720    0.17540    1.000
    C784     C        0.30070    0.06080    0.20910    1.000
    H592     H        0.30880    0.05310    0.17980    1.000
    C785     C        0.37470    0.04600    0.25020    1.000
    C786     C        0.39940    0.05900    0.29060    1.000
    H593     H        0.38710    0.05140    0.32200    1.000
    C787     C        0.44360    0.08390    0.28530    1.000
    H594     H        0.46030    0.09380    0.31390    1.000
    C788     C        0.46330    0.09430    0.24170    1.000
    C789     C        0.43890    0.08270    0.20150    1.000
    H595     H        0.45180    0.09130    0.17050    1.000
    C790     C        0.39540    0.05870    0.20470    1.000
    H596     H        0.37910    0.05040    0.17580    1.000
    C791     C        0.29750    0.18700    0.25280    1.000
    C792     C        0.29260    0.22250    0.25290    1.000
    H597     H        0.26530    0.21930    0.24930    1.000
    C793     C        0.32770    0.26260    0.25820    1.000
    H598     H        0.32400    0.28650    0.25990    1.000
    C794     C        0.36680    0.26810    0.26110    1.000
    H599     H        0.39050    0.29570    0.26430    1.000
    C795     C        0.37240    0.23370    0.25950    1.000
    H600     H        0.40010    0.23770    0.26110    1.000
    C796     C        0.33880    0.19420    0.25570    1.000
    H601     H        0.34330    0.17080    0.25490    1.000
    C797     C        0.23300    0.13400    0.18700    1.000
    C798     C        0.19250    0.10000    0.17600    1.000
    H602     H        0.17550    0.08010    0.19990    1.000
    C799     C        0.17860    0.09740    0.12710    1.000
    H603     H        0.15150    0.07500    0.11850    1.000
    C800     C        0.20220    0.12550    0.09230    1.000
    H604     H        0.19200    0.12190    0.06000    1.000
    C801     C        0.24100    0.15910    0.10370    1.000
    H605     H        0.25730    0.17960    0.07980    1.000
    C802     C        0.25650    0.16290    0.15190    1.000
    H606     H        0.28360    0.18580    0.15990    1.000
    C803     C        0.53810    0.16890    0.27450    1.000
    C804     C        0.53430    0.16460    0.32340    1.000
    H607     H        0.52340    0.13780    0.33830    1.000
    C805     C        0.54670    0.20060    0.35130    1.000
    H608     H        0.54320    0.19770    0.38560    1.000
    C806     C        0.56290    0.23800    0.33280    1.000
    H609     H        0.57140    0.26170    0.35350    1.000
    C807     C        0.56780    0.24360    0.28480    1.000
    H610     H        0.57950    0.27110    0.27120    1.000
    C808     C        0.55540    0.20790    0.25400    1.000
    H611     H        0.55910    0.21120    0.21980    1.000
    C809     C        0.53960    0.09350    0.26430    1.000
    C810     C        0.51490    0.05330    0.27880    1.000
    H612     H        0.48520    0.04000    0.27470    1.000
    C811     C        0.53280    0.03040    0.30010    1.000
    H613     H        0.51510    0.00250    0.31160    1.000
    C812     C        0.57550    0.04890    0.30390    1.000
    H614     H        0.58810    0.03280    0.31360    1.000
    C813     C        0.60020    0.09110    0.29360    1.000
    H615     H        0.62940    0.10560    0.30150    1.000
    C814     C        0.58210    0.11260    0.27150    1.000
    H616     H        0.59960    0.14100    0.26130    1.000
    O22      O        0.13710    0.11230    0.27680    1.000
    Ag23     Ag       0.86921    0.46019    0.64726    1.000
    P45      P        0.91793    0.46896    0.58171    1.000
    P46      P        0.18660    0.45694    0.56683    1.000
    C815     C        0.99417    0.35333    0.58943    1.000
    C816     C        0.97277    0.37923    0.58343    1.000
    C817     C        0.95927    0.38993    0.62603    1.000
    H617     H        0.96147    0.37853    0.65613    1.000
    C818     C        0.94297    0.41663    0.62553    1.000
    H618     H        0.93467    0.42383    0.65503    1.000
    C819     C        0.93837    0.43303    0.58083    1.000
    C820     C        0.94977    0.42103    0.53953    1.000
    H619     H        0.94607    0.43053    0.50873    1.000
    C821     C        0.96737    0.39413    0.54243    1.000
    H620     H        0.97547    0.38643    0.51313    1.000
    C822     C        0.04137    0.37933    0.58353    1.000
    C823     C        0.06607    0.39233    0.62393    1.000
    H621     H        0.05377    0.38473    0.65533    1.000
    C824     C        0.11027    0.41723    0.61863    1.000
    H622     H        0.12697    0.42713    0.64723    1.000
    C825     C        0.12997    0.42763    0.57503    1.000
    C826     C        0.10557    0.41603    0.53483    1.000
    H623     H        0.11847    0.42463    0.50383    1.000
    C827     C        0.06207    0.39203    0.53803    1.000
    H624     H        0.04577    0.38373    0.50913    1.000
    C828     C        0.96417    0.52033    0.58613    1.000
    C829     C        0.95927    0.55583    0.58623    1.000
    H625     H        0.93197    0.55263    0.58263    1.000
    C830     C        0.99437    0.59593    0.59153    1.000
    H626     H        0.99067    0.61983    0.59323    1.000
    C831     C        0.03347    0.60143    0.59443    1.000
    H627     H        0.05717    0.62903    0.59763    1.000
    C832     C        0.03907    0.56703    0.59283    1.000
    H628     H        0.06677    0.57103    0.59443    1.000
    C833     C        0.00547    0.52753    0.58903    1.000
    H629     H        0.00997    0.50413    0.58823    1.000
    C834     C        0.89967    0.46733    0.52033    1.000
    C835     C        0.85917    0.43333    0.50933    1.000
    H630     H        0.84217    0.41343    0.53323    1.000
    C836     C        0.84527    0.43073    0.46043    1.000
    H631     H        0.81817    0.40833    0.45183    1.000
    C837     C        0.86887    0.45883    0.42563    1.000
    H632     H        0.85867    0.45523    0.39333    1.000
    C838     C        0.90767    0.49243    0.43703    1.000
    H633     H        0.92397    0.51293    0.41313    1.000
    C839     C        0.92317    0.49623    0.48523    1.000
    H634     H        0.95027    0.51913    0.49323    1.000
    C840     C        0.20477    0.50223    0.60783    1.000
    C841     C        0.20097    0.49793    0.65673    1.000
    H635     H        0.19007    0.47113    0.67163    1.000
    C842     C        0.21337    0.53393    0.68463    1.000
    H636     H        0.20987    0.53103    0.71893    1.000
    C843     C        0.22957    0.57133    0.66613    1.000
    H637     H        0.23807    0.59503    0.68683    1.000
    C844     C        0.23447    0.57693    0.61813    1.000
    H638     H        0.24617    0.60443    0.60453    1.000
    C845     C        0.22207    0.54123    0.58733    1.000
    H639     H        0.22577    0.54453    0.55313    1.000
    C846     C        0.20627    0.42683    0.59763    1.000
    C847     C        0.18157    0.38663    0.61213    1.000
    H640     H        0.15187    0.37333    0.60803    1.000
    C848     C        0.19947    0.36373    0.63343    1.000
    H641     H        0.18177    0.33583    0.64493    1.000
    C849     C        0.24217    0.38223    0.63723    1.000
    H642     H        0.25477    0.36613    0.64693    1.000
    C850     C        0.26687    0.42443    0.62693    1.000
    H643     H        0.29607    0.43893    0.63483    1.000
    C851     C        0.24877    0.44593    0.60483    1.000
    H644     H        0.26627    0.47433    0.59463    1.000
    O23      O        0.80377    0.44563    0.61013    1.000
    Ag24     Ag       0.53587    0.79353    0.98060    1.000
    P47      P        0.58459    0.80230    0.91505    1.000
    P48      P        0.85326    0.79028    0.90017    1.000
    C852     C        0.66083    0.68667    0.92277    1.000
    C853     C        0.63943    0.71257    0.91677    1.000
    C854     C        0.62593    0.72327    0.95937    1.000
    H645     H        0.62813    0.71187    0.98947    1.000
    C855     C        0.60963    0.74997    0.95887    1.000
    H646     H        0.60133    0.75717    0.98837    1.000
    C856     C        0.60503    0.76637    0.91417    1.000
    C857     C        0.61643    0.75437    0.87287    1.000
    H647     H        0.61273    0.76387    0.84207    1.000
    C858     C        0.63403    0.72747    0.87577    1.000
    H648     H        0.64213    0.71977    0.84647    1.000
    C859     C        0.70803    0.71267    0.91687    1.000
    C860     C        0.73273    0.72567    0.95727    1.000
    H649     H        0.72043    0.71807    0.98867    1.000
    C861     C        0.77693    0.75057    0.95197    1.000
    H650     H        0.79363    0.76047    0.98057    1.000
    C862     C        0.79663    0.76097    0.90837    1.000
    C863     C        0.77223    0.74937    0.86817    1.000
    H651     H        0.78513    0.75797    0.83717    1.000
    C864     C        0.72873    0.72537    0.87137    1.000
    H652     H        0.71243    0.71707    0.84247    1.000
    C865     C        0.63083    0.85367    0.91947    1.000
    C866     C        0.62593    0.88917    0.91957    1.000
    H653     H        0.59863    0.88597    0.91597    1.000
    C867     C        0.66103    0.92927    0.92487    1.000
    H654     H        0.65733    0.95317    0.92657    1.000
    C868     C        0.70013    0.93477    0.92777    1.000
    H655     H        0.72383    0.96237    0.93097    1.000
    C869     C        0.70573    0.90037    0.92617    1.000
    H656     H        0.73343    0.90437    0.92777    1.000
    C870     C        0.67213    0.86087    0.92237    1.000
    H657     H        0.67663    0.83747    0.92157    1.000
    C871     C        0.56633    0.80067    0.85367    1.000
    C872     C        0.52583    0.76667    0.84267    1.000
    H658     H        0.50883    0.74677    0.86657    1.000
    C873     C        0.51193    0.76407    0.79377    1.000
    H659     H        0.48483    0.74167    0.78517    1.000
    C874     C        0.53553    0.79217    0.75897    1.000
    H660     H        0.52533    0.78857    0.72667    1.000
    C875     C        0.57433    0.82577    0.77037    1.000
    H661     H        0.59063    0.84627    0.74647    1.000
    C876     C        0.58983    0.82957    0.81857    1.000
    H662     H        0.61693    0.85247    0.82657    1.000
    C877     C        0.87143    0.83557    0.94117    1.000
    C878     C        0.86763    0.83127    0.99007    1.000
    H663     H        0.85673    0.80447    0.00497    1.000
    C879     C        0.88003    0.86727    0.01797    1.000
    H664     H        0.87653    0.86437    0.05227    1.000
    C880     C        0.89623    0.90467    0.99947    1.000
    H665     H        0.90473    0.92837    0.02017    1.000
    C881     C        0.90113    0.91027    0.95147    1.000
    H666     H        0.91283    0.93777    0.93787    1.000
    C882     C        0.88873    0.87457    0.92067    1.000
    H667     H        0.89243    0.87787    0.88647    1.000
    C883     C        0.87293    0.76017    0.93097    1.000
    C884     C        0.84823    0.71997    0.94547    1.000
    H668     H        0.81853    0.70667    0.94137    1.000
    C885     C        0.86613    0.69707    0.96677    1.000
    H669     H        0.84843    0.66917    0.97827    1.000
    C886     C        0.90883    0.71557    0.97057    1.000
    H670     H        0.92143    0.69947    0.98027    1.000
    C887     C        0.93353    0.75777    0.96027    1.000
    H671     H        0.96273    0.77227    0.96817    1.000
    C888     C        0.91543    0.77927    0.93817    1.000
    H672     H        0.93293    0.80767    0.92797    1.000
    O24      O        0.47043    0.77897    0.94347    1.000
    Ag25     Ag       0.87314    0.07568    0.31393    1.000
    P49      P        0.86437    0.11563    0.24838    1.000
    P50      P        0.87639    0.39632    0.23350    1.000
    C889     C        0.98000    0.30750    0.25610    1.000
    C890     C        0.95410    0.26020    0.25010    1.000
    C891     C        0.94340    0.23600    0.29270    1.000
    H673     H        0.95480    0.24960    0.32280    1.000
    C892     C        0.91670    0.19300    0.29220    1.000
    H674     H        0.90950    0.17750    0.32170    1.000
    C893     C        0.90030    0.17200    0.24750    1.000
    C894     C        0.91230    0.19540    0.20620    1.000
    H675     H        0.90280    0.18220    0.17540    1.000
    C895     C        0.93920    0.23990    0.20910    1.000
    H676     H        0.94690    0.25570    0.17980    1.000
    C896     C        0.95400    0.32870    0.25020    1.000
    C897     C        0.94100    0.34040    0.29060    1.000
    H677     H        0.94860    0.33570    0.32200    1.000
    C898     C        0.91610    0.35970    0.28530    1.000
    H678     H        0.90620    0.36650    0.31390    1.000
    C899     C        0.90570    0.36900    0.24170    1.000
    C900     C        0.91730    0.35620    0.20150    1.000
    H679     H        0.90870    0.36050    0.17050    1.000
    C901     C        0.94130    0.33670    0.20470    1.000
    H680     H        0.94960    0.32870    0.17580    1.000
    C902     C        0.81300    0.11050    0.25280    1.000
    C903     C        0.77750    0.07010    0.25290    1.000
    H681     H        0.78070    0.04600    0.24930    1.000
    C904     C        0.73740    0.06510    0.25820    1.000
    H682     H        0.71350    0.03750    0.25990    1.000
    C905     C        0.73190    0.09870    0.26110    1.000
    H683     H        0.70430    0.09480    0.26430    1.000
    C906     C        0.76630    0.13870    0.25950    1.000
    H684     H        0.76230    0.16240    0.26110    1.000
    C907     C        0.80580    0.14460    0.25570    1.000
    H685     H        0.82920    0.17250    0.25490    1.000
    C908     C        0.86600    0.09900    0.18700    1.000
    C909     C        0.90000    0.09250    0.17600    1.000
    H686     H        0.91990    0.09540    0.19990    1.000
    C910     C        0.90260    0.08120    0.12710    1.000
    H687     H        0.92500    0.07650    0.11850    1.000
    C911     C        0.87450    0.07670    0.09230    1.000
    H688     H        0.87810    0.07010    0.06000    1.000
    C912     C        0.84090    0.08190    0.10370    1.000
    H689     H        0.82040    0.07770    0.07980    1.000
    C913     C        0.83710    0.09360    0.15190    1.000
    H690     H        0.81420    0.09780    0.15990    1.000
    C914     C        0.83110    0.36920    0.27450    1.000
    C915     C        0.83540    0.36970    0.32340    1.000
    H691     H        0.86220    0.38560    0.33830    1.000
    C916     C        0.79940    0.34610    0.35130    1.000
    H692     H        0.80230    0.34550    0.38560    1.000
    C917     C        0.76200    0.32490    0.33280    1.000
    H693     H        0.73830    0.30970    0.35350    1.000
    C918     C        0.75640    0.32420    0.28480    1.000
    H694     H        0.72890    0.30840    0.27120    1.000
    C919     C        0.79210    0.34750    0.25400    1.000
    H695     H        0.78880    0.34790    0.21980    1.000
    C920     C        0.90650    0.44610    0.26430    1.000
    C921     C        0.94670    0.46160    0.27880    1.000
    H696     H        0.96000    0.44520    0.27470    1.000
    C922     C        0.96960    0.50240    0.30010    1.000
    H697     H        0.99750    0.51260    0.31160    1.000
    C923     C        0.95110    0.52660    0.30390    1.000
    H698     H        0.96720    0.55530    0.31360    1.000
    C924     C        0.90890    0.50910    0.29360    1.000
    H699     H        0.89440    0.52380    0.30150    1.000
    C925     C        0.88740    0.46950    0.27150    1.000
    H700     H        0.85900    0.45860    0.26130    1.000
    O25      O        0.88770    0.02480    0.27680    1.000
    Ag26     Ag       0.53981    0.40901    0.64726    1.000
    P51      P        0.53104    0.44896    0.58171    1.000
    P52      P        0.54306    0.72965    0.56683    1.000
    C926     C        0.64667    0.64083    0.58943    1.000
    C927     C        0.62077    0.59353    0.58343    1.000
    C928     C        0.61007    0.56933    0.62603    1.000
    H701     H        0.62147    0.58293    0.65613    1.000
    C929     C        0.58337    0.52633    0.62553    1.000
    H702     H        0.57617    0.51083    0.65503    1.000
    C930     C        0.56697    0.50533    0.58083    1.000
    C931     C        0.57897    0.52873    0.53953    1.000
    H703     H        0.56947    0.51553    0.50873    1.000
    C932     C        0.60587    0.57323    0.54243    1.000
    H704     H        0.61357    0.58903    0.51313    1.000
    C933     C        0.62067    0.66203    0.58353    1.000
    C934     C        0.60767    0.67373    0.62393    1.000
    H705     H        0.61527    0.66903    0.65533    1.000
    C935     C        0.58277    0.69303    0.61863    1.000
    H706     H        0.57287    0.69983    0.64723    1.000
    C936     C        0.57237    0.70233    0.57503    1.000
    C937     C        0.58397    0.68953    0.53483    1.000
    H707     H        0.57537    0.69383    0.50383    1.000
    C938     C        0.60797    0.67003    0.53803    1.000
    H708     H        0.61627    0.66203    0.50913    1.000
    C939     C        0.47967    0.44383    0.58613    1.000
    C940     C        0.44417    0.40343    0.58623    1.000
    H709     H        0.44737    0.37933    0.58263    1.000
    C941     C        0.40407    0.39843    0.59153    1.000
    H710     H        0.38017    0.37083    0.59323    1.000
    C942     C        0.39857    0.43203    0.59443    1.000
    H711     H        0.37097    0.42813    0.59763    1.000
    C943     C        0.43297    0.47203    0.59283    1.000
    H712     H        0.42897    0.49573    0.59443    1.000
    C944     C        0.47247    0.47793    0.58903    1.000
    H713     H        0.49587    0.50583    0.58823    1.000
    C945     C        0.53267    0.43233    0.52033    1.000
    C946     C        0.56667    0.42583    0.50933    1.000
    H714     H        0.58657    0.42873    0.53323    1.000
    C947     C        0.56927    0.41453    0.46043    1.000
    H715     H        0.59167    0.40983    0.45183    1.000
    C948     C        0.54117    0.41003    0.42563    1.000
    H716     H        0.54477    0.40343    0.39333    1.000
    C949     C        0.50757    0.41523    0.43703    1.000
    H717     H        0.48707    0.41103    0.41313    1.000
    C950     C        0.50377    0.42693    0.48523    1.000
    H718     H        0.48087    0.43113    0.49323    1.000
    C951     C        0.49777    0.70253    0.60783    1.000
    C952     C        0.50207    0.70303    0.65673    1.000
    H719     H        0.52887    0.71893    0.67163    1.000
    C953     C        0.46607    0.67943    0.68463    1.000
    H720     H        0.46897    0.67883    0.71893    1.000
    C954     C        0.42867    0.65823    0.66613    1.000
    H721     H        0.40497    0.64303    0.68683    1.000
    C955     C        0.42307    0.65753    0.61813    1.000
    H722     H        0.39557    0.64173    0.60453    1.000
    C956     C        0.45877    0.68083    0.58733    1.000
    H723     H        0.45547    0.68123    0.55313    1.000
    C957     C        0.57317    0.77943    0.59763    1.000
    C958     C        0.61337    0.79493    0.61213    1.000
    H724     H        0.62667    0.77853    0.60803    1.000
    C959     C        0.63627    0.83573    0.63343    1.000
    H725     H        0.66417    0.84593    0.64493    1.000
    C960     C        0.61777    0.85993    0.63723    1.000
    H726     H        0.63387    0.88863    0.64693    1.000
    C961     C        0.57557    0.84243    0.62693    1.000
    H727     H        0.56107    0.85713    0.63483    1.000
    C962     C        0.55407    0.80283    0.60483    1.000
    H728     H        0.52567    0.79193    0.59463    1.000
    O26      O        0.55437    0.35813    0.61013    1.000
    Ag27     Ag       0.20647    0.74235    0.98060    1.000
    P53      P        0.19770    0.78230    0.91505    1.000
    P54      P        0.20972    0.06299    0.90017    1.000
    C963     C        0.31333    0.97417    0.92277    1.000
    C964     C        0.28743    0.92687    0.91677    1.000
    C965     C        0.27673    0.90267    0.95937    1.000
    H729     H        0.28813    0.91627    0.98947    1.000
    C966     C        0.25003    0.85967    0.95887    1.000
    H730     H        0.24283    0.84417    0.98837    1.000
    C967     C        0.23363    0.83867    0.91417    1.000
    C968     C        0.24563    0.86207    0.87287    1.000
    H731     H        0.23613    0.84887    0.84207    1.000
    C969     C        0.27253    0.90657    0.87577    1.000
    H732     H        0.28023    0.92237    0.84647    1.000
    C970     C        0.28733    0.99537    0.91687    1.000
    C971     C        0.27433    0.00707    0.95727    1.000
    H733     H        0.28193    0.00237    0.98867    1.000
    C972     C        0.24943    0.02637    0.95197    1.000
    H734     H        0.23953    0.03317    0.98057    1.000
    C973     C        0.23903    0.03567    0.90837    1.000
    C974     C        0.25063    0.02287    0.86817    1.000
    H735     H        0.24203    0.02717    0.83717    1.000
    C975     C        0.27463    0.00337    0.87137    1.000
    H736     H        0.28293    0.99537    0.84247    1.000
    C976     C        0.14633    0.77717    0.91947    1.000
    C977     C        0.11083    0.73677    0.91957    1.000
    H737     H        0.11403    0.71267    0.91597    1.000
    C978     C        0.07073    0.73177    0.92487    1.000
    H738     H        0.04683    0.70417    0.92657    1.000
    C979     C        0.06523    0.76537    0.92777    1.000
    H739     H        0.03763    0.76147    0.93097    1.000
    C980     C        0.09963    0.80537    0.92617    1.000
    H740     H        0.09563    0.82907    0.92777    1.000
    C981     C        0.13913    0.81127    0.92237    1.000
    H741     H        0.16253    0.83917    0.92157    1.000
    C982     C        0.19933    0.76567    0.85367    1.000
    C983     C        0.23333    0.75917    0.84267    1.000
    H742     H        0.25323    0.76207    0.86657    1.000
    C984     C        0.23593    0.74787    0.79377    1.000
    H743     H        0.25833    0.74317    0.78517    1.000
    C985     C        0.20783    0.74337    0.75897    1.000
    H744     H        0.21143    0.73677    0.72667    1.000
    C986     C        0.17423    0.74857    0.77037    1.000
    H745     H        0.15373    0.74437    0.74647    1.000
    C987     C        0.17043    0.76027    0.81857    1.000
    H746     H        0.14753    0.76447    0.82657    1.000
    C988     C        0.16443    0.03587    0.94117    1.000
    C989     C        0.16873    0.03637    0.99007    1.000
    H747     H        0.19553    0.05227    0.00497    1.000
    C990     C        0.13273    0.01277    0.01797    1.000
    H748     H        0.13563    0.01217    0.05227    1.000
    C991     C        0.09533    0.99157    0.99947    1.000
    H749     H        0.07163    0.97637    0.02017    1.000
    C992     C        0.08973    0.99087    0.95147    1.000
    H750     H        0.06223    0.97507    0.93787    1.000
    C993     C        0.12543    0.01417    0.92067    1.000
    H751     H        0.12213    0.01457    0.88647    1.000
    C994     C        0.23983    0.11277    0.93097    1.000
    C995     C        0.28003    0.12827    0.94547    1.000
    H752     H        0.29333    0.11187    0.94137    1.000
    C996     C        0.30293    0.16907    0.96677    1.000
    H753     H        0.33083    0.17927    0.97827    1.000
    C997     C        0.28443    0.19327    0.97057    1.000
    H754     H        0.30053    0.22197    0.98027    1.000
    C998     C        0.24223    0.17577    0.96027    1.000
    H755     H        0.22773    0.19047    0.96817    1.000
    C999     C        0.22073    0.13617    0.93817    1.000
    H756     H        0.19233    0.12527    0.92797    1.000
    O27      O        0.22103    0.69147    0.94347    1.000
    Ag28     Ag       0.79746    0.92432    0.18607    1.000
    P55      P        0.74874    0.88437    0.25162    1.000
    P56      P        0.48007    0.60368    0.26650    1.000
    C1000    C        0.67250    0.69250    0.24390    1.000
    C1001    C        0.69390    0.73980    0.24990    1.000
    C1002    C        0.70740    0.76400    0.20730    1.000
    H757     H        0.70520    0.75040    0.17720    1.000
    C1003    C        0.72370    0.80700    0.20780    1.000
    H758     H        0.73200    0.82250    0.17830    1.000
    C1004    C        0.72830    0.82800    0.25250    1.000
    C1005    C        0.71690    0.80460    0.29380    1.000
    H759     H        0.72060    0.81780    0.32460    1.000
    C1006    C        0.69930    0.76010    0.29090    1.000
    H760     H        0.69120    0.74430    0.32020    1.000
    C1007    C        0.62530    0.67130    0.24980    1.000
    C1008    C        0.60060    0.65960    0.20940    1.000
    H761     H        0.61290    0.66430    0.17800    1.000
    C1009    C        0.55640    0.64030    0.21470    1.000
    H762     H        0.53970    0.63350    0.18610    1.000
    C1010    C        0.53670    0.63100    0.25830    1.000
    C1011    C        0.56110    0.64380    0.29850    1.000
    H763     H        0.54820    0.63950    0.32950    1.000
    C1012    C        0.60460    0.66330    0.29530    1.000
    H764     H        0.62090    0.67130    0.32420    1.000
    C1013    C        0.70250    0.88950    0.24720    1.000
    C1014    C        0.70740    0.92990    0.24710    1.000
    H765     H        0.73470    0.95400    0.25070    1.000
    C1015    C        0.67230    0.93490    0.24180    1.000
    H766     H        0.67600    0.96250    0.24010    1.000
    C1016    C        0.63320    0.90130    0.23890    1.000
    H767     H        0.60950    0.90520    0.23570    1.000
    C1017    C        0.62760    0.86130    0.24050    1.000
    H768     H        0.59990    0.83760    0.23890    1.000
    C1018    C        0.66120    0.85540    0.24430    1.000
    H769     H        0.65670    0.82750    0.24510    1.000
    C1019    C        0.76700    0.90100    0.31300    1.000
    C1020    C        0.80750    0.90750    0.32400    1.000
    H770     H        0.82450    0.90460    0.30010    1.000
    C1021    C        0.82140    0.91880    0.37290    1.000
    H771     H        0.84850    0.92350    0.38150    1.000
    C1022    C        0.79780    0.92330    0.40770    1.000
    H772     H        0.80800    0.92990    0.44000    1.000
    C1023    C        0.75900    0.91810    0.39630    1.000
    H773     H        0.74270    0.92230    0.42020    1.000
    C1024    C        0.74350    0.90640    0.34810    1.000
    H774     H        0.71640    0.90220    0.34010    1.000
    C1025    C        0.46190    0.63080    0.22550    1.000
    C1026    C        0.46570    0.63030    0.17660    1.000
    H775     H        0.47660    0.61440    0.16170    1.000
    C1027    C        0.45330    0.65390    0.14870    1.000
    H776     H        0.45680    0.65450    0.11440    1.000
    C1028    C        0.43710    0.67510    0.16720    1.000
    H777     H        0.42860    0.69030    0.14650    1.000
    C1029    C        0.43220    0.67580    0.21520    1.000
    H778     H        0.42050    0.69160    0.22880    1.000
    C1030    C        0.44460    0.65250    0.24600    1.000
    H779     H        0.44090    0.65210    0.28020    1.000
    C1031    C        0.46040    0.55390    0.23570    1.000
    C1032    C        0.48510    0.53840    0.22120    1.000
    H780     H        0.51480    0.55480    0.22530    1.000
    C1033    C        0.46720    0.49760    0.19990    1.000
    H781     H        0.48490    0.48740    0.18840    1.000
    C1034    C        0.42450    0.47340    0.19610    1.000
    H782     H        0.41190    0.44470    0.18640    1.000
    C1035    C        0.39980    0.49090    0.20640    1.000
    H783     H        0.37060    0.47620    0.19850    1.000
    C1036    C        0.41790    0.53050    0.22850    1.000
    H784     H        0.40040    0.54140    0.23870    1.000
    O28      O        0.86290    0.97520    0.22320    1.000
    Ag29     Ag       0.46413    0.25765    0.51940    1.000
    P57      P        0.41541    0.21770    0.58495    1.000
    P58      P        0.14674    0.93701    0.59983    1.000
    C1037    C        0.33917    0.02583    0.57723    1.000
    C1038    C        0.36057    0.07313    0.58323    1.000
    C1039    C        0.37407    0.09733    0.54063    1.000
    H785     H        0.37187    0.08373    0.51053    1.000
    C1040    C        0.39037    0.14033    0.54113    1.000
    H786     H        0.39867    0.15583    0.51163    1.000
    C1041    C        0.39497    0.16133    0.58583    1.000
    C1042    C        0.38357    0.13793    0.62713    1.000
    H787     H        0.38727    0.15113    0.65793    1.000
    C1043    C        0.36597    0.09343    0.62423    1.000
    H788     H        0.35787    0.07763    0.65353    1.000
    C1044    C        0.29197    0.00463    0.58313    1.000
    C1045    C        0.26727    0.99293    0.54273    1.000
    H789     H        0.27957    0.99763    0.51133    1.000
    C1046    C        0.22307    0.97363    0.54803    1.000
    H790     H        0.20637    0.96683    0.51943    1.000
    C1047    C        0.20337    0.96433    0.59163    1.000
    C1048    C        0.22777    0.97713    0.63183    1.000
    H791     H        0.21487    0.97283    0.66283    1.000
    C1049    C        0.27127    0.99663    0.62863    1.000
    H792     H        0.28757    0.00463    0.65753    1.000
    C1050    C        0.36917    0.22283    0.58053    1.000
    C1051    C        0.37407    0.26323    0.58043    1.000
    H793     H        0.40137    0.28733    0.58403    1.000
    C1052    C        0.33897    0.26823    0.57513    1.000
    H794     H        0.34267    0.29583    0.57343    1.000
    C1053    C        0.29987    0.23463    0.57223    1.000
    H795     H        0.27617    0.23853    0.56903    1.000
    C1054    C        0.29427    0.19463    0.57383    1.000
    H796     H        0.26657    0.17093    0.57223    1.000
    C1055    C        0.32787    0.18873    0.57763    1.000
    H797     H        0.32337    0.16083    0.57843    1.000
    C1056    C        0.43367    0.23433    0.64633    1.000
    C1057    C        0.47417    0.24083    0.65733    1.000
    H798     H        0.49117    0.23793    0.63343    1.000
    C1058    C        0.48807    0.25213    0.70623    1.000
    H799     H        0.51517    0.25683    0.71483    1.000
    C1059    C        0.46447    0.25663    0.74103    1.000
    H800     H        0.47467    0.26323    0.77333    1.000
    C1060    C        0.42567    0.25143    0.72963    1.000
    H801     H        0.40937    0.25563    0.75353    1.000
    C1061    C        0.41017    0.23973    0.68143    1.000
    H802     H        0.38307    0.23553    0.67343    1.000
    C1062    C        0.12857    0.96413    0.55883    1.000
    C1063    C        0.13237    0.96363    0.50993    1.000
    H803     H        0.14327    0.94773    0.49503    1.000
    C1064    C        0.11997    0.98723    0.48203    1.000
    H804     H        0.12347    0.98783    0.44773    1.000
    C1065    C        0.10377    0.00843    0.50053    1.000
    H805     H        0.09527    0.02363    0.47983    1.000
    C1066    C        0.09887    0.00913    0.54853    1.000
    H806     H        0.08717    0.02493    0.56213    1.000
    C1067    C        0.11127    0.98583    0.57933    1.000
    H807     H        0.10757    0.98543    0.61353    1.000
    C1068    C        0.12707    0.88723    0.56903    1.000
    C1069    C        0.15177    0.87173    0.55453    1.000
    H808     H        0.18147    0.88813    0.55863    1.000
    C1070    C        0.13387    0.83093    0.53323    1.000
    H809     H        0.15157    0.82073    0.52173    1.000
    C1071    C        0.09117    0.80673    0.52943    1.000
    H810     H        0.07857    0.77803    0.51973    1.000
    C1072    C        0.06647    0.82423    0.53973    1.000
    H811     H        0.03727    0.80953    0.53183    1.000
    C1073    C        0.08457    0.86383    0.56183    1.000
    H812     H        0.06707    0.87473    0.57203    1.000
    O29      O        0.52957    0.30853    0.55653    1.000
    Ag30     Ag       0.13079    0.59099    0.85274    1.000
    P59      P        0.08207    0.55104    0.91829    1.000
    P60      P        0.81340    0.27035    0.93317    1.000
    C1074    C        0.00583    0.35917    0.91057    1.000
    C1075    C        0.02723    0.40647    0.91657    1.000
    C1076    C        0.04073    0.43067    0.87397    1.000
    H813     H        0.03853    0.41707    0.84387    1.000
    C1077    C        0.05703    0.47367    0.87447    1.000
    H814     H        0.06533    0.48917    0.84497    1.000
    C1078    C        0.06163    0.49467    0.91917    1.000
    C1079    C        0.05023    0.47127    0.96047    1.000
    H815     H        0.05393    0.48447    0.99127    1.000
    C1080    C        0.03263    0.42677    0.95757    1.000
    H816     H        0.02453    0.41097    0.98687    1.000
    C1081    C        0.95863    0.33797    0.91647    1.000
    C1082    C        0.93393    0.32627    0.87607    1.000
    H817     H        0.94623    0.33097    0.84467    1.000
    C1083    C        0.88973    0.30697    0.88137    1.000
    H818     H        0.87303    0.30017    0.85277    1.000
    C1084    C        0.87003    0.29767    0.92497    1.000
    C1085    C        0.89443    0.31047    0.96517    1.000
    H819     H        0.88153    0.30617    0.99617    1.000
    C1086    C        0.93793    0.32997    0.96197    1.000
    H820     H        0.95423    0.33797    0.99087    1.000
    C1087    C        0.03583    0.55617    0.91387    1.000
    C1088    C        0.04073    0.59657    0.91377    1.000
    H821     H        0.06803    0.62067    0.91737    1.000
    C1089    C        0.00563    0.60157    0.90847    1.000
    H822     H        0.00933    0.62917    0.90677    1.000
    C1090    C        0.96653    0.56797    0.90557    1.000
    H823     H        0.94283    0.57187    0.90237    1.000
    C1091    C        0.96093    0.52797    0.90717    1.000
    H824     H        0.93323    0.50427    0.90557    1.000
    C1092    C        0.99453    0.52207    0.91097    1.000
    H825     H        0.99003    0.49417    0.91177    1.000
    C1093    C        0.10033    0.56767    0.97967    1.000
    C1094    C        0.14083    0.57417    0.99067    1.000
    H826     H        0.15783    0.57127    0.96677    1.000
    C1095    C        0.15473    0.58547    0.03957    1.000
    H827     H        0.18183    0.59017    0.04817    1.000
    C1096    C        0.13113    0.58997    0.07437    1.000
    H828     H        0.14133    0.59657    0.10667    1.000
    C1097    C        0.09233    0.58477    0.06297    1.000
    H829     H        0.07603    0.58897    0.08687    1.000
    C1098    C        0.07683    0.57307    0.01477    1.000
    H830     H        0.04973    0.56887    0.00677    1.000
    C1099    C        0.79523    0.29747    0.89217    1.000
    C1100    C        0.79903    0.29697    0.84327    1.000
    H831     H        0.80993    0.28107    0.82837    1.000
    C1101    C        0.78663    0.32057    0.81537    1.000
    H832     H        0.79013    0.32117    0.78107    1.000
    C1102    C        0.77043    0.34177    0.83387    1.000
    H833     H        0.76193    0.35697    0.81317    1.000
    C1103    C        0.76553    0.34247    0.88187    1.000
    H834     H        0.75383    0.35827    0.89547    1.000
    C1104    C        0.77793    0.31917    0.91267    1.000
    H835     H        0.77423    0.31877    0.94687    1.000
    C1105    C        0.79373    0.22057    0.90237    1.000
    C1106    C        0.81843    0.20507    0.88787    1.000
    H836     H        0.84813    0.22147    0.89197    1.000
    C1107    C        0.80053    0.16427    0.86657    1.000
    H837     H        0.81823    0.15407    0.85507    1.000
    C1108    C        0.75783    0.14007    0.86277    1.000
    H838     H        0.74523    0.11137    0.85307    1.000
    C1109    C        0.73313    0.15757    0.87307    1.000
    H839     H        0.70393    0.14287    0.86517    1.000
    C1110    C        0.75123    0.19717    0.89517    1.000
    H840     H        0.73373    0.20807    0.90537    1.000
    O30      O        0.19623    0.64187    0.88987    1.000
    Ag31     Ag       0.12686    0.20254    0.18607    1.000
    P61      P        0.13563    0.25126    0.25162    1.000
    P62      P        0.12361    0.51993    0.26650    1.000
    C1111    C        0.02000    0.32750    0.24390    1.000
    C1112    C        0.04590    0.30610    0.24990    1.000
    C1113    C        0.05660    0.29260    0.20730    1.000
    H841     H        0.04520    0.29480    0.17720    1.000
    C1114    C        0.08330    0.27630    0.20780    1.000
    H842     H        0.09050    0.26800    0.17830    1.000
    C1115    C        0.09970    0.27170    0.25250    1.000
    C1116    C        0.08770    0.28310    0.29380    1.000
    H843     H        0.09720    0.27940    0.32460    1.000
    C1117    C        0.06080    0.30070    0.29090    1.000
    H844     H        0.05310    0.30880    0.32020    1.000
    C1118    C        0.04600    0.37470    0.24980    1.000
    C1119    C        0.05900    0.39940    0.20940    1.000
    H845     H        0.05140    0.38710    0.17800    1.000
    C1120    C        0.08390    0.44360    0.21470    1.000
    H846     H        0.09380    0.46030    0.18610    1.000
    C1121    C        0.09430    0.46330    0.25830    1.000
    C1122    C        0.08270    0.43890    0.29850    1.000
    H847     H        0.09130    0.45180    0.32950    1.000
    C1123    C        0.05870    0.39540    0.29530    1.000
    H848     H        0.05040    0.37910    0.32420    1.000
    C1124    C        0.18700    0.29750    0.24720    1.000
    C1125    C        0.22250    0.29260    0.24710    1.000
    H849     H        0.21930    0.26530    0.25070    1.000
    C1126    C        0.26260    0.32770    0.24180    1.000
    H850     H        0.28650    0.32400    0.24010    1.000
    C1127    C        0.26810    0.36680    0.23890    1.000
    H851     H        0.29570    0.39050    0.23570    1.000
    C1128    C        0.23370    0.37240    0.24050    1.000
    H852     H        0.23770    0.40010    0.23890    1.000
    C1129    C        0.19420    0.33880    0.24430    1.000
    H853     H        0.17080    0.34330    0.24510    1.000
    C1130    C        0.13400    0.23300    0.31300    1.000
    C1131    C        0.10000    0.19250    0.32400    1.000
    H854     H        0.08010    0.17550    0.30010    1.000
    C1132    C        0.09740    0.17860    0.37290    1.000
    H855     H        0.07500    0.15150    0.38150    1.000
    C1133    C        0.12550    0.20220    0.40770    1.000
    H856     H        0.12190    0.19200    0.44000    1.000
    C1134    C        0.15910    0.24100    0.39630    1.000
    H857     H        0.17960    0.25730    0.42020    1.000
    C1135    C        0.16290    0.25650    0.34810    1.000
    H858     H        0.18580    0.28360    0.34010    1.000
    C1136    C        0.16890    0.53810    0.22550    1.000
    C1137    C        0.16460    0.53430    0.17660    1.000
    H859     H        0.13780    0.52340    0.16170    1.000
    C1138    C        0.20060    0.54670    0.14870    1.000
    H860     H        0.19770    0.54320    0.11440    1.000
    C1139    C        0.23800    0.56290    0.16720    1.000
    H861     H        0.26170    0.57140    0.14650    1.000
    C1140    C        0.24360    0.56780    0.21520    1.000
    H862     H        0.27110    0.57950    0.22880    1.000
    C1141    C        0.20790    0.55540    0.24600    1.000
    H863     H        0.21120    0.55910    0.28020    1.000
    C1142    C        0.09350    0.53960    0.23570    1.000
    C1143    C        0.05330    0.51490    0.22120    1.000
    H864     H        0.04000    0.48520    0.22530    1.000
    C1144    C        0.03040    0.53280    0.19990    1.000
    H865     H        0.00250    0.51510    0.18840    1.000
    C1145    C        0.04890    0.57550    0.19610    1.000
    H866     H        0.03280    0.58810    0.18640    1.000
    C1146    C        0.09110    0.60020    0.20640    1.000
    H867     H        0.10560    0.62940    0.19850    1.000
    C1147    C        0.11260    0.58210    0.22850    1.000
    H868     H        0.14100    0.59960    0.23870    1.000
    O31      O        0.11230    0.13710    0.22320    1.000
    Ag32     Ag       0.79353    0.53587    0.51940    1.000
    P63      P        0.80230    0.58459    0.58495    1.000
    P64      P        0.79028    0.85326    0.59983    1.000
    C1148    C        0.68667    0.66083    0.57723    1.000
    C1149    C        0.71257    0.63943    0.58323    1.000
    C1150    C        0.72327    0.62593    0.54063    1.000
    H869     H        0.71187    0.62813    0.51053    1.000
    C1151    C        0.74997    0.60963    0.54113    1.000
    H870     H        0.75717    0.60133    0.51163    1.000
    C1152    C        0.76637    0.60503    0.58583    1.000
    C1153    C        0.75437    0.61643    0.62713    1.000
    H871     H        0.76387    0.61273    0.65793    1.000
    C1154    C        0.72747    0.63403    0.62423    1.000
    H872     H        0.71977    0.64213    0.65353    1.000
    C1155    C        0.71267    0.70803    0.58313    1.000
    C1156    C        0.72567    0.73273    0.54273    1.000
    H873     H        0.71807    0.72043    0.51133    1.000
    C1157    C        0.75057    0.77693    0.54803    1.000
    H874     H        0.76047    0.79363    0.51943    1.000
    C1158    C        0.76097    0.79663    0.59163    1.000
    C1159    C        0.74937    0.77223    0.63183    1.000
    H875     H        0.75797    0.78513    0.66283    1.000
    C1160    C        0.72537    0.72873    0.62863    1.000
    H876     H        0.71707    0.71243    0.65753    1.000
    C1161    C        0.85367    0.63083    0.58053    1.000
    C1162    C        0.88917    0.62593    0.58043    1.000
    H877     H        0.88597    0.59863    0.58403    1.000
    C1163    C        0.92927    0.66103    0.57513    1.000
    H878     H        0.95317    0.65733    0.57343    1.000
    C1164    C        0.93477    0.70013    0.57223    1.000
    H879     H        0.96237    0.72383    0.56903    1.000
    C1165    C        0.90037    0.70573    0.57383    1.000
    H880     H        0.90437    0.73343    0.57223    1.000
    C1166    C        0.86087    0.67213    0.57763    1.000
    H881     H        0.83747    0.67663    0.57843    1.000
    C1167    C        0.80067    0.56633    0.64633    1.000
    C1168    C        0.76667    0.52583    0.65733    1.000
    H882     H        0.74677    0.50883    0.63343    1.000
    C1169    C        0.76407    0.51193    0.70623    1.000
    H883     H        0.74167    0.48483    0.71483    1.000
    C1170    C        0.79217    0.53553    0.74103    1.000
    H884     H        0.78857    0.52533    0.77333    1.000
    C1171    C        0.82577    0.57433    0.72963    1.000
    H885     H        0.84627    0.59063    0.75353    1.000
    C1172    C        0.82957    0.58983    0.68143    1.000
    H886     H        0.85247    0.61693    0.67343    1.000
    C1173    C        0.83557    0.87143    0.55883    1.000
    C1174    C        0.83127    0.86763    0.50993    1.000
    H887     H        0.80447    0.85673    0.49503    1.000
    C1175    C        0.86727    0.88003    0.48203    1.000
    H888     H        0.86437    0.87653    0.44773    1.000
    C1176    C        0.90467    0.89623    0.50053    1.000
    H889     H        0.92837    0.90473    0.47983    1.000
    C1177    C        0.91027    0.90113    0.54853    1.000
    H890     H        0.93777    0.91283    0.56213    1.000
    C1178    C        0.87457    0.88873    0.57933    1.000
    H891     H        0.87787    0.89243    0.61353    1.000
    C1179    C        0.76017    0.87293    0.56903    1.000
    C1180    C        0.71997    0.84823    0.55453    1.000
    H892     H        0.70667    0.81853    0.55863    1.000
    C1181    C        0.69707    0.86613    0.53323    1.000
    H893     H        0.66917    0.84843    0.52173    1.000
    C1182    C        0.71557    0.90883    0.52943    1.000
    H894     H        0.69947    0.92143    0.51973    1.000
    C1183    C        0.75777    0.93353    0.53973    1.000
    H895     H        0.77227    0.96273    0.53183    1.000
    C1184    C        0.77927    0.91543    0.56183    1.000
    H896     H        0.80767    0.93293    0.57203    1.000
    O32      O        0.77897    0.47043    0.55653    1.000
    Ag33     Ag       0.46019    0.86921    0.85274    1.000
    P65      P        0.46896    0.91793    0.91829    1.000
    P66      P        0.45694    0.18660    0.93317    1.000
    C1185    C        0.35333    0.99417    0.91057    1.000
    C1186    C        0.37923    0.97277    0.91657    1.000
    C1187    C        0.38993    0.95927    0.87397    1.000
    H897     H        0.37853    0.96147    0.84387    1.000
    C1188    C        0.41663    0.94297    0.87447    1.000
    H898     H        0.42383    0.93467    0.84497    1.000
    C1189    C        0.43303    0.93837    0.91917    1.000
    C1190    C        0.42103    0.94977    0.96047    1.000
    H899     H        0.43053    0.94607    0.99127    1.000
    C1191    C        0.39413    0.96737    0.95757    1.000
    H900     H        0.38643    0.97547    0.98687    1.000
    C1192    C        0.37933    0.04137    0.91647    1.000
    C1193    C        0.39233    0.06607    0.87607    1.000
    H901     H        0.38473    0.05377    0.84467    1.000
    C1194    C        0.41723    0.11027    0.88137    1.000
    H902     H        0.42713    0.12697    0.85277    1.000
    C1195    C        0.42763    0.12997    0.92497    1.000
    C1196    C        0.41603    0.10557    0.96517    1.000
    H903     H        0.42463    0.11847    0.99617    1.000
    C1197    C        0.39203    0.06207    0.96197    1.000
    H904     H        0.38373    0.04577    0.99087    1.000
    C1198    C        0.52033    0.96417    0.91387    1.000
    C1199    C        0.55583    0.95927    0.91377    1.000
    H905     H        0.55263    0.93197    0.91737    1.000
    C1200    C        0.59593    0.99437    0.90847    1.000
    H906     H        0.61983    0.99067    0.90677    1.000
    C1201    C        0.60143    0.03347    0.90557    1.000
    H907     H        0.62903    0.05717    0.90237    1.000
    C1202    C        0.56703    0.03907    0.90717    1.000
    H908     H        0.57103    0.06677    0.90557    1.000
    C1203    C        0.52753    0.00547    0.91097    1.000
    H909     H        0.50413    0.00997    0.91177    1.000
    C1204    C        0.46733    0.89967    0.97967    1.000
    C1205    C        0.43333    0.85917    0.99067    1.000
    H910     H        0.41343    0.84217    0.96677    1.000
    C1206    C        0.43073    0.84527    0.03957    1.000
    H911     H        0.40833    0.81817    0.04817    1.000
    C1207    C        0.45883    0.86887    0.07437    1.000
    H912     H        0.45523    0.85867    0.10667    1.000
    C1208    C        0.49243    0.90767    0.06297    1.000
    H913     H        0.51293    0.92397    0.08687    1.000
    C1209    C        0.49623    0.92317    0.01477    1.000
    H914     H        0.51913    0.95027    0.00677    1.000
    C1210    C        0.50223    0.20477    0.89217    1.000
    C1211    C        0.49793    0.20097    0.84327    1.000
    H915     H        0.47113    0.19007    0.82837    1.000
    C1212    C        0.53393    0.21337    0.81537    1.000
    H916     H        0.53103    0.20987    0.78107    1.000
    C1213    C        0.57133    0.22957    0.83387    1.000
    H917     H        0.59503    0.23807    0.81317    1.000
    C1214    C        0.57693    0.23447    0.88187    1.000
    H918     H        0.60443    0.24617    0.89547    1.000
    C1215    C        0.54123    0.22207    0.91267    1.000
    H919     H        0.54453    0.22577    0.94687    1.000
    C1216    C        0.42683    0.20627    0.90237    1.000
    C1217    C        0.38663    0.18157    0.88787    1.000
    H920     H        0.37333    0.15187    0.89197    1.000
    C1218    C        0.36373    0.19947    0.86657    1.000
    H921     H        0.33583    0.18177    0.85507    1.000
    C1219    C        0.38223    0.24217    0.86277    1.000
    H922     H        0.36613    0.25477    0.85307    1.000
    C1220    C        0.42443    0.26687    0.87307    1.000
    H923     H        0.43893    0.29607    0.86517    1.000
    C1221    C        0.44593    0.24877    0.89517    1.000
    H924     H        0.47433    0.26627    0.90537    1.000
    O33      O        0.44563    0.80377    0.88987    1.000
    Ag34     Ag       0.07568    0.87314    0.18607    1.000
    P67      P        0.11563    0.86437    0.25162    1.000
    P68      P        0.39632    0.87639    0.26650    1.000
    C1222    C        0.30750    0.98000    0.24390    1.000
    C1223    C        0.26020    0.95410    0.24990    1.000
    C1224    C        0.23600    0.94340    0.20730    1.000
    H925     H        0.24960    0.95480    0.17720    1.000
    C1225    C        0.19300    0.91670    0.20780    1.000
    H926     H        0.17750    0.90950    0.17830    1.000
    C1226    C        0.17200    0.90030    0.25250    1.000
    C1227    C        0.19540    0.91230    0.29380    1.000
    H927     H        0.18220    0.90280    0.32460    1.000
    C1228    C        0.23990    0.93920    0.29090    1.000
    H928     H        0.25570    0.94690    0.32020    1.000
    C1229    C        0.32870    0.95400    0.24980    1.000
    C1230    C        0.34040    0.94100    0.20940    1.000
    H929     H        0.33570    0.94860    0.17800    1.000
    C1231    C        0.35970    0.91610    0.21470    1.000
    H930     H        0.36650    0.90620    0.18610    1.000
    C1232    C        0.36900    0.90570    0.25830    1.000
    C1233    C        0.35620    0.91730    0.29850    1.000
    H931     H        0.36050    0.90870    0.32950    1.000
    C1234    C        0.33670    0.94130    0.29530    1.000
    H932     H        0.32870    0.94960    0.32420    1.000
    C1235    C        0.11050    0.81300    0.24720    1.000
    C1236    C        0.07010    0.77750    0.24710    1.000
    H933     H        0.04600    0.78070    0.25070    1.000
    C1237    C        0.06510    0.73740    0.24180    1.000
    H934     H        0.03750    0.71350    0.24010    1.000
    C1238    C        0.09870    0.73190    0.23890    1.000
    H935     H        0.09480    0.70430    0.23570    1.000
    C1239    C        0.13870    0.76630    0.24050    1.000
    H936     H        0.16240    0.76230    0.23890    1.000
    C1240    C        0.14460    0.80580    0.24430    1.000
    H937     H        0.17250    0.82920    0.24510    1.000
    C1241    C        0.09900    0.86600    0.31300    1.000
    C1242    C        0.09250    0.90000    0.32400    1.000
    H938     H        0.09540    0.91990    0.30010    1.000
    C1243    C        0.08120    0.90260    0.37290    1.000
    H939     H        0.07650    0.92500    0.38150    1.000
    C1244    C        0.07670    0.87450    0.40770    1.000
    H940     H        0.07010    0.87810    0.44000    1.000
    C1245    C        0.08190    0.84090    0.39630    1.000
    H941     H        0.07770    0.82040    0.42020    1.000
    C1246    C        0.09360    0.83710    0.34810    1.000
    H942     H        0.09780    0.81420    0.34010    1.000
    C1247    C        0.36920    0.83110    0.22550    1.000
    C1248    C        0.36970    0.83540    0.17660    1.000
    H943     H        0.38560    0.86220    0.16170    1.000
    C1249    C        0.34610    0.79940    0.14870    1.000
    H944     H        0.34550    0.80230    0.11440    1.000
    C1250    C        0.32490    0.76200    0.16720    1.000
    H945     H        0.30970    0.73830    0.14650    1.000
    C1251    C        0.32420    0.75640    0.21520    1.000
    H946     H        0.30840    0.72890    0.22880    1.000
    C1252    C        0.34750    0.79210    0.24600    1.000
    H947     H        0.34790    0.78880    0.28020    1.000
    C1253    C        0.44610    0.90650    0.23570    1.000
    C1254    C        0.46160    0.94670    0.22120    1.000
    H948     H        0.44520    0.96000    0.22530    1.000
    C1255    C        0.50240    0.96960    0.19990    1.000
    H949     H        0.51260    0.99750    0.18840    1.000
    C1256    C        0.52660    0.95110    0.19610    1.000
    H950     H        0.55530    0.96720    0.18640    1.000
    C1257    C        0.50910    0.90890    0.20640    1.000
    H951     H        0.52380    0.89440    0.19850    1.000
    C1258    C        0.46950    0.88740    0.22850    1.000
    H952     H        0.45860    0.85900    0.23870    1.000
    O34      O        0.02480    0.88770    0.22320    1.000
    Ag35     Ag       0.74235    0.20647    0.51940    1.000
    P69      P        0.78230    0.19770    0.58495    1.000
    P70      P        0.06299    0.20972    0.59983    1.000
    C1259    C        0.97417    0.31333    0.57723    1.000
    C1260    C        0.92687    0.28743    0.58323    1.000
    C1261    C        0.90267    0.27673    0.54063    1.000
    H953     H        0.91627    0.28813    0.51053    1.000
    C1262    C        0.85967    0.25003    0.54113    1.000
    H954     H        0.84417    0.24283    0.51163    1.000
    C1263    C        0.83867    0.23363    0.58583    1.000
    C1264    C        0.86207    0.24563    0.62713    1.000
    H955     H        0.84887    0.23613    0.65793    1.000
    C1265    C        0.90657    0.27253    0.62423    1.000
    H956     H        0.92237    0.28023    0.65353    1.000
    C1266    C        0.99537    0.28733    0.58313    1.000
    C1267    C        0.00707    0.27433    0.54273    1.000
    H957     H        0.00237    0.28193    0.51133    1.000
    C1268    C        0.02637    0.24943    0.54803    1.000
    H958     H        0.03317    0.23953    0.51943    1.000
    C1269    C        0.03567    0.23903    0.59163    1.000
    C1270    C        0.02287    0.25063    0.63183    1.000
    H959     H        0.02717    0.24203    0.66283    1.000
    C1271    C        0.00337    0.27463    0.62863    1.000
    H960     H        0.99537    0.28293    0.65753    1.000
    C1272    C        0.77717    0.14633    0.58053    1.000
    C1273    C        0.73677    0.11083    0.58043    1.000
    H961     H        0.71267    0.11403    0.58403    1.000
    C1274    C        0.73177    0.07073    0.57513    1.000
    H962     H        0.70417    0.04683    0.57343    1.000
    C1275    C        0.76537    0.06523    0.57223    1.000
    H963     H        0.76147    0.03763    0.56903    1.000
    C1276    C        0.80537    0.09963    0.57383    1.000
    H964     H        0.82907    0.09563    0.57223    1.000
    C1277    C        0.81127    0.13913    0.57763    1.000
    H965     H        0.83917    0.16253    0.57843    1.000
    C1278    C        0.76567    0.19933    0.64633    1.000
    C1279    C        0.75917    0.23333    0.65733    1.000
    H966     H        0.76207    0.25323    0.63343    1.000
    C1280    C        0.74787    0.23593    0.70623    1.000
    H967     H        0.74317    0.25833    0.71483    1.000
    C1281    C        0.74337    0.20783    0.74103    1.000
    H968     H        0.73677    0.21143    0.77333    1.000
    C1282    C        0.74857    0.17423    0.72963    1.000
    H969     H        0.74437    0.15373    0.75353    1.000
    C1283    C        0.76027    0.17043    0.68143    1.000
    H970     H        0.76447    0.14753    0.67343    1.000
    C1284    C        0.03587    0.16443    0.55883    1.000
    C1285    C        0.03637    0.16873    0.50993    1.000
    H971     H        0.05227    0.19553    0.49503    1.000
    C1286    C        0.01277    0.13273    0.48203    1.000
    H972     H        0.01217    0.13563    0.44773    1.000
    C1287    C        0.99157    0.09533    0.50053    1.000
    H973     H        0.97637    0.07163    0.47983    1.000
    C1288    C        0.99087    0.08973    0.54853    1.000
    H974     H        0.97507    0.06223    0.56213    1.000
    C1289    C        0.01417    0.12543    0.57933    1.000
    H975     H        0.01457    0.12213    0.61353    1.000
    C1290    C        0.11277    0.23983    0.56903    1.000
    C1291    C        0.12827    0.28003    0.55453    1.000
    H976     H        0.11187    0.29333    0.55863    1.000
    C1292    C        0.16907    0.30293    0.53323    1.000
    H977     H        0.17927    0.33083    0.52173    1.000
    C1293    C        0.19327    0.28443    0.52943    1.000
    H978     H        0.22197    0.30053    0.51973    1.000
    C1294    C        0.17577    0.24223    0.53973    1.000
    H979     H        0.19047    0.22773    0.53183    1.000
    C1295    C        0.13617    0.22073    0.56183    1.000
    H980     H        0.12527    0.19233    0.57203    1.000
    O35      O        0.69147    0.22103    0.55653    1.000
    Ag36     Ag       0.40901    0.53981    0.85274    1.000
    P71      P        0.44896    0.53104    0.91829    1.000
    P72      P        0.72965    0.54306    0.93317    1.000
    C1296    C        0.64083    0.64667    0.91057    1.000
    C1297    C        0.59353    0.62077    0.91657    1.000
    C1298    C        0.56933    0.61007    0.87397    1.000
    H981     H        0.58293    0.62147    0.84387    1.000
    C1299    C        0.52633    0.58337    0.87447    1.000
    H982     H        0.51083    0.57617    0.84497    1.000
    C1300    C        0.50533    0.56697    0.91917    1.000
    C1301    C        0.52873    0.57897    0.96047    1.000
    H983     H        0.51553    0.56947    0.99127    1.000
    C1302    C        0.57323    0.60587    0.95757    1.000
    H984     H        0.58903    0.61357    0.98687    1.000
    C1303    C        0.66203    0.62067    0.91647    1.000
    C1304    C        0.67373    0.60767    0.87607    1.000
    H985     H        0.66903    0.61527    0.84467    1.000
    C1305    C        0.69303    0.58277    0.88137    1.000
    H986     H        0.69983    0.57287    0.85277    1.000
    C1306    C        0.70233    0.57237    0.92497    1.000
    C1307    C        0.68953    0.58397    0.96517    1.000
    H987     H        0.69383    0.57537    0.99617    1.000
    C1308    C        0.67003    0.60797    0.96197    1.000
    H988     H        0.66203    0.61627    0.99087    1.000
    C1309    C        0.44383    0.47967    0.91387    1.000
    C1310    C        0.40343    0.44417    0.91377    1.000
    H989     H        0.37933    0.44737    0.91737    1.000
    C1311    C        0.39843    0.40407    0.90847    1.000
    H990     H        0.37083    0.38017    0.90677    1.000
    C1312    C        0.43203    0.39857    0.90557    1.000
    H991     H        0.42813    0.37097    0.90237    1.000
    C1313    C        0.47203    0.43297    0.90717    1.000
    H992     H        0.49573    0.42897    0.90557    1.000
    C1314    C        0.47793    0.47247    0.91097    1.000
    H993     H        0.50583    0.49587    0.91177    1.000
    C1315    C        0.43233    0.53267    0.97967    1.000
    C1316    C        0.42583    0.56667    0.99067    1.000
    H994     H        0.42873    0.58657    0.96677    1.000
    C1317    C        0.41453    0.56927    0.03957    1.000
    H995     H        0.40983    0.59167    0.04817    1.000
    C1318    C        0.41003    0.54117    0.07437    1.000
    H996     H        0.40343    0.54477    0.10667    1.000
    C1319    C        0.41523    0.50757    0.06297    1.000
    H997     H        0.41103    0.48707    0.08687    1.000
    C1320    C        0.42693    0.50377    0.01477    1.000
    H998     H        0.43113    0.48087    0.00677    1.000
    C1321    C        0.70253    0.49777    0.89217    1.000
    C1322    C        0.70303    0.50207    0.84327    1.000
    H999     H        0.71893    0.52887    0.82837    1.000
    C1323    C        0.67943    0.46607    0.81537    1.000
    H1000    H        0.67883    0.46897    0.78107    1.000
    C1324    C        0.65823    0.42867    0.83387    1.000
    H1001    H        0.64303    0.40497    0.81317    1.000
    C1325    C        0.65753    0.42307    0.88187    1.000
    H1002    H        0.64173    0.39557    0.89547    1.000
    C1326    C        0.68083    0.45877    0.91267    1.000
    H1003    H        0.68123    0.45547    0.94687    1.000
    C1327    C        0.77943    0.57317    0.90237    1.000
    C1328    C        0.79493    0.61337    0.88787    1.000
    H1004    H        0.77853    0.62667    0.89197    1.000
    C1329    C        0.83573    0.63627    0.86657    1.000
    H1005    H        0.84593    0.66417    0.85507    1.000
    C1330    C        0.85993    0.61777    0.86277    1.000
    H1006    H        0.88863    0.63387    0.85307    1.000
    C1331    C        0.84243    0.57557    0.87307    1.000
    H1007    H        0.85713    0.56107    0.86517    1.000
    C1332    C        0.80283    0.55407    0.89517    1.000
    H1008    H        0.79193    0.52567    0.90537    1.000
    O36      O        0.35813    0.55437    0.88987    1.000
    C1333    C        0.00000    0.14350    0.75000    1.000
    O37      O        0.00000    0.17680    0.75000    1.000
    C1334    C        0.66667    0.47683    0.08333    1.000
    O38      O        0.66667    0.51013    0.08333    1.000
    C1335    C        0.33333    0.81017    0.41667    1.000
    O39      O        0.33333    0.84347    0.41667    1.000
    C1336    C        0.85650    0.85650    0.75000    1.000
    O40      O        0.82320    0.82320    0.75000    1.000
    C1337    C        0.52317    0.18983    0.08333    1.000
    O41      O        0.48987    0.15653    0.08333    1.000
    C1338    C        0.18983    0.52317    0.41667    1.000
    O42      O        0.15653    0.48987    0.41667    1.000
    C1339    C        0.14350    0.00000    0.75000    1.000
    O43      O        0.17680    0.00000    0.75000    1.000
    C1340    C        0.81017    0.33333    0.08333    1.000
    O44      O        0.84347    0.33333    0.08333    1.000
    C1341    C        0.47683    0.66667    0.41667    1.000
    O45      O        0.51013    0.66667    0.41667    1.000
    C1342    C        0.00000    0.85650    0.25000    1.000
    O46      O        0.00000    0.82320    0.25000    1.000
    C1343    C        0.66667    0.18983    0.58333    1.000
    O47      O        0.66667    0.15653    0.58333    1.000
    C1344    C        0.33333    0.52317    0.91667    1.000
    O48      O        0.33333    0.48987    0.91667    1.000
    C1345    C        0.14350    0.14350    0.25000    1.000
    O49      O        0.17680    0.17680    0.25000    1.000
    C1346    C        0.81017    0.47683    0.58333    1.000
    O50      O        0.84347    0.51013    0.58333    1.000
    C1347    C        0.47683    0.81017    0.91667    1.000
    O51      O        0.51013    0.84347    0.91667    1.000
    C1348    C        0.85650    0.00000    0.25000    1.000
    O52      O        0.82320    0.00000    0.25000    1.000
    C1349    C        0.52317    0.33333    0.58333    1.000
    O53      O        0.48987    0.33333    0.58333    1.000
    C1350    C        0.18983    0.66667    0.91667    1.000
    O54      O        0.15653    0.66667    0.91667    1.000
