data_functionalizedCrystal
_audit_creation_method	'EQeq! by Chris Wilmer'
_symmetry_space_group_name_H-M	'P1'
_symmetry_Int_Tables_number	1
_symmetry_cell_setting	triclinic
loop_
_symmetry_equiv_pos_as_xyz
  x,y,z
_cell_length_a	21.719
_cell_length_b	19.469
_cell_length_c	20.835
_cell_angle_alpha	90
_cell_angle_beta	108.856
_cell_angle_gamma	90
loop_
_atom_site_label
_atom_site_type_symbol
_atom_site_fract_x
_atom_site_fract_y
_atom_site_fract_z
_atom_site_charge
Mof_Zn	Zn	0.73716	0.72601	0.7103	1.207
Mof_Zn	Zn	0.72787	0.22757	0.93465	1.21
Mof_Zn	Zn	0.25809	0.80337	0.62482	1.208
Mof_O 	O 	0.65776	0.739	0.6327	-0.469
Mof_C 	C 	0.7709	0.3376	0.8881	0.347
Mof_N 	N 	0.7924	0.1975	0.023	-0.278
Mof_N 	N 	0.7977	0.7641	0.6639	-0.275
Mof_N 	N 	0.8733	0.1877	0.1217	-0.132
Mof_C 	C 	0.8482	0.2205	0.0614	0.175
Mof_N 	N 	0.8787	0.7989	0.6258	-0.125
Mof_O 	O 	0.7344	0.6304	0.7348	-0.448
Mof_C 	C 	0.6001	0.7309	0.6322	0.363
Mof_C 	C 	0.7372	0.0565	0.7708	0.129
Mof_O 	O 	0.8187	0.3003	0.8987	-0.349
Mof_C 	C 	0.549	0.7295	0.5635	-0.08
Mof_C 	C 	0.7706	0.0705	0.0153	0.023
Mof_C 	C 	0.7867	0.6095	0.7812	0.305
Mof_C 	C 	0.8287	0.1317	0.1279	-0.081
Mof_H 	H 	0.8109	0.1406	0.1642	0.062
Mof_H 	H 	0.8503	0.0873	0.1352	0.065
Mof_C 	C 	0.7444	0.997	0.7276	-0.045
Mof_C 	C 	0.7814	0.5374	0.8063	-0.039
Mof_C 	C 	0.9418	0.8051	0.6262	0.038
Mof_H 	H 	0.9508	0.8315	0.5931	0.02
Mof_C 	C 	0.8368	0.5067	0.8506	-0.042
Mof_H 	H 	0.8764	0.5298	0.8628	0.058
Mof_C 	C 	0.6841	0.0608	0.7924	-0.182
Mof_H 	H 	0.6504	0.0291	0.7779	0.096
Mof_C 	C 	0.7603	0.884	0.6517	0.029
Mof_C 	C 	0.86	0.7582	0.6721	0.167
Mof_C 	C 	0.7758	0.136	0.0573	-0.007
Mof_H 	H 	0.7337	0.1443	0.0639	0.034
Mof_O 	O 	0.5853	0.7173	0.6823	-0.31
Mof_C 	C 	0.9102	0.7222	0.7187	-0.189
Mof_H 	H 	0.9008	0.6921	0.7489	0.103
Mof_C 	C 	0.9434	0.2916	0.0959	0.065
Mof_H 	H 	0.9692	0.3259	0.0867	0.006
Mof_C 	C 	0.82	0.0514	0.9921	-0.081
Mof_H 	H 	0.8577	0.0778	0.0031	0.061
Mof_C 	C 	0.6907	0.9663	0.6813	-0.009
Mof_H 	H 	0.6492	0.9833	0.6752	0.032
Mof_C 	C 	0.774	0.4075	0.8595	-0.08
Mof_C 	C 	0.8332	0.4426	0.8764	-0.004
Mof_H 	H 	0.8706	0.4222	0.9054	0.037
Mof_C 	C 	0.715	0.0313	0.9991	-0.08
Mof_H 	H 	0.6807	0.044	0.0142	0.062
Mof_C 	C 	0.7179	0.4378	0.8164	-0.006
Mof_H 	H 	0.678	0.4156	0.8061	0.049
Mof_C 	C 	0.6994	0.9094	0.6437	-0.102
Mof_H 	H 	0.6633	0.8886	0.613	0.066
Mof_C 	C 	0.8064	0.9712	0.7346	-0.006
Mof_H 	H 	0.843	0.9913	0.7652	0.032
Mof_C 	C 	0.9306	0.2031	0.1682	0.049
Mof_H 	H 	0.9453	0.1773	0.2078	0.03
Mof_C 	C 	0.9735	0.7308	0.7206	0.047
Mof_H 	H 	0.0066	0.7079	0.7535	0.036
Mof_C 	C 	0.8127	0.917	0.6968	-0.093
Mof_H 	H 	0.8543	0.9011	0.7015	0.069
Mof_C 	C 	0.9672	0.2556	0.1582	-0.082
Mof_C 	C 	0.7698	0.8201	0.614	-0.011
Mof_H 	H 	0.7282	0.8055	0.5815	0.038
Mof_O 	O 	0.835	0.645	0.8064	-0.323
Mof_C 	C 	0.9897	0.7743	0.6728	-0.069
Mof_C 	C 	0.7229	0.5034	0.7885	-0.034
Mof_H 	H 	0.6863	0.5235	0.7578	0.062
Mof_C 	C 	0.8208	0.8302	0.5776	-0.081
Mof_H 	H 	0.8082	0.8068	0.5342	0.069
Mof_H 	H 	0.8277	0.8786	0.5707	0.066
Mof_C 	C 	0.7847	0.1064	0.7928	-0.191
Mof_H 	H 	0.8202	0.1073	0.7772	0.108
Mof_O 	O 	0.7202	0.3219	0.8983	-0.461
Mof_O 	O 	0.2513	0.886	0.5711	-0.506
Mof_C 	C 	0.5642	0.73	0.5065	-0.016
Mof_H 	H 	0.6076	0.7326	0.509	0.051
Mof_O 	O 	0.2653	0.9458	0.6603	-0.329
Mof_C 	C 	0.4836	0.7267	0.5566	-0.017
Mof_H 	H 	0.4713	0.7224	0.5952	0.045
Mof_C 	C 	0.2575	0.0041	0.5561	-0.08
Mof_C 	C 	0.2566	0.9388	0.5989	0.396
Mof_C 	C 	0.245	0.0651	0.5773	-0.007
Mof_H 	H 	0.2397	0.0686	0.6197	0.046
Mof_C 	C 	0.885	0.2783	0.0494	-0.199
Mof_H 	H 	0.869	0.3054	0.0108	0.101
Mof_C 	C 	0.2638	0.9972	0.4933	-0.006
Mof_H 	H 	0.2711	0.9542	0.4776	0.045
Mof_C 	C 	0.2495	0.1179	0.4765	-0.032
Mof_C 	C 	0.2397	0.1236	0.5384	-0.043
Mof_H 	H 	0.2297	0.1658	0.5536	0.051
Mof_C 	C 	0.2595	0.0527	0.4545	-0.046
Mof_H 	H 	0.2634	0.0477	0.4116	0.066
Mof_C 	C 	0.074	0.8451	0.6469	-0.149
Mof_H 	H 	0.0438	0.8804	0.6329	0.084
Mof_C 	C 	0.1349	0.8515	0.639	0.061
Mof_H 	H 	0.1454	0.8911	0.6198	-0.002
Mof_N 	N 	0.18016	0.7987	0.6598	-0.259
Mof_C 	C 	0.1645	0.7396	0.6885	0.063
Mof_H 	H 	0.1947	0.7043	0.7024	0.007
Mof_C 	C 	0.1036	0.7332	0.6964	-0.148
Mof_H 	H 	0.0931	0.6936	0.7156	0.09
Mof_C 	C 	0.0584	0.7859	0.6756	0.107
Mof_C 	C 	0.1058	0.2628	0.3243	0.082
Mof_H 	H 	0.1147	0.2481	0.3689	-0.011
Mof_N 	N 	0.15383	0.2954	0.3047	-0.266
Mof_C 	C 	0.1406	0.3174	0.2381	0.083
Mof_H 	H 	0.1727	0.3391	0.225	-0.001
Mof_C 	C 	0.0792	0.3068	0.1911	-0.159
Mof_H 	H 	0.0703	0.3215	0.1466	0.097
Mof_C 	C 	0.03119	0.2742	0.2107	0.119
Mof_C 	C 	0.0445	0.2522	0.2773	-0.168
Mof_H 	H 	0.0123	0.2304	0.2904	0.108
Mof_C 	C 	0.7594	0.9521	0.935	-0.037
Mof_C 	C 	0.7534	0.8929	0.8881	0.112
Mof_C 	C 	0.8149	0.9936	0.9524	-0.019
Mof_H 	H 	0.8492	0.9819	0.9369	0.036
Mof_C 	C 	0.7105	0.9713	0.9593	-0.02
Mof_H 	H 	0.6732	0.9443	0.9493	0.034
Mof_C 	C 	0.6899	0.8238	0.7952	0.106
Mof_H 	H 	0.6492	0.8126	0.7649	-0.012
Mof_C 	C 	0.7981	0.8056	0.8377	0.104
Mof_H 	H 	0.835	0.7818	0.8369	-0.022
Mof_C 	C 	0.6816	0.1137	0.8365	0.105
Mof_H 	H 	0.6448	0.117	0.85	-0.011
Mof_C 	C 	0.6934	0.8754	0.8426	-0.174
Mof_H 	H 	0.6559	0.8978	0.8436	0.091
Mof_C 	C 	0.8048	0.8542	0.8857	-0.183
Mof_H 	H 	0.8455	0.8614	0.9178	0.096
Mof_C 	C 	0.7782	0.154	0.8377	0.116
Mof_H 	H 	0.8119	0.1855	0.8539	-0.017
Mof_N 	N 	0.7406	0.7901	0.7908	-0.275
Mof_N 	N 	0.7285	0.1593	0.8603	-0.281
Mof_O 	O 	0.6521	0.2119	0.9631	-0.483
Mof_O 	O 	0.5757	0.212	0.8668	-0.324
Mof_C 	C 	0.5452	0.2082	0.9658	-0.081
Mof_C 	C 	0.5943	0.2091	0.9268	0.395
Mof_C 	C 	0.4799	0.2101	0.9326	-0.015
Mof_H 	H 	0.4654	0.2137	0.8855	0.053
Mof_C 	C 	0.5653	0.207	0.0344	-0.017
Mof_H 	H 	0.6094	0.2041	0.0589	0.056
Mof_O 	O 	0.2578	0.7354	0.5514	-0.464
Mof_C 	C 	0.2541	0.6815	0.5743	0.336
Mof_O 	O 	0.2619	0.6642	0.6343	-0.331
Mof_Zn	Zn	0.23716	0.22601	0.7103	1.208
Mof_Zn	Zn	0.22787	0.72757	0.93465	1.211
Mof_Zn	Zn	0.75809	0.30337	0.62482	1.209
Mof_O 	O 	0.15776	0.239	0.6327	-0.467
Mof_C 	C 	0.2709	0.8376	0.8881	0.346
Mof_N 	N 	0.2924	0.6975	0.023	-0.276
Mof_N 	N 	0.2977	0.2641	0.6639	-0.275
Mof_N 	N 	0.3733	0.6877	0.1217	-0.132
Mof_C 	C 	0.3482	0.7205	0.0614	0.175
Mof_N 	N 	0.3787	0.2989	0.6258	-0.125
Mof_O 	O 	0.2344	0.1304	0.7348	-0.449
Mof_C 	C 	0.1001	0.2309	0.6322	0.363
Mof_C 	C 	0.2372	0.5565	0.7708	0.123
Mof_O 	O 	0.3187	0.8003	0.8987	-0.348
Mof_C 	C 	0.049	0.2295	0.5635	-0.08
Mof_C 	C 	0.2706	0.5705	0.0153	0.027
Mof_C 	C 	0.2867	0.1095	0.7812	0.308
Mof_C 	C 	0.3287	0.6317	0.1279	-0.08
Mof_H 	H 	0.3109	0.6406	0.1642	0.061
Mof_H 	H 	0.3503	0.5873	0.1352	0.064
Mof_C 	C 	0.2444	0.497	0.7276	-0.039
Mof_C 	C 	0.2814	0.0374	0.8063	-0.046
Mof_C 	C 	0.4418	0.3051	0.6262	0.038
Mof_H 	H 	0.4508	0.3315	0.5931	0.02
Mof_C 	C 	0.3368	0.0067	0.8506	-0.031
Mof_H 	H 	0.3764	0.0298	0.8628	0.055
Mof_C 	C 	0.1841	0.5608	0.7924	-0.179
Mof_H 	H 	0.1504	0.5291	0.7779	0.093
Mof_C 	C 	0.2603	0.384	0.6517	0.027
Mof_C 	C 	0.36	0.2582	0.6721	0.167
Mof_C 	C 	0.2758	0.636	0.0573	-0.01
Mof_H 	H 	0.2337	0.6443	0.0639	0.035
Mof_O 	O 	0.0853	0.2173	0.6823	-0.31
Mof_C 	C 	0.4102	0.2222	0.7187	-0.189
Mof_H 	H 	0.4008	0.1921	0.7489	0.104
Mof_C 	C 	0.4434	0.7916	0.0959	0.066
Mof_H 	H 	0.4692	0.8259	0.0867	0.006
Mof_C 	C 	0.32	0.5514	0.9921	-0.09
Mof_H 	H 	0.3577	0.5778	0.0031	0.063
Mof_C 	C 	0.1907	0.4663	0.6813	-0.013
Mof_H 	H 	0.1492	0.4833	0.6752	0.034
Mof_C 	C 	0.274	0.9075	0.8595	-0.074
Mof_C 	C 	0.3332	0.9426	0.8764	-0.016
Mof_H 	H 	0.3706	0.9222	0.9054	0.041
Mof_C 	C 	0.215	0.5313	0.9991	-0.089
Mof_H 	H 	0.1807	0.544	0.0142	0.063
Mof_C 	C 	0.2179	0.9378	0.8164	-0.017
Mof_H 	H 	0.178	0.9156	0.8061	0.052
Mof_C 	C 	0.1994	0.4094	0.6437	-0.099
Mof_H 	H 	0.1633	0.3886	0.613	0.065
Mof_C 	C 	0.3064	0.4712	0.7346	-0.01
Mof_H 	H 	0.343	0.4913	0.7652	0.035
Mof_C 	C 	0.4306	0.7031	0.1682	0.049
Mof_H 	H 	0.4453	0.6773	0.2078	0.03
Mof_C 	C 	0.4735	0.2308	0.7206	0.048
Mof_H 	H 	0.5066	0.2079	0.7535	0.036
Mof_C 	C 	0.3127	0.417	0.6968	-0.089
Mof_H 	H 	0.3543	0.4011	0.7015	0.068
Mof_C 	C 	0.4672	0.7556	0.1582	-0.083
Mof_C 	C 	0.2698	0.3201	0.614	-0.01
Mof_H 	H 	0.2282	0.3055	0.5815	0.038
Mof_O 	O 	0.335	0.145	0.8064	-0.323
Mof_C 	C 	0.4897	0.2743	0.6728	-0.069
Mof_C 	C 	0.2229	0.0034	0.7885	-0.023
Mof_H 	H 	0.1863	0.0235	0.7578	0.059
Mof_C 	C 	0.3208	0.3302	0.5776	-0.082
Mof_H 	H 	0.3082	0.3068	0.5342	0.07
Mof_H 	H 	0.3277	0.3786	0.5707	0.067
Mof_C 	C 	0.2847	0.6064	0.7928	-0.188
Mof_H 	H 	0.3202	0.6073	0.7772	0.106
Mof_O 	O 	0.2202	0.8219	0.8983	-0.461
Mof_O 	O 	0.7513	0.386	0.5711	-0.508
Mof_C 	C 	0.0642	0.23	0.5065	-0.016
Mof_H 	H 	0.1076	0.2326	0.509	0.051
Mof_O 	O 	0.7653	0.4458	0.6603	-0.329
Mof_C 	C 	0.9836	0.2267	0.5566	-0.017
Mof_H 	H 	0.9713	0.2224	0.5952	0.046
Mof_C 	C 	0.7575	0.5041	0.5561	-0.1
Mof_C 	C 	0.7566	0.4388	0.5989	0.404
Mof_C 	C 	0.745	0.5651	0.5773	0.009
Mof_H 	H 	0.7397	0.5686	0.6197	0.041
Mof_C 	C 	0.385	0.7783	0.0494	-0.199
Mof_H 	H 	0.369	0.8054	0.0108	0.101
Mof_C 	C 	0.7638	0.4972	0.4933	0.019
Mof_H 	H 	0.7711	0.4542	0.4776	0.037
Mof_C 	C 	0.7495	0.6179	0.4765	-0.022
Mof_C 	C 	0.7397	0.6236	0.5384	-0.056
Mof_H 	H 	0.7297	0.6658	0.5536	0.056
Mof_C 	C 	0.7595	0.5527	0.4545	-0.066
Mof_H 	H 	0.7634	0.5477	0.4116	0.072
Mof_C 	C 	0.574	0.3451	0.6469	-0.149
Mof_H 	H 	0.5438	0.3804	0.6329	0.084
Mof_C 	C 	0.6349	0.3515	0.639	0.062
Mof_H 	H 	0.6454	0.3911	0.6198	-0.002
Mof_N 	N 	0.68016	0.2987	0.6598	-0.259
Mof_C 	C 	0.6645	0.2396	0.6885	0.064
Mof_H 	H 	0.6947	0.2043	0.7024	0.007
Mof_C 	C 	0.6036	0.2332	0.6964	-0.148
Mof_H 	H 	0.5931	0.1936	0.7156	0.09
Mof_C 	C 	0.5584	0.2859	0.6756	0.107
Mof_C 	C 	0.6058	0.7628	0.3243	0.082
Mof_H 	H 	0.6147	0.7481	0.3689	-0.011
Mof_N 	N 	0.65383	0.7954	0.3047	-0.266
Mof_C 	C 	0.6406	0.8174	0.2381	0.083
Mof_H 	H 	0.6727	0.8391	0.225	-0.001
Mof_C 	C 	0.5792	0.8068	0.1911	-0.16
Mof_H 	H 	0.5703	0.8215	0.1466	0.097
Mof_C 	C 	0.53119	0.7742	0.2107	0.12
Mof_C 	C 	0.5445	0.7522	0.2773	-0.168
Mof_H 	H 	0.5123	0.7304	0.2904	0.108
Mof_C 	C 	0.2594	0.4521	0.935	-0.043
Mof_C 	C 	0.2534	0.3929	0.8881	0.115
Mof_C 	C 	0.3149	0.4936	0.9524	-0.009
Mof_H 	H 	0.3492	0.4819	0.9369	0.034
Mof_C 	C 	0.2105	0.4713	0.9593	-0.011
Mof_H 	H 	0.1732	0.4443	0.9493	0.032
Mof_C 	C 	0.1899	0.3238	0.7952	0.108
Mof_H 	H 	0.1492	0.3126	0.7649	-0.012
Mof_C 	C 	0.2981	0.3056	0.8377	0.105
Mof_H 	H 	0.335	0.2818	0.8369	-0.022
Mof_C 	C 	0.1816	0.6137	0.8365	0.103
Mof_H 	H 	0.1448	0.617	0.85	-0.011
Mof_C 	C 	0.1934	0.3754	0.8426	-0.176
Mof_H 	H 	0.1559	0.3978	0.8436	0.092
Mof_C 	C 	0.3048	0.3542	0.8857	-0.186
Mof_H 	H 	0.3455	0.3614	0.9178	0.097
Mof_C 	C 	0.2782	0.654	0.8377	0.114
Mof_H 	H 	0.3119	0.6855	0.8539	-0.017
Mof_N 	N 	0.2406	0.2901	0.7908	-0.275
Mof_N 	N 	0.2285	0.6593	0.8603	-0.28
Mof_O 	O 	0.1521	0.7119	0.9631	-0.483
Mof_O 	O 	0.0757	0.712	0.8668	-0.324
Mof_C 	C 	0.0452	0.7082	0.9658	-0.08
Mof_C 	C 	0.0943	0.7091	0.9268	0.395
Mof_C 	C 	0.9799	0.7101	0.9326	-0.015
Mof_H 	H 	0.9654	0.7137	0.8855	0.053
Mof_C 	C 	0.0653	0.707	0.0344	-0.018
Mof_H 	H 	0.1094	0.7041	0.0589	0.056
Mof_O 	O 	0.7578	0.2354	0.5514	-0.465
Mof_C 	C 	0.7541	0.1815	0.5743	0.34
Mof_O 	O 	0.7619	0.1642	0.6343	-0.332
Mof_Zn	Zn	0.26284	0.72601	0.2897	1.208
Mof_Zn	Zn	0.27213	0.22757	0.06535	1.211
Mof_Zn	Zn	0.74191	0.80337	0.37518	1.209
Mof_O 	O 	0.34224	0.739	0.3673	-0.468
Mof_C 	C 	0.2291	0.3376	0.1119	0.348
Mof_N 	N 	0.2076	0.1975	0.977	-0.277
Mof_N 	N 	0.2023	0.7641	0.3361	-0.275
Mof_N 	N 	0.1267	0.1877	0.8783	-0.132
Mof_C 	C 	0.1518	0.2205	0.9386	0.175
Mof_N 	N 	0.1213	0.7989	0.3742	-0.125
Mof_O 	O 	0.2656	0.6304	0.2652	-0.448
Mof_C 	C 	0.3999	0.7309	0.3678	0.363
Mof_C 	C 	0.2628	0.0565	0.2292	0.129
Mof_O 	O 	0.1813	0.3003	0.1013	-0.349
Mof_C 	C 	0.451	0.7295	0.4365	-0.08
Mof_C 	C 	0.2294	0.0705	0.9847	0.023
Mof_C 	C 	0.2133	0.6095	0.2188	0.305
Mof_C 	C 	0.1713	0.1317	0.8721	-0.081
Mof_H 	H 	0.1891	0.1406	0.8358	0.062
Mof_H 	H 	0.1497	0.0873	0.8648	0.065
Mof_C 	C 	0.2556	0.997	0.2724	-0.045
Mof_C 	C 	0.2186	0.5374	0.1937	-0.039
Mof_C 	C 	0.0582	0.8051	0.3738	0.038
Mof_H 	H 	0.0492	0.8315	0.4069	0.02
Mof_C 	C 	0.1632	0.5067	0.1494	-0.042
Mof_H 	H 	0.1236	0.5298	0.1372	0.058
Mof_C 	C 	0.3159	0.0608	0.2076	-0.182
Mof_H 	H 	0.3496	0.0291	0.2221	0.096
Mof_C 	C 	0.2397	0.884	0.3483	0.029
Mof_C 	C 	0.14	0.7582	0.3279	0.167
Mof_C 	C 	0.2242	0.136	0.9427	-0.007
Mof_H 	H 	0.2663	0.1443	0.9361	0.034
Mof_O 	O 	0.4147	0.7173	0.3177	-0.31
Mof_C 	C 	0.0898	0.7222	0.2813	-0.189
Mof_H 	H 	0.0992	0.6921	0.2511	0.103
Mof_C 	C 	0.0566	0.2916	0.9041	0.065
Mof_H 	H 	0.0308	0.3259	0.9133	0.006
Mof_C 	C 	0.18	0.0514	0.0079	-0.081
Mof_H 	H 	0.1423	0.0778	0.9969	0.061
Mof_C 	C 	0.3093	0.9663	0.3187	-0.009
Mof_H 	H 	0.3508	0.9833	0.3248	0.032
Mof_C 	C 	0.226	0.4075	0.1405	-0.08
Mof_C 	C 	0.1668	0.4426	0.1236	-0.004
Mof_H 	H 	0.1294	0.4222	0.0946	0.037
Mof_C 	C 	0.285	0.0313	0.0009	-0.08
Mof_H 	H 	0.3193	0.044	0.9858	0.062
Mof_C 	C 	0.2821	0.4378	0.1836	-0.006
Mof_H 	H 	0.322	0.4156	0.1939	0.049
Mof_C 	C 	0.3006	0.9094	0.3563	-0.102
Mof_H 	H 	0.3367	0.8886	0.387	0.066
Mof_C 	C 	0.1936	0.9712	0.2654	-0.006
Mof_H 	H 	0.157	0.9913	0.2348	0.032
Mof_C 	C 	0.0694	0.2031	0.8318	0.049
Mof_H 	H 	0.0547	0.1773	0.7922	0.03
Mof_C 	C 	0.0265	0.7308	0.2794	0.047
Mof_H 	H 	0.9934	0.7079	0.2465	0.036
Mof_C 	C 	0.1873	0.917	0.3032	-0.093
Mof_H 	H 	0.1457	0.9011	0.2985	0.069
Mof_C 	C 	0.0328	0.2556	0.8418	-0.082
Mof_C 	C 	0.2302	0.8201	0.386	-0.011
Mof_H 	H 	0.2718	0.8055	0.4185	0.038
Mof_O 	O 	0.165	0.645	0.1936	-0.323
Mof_C 	C 	0.0103	0.7743	0.3272	-0.069
Mof_C 	C 	0.2771	0.5034	0.2115	-0.034
Mof_H 	H 	0.3137	0.5235	0.2422	0.062
Mof_C 	C 	0.1792	0.8302	0.4224	-0.081
Mof_H 	H 	0.1918	0.8068	0.4658	0.069
Mof_H 	H 	0.1723	0.8786	0.4293	0.066
Mof_C 	C 	0.2153	0.1064	0.2072	-0.191
Mof_H 	H 	0.1798	0.1073	0.2228	0.108
Mof_O 	O 	0.2798	0.3219	0.1017	-0.461
Mof_O 	O 	0.7487	0.886	0.4289	-0.506
Mof_C 	C 	0.4358	0.73	0.4935	-0.016
Mof_H 	H 	0.3924	0.7326	0.491	0.051
Mof_O 	O 	0.7347	0.9458	0.3397	-0.329
Mof_C 	C 	0.5164	0.7267	0.4434	-0.017
Mof_H 	H 	0.5287	0.7224	0.4048	0.045
Mof_C 	C 	0.7425	0.0041	0.4439	-0.08
Mof_C 	C 	0.7434	0.9388	0.4011	0.396
Mof_C 	C 	0.755	0.0651	0.4227	-0.007
Mof_H 	H 	0.7603	0.0686	0.3803	0.046
Mof_C 	C 	0.115	0.2783	0.9506	-0.199
Mof_H 	H 	0.131	0.3054	0.9892	0.101
Mof_C 	C 	0.7362	0.9972	0.5067	-0.006
Mof_H 	H 	0.7289	0.9542	0.5224	0.045
Mof_C 	C 	0.7505	0.1179	0.5235	-0.032
Mof_C 	C 	0.7603	0.1236	0.4616	-0.043
Mof_H 	H 	0.7703	0.1658	0.4464	0.051
Mof_C 	C 	0.7405	0.0527	0.5455	-0.046
Mof_H 	H 	0.7366	0.0477	0.5884	0.066
Mof_C 	C 	0.926	0.8451	0.3531	-0.149
Mof_H 	H 	0.9562	0.8804	0.3671	0.084
Mof_C 	C 	0.8651	0.8515	0.361	0.061
Mof_H 	H 	0.8546	0.8911	0.3802	-0.002
Mof_N 	N 	0.81984	0.7987	0.3402	-0.259
Mof_C 	C 	0.8355	0.7396	0.3115	0.063
Mof_H 	H 	0.8053	0.7043	0.2976	0.007
Mof_C 	C 	0.8964	0.7332	0.3036	-0.148
Mof_H 	H 	0.9069	0.6936	0.2844	0.09
Mof_C 	C 	0.9416	0.7859	0.3244	0.107
Mof_C 	C 	0.8942	0.2628	0.6757	0.082
Mof_H 	H 	0.8853	0.2481	0.6311	-0.011
Mof_N 	N 	0.84617	0.2954	0.6953	-0.266
Mof_C 	C 	0.8594	0.3174	0.7619	0.083
Mof_H 	H 	0.8273	0.3391	0.775	-0.001
Mof_C 	C 	0.9208	0.3068	0.8089	-0.159
Mof_H 	H 	0.9297	0.3215	0.8534	0.097
Mof_C 	C 	0.96881	0.2742	0.7893	0.119
Mof_C 	C 	0.9555	0.2522	0.7227	-0.168
Mof_H 	H 	0.9877	0.2304	0.7096	0.108
Mof_C 	C 	0.2406	0.9521	0.065	-0.037
Mof_C 	C 	0.2466	0.8929	0.1119	0.112
Mof_C 	C 	0.1851	0.9936	0.0476	-0.019
Mof_H 	H 	0.1508	0.9819	0.0631	0.036
Mof_C 	C 	0.2895	0.9713	0.0407	-0.02
Mof_H 	H 	0.3268	0.9443	0.0507	0.034
Mof_C 	C 	0.3101	0.8238	0.2048	0.106
Mof_H 	H 	0.3508	0.8126	0.2351	-0.012
Mof_C 	C 	0.2019	0.8056	0.1623	0.104
Mof_H 	H 	0.165	0.7818	0.1631	-0.022
Mof_C 	C 	0.3184	0.1137	0.1635	0.105
Mof_H 	H 	0.3552	0.117	0.15	-0.011
Mof_C 	C 	0.3066	0.8754	0.1574	-0.174
Mof_H 	H 	0.3441	0.8978	0.1564	0.091
Mof_C 	C 	0.1952	0.8542	0.1143	-0.183
Mof_H 	H 	0.1545	0.8614	0.0822	0.096
Mof_C 	C 	0.2218	0.154	0.1623	0.116
Mof_H 	H 	0.1881	0.1855	0.1461	-0.017
Mof_N 	N 	0.2594	0.7901	0.2092	-0.275
Mof_N 	N 	0.2715	0.1593	0.1397	-0.281
Mof_O 	O 	0.3479	0.2119	0.0369	-0.483
Mof_O 	O 	0.4243	0.212	0.1332	-0.324
Mof_C 	C 	0.4548	0.2082	0.0342	-0.081
Mof_C 	C 	0.4057	0.2091	0.0732	0.395
Mof_C 	C 	0.5201	0.2101	0.0674	-0.015
Mof_H 	H 	0.5346	0.2137	0.1145	0.053
Mof_C 	C 	0.4347	0.207	0.9656	-0.017
Mof_H 	H 	0.3906	0.2041	0.9411	0.056
Mof_O 	O 	0.7422	0.7354	0.4486	-0.464
Mof_C 	C 	0.7459	0.6815	0.4257	0.336
Mof_O 	O 	0.7381	0.6642	0.3657	-0.331
Mof_Zn	Zn	0.76284	0.22601	0.2897	1.208
Mof_Zn	Zn	0.77213	0.72757	0.06535	1.211
Mof_Zn	Zn	0.24191	0.30337	0.37518	1.209
Mof_O 	O 	0.84224	0.239	0.3673	-0.467
Mof_C 	C 	0.7291	0.8376	0.1119	0.346
Mof_N 	N 	0.7076	0.6975	0.977	-0.276
Mof_N 	N 	0.7023	0.2641	0.3361	-0.275
Mof_N 	N 	0.6267	0.6877	0.8783	-0.132
Mof_C 	C 	0.6518	0.7205	0.9386	0.175
Mof_N 	N 	0.6213	0.2989	0.3742	-0.125
Mof_O 	O 	0.7656	0.1304	0.2652	-0.449
Mof_C 	C 	0.8999	0.2309	0.3678	0.363
Mof_C 	C 	0.7628	0.5565	0.2292	0.123
Mof_O 	O 	0.6813	0.8003	0.1013	-0.348
Mof_C 	C 	0.951	0.2295	0.4365	-0.08
Mof_C 	C 	0.7294	0.5705	0.9847	0.027
Mof_C 	C 	0.7133	0.1095	0.2188	0.308
Mof_C 	C 	0.6713	0.6317	0.8721	-0.08
Mof_H 	H 	0.6891	0.6406	0.8358	0.061
Mof_H 	H 	0.6497	0.5873	0.8648	0.064
Mof_C 	C 	0.7556	0.497	0.2724	-0.039
Mof_C 	C 	0.7186	0.0374	0.1937	-0.046
Mof_C 	C 	0.5582	0.3051	0.3738	0.038
Mof_H 	H 	0.5492	0.3315	0.4069	0.02
Mof_C 	C 	0.6632	0.0067	0.1494	-0.031
Mof_H 	H 	0.6236	0.0298	0.1372	0.055
Mof_C 	C 	0.8159	0.5608	0.2076	-0.179
Mof_H 	H 	0.8496	0.5291	0.2221	0.093
Mof_C 	C 	0.7397	0.384	0.3483	0.027
Mof_C 	C 	0.64	0.2582	0.3279	0.167
Mof_C 	C 	0.7242	0.636	0.9427	-0.01
Mof_H 	H 	0.7663	0.6443	0.9361	0.035
Mof_O 	O 	0.9147	0.2173	0.3177	-0.31
Mof_C 	C 	0.5898	0.2222	0.2813	-0.189
Mof_H 	H 	0.5992	0.1921	0.2511	0.104
Mof_C 	C 	0.5566	0.7916	0.9041	0.066
Mof_H 	H 	0.5308	0.8259	0.9133	0.006
Mof_C 	C 	0.68	0.5514	0.0079	-0.09
Mof_H 	H 	0.6423	0.5778	0.9969	0.063
Mof_C 	C 	0.8093	0.4663	0.3187	-0.013
Mof_H 	H 	0.8508	0.4833	0.3248	0.034
Mof_C 	C 	0.726	0.9075	0.1405	-0.074
Mof_C 	C 	0.6668	0.9426	0.1236	-0.016
Mof_H 	H 	0.6294	0.9222	0.0946	0.041
Mof_C 	C 	0.785	0.5313	0.0009	-0.089
Mof_H 	H 	0.8193	0.544	0.9858	0.063
Mof_C 	C 	0.7821	0.9378	0.1836	-0.017
Mof_H 	H 	0.822	0.9156	0.1939	0.052
Mof_C 	C 	0.8006	0.4094	0.3563	-0.099
Mof_H 	H 	0.8367	0.3886	0.387	0.065
Mof_C 	C 	0.6936	0.4712	0.2654	-0.01
Mof_H 	H 	0.657	0.4913	0.2348	0.035
Mof_C 	C 	0.5694	0.7031	0.8318	0.049
Mof_H 	H 	0.5547	0.6773	0.7922	0.03
Mof_C 	C 	0.5265	0.2308	0.2794	0.048
Mof_H 	H 	0.4934	0.2079	0.2465	0.036
Mof_C 	C 	0.6873	0.417	0.3032	-0.089
Mof_H 	H 	0.6457	0.4011	0.2985	0.068
Mof_C 	C 	0.5328	0.7556	0.8418	-0.083
Mof_C 	C 	0.7302	0.3201	0.386	-0.01
Mof_H 	H 	0.7718	0.3055	0.4185	0.038
Mof_O 	O 	0.665	0.145	0.1936	-0.323
Mof_C 	C 	0.5103	0.2743	0.3272	-0.069
Mof_C 	C 	0.7771	0.0034	0.2115	-0.023
Mof_H 	H 	0.8137	0.0235	0.2422	0.059
Mof_C 	C 	0.6792	0.3302	0.4224	-0.082
Mof_H 	H 	0.6918	0.3068	0.4658	0.07
Mof_H 	H 	0.6723	0.3786	0.4293	0.067
Mof_C 	C 	0.7153	0.6064	0.2072	-0.188
Mof_H 	H 	0.6798	0.6073	0.2228	0.106
Mof_O 	O 	0.7798	0.8219	0.1017	-0.461
Mof_O 	O 	0.2487	0.386	0.4289	-0.508
Mof_C 	C 	0.9358	0.23	0.4935	-0.016
Mof_H 	H 	0.8924	0.2326	0.491	0.051
Mof_O 	O 	0.2347	0.4458	0.3397	-0.329
Mof_C 	C 	0.0164	0.2267	0.4434	-0.017
Mof_H 	H 	0.0287	0.2224	0.4048	0.046
Mof_C 	C 	0.2425	0.5041	0.4439	-0.1
Mof_C 	C 	0.2434	0.4388	0.4011	0.404
Mof_C 	C 	0.255	0.5651	0.4227	0.009
Mof_H 	H 	0.2603	0.5686	0.3803	0.041
Mof_C 	C 	0.615	0.7783	0.9506	-0.199
Mof_H 	H 	0.631	0.8054	0.9892	0.101
Mof_C 	C 	0.2362	0.4972	0.5067	0.019
Mof_H 	H 	0.2289	0.4542	0.5224	0.037
Mof_C 	C 	0.2505	0.6179	0.5235	-0.022
Mof_C 	C 	0.2603	0.6236	0.4616	-0.056
Mof_H 	H 	0.2703	0.6658	0.4464	0.056
Mof_C 	C 	0.2405	0.5527	0.5455	-0.066
Mof_H 	H 	0.2366	0.5477	0.5884	0.072
Mof_C 	C 	0.426	0.3451	0.3531	-0.149
Mof_H 	H 	0.4562	0.3804	0.3671	0.084
Mof_C 	C 	0.3651	0.3515	0.361	0.062
Mof_H 	H 	0.3546	0.3911	0.3802	-0.002
Mof_N 	N 	0.31984	0.2987	0.3402	-0.259
Mof_C 	C 	0.3355	0.2396	0.3115	0.064
Mof_H 	H 	0.3053	0.2043	0.2976	0.007
Mof_C 	C 	0.3964	0.2332	0.3036	-0.148
Mof_H 	H 	0.4069	0.1936	0.2844	0.09
Mof_C 	C 	0.4416	0.2859	0.3244	0.107
Mof_C 	C 	0.3942	0.7628	0.6757	0.082
Mof_H 	H 	0.3853	0.7481	0.6311	-0.011
Mof_N 	N 	0.34617	0.7954	0.6953	-0.266
Mof_C 	C 	0.3594	0.8174	0.7619	0.083
Mof_H 	H 	0.3273	0.8391	0.775	-0.001
Mof_C 	C 	0.4208	0.8068	0.8089	-0.16
Mof_H 	H 	0.4297	0.8215	0.8534	0.097
Mof_C 	C 	0.46881	0.7742	0.7893	0.12
Mof_C 	C 	0.4555	0.7522	0.7227	-0.168
Mof_H 	H 	0.4877	0.7304	0.7096	0.108
Mof_C 	C 	0.7406	0.4521	0.065	-0.043
Mof_C 	C 	0.7466	0.3929	0.1119	0.115
Mof_C 	C 	0.6851	0.4936	0.0476	-0.009
Mof_H 	H 	0.6508	0.4819	0.0631	0.034
Mof_C 	C 	0.7895	0.4713	0.0407	-0.011
Mof_H 	H 	0.8268	0.4443	0.0507	0.032
Mof_C 	C 	0.8101	0.3238	0.2048	0.108
Mof_H 	H 	0.8508	0.3126	0.2351	-0.012
Mof_C 	C 	0.7019	0.3056	0.1623	0.105
Mof_H 	H 	0.665	0.2818	0.1631	-0.022
Mof_C 	C 	0.8184	0.6137	0.1635	0.103
Mof_H 	H 	0.8552	0.617	0.15	-0.011
Mof_C 	C 	0.8066	0.3754	0.1574	-0.176
Mof_H 	H 	0.8441	0.3978	0.1564	0.092
Mof_C 	C 	0.6952	0.3542	0.1143	-0.186
Mof_H 	H 	0.6545	0.3614	0.0822	0.097
Mof_C 	C 	0.7218	0.654	0.1623	0.114
Mof_H 	H 	0.6881	0.6855	0.1461	-0.017
Mof_N 	N 	0.7594	0.2901	0.2092	-0.275
Mof_N 	N 	0.7715	0.6593	0.1397	-0.28
Mof_O 	O 	0.8479	0.7119	0.0369	-0.483
Mof_O 	O 	0.9243	0.712	0.1332	-0.324
Mof_C 	C 	0.9548	0.7082	0.0342	-0.08
Mof_C 	C 	0.9057	0.7091	0.0732	0.395
Mof_C 	C 	0.0201	0.7101	0.0674	-0.015
Mof_H 	H 	0.0346	0.7137	0.1145	0.053
Mof_C 	C 	0.9347	0.707	0.9656	-0.018
Mof_H 	H 	0.8906	0.7041	0.9411	0.056
Mof_O 	O 	0.2422	0.2354	0.4486	-0.465
Mof_C 	C 	0.2459	0.1815	0.4257	0.34
Mof_O 	O 	0.2381	0.1642	0.3657	-0.332
_end
