data_functionalizedCrystal
_audit_creation_method	'EQeq! by Chris Wilmer'
_symmetry_space_group_name_H-M	'P1'
_symmetry_Int_Tables_number	1
_symmetry_cell_setting	triclinic
loop_
_symmetry_equiv_pos_as_xyz
  x,y,z
_cell_length_a	11.6636
_cell_length_b	11.6636
_cell_length_c	20.63
_cell_angle_alpha	95.4501
_cell_angle_beta	95.4501
_cell_angle_gamma	104.599
loop_
_atom_site_label
_atom_site_type_symbol
_atom_site_fract_x
_atom_site_fract_y
_atom_site_fract_z
_atom_site_charge
Mof_Co	Co	0.02763	0.53615	0.31331	1.121
Mof_Co	Co	0.46385	0.97237	0.18669	1.121
Mof_Co	Co	0.97237	0.46385	0.68669	1.121
Mof_Co	Co	0.53615	0.02763	0.81331	1.121
Mof_Co	Co	0.25153	0.74847	0.25	1.198
Mof_Co	Co	0.74847	0.25153	0.75	1.198
Mof_H 	H 	0.9034	0.8042	0.4173	0.05
Mof_H 	H 	0.2203	0.1335	0.5006	0.061
Mof_H 	H 	0.2384	0.0032	0.4144	0.041
Mof_H 	H 	0.5218	0.6158	0.3536	0.035
Mof_H 	H 	0.6647	0.5703	0.4218	0.052
Mof_H 	H 	0.2744	0.4998	0.4721	0.043
Mof_H 	H 	0.462	0.1944	0.3902	0.038
Mof_H 	H 	0.4946	0.2242	0.5026	0.068
Mof_H 	H 	0.4628	0.851	0.3906	0.061
Mof_H 	H 	0.1958	0.0966	0.0827	0.05
Mof_H 	H 	0.8665	0.7797	0.9994	0.06
Mof_H 	H 	0.9968	0.7616	0.0856	0.043
Mof_H 	H 	0.3842	0.4782	0.1464	0.035
Mof_H 	H 	0.4297	0.3353	0.0782	0.052
Mof_H 	H 	0.5002	0.7256	0.0279	0.043
Mof_H 	H 	0.8056	0.538	0.1098	0.038
Mof_H 	H 	0.7758	0.5054	0.9974	0.067
Mof_H 	H 	0.149	0.5372	0.1094	0.061
Mof_H 	H 	0.0966	0.1958	0.5827	0.05
Mof_H 	H 	0.7797	0.8665	0.4994	0.061
Mof_H 	H 	0.7616	0.9968	0.5856	0.041
Mof_H 	H 	0.4782	0.3842	0.6464	0.035
Mof_H 	H 	0.3353	0.4297	0.5782	0.052
Mof_H 	H 	0.7256	0.5002	0.5279	0.043
Mof_H 	H 	0.538	0.8056	0.6098	0.038
Mof_H 	H 	0.5054	0.7758	0.4974	0.068
Mof_H 	H 	0.5372	0.149	0.6094	0.061
Mof_H 	H 	0.8042	0.9034	0.9173	0.05
Mof_H 	H 	0.1335	0.2203	0.0006	0.06
Mof_H 	H 	0.0032	0.2384	0.9144	0.043
Mof_H 	H 	0.6158	0.5218	0.8536	0.035
Mof_H 	H 	0.5703	0.6647	0.9218	0.052
Mof_H 	H 	0.4998	0.2744	0.9721	0.043
Mof_H 	H 	0.1944	0.462	0.8902	0.038
Mof_H 	H 	0.2242	0.4946	0.0026	0.067
Mof_H 	H 	0.851	0.4628	0.8906	0.061
Mof_C 	C 	0.0883	0.7995	0.3537	0.372
Mof_C 	C 	0.0716	0.8892	0.4073	-0.086
Mof_C 	C 	0.9661	0.8701	0.4341	-0.042
Mof_C 	C 	0.1564	0.0682	0.4843	-0.094
Mof_C 	C 	0.1672	0.99	0.4329	0.012
Mof_C 	C 	0.9513	0.9495	0.487	0.021
Mof_C 	C 	0.2883	0.5941	0.3604	0.388
Mof_C 	C 	0.382	0.5636	0.4066	-0.096
Mof_C 	C 	0.5017	0.5839	0.3919	0.012
Mof_C 	C 	0.5874	0.5574	0.4327	-0.093
Mof_C 	C 	0.5591	0.5099	0.4923	0.017
Mof_C 	C 	0.353	0.5158	0.4629	-0.033
Mof_C 	C 	0.4459	0.0017	0.3065	0.318
Mof_C 	C 	0.4598	0.0176	0.3796	-0.077
Mof_C 	C 	0.4696	0.1316	0.4135	0.007
Mof_C 	C 	0.4901	0.1495	0.4806	-0.096
Mof_C 	C 	0.4711	0.9259	0.4133	-0.048
Mof_C 	C 	0.5045	0.0573	0.5165	0.028
Mof_C 	C 	0.2005	0.9117	0.1463	0.371
Mof_C 	C 	0.1108	0.9284	0.0927	-0.086
Mof_C 	C 	0.1299	0.0339	0.0659	-0.042
Mof_C 	C 	0.9318	0.8436	0.0157	-0.091
Mof_C 	C 	0.01	0.8328	0.0671	0.009
Mof_C 	C 	0.0505	0.0487	0.013	0.02
Mof_C 	C 	0.4059	0.7117	0.1396	0.388
Mof_C 	C 	0.4364	0.618	0.0934	-0.096
Mof_C 	C 	0.4161	0.4983	0.1081	0.012
Mof_C 	C 	0.4426	0.4126	0.0673	-0.093
Mof_C 	C 	0.4901	0.4409	0.0077	0.017
Mof_C 	C 	0.4842	0.647	0.0371	-0.033
Mof_C 	C 	0.9983	0.5541	0.1935	0.318
Mof_C 	C 	0.9824	0.5402	0.1204	-0.076
Mof_C 	C 	0.8684	0.5304	0.0865	0.006
Mof_C 	C 	0.8505	0.5099	0.0194	-0.094
Mof_C 	C 	0.0741	0.5289	0.0867	-0.049
Mof_C 	C 	0.9427	0.4955	0.9835	0.027
Mof_C 	C 	0.9117	0.2005	0.6463	0.372
Mof_C 	C 	0.9284	0.1108	0.5927	-0.086
Mof_C 	C 	0.0339	0.1299	0.5659	-0.042
Mof_C 	C 	0.8436	0.9318	0.5157	-0.094
Mof_C 	C 	0.8328	0.01	0.5671	0.012
Mof_C 	C 	0.0487	0.0505	0.513	0.021
Mof_C 	C 	0.7117	0.4059	0.6396	0.388
Mof_C 	C 	0.618	0.4364	0.5934	-0.096
Mof_C 	C 	0.4983	0.4161	0.6081	0.012
Mof_C 	C 	0.4126	0.4426	0.5673	-0.093
Mof_C 	C 	0.4409	0.4901	0.5077	0.017
Mof_C 	C 	0.647	0.4842	0.5371	-0.033
Mof_C 	C 	0.5541	0.9983	0.6935	0.318
Mof_C 	C 	0.5402	0.9824	0.6204	-0.077
Mof_C 	C 	0.5304	0.8684	0.5865	0.007
Mof_C 	C 	0.5099	0.8505	0.5194	-0.096
Mof_C 	C 	0.5289	0.0741	0.5867	-0.048
Mof_C 	C 	0.4955	0.9427	0.4835	0.028
Mof_C 	C 	0.7995	0.0883	0.8537	0.371
Mof_C 	C 	0.8892	0.0716	0.9073	-0.086
Mof_C 	C 	0.8701	0.9661	0.9341	-0.042
Mof_C 	C 	0.0682	0.1564	0.9843	-0.091
Mof_C 	C 	0.99	0.1672	0.9329	0.009
Mof_C 	C 	0.9495	0.9513	0.987	0.02
Mof_C 	C 	0.5941	0.2883	0.8604	0.388
Mof_C 	C 	0.5636	0.382	0.9066	-0.096
Mof_C 	C 	0.5839	0.5017	0.8919	0.012
Mof_C 	C 	0.5574	0.5874	0.9327	-0.093
Mof_C 	C 	0.5099	0.5591	0.9923	0.017
Mof_C 	C 	0.5158	0.353	0.9629	-0.033
Mof_C 	C 	0.0017	0.4459	0.8065	0.318
Mof_C 	C 	0.0176	0.4598	0.8796	-0.076
Mof_C 	C 	0.1316	0.4696	0.9135	0.006
Mof_C 	C 	0.1495	0.4901	0.9806	-0.094
Mof_C 	C 	0.9259	0.4711	0.9133	-0.049
Mof_C 	C 	0.0573	0.5045	0.0165	0.027
Mof_O 	O 	0.1772	0.8308	0.3225	-0.417
Mof_O 	O 	0.0116	0.7006	0.345	-0.454
Mof_O 	O 	0.3248	0.6566	0.3174	-0.427
Mof_O 	O 	0.1821	0.5545	0.371	-0.479
Mof_O 	O 	0.41	0.897	0.27465	-0.495
Mof_O 	O 	0.4798	0.0914	0.2767	-0.406
Mof_O 	O 	0.1692	0.8228	0.1775	-0.417
Mof_O 	O 	0.2994	0.9884	0.155	-0.454
Mof_O 	O 	0.3434	0.6752	0.1826	-0.427
Mof_O 	O 	0.4455	0.8179	0.129	-0.479
Mof_O 	O 	0.103	0.59	0.22535	-0.495
Mof_O 	O 	0.9086	0.5202	0.2233	-0.406
Mof_O 	O 	0.8228	0.1692	0.6775	-0.417
Mof_O 	O 	0.9884	0.2994	0.655	-0.454
Mof_O 	O 	0.6752	0.3434	0.6826	-0.427
Mof_O 	O 	0.8179	0.4455	0.629	-0.479
Mof_O 	O 	0.59	0.103	0.72535	-0.495
Mof_O 	O 	0.5202	0.9086	0.7233	-0.406
Mof_O 	O 	0.8308	0.1772	0.8225	-0.417
Mof_O 	O 	0.7006	0.0116	0.845	-0.454
Mof_O 	O 	0.6566	0.3248	0.8174	-0.427
Mof_O 	O 	0.5545	0.1821	0.871	-0.479
Mof_O 	O 	0.897	0.41	0.77465	-0.495
Mof_O 	O 	0.0914	0.4798	0.7767	-0.406
_end
