data_functionalizedCrystal
_audit_creation_method	'EQeq! by Chris Wilmer'
_symmetry_space_group_name_H-M	'P1'
_symmetry_Int_Tables_number	1
_symmetry_cell_setting	triclinic
loop_
_symmetry_equiv_pos_as_xyz
  x,y,z
_cell_length_a	10.5407
_cell_length_b	11.8266
_cell_length_c	14.1122
_cell_angle_alpha	106.878
_cell_angle_beta	102.411
_cell_angle_gamma	111.011
loop_
_atom_site_label
_atom_site_type_symbol
_atom_site_fract_x
_atom_site_fract_y
_atom_site_fract_z
_atom_site_charge
Mof_Co	Co	0.8067	0.50859	0.78733	1.206
Mof_Co	Co	0.5488	0.76918	0.30993	1.22
Mof_Co	Co	0.1933	0.49141	0.21267	1.206
Mof_Co	Co	0.4512	0.23082	0.69007	1.22
Mof_H 	H 	0.878	0.8221	0.3857	0.004
Mof_H 	H 	0.0546	0.8062	0.3195	0.084
Mof_H 	H 	0.0025	0.7293	0.1377	0.027
Mof_H 	H 	0.5934	0.6673	0.1008	0.024
Mof_H 	H 	0.7326	0.994	0.2501	-0.004
Mof_H 	H 	0.8464	0.2204	0.3131	0.09
Mof_H 	H 	0.8335	0.3463	0.4668	0.013
Mof_H 	H 	0.6154	0.012	0.4947	0.015
Mof_H 	H 	0.9762	0.81	0.8642	0
Mof_H 	H 	0.001	0.9776	0.8075	0.084
Mof_H 	H 	0.8602	0.9279	0.6365	0.021
Mof_H 	H 	0.6934	0.5463	0.5869	0.021
Mof_H 	H 	0.0745	0.5423	0.709	0.002
Mof_H 	H 	0.3176	0.6054	0.7777	0.076
Mof_H 	H 	0.4327	0.6798	0.9599	0.029
Mof_H 	H 	0.0454	0.604	0.9879	0.016
Mof_H 	H 	0.5814	0.4814	0.7884	1.484
Mof_H 	H 	0.5265	0.4483	0.69	0.959
Mof_H 	H 	0.122	0.1779	0.6143	0.005
Mof_H 	H 	0.9454	0.1938	0.6805	0.085
Mof_H 	H 	0.9975	0.2707	0.8623	0.027
Mof_H 	H 	0.4066	0.3327	0.8992	0.024
Mof_H 	H 	0.2674	0.006	0.7499	-0.004
Mof_H 	H 	0.1536	0.7796	0.6869	0.09
Mof_H 	H 	0.1665	0.6537	0.5332	0.013
Mof_H 	H 	0.3846	0.988	0.5053	0.015
Mof_H 	H 	0.0238	0.19	0.1358	0
Mof_H 	H 	0.999	0.0224	0.1925	0.084
Mof_H 	H 	0.1398	0.0721	0.3635	0.021
Mof_H 	H 	0.3066	0.4537	0.4131	0.021
Mof_H 	H 	0.9255	0.4577	0.291	0.002
Mof_H 	H 	0.6824	0.3946	0.2223	0.076
Mof_H 	H 	0.5673	0.3202	0.0401	0.029
Mof_H 	H 	0.9546	0.396	0.0121	0.016
Mof_H 	H 	0.4186	0.5186	0.2116	1.484
Mof_H 	H 	0.4735	0.5517	0.31	0.959
Mof_C 	C 	0.8546	0.7874	0.3126	0.077
Mof_C 	C 	0.962	0.7797	0.2734	-0.137
Mof_C 	C 	0.9308	0.7326	0.1655	0.068
Mof_C 	C 	0.7906	0.6904	0.0994	-0.132
Mof_C 	C 	0.6884	0.6981	0.1454	0.074
Mof_C 	C 	0.7421	0.6338	0.9801	0.372
Mof_C 	C 	0.731	0.0437	0.314	0.096
Mof_C 	C 	0.7973	0.1796	0.3505	-0.159
Mof_C 	C 	0.7907	0.2545	0.4421	0.092
Mof_C 	C 	0.7195	0.1915	0.4968	-0.158
Mof_C 	C 	0.6606	0.0549	0.4567	0.1
Mof_C 	C 	0.6989	0.2658	0.5941	0.405
Mof_C 	C 	0.9216	0.7891	0.7949	0.076
Mof_C 	C 	0.9362	0.8905	0.7617	-0.141
Mof_C 	C 	0.8538	0.861	0.66	0.071
Mof_C 	C 	0.7614	0.7301	0.5935	-0.136
Mof_C 	C 	0.7548	0.6344	0.6321	0.078
Mof_C 	C 	0.6664	0.6904	0.4809	0.385
Mof_C 	C 	0.1186	0.5697	0.7816	0.084
Mof_C 	C 	0.2645	0.608	0.8224	-0.138
Mof_C 	C 	0.333	0.6509	0.9308	0.068
Mof_C 	C 	0.2495	0.6495	0.9943	-0.141
Mof_C 	C 	0.1022	0.6071	0.9457	0.089
Mof_C 	C 	0.3065	0.6818	0.1109	0.381
Mof_C 	C 	0.1454	0.2126	0.6874	0.077
Mof_C 	C 	0.038	0.2203	0.7266	-0.137
Mof_C 	C 	0.0692	0.2674	0.8345	0.068
Mof_C 	C 	0.2094	0.3096	0.9006	-0.132
Mof_C 	C 	0.3116	0.3019	0.8546	0.074
Mof_C 	C 	0.2579	0.3662	0.0199	0.372
Mof_C 	C 	0.269	0.9563	0.686	0.096
Mof_C 	C 	0.2027	0.8204	0.6495	-0.159
Mof_C 	C 	0.2093	0.7455	0.5579	0.092
Mof_C 	C 	0.2805	0.8085	0.5032	-0.158
Mof_C 	C 	0.3394	0.9451	0.5433	0.1
Mof_C 	C 	0.3011	0.7342	0.4059	0.405
Mof_C 	C 	0.0784	0.2109	0.2051	0.076
Mof_C 	C 	0.0638	0.1095	0.2383	-0.141
Mof_C 	C 	0.1462	0.139	0.34	0.071
Mof_C 	C 	0.2386	0.2699	0.4065	-0.136
Mof_C 	C 	0.2452	0.3656	0.3679	0.078
Mof_C 	C 	0.3336	0.3096	0.5191	0.385
Mof_C 	C 	0.8814	0.4303	0.2184	0.084
Mof_C 	C 	0.7355	0.392	0.1776	-0.138
Mof_C 	C 	0.667	0.3491	0.0692	0.068
Mof_C 	C 	0.7505	0.3505	0.0057	-0.141
Mof_C 	C 	0.8978	0.3929	0.0543	0.089
Mof_C 	C 	0.6935	0.3182	0.8891	0.381
Mof_N 	N 	0.7186	0.7471	0.25007	-0.222
Mof_N 	N 	0.6648	0.9812	0.36687	-0.228
Mof_N 	N 	0.8325	0.6624	0.7317	-0.23
Mof_N 	N 	0.0366	0.5703	0.8425	-0.225
Mof_N 	N 	0.2814	0.2529	0.74993	-0.222
Mof_N 	N 	0.3352	0.0188	0.63313	-0.228
Mof_N 	N 	0.1675	0.3376	0.2683	-0.23
Mof_N 	N 	0.9634	0.4297	0.1575	-0.225
Mof_O 	O 	0.837	0.6353	0.93974	-0.433
Mof_O 	O 	0.6096	0.5867	0.92987	-0.408
Mof_O 	O 	0.7827	0.3876	0.64073	-0.412
Mof_O 	O 	0.6002	0.2001	0.61958	-0.395
Mof_O 	O 	0.6665	0.7831	0.45485	-0.418
Mof_O 	O 	0.596	0.5702	0.4235	-0.396
Mof_O 	O 	0.2148	0.6349	0.14962	-0.402
Mof_O 	O 	0.4414	0.7516	0.16033	-0.405
Mof_O 	O 	0.574	0.4414	0.74252	-2.572
Mof_O 	O 	0.163	0.3647	0.06026	-0.433
Mof_O 	O 	0.3904	0.4133	0.07013	-0.408
Mof_O 	O 	0.2173	0.6124	0.35927	-0.412
Mof_O 	O 	0.3998	0.7999	0.38042	-0.395
Mof_O 	O 	0.3335	0.2169	0.54515	-0.418
Mof_O 	O 	0.404	0.4298	0.5765	-0.396
Mof_O 	O 	0.7852	0.3651	0.85038	-0.402
Mof_O 	O 	0.5586	0.2484	0.83967	-0.405
Mof_O 	O 	0.426	0.5586	0.25748	-2.572
_end
