data_functionalizedCrystal
_audit_creation_method	'EQeq! by Chris Wilmer'
_symmetry_space_group_name_H-M	'P1'
_symmetry_Int_Tables_number	1
_symmetry_cell_setting	triclinic
loop_
_symmetry_equiv_pos_as_xyz
  x,y,z
_cell_length_a	20.438
_cell_length_b	9.502
_cell_length_c	22.808
_cell_angle_alpha	90
_cell_angle_beta	90.136
_cell_angle_gamma	90
loop_
_atom_site_label
_atom_site_type_symbol
_atom_site_fract_x
_atom_site_fract_y
_atom_site_fract_z
_atom_site_charge
Mof_Zn	Zn	0.10462	0.96359	0.02827	1.23
Mof_Zn	Zn	0.15585	0.25422	0.87771	1.23
Mof_Zn	Zn	0.21988	0.72571	0.82414	1.235
Mof_P 	P 	0.02682	0.1443	0.93023	0.391
Mof_P 	P 	0.12984	0.9301	0.89689	0.428
Mof_P 	P 	0.23256	0.0343	0.10403	0.431
Mof_P 	P 	0.29115	0.0801	0.22647	0.403
Mof_O 	O 	0.0499	0.1147	0.9931	-0.448
Mof_O 	O 	0.9534	0.1632	0.9276	-0.409
Mof_O 	O 	0.0626	0.2697	0.9026	-0.389
Mof_O 	O 	0.0023	0.875	0.8985	-0.343
Mof_H 	H 	0.9882	0.8843	0.9319	0.197
Mof_O 	O 	0.1745	0.057	0.8915	-0.454
Mof_O 	O 	0.1423	0.821	0.8509	-0.431
Mof_O 	O 	0.1324	0.8653	0.958	-0.415
Mof_O 	O 	0.1728	0.0656	0.0675	-0.424
Mof_O 	O 	0.2921	0.1081	0.0772	-0.398
Mof_O 	O 	0.2426	0.8777	0.1124	-0.454
Mof_O 	O 	0.3507	0.1457	0.1971	-0.424
Mof_O 	O 	0.2787	0.147	0.2863	-0.433
Mof_O 	O 	0.2984	0.9209	0.234	-0.437
Mof_O 	O 	0.2234	0.2647	0.1639	-0.426
Mof_H 	H 	0.217	0.3091	0.1942	0.255
Mof_C 	C 	0.0453	0.9893	0.8852	0.037
Mof_C 	C 	0.0341	0.0274	0.8198	-0.484
Mof_H 	H 	0.0436	0.9471	0.7958	0.183
Mof_H 	H 	0.0623	0.1039	0.8091	0.147
Mof_H 	H 	0.9893	0.0549	0.8141	0.176
Mof_C 	C 	0.2221	0.1175	0.1763	0.029
Mof_C 	C 	0.1558	0.0716	0.2032	-0.495
Mof_H 	H 	0.1506	0.1147	0.241	0.153
Mof_H 	H 	0.155	0.9711	0.2074	0.153
Mof_H 	H 	0.1207	0.1007	0.1779	0.19
Mof_Zn	Zn	0.60462	0.46359	0.02827	1.23
Mof_Zn	Zn	0.65585	0.75422	0.87771	1.229
Mof_Zn	Zn	0.71988	0.22571	0.82414	1.234
Mof_P 	P 	0.52682	0.6443	0.93023	0.388
Mof_P 	P 	0.62984	0.4301	0.89689	0.427
Mof_P 	P 	0.73256	0.5343	0.10403	0.43
Mof_P 	P 	0.79115	0.5801	0.22647	0.403
Mof_O 	O 	0.5499	0.6147	0.9931	-0.449
Mof_O 	O 	0.4534	0.6632	0.9276	-0.407
Mof_O 	O 	0.5626	0.7697	0.9026	-0.389
Mof_O 	O 	0.5023	0.375	0.8985	-0.347
Mof_H 	H 	0.4882	0.3843	0.9319	0.2
Mof_O 	O 	0.6745	0.557	0.8915	-0.455
Mof_O 	O 	0.6423	0.321	0.8509	-0.431
Mof_O 	O 	0.6324	0.3653	0.958	-0.416
Mof_O 	O 	0.6728	0.5656	0.0675	-0.423
Mof_O 	O 	0.7921	0.6081	0.0772	-0.397
Mof_O 	O 	0.7426	0.3777	0.1124	-0.453
Mof_O 	O 	0.8507	0.6457	0.1971	-0.424
Mof_O 	O 	0.7787	0.647	0.2863	-0.433
Mof_O 	O 	0.7984	0.4209	0.234	-0.437
Mof_O 	O 	0.7234	0.7647	0.1639	-0.426
Mof_H 	H 	0.717	0.8091	0.1942	0.255
Mof_C 	C 	0.5453	0.4893	0.8852	0.039
Mof_C 	C 	0.5341	0.5274	0.8198	-0.492
Mof_H 	H 	0.5436	0.4471	0.7958	0.185
Mof_H 	H 	0.5623	0.6039	0.8091	0.15
Mof_H 	H 	0.4893	0.5549	0.8141	0.18
Mof_C 	C 	0.7221	0.6175	0.1763	0.029
Mof_C 	C 	0.6558	0.5716	0.2032	-0.495
Mof_H 	H 	0.6506	0.6147	0.241	0.153
Mof_H 	H 	0.655	0.4711	0.2074	0.152
Mof_H 	H 	0.6207	0.6007	0.1779	0.19
Mof_Zn	Zn	0.89538	0.96359	0.47173	1.23
Mof_Zn	Zn	0.84415	0.25422	0.62229	1.229
Mof_Zn	Zn	0.78012	0.72571	0.67586	1.234
Mof_P 	P 	0.97318	0.1443	0.56977	0.388
Mof_P 	P 	0.87016	0.9301	0.60311	0.426
Mof_P 	P 	0.76744	0.0343	0.39597	0.43
Mof_P 	P 	0.70885	0.0801	0.27353	0.403
Mof_O 	O 	0.9501	0.1147	0.5069	-0.449
Mof_O 	O 	0.0466	0.1632	0.5724	-0.407
Mof_O 	O 	0.9374	0.2697	0.5974	-0.389
Mof_O 	O 	0.9977	0.875	0.6015	-0.348
Mof_H 	H 	0.0118	0.8843	0.5681	0.201
Mof_O 	O 	0.8255	0.057	0.6085	-0.454
Mof_O 	O 	0.8577	0.821	0.6491	-0.431
Mof_O 	O 	0.8676	0.8653	0.542	-0.416
Mof_O 	O 	0.8272	0.0656	0.4325	-0.424
Mof_O 	O 	0.7079	0.1081	0.4228	-0.397
Mof_O 	O 	0.7574	0.8777	0.3876	-0.453
Mof_O 	O 	0.6493	0.1457	0.3029	-0.424
Mof_O 	O 	0.7213	0.147	0.2137	-0.433
Mof_O 	O 	0.7016	0.9209	0.266	-0.437
Mof_O 	O 	0.7766	0.2647	0.3361	-0.426
Mof_H 	H 	0.783	0.3091	0.3058	0.255
Mof_C 	C 	0.9547	0.9893	0.6148	0.039
Mof_C 	C 	0.9659	0.0274	0.6802	-0.493
Mof_H 	H 	0.9564	0.9471	0.7042	0.185
Mof_H 	H 	0.9377	0.1039	0.6909	0.15
Mof_H 	H 	0.0107	0.0549	0.6859	0.181
Mof_C 	C 	0.7779	0.1175	0.3237	0.029
Mof_C 	C 	0.8442	0.0716	0.2968	-0.496
Mof_H 	H 	0.8494	0.1147	0.259	0.153
Mof_H 	H 	0.845	0.9711	0.2926	0.153
Mof_H 	H 	0.8793	0.1007	0.3221	0.19
Mof_Zn	Zn	0.39538	0.46359	0.47173	1.23
Mof_Zn	Zn	0.34415	0.75422	0.62229	1.229
Mof_Zn	Zn	0.28012	0.22571	0.67586	1.234
Mof_P 	P 	0.47318	0.6443	0.56977	0.388
Mof_P 	P 	0.37016	0.4301	0.60311	0.427
Mof_P 	P 	0.26744	0.5343	0.39597	0.43
Mof_P 	P 	0.20885	0.5801	0.27353	0.403
Mof_O 	O 	0.4501	0.6147	0.5069	-0.449
Mof_O 	O 	0.5466	0.6632	0.5724	-0.407
Mof_O 	O 	0.4374	0.7697	0.5974	-0.389
Mof_O 	O 	0.4977	0.375	0.6015	-0.347
Mof_H 	H 	0.5118	0.3843	0.5681	0.2
Mof_O 	O 	0.3255	0.557	0.6085	-0.454
Mof_O 	O 	0.3577	0.321	0.6491	-0.431
Mof_O 	O 	0.3676	0.3653	0.542	-0.416
Mof_O 	O 	0.3272	0.5656	0.4325	-0.424
Mof_O 	O 	0.2079	0.6081	0.4228	-0.397
Mof_O 	O 	0.2574	0.3777	0.3876	-0.453
Mof_O 	O 	0.1493	0.6457	0.3029	-0.424
Mof_O 	O 	0.2213	0.647	0.2137	-0.433
Mof_O 	O 	0.2016	0.4209	0.266	-0.437
Mof_O 	O 	0.2766	0.7647	0.3361	-0.426
Mof_H 	H 	0.283	0.8091	0.3058	0.255
Mof_C 	C 	0.4547	0.4893	0.6148	0.039
Mof_C 	C 	0.4659	0.5274	0.6802	-0.492
Mof_H 	H 	0.4564	0.4471	0.7042	0.185
Mof_H 	H 	0.4377	0.6039	0.6909	0.15
Mof_H 	H 	0.5107	0.5549	0.6859	0.18
Mof_C 	C 	0.2779	0.6175	0.3237	0.029
Mof_C 	C 	0.3442	0.5716	0.2968	-0.495
Mof_H 	H 	0.3494	0.6147	0.259	0.153
Mof_H 	H 	0.345	0.4711	0.2926	0.152
Mof_H 	H 	0.3793	0.6007	0.3221	0.19
Mof_Zn	Zn	0.89538	0.03641	0.97173	1.229
Mof_Zn	Zn	0.84415	0.74578	0.12229	1.229
Mof_Zn	Zn	0.78012	0.27429	0.17586	1.234
Mof_P 	P 	0.97318	0.8557	0.06977	0.39
Mof_P 	P 	0.87016	0.0699	0.10311	0.427
Mof_P 	P 	0.76744	0.9657	0.89597	0.43
Mof_P 	P 	0.70885	0.9199	0.77353	0.403
Mof_O 	O 	0.9501	0.8853	0.0069	-0.448
Mof_O 	O 	0.0466	0.8368	0.0724	-0.409
Mof_O 	O 	0.9374	0.7303	0.0974	-0.389
Mof_O 	O 	0.9977	0.125	0.1015	-0.343
Mof_H 	H 	0.0118	0.1157	0.0681	0.197
Mof_O 	O 	0.8255	0.943	0.1085	-0.454
Mof_O 	O 	0.8577	0.179	0.1491	-0.431
Mof_O 	O 	0.8676	0.1347	0.042	-0.415
Mof_O 	O 	0.8272	0.9344	0.9325	-0.424
Mof_O 	O 	0.7079	0.8919	0.9228	-0.398
Mof_O 	O 	0.7574	0.1223	0.8876	-0.454
Mof_O 	O 	0.6493	0.8543	0.8029	-0.424
Mof_O 	O 	0.7213	0.853	0.7137	-0.433
Mof_O 	O 	0.7016	0.0791	0.766	-0.437
Mof_O 	O 	0.7766	0.7353	0.8361	-0.426
Mof_H 	H 	0.783	0.6909	0.8058	0.255
Mof_C 	C 	0.9547	0.0107	0.1148	0.037
Mof_C 	C 	0.9659	0.9726	0.1802	-0.484
Mof_H 	H 	0.9564	0.0529	0.2042	0.183
Mof_H 	H 	0.9377	0.8961	0.1909	0.147
Mof_H 	H 	0.0107	0.9451	0.1859	0.176
Mof_C 	C 	0.7779	0.8825	0.8237	0.029
Mof_C 	C 	0.8442	0.9284	0.7968	-0.495
Mof_H 	H 	0.8494	0.8853	0.759	0.153
Mof_H 	H 	0.845	0.0289	0.7926	0.153
Mof_H 	H 	0.8793	0.8993	0.8221	0.19
Mof_Zn	Zn	0.39538	0.53641	0.97173	1.23
Mof_Zn	Zn	0.34415	0.24578	0.12229	1.229
Mof_Zn	Zn	0.28012	0.77429	0.17586	1.234
Mof_P 	P 	0.47318	0.3557	0.06977	0.388
Mof_P 	P 	0.37016	0.5699	0.10311	0.427
Mof_P 	P 	0.26744	0.4657	0.89597	0.43
Mof_P 	P 	0.20885	0.4199	0.77353	0.403
Mof_O 	O 	0.4501	0.3853	0.0069	-0.449
Mof_O 	O 	0.5466	0.3368	0.0724	-0.407
Mof_O 	O 	0.4374	0.2303	0.0974	-0.389
Mof_O 	O 	0.4977	0.625	0.1015	-0.347
Mof_H 	H 	0.5118	0.6157	0.0681	0.2
Mof_O 	O 	0.3255	0.443	0.1085	-0.455
Mof_O 	O 	0.3577	0.679	0.1491	-0.431
Mof_O 	O 	0.3676	0.6347	0.042	-0.416
Mof_O 	O 	0.3272	0.4344	0.9325	-0.423
Mof_O 	O 	0.2079	0.3919	0.9228	-0.397
Mof_O 	O 	0.2574	0.6223	0.8876	-0.453
Mof_O 	O 	0.1493	0.3543	0.8029	-0.424
Mof_O 	O 	0.2213	0.353	0.7137	-0.433
Mof_O 	O 	0.2016	0.5791	0.766	-0.437
Mof_O 	O 	0.2766	0.2353	0.8361	-0.426
Mof_H 	H 	0.283	0.1909	0.8058	0.255
Mof_C 	C 	0.4547	0.5107	0.1148	0.039
Mof_C 	C 	0.4659	0.4726	0.1802	-0.492
Mof_H 	H 	0.4564	0.5529	0.2042	0.185
Mof_H 	H 	0.4377	0.3961	0.1909	0.15
Mof_H 	H 	0.5107	0.4451	0.1859	0.18
Mof_C 	C 	0.2779	0.3825	0.8237	0.029
Mof_C 	C 	0.3442	0.4284	0.7968	-0.495
Mof_H 	H 	0.3494	0.3853	0.759	0.153
Mof_H 	H 	0.345	0.5289	0.7926	0.152
Mof_H 	H 	0.3793	0.3993	0.8221	0.19
Mof_Zn	Zn	0.10462	0.03641	0.52827	1.23
Mof_Zn	Zn	0.15585	0.74578	0.37771	1.229
Mof_Zn	Zn	0.21988	0.27429	0.32414	1.234
Mof_P 	P 	0.02682	0.8557	0.43023	0.388
Mof_P 	P 	0.12984	0.0699	0.39689	0.426
Mof_P 	P 	0.23256	0.9657	0.60403	0.43
Mof_P 	P 	0.29115	0.9199	0.72647	0.403
Mof_O 	O 	0.0499	0.8853	0.4931	-0.449
Mof_O 	O 	0.9534	0.8368	0.4276	-0.407
Mof_O 	O 	0.0626	0.7303	0.4026	-0.389
Mof_O 	O 	0.0023	0.125	0.3985	-0.348
Mof_H 	H 	0.9882	0.1157	0.4319	0.201
Mof_O 	O 	0.1745	0.943	0.3915	-0.454
Mof_O 	O 	0.1423	0.179	0.3509	-0.431
Mof_O 	O 	0.1324	0.1347	0.458	-0.416
Mof_O 	O 	0.1728	0.9344	0.5675	-0.424
Mof_O 	O 	0.2921	0.8919	0.5772	-0.397
Mof_O 	O 	0.2426	0.1223	0.6124	-0.453
Mof_O 	O 	0.3507	0.8543	0.6971	-0.424
Mof_O 	O 	0.2787	0.853	0.7863	-0.433
Mof_O 	O 	0.2984	0.0791	0.734	-0.437
Mof_O 	O 	0.2234	0.7353	0.6639	-0.426
Mof_H 	H 	0.217	0.6909	0.6942	0.255
Mof_C 	C 	0.0453	0.0107	0.3852	0.039
Mof_C 	C 	0.0341	0.9726	0.3198	-0.493
Mof_H 	H 	0.0436	0.0529	0.2958	0.185
Mof_H 	H 	0.0623	0.8961	0.3091	0.15
Mof_H 	H 	0.9893	0.9451	0.3141	0.181
Mof_C 	C 	0.2221	0.8825	0.6763	0.029
Mof_C 	C 	0.1558	0.9284	0.7032	-0.496
Mof_H 	H 	0.1506	0.8853	0.741	0.153
Mof_H 	H 	0.155	0.0289	0.7074	0.153
Mof_H 	H 	0.1207	0.8993	0.6779	0.19
Mof_Zn	Zn	0.60462	0.53641	0.52827	1.23
Mof_Zn	Zn	0.65585	0.24578	0.37771	1.229
Mof_Zn	Zn	0.71988	0.77429	0.32414	1.234
Mof_P 	P 	0.52682	0.3557	0.43023	0.388
Mof_P 	P 	0.62984	0.5699	0.39689	0.427
Mof_P 	P 	0.73256	0.4657	0.60403	0.43
Mof_P 	P 	0.79115	0.4199	0.72647	0.403
Mof_O 	O 	0.5499	0.3853	0.4931	-0.449
Mof_O 	O 	0.4534	0.3368	0.4276	-0.407
Mof_O 	O 	0.5626	0.2303	0.4026	-0.389
Mof_O 	O 	0.5023	0.625	0.3985	-0.347
Mof_H 	H 	0.4882	0.6157	0.4319	0.2
Mof_O 	O 	0.6745	0.443	0.3915	-0.454
Mof_O 	O 	0.6423	0.679	0.3509	-0.431
Mof_O 	O 	0.6324	0.6347	0.458	-0.416
Mof_O 	O 	0.6728	0.4344	0.5675	-0.424
Mof_O 	O 	0.7921	0.3919	0.5772	-0.397
Mof_O 	O 	0.7426	0.6223	0.6124	-0.453
Mof_O 	O 	0.8507	0.3543	0.6971	-0.424
Mof_O 	O 	0.7787	0.353	0.7863	-0.433
Mof_O 	O 	0.7984	0.5791	0.734	-0.437
Mof_O 	O 	0.7234	0.2353	0.6639	-0.426
Mof_H 	H 	0.717	0.1909	0.6942	0.255
Mof_C 	C 	0.5453	0.5107	0.3852	0.039
Mof_C 	C 	0.5341	0.4726	0.3198	-0.492
Mof_H 	H 	0.5436	0.5529	0.2958	0.185
Mof_H 	H 	0.5623	0.3961	0.3091	0.15
Mof_H 	H 	0.4893	0.4451	0.3141	0.18
Mof_C 	C 	0.7221	0.3825	0.6763	0.029
Mof_C 	C 	0.6558	0.4284	0.7032	-0.495
Mof_H 	H 	0.6506	0.3853	0.741	0.153
Mof_H 	H 	0.655	0.5289	0.7074	0.152
Mof_H 	H 	0.6207	0.3993	0.6779	0.19
_end
