# CIF file generated by openbabel 3.1.0, see https://openbabel.org
data_I
_chemical_name_common 'image0'
_cell_length_a 16.8431
_cell_length_b 16.8431
_cell_length_c 30.288
_cell_angle_alpha 90
_cell_angle_beta 90
_cell_angle_gamma 120
_space_group_name_H-M_alt 'P 1'
_space_group_name_Hall 'P 1'
loop_
    _symmetry_equiv_pos_as_xyz
    x,y,z
loop_
    _atom_site_label
    _atom_site_type_symbol
    _atom_site_fract_x
    _atom_site_fract_y
    _atom_site_fract_z
    _atom_site_occupancy
    O1       O        0.34740    0.51780    0.69980    1.000
    N1       N        0.46660    0.47440    0.51160    1.000
    C1       C        0.38170    0.47520    0.61760    1.000
    H1       H        0.32950    0.43280    0.63270    1.000
    C2       C        0.39740    0.45480    0.57430    1.000
    H2       H        0.35730    0.40040    0.56000    1.000
    O2       O        0.48220    0.82960    0.69980    1.000
    N2       N        0.52560    0.99220    0.51160    1.000
    C3       C        0.52480    0.90650    0.61760    1.000
    H3       H        0.56720    0.89670    0.63270    1.000
    C4       C        0.54520    0.94260    0.57430    1.000
    H4       H        0.59960    0.95690    0.56000    1.000
    O3       O        0.17040    0.65260    0.69980    1.000
    N3       N        0.00780    0.53340    0.51160    1.000
    C5       C        0.09350    0.61830    0.61760    1.000
    H5       H        0.10330    0.67050    0.63270    1.000
    C6       C        0.05740    0.60260    0.57430    1.000
    H6       H        0.04310    0.64270    0.56000    1.000
    O4       O        0.65260    0.48220    0.19980    1.000
    N4       N        0.53340    0.52560    0.01160    1.000
    C7       C        0.61830    0.52480    0.11760    1.000
    H7       H        0.67050    0.56720    0.13270    1.000
    C8       C        0.60260    0.54520    0.07430    1.000
    H8       H        0.64270    0.59960    0.06000    1.000
    O5       O        0.51780    0.17040    0.19980    1.000
    N5       N        0.47440    0.00780    0.01160    1.000
    C9       C        0.47520    0.09350    0.11760    1.000
    H9       H        0.43280    0.10330    0.13270    1.000
    C10      C        0.45480    0.05740    0.07430    1.000
    H10      H        0.40040    0.04310    0.06000    1.000
    O6       O        0.82960    0.34740    0.19980    1.000
    N6       N        0.99220    0.46660    0.01160    1.000
    C11      C        0.90650    0.38170    0.11760    1.000
    H11      H        0.89670    0.32950    0.13270    1.000
    C12      C        0.94260    0.39740    0.07430    1.000
    H12      H        0.95690    0.35730    0.06000    1.000
    O7       O        0.51780    0.34740    0.30020    1.000
    N7       N        0.47440    0.46660    0.48840    1.000
    C13      C        0.47520    0.38170    0.38240    1.000
    H13      H        0.43280    0.32950    0.36730    1.000
    C14      C        0.45480    0.39740    0.42570    1.000
    H14      H        0.40040    0.35730    0.44000    1.000
    O8       O        0.82960    0.48220    0.30020    1.000
    N8       N        0.99220    0.52560    0.48840    1.000
    C15      C        0.90650    0.52480    0.38240    1.000
    H15      H        0.89670    0.56720    0.36730    1.000
    C16      C        0.94260    0.54520    0.42570    1.000
    H16      H        0.95690    0.59960    0.44000    1.000
    O9       O        0.65260    0.17040    0.30020    1.000
    N9       N        0.53340    0.00780    0.48840    1.000
    C17      C        0.61830    0.09350    0.38240    1.000
    H17      H        0.67050    0.10330    0.36730    1.000
    C18      C        0.60260    0.05740    0.42570    1.000
    H18      H        0.64270    0.04310    0.44000    1.000
    O10      O        0.48220    0.65260    0.80020    1.000
    N10      N        0.52560    0.53340    0.98840    1.000
    C19      C        0.52480    0.61830    0.88240    1.000
    H19      H        0.56720    0.67050    0.86730    1.000
    C20      C        0.54520    0.60260    0.92570    1.000
    H20      H        0.59960    0.64270    0.94000    1.000
    O11      O        0.17040    0.51780    0.80020    1.000
    N11      N        0.00780    0.47440    0.98840    1.000
    C21      C        0.09350    0.47520    0.88240    1.000
    H21      H        0.10330    0.43280    0.86730    1.000
    C22      C        0.05740    0.45480    0.92570    1.000
    H22      H        0.04310    0.40040    0.94000    1.000
    O12      O        0.34740    0.82960    0.80020    1.000
    N12      N        0.46660    0.99220    0.98840    1.000
    C23      C        0.38170    0.90650    0.88240    1.000
    H23      H        0.32950    0.89670    0.86730    1.000
    C24      C        0.39740    0.94260    0.92570    1.000
    H24      H        0.35730    0.95690    0.94000    1.000
    O13      O        0.65260    0.48220    0.30020    1.000
    N13      N        0.53340    0.52560    0.48840    1.000
    C25      C        0.61830    0.52480    0.38240    1.000
    H25      H        0.67050    0.56720    0.36730    1.000
    C26      C        0.60260    0.54520    0.42570    1.000
    H26      H        0.64270    0.59960    0.44000    1.000
    O14      O        0.51780    0.17040    0.30020    1.000
    N14      N        0.47440    0.00780    0.48840    1.000
    C27      C        0.47520    0.09350    0.38240    1.000
    H27      H        0.43280    0.10330    0.36730    1.000
    C28      C        0.45480    0.05740    0.42570    1.000
    H28      H        0.40040    0.04310    0.44000    1.000
    O15      O        0.82960    0.34740    0.30020    1.000
    N15      N        0.99220    0.46660    0.48840    1.000
    C29      C        0.90650    0.38170    0.38240    1.000
    H29      H        0.89670    0.32950    0.36730    1.000
    C30      C        0.94260    0.39740    0.42570    1.000
    H30      H        0.95690    0.35730    0.44000    1.000
    O16      O        0.34740    0.51780    0.80020    1.000
    N16      N        0.46660    0.47440    0.98840    1.000
    C31      C        0.38170    0.47520    0.88240    1.000
    H31      H        0.32950    0.43280    0.86730    1.000
    C32      C        0.39740    0.45480    0.92570    1.000
    H32      H        0.35730    0.40040    0.94000    1.000
    O17      O        0.48220    0.82960    0.80020    1.000
    N17      N        0.52560    0.99220    0.98840    1.000
    C33      C        0.52480    0.90650    0.88240    1.000
    H33      H        0.56720    0.89670    0.86730    1.000
    C34      C        0.54520    0.94260    0.92570    1.000
    H34      H        0.59960    0.95690    0.94000    1.000
    O18      O        0.17040    0.65260    0.80020    1.000
    N18      N        0.00780    0.53340    0.98840    1.000
    C35      C        0.09350    0.61830    0.88240    1.000
    H35      H        0.10330    0.67050    0.86730    1.000
    C36      C        0.05740    0.60260    0.92570    1.000
    H36      H        0.04310    0.64270    0.94000    1.000
    O19      O        0.48220    0.65260    0.69980    1.000
    N19      N        0.52560    0.53340    0.51160    1.000
    C37      C        0.52480    0.61830    0.61760    1.000
    H37      H        0.56720    0.67050    0.63270    1.000
    C38      C        0.54520    0.60260    0.57430    1.000
    H38      H        0.59960    0.64270    0.56000    1.000
    O20      O        0.17040    0.51780    0.69980    1.000
    N20      N        0.00780    0.47440    0.51160    1.000
    C39      C        0.09350    0.47520    0.61760    1.000
    H39      H        0.10330    0.43280    0.63270    1.000
    C40      C        0.05740    0.45480    0.57430    1.000
    H40      H        0.04310    0.40040    0.56000    1.000
    O21      O        0.34740    0.82960    0.69980    1.000
    N21      N        0.46660    0.99220    0.51160    1.000
    C41      C        0.38170    0.90650    0.61760    1.000
    H41      H        0.32950    0.89670    0.63270    1.000
    C42      C        0.39740    0.94260    0.57430    1.000
    H42      H        0.35730    0.95690    0.56000    1.000
    O22      O        0.51780    0.34740    0.19980    1.000
    N22      N        0.47440    0.46660    0.01160    1.000
    C43      C        0.47520    0.38170    0.11760    1.000
    H43      H        0.43280    0.32950    0.13270    1.000
    C44      C        0.45480    0.39740    0.07430    1.000
    H44      H        0.40040    0.35730    0.06000    1.000
    O23      O        0.82960    0.48220    0.19980    1.000
    N23      N        0.99220    0.52560    0.01160    1.000
    C45      C        0.90650    0.52480    0.11760    1.000
    H45      H        0.89670    0.56720    0.13270    1.000
    C46      C        0.94260    0.54520    0.07430    1.000
    H46      H        0.95690    0.59960    0.06000    1.000
    O24      O        0.65260    0.17040    0.19980    1.000
    N24      N        0.53340    0.00780    0.01160    1.000
    C47      C        0.61830    0.09350    0.11760    1.000
    H47      H        0.67050    0.10330    0.13270    1.000
    C48      C        0.60260    0.05740    0.07430    1.000
    H48      H        0.64270    0.04310    0.06000    1.000
    In1      In       0.26407    0.52813    0.75000    1.000
    N25      N        0.19000    0.38000    0.75000    1.000
    C49      C        0.09515    0.19030    0.75000    1.000
    C50      C        0.04470    0.08940    0.75000    1.000
    In2      In       0.47187    0.73593    0.75000    1.000
    N26      N        0.62000    0.81000    0.75000    1.000
    C51      C        0.80970    0.90485    0.75000    1.000
    C52      C        0.91060    0.95530    0.75000    1.000
    In3      In       0.26407    0.73593    0.75000    1.000
    N27      N        0.19000    0.81000    0.75000    1.000
    C53      C        0.09515    0.90485    0.75000    1.000
    C54      C        0.04470    0.95530    0.75000    1.000
    In4      In       0.73593    0.47187    0.25000    1.000
    N28      N        0.81000    0.62000    0.25000    1.000
    C55      C        0.90485    0.80970    0.25000    1.000
    C56      C        0.95530    0.91060    0.25000    1.000
    In5      In       0.52813    0.26407    0.25000    1.000
    N29      N        0.38000    0.19000    0.25000    1.000
    C57      C        0.19030    0.09515    0.25000    1.000
    C58      C        0.08940    0.04470    0.25000    1.000
    In6      In       0.73593    0.26407    0.25000    1.000
    N30      N        0.81000    0.19000    0.25000    1.000
    C59      C        0.90485    0.09515    0.25000    1.000
    C60      C        0.95530    0.04470    0.25000    1.000
    O25      O        0.33333    0.66667    0.75000    1.000
    O26      O        0.66667    0.33333    0.25000    1.000
    N31      N        0.09430    0.04715    0.75000    1.000
    N32      N        0.95285    0.04715    0.75000    1.000
    N33      N        0.95285    0.90570    0.75000    1.000
    N34      N        0.90570    0.95285    0.25000    1.000
    N35      N        0.04715    0.95285    0.25000    1.000
    N36      N        0.04715    0.09430    0.25000    1.000
    C61      C        0.09720    0.33140    0.75000    1.000
    H49      H        0.06540    0.36330    0.75000    1.000
    C62      C        0.04690    0.23550    0.75000    1.000
    H50      H        0.98310    0.20390    0.75000    1.000
    C63      C        0.66860    0.76580    0.75000    1.000
    H51      H        0.63670    0.70210    0.75000    1.000
    C64      C        0.76450    0.81140    0.75000    1.000
    H52      H        0.79610    0.77920    0.75000    1.000
    C65      C        0.23420    0.90280    0.75000    1.000
    H53      H        0.29790    0.93460    0.75000    1.000
    C66      C        0.18860    0.95310    0.75000    1.000
    H54      H        0.22080    0.01690    0.75000    1.000
    C67      C        0.90280    0.66860    0.25000    1.000
    H55      H        0.93460    0.63670    0.25000    1.000
    C68      C        0.95310    0.76450    0.25000    1.000
    H56      H        0.01690    0.79610    0.25000    1.000
    C69      C        0.33140    0.23420    0.25000    1.000
    H57      H        0.36330    0.29790    0.25000    1.000
    C70      C        0.23550    0.18860    0.25000    1.000
    H58      H        0.20390    0.22080    0.25000    1.000
    C71      C        0.76580    0.09720    0.25000    1.000
    H59      H        0.70210    0.06540    0.25000    1.000
    C72      C        0.81140    0.04690    0.25000    1.000
    H60      H        0.77920    0.98310    0.25000    1.000
    C73      C        0.33140    0.09720    0.25000    1.000
    H61      H        0.36330    0.06540    0.25000    1.000
    C74      C        0.23550    0.04690    0.25000    1.000
    H62      H        0.20390    0.98310    0.25000    1.000
    C75      C        0.76580    0.66860    0.25000    1.000
    H63      H        0.70210    0.63670    0.25000    1.000
    C76      C        0.81140    0.76450    0.25000    1.000
    H64      H        0.77920    0.79610    0.25000    1.000
    C77      C        0.90280    0.23420    0.25000    1.000
    H65      H        0.93460    0.29790    0.25000    1.000
    C78      C        0.95310    0.18860    0.25000    1.000
    H66      H        0.01690    0.22080    0.25000    1.000
    C79      C        0.66860    0.90280    0.75000    1.000
    H67      H        0.63670    0.93460    0.75000    1.000
    C80      C        0.76450    0.95310    0.75000    1.000
    H68      H        0.79610    0.01690    0.75000    1.000
    C81      C        0.23420    0.33140    0.75000    1.000
    H69      H        0.29790    0.36330    0.75000    1.000
    C82      C        0.18860    0.23550    0.75000    1.000
    H70      H        0.22080    0.20390    0.75000    1.000
    C83      C        0.09720    0.76580    0.75000    1.000
    H71      H        0.06540    0.70210    0.75000    1.000
    C84      C        0.04690    0.81140    0.75000    1.000
    H72      H        0.98310    0.77920    0.75000    1.000
    C85      C        0.44280    0.55720    0.63800    1.000
    C86      C        0.47740    0.52260    0.55480    1.000
    C87      C        0.42270    0.57730    0.68350    1.000
    C88      C        0.44280    0.88560    0.63800    1.000
    C89      C        0.47740    0.95480    0.55480    1.000
    C90      C        0.42270    0.84540    0.68350    1.000
    C91      C        0.11440    0.55720    0.63800    1.000
    C92      C        0.04520    0.52260    0.55480    1.000
    C93      C        0.15460    0.57730    0.68350    1.000
    C94      C        0.55720    0.44280    0.13800    1.000
    C95      C        0.52260    0.47740    0.05480    1.000
    C96      C        0.57730    0.42270    0.18350    1.000
    C97      C        0.55720    0.11440    0.13800    1.000
    C98      C        0.52260    0.04520    0.05480    1.000
    C99      C        0.57730    0.15460    0.18350    1.000
    C100     C        0.88560    0.44280    0.13800    1.000
    C101     C        0.95480    0.47740    0.05480    1.000
    C102     C        0.84540    0.42270    0.18350    1.000
    C103     C        0.55720    0.44280    0.36200    1.000
    C104     C        0.52260    0.47740    0.44520    1.000
    C105     C        0.57730    0.42270    0.31650    1.000
    C106     C        0.88560    0.44280    0.36200    1.000
    C107     C        0.95480    0.47740    0.44520    1.000
    C108     C        0.84540    0.42270    0.31650    1.000
    C109     C        0.55720    0.11440    0.36200    1.000
    C110     C        0.52260    0.04520    0.44520    1.000
    C111     C        0.57730    0.15460    0.31650    1.000
    C112     C        0.44280    0.55720    0.86200    1.000
    C113     C        0.47740    0.52260    0.94520    1.000
    C114     C        0.42270    0.57730    0.81650    1.000
    C115     C        0.11440    0.55720    0.86200    1.000
    C116     C        0.04520    0.52260    0.94520    1.000
    C117     C        0.15460    0.57730    0.81650    1.000
    C118     C        0.44280    0.88560    0.86200    1.000
    C119     C        0.47740    0.95480    0.94520    1.000
    C120     C        0.42270    0.84540    0.81650    1.000
