# CIF file generated by openbabel 3.1.0, see https://openbabel.org
data_I
_chemical_name_common 'image0'
_cell_length_a 14.5952
_cell_length_b 16.7329
_cell_length_c 19.5713
_cell_angle_alpha 90
_cell_angle_beta 107.344
_cell_angle_gamma 90
_space_group_name_H-M_alt 'P 1'
_space_group_name_Hall 'P 1'
loop_
    _symmetry_equiv_pos_as_xyz
    x,y,z
loop_
    _atom_site_label
    _atom_site_type_symbol
    _atom_site_fract_x
    _atom_site_fract_y
    _atom_site_fract_z
    _atom_site_occupancy
    C1       C        0.86560    0.32530    0.88710    1.000
    C2       C        0.94660    0.29780    0.94220    1.000
    H1       H        0.00750    0.30460    0.93710    1.000
    C3       C        0.93760    0.26030    0.00480    1.000
    C4       C        0.84570    0.24830    0.00930    1.000
    H2       H        0.83770    0.22140    0.04870    1.000
    C5       C        0.76470    0.27560    0.95610    1.000
    C6       C        0.77230    0.31360    0.89390    1.000
    H3       H        0.71790    0.33050    0.85830    1.000
    C7       C        0.87280    0.37150    0.82360    1.000
    C8       C        0.02040    0.22470    0.05990    1.000
    C9       C        0.66870    0.26190    0.96340    1.000
    C10      C        0.59140    0.25210    0.97040    1.000
    C11      C        0.49630    0.25060    0.97780    1.000
    C12      C        0.48420    0.21750    0.04180    1.000
    H4       H        0.53630    0.19480    0.07600    1.000
    C13      C        0.39380    0.21900    0.05320    1.000
    C14      C        0.31440    0.25340    0.00530    1.000
    H5       H        0.25550    0.25460    0.01450    1.000
    C15      C        0.32540    0.28710    0.94080    1.000
    C16      C        0.41500    0.28500    0.92980    1.000
    H6       H        0.42140    0.30770    0.88810    1.000
    C17      C        0.38340    0.18660    0.12090    1.000
    C18      C        0.24360    0.32280    0.88580    1.000
    C19      C        0.54360    0.49210    0.78960    1.000
    C20      C        0.53630    0.47290    0.85870    1.000
    H7       H        0.55610    0.42260    0.87770    1.000
    C21      C        0.50060    0.52670    0.89850    1.000
    C22      C        0.46840    0.60020    0.86810    1.000
    H8       H        0.44240    0.63600    0.89360    1.000
    C23      C        0.47390    0.62290    0.79920    1.000
    C24      C        0.51060    0.56960    0.76060    1.000
    H9       H        0.51410    0.58380    0.71550    1.000
    C25      C        0.58230    0.43730    0.74330    1.000
    C26      C        0.44670    0.70270    0.76660    1.000
    C27      C        0.49990    0.50800    0.97090    1.000
    C28      C        0.12810    0.55410    0.88170    1.000
    H10      H        0.08670    0.53910    0.90950    1.000
    H11      H        0.11030    0.60620    0.86140    1.000
    H12      H        0.19340    0.55530    0.91190    1.000
    C29      C        0.13520    0.49900    0.63150    1.000
    H13      H        0.06880    0.50970    0.60730    1.000
    H14      H        0.16680    0.48280    0.59720    1.000
    H15      H        0.16520    0.54640    0.65560    1.000
    Nd1      Nd       0.67618    0.34308    0.66885    1.000
    Nd2      Nd       0.07771    0.36419    0.77086    1.000
    O1       O        0.79930    0.38460    0.77330    1.000
    O2       O        0.95710    0.38850    0.82130    1.000
    O3       O        0.10560    0.24290    0.06140    1.000
    O4       O        0.00620    0.18140    0.10610    1.000
    O5       O        0.45000    0.13890    0.16240    1.000
    O6       O        0.30770    0.20580    0.14030    1.000
    O7       O        0.16610    0.32540    0.89740    1.000
    O8       O        0.24590    0.34750    0.82760    1.000
    O9       O        0.59060    0.36430    0.76110    1.000
    O10      O        0.61470    0.46600    0.69620    1.000
    O11      O        0.47690    0.72970    0.72080    1.000
    O12      O        0.38490    0.74480    0.79020    1.000
    O13      O        0.11850    0.49260    0.82070    1.000
    H16      H        0.13530    0.50390    0.78320    1.000
    O14      O        0.14290    0.43080    0.68720    1.000
    H17      H        0.09400    0.40070    0.67350    1.000
    C30      C        0.63440    0.82530    0.61290    1.000
    C31      C        0.55340    0.79780    0.55780    1.000
    H18      H        0.49250    0.80460    0.56290    1.000
    C32      C        0.56240    0.76030    0.49520    1.000
    C33      C        0.65430    0.74830    0.49070    1.000
    H19      H        0.66230    0.72140    0.45130    1.000
    C34      C        0.73530    0.77560    0.54390    1.000
    C35      C        0.72770    0.81360    0.60610    1.000
    H20      H        0.78210    0.83050    0.64170    1.000
    C36      C        0.62720    0.87150    0.67640    1.000
    C37      C        0.47960    0.72470    0.44010    1.000
    C38      C        0.83130    0.76190    0.53660    1.000
    C39      C        0.90860    0.75210    0.52960    1.000
    C40      C        0.00370    0.75060    0.52220    1.000
    C41      C        0.01580    0.71750    0.45820    1.000
    H21      H        0.96370    0.69480    0.42400    1.000
    C42      C        0.10620    0.71900    0.44680    1.000
    C43      C        0.18560    0.75340    0.49470    1.000
    H22      H        0.24450    0.75460    0.48550    1.000
    C44      C        0.17460    0.78710    0.55920    1.000
    C45      C        0.08500    0.78500    0.57020    1.000
    H23      H        0.07860    0.80770    0.61190    1.000
    C46      C        0.11660    0.68660    0.37910    1.000
    C47      C        0.25640    0.82280    0.61420    1.000
    C48      C        0.95640    0.99210    0.71040    1.000
    C49      C        0.96370    0.97290    0.64130    1.000
    H24      H        0.94390    0.92260    0.62230    1.000
    C50      C        0.99940    0.02670    0.60150    1.000
    C51      C        0.03160    0.10020    0.63190    1.000
    H25      H        0.05760    0.13600    0.60640    1.000
    C52      C        0.02610    0.12290    0.70080    1.000
    C53      C        0.98940    0.06960    0.73940    1.000
    H26      H        0.98590    0.08380    0.78450    1.000
    C54      C        0.91770    0.93730    0.75670    1.000
    C55      C        0.05330    0.20270    0.73340    1.000
    C56      C        0.00010    0.00800    0.52910    1.000
    C57      C        0.37190    0.05410    0.61830    1.000
    H27      H        0.41330    0.03910    0.59050    1.000
    H28      H        0.38970    0.10620    0.63860    1.000
    H29      H        0.30660    0.05530    0.58810    1.000
    C58      C        0.36480    0.99900    0.86850    1.000
    H30      H        0.43120    0.00970    0.89270    1.000
    H31      H        0.33320    0.98280    0.90280    1.000
    H32      H        0.33480    0.04640    0.84440    1.000
    Nd3      Nd       0.82382    0.84308    0.83115    1.000
    Nd4      Nd       0.42229    0.86419    0.72914    1.000
    O15      O        0.70070    0.88460    0.72670    1.000
    O16      O        0.54290    0.88850    0.67870    1.000
    O17      O        0.39440    0.74290    0.43860    1.000
    O18      O        0.49380    0.68140    0.39390    1.000
    O19      O        0.05000    0.63890    0.33760    1.000
    O20      O        0.19230    0.70580    0.35970    1.000
    O21      O        0.33390    0.82540    0.60260    1.000
    O22      O        0.25410    0.84750    0.67240    1.000
    O23      O        0.90940    0.86430    0.73890    1.000
    O24      O        0.88530    0.96600    0.80380    1.000
    O25      O        0.02310    0.22970    0.77920    1.000
    O26      O        0.11510    0.24480    0.70980    1.000
    O27      O        0.38150    0.99260    0.67930    1.000
    H33      H        0.36470    0.00390    0.71680    1.000
    O28      O        0.35710    0.93080    0.81280    1.000
    H34      H        0.40600    0.90070    0.82650    1.000
    C59      C        0.13440    0.67470    0.11290    1.000
    C60      C        0.05340    0.70220    0.05780    1.000
    H35      H        0.99250    0.69540    0.06290    1.000
    C61      C        0.06240    0.73970    0.99520    1.000
    C62      C        0.15430    0.75170    0.99070    1.000
    H36      H        0.16230    0.77860    0.95130    1.000
    C63      C        0.23530    0.72440    0.04390    1.000
    C64      C        0.22770    0.68640    0.10610    1.000
    H37      H        0.28210    0.66950    0.14170    1.000
    C65      C        0.12720    0.62850    0.17640    1.000
    C66      C        0.97960    0.77530    0.94010    1.000
    C67      C        0.33130    0.73810    0.03660    1.000
    C68      C        0.40860    0.74790    0.02960    1.000
    C69      C        0.50370    0.74940    0.02220    1.000
    C70      C        0.51580    0.78250    0.95820    1.000
    H38      H        0.46370    0.80520    0.92400    1.000
    C71      C        0.60620    0.78100    0.94680    1.000
    C72      C        0.68560    0.74660    0.99470    1.000
    H39      H        0.74450    0.74540    0.98550    1.000
    C73      C        0.67460    0.71290    0.05920    1.000
    C74      C        0.58500    0.71500    0.07020    1.000
    H40      H        0.57860    0.69230    0.11190    1.000
    C75      C        0.61660    0.81340    0.87910    1.000
    C76      C        0.75640    0.67720    0.11420    1.000
    C77      C        0.45640    0.50790    0.21040    1.000
    C78      C        0.46370    0.52710    0.14130    1.000
    H41      H        0.44390    0.57740    0.12230    1.000
    C79      C        0.49940    0.47330    0.10150    1.000
    C80      C        0.53160    0.39980    0.13190    1.000
    H42      H        0.55760    0.36400    0.10640    1.000
    C81      C        0.52610    0.37710    0.20080    1.000
    C82      C        0.48940    0.43040    0.23940    1.000
    H43      H        0.48590    0.41620    0.28450    1.000
    C83      C        0.41770    0.56270    0.25670    1.000
    C84      C        0.55330    0.29730    0.23340    1.000
    C85      C        0.50010    0.49200    0.02910    1.000
    C86      C        0.87190    0.44590    0.11830    1.000
    H44      H        0.91330    0.46090    0.09050    1.000
    H45      H        0.88970    0.39380    0.13860    1.000
    H46      H        0.80660    0.44470    0.08810    1.000
    C87      C        0.86480    0.50100    0.36850    1.000
    H47      H        0.93120    0.49030    0.39270    1.000
    H48      H        0.83320    0.51720    0.40280    1.000
    H49      H        0.83480    0.45360    0.34440    1.000
    Nd5      Nd       0.32382    0.65692    0.33115    1.000
    Nd6      Nd       0.92229    0.63581    0.22914    1.000
    O29      O        0.20070    0.61540    0.22670    1.000
    O30      O        0.04290    0.61150    0.17870    1.000
    O31      O        0.89440    0.75710    0.93860    1.000
    O32      O        0.99380    0.81860    0.89390    1.000
    O33      O        0.55000    0.86110    0.83760    1.000
    O34      O        0.69230    0.79420    0.85970    1.000
    O35      O        0.83390    0.67460    0.10260    1.000
    O36      O        0.75410    0.65250    0.17240    1.000
    O37      O        0.40940    0.63570    0.23890    1.000
    O38      O        0.38530    0.53400    0.30380    1.000
    O39      O        0.52310    0.27030    0.27920    1.000
    O40      O        0.61510    0.25520    0.20980    1.000
    O41      O        0.88150    0.50740    0.17930    1.000
    H50      H        0.86470    0.49610    0.21680    1.000
    O42      O        0.85710    0.56920    0.31280    1.000
    H51      H        0.90600    0.59930    0.32650    1.000
    C88      C        0.36560    0.17470    0.38710    1.000
    C89      C        0.44660    0.20220    0.44220    1.000
    H52      H        0.50750    0.19540    0.43710    1.000
    C90      C        0.43760    0.23970    0.50480    1.000
    C91      C        0.34570    0.25170    0.50930    1.000
    H53      H        0.33770    0.27860    0.54870    1.000
    C92      C        0.26470    0.22440    0.45610    1.000
    C93      C        0.27230    0.18640    0.39390    1.000
    H54      H        0.21790    0.16950    0.35830    1.000
    C94      C        0.37280    0.12850    0.32360    1.000
    C95      C        0.52040    0.27530    0.55990    1.000
    C96      C        0.16870    0.23810    0.46340    1.000
    C97      C        0.09140    0.24790    0.47040    1.000
    C98      C        0.99630    0.24940    0.47780    1.000
    C99      C        0.98420    0.28250    0.54180    1.000
    H55      H        0.03630    0.30520    0.57600    1.000
    C100     C        0.89380    0.28100    0.55320    1.000
    C101     C        0.81440    0.24660    0.50530    1.000
    H56      H        0.75550    0.24540    0.51450    1.000
    C102     C        0.82540    0.21290    0.44080    1.000
    C103     C        0.91500    0.21500    0.42980    1.000
    H57      H        0.92140    0.19230    0.38810    1.000
    C104     C        0.88340    0.31340    0.62090    1.000
    C105     C        0.74360    0.17720    0.38580    1.000
    C106     C        0.04360    0.00790    0.28960    1.000
    C107     C        0.03630    0.02710    0.35870    1.000
    H58      H        0.05610    0.07740    0.37770    1.000
    C108     C        0.00060    0.97330    0.39850    1.000
    C109     C        0.96840    0.89980    0.36810    1.000
    H59      H        0.94240    0.86400    0.39360    1.000
    C110     C        0.97390    0.87710    0.29920    1.000
    C111     C        0.01060    0.93040    0.26060    1.000
    H60      H        0.01410    0.91620    0.21550    1.000
    C112     C        0.08230    0.06270    0.24330    1.000
    C113     C        0.94670    0.79730    0.26660    1.000
    C114     C        0.99990    0.99200    0.47090    1.000
    C115     C        0.62810    0.94590    0.38170    1.000
    H61      H        0.58670    0.96090    0.40950    1.000
    H62      H        0.61030    0.89380    0.36140    1.000
    H63      H        0.69340    0.94470    0.41190    1.000
    C116     C        0.63520    0.00100    0.13150    1.000
    H64      H        0.56880    0.99030    0.10730    1.000
    H65      H        0.66680    0.01720    0.09720    1.000
    H66      H        0.66520    0.95360    0.15560    1.000
    Nd7      Nd       0.17618    0.15692    0.16885    1.000
    Nd8      Nd       0.57771    0.13581    0.27086    1.000
    O43      O        0.29930    0.11540    0.27330    1.000
    O44      O        0.45710    0.11150    0.32130    1.000
    O45      O        0.60560    0.25710    0.56140    1.000
    O46      O        0.50620    0.31860    0.60610    1.000
    O47      O        0.95000    0.36110    0.66240    1.000
    O48      O        0.80770    0.29420    0.64030    1.000
    O49      O        0.66610    0.17460    0.39740    1.000
    O50      O        0.74590    0.15250    0.32760    1.000
    O51      O        0.09060    0.13570    0.26110    1.000
    O52      O        0.11470    0.03400    0.19620    1.000
    O53      O        0.97690    0.77030    0.22080    1.000
    O54      O        0.88490    0.75520    0.29020    1.000
    O55      O        0.61850    0.00740    0.32070    1.000
    H67      H        0.63530    0.99610    0.28320    1.000
    O56      O        0.64290    0.06920    0.18720    1.000
    H68      H        0.59400    0.09930    0.17350    1.000
