# CIF file generated by openbabel 3.1.0, see https://openbabel.org
data_I
_chemical_name_common 'image0'
_cell_length_a 10.4692
_cell_length_b 11.2307
_cell_length_c 12.7358
_cell_angle_alpha 101.237
_cell_angle_beta 110.087
_cell_angle_gamma 99.626
_space_group_name_H-M_alt 'P 1'
_space_group_name_Hall 'P 1'
loop_
    _symmetry_equiv_pos_as_xyz
    x,y,z
loop_
    _atom_site_label
    _atom_site_type_symbol
    _atom_site_fract_x
    _atom_site_fract_y
    _atom_site_fract_z
    _atom_site_occupancy
    Eu1      Eu       0.39408    0.45062    0.32462    1.000
    O1       O        0.34740    0.49800    0.49390    1.000
    O2       O        0.37930    0.56580    0.67710    1.000
    O3       O        0.42920    0.27710    0.40370    1.000
    O4       O        0.49960    0.32810    0.59680    1.000
    O5       O        0.16370    0.29320    0.23440    1.000
    O6       O        0.31770    0.26250    0.15840    1.000
    O7       O        0.20680    0.56150    0.26110    1.000
    C1       C        0.29860    0.52780    0.56980    1.000
    C2       C        0.14420    0.51440    0.53460    1.000
    C3       C        0.09000    0.56040    0.61590    1.000
    H1       H        0.15040    0.60100    0.69460    1.000
    C4       C        0.05540    0.45480    0.42120    1.000
    H2       H        0.09360    0.42330    0.36710    1.000
    C5       C        0.46900    0.25310    0.49940    1.000
    C6       C        0.48340    0.12030    0.49780    1.000
    C7       C        0.48730    0.04010    0.39980    1.000
    H3       H        0.47950    0.06740    0.33230    1.000
    C8       C        0.49730    0.07950    0.59650    1.000
    H4       H        0.49610    0.13470    0.66280    1.000
    C9       C        0.20010    0.22750    0.16460    1.000
    C10      C        0.09610    0.10980    0.07920    1.000
    C11      C        0.13750    0.02920    0.00660    1.000
    H5       H        0.23160    0.04810    0.01140    1.000
    C12      C        0.96020    0.08000    0.07360    1.000
    H6       H        0.93260    0.13370    0.12450    1.000
    C13      C        0.19290    0.66020    0.26470    1.000
    H7       H        0.26080    0.72310    0.33090    1.000
    C14      C        0.10300    0.83720    0.21770    1.000
    C15      C        0.98600    0.62200    0.08730    1.000
    N1       N        0.16900    0.62250    0.72960    1.000
    H8       H        0.26120    0.63610    0.75650    1.000
    H9       H        0.12790    0.64900    0.77620    1.000
    N2       N        0.47820    0.07700    0.29380    1.000
    H10      H        0.48250    0.02390    0.23510    1.000
    H11      H        0.46840    0.15220    0.28880    1.000
    N3       N        0.27600    0.05340    0.01010    1.000
    H12      H        0.33900    0.12130    0.05930    1.000
    H13      H        0.29830    0.00060    0.96310    1.000
    N4       N        0.08890    0.84000    0.85430    1.000
    H14      H        0.03160    0.76940    0.80470    1.000
    H15      H        0.17620    0.86180    0.86000    1.000
    N5       N        0.09800    0.70280    0.19250    1.000
    C16      C        0.80860    0.37300    0.78330    1.000
    C17      C        0.89800    0.20990    0.85400    1.000
    C18      C        0.93700    0.58800    0.12400    1.000
    H16      H        0.72180    0.31350    0.76170    1.000
    N6       N        0.92410    0.33780    0.83700    1.000
    O8       O        0.80060    0.46560    0.76000    1.000
    Eu2      Eu       0.60592    0.54938    0.67538    1.000
    O9       O        0.65260    0.50200    0.50610    1.000
    O10      O        0.62070    0.43420    0.32290    1.000
    O11      O        0.57080    0.72290    0.59630    1.000
    O12      O        0.50040    0.67190    0.40320    1.000
    O13      O        0.83630    0.70680    0.76560    1.000
    O14      O        0.68230    0.73750    0.84160    1.000
    O15      O        0.79320    0.43850    0.73890    1.000
    C19      C        0.70140    0.47220    0.43020    1.000
    C20      C        0.85580    0.48560    0.46540    1.000
    C21      C        0.91000    0.43960    0.38410    1.000
    H17      H        0.84960    0.39900    0.30540    1.000
    C22      C        0.94460    0.54520    0.57880    1.000
    H18      H        0.90640    0.57670    0.63290    1.000
    C23      C        0.53100    0.74690    0.50060    1.000
    C24      C        0.51660    0.87970    0.50220    1.000
    C25      C        0.51270    0.95990    0.60020    1.000
    H19      H        0.52050    0.93260    0.66770    1.000
    C26      C        0.50270    0.92050    0.40350    1.000
    H20      H        0.50390    0.86530    0.33720    1.000
    C27      C        0.79990    0.77250    0.83540    1.000
    C28      C        0.90390    0.89020    0.92080    1.000
    C29      C        0.86250    0.97080    0.99340    1.000
    H21      H        0.76840    0.95190    0.98860    1.000
    C30      C        0.03980    0.92000    0.92640    1.000
    H22      H        0.06740    0.86630    0.87550    1.000
    C31      C        0.80710    0.33980    0.73530    1.000
    H23      H        0.73920    0.27690    0.66910    1.000
    C32      C        0.89700    0.16280    0.78230    1.000
    C33      C        0.01400    0.37800    0.91270    1.000
    N7       N        0.83100    0.37750    0.27040    1.000
    H24      H        0.73880    0.36390    0.24350    1.000
    H25      H        0.87210    0.35100    0.22380    1.000
    N8       N        0.52180    0.92300    0.70620    1.000
    H26      H        0.51750    0.97610    0.76490    1.000
    H27      H        0.53160    0.84780    0.71120    1.000
    N9       N        0.72400    0.94660    0.98990    1.000
    H28      H        0.66100    0.87870    0.94070    1.000
    H29      H        0.70170    0.99940    0.03690    1.000
    N10      N        0.91110    0.16000    0.14570    1.000
    H30      H        0.96840    0.23060    0.19530    1.000
    H31      H        0.82380    0.13820    0.14000    1.000
    N11      N        0.90200    0.29720    0.80750    1.000
    C34      C        0.19140    0.62700    0.21670    1.000
    C35      C        0.10200    0.79010    0.14600    1.000
    C36      C        0.06300    0.41200    0.87600    1.000
    H32      H        0.27820    0.68650    0.23830    1.000
    N12      N        0.07590    0.66220    0.16300    1.000
    O16      O        0.19940    0.53440    0.24000    1.000
