data_functionalizedCrystal
_audit_creation_method	'EQeq! by Chris Wilmer'
_symmetry_space_group_name_H-M	'P1'
_symmetry_Int_Tables_number	1
_symmetry_cell_setting	triclinic
loop_
_symmetry_equiv_pos_as_xyz
  x,y,z
_cell_length_a	13.4588
_cell_length_b	13.4588
_cell_length_c	17.1188
_cell_angle_alpha	111.335
_cell_angle_beta	111.335
_cell_angle_gamma	90.4967
loop_
_atom_site_label
_atom_site_type_symbol
_atom_site_fract_x
_atom_site_fract_y
_atom_site_fract_z
_atom_site_charge
Mof_Cd	Cd	0.62538	0.37462	0.25	0.348
Mof_Cd	Cd	0.37462	0.62538	0.75	0.348
Mof_H 	H 	0.5164	0.1542	0.0564	0.006
Mof_H 	H 	0.8215	0.3223	0.1868	0.018
Mof_H 	H 	0.5764	0.0162	0.9539	0.095
Mof_H 	H 	0.8806	0.1938	0.0874	0.153
Mof_H 	H 	0.7296	0.938	0.932	0.163
Mof_H 	H 	0.7324	0.0034	0.887	0.17
Mof_H 	H 	0.6269	0.4889	0.4523	-0.022
Mof_H 	H 	0.5885	0.6111	0.2752	-0.037
Mof_H 	H 	0.6402	0.6628	0.5629	0.181
Mof_H 	H 	0.6064	0.7832	0.381	0.217
Mof_H 	H 	0.6274	0.8464	0.6068	0.215
Mof_H 	H 	0.713	0.8894	0.5802	0.252
Mof_H 	H 	0.8458	0.4836	0.4436	0.005
Mof_H 	H 	0.6777	0.1785	0.3132	0.016
Mof_H 	H 	0.9838	0.4236	0.5461	0.093
Mof_H 	H 	0.8062	0.1194	0.4126	0.155
Mof_H 	H 	0.062	0.2704	0.568	0.17
Mof_H 	H 	0.9966	0.2676	0.613	0.173
Mof_H 	H 	0.5111	0.3731	0.0477	-0.022
Mof_H 	H 	0.3889	0.4115	0.2248	-0.036
Mof_H 	H 	0.3372	0.3598	0.9371	0.18
Mof_H 	H 	0.2168	0.3936	0.119	0.216
Mof_H 	H 	0.1536	0.3726	0.8932	0.214
Mof_H 	H 	0.1106	0.287	0.9198	0.252
Mof_H 	H 	0.4836	0.8458	0.9436	0.005
Mof_H 	H 	0.1785	0.6777	0.8132	0.017
Mof_H 	H 	0.4236	0.9838	0.0461	0.095
Mof_H 	H 	0.1194	0.8062	0.9126	0.153
Mof_H 	H 	0.2704	0.062	0.068	0.163
Mof_H 	H 	0.2676	0.9966	0.113	0.17
Mof_H 	H 	0.3731	0.5111	0.5477	-0.022
Mof_H 	H 	0.4115	0.3889	0.7248	-0.037
Mof_H 	H 	0.3598	0.3372	0.4371	0.181
Mof_H 	H 	0.3936	0.2168	0.619	0.217
Mof_H 	H 	0.3726	0.1536	0.3932	0.215
Mof_H 	H 	0.287	0.1106	0.4198	0.252
Mof_H 	H 	0.1542	0.5164	0.5564	0.005
Mof_H 	H 	0.3223	0.8215	0.6868	0.016
Mof_H 	H 	0.0162	0.5764	0.4539	0.093
Mof_H 	H 	0.1938	0.8806	0.5874	0.155
Mof_H 	H 	0.938	0.7296	0.432	0.17
Mof_H 	H 	0.0034	0.7324	0.387	0.173
Mof_H 	H 	0.4889	0.6269	0.9523	-0.022
Mof_H 	H 	0.6111	0.5885	0.7752	-0.036
Mof_H 	H 	0.6628	0.6402	0.0629	0.18
Mof_H 	H 	0.7832	0.6064	0.881	0.216
Mof_H 	H 	0.8464	0.6274	0.1068	0.214
Mof_H 	H 	0.8894	0.713	0.0802	0.252
Mof_C 	C 	0.60125	0.16221	0.06583	0.115
Mof_C 	C 	0.76999	0.25865	0.13673	0.137
Mof_C 	C 	0.63008	0.08204	0.00407	-0.191
Mof_C 	C 	0.80544	0.18178	0.07788	-0.181
Mof_C 	C 	0.73482	0.08966	0.01063	0.228
Mof_C 	C 	0.76631	9e-05	0.94363	-0.302
Mof_C 	C 	0.88685	0.00081	0.97255	-0.011
Mof_C 	C 	0.94274	0.95482	0.03262	0.225
Mof_C 	C 	0.05232	0.95426	0.05887	0.223
Mof_C 	C 	0.6213	0.55274	0.43983	0.205
Mof_C 	C 	0.60047	0.62525	0.33516	0.225
Mof_C 	C 	0.6286	0.65272	0.50549	-0.356
Mof_C 	C 	0.60773	0.72709	0.39701	-0.37
Mof_C 	C 	0.6252	0.7434	0.48573	0.375
Mof_C 	C 	0.64107	0.85417	0.55932	-0.43
Mof_C 	C 	0.56849	0.92849	0.52766	0.023
Mof_C 	C 	0.46711	0.93107	0.53067	0.208
Mof_C 	C 	0.40174	0.00116	0.50471	0.201
Mof_C 	C 	0.83779	0.39875	0.43417	0.114
Mof_C 	C 	0.74135	0.23001	0.36327	0.139
Mof_C 	C 	0.91796	0.36992	0.49593	-0.19
Mof_C 	C 	0.81822	0.19456	0.42212	-0.184
Mof_C 	C 	0.91034	0.26518	0.48937	0.234
Mof_C 	C 	0.99991	0.23369	0.55637	-0.316
Mof_C 	C 	0.99919	0.11315	0.52745	-0.009
Mof_C 	C 	0.04518	0.05726	0.46738	0.224
Mof_C 	C 	0.04574	0.94768	0.44113	0.222
Mof_C 	C 	0.44726	0.3787	0.06017	0.203
Mof_C 	C 	0.37475	0.39953	0.16484	0.224
Mof_C 	C 	0.34728	0.3714	0.99451	-0.352
Mof_C 	C 	0.27291	0.39227	0.10299	-0.368
Mof_C 	C 	0.2566	0.3748	0.01427	0.372
Mof_C 	C 	0.14583	0.35893	0.94068	-0.428
Mof_C 	C 	0.07151	0.43151	0.97234	0.023
Mof_C 	C 	0.06893	0.53289	0.96933	0.208
Mof_C 	C 	0.99884	0.59826	0.99529	0.201
Mof_C 	C 	0.39875	0.83779	0.93417	0.115
Mof_C 	C 	0.23001	0.74135	0.86327	0.137
Mof_C 	C 	0.36992	0.91796	0.99593	-0.191
Mof_C 	C 	0.19456	0.81822	0.92212	-0.181
Mof_C 	C 	0.26518	0.91034	0.98937	0.228
Mof_C 	C 	0.23369	0.99991	0.05637	-0.302
Mof_C 	C 	0.11315	0.99919	0.02745	-0.011
Mof_C 	C 	0.05726	0.04518	0.96738	0.225
Mof_C 	C 	0.94768	0.04574	0.94113	0.223
Mof_C 	C 	0.3787	0.44726	0.56017	0.205
Mof_C 	C 	0.39953	0.37475	0.66484	0.225
Mof_C 	C 	0.3714	0.34728	0.49451	-0.356
Mof_C 	C 	0.39227	0.27291	0.60299	-0.37
Mof_C 	C 	0.3748	0.2566	0.51427	0.375
Mof_C 	C 	0.35893	0.14583	0.44068	-0.43
Mof_C 	C 	0.43151	0.07151	0.47234	0.023
Mof_C 	C 	0.53289	0.06893	0.46933	0.208
Mof_C 	C 	0.59826	0.99884	0.49529	0.201
Mof_C 	C 	0.16221	0.60125	0.56583	0.114
Mof_C 	C 	0.25865	0.76999	0.63673	0.139
Mof_C 	C 	0.08204	0.63008	0.50407	-0.19
Mof_C 	C 	0.18178	0.80544	0.57788	-0.184
Mof_C 	C 	0.08966	0.73482	0.51063	0.234
Mof_C 	C 	9e-05	0.76631	0.44363	-0.316
Mof_C 	C 	0.00081	0.88685	0.47255	-0.009
Mof_C 	C 	0.95482	0.94274	0.53262	0.224
Mof_C 	C 	0.95426	0.05232	0.55887	0.222
Mof_C 	C 	0.55274	0.6213	0.93983	0.203
Mof_C 	C 	0.62525	0.60047	0.83516	0.224
Mof_C 	C 	0.65272	0.6286	0.00549	-0.352
Mof_C 	C 	0.72709	0.60773	0.89701	-0.368
Mof_C 	C 	0.7434	0.6252	0.98573	0.372
Mof_C 	C 	0.85417	0.64107	0.05932	-0.428
Mof_C 	C 	0.92849	0.56849	0.02766	0.023
Mof_C 	C 	0.93107	0.46711	0.03067	0.208
Mof_C 	C 	0.00116	0.40174	0.00471	0.201
Mof_N 	N 	0.66946	0.2488	0.13252	-0.169
Mof_N 	N 	0.60914	0.53766	0.35542	-0.203
Mof_N 	N 	0.7512	0.33054	0.36748	-0.17
Mof_N 	N 	0.46234	0.39086	0.14458	-0.203
Mof_N 	N 	0.33054	0.7512	0.86748	-0.169
Mof_N 	N 	0.39086	0.46234	0.64458	-0.203
Mof_N 	N 	0.2488	0.66946	0.63252	-0.17
Mof_N 	N 	0.53766	0.60914	0.85542	-0.203
Mof_F 	F 	0.88852	0.90946	0.06675	-0.393
Mof_F 	F 	0.10069	0.91049	0.12002	-0.36
Mof_F 	F 	0.43151	0.86471	0.5611	-0.405
Mof_F 	F 	0.30496	0.00034	0.51157	-0.376
Mof_F 	F 	0.09054	0.11148	0.43325	-0.394
Mof_F 	F 	0.08951	0.89931	0.37998	-0.36
Mof_F 	F 	0.13529	0.56849	0.9389	-0.405
Mof_F 	F 	0.99966	0.69504	0.98843	-0.377
Mof_F 	F 	0.11148	0.09054	0.93325	-0.393
Mof_F 	F 	0.89931	0.08951	0.87998	-0.36
Mof_F 	F 	0.56849	0.13529	0.4389	-0.405
Mof_F 	F 	0.69504	0.99966	0.48843	-0.376
Mof_F 	F 	0.90946	0.88852	0.56675	-0.394
Mof_F 	F 	0.91049	0.10069	0.62002	-0.36
Mof_F 	F 	0.86471	0.43151	0.0611	-0.405
Mof_F 	F 	0.00034	0.30496	0.01157	-0.377
_end
