data_functionalizedCrystal
_audit_creation_method	'EQeq! by Chris Wilmer'
_symmetry_space_group_name_H-M	'P1'
_symmetry_Int_Tables_number	1
_symmetry_cell_setting	triclinic
loop_
_symmetry_equiv_pos_as_xyz
  x,y,z
_cell_length_a	25.7522
_cell_length_b	25.7522
_cell_length_c	6.7576
_cell_angle_alpha	90
_cell_angle_beta	90
_cell_angle_gamma	120
loop_
_atom_site_label
_atom_site_type_symbol
_atom_site_fract_x
_atom_site_fract_y
_atom_site_fract_z
_atom_site_charge
Mof_Ni	Ni	0.61899	0.64771	0.3532	1.1
Mof_O 	O 	0.43861	0.40624	0.43423	-0.419
Mof_O 	O 	0.36897	0.36544	0.21657	-0.585
Mof_O 	O 	0.61444	0.58281	0.15798	-0.503
Mof_C 	C 	0.41815	0.40686	0.25376	0.409
Mof_C 	C 	0.46256	0.4533	0.11806	-0.173
Mof_C 	C 	0.55967	0.54857	0.08032	0.166
Mof_C 	C 	0.51805	0.4967	0.19414	-0.066
Mof_H 	H 	0.52884	0.49191	0.32607	0.071
Mof_Ni	Ni	0.28566	0.98104	0.68653	1.1
Mof_O 	O 	0.10528	0.73957	0.76756	-0.419
Mof_O 	O 	0.03564	0.69877	0.5499	-0.586
Mof_O 	O 	0.28111	0.91614	0.49131	-0.503
Mof_C 	C 	0.08482	0.74019	0.58709	0.409
Mof_C 	C 	0.12923	0.78663	0.45139	-0.173
Mof_C 	C 	0.22634	0.8819	0.41365	0.167
Mof_C 	C 	0.18472	0.83003	0.52747	-0.066
Mof_H 	H 	0.19551	0.82524	0.6594	0.07
Mof_Ni	Ni	0.95232	0.31438	0.01987	1.099
Mof_O 	O 	0.77194	0.07291	0.1009	-0.419
Mof_O 	O 	0.7023	0.03211	0.88324	-0.586
Mof_O 	O 	0.94777	0.24948	0.82465	-0.503
Mof_C 	C 	0.75148	0.07353	0.92043	0.41
Mof_C 	C 	0.79589	0.11997	0.78473	-0.173
Mof_C 	C 	0.893	0.21524	0.74699	0.167
Mof_C 	C 	0.85138	0.16337	0.86081	-0.065
Mof_H 	H 	0.86217	0.15858	0.99274	0.071
Mof_Ni	Ni	0.35229	0.97128	0.3532	1.1
Mof_O 	O 	0.59376	0.03237	0.43423	-0.419
Mof_O 	O 	0.63456	0.00353	0.21657	-0.586
Mof_O 	O 	0.41719	0.03163	0.15798	-0.503
Mof_C 	C 	0.59314	0.01129	0.25376	0.409
Mof_C 	C 	0.5467	0.00926	0.11806	-0.173
Mof_C 	C 	0.45143	0.0111	0.08032	0.166
Mof_C 	C 	0.5033	0.02135	0.19414	-0.066
Mof_H 	H 	0.50809	0.03693	0.32607	0.071
Mof_Ni	Ni	0.01896	0.30461	0.68653	1.1
Mof_O 	O 	0.26043	0.3657	0.76756	-0.419
Mof_O 	O 	0.30123	0.33686	0.5499	-0.586
Mof_O 	O 	0.08386	0.36496	0.49131	-0.503
Mof_C 	C 	0.25981	0.34462	0.58709	0.41
Mof_C 	C 	0.21337	0.34259	0.45139	-0.173
Mof_C 	C 	0.1181	0.34443	0.41365	0.167
Mof_C 	C 	0.16997	0.35468	0.52747	-0.065
Mof_H 	H 	0.17476	0.37026	0.6594	0.071
Mof_Ni	Ni	0.68562	0.63795	0.01987	1.099
Mof_O 	O 	0.92709	0.69904	0.1009	-0.419
Mof_O 	O 	0.96789	0.6702	0.88324	-0.586
Mof_O 	O 	0.75052	0.6983	0.82465	-0.503
Mof_C 	C 	0.92647	0.67796	0.92043	0.409
Mof_C 	C 	0.88003	0.67593	0.78473	-0.173
Mof_C 	C 	0.78476	0.67777	0.74699	0.167
Mof_C 	C 	0.83663	0.68802	0.86081	-0.066
Mof_H 	H 	0.84142	0.7036	0.99274	0.071
Mof_Ni	Ni	0.02872	0.38101	0.3532	1.1
Mof_O 	O 	0.96763	0.56139	0.43423	-0.419
Mof_O 	O 	0.99647	0.63103	0.21657	-0.585
Mof_O 	O 	0.96837	0.38556	0.15798	-0.503
Mof_C 	C 	0.98871	0.58185	0.25376	0.409
Mof_C 	C 	0.99074	0.53744	0.11806	-0.173
Mof_C 	C 	0.9889	0.44033	0.08032	0.166
Mof_C 	C 	0.97865	0.48195	0.19414	-0.066
Mof_H 	H 	0.96307	0.47116	0.32607	0.071
Mof_Ni	Ni	0.69539	0.71434	0.68653	1.1
Mof_O 	O 	0.6343	0.89472	0.76756	-0.419
Mof_O 	O 	0.66314	0.96436	0.5499	-0.586
Mof_O 	O 	0.63504	0.71889	0.49131	-0.503
Mof_C 	C 	0.65538	0.91518	0.58709	0.41
Mof_C 	C 	0.65741	0.87077	0.45139	-0.173
Mof_C 	C 	0.65557	0.77366	0.41365	0.167
Mof_C 	C 	0.64532	0.81528	0.52747	-0.066
Mof_H 	H 	0.62974	0.80449	0.6594	0.071
Mof_Ni	Ni	0.36205	0.04768	0.01987	1.099
Mof_O 	O 	0.30096	0.22806	0.1009	-0.419
Mof_O 	O 	0.3298	0.2977	0.88324	-0.586
Mof_O 	O 	0.3017	0.05223	0.82465	-0.503
Mof_C 	C 	0.32204	0.24852	0.92043	0.409
Mof_C 	C 	0.32407	0.20411	0.78473	-0.173
Mof_C 	C 	0.32223	0.107	0.74699	0.167
Mof_C 	C 	0.31198	0.14862	0.86081	-0.066
Mof_H 	H 	0.2964	0.13783	0.99274	0.071
Mof_Ni	Ni	0.38101	0.35229	0.6468	1.1
Mof_O 	O 	0.56139	0.59376	0.56577	-0.419
Mof_O 	O 	0.63103	0.63456	0.78343	-0.585
Mof_O 	O 	0.38556	0.41719	0.84202	-0.503
Mof_C 	C 	0.58185	0.59314	0.74624	0.409
Mof_C 	C 	0.53744	0.5467	0.88194	-0.173
Mof_C 	C 	0.44033	0.45143	0.91968	0.166
Mof_C 	C 	0.48195	0.5033	0.80586	-0.066
Mof_H 	H 	0.47116	0.50809	0.67393	0.071
Mof_Ni	Ni	0.04768	0.68562	0.98013	1.099
Mof_O 	O 	0.22806	0.92709	0.8991	-0.419
Mof_O 	O 	0.2977	0.96789	0.11676	-0.586
Mof_O 	O 	0.05223	0.75052	0.17535	-0.503
Mof_C 	C 	0.24852	0.92647	0.07957	0.41
Mof_C 	C 	0.20411	0.88003	0.21527	-0.173
Mof_C 	C 	0.107	0.78476	0.25301	0.167
Mof_C 	C 	0.14862	0.83663	0.13919	-0.065
Mof_H 	H 	0.13783	0.84142	0.00726	0.071
Mof_Ni	Ni	0.71434	0.01896	0.31347	1.1
Mof_O 	O 	0.89472	0.26043	0.23244	-0.419
Mof_O 	O 	0.96436	0.30123	0.4501	-0.586
Mof_O 	O 	0.71889	0.08386	0.50869	-0.503
Mof_C 	C 	0.91518	0.25981	0.41291	0.409
Mof_C 	C 	0.87077	0.21337	0.54861	-0.173
Mof_C 	C 	0.77366	0.1181	0.58635	0.167
Mof_C 	C 	0.81528	0.16997	0.47253	-0.066
Mof_H 	H 	0.80449	0.17476	0.3406	0.07
Mof_Ni	Ni	0.64771	0.02872	0.6468	1.1
Mof_O 	O 	0.40624	0.96763	0.56577	-0.419
Mof_O 	O 	0.36544	0.99647	0.78343	-0.586
Mof_O 	O 	0.58281	0.96837	0.84202	-0.503
Mof_C 	C 	0.40686	0.98871	0.74624	0.409
Mof_C 	C 	0.4533	0.99074	0.88194	-0.173
Mof_C 	C 	0.54857	0.9889	0.91968	0.166
Mof_C 	C 	0.4967	0.97865	0.80586	-0.066
Mof_H 	H 	0.49191	0.96307	0.67393	0.071
Mof_Ni	Ni	0.31438	0.36205	0.98013	1.099
Mof_O 	O 	0.07291	0.30096	0.8991	-0.419
Mof_O 	O 	0.03211	0.3298	0.11676	-0.586
Mof_O 	O 	0.24948	0.3017	0.17535	-0.503
Mof_C 	C 	0.07353	0.32204	0.07957	0.409
Mof_C 	C 	0.11997	0.32407	0.21527	-0.173
Mof_C 	C 	0.21524	0.32223	0.25301	0.167
Mof_C 	C 	0.16337	0.31198	0.13919	-0.066
Mof_H 	H 	0.15858	0.2964	0.00726	0.071
Mof_Ni	Ni	0.98104	0.69539	0.31347	1.1
Mof_O 	O 	0.73957	0.6343	0.23244	-0.419
Mof_O 	O 	0.69877	0.66314	0.4501	-0.586
Mof_O 	O 	0.91614	0.63504	0.50869	-0.503
Mof_C 	C 	0.74019	0.65538	0.41291	0.41
Mof_C 	C 	0.78663	0.65741	0.54861	-0.173
Mof_C 	C 	0.8819	0.65557	0.58635	0.167
Mof_C 	C 	0.83003	0.64532	0.47253	-0.065
Mof_H 	H 	0.82524	0.62974	0.3406	0.071
Mof_Ni	Ni	0.97128	0.61899	0.6468	1.1
Mof_O 	O 	0.03237	0.43861	0.56577	-0.419
Mof_O 	O 	0.00353	0.36897	0.78343	-0.585
Mof_O 	O 	0.03163	0.61444	0.84202	-0.503
Mof_C 	C 	0.01129	0.41815	0.74624	0.409
Mof_C 	C 	0.00926	0.46256	0.88194	-0.173
Mof_C 	C 	0.0111	0.55967	0.91968	0.166
Mof_C 	C 	0.02135	0.51805	0.80586	-0.066
Mof_H 	H 	0.03693	0.52884	0.67393	0.071
Mof_Ni	Ni	0.63795	0.95232	0.98013	1.099
Mof_O 	O 	0.69904	0.77194	0.8991	-0.419
Mof_O 	O 	0.6702	0.7023	0.11676	-0.586
Mof_O 	O 	0.6983	0.94777	0.17535	-0.503
Mof_C 	C 	0.67796	0.75148	0.07957	0.409
Mof_C 	C 	0.67593	0.79589	0.21527	-0.173
Mof_C 	C 	0.67777	0.893	0.25301	0.167
Mof_C 	C 	0.68802	0.85138	0.13919	-0.066
Mof_H 	H 	0.7036	0.86217	0.00726	0.071
Mof_Ni	Ni	0.30461	0.28566	0.31347	1.1
Mof_O 	O 	0.3657	0.10528	0.23244	-0.419
Mof_O 	O 	0.33686	0.03564	0.4501	-0.586
Mof_O 	O 	0.36496	0.28111	0.50869	-0.503
Mof_C 	C 	0.34462	0.08482	0.41291	0.41
Mof_C 	C 	0.34259	0.12923	0.54861	-0.173
Mof_C 	C 	0.34443	0.22634	0.58635	0.167
Mof_C 	C 	0.35468	0.18472	0.47253	-0.066
Mof_H 	H 	0.37026	0.19551	0.3406	0.071
_end
