# CIF file generated by openbabel 3.1.0, see https://openbabel.org
data_I
_chemical_name_common 'YENLUA_ion_b'
_cell_length_a 36.332
_cell_length_b 36.332
_cell_length_c 15.208
_cell_angle_alpha 90
_cell_angle_beta 90
_cell_angle_gamma 90
_space_group_name_H-M_alt 'P 1'
_space_group_name_Hall 'P 1'
loop_
    _symmetry_equiv_pos_as_xyz
    x,y,z
loop_
    _atom_site_label
    _atom_site_type_symbol
    _atom_site_fract_x
    _atom_site_fract_y
    _atom_site_fract_z
    _atom_site_occupancy
    C1       C        0.06980    0.35210    0.22260    1.000
    C2       C        0.07370    0.32680    0.30160    1.000
    C3       C        0.14570    0.42570    0.30380    1.000
    C4       C        0.16320    0.43050    0.21350    1.000
    C5       C        0.20600    0.30490    0.27970    1.000
    C6       C        0.18760    0.29170    0.19230    1.000
    C7       C        0.04560    0.29730    0.42180    1.000
    C8       C        0.04730    0.25850    0.42010    1.000
    C9       C        0.11610    0.45460    0.42240    1.000
    C10      C        0.18500    0.24900    0.07840    1.000
    C11      C        0.15720    0.22660    0.07930    1.000
    C12      C        0.07810    0.45310    0.41940    1.000
    C13      C        0.05710    0.44920    0.33530    1.000
    H14      H        0.07380    0.45050    0.28650    1.000
    H15      H        0.03930    0.46870    0.33090    1.000
    H16      H        0.04460    0.42590    0.33460    1.000
    C17      C        0.05170    0.23760    0.33530    1.000
    H18      H        0.05070    0.25440    0.28670    1.000
    H19      H        0.03210    0.21990    0.32990    1.000
    H20      H        0.07490    0.22500    0.33510    1.000
    C21      C        0.14170    0.20930    0.16340    1.000
    H22      H        0.12100    0.19410    0.14890    1.000
    H23      H        0.13400    0.22840    0.20300    1.000
    H24      H        0.16030    0.19460    0.19100    1.000
    Mn25     Mn       0.14727    0.35212    0.24824    1.000
    N26      N        0.04470    0.31680    0.34140    1.000
    N27      N        0.13700    0.45720    0.33930    1.000
    N28      N        0.20110    0.26273    0.16010    1.000
    O29      O        0.03610    0.35770    0.19970    1.000
    O30      O        0.09710    0.36318    0.18280    1.000
    O31      O        0.10720    0.31900    0.32460    1.000
    O32      O        0.17110    0.46230    0.18930    1.000
    O33      O        0.17300    0.40002    0.17570    1.000
    O34      O        0.14020    0.39470    0.33240    1.000
    O35      O        0.16130    0.31152    0.16390    1.000
    O36      O        0.19320    0.33314    0.31500    1.000
    O37      O        0.23110    0.28504    0.30890    1.000
    C46      C        0.93020    0.64790    0.22260    1.000
    C47      C        0.92630    0.67320    0.30160    1.000
    C48      C        0.85430    0.57430    0.30380    1.000
    C49      C        0.83680    0.56950    0.21350    1.000
    C50      C        0.79400    0.69510    0.27970    1.000
    C51      C        0.81240    0.70830    0.19230    1.000
    C52      C        0.95440    0.70270    0.42180    1.000
    C53      C        0.95270    0.74150    0.42010    1.000
    C54      C        0.88390    0.54540    0.42240    1.000
    C55      C        0.81500    0.75100    0.07840    1.000
    C56      C        0.84280    0.77340    0.07930    1.000
    C57      C        0.92190    0.54690    0.41940    1.000
    C58      C        0.94290    0.55080    0.33530    1.000
    H59      H        0.92620    0.54950    0.28650    1.000
    H60      H        0.96070    0.53130    0.33090    1.000
    H61      H        0.95540    0.57410    0.33460    1.000
    C62      C        0.94830    0.76240    0.33530    1.000
    H63      H        0.94930    0.74560    0.28670    1.000
    H64      H        0.96790    0.78010    0.32990    1.000
    H65      H        0.92510    0.77500    0.33510    1.000
    C66      C        0.85830    0.79070    0.16340    1.000
    H67      H        0.87900    0.80590    0.14890    1.000
    H68      H        0.86600    0.77160    0.20300    1.000
    H69      H        0.83970    0.80540    0.19100    1.000
    Mn70     Mn       0.85273    0.64788    0.24824    1.000
    N71      N        0.95530    0.68320    0.34140    1.000
    N72      N        0.86300    0.54280    0.33930    1.000
    N73      N        0.79890    0.73727    0.16010    1.000
    O74      O        0.96390    0.64230    0.19970    1.000
    O75      O        0.90290    0.63682    0.18280    1.000
    O76      O        0.89280    0.68100    0.32460    1.000
    O77      O        0.82890    0.53770    0.18930    1.000
    O78      O        0.82700    0.59998    0.17570    1.000
    O79      O        0.85980    0.60530    0.33240    1.000
    O80      O        0.83870    0.68848    0.16390    1.000
    O81      O        0.80680    0.66686    0.31500    1.000
    O82      O        0.76890    0.71496    0.30890    1.000
    C91      C        0.64790    0.06980    0.22260    1.000
    C92      C        0.67320    0.07370    0.30160    1.000
    C93      C        0.57430    0.14570    0.30380    1.000
    C94      C        0.56950    0.16320    0.21350    1.000
    C95      C        0.69510    0.20600    0.27970    1.000
    C96      C        0.70830    0.18760    0.19230    1.000
    C97      C        0.70270    0.04560    0.42180    1.000
    C98      C        0.74150    0.04730    0.42010    1.000
    C99      C        0.54540    0.11610    0.42240    1.000
    C100     C        0.75100    0.18500    0.07840    1.000
    C101     C        0.77340    0.15720    0.07930    1.000
    C102     C        0.54690    0.07810    0.41940    1.000
    C103     C        0.55080    0.05710    0.33530    1.000
    H104     H        0.54950    0.07380    0.28650    1.000
    H105     H        0.53130    0.03930    0.33090    1.000
    H106     H        0.57410    0.04460    0.33460    1.000
    C107     C        0.76240    0.05170    0.33530    1.000
    H108     H        0.74560    0.05070    0.28670    1.000
    H109     H        0.78010    0.03210    0.32990    1.000
    H110     H        0.77500    0.07490    0.33510    1.000
    C111     C        0.79070    0.14170    0.16340    1.000
    H112     H        0.80590    0.12100    0.14890    1.000
    H113     H        0.77160    0.13400    0.20300    1.000
    H114     H        0.80540    0.16030    0.19100    1.000
    Mn115    Mn       0.64788    0.14727    0.24824    1.000
    N116     N        0.68320    0.04470    0.34140    1.000
    N117     N        0.54280    0.13700    0.33930    1.000
    N118     N        0.73727    0.20110    0.16010    1.000
    O119     O        0.64230    0.03610    0.19970    1.000
    O120     O        0.63682    0.09710    0.18280    1.000
    O121     O        0.68100    0.10720    0.32460    1.000
    O122     O        0.53770    0.17110    0.18930    1.000
    O123     O        0.59998    0.17300    0.17570    1.000
    O124     O        0.60530    0.14020    0.33240    1.000
    O125     O        0.68848    0.16130    0.16390    1.000
    O126     O        0.66686    0.19320    0.31500    1.000
    O127     O        0.71496    0.23110    0.30890    1.000
    C136     C        0.35210    0.93020    0.22260    1.000
    C137     C        0.32680    0.92630    0.30160    1.000
    C138     C        0.42570    0.85430    0.30380    1.000
    C139     C        0.43050    0.83680    0.21350    1.000
    C140     C        0.30490    0.79400    0.27970    1.000
    C141     C        0.29170    0.81240    0.19230    1.000
    C142     C        0.29730    0.95440    0.42180    1.000
    C143     C        0.25850    0.95270    0.42010    1.000
    C144     C        0.45460    0.88390    0.42240    1.000
    C145     C        0.24900    0.81500    0.07840    1.000
    C146     C        0.22660    0.84280    0.07930    1.000
    C147     C        0.45310    0.92190    0.41940    1.000
    C148     C        0.44920    0.94290    0.33530    1.000
    H149     H        0.45050    0.92620    0.28650    1.000
    H150     H        0.46870    0.96070    0.33090    1.000
    H151     H        0.42590    0.95540    0.33460    1.000
    C152     C        0.23760    0.94830    0.33530    1.000
    H153     H        0.25440    0.94930    0.28670    1.000
    H154     H        0.21990    0.96790    0.32990    1.000
    H155     H        0.22500    0.92510    0.33510    1.000
    C156     C        0.20930    0.85830    0.16340    1.000
    H157     H        0.19410    0.87900    0.14890    1.000
    H158     H        0.22840    0.86600    0.20300    1.000
    H159     H        0.19460    0.83970    0.19100    1.000
    Mn160    Mn       0.35212    0.85273    0.24824    1.000
    N161     N        0.31680    0.95530    0.34140    1.000
    N162     N        0.45720    0.86300    0.33930    1.000
    N163     N        0.26273    0.79890    0.16010    1.000
    O164     O        0.35770    0.96390    0.19970    1.000
    O165     O        0.36318    0.90290    0.18280    1.000
    O166     O        0.31900    0.89280    0.32460    1.000
    O167     O        0.46230    0.82890    0.18930    1.000
    O168     O        0.40002    0.82700    0.17570    1.000
    O169     O        0.39470    0.85980    0.33240    1.000
    O170     O        0.31152    0.83870    0.16390    1.000
    O171     O        0.33314    0.80680    0.31500    1.000
    O172     O        0.28504    0.76890    0.30890    1.000
    C181     C        0.93020    0.35210    0.77740    1.000
    C182     C        0.92630    0.32680    0.69840    1.000
    C183     C        0.85430    0.42570    0.69620    1.000
    C184     C        0.83680    0.43050    0.78650    1.000
    C185     C        0.79400    0.30490    0.72030    1.000
    C186     C        0.81240    0.29170    0.80770    1.000
    C187     C        0.95440    0.29730    0.57820    1.000
    C188     C        0.95270    0.25850    0.57990    1.000
    C189     C        0.88390    0.45460    0.57760    1.000
    C190     C        0.81500    0.24900    0.92160    1.000
    C191     C        0.84280    0.22660    0.92070    1.000
    C192     C        0.92190    0.45310    0.58060    1.000
    C193     C        0.94290    0.44920    0.66470    1.000
    H194     H        0.92620    0.45050    0.71350    1.000
    H195     H        0.96070    0.46870    0.66910    1.000
    H196     H        0.95540    0.42590    0.66540    1.000
    C197     C        0.94830    0.23760    0.66470    1.000
    H198     H        0.94930    0.25440    0.71330    1.000
    H199     H        0.96790    0.21990    0.67010    1.000
    H200     H        0.92510    0.22500    0.66490    1.000
    C201     C        0.85830    0.20930    0.83660    1.000
    H202     H        0.87900    0.19410    0.85110    1.000
    H203     H        0.86600    0.22840    0.79700    1.000
    H204     H        0.83970    0.19460    0.80900    1.000
    Mn205    Mn       0.85273    0.35212    0.75176    1.000
    N206     N        0.95530    0.31680    0.65860    1.000
    N207     N        0.86300    0.45720    0.66070    1.000
    N208     N        0.79890    0.26273    0.83990    1.000
    O209     O        0.96390    0.35770    0.80030    1.000
    O210     O        0.90290    0.36318    0.81720    1.000
    O211     O        0.89280    0.31900    0.67540    1.000
    O212     O        0.82890    0.46230    0.81070    1.000
    O213     O        0.82700    0.40002    0.82430    1.000
    O214     O        0.85980    0.39470    0.66760    1.000
    O215     O        0.83870    0.31152    0.83610    1.000
    O216     O        0.80680    0.33314    0.68500    1.000
    O217     O        0.76890    0.28504    0.69110    1.000
    C226     C        0.06980    0.64790    0.77740    1.000
    C227     C        0.07370    0.67320    0.69840    1.000
    C228     C        0.14570    0.57430    0.69620    1.000
    C229     C        0.16320    0.56950    0.78650    1.000
    C230     C        0.20600    0.69510    0.72030    1.000
    C231     C        0.18760    0.70830    0.80770    1.000
    C232     C        0.04560    0.70270    0.57820    1.000
    C233     C        0.04730    0.74150    0.57990    1.000
    C234     C        0.11610    0.54540    0.57760    1.000
    C235     C        0.18500    0.75100    0.92160    1.000
    C236     C        0.15720    0.77340    0.92070    1.000
    C237     C        0.07810    0.54690    0.58060    1.000
    C238     C        0.05710    0.55080    0.66470    1.000
    H239     H        0.07380    0.54950    0.71350    1.000
    H240     H        0.03930    0.53130    0.66910    1.000
    H241     H        0.04460    0.57410    0.66540    1.000
    C242     C        0.05170    0.76240    0.66470    1.000
    H243     H        0.05070    0.74560    0.71330    1.000
    H244     H        0.03210    0.78010    0.67010    1.000
    H245     H        0.07490    0.77500    0.66490    1.000
    C246     C        0.14170    0.79070    0.83660    1.000
    H247     H        0.12100    0.80590    0.85110    1.000
    H248     H        0.13400    0.77160    0.79700    1.000
    H249     H        0.16030    0.80540    0.80900    1.000
    Mn250    Mn       0.14727    0.64788    0.75176    1.000
    N251     N        0.04470    0.68320    0.65860    1.000
    N252     N        0.13700    0.54280    0.66070    1.000
    N253     N        0.20110    0.73727    0.83990    1.000
    O254     O        0.03610    0.64230    0.80030    1.000
    O255     O        0.09710    0.63682    0.81720    1.000
    O256     O        0.10720    0.68100    0.67540    1.000
    O257     O        0.17110    0.53770    0.81070    1.000
    O258     O        0.17300    0.59998    0.82430    1.000
    O259     O        0.14020    0.60530    0.66760    1.000
    O260     O        0.16130    0.68848    0.83610    1.000
    O261     O        0.19320    0.66686    0.68500    1.000
    O262     O        0.23110    0.71496    0.69110    1.000
    C271     C        0.35210    0.06980    0.77740    1.000
    C272     C        0.32680    0.07370    0.69840    1.000
    C273     C        0.42570    0.14570    0.69620    1.000
    C274     C        0.43050    0.16320    0.78650    1.000
    C275     C        0.30490    0.20600    0.72030    1.000
    C276     C        0.29170    0.18760    0.80770    1.000
    C277     C        0.29730    0.04560    0.57820    1.000
    C278     C        0.25850    0.04730    0.57990    1.000
    C279     C        0.45460    0.11610    0.57760    1.000
    C280     C        0.24900    0.18500    0.92160    1.000
    C281     C        0.22660    0.15720    0.92070    1.000
    C282     C        0.45310    0.07810    0.58060    1.000
    C283     C        0.44920    0.05710    0.66470    1.000
    H284     H        0.45050    0.07380    0.71350    1.000
    H285     H        0.46870    0.03930    0.66910    1.000
    H286     H        0.42590    0.04460    0.66540    1.000
    C287     C        0.23760    0.05170    0.66470    1.000
    H288     H        0.25440    0.05070    0.71330    1.000
    H289     H        0.21990    0.03210    0.67010    1.000
    H290     H        0.22500    0.07490    0.66490    1.000
    C291     C        0.20930    0.14170    0.83660    1.000
    H292     H        0.19410    0.12100    0.85110    1.000
    H293     H        0.22840    0.13400    0.79700    1.000
    H294     H        0.19460    0.16030    0.80900    1.000
    Mn295    Mn       0.35212    0.14727    0.75176    1.000
    N296     N        0.31680    0.04470    0.65860    1.000
    N297     N        0.45720    0.13700    0.66070    1.000
    N298     N        0.26273    0.20110    0.83990    1.000
    O299     O        0.35770    0.03610    0.80030    1.000
    O300     O        0.36318    0.09710    0.81720    1.000
    O301     O        0.31900    0.10720    0.67540    1.000
    O302     O        0.46230    0.17110    0.81070    1.000
    O303     O        0.40002    0.17300    0.82430    1.000
    O304     O        0.39470    0.14020    0.66760    1.000
    O305     O        0.31152    0.16130    0.83610    1.000
    O306     O        0.33314    0.19320    0.68500    1.000
    O307     O        0.28504    0.23110    0.69110    1.000
    C316     C        0.64790    0.93020    0.77740    1.000
    C317     C        0.67320    0.92630    0.69840    1.000
    C318     C        0.57430    0.85430    0.69620    1.000
    C319     C        0.56950    0.83680    0.78650    1.000
    C320     C        0.69510    0.79400    0.72030    1.000
    C321     C        0.70830    0.81240    0.80770    1.000
    C322     C        0.70270    0.95440    0.57820    1.000
    C323     C        0.74150    0.95270    0.57990    1.000
    C324     C        0.54540    0.88390    0.57760    1.000
    C325     C        0.75100    0.81500    0.92160    1.000
    C326     C        0.77340    0.84280    0.92070    1.000
    C327     C        0.54690    0.92190    0.58060    1.000
    C328     C        0.55080    0.94290    0.66470    1.000
    H329     H        0.54950    0.92620    0.71350    1.000
    H330     H        0.53130    0.96070    0.66910    1.000
    H331     H        0.57410    0.95540    0.66540    1.000
    C332     C        0.76240    0.94830    0.66470    1.000
    H333     H        0.74560    0.94930    0.71330    1.000
    H334     H        0.78010    0.96790    0.67010    1.000
    H335     H        0.77500    0.92510    0.66490    1.000
    C336     C        0.79070    0.85830    0.83660    1.000
    H337     H        0.80590    0.87900    0.85110    1.000
    H338     H        0.77160    0.86600    0.79700    1.000
    H339     H        0.80540    0.83970    0.80900    1.000
    Mn340    Mn       0.64788    0.85273    0.75176    1.000
    N341     N        0.68320    0.95530    0.65860    1.000
    N342     N        0.54280    0.86300    0.66070    1.000
    N343     N        0.73727    0.79890    0.83990    1.000
    O344     O        0.64230    0.96390    0.80030    1.000
    O345     O        0.63682    0.90290    0.81720    1.000
    O346     O        0.68100    0.89280    0.67540    1.000
    O347     O        0.53770    0.82890    0.81070    1.000
    O348     O        0.59998    0.82700    0.82430    1.000
    O349     O        0.60530    0.85980    0.66760    1.000
    O350     O        0.68848    0.83870    0.83610    1.000
    O351     O        0.66686    0.80680    0.68500    1.000
    O352     O        0.71496    0.76890    0.69110    1.000
    C361     C        0.93020    0.64790    0.77740    1.000
    C362     C        0.92630    0.67320    0.69840    1.000
    C363     C        0.85430    0.57430    0.69620    1.000
    C364     C        0.83680    0.56950    0.78650    1.000
    C365     C        0.79400    0.69510    0.72030    1.000
    C366     C        0.81240    0.70830    0.80770    1.000
    C367     C        0.95440    0.70270    0.57820    1.000
    C368     C        0.95270    0.74150    0.57990    1.000
    C369     C        0.88390    0.54540    0.57760    1.000
    C370     C        0.81500    0.75100    0.92160    1.000
    C371     C        0.84280    0.77340    0.92070    1.000
    C372     C        0.92190    0.54690    0.58060    1.000
    C373     C        0.94290    0.55080    0.66470    1.000
    H374     H        0.92620    0.54950    0.71350    1.000
    H375     H        0.96070    0.53130    0.66910    1.000
    H376     H        0.95540    0.57410    0.66540    1.000
    C377     C        0.94830    0.76240    0.66470    1.000
    H378     H        0.94930    0.74560    0.71330    1.000
    H379     H        0.96790    0.78010    0.67010    1.000
    H380     H        0.92510    0.77500    0.66490    1.000
    C381     C        0.85830    0.79070    0.83660    1.000
    H382     H        0.87900    0.80590    0.85110    1.000
    H383     H        0.86600    0.77160    0.79700    1.000
    H384     H        0.83970    0.80540    0.80900    1.000
    Mn385    Mn       0.85273    0.64788    0.75176    1.000
    N386     N        0.95530    0.68320    0.65860    1.000
    N387     N        0.86300    0.54280    0.66070    1.000
    N388     N        0.79890    0.73727    0.83990    1.000
    O389     O        0.96390    0.64230    0.80030    1.000
    O390     O        0.90290    0.63682    0.81720    1.000
    O391     O        0.89280    0.68100    0.67540    1.000
    O392     O        0.82890    0.53770    0.81070    1.000
    O393     O        0.82700    0.59998    0.82430    1.000
    O394     O        0.85980    0.60530    0.66760    1.000
    O395     O        0.83870    0.68848    0.83610    1.000
    O396     O        0.80680    0.66686    0.68500    1.000
    O397     O        0.76890    0.71496    0.69110    1.000
    C406     C        0.06980    0.35210    0.77740    1.000
    C407     C        0.07370    0.32680    0.69840    1.000
    C408     C        0.14570    0.42570    0.69620    1.000
    C409     C        0.16320    0.43050    0.78650    1.000
    C410     C        0.20600    0.30490    0.72030    1.000
    C411     C        0.18760    0.29170    0.80770    1.000
    C412     C        0.04560    0.29730    0.57820    1.000
    C413     C        0.04730    0.25850    0.57990    1.000
    C414     C        0.11610    0.45460    0.57760    1.000
    C415     C        0.18500    0.24900    0.92160    1.000
    C416     C        0.15720    0.22660    0.92070    1.000
    C417     C        0.07810    0.45310    0.58060    1.000
    C418     C        0.05710    0.44920    0.66470    1.000
    H419     H        0.07380    0.45050    0.71350    1.000
    H420     H        0.03930    0.46870    0.66910    1.000
    H421     H        0.04460    0.42590    0.66540    1.000
    C422     C        0.05170    0.23760    0.66470    1.000
    H423     H        0.05070    0.25440    0.71330    1.000
    H424     H        0.03210    0.21990    0.67010    1.000
    H425     H        0.07490    0.22500    0.66490    1.000
    C426     C        0.14170    0.20930    0.83660    1.000
    H427     H        0.12100    0.19410    0.85110    1.000
    H428     H        0.13400    0.22840    0.79700    1.000
    H429     H        0.16030    0.19460    0.80900    1.000
    Mn430    Mn       0.14727    0.35212    0.75176    1.000
    N431     N        0.04470    0.31680    0.65860    1.000
    N432     N        0.13700    0.45720    0.66070    1.000
    N433     N        0.20110    0.26273    0.83990    1.000
    O434     O        0.03610    0.35770    0.80030    1.000
    O435     O        0.09710    0.36318    0.81720    1.000
    O436     O        0.10720    0.31900    0.67540    1.000
    O437     O        0.17110    0.46230    0.81070    1.000
    O438     O        0.17300    0.40002    0.82430    1.000
    O439     O        0.14020    0.39470    0.66760    1.000
    O440     O        0.16130    0.31152    0.83610    1.000
    O441     O        0.19320    0.33314    0.68500    1.000
    O442     O        0.23110    0.28504    0.69110    1.000
    C451     C        0.35210    0.93020    0.77740    1.000
    C452     C        0.32680    0.92630    0.69840    1.000
    C453     C        0.42570    0.85430    0.69620    1.000
    C454     C        0.43050    0.83680    0.78650    1.000
    C455     C        0.30490    0.79400    0.72030    1.000
    C456     C        0.29170    0.81240    0.80770    1.000
    C457     C        0.29730    0.95440    0.57820    1.000
    C458     C        0.25850    0.95270    0.57990    1.000
    C459     C        0.45460    0.88390    0.57760    1.000
    C460     C        0.24900    0.81500    0.92160    1.000
    C461     C        0.22660    0.84280    0.92070    1.000
    C462     C        0.45310    0.92190    0.58060    1.000
    C463     C        0.44920    0.94290    0.66470    1.000
    H464     H        0.45050    0.92620    0.71350    1.000
    H465     H        0.46870    0.96070    0.66910    1.000
    H466     H        0.42590    0.95540    0.66540    1.000
    C467     C        0.23760    0.94830    0.66470    1.000
    H468     H        0.25440    0.94930    0.71330    1.000
    H469     H        0.21990    0.96790    0.67010    1.000
    H470     H        0.22500    0.92510    0.66490    1.000
    C471     C        0.20930    0.85830    0.83660    1.000
    H472     H        0.19410    0.87900    0.85110    1.000
    H473     H        0.22840    0.86600    0.79700    1.000
    H474     H        0.19460    0.83970    0.80900    1.000
    Mn475    Mn       0.35212    0.85273    0.75176    1.000
    N476     N        0.31680    0.95530    0.65860    1.000
    N477     N        0.45720    0.86300    0.66070    1.000
    N478     N        0.26273    0.79890    0.83990    1.000
    O479     O        0.35770    0.96390    0.80030    1.000
    O480     O        0.36318    0.90290    0.81720    1.000
    O481     O        0.31900    0.89280    0.67540    1.000
    O482     O        0.46230    0.82890    0.81070    1.000
    O483     O        0.40002    0.82700    0.82430    1.000
    O484     O        0.39470    0.85980    0.66760    1.000
    O485     O        0.31152    0.83870    0.83610    1.000
    O486     O        0.33314    0.80680    0.68500    1.000
    O487     O        0.28504    0.76890    0.69110    1.000
    C496     C        0.64790    0.06980    0.77740    1.000
    C497     C        0.67320    0.07370    0.69840    1.000
    C498     C        0.57430    0.14570    0.69620    1.000
    C499     C        0.56950    0.16320    0.78650    1.000
    C500     C        0.69510    0.20600    0.72030    1.000
    C501     C        0.70830    0.18760    0.80770    1.000
    C502     C        0.70270    0.04560    0.57820    1.000
    C503     C        0.74150    0.04730    0.57990    1.000
    C504     C        0.54540    0.11610    0.57760    1.000
    C505     C        0.75100    0.18500    0.92160    1.000
    C506     C        0.77340    0.15720    0.92070    1.000
    C507     C        0.54690    0.07810    0.58060    1.000
    C508     C        0.55080    0.05710    0.66470    1.000
    H509     H        0.54950    0.07380    0.71350    1.000
    H510     H        0.53130    0.03930    0.66910    1.000
    H511     H        0.57410    0.04460    0.66540    1.000
    C512     C        0.76240    0.05170    0.66470    1.000
    H513     H        0.74560    0.05070    0.71330    1.000
    H514     H        0.78010    0.03210    0.67010    1.000
    H515     H        0.77500    0.07490    0.66490    1.000
    C516     C        0.79070    0.14170    0.83660    1.000
    H517     H        0.80590    0.12100    0.85110    1.000
    H518     H        0.77160    0.13400    0.79700    1.000
    H519     H        0.80540    0.16030    0.80900    1.000
    Mn520    Mn       0.64788    0.14727    0.75176    1.000
    N521     N        0.68320    0.04470    0.65860    1.000
    N522     N        0.54280    0.13700    0.66070    1.000
    N523     N        0.73727    0.20110    0.83990    1.000
    O524     O        0.64230    0.03610    0.80030    1.000
    O525     O        0.63682    0.09710    0.81720    1.000
    O526     O        0.68100    0.10720    0.67540    1.000
    O527     O        0.53770    0.17110    0.81070    1.000
    O528     O        0.59998    0.17300    0.82430    1.000
    O529     O        0.60530    0.14020    0.66760    1.000
    O530     O        0.68848    0.16130    0.83610    1.000
    O531     O        0.66686    0.19320    0.68500    1.000
    O532     O        0.71496    0.23110    0.69110    1.000
    C541     C        0.06980    0.64790    0.22260    1.000
    C542     C        0.07370    0.67320    0.30160    1.000
    C543     C        0.14570    0.57430    0.30380    1.000
    C544     C        0.16320    0.56950    0.21350    1.000
    C545     C        0.20600    0.69510    0.27970    1.000
    C546     C        0.18760    0.70830    0.19230    1.000
    C547     C        0.04560    0.70270    0.42180    1.000
    C548     C        0.04730    0.74150    0.42010    1.000
    C549     C        0.11610    0.54540    0.42240    1.000
    C550     C        0.18500    0.75100    0.07840    1.000
    C551     C        0.15720    0.77340    0.07930    1.000
    C552     C        0.07810    0.54690    0.41940    1.000
    C553     C        0.05710    0.55080    0.33530    1.000
    H554     H        0.07380    0.54950    0.28650    1.000
    H555     H        0.03930    0.53130    0.33090    1.000
    H556     H        0.04460    0.57410    0.33460    1.000
    C557     C        0.05170    0.76240    0.33530    1.000
    H558     H        0.05070    0.74560    0.28670    1.000
    H559     H        0.03210    0.78010    0.32990    1.000
    H560     H        0.07490    0.77500    0.33510    1.000
    C561     C        0.14170    0.79070    0.16340    1.000
    H562     H        0.12100    0.80590    0.14890    1.000
    H563     H        0.13400    0.77160    0.20300    1.000
    H564     H        0.16030    0.80540    0.19100    1.000
    Mn565    Mn       0.14727    0.64788    0.24824    1.000
    N566     N        0.04470    0.68320    0.34140    1.000
    N567     N        0.13700    0.54280    0.33930    1.000
    N568     N        0.20110    0.73727    0.16010    1.000
    O569     O        0.03610    0.64230    0.19970    1.000
    O570     O        0.09710    0.63682    0.18280    1.000
    O571     O        0.10720    0.68100    0.32460    1.000
    O572     O        0.17110    0.53770    0.18930    1.000
    O573     O        0.17300    0.59998    0.17570    1.000
    O574     O        0.14020    0.60530    0.33240    1.000
    O575     O        0.16130    0.68848    0.16390    1.000
    O576     O        0.19320    0.66686    0.31500    1.000
    O577     O        0.23110    0.71496    0.30890    1.000
    C586     C        0.93020    0.35210    0.22260    1.000
    C587     C        0.92630    0.32680    0.30160    1.000
    C588     C        0.85430    0.42570    0.30380    1.000
    C589     C        0.83680    0.43050    0.21350    1.000
    C590     C        0.79400    0.30490    0.27970    1.000
    C591     C        0.81240    0.29170    0.19230    1.000
    C592     C        0.95440    0.29730    0.42180    1.000
    C593     C        0.95270    0.25850    0.42010    1.000
    C594     C        0.88390    0.45460    0.42240    1.000
    C595     C        0.81500    0.24900    0.07840    1.000
    C596     C        0.84280    0.22660    0.07930    1.000
    C597     C        0.92190    0.45310    0.41940    1.000
    C598     C        0.94290    0.44920    0.33530    1.000
    H599     H        0.92620    0.45050    0.28650    1.000
    H600     H        0.96070    0.46870    0.33090    1.000
    H601     H        0.95540    0.42590    0.33460    1.000
    C602     C        0.94830    0.23760    0.33530    1.000
    H603     H        0.94930    0.25440    0.28670    1.000
    H604     H        0.96790    0.21990    0.32990    1.000
    H605     H        0.92510    0.22500    0.33510    1.000
    C606     C        0.85830    0.20930    0.16340    1.000
    H607     H        0.87900    0.19410    0.14890    1.000
    H608     H        0.86600    0.22840    0.20300    1.000
    H609     H        0.83970    0.19460    0.19100    1.000
    Mn610    Mn       0.85273    0.35212    0.24824    1.000
    N611     N        0.95530    0.31680    0.34140    1.000
    N612     N        0.86300    0.45720    0.33930    1.000
    N613     N        0.79890    0.26273    0.16010    1.000
    O614     O        0.96390    0.35770    0.19970    1.000
    O615     O        0.90290    0.36318    0.18280    1.000
    O616     O        0.89280    0.31900    0.32460    1.000
    O617     O        0.82890    0.46230    0.18930    1.000
    O618     O        0.82700    0.40002    0.17570    1.000
    O619     O        0.85980    0.39470    0.33240    1.000
    O620     O        0.83870    0.31152    0.16390    1.000
    O621     O        0.80680    0.33314    0.31500    1.000
    O622     O        0.76890    0.28504    0.30890    1.000
    C631     C        0.64790    0.93020    0.22260    1.000
    C632     C        0.67320    0.92630    0.30160    1.000
    C633     C        0.57430    0.85430    0.30380    1.000
    C634     C        0.56950    0.83680    0.21350    1.000
    C635     C        0.69510    0.79400    0.27970    1.000
    C636     C        0.70830    0.81240    0.19230    1.000
    C637     C        0.70270    0.95440    0.42180    1.000
    C638     C        0.74150    0.95270    0.42010    1.000
    C639     C        0.54540    0.88390    0.42240    1.000
    C640     C        0.75100    0.81500    0.07840    1.000
    C641     C        0.77340    0.84280    0.07930    1.000
    C642     C        0.54690    0.92190    0.41940    1.000
    C643     C        0.55080    0.94290    0.33530    1.000
    H644     H        0.54950    0.92620    0.28650    1.000
    H645     H        0.53130    0.96070    0.33090    1.000
    H646     H        0.57410    0.95540    0.33460    1.000
    C647     C        0.76240    0.94830    0.33530    1.000
    H648     H        0.74560    0.94930    0.28670    1.000
    H649     H        0.78010    0.96790    0.32990    1.000
    H650     H        0.77500    0.92510    0.33510    1.000
    C651     C        0.79070    0.85830    0.16340    1.000
    H652     H        0.80590    0.87900    0.14890    1.000
    H653     H        0.77160    0.86600    0.20300    1.000
    H654     H        0.80540    0.83970    0.19100    1.000
    Mn655    Mn       0.64788    0.85273    0.24824    1.000
    N656     N        0.68320    0.95530    0.34140    1.000
    N657     N        0.54280    0.86300    0.33930    1.000
    N658     N        0.73727    0.79890    0.16010    1.000
    O659     O        0.64230    0.96390    0.19970    1.000
    O660     O        0.63682    0.90290    0.18280    1.000
    O661     O        0.68100    0.89280    0.32460    1.000
    O662     O        0.53770    0.82890    0.18930    1.000
    O663     O        0.59998    0.82700    0.17570    1.000
    O664     O        0.60530    0.85980    0.33240    1.000
    O665     O        0.68848    0.83870    0.16390    1.000
    O666     O        0.66686    0.80680    0.31500    1.000
    O667     O        0.71496    0.76890    0.30890    1.000
    C676     C        0.35210    0.06980    0.22260    1.000
    C677     C        0.32680    0.07370    0.30160    1.000
    C678     C        0.42570    0.14570    0.30380    1.000
    C679     C        0.43050    0.16320    0.21350    1.000
    C680     C        0.30490    0.20600    0.27970    1.000
    C681     C        0.29170    0.18760    0.19230    1.000
    C682     C        0.29730    0.04560    0.42180    1.000
    C683     C        0.25850    0.04730    0.42010    1.000
    C684     C        0.45460    0.11610    0.42240    1.000
    C685     C        0.24900    0.18500    0.07840    1.000
    C686     C        0.22660    0.15720    0.07930    1.000
    C687     C        0.45310    0.07810    0.41940    1.000
    C688     C        0.44920    0.05710    0.33530    1.000
    H689     H        0.45050    0.07380    0.28650    1.000
    H690     H        0.46870    0.03930    0.33090    1.000
    H691     H        0.42590    0.04460    0.33460    1.000
    C692     C        0.23760    0.05170    0.33530    1.000
    H693     H        0.25440    0.05070    0.28670    1.000
    H694     H        0.21990    0.03210    0.32990    1.000
    H695     H        0.22500    0.07490    0.33510    1.000
    C696     C        0.20930    0.14170    0.16340    1.000
    H697     H        0.19410    0.12100    0.14890    1.000
    H698     H        0.22840    0.13400    0.20300    1.000
    H699     H        0.19460    0.16030    0.19100    1.000
    Mn700    Mn       0.35212    0.14727    0.24824    1.000
    N701     N        0.31680    0.04470    0.34140    1.000
    N702     N        0.45720    0.13700    0.33930    1.000
    N703     N        0.26273    0.20110    0.16010    1.000
    O704     O        0.35770    0.03610    0.19970    1.000
    O705     O        0.36318    0.09710    0.18280    1.000
    O706     O        0.31900    0.10720    0.32460    1.000
    O707     O        0.46230    0.17110    0.18930    1.000
    O708     O        0.40002    0.17300    0.17570    1.000
    O709     O        0.39470    0.14020    0.33240    1.000
    O710     O        0.31152    0.16130    0.16390    1.000
    O711     O        0.33314    0.19320    0.31500    1.000
    O712     O        0.28504    0.23110    0.30890    1.000
    C721     C        0.04660    0.31680    0.50000    1.000
    C722     C        0.05000    0.23990    0.50000    1.000
    H723     H        0.05350    0.21450    0.50000    1.000
    C724     C        0.13730    0.45560    0.50000    1.000
    C725     C        0.17830    0.45420    0.50000    1.000
    C726     C        0.05990    0.45140    0.50000    1.000
    H727     H        0.03440    0.44910    0.50000    1.000
    C728     C        0.04650    0.35860    0.50000    1.000
    O730     O        0.25200    0.21350    0.50000    1.000
    C732     C        0.95340    0.68320    0.50000    1.000
    C733     C        0.95000    0.76010    0.50000    1.000
    H734     H        0.94650    0.78550    0.50000    1.000
    C735     C        0.86270    0.54440    0.50000    1.000
    C736     C        0.82170    0.54580    0.50000    1.000
    C737     C        0.94010    0.54860    0.50000    1.000
    H738     H        0.96560    0.55090    0.50000    1.000
    C739     C        0.95350    0.64140    0.50000    1.000
    O741     O        0.74800    0.78650    0.50000    1.000
    C743     C        0.68320    0.04660    0.50000    1.000
    C744     C        0.76010    0.05000    0.50000    1.000
    H745     H        0.78550    0.05350    0.50000    1.000
    C746     C        0.54440    0.13730    0.50000    1.000
    C747     C        0.54580    0.17830    0.50000    1.000
    C748     C        0.54860    0.05990    0.50000    1.000
    H749     H        0.55090    0.03440    0.50000    1.000
    C750     C        0.64140    0.04650    0.50000    1.000
    O752     O        0.78650    0.25200    0.50000    1.000
    C754     C        0.31680    0.95340    0.50000    1.000
    C755     C        0.23990    0.95000    0.50000    1.000
    H756     H        0.21450    0.94650    0.50000    1.000
    C757     C        0.45560    0.86270    0.50000    1.000
    C758     C        0.45420    0.82170    0.50000    1.000
    C759     C        0.45140    0.94010    0.50000    1.000
    H760     H        0.44910    0.96560    0.50000    1.000
    C761     C        0.35860    0.95350    0.50000    1.000
    O763     O        0.21350    0.74800    0.50000    1.000
    C765     C        0.95340    0.31680    0.50000    1.000
    C766     C        0.95000    0.23990    0.50000    1.000
    H767     H        0.94650    0.21450    0.50000    1.000
    C768     C        0.86270    0.45560    0.50000    1.000
    C769     C        0.82170    0.45420    0.50000    1.000
    C770     C        0.94010    0.45140    0.50000    1.000
    H771     H        0.96560    0.44910    0.50000    1.000
    C772     C        0.95350    0.35860    0.50000    1.000
    O774     O        0.74800    0.21350    0.50000    1.000
    C776     C        0.04660    0.68320    0.50000    1.000
    C777     C        0.05000    0.76010    0.50000    1.000
    H778     H        0.05350    0.78550    0.50000    1.000
    C779     C        0.13730    0.54440    0.50000    1.000
    C780     C        0.17830    0.54580    0.50000    1.000
    C781     C        0.05990    0.54860    0.50000    1.000
    H782     H        0.03440    0.55090    0.50000    1.000
    C783     C        0.04650    0.64140    0.50000    1.000
    O785     O        0.25200    0.78650    0.50000    1.000
    C787     C        0.31680    0.04660    0.50000    1.000
    C788     C        0.23990    0.05000    0.50000    1.000
    H789     H        0.21450    0.05350    0.50000    1.000
    C790     C        0.45560    0.13730    0.50000    1.000
    C791     C        0.45420    0.17830    0.50000    1.000
    C792     C        0.45140    0.05990    0.50000    1.000
    H793     H        0.44910    0.03440    0.50000    1.000
    C794     C        0.35860    0.04650    0.50000    1.000
    O796     O        0.21350    0.25200    0.50000    1.000
    C798     C        0.68320    0.95340    0.50000    1.000
    C799     C        0.76010    0.95000    0.50000    1.000
    H800     H        0.78550    0.94650    0.50000    1.000
    C801     C        0.54440    0.86270    0.50000    1.000
    C802     C        0.54580    0.82170    0.50000    1.000
    C803     C        0.54860    0.94010    0.50000    1.000
    H804     H        0.55090    0.96560    0.50000    1.000
    C805     C        0.64140    0.95350    0.50000    1.000
    O807     O        0.78650    0.74800    0.50000    1.000
    C809     C        0.19980    0.26320    0.00000    1.000
    C810     C        0.22840    0.29210    0.00000    1.000
    C811     C        0.14240    0.21170    0.00000    1.000
    H812     H        0.12430    0.19360    0.00000    1.000
    C817     C        0.80020    0.73680    0.00000    1.000
    C818     C        0.77160    0.70790    0.00000    1.000
    C819     C        0.85760    0.78830    0.00000    1.000
    H820     H        0.87570    0.80640    0.00000    1.000
    C825     C        0.73680    0.19980    0.00000    1.000
    C826     C        0.70790    0.22840    0.00000    1.000
    C827     C        0.78830    0.14240    0.00000    1.000
    H828     H        0.80640    0.12430    0.00000    1.000
    C833     C        0.26320    0.80020    0.00000    1.000
    C834     C        0.29210    0.77160    0.00000    1.000
    C835     C        0.21170    0.85760    0.00000    1.000
    H836     H        0.19360    0.87570    0.00000    1.000
    C841     C        0.80020    0.26320    0.00000    1.000
    C842     C        0.77160    0.29210    0.00000    1.000
    C843     C        0.85760    0.21170    0.00000    1.000
    H844     H        0.87570    0.19360    0.00000    1.000
    C849     C        0.19980    0.73680    0.00000    1.000
    C850     C        0.22840    0.70790    0.00000    1.000
    C851     C        0.14240    0.78830    0.00000    1.000
    H852     H        0.12430    0.80640    0.00000    1.000
    C857     C        0.26320    0.19980    0.00000    1.000
    C858     C        0.29210    0.22840    0.00000    1.000
    C859     C        0.21170    0.14240    0.00000    1.000
    H860     H        0.19360    0.12430    0.00000    1.000
    C865     C        0.73680    0.80020    0.00000    1.000
    C866     C        0.70790    0.77160    0.00000    1.000
    C867     C        0.78830    0.85760    0.00000    1.000
    H868     H        0.80640    0.87570    0.00000    1.000
    Cu873    Cu       0.00000    0.33259    0.27366    1.000
    Cu876    Cu       0.00000    0.66741    0.27366    1.000
    Cu879    Cu       0.66741    0.00000    0.27366    1.000
    Cu882    Cu       0.33259    0.00000    0.27366    1.000
    Cu885    Cu       0.00000    0.33259    0.72634    1.000
    Cu888    Cu       0.00000    0.66741    0.72634    1.000
    Cu891    Cu       0.33259    0.00000    0.72634    1.000
    Cu894    Cu       0.66741    0.00000    0.72634    1.000
    Cu897    Cu       0.15185    0.50000    0.26938    1.000
    Cu902    Cu       0.84815    0.50000    0.26938    1.000
    Cu907    Cu       0.50000    0.15185    0.26938    1.000
    Cu912    Cu       0.50000    0.84815    0.26938    1.000
    Cu917    Cu       0.84815    0.50000    0.73062    1.000
    Cu922    Cu       0.15185    0.50000    0.73062    1.000
    Cu927    Cu       0.50000    0.15185    0.73062    1.000
    Cu932    Cu       0.50000    0.84815    0.73062    1.000
    Cu937    Cu       0.24230    0.24230    0.23092    1.000
    Na940    Na       0.27250    0.27250    0.43010    1.000
    Cu941    Cu       0.75770    0.75770    0.23092    1.000
    Na944    Na       0.72750    0.72750    0.43010    1.000
    Cu945    Cu       0.75770    0.24230    0.23092    1.000
    Na948    Na       0.72750    0.27250    0.43010    1.000
    Cu949    Cu       0.24230    0.75770    0.23092    1.000
    Na952    Na       0.27250    0.72750    0.43010    1.000
    Cu953    Cu       0.75770    0.24230    0.76908    1.000
    Na956    Na       0.72750    0.27250    0.56990    1.000
    Cu957    Cu       0.24230    0.75770    0.76908    1.000
    Na960    Na       0.27250    0.72750    0.56990    1.000
    Cu961    Cu       0.24230    0.24230    0.76908    1.000
    Na964    Na       0.27250    0.27250    0.56990    1.000
    Cu965    Cu       0.75770    0.75770    0.76908    1.000
    Na968    Na       0.72750    0.72750    0.56990    1.000
