# CIF file generated by openbabel 3.1.0, see https://openbabel.org
data_I
_chemical_name_common 'image0'
_cell_length_a 9.0279
_cell_length_b 18.1362
_cell_length_c 8.5631
_cell_angle_alpha 90
_cell_angle_beta 102.735
_cell_angle_gamma 90
_space_group_name_H-M_alt 'P 1'
_space_group_name_Hall 'P 1'
loop_
    _symmetry_equiv_pos_as_xyz
    x,y,z
loop_
    _atom_site_label
    _atom_site_type_symbol
    _atom_site_fract_x
    _atom_site_fract_y
    _atom_site_fract_z
    _atom_site_occupancy
    Nd1      Nd       0.26854    0.11924    0.06426    1.000
    O1       O        0.48790    0.04090    0.18060    1.000
    O2       O        0.41640    0.18660    0.30270    1.000
    O3       O        0.14760    0.32550    0.30280    1.000
    O4       O        0.14330    0.23240    0.13460    1.000
    O5       O        0.42070    0.28140    0.47120    1.000
    O6       O        0.18990    0.98710    0.99590    1.000
    O7       O        0.00990    0.90400    0.99620    1.000
    O8       O        0.59690    0.93530    0.13570    1.000
    C1       C        0.20360    0.26900    0.25360    1.000
    C2       C        0.36210    0.24300    0.35120    1.000
    C3       C        0.52490    0.99300    0.09130    1.000
    C4       C        0.05740    0.96870    0.99730    1.000
    Nd2      Nd       0.73146    0.61924    0.43574    1.000
    O9       O        0.51210    0.54090    0.31940    1.000
    O10      O        0.58360    0.68660    0.19730    1.000
    O11      O        0.85240    0.82550    0.19720    1.000
    O12      O        0.85670    0.73240    0.36540    1.000
    O13      O        0.57930    0.78140    0.02880    1.000
    O14      O        0.81010    0.48710    0.50410    1.000
    O15      O        0.99010    0.40400    0.50380    1.000
    O16      O        0.40310    0.43530    0.36430    1.000
    C5       C        0.79640    0.76900    0.24640    1.000
    C6       C        0.63790    0.74300    0.14880    1.000
    C7       C        0.47510    0.49300    0.40870    1.000
    C8       C        0.94260    0.46870    0.50270    1.000
    Nd3      Nd       0.73146    0.88077    0.93574    1.000
    O17      O        0.51210    0.95910    0.81940    1.000
    O18      O        0.58360    0.81340    0.69730    1.000
    O19      O        0.85240    0.67450    0.69720    1.000
    O20      O        0.85670    0.76760    0.86540    1.000
    O21      O        0.57930    0.71860    0.52880    1.000
    O22      O        0.81010    0.01290    0.00410    1.000
    O23      O        0.99010    0.09600    0.00380    1.000
    O24      O        0.40310    0.06470    0.86430    1.000
    C9       C        0.79640    0.73100    0.74640    1.000
    C10      C        0.63790    0.75700    0.64880    1.000
    C11      C        0.47510    0.00700    0.90870    1.000
    C12      C        0.94260    0.03130    0.00270    1.000
    Nd4      Nd       0.26854    0.38077    0.56426    1.000
    O25      O        0.48790    0.45910    0.68060    1.000
    O26      O        0.41640    0.31340    0.80270    1.000
    O27      O        0.14760    0.17450    0.80280    1.000
    O28      O        0.14330    0.26760    0.63460    1.000
    O29      O        0.42070    0.21860    0.97120    1.000
    O30      O        0.18990    0.51290    0.49590    1.000
    O31      O        0.00990    0.59600    0.49620    1.000
    O32      O        0.59690    0.56470    0.63570    1.000
    C13      C        0.20360    0.23100    0.75360    1.000
    C14      C        0.36210    0.25700    0.85120    1.000
    C15      C        0.52490    0.50700    0.59130    1.000
    C16      C        0.05740    0.53130    0.49730    1.000
