# CIF file generated by openbabel 3.1.0, see https://openbabel.org
data_I
_chemical_name_common 'image0'
_cell_length_a 13.393
_cell_length_b 13.393
_cell_length_c 27.338
_cell_angle_alpha 90
_cell_angle_beta 90
_cell_angle_gamma 90
_space_group_name_H-M_alt 'P 1'
_space_group_name_Hall 'P 1'
loop_
    _symmetry_equiv_pos_as_xyz
    x,y,z
loop_
    _atom_site_label
    _atom_site_type_symbol
    _atom_site_fract_x
    _atom_site_fract_y
    _atom_site_fract_z
    _atom_site_occupancy
    Zn1      Zn       0.91117    0.02289    0.44664    1.000
    O1       O        0.86060    0.94560    0.36719    1.000
    O2       O        0.95330    0.07670    0.38332    1.000
    N1       N        0.76720    0.01610    0.46469    1.000
    N2       N        0.62400    0.03830    0.50405    1.000
    N3       N        0.60730    0.97530    0.46508    1.000
    N4       N        0.08990    0.19070    0.22360    1.000
    H1       H        0.10350    0.20240    0.19340    1.000
    H2       H        0.12160    0.22180    0.24630    1.000
    C1       C        0.72000    0.06070    0.50249    1.000
    H3       H        0.75160    0.10250    0.52490    1.000
    C2       C        0.69360    0.96420    0.44268    1.000
    H4       H        0.70280    0.92510    0.41490    1.000
    C3       C        0.91250    0.01660    0.35288    1.000
    C4       C        0.92970    0.03530    0.29994    1.000
    C5       C        0.99960    0.10560    0.28500    1.000
    H5       H        0.03450    0.14170    0.30850    1.000
    C6       C        0.01880    0.12340    0.23533    1.000
    Zn2      Zn       0.58883    0.47711    0.44664    1.000
    O3       O        0.63940    0.55440    0.36719    1.000
    O4       O        0.54670    0.42330    0.38332    1.000
    N5       N        0.73280    0.48390    0.46469    1.000
    N6       N        0.87600    0.46170    0.50405    1.000
    N7       N        0.89270    0.52470    0.46508    1.000
    N8       N        0.41010    0.30930    0.22360    1.000
    H6       H        0.39650    0.29760    0.19340    1.000
    H7       H        0.37840    0.27820    0.24630    1.000
    C7       C        0.78000    0.43930    0.50249    1.000
    H8       H        0.74840    0.39750    0.52490    1.000
    C8       C        0.80640    0.53580    0.44268    1.000
    H9       H        0.79720    0.57490    0.41490    1.000
    C9       C        0.58750    0.48340    0.35288    1.000
    C10      C        0.57030    0.46470    0.29994    1.000
    C11      C        0.50040    0.39440    0.28500    1.000
    H10      H        0.46550    0.35830    0.30850    1.000
    C12      C        0.48120    0.37660    0.23533    1.000
    Zn3      Zn       0.47711    0.91117    0.44664    1.000
    O5       O        0.55440    0.86060    0.36719    1.000
    O6       O        0.42330    0.95330    0.38332    1.000
    N9       N        0.48390    0.76720    0.46469    1.000
    N10      N        0.46170    0.62400    0.50405    1.000
    N11      N        0.52470    0.60730    0.46508    1.000
    N12      N        0.30930    0.08990    0.22360    1.000
    H11      H        0.29760    0.10350    0.19340    1.000
    H12      H        0.27820    0.12160    0.24630    1.000
    C13      C        0.43930    0.72000    0.50249    1.000
    H13      H        0.39750    0.75160    0.52490    1.000
    C14      C        0.53580    0.69360    0.44268    1.000
    H14      H        0.57490    0.70280    0.41490    1.000
    C15      C        0.48340    0.91250    0.35288    1.000
    C16      C        0.46470    0.92970    0.29994    1.000
    C17      C        0.39440    0.99960    0.28500    1.000
    H15      H        0.35830    0.03450    0.30850    1.000
    C18      C        0.37660    0.01880    0.23533    1.000
    Zn4      Zn       0.02289    0.58883    0.44664    1.000
    O7       O        0.94560    0.63940    0.36719    1.000
    O8       O        0.07670    0.54670    0.38332    1.000
    N13      N        0.01610    0.73280    0.46469    1.000
    N14      N        0.03830    0.87600    0.50405    1.000
    N15      N        0.97530    0.89270    0.46508    1.000
    N16      N        0.19070    0.41010    0.22360    1.000
    H16      H        0.20240    0.39650    0.19340    1.000
    H17      H        0.22180    0.37840    0.24630    1.000
    C19      C        0.06070    0.78000    0.50249    1.000
    H18      H        0.10250    0.74840    0.52490    1.000
    C20      C        0.96420    0.80640    0.44268    1.000
    H19      H        0.92510    0.79720    0.41490    1.000
    C21      C        0.01660    0.58750    0.35288    1.000
    C22      C        0.03530    0.57030    0.29994    1.000
    C23      C        0.10560    0.50040    0.28500    1.000
    H20      H        0.14170    0.46550    0.30850    1.000
    C24      C        0.12340    0.48120    0.23533    1.000
    Zn5      Zn       0.08883    0.52289    0.05336    1.000
    O9       O        0.13940    0.44560    0.13281    1.000
    O10      O        0.04670    0.57670    0.11668    1.000
    N17      N        0.23280    0.51610    0.03531    1.000
    N18      N        0.37600    0.53830    0.99595    1.000
    N19      N        0.39270    0.47530    0.03492    1.000
    N20      N        0.91010    0.69070    0.27640    1.000
    H21      H        0.89650    0.70240    0.30660    1.000
    H22      H        0.87840    0.72180    0.25370    1.000
    C25      C        0.28000    0.56070    0.99751    1.000
    H23      H        0.24840    0.60250    0.97510    1.000
    C26      C        0.30640    0.46420    0.05732    1.000
    H24      H        0.29720    0.42510    0.08510    1.000
    C27      C        0.08750    0.51660    0.14712    1.000
    C28      C        0.07030    0.53530    0.20006    1.000
    C29      C        0.00040    0.60560    0.21500    1.000
    H25      H        0.96550    0.64170    0.19150    1.000
    C30      C        0.98120    0.62340    0.26467    1.000
    Zn6      Zn       0.41117    0.97711    0.05336    1.000
    O11      O        0.36060    0.05440    0.13281    1.000
    O12      O        0.45330    0.92330    0.11668    1.000
    N21      N        0.26720    0.98390    0.03531    1.000
    N22      N        0.12400    0.96170    0.99595    1.000
    N23      N        0.10730    0.02470    0.03492    1.000
    N24      N        0.58990    0.80930    0.27640    1.000
    H26      H        0.60350    0.79760    0.30660    1.000
    H27      H        0.62160    0.77820    0.25370    1.000
    C31      C        0.22000    0.93930    0.99751    1.000
    H28      H        0.25160    0.89750    0.97510    1.000
    C32      C        0.19360    0.03580    0.05732    1.000
    H29      H        0.20280    0.07490    0.08510    1.000
    C33      C        0.41250    0.98340    0.14712    1.000
    C34      C        0.42970    0.96470    0.20006    1.000
    C35      C        0.49960    0.89440    0.21500    1.000
    H30      H        0.53450    0.85830    0.19150    1.000
    C36      C        0.51880    0.87660    0.26467    1.000
    Zn7      Zn       0.52289    0.41117    0.05336    1.000
    O13      O        0.44560    0.36060    0.13281    1.000
    O14      O        0.57670    0.45330    0.11668    1.000
    N25      N        0.51610    0.26720    0.03531    1.000
    N26      N        0.53830    0.12400    0.99595    1.000
    N27      N        0.47530    0.10730    0.03492    1.000
    N28      N        0.69070    0.58990    0.27640    1.000
    H31      H        0.70240    0.60350    0.30660    1.000
    H32      H        0.72180    0.62160    0.25370    1.000
    C37      C        0.56070    0.22000    0.99751    1.000
    H33      H        0.60250    0.25160    0.97510    1.000
    C38      C        0.46420    0.19360    0.05732    1.000
    H34      H        0.42510    0.20280    0.08510    1.000
    C39      C        0.51660    0.41250    0.14712    1.000
    C40      C        0.53530    0.42970    0.20006    1.000
    C41      C        0.60560    0.49960    0.21500    1.000
    H35      H        0.64170    0.53450    0.19150    1.000
    C42      C        0.62340    0.51880    0.26467    1.000
    Zn8      Zn       0.97711    0.08883    0.05336    1.000
    O15      O        0.05440    0.13940    0.13281    1.000
    O16      O        0.92330    0.04670    0.11668    1.000
    N29      N        0.98390    0.23280    0.03531    1.000
    N30      N        0.96170    0.37600    0.99595    1.000
    N31      N        0.02470    0.39270    0.03492    1.000
    N32      N        0.80930    0.91010    0.27640    1.000
    H36      H        0.79760    0.89650    0.30660    1.000
    H37      H        0.77820    0.87840    0.25370    1.000
    C43      C        0.93930    0.28000    0.99751    1.000
    H38      H        0.89750    0.24840    0.97510    1.000
    C44      C        0.03580    0.30640    0.05732    1.000
    H39      H        0.07490    0.29720    0.08510    1.000
    C45      C        0.98340    0.08750    0.14712    1.000
    C46      C        0.96470    0.07030    0.20006    1.000
    C47      C        0.89440    0.00040    0.21500    1.000
    H40      H        0.85830    0.96550    0.19150    1.000
    C48      C        0.87660    0.98120    0.26467    1.000
    Zn9      Zn       0.08883    0.97711    0.55336    1.000
    O17      O        0.13940    0.05440    0.63281    1.000
    O18      O        0.04670    0.92330    0.61668    1.000
    N33      N        0.23280    0.98390    0.53531    1.000
    N34      N        0.37600    0.96170    0.49595    1.000
    N35      N        0.39270    0.02470    0.53492    1.000
    N36      N        0.91010    0.80930    0.77640    1.000
    H41      H        0.89650    0.79760    0.80660    1.000
    H42      H        0.87840    0.77820    0.75370    1.000
    C49      C        0.28000    0.93930    0.49751    1.000
    H43      H        0.24840    0.89750    0.47510    1.000
    C50      C        0.30640    0.03580    0.55732    1.000
    H44      H        0.29720    0.07490    0.58510    1.000
    C51      C        0.08750    0.98340    0.64712    1.000
    C52      C        0.07030    0.96470    0.70006    1.000
    C53      C        0.00040    0.89440    0.71500    1.000
    H45      H        0.96550    0.85830    0.69150    1.000
    C54      C        0.98120    0.87660    0.76467    1.000
    Zn10     Zn       0.41117    0.52289    0.55336    1.000
    O19      O        0.36060    0.44560    0.63281    1.000
    O20      O        0.45330    0.57670    0.61668    1.000
    N37      N        0.26720    0.51610    0.53531    1.000
    N38      N        0.12400    0.53830    0.49595    1.000
    N39      N        0.10730    0.47530    0.53492    1.000
    N40      N        0.58990    0.69070    0.77640    1.000
    H46      H        0.60350    0.70240    0.80660    1.000
    H47      H        0.62160    0.72180    0.75370    1.000
    C55      C        0.22000    0.56070    0.49751    1.000
    H48      H        0.25160    0.60250    0.47510    1.000
    C56      C        0.19360    0.46420    0.55732    1.000
    H49      H        0.20280    0.42510    0.58510    1.000
    C57      C        0.41250    0.51660    0.64712    1.000
    C58      C        0.42970    0.53530    0.70006    1.000
    C59      C        0.49960    0.60560    0.71500    1.000
    H50      H        0.53450    0.64170    0.69150    1.000
    C60      C        0.51880    0.62340    0.76467    1.000
    Zn11     Zn       0.52289    0.08883    0.55336    1.000
    O21      O        0.44560    0.13940    0.63281    1.000
    O22      O        0.57670    0.04670    0.61668    1.000
    N41      N        0.51610    0.23280    0.53531    1.000
    N42      N        0.53830    0.37600    0.49595    1.000
    N43      N        0.47530    0.39270    0.53492    1.000
    N44      N        0.69070    0.91010    0.77640    1.000
    H51      H        0.70240    0.89650    0.80660    1.000
    H52      H        0.72180    0.87840    0.75370    1.000
    C61      C        0.56070    0.28000    0.49751    1.000
    H53      H        0.60250    0.24840    0.47510    1.000
    C62      C        0.46420    0.30640    0.55732    1.000
    H54      H        0.42510    0.29720    0.58510    1.000
    C63      C        0.51660    0.08750    0.64712    1.000
    C64      C        0.53530    0.07030    0.70006    1.000
    C65      C        0.60560    0.00040    0.71500    1.000
    H55      H        0.64170    0.96550    0.69150    1.000
    C66      C        0.62340    0.98120    0.76467    1.000
    Zn12     Zn       0.97711    0.41117    0.55336    1.000
    O23      O        0.05440    0.36060    0.63281    1.000
    O24      O        0.92330    0.45330    0.61668    1.000
    N45      N        0.98390    0.26720    0.53531    1.000
    N46      N        0.96170    0.12400    0.49595    1.000
    N47      N        0.02470    0.10730    0.53492    1.000
    N48      N        0.80930    0.58990    0.77640    1.000
    H56      H        0.79760    0.60350    0.80660    1.000
    H57      H        0.77820    0.62160    0.75370    1.000
    C67      C        0.93930    0.22000    0.49751    1.000
    H58      H        0.89750    0.25160    0.47510    1.000
    C68      C        0.03580    0.19360    0.55732    1.000
    H59      H        0.07490    0.20280    0.58510    1.000
    C69      C        0.98340    0.41250    0.64712    1.000
    C70      C        0.96470    0.42970    0.70006    1.000
    C71      C        0.89440    0.49960    0.71500    1.000
    H60      H        0.85830    0.53450    0.69150    1.000
    C72      C        0.87660    0.51880    0.76467    1.000
    Zn13     Zn       0.91117    0.47711    0.94664    1.000
    O25      O        0.86060    0.55440    0.86719    1.000
    O26      O        0.95330    0.42330    0.88332    1.000
    N49      N        0.76720    0.48390    0.96469    1.000
    N50      N        0.62400    0.46170    0.00405    1.000
    N51      N        0.60730    0.52470    0.96508    1.000
    N52      N        0.08990    0.30930    0.72360    1.000
    H61      H        0.10350    0.29760    0.69340    1.000
    H62      H        0.12160    0.27820    0.74630    1.000
    C73      C        0.72000    0.43930    0.00249    1.000
    H63      H        0.75160    0.39750    0.02490    1.000
    C74      C        0.69360    0.53580    0.94268    1.000
    H64      H        0.70280    0.57490    0.91490    1.000
    C75      C        0.91250    0.48340    0.85288    1.000
    C76      C        0.92970    0.46470    0.79994    1.000
    C77      C        0.99960    0.39440    0.78500    1.000
    H65      H        0.03450    0.35830    0.80850    1.000
    C78      C        0.01880    0.37660    0.73533    1.000
    Zn14     Zn       0.58883    0.02289    0.94664    1.000
    O27      O        0.63940    0.94560    0.86719    1.000
    O28      O        0.54670    0.07670    0.88332    1.000
    N53      N        0.73280    0.01610    0.96469    1.000
    N54      N        0.87600    0.03830    0.00405    1.000
    N55      N        0.89270    0.97530    0.96508    1.000
    N56      N        0.41010    0.19070    0.72360    1.000
    H66      H        0.39650    0.20240    0.69340    1.000
    H67      H        0.37840    0.22180    0.74630    1.000
    C79      C        0.78000    0.06070    0.00249    1.000
    H68      H        0.74840    0.10250    0.02490    1.000
    C80      C        0.80640    0.96420    0.94268    1.000
    H69      H        0.79720    0.92510    0.91490    1.000
    C81      C        0.58750    0.01660    0.85288    1.000
    C82      C        0.57030    0.03530    0.79994    1.000
    C83      C        0.50040    0.10560    0.78500    1.000
    H70      H        0.46550    0.14170    0.80850    1.000
    C84      C        0.48120    0.12340    0.73533    1.000
    Zn15     Zn       0.47711    0.58883    0.94664    1.000
    O29      O        0.55440    0.63940    0.86719    1.000
    O30      O        0.42330    0.54670    0.88332    1.000
    N57      N        0.48390    0.73280    0.96469    1.000
    N58      N        0.46170    0.87600    0.00405    1.000
    N59      N        0.52470    0.89270    0.96508    1.000
    N60      N        0.30930    0.41010    0.72360    1.000
    H71      H        0.29760    0.39650    0.69340    1.000
    H72      H        0.27820    0.37840    0.74630    1.000
    C85      C        0.43930    0.78000    0.00249    1.000
    H73      H        0.39750    0.74840    0.02490    1.000
    C86      C        0.53580    0.80640    0.94268    1.000
    H74      H        0.57490    0.79720    0.91490    1.000
    C87      C        0.48340    0.58750    0.85288    1.000
    C88      C        0.46470    0.57030    0.79994    1.000
    C89      C        0.39440    0.50040    0.78500    1.000
    H75      H        0.35830    0.46550    0.80850    1.000
    C90      C        0.37660    0.48120    0.73533    1.000
    Zn16     Zn       0.02289    0.91117    0.94664    1.000
    O31      O        0.94560    0.86060    0.86719    1.000
    O32      O        0.07670    0.95330    0.88332    1.000
    N61      N        0.01610    0.76720    0.96469    1.000
    N62      N        0.03830    0.62400    0.00405    1.000
    N63      N        0.97530    0.60730    0.96508    1.000
    N64      N        0.19070    0.08990    0.72360    1.000
    H76      H        0.20240    0.10350    0.69340    1.000
    H77      H        0.22180    0.12160    0.74630    1.000
    C91      C        0.06070    0.72000    0.00249    1.000
    H78      H        0.10250    0.75160    0.02490    1.000
    C92      C        0.96420    0.69360    0.94268    1.000
    H79      H        0.92510    0.70280    0.91490    1.000
    C93      C        0.01660    0.91250    0.85288    1.000
    C94      C        0.03530    0.92970    0.79994    1.000
    C95      C        0.10560    0.99960    0.78500    1.000
    H80      H        0.14170    0.03450    0.80850    1.000
    C96      C        0.12340    0.01880    0.73533    1.000
