# CIF file generated by openbabel 3.1.0, see https://openbabel.org
data_I
_chemical_name_common 'LAXGOH01_clean'
_cell_length_a 8.4856
_cell_length_b 9.5225
_cell_length_c 13.1281
_cell_angle_alpha 90
_cell_angle_beta 90
_cell_angle_gamma 94.62
_space_group_name_H-M_alt 'P 1'
_space_group_name_Hall 'P 1'
loop_
    _symmetry_equiv_pos_as_xyz
    x,y,z
loop_
    _atom_site_label
    _atom_site_type_symbol
    _atom_site_fract_x
    _atom_site_fract_y
    _atom_site_fract_z
    _atom_site_occupancy
    Gd1      Gd       0.96081    0.00811    0.76878    1.000
    Gd2      Gd       0.53919    0.49189    0.26878    1.000
    Gd3      Gd       0.03919    0.99189    0.23122    1.000
    Gd4      Gd       0.46081    0.50811    0.73122    1.000
    C1       C        0.47500    0.12510    0.54930    1.000
    C2       C        0.38180    0.00320    0.57470    1.000
    C3       C        0.59100    0.12430    0.47400    1.000
    C4       C        0.46100    0.25680    0.61060    1.000
    C5       C        0.24630    0.00990    0.64770    1.000
    C6       C        0.70060    0.25730    0.44760    1.000
    C7       C        0.02500    0.37490    0.04930    1.000
    C8       C        0.11820    0.49680    0.07470    1.000
    C9       C        0.90900    0.37570    0.97400    1.000
    C10      C        0.03900    0.24320    0.11060    1.000
    C11      C        0.25370    0.49010    0.14770    1.000
    C12      C        0.79940    0.24270    0.94760    1.000
    C13      C        0.52500    0.87490    0.45070    1.000
    C14      C        0.61820    0.99680    0.42530    1.000
    C15      C        0.40900    0.87570    0.52600    1.000
    C16      C        0.53900    0.74320    0.38940    1.000
    C17      C        0.75370    0.99010    0.35230    1.000
    C18      C        0.29940    0.74270    0.55240    1.000
    C19      C        0.97500    0.62510    0.95070    1.000
    C20      C        0.88180    0.50320    0.92530    1.000
    C21      C        0.09100    0.62430    0.02600    1.000
    C22      C        0.96100    0.75680    0.88940    1.000
    C23      C        0.74630    0.50990    0.85230    1.000
    C24      C        0.20060    0.75730    0.05240    1.000
    O1       O        0.15840    0.11140    0.63890    1.000
    O2       O        0.21780    0.91670    0.71210    1.000
    O3       O        0.45170    0.37370    0.56770    1.000
    O4       O        0.83390    0.26770    0.48900    1.000
    O5       O        0.65040    0.34210    0.38600    1.000
    O6       O        0.46290    0.24840    0.70650    1.000
    O7       O        0.34160    0.38860    0.13890    1.000
    O8       O        0.28220    0.58330    0.21210    1.000
    O9       O        0.04830    0.12630    0.06770    1.000
    O10      O        0.66610    0.23230    0.98900    1.000
    O11      O        0.84960    0.15790    0.88600    1.000
    O12      O        0.03710    0.25160    0.20650    1.000
    O13      O        0.84160    0.88860    0.36110    1.000
    O14      O        0.78220    0.08330    0.28790    1.000
    O15      O        0.54830    0.62630    0.43230    1.000
    O16      O        0.16610    0.73230    0.51100    1.000
    O17      O        0.34960    0.65790    0.61400    1.000
    O18      O        0.53710    0.75160    0.29350    1.000
    O19      O        0.65840    0.61140    0.86110    1.000
    O20      O        0.71780    0.41670    0.78790    1.000
    O21      O        0.95170    0.87370    0.93230    1.000
    O22      O        0.33390    0.76770    0.01100    1.000
    O23      O        0.15040    0.84210    0.11400    1.000
    O24      O        0.96290    0.74840    0.79350    1.000
