# CIF file generated by openbabel 3.1.0, see https://openbabel.org
data_I
_chemical_name_common 'image0'
_cell_length_a 8.5085
_cell_length_b 16.0156
_cell_length_c 27.9393
_cell_angle_alpha 90
_cell_angle_beta 90
_cell_angle_gamma 90
_space_group_name_H-M_alt 'P 1'
_space_group_name_Hall 'P 1'
loop_
    _symmetry_equiv_pos_as_xyz
    x,y,z
loop_
    _atom_site_label
    _atom_site_type_symbol
    _atom_site_fract_x
    _atom_site_fract_y
    _atom_site_fract_z
    _atom_site_occupancy
    Tb1      Tb       0.77034    0.80614    0.33229    1.000
    Tb2      Tb       0.73059    0.20398    0.16917    1.000
    O1       O        0.52080    0.71220    0.37140    1.000
    O2       O        0.94160    0.11880    0.18390    1.000
    O3       O        0.14650    0.76280    0.26480    1.000
    O4       O        0.51520    0.70670    0.62710    1.000
    O5       O        0.17490    0.16380    0.16010    1.000
    O6       O        0.68420    0.78870    0.58970    1.000
    O7       O        0.32140    0.84410    0.33680    1.000
    O8       O        0.68550    0.79290    0.41150    1.000
    O9       O        0.94010    0.84710    0.27170    1.000
    O10      O        0.56050    0.16680    0.22920    1.000
    O11      O        0.55720    0.89470    0.31580    1.000
    O12      O        0.34530    0.24710    0.23460    1.000
    N1       N        0.12870    0.07990    0.32480    1.000
    N2       N        0.41480    0.58280    0.49710    1.000
    N3       N        0.37130    0.92810    0.17460    1.000
    C1       C        0.57960    0.73670    0.40930    1.000
    C2       C        0.08800    0.11030    0.17610    1.000
    C3       C        0.43100    0.18170    0.24420    1.000
    C4       C        0.35010    0.98670    0.31450    1.000
    C5       C        0.15900    0.02520    0.18470    1.000
    C6       C        0.45480    0.62350    0.45700    1.000
    H1       H        0.42750    0.59910    0.42710    1.000
    C7       C        0.14700    0.88900    0.22170    1.000
    C8       C        0.29300    0.87260    0.20000    1.000
    H2       H        0.33780    0.81870    0.20390    1.000
    C9       C        0.35100    0.11810    0.27670    1.000
    C10      C        0.08190    0.96630    0.21310    1.000
    H3       H        0.98280    0.97980    0.22670    1.000
    C11      C        0.53190    0.69740    0.45660    1.000
    C12      C        0.42630    0.04680    0.28650    1.000
    H4       H        0.52940    0.03710    0.27470    1.000
    C13      C        0.54330    0.69490    0.54210    1.000
    C14      C        0.19740    0.00780    0.33270    1.000
    H5       H        0.14320    0.96750    0.35140    1.000
    C15      C        0.30390    0.00340    0.16670    1.000
    H6       H        0.35920    0.04320    0.14790    1.000
    C16      C        0.58210    0.73390    0.49830    1.000
    H7       H        0.64160    0.78410    0.49780    1.000
    C17      C        0.58200    0.73360    0.58820    1.000
    C18      C        0.41600    0.90360    0.32480    1.000
    C19      C        0.45530    0.61840    0.53910    1.000
    H8       H        0.42440    0.59180    0.56790    1.000
    C20      C        0.20140    0.13350    0.29600    1.000
    H9       H        0.14990    0.18430    0.28810    1.000
    C21      C        0.07810    0.82650    0.25500    1.000
    Tb3      Tb       0.72966    0.19386    0.83229    1.000
    Tb4      Tb       0.76941    0.79602    0.66917    1.000
    O13      O        0.97920    0.28780    0.87140    1.000
    O14      O        0.55840    0.88120    0.68390    1.000
    O15      O        0.35350    0.23720    0.76480    1.000
    O16      O        0.98480    0.29330    0.12710    1.000
    O17      O        0.32510    0.83620    0.66010    1.000
    O18      O        0.81580    0.21130    0.08970    1.000
    O19      O        0.17860    0.15590    0.83680    1.000
    O20      O        0.81450    0.20710    0.91150    1.000
    O21      O        0.55990    0.15290    0.77170    1.000
    O22      O        0.93950    0.83320    0.72920    1.000
    O23      O        0.94280    0.10530    0.81580    1.000
    O24      O        0.15470    0.75290    0.73460    1.000
    N4       N        0.37130    0.92010    0.82480    1.000
    N5       N        0.08520    0.41720    0.99710    1.000
    N6       N        0.12870    0.07190    0.67460    1.000
    C22      C        0.92040    0.26330    0.90930    1.000
    C23      C        0.41200    0.88970    0.67610    1.000
    C24      C        0.06900    0.81830    0.74420    1.000
    C25      C        0.14990    0.01330    0.81450    1.000
    C26      C        0.34100    0.97480    0.68470    1.000
    C27      C        0.04520    0.37650    0.95700    1.000
    H10      H        0.07250    0.40090    0.92710    1.000
    C28      C        0.35300    0.11100    0.72170    1.000
    C29      C        0.20700    0.12740    0.70000    1.000
    H11      H        0.16220    0.18130    0.70390    1.000
    C30      C        0.14900    0.88190    0.77670    1.000
    C31      C        0.41810    0.03370    0.71310    1.000
    H12      H        0.51720    0.02020    0.72670    1.000
    C32      C        0.96810    0.30260    0.95660    1.000
    C33      C        0.07370    0.95320    0.78650    1.000
    H13      H        0.97060    0.96290    0.77470    1.000
    C34      C        0.95670    0.30510    0.04210    1.000
    C35      C        0.30260    0.99220    0.83270    1.000
    H14      H        0.35680    0.03250    0.85140    1.000
    C36      C        0.19610    0.99660    0.66670    1.000
    H15      H        0.14080    0.95680    0.64790    1.000
    C37      C        0.91790    0.26610    0.99830    1.000
    H16      H        0.85840    0.21590    0.99780    1.000
    C38      C        0.91800    0.26640    0.08820    1.000
    C39      C        0.08400    0.09640    0.82480    1.000
    C40      C        0.04470    0.38160    0.03910    1.000
    H17      H        0.07560    0.40820    0.06790    1.000
    C41      C        0.29860    0.86650    0.79600    1.000
    H18      H        0.35010    0.81570    0.78810    1.000
    C42      C        0.42190    0.17350    0.75500    1.000
    Tb5      Tb       0.22966    0.30614    0.16771    1.000
    Tb6      Tb       0.26941    0.70398    0.33083    1.000
    O25      O        0.47920    0.21220    0.12860    1.000
    O26      O        0.05840    0.61880    0.31610    1.000
    O27      O        0.85350    0.26280    0.23520    1.000
    O28      O        0.48480    0.20670    0.87290    1.000
    O29      O        0.82510    0.66380    0.33990    1.000
    O30      O        0.31580    0.28870    0.91030    1.000
    O31      O        0.67860    0.34410    0.16320    1.000
    O32      O        0.31450    0.29290    0.08850    1.000
    O33      O        0.05990    0.34710    0.22830    1.000
    O34      O        0.43950    0.66680    0.27080    1.000
    O35      O        0.44280    0.39470    0.18420    1.000
    O36      O        0.65470    0.74710    0.26540    1.000
    N7       N        0.87130    0.57990    0.17520    1.000
    N8       N        0.58520    0.08280    0.00290    1.000
    N9       N        0.62870    0.42810    0.32540    1.000
    C43      C        0.42040    0.23670    0.09070    1.000
    C44      C        0.91200    0.61030    0.32390    1.000
    C45      C        0.56900    0.68170    0.25580    1.000
    C46      C        0.64990    0.48670    0.18550    1.000
    C47      C        0.84100    0.52520    0.31530    1.000
    C48      C        0.54520    0.12350    0.04300    1.000
    H19      H        0.57250    0.09910    0.07290    1.000
    C49      C        0.85300    0.38900    0.27830    1.000
    C50      C        0.70700    0.37260    0.30000    1.000
    H20      H        0.66220    0.31870    0.29610    1.000
    C51      C        0.64900    0.61810    0.22330    1.000
    C52      C        0.91810    0.46630    0.28690    1.000
    H21      H        0.01720    0.47980    0.27330    1.000
    C53      C        0.46810    0.19740    0.04340    1.000
    C54      C        0.57370    0.54680    0.21350    1.000
    H22      H        0.47060    0.53710    0.22530    1.000
    C55      C        0.45670    0.19490    0.95790    1.000
    C56      C        0.80260    0.50780    0.16730    1.000
    H23      H        0.85680    0.46750    0.14860    1.000
    C57      C        0.69610    0.50340    0.33330    1.000
    H24      H        0.64080    0.54320    0.35210    1.000
    C58      C        0.41790    0.23390    0.00170    1.000
    H25      H        0.35840    0.28410    0.00220    1.000
    C59      C        0.41800    0.23360    0.91180    1.000
    C60      C        0.58400    0.40360    0.17520    1.000
    C61      C        0.54470    0.11840    0.96090    1.000
    H26      H        0.57560    0.09180    0.93210    1.000
    C62      C        0.79860    0.63350    0.20400    1.000
    H27      H        0.85010    0.68430    0.21190    1.000
    C63      C        0.92190    0.32650    0.24500    1.000
    Tb7      Tb       0.27034    0.69386    0.66771    1.000
    Tb8      Tb       0.23059    0.29602    0.83083    1.000
    O37      O        0.02080    0.78780    0.62860    1.000
    O38      O        0.44160    0.38120    0.81610    1.000
    O39      O        0.64650    0.73720    0.73520    1.000
    O40      O        0.01520    0.79330    0.37290    1.000
    O41      O        0.67490    0.33620    0.83990    1.000
    O42      O        0.18420    0.71130    0.41030    1.000
    O43      O        0.82140    0.65590    0.66320    1.000
    O44      O        0.18550    0.70710    0.58850    1.000
    O45      O        0.44010    0.65290    0.72830    1.000
    O46      O        0.06050    0.33320    0.77080    1.000
    O47      O        0.05720    0.60530    0.68420    1.000
    O48      O        0.84530    0.25290    0.76540    1.000
    N10      N        0.62870    0.42010    0.67520    1.000
    N11      N        0.91480    0.91720    0.50290    1.000
    N12      N        0.87130    0.57190    0.82540    1.000
    C64      C        0.07960    0.76330    0.59070    1.000
    C65      C        0.58800    0.38970    0.82390    1.000
    C66      C        0.93100    0.31830    0.75580    1.000
    C67      C        0.85010    0.51330    0.68550    1.000
    C68      C        0.65900    0.47480    0.81530    1.000
    C69      C        0.95480    0.87650    0.54300    1.000
    H28      H        0.92750    0.90090    0.57290    1.000
    C70      C        0.64700    0.61100    0.77830    1.000
    C71      C        0.79300    0.62740    0.80000    1.000
    H29      H        0.83780    0.68130    0.79610    1.000
    C72      C        0.85100    0.38190    0.72330    1.000
    C73      C        0.58190    0.53370    0.78690    1.000
    H30      H        0.48280    0.52020    0.77330    1.000
    C74      C        0.03190    0.80260    0.54340    1.000
    C75      C        0.92630    0.45320    0.71350    1.000
    H31      H        0.02940    0.46290    0.72530    1.000
    C76      C        0.04330    0.80510    0.45790    1.000
    C77      C        0.69740    0.49220    0.66730    1.000
    H32      H        0.64320    0.53250    0.64860    1.000
    C78      C        0.80390    0.49660    0.83330    1.000
    H33      H        0.85920    0.45680    0.85210    1.000
    C79      C        0.08210    0.76610    0.50170    1.000
    H34      H        0.14160    0.71590    0.50220    1.000
    C80      C        0.08200    0.76640    0.41180    1.000
    C81      C        0.91600    0.59640    0.67520    1.000
    C82      C        0.95530    0.88160    0.46090    1.000
    H35      H        0.92440    0.90820    0.43210    1.000
    C83      C        0.70140    0.36650    0.70400    1.000
    H36      H        0.64990    0.31570    0.71190    1.000
    C84      C        0.57810    0.67350    0.74500    1.000
