data_functionalizedCrystal
_audit_creation_method	'EQeq! by Chris Wilmer'
_symmetry_space_group_name_H-M	'P1'
_symmetry_Int_Tables_number	1
_symmetry_cell_setting	triclinic
loop_
_symmetry_equiv_pos_as_xyz
  x,y,z
_cell_length_a	15.483
_cell_length_b	23.434
_cell_length_c	32.448
_cell_angle_alpha	90
_cell_angle_beta	90
_cell_angle_gamma	90
loop_
_atom_site_label
_atom_site_type_symbol
_atom_site_fract_x
_atom_site_fract_y
_atom_site_fract_z
_atom_site_charge
Mof_Ni	Ni	0.61182	0.00996	0.89886	1.161
Mof_O 	O 	0.5815	0.9351	0.92895	-0.417
Mof_N 	N 	0.7257	0.0144	0.9321	-0.201
Mof_C 	C 	0.7817	0.9697	0.9338	0.058
Mof_H 	H 	0.7671	0.9369	0.9193	0.009
Mof_C 	C 	0.8586	0.969	0.9555	-0.223
Mof_H 	H 	0.892	0.936	0.9566	0.09
Mof_N 	N 	0.892	0.1643	0.1176	-0.219
Mof_O 	O 	0.443	0.9435	0.94549	-0.416
Mof_C 	C 	0.8858	0.0195	0.9761	0.169
Mof_O 	O 	0.4296	0.7854	0.10514	-0.43
Mof_C 	C 	0.8278	0.0649	0.9743	-0.197
Mof_H 	H 	0.8411	0.0986	0.988	0.1
Mof_O 	O 	0.3295	0.823	0.0646	-0.378
Mof_H 	H 	0.521	0.975	0.853	1.14
Mof_C 	C 	0.7519	0.0613	0.953	0.119
Mof_H 	H 	0.7159	0.0931	0.9529	-0.007
Mof_C 	C 	0.9647	0.0239	0.001	-0.118
Mof_H 	H 	0.992	0.061	0.9961	0.048
Mof_C 	C 	0.954	0.0141	0.0484	0.047
Mof_H 	H 	0.9102	0.9846	0.0532	-0.017
Mof_C 	C 	0.9338	0.0654	0.0741	0.082
Mof_C 	C 	0.99	0.1124	0.0759	-0.201
Mof_H 	H 	0.0428	0.1113	0.0622	0.123
Mof_C 	C 	0.9672	0.1586	0.0974	0.047
Mof_H 	H 	0.0061	0.1888	0.0985	0.039
Mof_C 	C 	0.8373	0.1203	0.1158	0.078
Mof_H 	H 	0.7847	0.123	0.1295	0.004
Mof_C 	C 	0.8568	0.07	0.0939	-0.14
Mof_H 	H 	0.8172	0.0402	0.093	0.094
Mof_C 	C 	0.5312	0.8887	0.9891	-0.121
Mof_C 	C 	0.6177	0.8621	0.9947	0.105
Mof_H 	H 	0.6603	0.8642	0.9746	-0.017
Mof_C 	C 	0.6311	0.8338	0.0319	-0.029
Mof_H 	H 	0.6873	0.8259	0.0403	0.033
Mof_C 	C 	0.5647	0.8176	0.0557	-0.067
Mof_H 	H 	0.5757	0.794	0.0781	0.053
Mof_C 	C 	0.4779	0.8352	0.048	-0.1
Mof_C 	C 	0.4645	0.8694	0.013	0.053
Mof_H 	H 	0.4083	0.8793	0.0059	0.038
Mof_C 	C 	0.518	0.9252	0.9521	0.379
Mof_C 	C 	0.4071	0.8126	0.0743	0.353
Mof_C 	C 	0.1342	0.1349	0.7546	-0.061
Mof_C 	C 	0.119	0.1217	0.7973	-0.058
Mof_C 	C 	0.1863	0.0974	0.8186	0.033
Mof_H 	H 	0.0877	0.141	0.737	0.05
Mof_H 	H 	0.066	0.1292	0.8098	0.054
Mof_H 	H 	0.1791	0.0884	0.8463	0.025
Mof_Ni	Ni	0.61182	0.50996	0.39886	1.148
Mof_O 	O 	0.5815	0.4351	0.42895	-0.4
Mof_N 	N 	0.7257	0.5144	0.4321	-0.223
Mof_C 	C 	0.7817	0.4697	0.4338	0.08
Mof_H 	H 	0.7671	0.4369	0.4193	0.006
Mof_C 	C 	0.8586	0.469	0.4555	-0.155
Mof_H 	H 	0.892	0.436	0.4566	0.072
Mof_N 	N 	0.892	0.6643	0.6176	-0.228
Mof_O 	O 	0.443	0.4435	0.44549	-0.399
Mof_C 	C 	0.8858	0.5195	0.4761	0.094
Mof_O 	O 	0.4296	0.2854	0.60514	-0.429
Mof_C 	C 	0.8278	0.5649	0.4743	-0.163
Mof_H 	H 	0.8411	0.5986	0.488	0.09
Mof_O 	O 	0.3295	0.323	0.5646	-0.378
Mof_H 	H 	0.521	0.475	0.353	1.311
Mof_C 	C 	0.7519	0.5613	0.453	0.092
Mof_H 	H 	0.7159	0.5931	0.4529	0.002
Mof_C 	C 	0.9647	0.5239	0.501	-0.078
Mof_H 	H 	0.992	0.561	0.4961	0.038
Mof_C 	C 	0.954	0.5141	0.5484	-0.121
Mof_H 	H 	0.9102	0.4846	0.5532	0.061
Mof_C 	C 	0.9338	0.5654	0.5741	0.145
Mof_C 	C 	0.99	0.6124	0.5759	-0.245
Mof_H 	H 	0.0428	0.6113	0.5622	0.137
Mof_C 	C 	0.9672	0.6586	0.5974	0.071
Mof_H 	H 	0.0061	0.6888	0.5985	0.029
Mof_C 	C 	0.8373	0.6203	0.6158	0.097
Mof_H 	H 	0.7847	0.623	0.6295	-0.006
Mof_C 	C 	0.8568	0.57	0.5939	-0.187
Mof_H 	H 	0.8172	0.5402	0.593	0.097
Mof_C 	C 	0.5312	0.3887	0.4891	-0.104
Mof_C 	C 	0.6177	0.3621	0.4947	0.058
Mof_H 	H 	0.6603	0.3642	0.4746	0
Mof_C 	C 	0.6311	0.3338	0.5319	-0.031
Mof_H 	H 	0.6873	0.3259	0.5403	0.033
Mof_C 	C 	0.5647	0.3176	0.5557	-0.045
Mof_H 	H 	0.5757	0.294	0.5781	0.046
Mof_C 	C 	0.4779	0.3352	0.548	-0.097
Mof_C 	C 	0.4645	0.3694	0.513	0.04
Mof_H 	H 	0.4083	0.3793	0.5059	0.042
Mof_C 	C 	0.518	0.4252	0.4521	0.377
Mof_C 	C 	0.4071	0.3126	0.5743	0.353
Mof_C 	C 	0.1342	0.6349	0.2546	-0.059
Mof_C 	C 	0.119	0.6217	0.2973	-0.05
Mof_C 	C 	0.1863	0.5974	0.3186	0.038
Mof_H 	H 	0.0877	0.641	0.237	0.05
Mof_H 	H 	0.066	0.6292	0.3098	0.049
Mof_H 	H 	0.1791	0.5884	0.3463	0.022
Mof_Ni	Ni	0.11182	0.00996	0.39886	1.158
Mof_O 	O 	0.0815	0.9351	0.42895	-0.42
Mof_N 	N 	0.2257	0.0144	0.4321	-0.203
Mof_C 	C 	0.2817	0.9697	0.4338	0.064
Mof_H 	H 	0.2671	0.9369	0.4193	0.009
Mof_C 	C 	0.3586	0.969	0.4555	-0.233
Mof_H 	H 	0.392	0.936	0.4566	0.104
Mof_N 	N 	0.392	0.1643	0.6176	-0.22
Mof_O 	O 	0.943	0.9435	0.44549	-0.447
Mof_C 	C 	0.3858	0.0195	0.4761	0.192
Mof_O 	O 	0.9296	0.7854	0.60514	-0.445
Mof_C 	C 	0.3278	0.0649	0.4743	-0.206
Mof_H 	H 	0.3411	0.0986	0.488	0.108
Mof_O 	O 	0.8295	0.823	0.5646	-0.383
Mof_H 	H 	0.021	0.975	0.353	1.036
Mof_C 	C 	0.2519	0.0613	0.453	0.128
Mof_H 	H 	0.2159	0.0931	0.4529	-0.006
Mof_C 	C 	0.4647	0.0239	0.501	-0.126
Mof_H 	H 	0.492	0.061	0.4961	0.07
Mof_C 	C 	0.454	0.0141	0.5484	0.107
Mof_H 	H 	0.4102	0.9846	0.5532	-0.032
Mof_C 	C 	0.4338	0.0654	0.5741	0.044
Mof_C 	C 	0.49	0.1124	0.5759	-0.13
Mof_H 	H 	0.5428	0.1113	0.5622	0.072
Mof_C 	C 	0.4672	0.1586	0.5974	0.078
Mof_H 	H 	0.5061	0.1888	0.5985	0.001
Mof_C 	C 	0.3373	0.1203	0.6158	0.066
Mof_H 	H 	0.2847	0.123	0.6295	0.009
Mof_C 	C 	0.3568	0.07	0.5939	-0.115
Mof_H 	H 	0.3172	0.0402	0.593	0.088
Mof_C 	C 	0.0312	0.8887	0.4891	-0.074
Mof_C 	C 	0.1177	0.8621	0.4947	0.054
Mof_H 	H 	0.1603	0.8642	0.4746	0.006
Mof_C 	C 	0.1311	0.8338	0.5319	-0.018
Mof_H 	H 	0.1873	0.8259	0.5403	0.032
Mof_C 	C 	0.0647	0.8176	0.5557	-0.026
Mof_H 	H 	0.0757	0.794	0.5781	0.045
Mof_C 	C 	0.9779	0.8352	0.548	-0.128
Mof_C 	C 	0.9645	0.8694	0.513	-0.001
Mof_H 	H 	0.9083	0.8793	0.5059	0.048
Mof_C 	C 	0.018	0.9252	0.4521	0.41
Mof_C 	C 	0.9071	0.8126	0.5743	0.357
Mof_C 	C 	0.6342	0.1349	0.2546	-0.058
Mof_C 	C 	0.619	0.1217	0.2973	-0.061
Mof_C 	C 	0.6863	0.0974	0.3186	0.033
Mof_H 	H 	0.5877	0.141	0.237	0.043
Mof_H 	H 	0.566	0.1292	0.3098	0.046
Mof_H 	H 	0.6791	0.0884	0.3463	0.022
Mof_Ni	Ni	0.11182	0.50996	0.89886	1.146
Mof_O 	O 	0.0815	0.4351	0.92895	-0.405
Mof_N 	N 	0.2257	0.5144	0.9321	-0.222
Mof_C 	C 	0.2817	0.4697	0.9338	0.079
Mof_H 	H 	0.2671	0.4369	0.9193	0.009
Mof_C 	C 	0.3586	0.469	0.9555	-0.148
Mof_H 	H 	0.392	0.436	0.9566	0.078
Mof_N 	N 	0.392	0.6643	0.1176	-0.229
Mof_O 	O 	0.943	0.4435	0.94549	-0.437
Mof_C 	C 	0.3858	0.5195	0.9761	0.086
Mof_O 	O 	0.9296	0.2854	0.10514	-0.445
Mof_C 	C 	0.3278	0.5649	0.9743	-0.157
Mof_H 	H 	0.3411	0.5986	0.988	0.088
Mof_O 	O 	0.8295	0.323	0.0646	-0.38
Mof_H 	H 	0.021	0.475	0.853	1.211
Mof_C 	C 	0.2519	0.5613	0.953	0.09
Mof_H 	H 	0.2159	0.5931	0.9529	0.004
Mof_C 	C 	0.4647	0.5239	0.001	-0.051
Mof_H 	H 	0.492	0.561	0.9961	0.039
Mof_C 	C 	0.454	0.5141	0.0484	-0.074
Mof_H 	H 	0.4102	0.4846	0.0532	0.054
Mof_C 	C 	0.4338	0.5654	0.0741	0.117
Mof_C 	C 	0.49	0.6124	0.0759	-0.18
Mof_H 	H 	0.5428	0.6113	0.0622	0.091
Mof_C 	C 	0.4672	0.6586	0.0974	0.105
Mof_H 	H 	0.5061	0.6888	0.0985	-0.008
Mof_C 	C 	0.3373	0.6203	0.1158	0.089
Mof_H 	H 	0.2847	0.623	0.1295	-0.002
Mof_C 	C 	0.3568	0.57	0.0939	-0.168
Mof_H 	H 	0.3172	0.5402	0.093	0.094
Mof_C 	C 	0.0312	0.3887	0.9891	-0.079
Mof_C 	C 	0.1177	0.3621	0.9947	0.104
Mof_H 	H 	0.1603	0.3642	0.9746	-0.014
Mof_C 	C 	0.1311	0.3338	0.0319	-0.029
Mof_H 	H 	0.1873	0.3259	0.0403	0.037
Mof_C 	C 	0.0647	0.3176	0.0557	-0.053
Mof_H 	H 	0.0757	0.294	0.0781	0.054
Mof_C 	C 	0.9779	0.3352	0.048	-0.128
Mof_C 	C 	0.9645	0.3694	0.013	0.009
Mof_H 	H 	0.9083	0.3793	0.0059	0.051
Mof_C 	C 	0.018	0.4252	0.9521	0.417
Mof_C 	C 	0.9071	0.3126	0.0743	0.359
Mof_C 	C 	0.6342	0.6349	0.7546	-0.056
Mof_C 	C 	0.619	0.6217	0.7973	-0.053
Mof_C 	C 	0.6863	0.5974	0.8186	0.038
Mof_H 	H 	0.5877	0.641	0.737	0.043
Mof_H 	H 	0.566	0.6292	0.8098	0.041
Mof_H 	H 	0.6791	0.5884	0.8463	0.018
Mof_Ni	Ni	0.38818	0.99004	0.89886	1.123
Mof_O 	O 	0.4185	0.0649	0.92895	-0.389
Mof_N 	N 	0.2743	0.9856	0.9321	-0.242
Mof_C 	C 	0.2183	0.0303	0.9338	0.1
Mof_H 	H 	0.2329	0.0631	0.9193	0.008
Mof_C 	C 	0.1414	0.031	0.9555	-0.07
Mof_H 	H 	0.108	0.064	0.9566	0.066
Mof_N 	N 	0.108	0.8357	0.1176	-0.24
Mof_O 	O 	0.557	0.0565	0.94549	-0.394
Mof_C 	C 	0.1142	0.9805	0.9761	-0
Mof_O 	O 	0.5704	0.2146	0.10514	-0.428
Mof_C 	C 	0.1722	0.9351	0.9743	-0.116
Mof_H 	H 	0.1589	0.9014	0.988	0.075
Mof_O 	O 	0.6705	0.177	0.0646	-0.376
Mof_H 	H 	0.479	0.025	0.853	1.182
Mof_C 	C 	0.2481	0.9387	0.953	0.06
Mof_H 	H 	0.2841	0.9069	0.9529	0.012
Mof_C 	C 	0.0353	0.9761	0.001	0.016
Mof_H 	H 	0.008	0.939	0.9961	0.03
Mof_C 	C 	0.046	0.9859	0.0484	-0.2
Mof_H 	H 	0.0898	0.0154	0.0532	0.129
Mof_C 	C 	0.0662	0.9346	0.0741	0.154
Mof_C 	C 	0.01	0.8876	0.0759	-0.164
Mof_H 	H 	0.9572	0.8887	0.0622	0.063
Mof_C 	C 	0.0328	0.8414	0.0974	0.161
Mof_H 	H 	0.9939	0.8112	0.0985	-0.054
Mof_C 	C 	0.1627	0.8797	0.1158	0.1
Mof_H 	H 	0.2153	0.877	0.1295	-0.01
Mof_C 	C 	0.1432	0.93	0.0939	-0.197
Mof_H 	H 	0.1828	0.9598	0.093	0.091
Mof_C 	C 	0.4688	0.1113	0.9891	-0.11
Mof_C 	C 	0.3823	0.1379	0.9947	0.11
Mof_H 	H 	0.3397	0.1358	0.9746	-0.019
Mof_C 	C 	0.3689	0.1662	0.0319	-0.042
Mof_H 	H 	0.3127	0.1741	0.0403	0.041
Mof_C 	C 	0.4353	0.1824	0.0557	-0.073
Mof_H 	H 	0.4243	0.206	0.0781	0.055
Mof_C 	C 	0.5221	0.1648	0.048	-0.095
Mof_C 	C 	0.5355	0.1306	0.013	0.052
Mof_H 	H 	0.5917	0.1207	0.0059	0.043
Mof_C 	C 	0.482	0.0748	0.9521	0.381
Mof_C 	C 	0.5929	0.1874	0.0743	0.354
Mof_C 	C 	0.8658	0.8651	0.7546	-0.051
Mof_C 	C 	0.881	0.8783	0.7973	-0.045
Mof_C 	C 	0.8137	0.9026	0.8186	0.04
Mof_H 	H 	0.9123	0.859	0.737	0.037
Mof_H 	H 	0.934	0.8708	0.8098	0.027
Mof_H 	H 	0.8209	0.9116	0.8463	0.014
Mof_Ni	Ni	0.38818	0.49004	0.39886	1.149
Mof_O 	O 	0.4185	0.5649	0.42895	-0.4
Mof_N 	N 	0.2743	0.4856	0.4321	-0.224
Mof_C 	C 	0.2183	0.5303	0.4338	0.085
Mof_H 	H 	0.2329	0.5631	0.4193	0.008
Mof_C 	C 	0.1414	0.531	0.4555	-0.155
Mof_H 	H 	0.108	0.564	0.4566	0.09
Mof_N 	N 	0.108	0.3357	0.6176	-0.23
Mof_O 	O 	0.557	0.5565	0.44549	-0.399
Mof_C 	C 	0.1142	0.4805	0.4761	0.105
Mof_O 	O 	0.5704	0.7146	0.60514	-0.429
Mof_C 	C 	0.1722	0.4351	0.4743	-0.166
Mof_H 	H 	0.1589	0.4014	0.488	0.095
Mof_O 	O 	0.6705	0.677	0.5646	-0.378
Mof_H 	H 	0.479	0.525	0.353	1.311
Mof_C 	C 	0.2481	0.4387	0.453	0.097
Mof_H 	H 	0.2841	0.4069	0.4529	0.002
Mof_C 	C 	0.0353	0.4761	0.501	-0.058
Mof_H 	H 	0.008	0.439	0.4961	0.06
Mof_C 	C 	0.046	0.4859	0.5484	-0.019
Mof_H 	H 	0.0898	0.5154	0.5532	0.042
Mof_C 	C 	0.0662	0.4346	0.5741	0.081
Mof_C 	C 	0.01	0.3876	0.5759	-0.111
Mof_H 	H 	0.9572	0.3887	0.5622	0.041
Mof_C 	C 	0.0328	0.3414	0.5974	0.137
Mof_H 	H 	0.9939	0.3112	0.5985	-0.047
Mof_C 	C 	0.1627	0.3797	0.6158	0.077
Mof_H 	H 	0.2153	0.377	0.6295	0.001
Mof_C 	C 	0.1432	0.43	0.5939	-0.144
Mof_H 	H 	0.1828	0.4598	0.593	0.085
Mof_C 	C 	0.4688	0.6113	0.4891	-0.104
Mof_C 	C 	0.3823	0.6379	0.4947	0.06
Mof_H 	H 	0.3397	0.6358	0.4746	0.001
Mof_C 	C 	0.3689	0.6662	0.5319	-0.032
Mof_H 	H 	0.3127	0.6741	0.5403	0.036
Mof_C 	C 	0.4353	0.6824	0.5557	-0.044
Mof_H 	H 	0.4243	0.706	0.5781	0.046
Mof_C 	C 	0.5221	0.6648	0.548	-0.097
Mof_C 	C 	0.5355	0.6306	0.513	0.041
Mof_H 	H 	0.5917	0.6207	0.5059	0.041
Mof_C 	C 	0.482	0.5748	0.4521	0.377
Mof_C 	C 	0.5929	0.6874	0.5743	0.353
Mof_C 	C 	0.8658	0.3651	0.2546	-0.052
Mof_C 	C 	0.881	0.3783	0.2973	-0.052
Mof_C 	C 	0.8137	0.4026	0.3186	0.036
Mof_H 	H 	0.9123	0.359	0.237	0.036
Mof_H 	H 	0.934	0.3708	0.3098	0.032
Mof_H 	H 	0.8209	0.4116	0.3463	0.017
Mof_Ni	Ni	0.88818	0.99004	0.39886	1.116
Mof_O 	O 	0.9185	0.0649	0.42895	-0.389
Mof_N 	N 	0.7743	0.9856	0.4321	-0.242
Mof_C 	C 	0.7183	0.0303	0.4338	0.099
Mof_H 	H 	0.7329	0.0631	0.4193	0.005
Mof_C 	C 	0.6414	0.031	0.4555	-0.077
Mof_H 	H 	0.608	0.064	0.4566	0.06
Mof_N 	N 	0.608	0.8357	0.6176	-0.238
Mof_O 	O 	0.057	0.0565	0.44549	-0.361
Mof_C 	C 	0.6142	0.9805	0.4761	0.008
Mof_O 	O 	0.0704	0.2146	0.60514	-0.412
Mof_C 	C 	0.6722	0.9351	0.4743	-0.123
Mof_H 	H 	0.6589	0.9014	0.488	0.077
Mof_O 	O 	0.1705	0.177	0.5646	-0.373
Mof_H 	H 	0.979	0.025	0.353	1.038
Mof_C 	C 	0.7481	0.9387	0.453	0.062
Mof_H 	H 	0.7841	0.9069	0.4529	0.011
Mof_C 	C 	0.5353	0.9761	0.501	-0.009
Mof_H 	H 	0.508	0.939	0.4961	0.028
Mof_C 	C 	0.546	0.9859	0.5484	-0.247
Mof_H 	H 	0.5898	0.0154	0.5532	0.135
Mof_C 	C 	0.5662	0.9346	0.5741	0.182
Mof_C 	C 	0.51	0.8876	0.5759	-0.226
Mof_H 	H 	0.4572	0.8887	0.5622	0.107
Mof_C 	C 	0.5328	0.8414	0.5974	0.127
Mof_H 	H 	0.4939	0.8112	0.5985	-0.017
Mof_C 	C 	0.6627	0.8797	0.6158	0.108
Mof_H 	H 	0.7153	0.877	0.6295	-0.014
Mof_C 	C 	0.6432	0.93	0.5939	-0.216
Mof_H 	H 	0.6828	0.9598	0.593	0.094
Mof_C 	C 	0.9688	0.1113	0.4891	-0.136
Mof_C 	C 	0.8823	0.1379	0.4947	0.063
Mof_H 	H 	0.8397	0.1358	0.4746	-0.004
Mof_C 	C 	0.8689	0.1662	0.5319	-0.044
Mof_H 	H 	0.8127	0.1741	0.5403	0.038
Mof_C 	C 	0.9353	0.1824	0.5557	-0.064
Mof_H 	H 	0.9243	0.206	0.5781	0.047
Mof_C 	C 	0.0221	0.1648	0.548	-0.063
Mof_C 	C 	0.0355	0.1306	0.513	0.084
Mof_H 	H 	0.0917	0.1207	0.5059	0.035
Mof_C 	C 	0.982	0.0748	0.4521	0.339
Mof_C 	C 	0.0929	0.1874	0.5743	0.348
Mof_C 	C 	0.3658	0.8651	0.2546	-0.054
Mof_C 	C 	0.381	0.8783	0.2973	-0.042
Mof_C 	C 	0.3137	0.9026	0.3186	0.04
Mof_H 	H 	0.4123	0.859	0.237	0.043
Mof_H 	H 	0.434	0.8708	0.3098	0.035
Mof_H 	H 	0.3209	0.9116	0.3463	0.017
Mof_Ni	Ni	0.88818	0.49004	0.89886	1.14
Mof_O 	O 	0.9185	0.5649	0.92895	-0.401
Mof_N 	N 	0.7743	0.4856	0.9321	-0.222
Mof_C 	C 	0.7183	0.5303	0.9338	0.079
Mof_H 	H 	0.7329	0.5631	0.9193	0.008
Mof_C 	C 	0.6414	0.531	0.9555	-0.149
Mof_H 	H 	0.608	0.564	0.9566	0.078
Mof_N 	N 	0.608	0.3357	0.1176	-0.229
Mof_O 	O 	0.057	0.5565	0.94549	-0.372
Mof_C 	C 	0.6142	0.4805	0.9761	0.086
Mof_O 	O 	0.0704	0.7146	0.10514	-0.413
Mof_C 	C 	0.6722	0.4351	0.9743	-0.158
Mof_H 	H 	0.6589	0.4014	0.988	0.088
Mof_O 	O 	0.1705	0.677	0.0646	-0.374
Mof_H 	H 	0.979	0.525	0.853	1.172
Mof_C 	C 	0.7481	0.4387	0.953	0.09
Mof_H 	H 	0.7841	0.4069	0.9529	0.001
Mof_C 	C 	0.5353	0.4761	0.001	-0.051
Mof_H 	H 	0.508	0.439	0.9961	0.04
Mof_C 	C 	0.546	0.4859	0.0484	-0.074
Mof_H 	H 	0.5898	0.5154	0.0532	0.053
Mof_C 	C 	0.5662	0.4346	0.0741	0.116
Mof_C 	C 	0.51	0.3876	0.0759	-0.179
Mof_H 	H 	0.4572	0.3887	0.0622	0.091
Mof_C 	C 	0.5328	0.3414	0.0974	0.104
Mof_H 	H 	0.4939	0.3112	0.0985	-0.008
Mof_C 	C 	0.6627	0.3797	0.1158	0.088
Mof_H 	H 	0.7153	0.377	0.1295	-0.004
Mof_C 	C 	0.6432	0.43	0.0939	-0.167
Mof_H 	H 	0.6828	0.4598	0.093	0.091
Mof_C 	C 	0.9688	0.6113	0.9891	-0.152
Mof_C 	C 	0.8823	0.6379	0.9947	0.111
Mof_H 	H 	0.8397	0.6358	0.9746	-0.021
Mof_C 	C 	0.8689	0.6662	0.0319	-0.042
Mof_H 	H 	0.8127	0.6741	0.0403	0.037
Mof_C 	C 	0.9353	0.6824	0.0557	-0.086
Mof_H 	H 	0.9243	0.706	0.0781	0.055
Mof_C 	C 	0.0221	0.6648	0.048	-0.069
Mof_C 	C 	0.0355	0.6306	0.013	0.095
Mof_H 	H 	0.0917	0.6207	0.0059	0.031
Mof_C 	C 	0.982	0.5748	0.9521	0.343
Mof_C 	C 	0.0929	0.6874	0.0743	0.348
Mof_C 	C 	0.3658	0.3651	0.7546	-0.055
Mof_C 	C 	0.381	0.3783	0.7973	-0.049
Mof_C 	C 	0.3137	0.4026	0.8186	0.035
Mof_H 	H 	0.4123	0.359	0.737	0.043
Mof_H 	H 	0.434	0.3708	0.8098	0.04
Mof_H 	H 	0.3209	0.4116	0.8463	0.02
Mof_Ni	Ni	0.86182	0.24004	0.14886	1.147
Mof_O 	O 	0.8315	0.3149	0.17895	-0.405
Mof_N 	N 	0.9757	0.2356	0.1821	-0.286
Mof_C 	C 	0.0317	0.2803	0.1838	0.149
Mof_H 	H 	0.0171	0.3131	0.1693	-0.002
Mof_C 	C 	0.1086	0.281	0.2055	-0.206
Mof_H 	H 	0.142	0.314	0.2066	0.103
Mof_N 	N 	0.142	0.0857	0.3676	-0.224
Mof_O 	O 	0.693	0.3065	0.19549	-0.4
Mof_C 	C 	0.1358	0.2305	0.2261	0.157
Mof_O 	O 	0.6796	0.4646	0.35514	-0.43
Mof_C 	C 	0.0778	0.1851	0.2243	-0.257
Mof_H 	H 	0.0911	0.1514	0.238	0.137
Mof_O 	O 	0.5795	0.427	0.3146	-0.378
Mof_H 	H 	0.771	0.275	0.103	1.312
Mof_C 	C 	0.0019	0.1887	0.203	0.248
Mof_H 	H 	0.9659	0.1569	0.2029	-0.071
Mof_C 	C 	0.2147	0.2261	0.251	-0.096
Mof_H 	H 	0.242	0.189	0.2461	0.06
Mof_C 	C 	0.204	0.2359	0.2984	-0.059
Mof_H 	H 	0.1602	0.2654	0.3032	0.052
Mof_C 	C 	0.1838	0.1846	0.3241	0.11
Mof_C 	C 	0.24	0.1376	0.3259	-0.172
Mof_H 	H 	0.2928	0.1387	0.3122	0.091
Mof_C 	C 	0.2172	0.0914	0.3474	0.105
Mof_H 	H 	0.2561	0.0612	0.3485	0.005
Mof_C 	C 	0.0873	0.1297	0.3658	0.091
Mof_H 	H 	0.0347	0.127	0.3795	0.01
Mof_C 	C 	0.1068	0.18	0.3439	-0.16
Mof_H 	H 	0.0672	0.2098	0.343	0.098
Mof_C 	C 	0.7812	0.3613	0.2391	-0.108
Mof_C 	C 	0.8677	0.3879	0.2447	0.055
Mof_H 	H 	0.9103	0.3858	0.2246	-0.003
Mof_C 	C 	0.8811	0.4162	0.2819	-0.032
Mof_H 	H 	0.9373	0.4241	0.2903	0.027
Mof_C 	C 	0.8147	0.4324	0.3057	-0.044
Mof_H 	H 	0.8257	0.456	0.3281	0.043
Mof_C 	C 	0.7279	0.4148	0.298	-0.098
Mof_C 	C 	0.7145	0.3806	0.263	0.041
Mof_H 	H 	0.6583	0.3707	0.2559	0.041
Mof_C 	C 	0.768	0.3248	0.2021	0.377
Mof_C 	C 	0.6571	0.4374	0.3243	0.353
Mof_C 	C 	0.3842	0.1151	0.0046	-0.095
Mof_C 	C 	0.369	0.1283	0.0473	-0.035
Mof_C 	C 	0.4363	0.1526	0.0686	0.067
Mof_H 	H 	0.3377	0.109	0.987	0.056
Mof_H 	H 	0.316	0.1208	0.0598	0.042
Mof_H 	H 	0.4291	0.1616	0.0963	0.012
Mof_Ni	Ni	0.86182	0.74004	0.64886	1.147
Mof_O 	O 	0.8315	0.8149	0.67895	-0.406
Mof_N 	N 	0.9757	0.7356	0.6821	-0.284
Mof_C 	C 	0.0317	0.7803	0.6838	0.146
Mof_H 	H 	0.0171	0.8131	0.6693	-0.004
Mof_C 	C 	0.1086	0.781	0.7055	-0.204
Mof_H 	H 	0.142	0.814	0.7066	0.099
Mof_N 	N 	0.142	0.5857	0.8676	-0.227
Mof_O 	O 	0.693	0.8065	0.69549	-0.401
Mof_C 	C 	0.1358	0.7305	0.7261	0.153
Mof_O 	O 	0.6796	0.9646	0.85514	-0.448
Mof_C 	C 	0.0778	0.6851	0.7243	-0.254
Mof_H 	H 	0.0911	0.6514	0.738	0.131
Mof_O 	O 	0.5795	0.927	0.8146	-0.375
Mof_H 	H 	0.771	0.775	0.603	1.311
Mof_C 	C 	0.0019	0.6887	0.703	0.242
Mof_H 	H 	0.9659	0.6569	0.7029	-0.071
Mof_C 	C 	0.2147	0.7261	0.751	-0.094
Mof_H 	H 	0.242	0.689	0.7461	0.057
Mof_C 	C 	0.204	0.7359	0.7984	-0.059
Mof_H 	H 	0.1602	0.7654	0.8032	0.051
Mof_C 	C 	0.1838	0.6846	0.8241	0.11
Mof_C 	C 	0.24	0.6376	0.8259	-0.175
Mof_H 	H 	0.2928	0.6387	0.8122	0.088
Mof_C 	C 	0.2172	0.5914	0.8474	0.103
Mof_H 	H 	0.2561	0.5612	0.8485	-0.008
Mof_C 	C 	0.0873	0.6297	0.8658	0.089
Mof_H 	H 	0.0347	0.627	0.8795	0.01
Mof_C 	C 	0.1068	0.68	0.8439	-0.16
Mof_H 	H 	0.0672	0.7098	0.843	0.097
Mof_C 	C 	0.7812	0.8613	0.7391	-0.112
Mof_C 	C 	0.8677	0.8879	0.7447	0.054
Mof_H 	H 	0.9103	0.8858	0.7246	-0.007
Mof_C 	C 	0.8811	0.9162	0.7819	-0.044
Mof_H 	H 	0.9373	0.9241	0.7903	0.024
Mof_C 	C 	0.8147	0.9324	0.8057	-0.046
Mof_H 	H 	0.8257	0.956	0.8281	0.035
Mof_C 	C 	0.7279	0.9148	0.798	-0.107
Mof_C 	C 	0.7145	0.8806	0.763	0.043
Mof_H 	H 	0.6583	0.8707	0.7559	0.038
Mof_C 	C 	0.768	0.8248	0.7021	0.378
Mof_C 	C 	0.6571	0.9374	0.8243	0.355
Mof_C 	C 	0.3842	0.6151	0.5046	-0.056
Mof_C 	C 	0.369	0.6283	0.5473	-0.051
Mof_C 	C 	0.4363	0.6526	0.5686	0.037
Mof_H 	H 	0.3377	0.609	0.487	0.043
Mof_H 	H 	0.316	0.6208	0.5598	0.042
Mof_H 	H 	0.4291	0.6616	0.5963	0.02
Mof_Ni	Ni	0.36182	0.24004	0.64886	1.149
Mof_O 	O 	0.3315	0.3149	0.67895	-0.4
Mof_N 	N 	0.4757	0.2356	0.6821	-0.224
Mof_C 	C 	0.5317	0.2803	0.6838	0.085
Mof_H 	H 	0.5171	0.3131	0.6693	0.006
Mof_C 	C 	0.6086	0.281	0.7055	-0.159
Mof_H 	H 	0.642	0.314	0.7066	0.083
Mof_N 	N 	0.642	0.0857	0.8676	-0.225
Mof_O 	O 	0.193	0.3065	0.69549	-0.397
Mof_C 	C 	0.6358	0.2305	0.7261	0.107
Mof_O 	O 	0.1796	0.4646	0.85514	-0.424
Mof_C 	C 	0.5778	0.1851	0.7243	-0.169
Mof_H 	H 	0.5911	0.1514	0.738	0.098
Mof_O 	O 	0.0795	0.427	0.8146	-0.355
Mof_H 	H 	0.271	0.275	0.603	1.312
Mof_C 	C 	0.5019	0.1887	0.703	0.098
Mof_H 	H 	0.4659	0.1569	0.7029	0.005
Mof_C 	C 	0.7147	0.2261	0.751	-0.081
Mof_H 	H 	0.742	0.189	0.7461	0.055
Mof_C 	C 	0.704	0.2359	0.7984	-0.063
Mof_H 	H 	0.6602	0.2654	0.8032	0.049
Mof_C 	C 	0.6838	0.1846	0.8241	0.109
Mof_C 	C 	0.74	0.1376	0.8259	-0.172
Mof_H 	H 	0.7928	0.1387	0.8122	0.087
Mof_C 	C 	0.7172	0.0914	0.8474	0.101
Mof_H 	H 	0.7561	0.0612	0.8485	0.003
Mof_C 	C 	0.5873	0.1297	0.8658	0.087
Mof_H 	H 	0.5347	0.127	0.8795	-0.002
Mof_C 	C 	0.6068	0.18	0.8439	-0.163
Mof_H 	H 	0.5672	0.2098	0.843	0.09
Mof_C 	C 	0.2812	0.3613	0.7391	-0.102
Mof_C 	C 	0.3677	0.3879	0.7447	0.058
Mof_H 	H 	0.4103	0.3858	0.7246	0.001
Mof_C 	C 	0.3811	0.4162	0.7819	-0.032
Mof_H 	H 	0.4373	0.4241	0.7903	0.035
Mof_C 	C 	0.3147	0.4324	0.8057	-0.044
Mof_H 	H 	0.3257	0.456	0.8281	0.046
Mof_C 	C 	0.2279	0.4148	0.798	-0.092
Mof_C 	C 	0.2145	0.3806	0.763	0.039
Mof_H 	H 	0.1583	0.3707	0.7559	0.046
Mof_C 	C 	0.268	0.3248	0.7021	0.376
Mof_C 	C 	0.1571	0.4374	0.8243	0.35
Mof_C 	C 	0.8842	0.1151	0.5046	-0.056
Mof_C 	C 	0.869	0.1283	0.5473	-0.032
Mof_C 	C 	0.9363	0.1526	0.5686	0.015
Mof_H 	H 	0.8377	0.109	0.487	0.047
Mof_H 	H 	0.816	0.1208	0.5598	0.037
Mof_H 	H 	0.9291	0.1616	0.5963	0.022
Mof_Ni	Ni	0.36182	0.74004	0.14886	1.149
Mof_O 	O 	0.3315	0.8149	0.17895	-0.401
Mof_N 	N 	0.4757	0.7356	0.1821	-0.224
Mof_C 	C 	0.5317	0.7803	0.1838	0.083
Mof_H 	H 	0.5171	0.8131	0.1693	0.004
Mof_C 	C 	0.6086	0.781	0.2055	-0.158
Mof_H 	H 	0.642	0.814	0.2066	0.079
Mof_N 	N 	0.642	0.5857	0.3676	-0.229
Mof_O 	O 	0.193	0.8065	0.19549	-0.398
Mof_C 	C 	0.6358	0.7305	0.2261	0.104
Mof_O 	O 	0.1796	0.9646	0.35514	-0.443
Mof_C 	C 	0.5778	0.6851	0.2243	-0.168
Mof_H 	H 	0.5911	0.6514	0.238	0.093
Mof_O 	O 	0.0795	0.927	0.3146	-0.352
Mof_H 	H 	0.271	0.775	0.103	1.312
Mof_C 	C 	0.5019	0.6887	0.203	0.096
Mof_H 	H 	0.4659	0.6569	0.2029	0.002
Mof_C 	C 	0.7147	0.7261	0.251	-0.079
Mof_H 	H 	0.742	0.689	0.2461	0.052
Mof_C 	C 	0.704	0.7359	0.2984	-0.063
Mof_H 	H 	0.6602	0.7654	0.3032	0.049
Mof_C 	C 	0.6838	0.6846	0.3241	0.108
Mof_C 	C 	0.74	0.6376	0.3259	-0.175
Mof_H 	H 	0.7928	0.6387	0.3122	0.084
Mof_C 	C 	0.7172	0.5914	0.3474	0.1
Mof_H 	H 	0.7561	0.5612	0.3485	-0.009
Mof_C 	C 	0.5873	0.6297	0.3658	0.085
Mof_H 	H 	0.5347	0.627	0.3795	-0.002
Mof_C 	C 	0.6068	0.68	0.3439	-0.163
Mof_H 	H 	0.5672	0.7098	0.343	0.09
Mof_C 	C 	0.2812	0.8613	0.2391	-0.106
Mof_C 	C 	0.3677	0.8879	0.2447	0.057
Mof_H 	H 	0.4103	0.8858	0.2246	-0.003
Mof_C 	C 	0.3811	0.9162	0.2819	-0.045
Mof_H 	H 	0.4373	0.9241	0.2903	0.031
Mof_C 	C 	0.3147	0.9324	0.3057	-0.046
Mof_H 	H 	0.3257	0.956	0.3281	0.037
Mof_C 	C 	0.2279	0.9148	0.298	-0.101
Mof_C 	C 	0.2145	0.8806	0.263	0.04
Mof_H 	H 	0.1583	0.8707	0.2559	0.043
Mof_C 	C 	0.268	0.8248	0.2021	0.376
Mof_C 	C 	0.1571	0.9374	0.3243	0.353
Mof_C 	C 	0.8842	0.6151	0.0046	-0.095
Mof_C 	C 	0.869	0.6283	0.0473	-0.034
Mof_C 	C 	0.9363	0.6526	0.0686	0.04
Mof_H 	H 	0.8377	0.609	0.987	0.051
Mof_H 	H 	0.816	0.6208	0.0598	0.034
Mof_H 	H 	0.9291	0.6616	0.0963	0.011
Mof_Ni	Ni	0.63818	0.25996	0.14886	1.149
Mof_O 	O 	0.6685	0.1851	0.17895	-0.398
Mof_N 	N 	0.5243	0.2644	0.1821	-0.223
Mof_C 	C 	0.4683	0.2197	0.1838	0.081
Mof_H 	H 	0.4829	0.1869	0.1693	0.01
Mof_C 	C 	0.3914	0.219	0.2055	-0.151
Mof_H 	H 	0.358	0.186	0.2066	0.084
Mof_N 	N 	0.358	0.4143	0.3676	-0.23
Mof_O 	O 	0.807	0.1935	0.19549	-0.401
Mof_C 	C 	0.3642	0.2695	0.2261	0.094
Mof_O 	O 	0.8204	0.0354	0.35514	-0.408
Mof_C 	C 	0.4222	0.3149	0.2243	-0.161
Mof_H 	H 	0.4089	0.3486	0.238	0.092
Mof_O 	O 	0.9205	0.073	0.3146	-0.362
Mof_H 	H 	0.729	0.225	0.103	1.312
Mof_C 	C 	0.4981	0.3113	0.203	0.093
Mof_H 	H 	0.5341	0.3431	0.2029	0.003
Mof_C 	C 	0.2853	0.2739	0.251	-0.055
Mof_H 	H 	0.258	0.311	0.2461	0.046
Mof_C 	C 	0.296	0.2641	0.2984	-0.077
Mof_H 	H 	0.3398	0.2346	0.3032	0.054
Mof_C 	C 	0.3162	0.3154	0.3241	0.118
Mof_C 	C 	0.26	0.3624	0.3259	-0.181
Mof_H 	H 	0.2072	0.3613	0.3122	0.094
Mof_C 	C 	0.2828	0.4086	0.3474	0.105
Mof_H 	H 	0.2439	0.4388	0.3485	-0.006
Mof_C 	C 	0.4127	0.3703	0.3658	0.089
Mof_H 	H 	0.4653	0.373	0.3795	-0.003
Mof_C 	C 	0.3932	0.32	0.3439	-0.168
Mof_H 	H 	0.4328	0.2902	0.343	0.092
Mof_C 	C 	0.7188	0.1387	0.2391	-0.102
Mof_C 	C 	0.6323	0.1121	0.2447	0.061
Mof_H 	H 	0.5897	0.1142	0.2246	0.005
Mof_C 	C 	0.6189	0.0838	0.2819	-0.018
Mof_H 	H 	0.5627	0.0759	0.2903	0.038
Mof_C 	C 	0.6853	0.0676	0.3057	-0.043
Mof_H 	H 	0.6743	0.044	0.3281	0.055
Mof_C 	C 	0.7721	0.0852	0.298	-0.092
Mof_C 	C 	0.7855	0.1194	0.263	0.04
Mof_H 	H 	0.8417	0.1293	0.2559	0.04
Mof_C 	C 	0.732	0.1752	0.2021	0.377
Mof_C 	C 	0.8429	0.0626	0.3243	0.35
Mof_C 	C 	0.1158	0.3849	0.0046	-0.094
Mof_C 	C 	0.131	0.3717	0.0473	-0.055
Mof_C 	C 	0.0637	0.3474	0.0686	0.088
Mof_H 	H 	0.1623	0.391	0.987	0.051
Mof_H 	H 	0.184	0.3792	0.0598	0.044
Mof_H 	H 	0.0709	0.3384	0.0963	0.01
Mof_Ni	Ni	0.63818	0.75996	0.64886	1.149
Mof_O 	O 	0.6685	0.6851	0.67895	-0.4
Mof_N 	N 	0.5243	0.7644	0.6821	-0.223
Mof_C 	C 	0.4683	0.7197	0.6838	0.08
Mof_H 	H 	0.4829	0.6869	0.6693	0.008
Mof_C 	C 	0.3914	0.719	0.7055	-0.151
Mof_H 	H 	0.358	0.686	0.7066	0.08
Mof_N 	N 	0.358	0.9143	0.8676	-0.235
Mof_O 	O 	0.807	0.6935	0.69549	-0.402
Mof_C 	C 	0.3642	0.7695	0.7261	0.092
Mof_O 	O 	0.8204	0.5354	0.85514	-0.43
Mof_C 	C 	0.4222	0.8149	0.7243	-0.161
Mof_H 	H 	0.4089	0.8486	0.738	0.087
Mof_O 	O 	0.9205	0.573	0.8146	-0.382
Mof_H 	H 	0.729	0.725	0.603	1.311
Mof_C 	C 	0.4981	0.8113	0.703	0.092
Mof_H 	H 	0.5341	0.8431	0.7029	0
Mof_C 	C 	0.2853	0.7739	0.751	-0.055
Mof_H 	H 	0.258	0.811	0.7461	0.043
Mof_C 	C 	0.296	0.7641	0.7984	-0.078
Mof_H 	H 	0.3398	0.7346	0.8032	0.054
Mof_C 	C 	0.3162	0.8154	0.8241	0.118
Mof_C 	C 	0.26	0.8624	0.8259	-0.185
Mof_H 	H 	0.2072	0.8613	0.8122	0.092
Mof_C 	C 	0.2828	0.9086	0.8474	0.106
Mof_H 	H 	0.2439	0.9388	0.8485	-0.02
Mof_C 	C 	0.4127	0.8703	0.8658	0.089
Mof_H 	H 	0.4653	0.873	0.8795	-0.004
Mof_C 	C 	0.3932	0.82	0.8439	-0.17
Mof_H 	H 	0.4328	0.7902	0.843	0.092
Mof_C 	C 	0.7188	0.6387	0.7391	-0.106
Mof_C 	C 	0.6323	0.6121	0.7447	0.06
Mof_H 	H 	0.5897	0.6142	0.7246	0
Mof_C 	C 	0.6189	0.5838	0.7819	-0.031
Mof_H 	H 	0.5627	0.5759	0.7903	0.034
Mof_C 	C 	0.6853	0.5676	0.8057	-0.045
Mof_H 	H 	0.6743	0.544	0.8281	0.046
Mof_C 	C 	0.7721	0.5852	0.798	-0.101
Mof_C 	C 	0.7855	0.6194	0.763	0.042
Mof_H 	H 	0.8417	0.6293	0.7559	0.037
Mof_C 	C 	0.732	0.6752	0.7021	0.377
Mof_C 	C 	0.8429	0.5626	0.8243	0.354
Mof_C 	C 	0.1158	0.8849	0.5046	-0.056
Mof_C 	C 	0.131	0.8717	0.5473	-0.071
Mof_C 	C 	0.0637	0.8474	0.5686	0.057
Mof_H 	H 	0.1623	0.891	0.487	0.039
Mof_H 	H 	0.184	0.8792	0.5598	0.044
Mof_H 	H 	0.0709	0.8384	0.5963	0.017
Mof_Ni	Ni	0.13818	0.25996	0.64886	1.15
Mof_O 	O 	0.1685	0.1851	0.67895	-0.393
Mof_N 	N 	0.0243	0.2644	0.6821	-0.16
Mof_C 	C 	0.9683	0.2197	0.6838	0.016
Mof_H 	H 	0.9829	0.1869	0.6693	0.018
Mof_C 	C 	0.8914	0.219	0.7055	-0.104
Mof_H 	H 	0.858	0.186	0.7066	0.064
Mof_N 	N 	0.858	0.4143	0.8676	-0.233
Mof_O 	O 	0.307	0.1935	0.69549	-0.398
Mof_C 	C 	0.8642	0.2695	0.7261	0.044
Mof_O 	O 	0.3204	0.0354	0.85514	-0.405
Mof_C 	C 	0.9222	0.3149	0.7243	-0.072
Mof_H 	H 	0.9089	0.3486	0.738	0.053
Mof_O 	O 	0.4205	0.073	0.8146	-0.357
Mof_H 	H 	0.229	0.225	0.603	1.312
Mof_C 	C 	0.9981	0.3113	0.703	-0.058
Mof_H 	H 	0.0341	0.3431	0.7029	0.078
Mof_C 	C 	0.7853	0.2739	0.751	-0.04
Mof_H 	H 	0.758	0.311	0.7461	0.04
Mof_C 	C 	0.796	0.2641	0.7984	-0.081
Mof_H 	H 	0.8398	0.2346	0.8032	0.052
Mof_C 	C 	0.8162	0.3154	0.8241	0.117
Mof_C 	C 	0.76	0.3624	0.8259	-0.182
Mof_H 	H 	0.7072	0.3613	0.8122	0.091
Mof_C 	C 	0.7828	0.4086	0.8474	0.104
Mof_H 	H 	0.7439	0.4388	0.8485	-0.009
Mof_C 	C 	0.9127	0.3703	0.8658	0.087
Mof_H 	H 	0.9653	0.373	0.8795	-0.016
Mof_C 	C 	0.8932	0.32	0.8439	-0.172
Mof_H 	H 	0.9328	0.2902	0.843	0.085
Mof_C 	C 	0.2188	0.1387	0.7391	-0.096
Mof_C 	C 	0.1323	0.1121	0.7447	0.064
Mof_H 	H 	0.0897	0.1142	0.7246	0.009
Mof_C 	C 	0.1189	0.0838	0.7819	-0.017
Mof_H 	H 	0.0627	0.0759	0.7903	0.046
Mof_C 	C 	0.1853	0.0676	0.8057	-0.043
Mof_H 	H 	0.1743	0.044	0.8281	0.058
Mof_C 	C 	0.2721	0.0852	0.798	-0.086
Mof_C 	C 	0.2855	0.1194	0.763	0.038
Mof_H 	H 	0.3417	0.1293	0.7559	0.045
Mof_C 	C 	0.232	0.1752	0.7021	0.376
Mof_C 	C 	0.3429	0.0626	0.8243	0.349
Mof_C 	C 	0.6158	0.3849	0.5046	-0.055
Mof_C 	C 	0.631	0.3717	0.5473	-0.051
Mof_C 	C 	0.5637	0.3474	0.5686	0.037
Mof_H 	H 	0.6623	0.391	0.487	0.043
Mof_H 	H 	0.684	0.3792	0.5598	0.039
Mof_H 	H 	0.5709	0.3384	0.5963	0.019
Mof_Ni	Ni	0.13818	0.75996	0.14886	1.15
Mof_O 	O 	0.1685	0.6851	0.17895	-0.395
Mof_N 	N 	0.0243	0.7644	0.1821	-0.163
Mof_C 	C 	0.9683	0.7197	0.1838	0.019
Mof_H 	H 	0.9829	0.6869	0.1693	0.015
Mof_C 	C 	0.8914	0.719	0.2055	-0.107
Mof_H 	H 	0.858	0.686	0.2066	0.061
Mof_N 	N 	0.858	0.9143	0.3676	-0.239
Mof_O 	O 	0.307	0.6935	0.19549	-0.399
Mof_C 	C 	0.8642	0.7695	0.2261	0.045
Mof_O 	O 	0.3204	0.5354	0.35514	-0.428
Mof_C 	C 	0.9222	0.8149	0.2243	-0.077
Mof_H 	H 	0.9089	0.8486	0.238	0.052
Mof_O 	O 	0.4205	0.573	0.3146	-0.378
Mof_H 	H 	0.229	0.725	0.103	1.312
Mof_C 	C 	0.9981	0.8113	0.203	-0.05
Mof_H 	H 	0.0341	0.8431	0.2029	0.071
Mof_C 	C 	0.7853	0.7739	0.251	-0.041
Mof_H 	H 	0.758	0.811	0.2461	0.038
Mof_C 	C 	0.796	0.7641	0.2984	-0.082
Mof_H 	H 	0.8398	0.7346	0.3032	0.052
Mof_C 	C 	0.8162	0.8154	0.3241	0.118
Mof_C 	C 	0.76	0.8624	0.3259	-0.186
Mof_H 	H 	0.7072	0.8613	0.3122	0.088
Mof_C 	C 	0.7828	0.9086	0.3474	0.105
Mof_H 	H 	0.7439	0.9388	0.3485	-0.022
Mof_C 	C 	0.9127	0.8703	0.3658	0.088
Mof_H 	H 	0.9653	0.873	0.3795	-0.015
Mof_C 	C 	0.8932	0.82	0.3439	-0.173
Mof_H 	H 	0.9328	0.7902	0.343	0.086
Mof_C 	C 	0.2188	0.6387	0.2391	-0.101
Mof_C 	C 	0.1323	0.6121	0.2447	0.063
Mof_H 	H 	0.0897	0.6142	0.2246	0.004
Mof_C 	C 	0.1189	0.5838	0.2819	-0.031
Mof_H 	H 	0.0627	0.5759	0.2903	0.042
Mof_C 	C 	0.1853	0.5676	0.3057	-0.045
Mof_H 	H 	0.1743	0.544	0.3281	0.049
Mof_C 	C 	0.2721	0.5852	0.298	-0.095
Mof_C 	C 	0.2855	0.6194	0.263	0.04
Mof_H 	H 	0.3417	0.6293	0.2559	0.042
Mof_C 	C 	0.232	0.6752	0.2021	0.376
Mof_C 	C 	0.3429	0.5626	0.3243	0.353
Mof_C 	C 	0.6158	0.8849	0.0046	-0.094
Mof_C 	C 	0.631	0.8717	0.0473	-0.053
Mof_C 	C 	0.5637	0.8474	0.0686	0.059
Mof_H 	H 	0.6623	0.891	0.987	0.046
Mof_H 	H 	0.684	0.8792	0.0598	0.036
Mof_H 	H 	0.5709	0.8384	0.0963	0.009
Mof_O 	O 	0.5	8.57671e-33	0.8627	-2.388
Mof_O 	O 	0.5	0.5	0.3627	-2.682
Mof_O 	O 	2.84998e-33	4.28836e-33	0.3627	-2.145
Mof_O 	O 	-2.7528e-32	0.5	0.8627	-2.448
Mof_O 	O 	0.75	0.25	0.1127	-2.683
Mof_O 	O 	0.75	0.75	0.6127	-2.682
Mof_O 	O 	0.25	0.25	0.6127	-2.683
Mof_O 	O 	0.25	0.75	0.1127	-2.683
_end
