data_functionalizedCrystal
_audit_creation_method	'EQeq! by Chris Wilmer'
_symmetry_space_group_name_H-M	'P1'
_symmetry_Int_Tables_number	1
_symmetry_cell_setting	triclinic
loop_
_symmetry_equiv_pos_as_xyz
  x,y,z
_cell_length_a	18.741
_cell_length_b	18.741
_cell_length_c	9.414
_cell_angle_alpha	90
_cell_angle_beta	90
_cell_angle_gamma	90
loop_
_atom_site_label
_atom_site_type_symbol
_atom_site_fract_x
_atom_site_fract_y
_atom_site_fract_z
_atom_site_charge
Mof_P 	P 	0.565	0.0524	0.3341	-3.715
Mof_P 	P 	0.6659	0.0641	0.916	-0.638
Mof_P 	P 	0.4545	0.1653	0.8428	-0.966
Mof_Al	Al	0.5659	0.16605	0.0925	16.236
Mof_Al	Al	0.66653	0.9505	0.1598	5.244
Mof_Al	Al	0.44392	0.9348	0.3363	-68.887
Mof_O 	O 	0.6588	0.9873	0.0107	-1.062
Mof_O 	O 	0.4958	0.1572	0.007	-3.679
Mof_O 	O 	0.6248	0.0581	0.7513	17.67
Mof_O 	O 	0.3725	0.1223	0.8413	-0.891
Mof_O 	O 	0.4381	0.2539	0.8051	-1.711
Mof_O 	O 	0.7541	0.0812	0.8796	-4.061
Mof_O 	O 	0.51	0.1291	0.713	17.573
Mof_O 	O 	0.6305	0.1344	0.0117	-3.701
Mof_O 	O 	0.4849	0.0057	0.3255	18.317
Mof_O 	O 	0.5792	0.0776	0.5106	18.28
Mof_O 	O 	0.5577	0.1282	0.2372	-3.804
Mof_O 	O 	0.635	0.0002	0.2781	-0.582
Mof_P 	P 	0.935	0.4476	0.3341	-3.691
Mof_P 	P 	0.8341	0.4359	0.916	-0.562
Mof_P 	P 	0.0455	0.3347	0.8428	-1.086
Mof_Al	Al	0.9341	0.33395	0.0925	17.923
Mof_Al	Al	0.83347	0.5495	0.1598	7.053
Mof_Al	Al	0.05608	0.5652	0.3363	-70.431
Mof_O 	O 	0.8412	0.5127	0.0107	-1.51
Mof_O 	O 	0.0042	0.3428	0.007	-4.103
Mof_O 	O 	0.8752	0.4419	0.7513	18.042
Mof_O 	O 	0.1275	0.3777	0.8413	-1.336
Mof_O 	O 	0.0619	0.2461	0.8051	-0.513
Mof_O 	O 	0.7459	0.4188	0.8796	-4.34
Mof_O 	O 	0.99	0.3709	0.713	17.982
Mof_O 	O 	0.8695	0.3656	0.0117	-4.12
Mof_O 	O 	0.0151	0.4943	0.3255	18.704
Mof_O 	O 	0.9208	0.4224	0.5106	18.679
Mof_O 	O 	0.9423	0.3718	0.2372	-4.229
Mof_O 	O 	0.865	0.4998	0.2781	-1.058
Mof_P 	P 	0.4476	0.565	0.3341	-3.736
Mof_P 	P 	0.4359	0.6659	0.916	-0.629
Mof_P 	P 	0.3347	0.4545	0.8428	-0.93
Mof_Al	Al	0.33395	0.5659	0.0925	17.145
Mof_Al	Al	0.5495	0.66653	0.1598	6.957
Mof_Al	Al	0.5652	0.44392	0.3363	-70.514
Mof_O 	O 	0.5127	0.6588	0.0107	-1.476
Mof_O 	O 	0.3428	0.4958	0.007	-3.912
Mof_O 	O 	0.4419	0.6248	0.7513	18.067
Mof_O 	O 	0.3777	0.3725	0.8413	-1.323
Mof_O 	O 	0.2461	0.4381	0.8051	-1.742
Mof_O 	O 	0.4188	0.7541	0.8796	-4.104
Mof_O 	O 	0.3709	0.51	0.713	17.969
Mof_O 	O 	0.3656	0.6305	0.0117	-3.934
Mof_O 	O 	0.4943	0.4849	0.3255	18.739
Mof_O 	O 	0.4224	0.5792	0.5106	18.699
Mof_O 	O 	0.3718	0.5577	0.2372	-4.044
Mof_O 	O 	0.4998	0.635	0.2781	-1.023
Mof_P 	P 	0.0524	0.935	0.3341	-3.855
Mof_P 	P 	0.0641	0.8341	0.916	-0.713
Mof_P 	P 	0.1653	0.0455	0.8428	-1.225
Mof_Al	Al	0.16605	0.9341	0.0925	16.204
Mof_Al	Al	0.9505	0.83347	0.1598	2.233
Mof_Al	Al	0.9348	0.05608	0.3363	-70.321
Mof_O 	O 	0.9873	0.8412	0.0107	-0.325
Mof_O 	O 	0.1572	0.0042	0.007	-3.669
Mof_O 	O 	0.0581	0.8752	0.7513	18.078
Mof_O 	O 	0.1223	0.1275	0.8413	-0.103
Mof_O 	O 	0.2539	0.0619	0.8051	-1.27
Mof_O 	O 	0.0812	0.7459	0.8796	-4.49
Mof_O 	O 	0.1291	0.99	0.713	18.042
Mof_O 	O 	0.1344	0.8695	0.0117	-3.635
Mof_O 	O 	0.0057	0.0151	0.3255	18.632
Mof_O 	O 	0.0776	0.9208	0.5106	18.692
Mof_O 	O 	0.1282	0.9423	0.2372	-3.732
Mof_O 	O 	0.0002	0.865	0.2781	0.22
Mof_P 	P 	0.435	0.9476	0.6659	-3.714
Mof_P 	P 	0.3341	0.9359	0.084	-0.637
Mof_P 	P 	0.5455	0.8347	0.1572	-0.966
Mof_Al	Al	0.4341	0.83395	0.9075	16.236
Mof_Al	Al	0.33347	0.0495	0.8402	5.244
Mof_Al	Al	0.55608	0.0652	0.6637	-68.887
Mof_O 	O 	0.3412	0.0127	0.9893	-1.062
Mof_O 	O 	0.5042	0.8428	0.993	-3.679
Mof_O 	O 	0.3752	0.9419	0.2487	17.67
Mof_O 	O 	0.6275	0.8777	0.1587	-0.891
Mof_O 	O 	0.5619	0.7461	0.1949	-1.711
Mof_O 	O 	0.2459	0.9188	0.1204	-4.061
Mof_O 	O 	0.49	0.8709	0.287	17.573
Mof_O 	O 	0.3695	0.8656	0.9883	-3.701
Mof_O 	O 	0.5151	0.9943	0.6745	18.317
Mof_O 	O 	0.4208	0.9224	0.4894	18.28
Mof_O 	O 	0.4423	0.8718	0.7628	-3.804
Mof_O 	O 	0.365	0.9998	0.7219	-0.582
Mof_P 	P 	0.065	0.5524	0.6659	-3.691
Mof_P 	P 	0.1659	0.5641	0.084	-0.562
Mof_P 	P 	0.9545	0.6653	0.1572	-1.086
Mof_Al	Al	0.0659	0.66605	0.9075	17.923
Mof_Al	Al	0.16653	0.4505	0.8402	7.053
Mof_Al	Al	0.94392	0.4348	0.6637	-70.431
Mof_O 	O 	0.1588	0.4873	0.9893	-1.51
Mof_O 	O 	0.9958	0.6572	0.993	-4.103
Mof_O 	O 	0.1248	0.5581	0.2487	18.042
Mof_O 	O 	0.8725	0.6223	0.1587	-1.336
Mof_O 	O 	0.9381	0.7539	0.1949	-0.513
Mof_O 	O 	0.2541	0.5812	0.1204	-4.34
Mof_O 	O 	0.01	0.6291	0.287	17.982
Mof_O 	O 	0.1305	0.6344	0.9883	-4.12
Mof_O 	O 	0.9849	0.5057	0.6745	18.704
Mof_O 	O 	0.0792	0.5776	0.4894	18.679
Mof_O 	O 	0.0577	0.6282	0.7628	-4.229
Mof_O 	O 	0.135	0.5002	0.7219	-1.058
Mof_P 	P 	0.5524	0.435	0.6659	-3.736
Mof_P 	P 	0.5641	0.3341	0.084	-0.629
Mof_P 	P 	0.6653	0.5455	0.1572	-0.93
Mof_Al	Al	0.66605	0.4341	0.9075	17.145
Mof_Al	Al	0.4505	0.33347	0.8402	6.957
Mof_Al	Al	0.4348	0.55608	0.6637	-70.514
Mof_O 	O 	0.4873	0.3412	0.9893	-1.476
Mof_O 	O 	0.6572	0.5042	0.993	-3.912
Mof_O 	O 	0.5581	0.3752	0.2487	18.067
Mof_O 	O 	0.6223	0.6275	0.1587	-1.323
Mof_O 	O 	0.7539	0.5619	0.1949	-1.742
Mof_O 	O 	0.5812	0.2459	0.1204	-4.104
Mof_O 	O 	0.6291	0.49	0.287	17.969
Mof_O 	O 	0.6344	0.3695	0.9883	-3.934
Mof_O 	O 	0.5057	0.5151	0.6745	18.739
Mof_O 	O 	0.5776	0.4208	0.4894	18.699
Mof_O 	O 	0.6282	0.4423	0.7628	-4.044
Mof_O 	O 	0.5002	0.365	0.7219	-1.023
Mof_P 	P 	0.9476	0.065	0.6659	-3.855
Mof_P 	P 	0.9359	0.1659	0.084	-0.713
Mof_P 	P 	0.8347	0.9545	0.1572	-1.225
Mof_Al	Al	0.83395	0.0659	0.9075	16.204
Mof_Al	Al	0.0495	0.16653	0.8402	2.233
Mof_Al	Al	0.0652	0.94392	0.6637	-70.321
Mof_O 	O 	0.0127	0.1588	0.9893	-0.325
Mof_O 	O 	0.8428	0.9958	0.993	-3.669
Mof_O 	O 	0.9419	0.1248	0.2487	18.078
Mof_O 	O 	0.8777	0.8725	0.1587	-0.103
Mof_O 	O 	0.7461	0.9381	0.1949	-1.27
Mof_O 	O 	0.9188	0.2541	0.1204	-4.49
Mof_O 	O 	0.8709	0.01	0.287	18.042
Mof_O 	O 	0.8656	0.1305	0.9883	-3.635
Mof_O 	O 	0.9943	0.9849	0.6745	18.632
Mof_O 	O 	0.9224	0.0792	0.4894	18.692
Mof_O 	O 	0.8718	0.0577	0.7628	-3.732
Mof_O 	O 	0.9998	0.135	0.7219	0.22
_end
