data_functionalizedCrystal
_audit_creation_method	'EQeq! by Chris Wilmer'
_symmetry_space_group_name_H-M	'P1'
_symmetry_Int_Tables_number	1
_symmetry_cell_setting	triclinic
loop_
_symmetry_equiv_pos_as_xyz
  x,y,z
_cell_length_a	14.1192
_cell_length_b	33.389
_cell_length_c	16.938
_cell_angle_alpha	90
_cell_angle_beta	111.664
_cell_angle_gamma	90
loop_
_atom_site_label
_atom_site_type_symbol
_atom_site_fract_x
_atom_site_fract_y
_atom_site_fract_z
_atom_site_charge
Mof_Zn	Zn	0.66439	0.1343	0.40264	1.249
Mof_O 	O 	0.543	0.0952	0.386	-0.483
Mof_Zn	Zn	0.4947	0.21115	0.4148	1.225
Mof_Zn	Zn	0.31271	0.05949	0.8236	1.235
Mof_Zn	Zn	0.09577	0.0872	0.8513	1.232
Mof_O 	O 	0.5832	0.1849	0.5198	-0.526
Mof_O 	O 	0.7119	0.1472	0.5248	-0.483
Mof_O 	O 	0.9601	0.1093	0.8066	-0.442
Mof_O 	O 	0.0001	0.1566	0.9054	-0.304
Mof_O 	O 	0.8481	0.276	0.831	-0.419
Mof_O 	O 	0.8617	0.2935	0.9541	-0.395
Mof_O 	O 	0.332	0.1174	0.862	-0.137
Mof_O 	O 	0.1651	0.1299	0.8094	-0.503
Mof_O 	O 	0.0775	0.2694	0.8527	-0.48
Mof_O 	O 	0.1773	0.3186	0.8408	-0.484
Mof_O 	O 	0.7563	0.0969	0.3804	-0.415
Mof_O 	O 	0.8826	0.1407	0.4252	-0.293
Mof_O 	O 	0.7997	0.9729	0.2471	-0.498
Mof_O 	O 	0.9336	0.9639	0.2111	-0.5
Mof_O 	O 	0.485	0.1504	0.361	-0.331
Mof_O 	O 	0.1826	0.0784	0.9691	-0.472
Mof_O 	O 	0.3007	0.0465	0.9343	-0.476
Mof_O 	O 	0.584	0.9754	0.286	-0.206
Mof_O 	O 	0.5632	0.9718	0.1542	-0.445
Mof_C 	C 	0.6646	0.1682	0.5583	0.472
Mof_C 	C 	0.7078	0.1743	0.6489	-0.158
Mof_C 	C 	0.6637	0.2002	0.6916	0.048
Mof_H 	H 	0.6021	0.2126	0.6607	0.029
Mof_C 	C 	0.7077	0.2076	0.776	-0.055
Mof_C 	C 	0.7991	0.1886	0.8243	0.029
Mof_H 	H 	0.829	0.1939	0.8822	0.032
Mof_C 	C 	0.8461	0.1617	0.7867	-0.114
Mof_C 	C 	0.8009	0.1549	0.7033	0.079
Mof_H 	H 	0.831	0.1364	0.6786	0.041
Mof_C 	C 	0.944	0.1417	0.839	0.355
Mof_C 	C 	0.6557	0.2349	0.8171	0.122
Mof_C 	C 	0.7007	0.2684	0.8684	-0.157
Mof_C 	C 	0.6457	0.2914	0.9025	0.107
Mof_H 	H 	0.6766	0.3136	0.9348	0.01
Mof_C 	C 	0.5471	0.283	0.8912	-0.174
Mof_H 	H 	0.5109	0.2996	0.9142	0.111
Mof_C 	C 	0.5004	0.2482	0.8434	0.122
Mof_C 	C 	0.5541	0.2262	0.8055	-0.179
Mof_H 	H 	0.522	0.2048	0.7708	0.101
Mof_C 	C 	0.81	0.2797	0.884	0.371
Mof_C 	C 	0.3953	0.2366	0.8362	-0.059
Mof_C 	C 	0.3709	0.1956	0.8266	0.039
Mof_H 	H 	0.4174	0.1771	0.8214	0.036
Mof_C 	C 	0.2754	0.183	0.8251	-0.148
Mof_C 	C 	0.2054	0.2109	0.8272	0.084
Mof_H 	H 	0.1418	0.2025	0.8252	0.033
Mof_C 	C 	0.2279	0.2517	0.8322	-0.135
Mof_C 	C 	0.3228	0.2648	0.8364	0.03
Mof_H 	H 	0.3378	0.292	0.8392	0.047
Mof_C 	C 	0.1562	0.283	0.8417	0.429
Mof_C 	C 	0.253	0.14	0.823	0.444
Mof_C 	C 	0.8465	0.1097	0.3899	0.342
Mof_C 	C 	0.908	0.0818	0.358	-0.094
Mof_C 	C 	0.8668	0.0462	0.3153	0.055
Mof_H 	H 	0.8001	0.039	0.3065	0.051
Mof_C 	C 	0.9261	0.022	0.2863	-0.128
Mof_C 	C 	0.0255	0.0329	0.2989	0.038
Mof_H 	H 	0.0649	0.0156	0.2808	0.037
Mof_C 	C 	0.0673	0.0679	0.3366	-0.07
Mof_C 	C 	0.0068	0.0924	0.368	0.02
Mof_H 	H 	0.034	0.1161	0.3961	0.039
Mof_C 	C 	0.8836	0.9833	0.2422	0.441
Mof_C 	C 	0.1727	0.079	0.3489	0.156
Mof_C 	C 	0.235	0.1012	0.4172	-0.217
Mof_H 	H 	0.2108	0.1108	0.4578	0.116
Mof_C 	C 	0.3344	0.1091	0.4242	0.178
Mof_H 	H 	0.3766	0.1233	0.4712	-0.024
Mof_C 	C 	0.3722	0.097	0.3657	-0.276
Mof_C 	C 	0.311	0.0755	0.2948	0.186
Mof_C 	C 	0.2103	0.0672	0.2868	-0.215
Mof_H 	H 	0.1676	0.0535	0.239	0.113
Mof_C 	C 	0.479	0.1106	0.384	0.604
Mof_C 	C 	0.3458	0.059	0.2277	-0.066
Mof_C 	C 	0.2914	0.0663	0.1432	0.038
Mof_H 	H 	0.2335	0.0823	0.1282	0.039
Mof_C 	C 	0.3206	0.0504	0.0782	-0.135
Mof_C 	C 	0.4035	0.0261	0.1013	0.061
Mof_H 	H 	0.4238	0.0152	0.0595	0.045
Mof_C 	C 	0.4602	0.0167	0.1886	-0.104
Mof_C 	C 	0.431	0.0345	0.2501	0.028
Mof_H 	H 	0.4692	0.0299	0.3072	0.063
Mof_C 	C 	0.266	0.0587	0.9892	0.398
Mof_C 	C 	0.549	0.9889	0.214	0.379
Mof_O 	O 	0.555	0.0831	0.438	-0.048
Mof_O 	O 	0.321	0.1164	0.818	-0.387
Mof_O 	O 	0.508	0.131	0.342	-0.211
Mof_O 	O 	0.612	0.9925	0.289	-0.101
Mof_Zn	Zn	0.83561	0.6343	0.09736	1.25
Mof_O 	O 	0.957	0.5952	0.114	-0.479
Mof_Zn	Zn	0.0053	0.71115	0.0852	1.225
Mof_Zn	Zn	0.18729	0.55949	0.6764	1.236
Mof_Zn	Zn	0.40423	0.5872	0.6487	1.233
Mof_O 	O 	0.9168	0.6849	0.9802	-0.525
Mof_O 	O 	0.7881	0.6472	0.9752	-0.482
Mof_O 	O 	0.5399	0.6093	0.6934	-0.441
Mof_O 	O 	0.4999	0.6566	0.5946	-0.307
Mof_O 	O 	0.6519	0.776	0.669	-0.417
Mof_O 	O 	0.6383	0.7935	0.5459	-0.393
Mof_O 	O 	0.168	0.6174	0.638	-0.136
Mof_O 	O 	0.3349	0.6299	0.6906	-0.504
Mof_O 	O 	0.4225	0.7694	0.6473	-0.481
Mof_O 	O 	0.3227	0.8186	0.6592	-0.485
Mof_O 	O 	0.7437	0.5969	0.1196	-0.414
Mof_O 	O 	0.6174	0.6407	0.0748	-0.293
Mof_O 	O 	0.7003	0.4729	0.2529	-0.498
Mof_O 	O 	0.5664	0.4639	0.2889	-0.5
Mof_O 	O 	0.015	0.6504	0.139	-0.336
Mof_O 	O 	0.3174	0.5784	0.5309	-0.472
Mof_O 	O 	0.1993	0.5465	0.5657	-0.476
Mof_O 	O 	0.916	0.4754	0.214	-0.206
Mof_O 	O 	0.9368	0.4718	0.3458	-0.445
Mof_C 	C 	0.8354	0.6682	0.9417	0.472
Mof_C 	C 	0.7922	0.6743	0.8511	-0.159
Mof_C 	C 	0.8363	0.7002	0.8084	0.048
Mof_H 	H 	0.8979	0.7126	0.8393	0.029
Mof_C 	C 	0.7923	0.7076	0.724	-0.056
Mof_C 	C 	0.7009	0.6886	0.6757	0.03
Mof_H 	H 	0.671	0.6939	0.6178	0.032
Mof_C 	C 	0.6539	0.6617	0.7133	-0.115
Mof_C 	C 	0.6991	0.6549	0.7967	0.08
Mof_H 	H 	0.669	0.6364	0.8214	0.04
Mof_C 	C 	0.556	0.6417	0.661	0.36
Mof_C 	C 	0.8443	0.7349	0.6829	0.123
Mof_C 	C 	0.7993	0.7684	0.6316	-0.157
Mof_C 	C 	0.8543	0.7914	0.5975	0.108
Mof_H 	H 	0.8234	0.8136	0.5652	0.01
Mof_C 	C 	0.9529	0.783	0.6088	-0.176
Mof_H 	H 	0.9891	0.7996	0.5858	0.112
Mof_C 	C 	0.9996	0.7482	0.6566	0.125
Mof_C 	C 	0.9459	0.7262	0.6945	-0.181
Mof_H 	H 	0.978	0.7048	0.7292	0.102
Mof_C 	C 	0.69	0.7797	0.616	0.371
Mof_C 	C 	0.1047	0.7366	0.6638	-0.061
Mof_C 	C 	0.1291	0.6956	0.6734	0.04
Mof_H 	H 	0.0826	0.6771	0.6786	0.035
Mof_C 	C 	0.2246	0.683	0.6749	-0.149
Mof_C 	C 	0.2946	0.7109	0.6728	0.085
Mof_H 	H 	0.3582	0.7025	0.6748	0.032
Mof_C 	C 	0.2721	0.7517	0.6678	-0.136
Mof_C 	C 	0.1772	0.7648	0.6636	0.031
Mof_H 	H 	0.1622	0.792	0.6608	0.046
Mof_C 	C 	0.3438	0.783	0.6583	0.429
Mof_C 	C 	0.247	0.64	0.677	0.445
Mof_C 	C 	0.6535	0.6097	0.1101	0.341
Mof_C 	C 	0.592	0.5818	0.142	-0.094
Mof_C 	C 	0.6332	0.5462	0.1847	0.055
Mof_H 	H 	0.6999	0.539	0.1935	0.051
Mof_C 	C 	0.5739	0.522	0.2137	-0.129
Mof_C 	C 	0.4745	0.5329	0.2011	0.039
Mof_H 	H 	0.4351	0.5156	0.2192	0.037
Mof_C 	C 	0.4327	0.5679	0.1634	-0.069
Mof_C 	C 	0.4932	0.5924	0.132	0.019
Mof_H 	H 	0.466	0.6161	0.1039	0.039
Mof_C 	C 	0.6164	0.4833	0.2578	0.442
Mof_C 	C 	0.3273	0.579	0.1511	0.155
Mof_C 	C 	0.265	0.6012	0.0828	-0.216
Mof_H 	H 	0.2892	0.6108	0.0422	0.115
Mof_C 	C 	0.1656	0.6091	0.0758	0.175
Mof_H 	H 	0.1234	0.6233	0.0288	-0.023
Mof_C 	C 	0.1278	0.597	0.1343	-0.272
Mof_C 	C 	0.189	0.5755	0.2052	0.184
Mof_C 	C 	0.2897	0.5672	0.2132	-0.214
Mof_H 	H 	0.3324	0.5535	0.261	0.113
Mof_C 	C 	0.021	0.6106	0.116	0.596
Mof_C 	C 	0.1542	0.559	0.2723	-0.066
Mof_C 	C 	0.2086	0.5663	0.3568	0.038
Mof_H 	H 	0.2665	0.5823	0.3718	0.039
Mof_C 	C 	0.1794	0.5504	0.4218	-0.135
Mof_C 	C 	0.0965	0.5261	0.3987	0.061
Mof_H 	H 	0.0762	0.5152	0.4405	0.045
Mof_C 	C 	0.0398	0.5167	0.3114	-0.104
Mof_C 	C 	0.069	0.5345	0.2499	0.028
Mof_H 	H 	0.0308	0.5299	0.1928	0.062
Mof_C 	C 	0.234	0.5587	0.5108	0.398
Mof_C 	C 	0.951	0.4889	0.286	0.38
Mof_O 	O 	0.945	0.5831	0.062	-0.047
Mof_O 	O 	0.179	0.6164	0.682	-0.387
Mof_O 	O 	0.992	0.631	0.158	-0.202
Mof_O 	O 	0.888	0.4925	0.211	-0.101
Mof_Zn	Zn	0.33561	0.8657	0.59736	1.25
Mof_O 	O 	0.457	0.9048	0.614	-0.482
Mof_Zn	Zn	0.5053	0.78885	0.5852	1.226
Mof_Zn	Zn	0.68729	0.94051	0.1764	1.236
Mof_Zn	Zn	0.90423	0.9128	0.1487	1.233
Mof_O 	O 	0.4168	0.8151	0.4802	-0.525
Mof_O 	O 	0.2881	0.8528	0.4752	-0.482
Mof_O 	O 	0.0399	0.8907	0.1934	-0.441
Mof_O 	O 	0.9999	0.8434	0.0946	-0.303
Mof_O 	O 	0.1519	0.724	0.169	-0.418
Mof_O 	O 	0.1383	0.7065	0.0459	-0.394
Mof_O 	O 	0.668	0.8826	0.138	-0.136
Mof_O 	O 	0.8349	0.8701	0.1906	-0.503
Mof_O 	O 	0.9225	0.7306	0.1473	-0.48
Mof_O 	O 	0.8227	0.6814	0.1592	-0.484
Mof_O 	O 	0.2437	0.9031	0.6196	-0.415
Mof_O 	O 	0.1174	0.8593	0.5748	-0.293
Mof_O 	O 	0.2003	0.0271	0.7529	-0.498
Mof_O 	O 	0.0664	0.0361	0.7889	-0.5
Mof_O 	O 	0.515	0.8496	0.639	-0.331
Mof_O 	O 	0.8174	0.9216	0.0309	-0.472
Mof_O 	O 	0.6993	0.9535	0.0657	-0.476
Mof_O 	O 	0.416	0.0246	0.714	-0.206
Mof_O 	O 	0.4368	0.0282	0.8458	-0.445
Mof_C 	C 	0.3354	0.8318	0.4417	0.472
Mof_C 	C 	0.2922	0.8257	0.3511	-0.158
Mof_C 	C 	0.3363	0.7998	0.3084	0.048
Mof_H 	H 	0.3979	0.7874	0.3393	0.029
Mof_C 	C 	0.2923	0.7924	0.224	-0.055
Mof_C 	C 	0.2009	0.8114	0.1757	0.029
Mof_H 	H 	0.171	0.8061	0.1178	0.032
Mof_C 	C 	0.1539	0.8383	0.2133	-0.114
Mof_C 	C 	0.1991	0.8451	0.2967	0.079
Mof_H 	H 	0.169	0.8636	0.3214	0.041
Mof_C 	C 	0.056	0.8583	0.161	0.355
Mof_C 	C 	0.3443	0.7651	0.1829	0.122
Mof_C 	C 	0.2993	0.7316	0.1316	-0.157
Mof_C 	C 	0.3543	0.7086	0.0975	0.107
Mof_H 	H 	0.3234	0.6864	0.0652	0.01
Mof_C 	C 	0.4529	0.717	0.1088	-0.174
Mof_H 	H 	0.4891	0.7004	0.0858	0.111
Mof_C 	C 	0.4996	0.7518	0.1566	0.122
Mof_C 	C 	0.4459	0.7738	0.1945	-0.179
Mof_H 	H 	0.478	0.7952	0.2292	0.101
Mof_C 	C 	0.19	0.7203	0.116	0.371
Mof_C 	C 	0.6047	0.7634	0.1638	-0.059
Mof_C 	C 	0.6291	0.8044	0.1734	0.039
Mof_H 	H 	0.5826	0.8229	0.1786	0.036
Mof_C 	C 	0.7246	0.817	0.1749	-0.148
Mof_C 	C 	0.7946	0.7891	0.1728	0.084
Mof_H 	H 	0.8582	0.7975	0.1748	0.033
Mof_C 	C 	0.7721	0.7483	0.1678	-0.135
Mof_C 	C 	0.6772	0.7352	0.1636	0.03
Mof_H 	H 	0.6622	0.708	0.1608	0.047
Mof_C 	C 	0.8438	0.717	0.1583	0.429
Mof_C 	C 	0.747	0.86	0.177	0.444
Mof_C 	C 	0.1535	0.8903	0.6101	0.342
Mof_C 	C 	0.092	0.9182	0.642	-0.094
Mof_C 	C 	0.1332	0.9538	0.6847	0.055
Mof_H 	H 	0.1999	0.961	0.6935	0.051
Mof_C 	C 	0.0739	0.978	0.7137	-0.128
Mof_C 	C 	0.9745	0.9671	0.7011	0.038
Mof_H 	H 	0.9351	0.9844	0.7192	0.037
Mof_C 	C 	0.9327	0.9321	0.6634	-0.07
Mof_C 	C 	0.9932	0.9076	0.632	0.02
Mof_H 	H 	0.966	0.8839	0.6039	0.039
Mof_C 	C 	0.1164	0.0167	0.7578	0.441
Mof_C 	C 	0.8273	0.921	0.6511	0.156
Mof_C 	C 	0.765	0.8988	0.5828	-0.217
Mof_H 	H 	0.7892	0.8892	0.5422	0.116
Mof_C 	C 	0.6656	0.8909	0.5758	0.178
Mof_H 	H 	0.6234	0.8767	0.5288	-0.024
Mof_C 	C 	0.6278	0.903	0.6343	-0.276
Mof_C 	C 	0.689	0.9245	0.7052	0.186
Mof_C 	C 	0.7897	0.9328	0.7132	-0.215
Mof_H 	H 	0.8324	0.9465	0.761	0.113
Mof_C 	C 	0.521	0.8894	0.616	0.604
Mof_C 	C 	0.6542	0.941	0.7723	-0.066
Mof_C 	C 	0.7086	0.9337	0.8568	0.038
Mof_H 	H 	0.7665	0.9177	0.8718	0.039
Mof_C 	C 	0.6794	0.9496	0.9218	-0.135
Mof_C 	C 	0.5965	0.9739	0.8987	0.061
Mof_H 	H 	0.5762	0.9848	0.9405	0.045
Mof_C 	C 	0.5398	0.9833	0.8114	-0.104
Mof_C 	C 	0.569	0.9655	0.7499	0.028
Mof_H 	H 	0.5308	0.9701	0.6928	0.063
Mof_C 	C 	0.734	0.9413	0.0108	0.398
Mof_C 	C 	0.451	0.0111	0.786	0.379
Mof_O 	O 	0.445	0.9169	0.562	-0.048
Mof_O 	O 	0.679	0.8836	0.182	-0.387
Mof_O 	O 	0.492	0.869	0.658	-0.211
Mof_O 	O 	0.388	0.0075	0.711	-0.101
Mof_Zn	Zn	0.16439	0.3657	0.90264	1.25
Mof_O 	O 	0.043	0.4048	0.886	-0.479
Mof_Zn	Zn	0.9947	0.28885	0.9148	1.225
Mof_Zn	Zn	0.81271	0.44051	0.3236	1.236
Mof_Zn	Zn	0.59577	0.4128	0.3513	1.233
Mof_O 	O 	0.0832	0.3151	0.0198	-0.525
Mof_O 	O 	0.2119	0.3528	0.0248	-0.482
Mof_O 	O 	0.4601	0.3907	0.3066	-0.441
Mof_O 	O 	0.5001	0.3434	0.4054	-0.307
Mof_O 	O 	0.3481	0.224	0.331	-0.417
Mof_O 	O 	0.3617	0.2065	0.4541	-0.393
Mof_O 	O 	0.832	0.3826	0.362	-0.136
Mof_O 	O 	0.6651	0.3701	0.3094	-0.504
Mof_O 	O 	0.5775	0.2306	0.3527	-0.481
Mof_O 	O 	0.6773	0.1814	0.3408	-0.485
Mof_O 	O 	0.2563	0.4031	0.8804	-0.414
Mof_O 	O 	0.3826	0.3593	0.9252	-0.293
Mof_O 	O 	0.2997	0.5271	0.7471	-0.498
Mof_O 	O 	0.4336	0.5361	0.7111	-0.5
Mof_O 	O 	0.985	0.3496	0.861	-0.336
Mof_O 	O 	0.6826	0.4216	0.4691	-0.472
Mof_O 	O 	0.8007	0.4535	0.4343	-0.476
Mof_O 	O 	0.084	0.5246	0.786	-0.206
Mof_O 	O 	0.0632	0.5282	0.6542	-0.445
Mof_C 	C 	0.1646	0.3318	0.0583	0.472
Mof_C 	C 	0.2078	0.3257	0.1489	-0.159
Mof_C 	C 	0.1637	0.2998	0.1916	0.048
Mof_H 	H 	0.1021	0.2874	0.1607	0.029
Mof_C 	C 	0.2077	0.2924	0.276	-0.056
Mof_C 	C 	0.2991	0.3114	0.3243	0.03
Mof_H 	H 	0.329	0.3061	0.3822	0.032
Mof_C 	C 	0.3461	0.3383	0.2867	-0.115
Mof_C 	C 	0.3009	0.3451	0.2033	0.08
Mof_H 	H 	0.331	0.3636	0.1786	0.04
Mof_C 	C 	0.444	0.3583	0.339	0.36
Mof_C 	C 	0.1557	0.2651	0.3171	0.123
Mof_C 	C 	0.2007	0.2316	0.3684	-0.157
Mof_C 	C 	0.1457	0.2086	0.4025	0.108
Mof_H 	H 	0.1766	0.1864	0.4348	0.01
Mof_C 	C 	0.0471	0.217	0.3912	-0.176
Mof_H 	H 	0.0109	0.2004	0.4142	0.112
Mof_C 	C 	0.0004	0.2518	0.3434	0.125
Mof_C 	C 	0.0541	0.2738	0.3055	-0.181
Mof_H 	H 	0.022	0.2952	0.2708	0.102
Mof_C 	C 	0.31	0.2203	0.384	0.371
Mof_C 	C 	0.8953	0.2634	0.3362	-0.061
Mof_C 	C 	0.8709	0.3044	0.3266	0.04
Mof_H 	H 	0.9174	0.3229	0.3214	0.035
Mof_C 	C 	0.7754	0.317	0.3251	-0.149
Mof_C 	C 	0.7054	0.2891	0.3272	0.085
Mof_H 	H 	0.6418	0.2975	0.3252	0.032
Mof_C 	C 	0.7279	0.2483	0.3322	-0.136
Mof_C 	C 	0.8228	0.2352	0.3364	0.031
Mof_H 	H 	0.8378	0.208	0.3392	0.046
Mof_C 	C 	0.6562	0.217	0.3417	0.429
Mof_C 	C 	0.753	0.36	0.323	0.445
Mof_C 	C 	0.3465	0.3903	0.8899	0.341
Mof_C 	C 	0.408	0.4182	0.858	-0.094
Mof_C 	C 	0.3668	0.4538	0.8153	0.055
Mof_H 	H 	0.3001	0.461	0.8065	0.051
Mof_C 	C 	0.4261	0.478	0.7863	-0.129
Mof_C 	C 	0.5255	0.4671	0.7989	0.039
Mof_H 	H 	0.5649	0.4844	0.7808	0.037
Mof_C 	C 	0.5673	0.4321	0.8366	-0.069
Mof_C 	C 	0.5068	0.4076	0.868	0.019
Mof_H 	H 	0.534	0.3839	0.8961	0.039
Mof_C 	C 	0.3836	0.5167	0.7422	0.442
Mof_C 	C 	0.6727	0.421	0.8489	0.155
Mof_C 	C 	0.735	0.3988	0.9172	-0.216
Mof_H 	H 	0.7108	0.3892	0.9578	0.115
Mof_C 	C 	0.8344	0.3909	0.9242	0.175
Mof_H 	H 	0.8766	0.3767	0.9712	-0.023
Mof_C 	C 	0.8722	0.403	0.8657	-0.272
Mof_C 	C 	0.811	0.4245	0.7948	0.184
Mof_C 	C 	0.7103	0.4328	0.7868	-0.214
Mof_H 	H 	0.6676	0.4465	0.739	0.113
Mof_C 	C 	0.979	0.3894	0.884	0.596
Mof_C 	C 	0.8458	0.441	0.7277	-0.066
Mof_C 	C 	0.7914	0.4337	0.6432	0.038
Mof_H 	H 	0.7335	0.4177	0.6282	0.039
Mof_C 	C 	0.8206	0.4496	0.5782	-0.135
Mof_C 	C 	0.9035	0.4739	0.6013	0.061
Mof_H 	H 	0.9238	0.4848	0.5595	0.045
Mof_C 	C 	0.9602	0.4833	0.6886	-0.104
Mof_C 	C 	0.931	0.4655	0.7501	0.028
Mof_H 	H 	0.9692	0.4701	0.8072	0.062
Mof_C 	C 	0.766	0.4413	0.4892	0.398
Mof_C 	C 	0.049	0.5111	0.714	0.38
Mof_O 	O 	0.055	0.4169	0.938	-0.047
Mof_O 	O 	0.821	0.3836	0.318	-0.387
Mof_O 	O 	0.008	0.369	0.842	-0.202
Mof_O 	O 	0.112	0.5075	0.789	-0.101
_end
