data_functionalizedCrystal
_audit_creation_method	'EQeq! by Chris Wilmer'
_symmetry_space_group_name_H-M	'P1'
_symmetry_Int_Tables_number	1
_symmetry_cell_setting	triclinic
loop_
_symmetry_equiv_pos_as_xyz
  x,y,z
_cell_length_a	6.128
_cell_length_b	12.193
_cell_length_c	22.675
_cell_angle_alpha	90
_cell_angle_beta	90
_cell_angle_gamma	89.683
loop_
_atom_site_label
_atom_site_type_symbol
_atom_site_fract_x
_atom_site_fract_y
_atom_site_fract_z
_atom_site_charge
Mof_Nd	Nd	0.04396	0.44335	0.3513	1.938
Mof_Nd	Nd	0.95604	0.55665	0.6487	2.019
Mof_Nd	Nd	0.45604	0.05665	0.8513	1.919
Mof_Nd	Nd	0.54396	0.94335	0.1487	2.049
Mof_Cu	Cu	0.5	7.4499e-33	0.5	0.91
Mof_Cu	Cu	-0	0.5	-0	0.897
Mof_H 	H 	0.3292	0.1089	0.617	0.047
Mof_H 	H 	0.0704	0.3957	0.7893	0.018
Mof_H 	H 	0.4296	0.1043	0.2893	0.022
Mof_H 	H 	0.0584	0.7569	0.1617	-0.019
Mof_H 	H 	0.4547	0.4259	0.1786	0.06
Mof_H 	H 	0.5453	0.5741	0.8214	0.06
Mof_H 	H 	0.1708	0.3911	0.117	0.033
Mof_H 	H 	0.6708	0.8911	0.383	0.041
Mof_H 	H 	0.9416	0.2431	0.8383	0.014
Mof_H 	H 	0.8292	0.6089	0.883	0.048
Mof_H 	H 	0.5584	0.2569	0.3383	0.009
Mof_H 	H 	0.9547	0.9259	0.3214	0.057
Mof_H 	H 	0.5704	0.8957	0.7107	0.036
Mof_H 	H 	0.4416	0.7431	0.6617	0.005
Mof_H 	H 	0.0453	0.0741	0.6786	0.062
Mof_H 	H 	0.9296	0.6043	0.2107	0.079
Mof_C 	C 	0.0643	0.0307	0.6453	-0.032
Mof_C 	C 	0.8404	0.7236	0.7633	0.356
Mof_C 	C 	0.7824	0.8028	0.5762	0.417
Mof_C 	C 	0.0672	0.6312	0.2199	-0.059
Mof_C 	C 	0.5224	0.5457	0.3127	0.424
Mof_C 	C 	0.2176	0.1972	0.4238	0.419
Mof_C 	C 	0.8834	0.1201	0.2263	-0.033
Mof_C 	C 	0.4776	0.4543	0.6873	0.43
Mof_C 	C 	0.0465	0.1103	0.4127	-0.086
Mof_C 	C 	0.1166	0.8799	0.7737	-0.057
Mof_C 	C 	0.7176	0.6972	0.0762	0.411
Mof_C 	C 	0.2824	0.3028	0.9238	0.42
Mof_C 	C 	0.0224	0.0457	0.1873	0.357
Mof_C 	C 	0.4357	0.4693	0.1453	0.005
Mof_C 	C 	0.7659	0.9481	0.3916	0.047
Mof_C 	C 	0.5465	0.6103	0.0873	-0.044
Mof_C 	C 	0.3834	0.6201	0.2737	-0.063
Mof_C 	C 	0.5672	0.1312	0.2801	0.021
Mof_C 	C 	0.4535	0.3897	0.9127	-0.058
Mof_C 	C 	0.3404	0.2236	0.7367	0.352
Mof_C 	C 	0.1596	0.2764	0.2367	0.321
Mof_C 	C 	0.9535	0.8897	0.5873	-0.036
Mof_C 	C 	0.2341	0.0519	0.6084	-0.003
Mof_C 	C 	0.9607	0.2139	0.2558	0.01
Mof_C 	C 	0.9776	0.9543	0.8127	0.434
Mof_C 	C 	0.5393	0.2861	0.7558	-0.018
Mof_C 	C 	0.9328	0.3688	0.7801	0.041
Mof_C 	C 	0.4607	0.7139	0.2442	-0.013
Mof_C 	C 	0.4328	0.8688	0.7199	0.023
Mof_C 	C 	0.1448	0.7237	0.1904	0.073
Mof_C 	C 	0.9357	0.9693	0.3547	0.059
Mof_C 	C 	0.7341	0.5519	0.8916	0.03
Mof_C 	C 	0.8237	0.1513	0.508	0.296
Mof_C 	C 	0.8552	0.2763	0.8096	0.026
Mof_C 	C 	0.3237	0.6513	0.992	0.34
Mof_C 	C 	0.1268	0.91	0.5488	-0.026
Mof_C 	C 	0.5643	0.5307	0.8547	0.005
Mof_C 	C 	0.2659	0.4481	0.1084	0.024
Mof_C 	C 	0.3552	0.7763	0.6904	0.04
Mof_C 	C 	0.3732	0.59	0.0488	-0.062
Mof_C 	C 	0.0393	0.7861	0.7442	-0.02
Mof_C 	C 	0.8732	0.09	0.4512	0.001
Mof_C 	C 	0.1763	0.8487	0.492	0.304
Mof_C 	C 	0.6448	0.2237	0.3096	0.034
Mof_C 	C 	0.6763	0.3487	0.008	0.267
Mof_C 	C 	0.6596	0.7764	0.2633	0.351
Mof_C 	C 	0.6268	0.41	0.9512	0.015
Mof_C 	C 	0.6166	0.3799	0.7263	-0.061
Mof_N 	N 	0.8145	0.4185	0.7394	-0.179
Mof_N 	N 	0.3145	0.9185	0.7606	-0.164
Mof_N 	N 	0.7346	0.0082	0.4397	-0.206
Mof_N 	N 	0.6605	0.235	0.7975	-0.192
Mof_N 	N 	0.7654	0.4918	0.9397	-0.177
Mof_N 	N 	0.2654	0.9918	0.5603	-0.158
Mof_N 	N 	0.9216	0.9491	0.635	-0.068
Mof_N 	N 	0.5784	0.5509	0.135	-0.09
Mof_N 	N 	0.0784	0.0509	0.365	-0.121
Mof_N 	N 	0.2346	0.5082	0.0603	-0.188
Mof_N 	N 	0.3395	0.765	0.2025	-0.205
Mof_N 	N 	0.6855	0.0815	0.2394	-0.189
Mof_N 	N 	0.8395	0.265	0.2975	-0.189
Mof_N 	N 	0.4216	0.4491	0.865	-0.089
Mof_N 	N 	0.1605	0.735	0.7025	-0.198
Mof_N 	N 	0.1855	0.5815	0.2606	-0.164
Mof_O 	O 	0.7152	0.5216	0.2986	-0.482
Mof_O 	O 	0.6989	0.785	0.1044	-0.543
Mof_O 	O 	0.7219	0.8526	0.23	-0.457
Mof_O 	O 	0.3179	0.8916	0.4592	-0.354
Mof_O 	O 	0.6821	0.1084	0.5408	-0.37
Mof_O 	O 	0.8179	0.3916	0.0408	-0.352
Mof_O 	O 	0.1989	0.285	0.3956	-0.54
Mof_O 	O 	0.7392	0.7527	0.3117	-0.286
Mof_O 	O 	0.7781	0.6474	0.73	-0.47
Mof_O 	O 	0.0779	0.9951	0.855	-0.527
Mof_O 	O 	0.3753	0.1704	0.4554	-0.364
Mof_O 	O 	0.9221	0.0049	0.145	-0.538
Mof_O 	O 	0.1247	0.3296	0.9554	-0.352
Mof_O 	O 	0.2392	0.2527	0.1883	-0.298
Mof_O 	O 	0.5779	0.4951	0.645	-0.558
Mof_O 	O 	0.2152	0.0216	0.2014	-0.509
Mof_O 	O 	0.1821	0.6084	0.9592	-0.363
Mof_O 	O 	0.4221	0.5049	0.355	-0.545
Mof_O 	O 	0.4294	0.7354	0.9815	-0.294
Mof_O 	O 	0.3011	0.215	0.8956	-0.536
Mof_O 	O 	0.0706	0.7646	0.4815	-0.311
Mof_O 	O 	0.6247	0.8296	0.5446	-0.35
Mof_O 	O 	0.2848	0.4784	0.7014	-0.504
Mof_O 	O 	0.2219	0.3526	0.27	-0.46
Mof_O 	O 	0.8011	0.715	0.6044	-0.541
Mof_O 	O 	0.7848	0.9784	0.7986	-0.473
Mof_O 	O 	0.2781	0.1474	0.77	-0.473
Mof_O 	O 	0.8753	0.6704	0.0446	-0.357
Mof_O 	O 	0.2608	0.2473	0.6883	-0.3
Mof_O 	O 	0.5706	0.2646	0.0185	-0.315
Mof_O 	O 	0.7608	0.7473	0.8117	-0.291
Mof_O 	O 	0.9294	0.2354	0.5185	-0.296
_end
