data_functionalizedCrystal
_audit_creation_method	'EQeq! by Chris Wilmer'
_symmetry_space_group_name_H-M	'P1'
_symmetry_Int_Tables_number	1
_symmetry_cell_setting	triclinic
loop_
_symmetry_equiv_pos_as_xyz
  x,y,z
_cell_length_a	28.6376
_cell_length_b	10.5812
_cell_length_c	22.7685
_cell_angle_alpha	90
_cell_angle_beta	90
_cell_angle_gamma	90
loop_
_atom_site_label
_atom_site_type_symbol
_atom_site_fract_x
_atom_site_fract_y
_atom_site_fract_z
_atom_site_charge
Mof_C 	C 	0.61471	0.1176	0.4396	0.145
Mof_C 	C 	0.65977	0.1689	0.4194	-0.119
Mof_C 	C 	0.68433	0.2498	0.4549	0.104
Mof_H 	H 	0.6722	0.2726	0.4913	0.002
Mof_C 	C 	0.72693	0.2976	0.437	-0.256
Mof_H 	H 	0.7434	0.3522	0.4614	0.125
Mof_C 	C 	0.74523	0.2646	0.3829	0.277
Mof_C 	C 	0.7213	0.1814	0.3477	-0.254
Mof_H 	H 	0.7338	0.1566	0.3118	0.128
Mof_C 	C 	0.6789	0.1348	0.3659	0.105
Mof_H 	H 	0.6627	0.0791	0.3417	-0.004
Mof_C 	C 	0.8239	0.3278	0.4017	0.258
Mof_C 	C 	0.84576	0.4429	0.4056	-0.234
Mof_H 	H 	0.8345	0.5118	0.3846	0.13
Mof_C 	C 	0.88468	0.4556	0.44109	0.087
Mof_H 	H 	0.8999	0.533	0.4439	0.014
Mof_C 	C 	0.90109	0.3509	0.47283	-0.1
Mof_C 	C 	0.87821	0.2359	0.4687	0.082
Mof_H 	H 	0.889	0.1665	0.4898	0.015
Mof_C 	C 	0.83893	0.2244	0.4329	-0.233
Mof_H 	H 	0.8231	0.1478	0.4303	0.122
Mof_C 	C 	0.94411	0.3606	0.50809	0.144
Mof_C 	C 	0.0413	0.9115	0.3507	0.008
Mof_H 	H 	0.0149	0.8667	0.3624	0.018
Mof_C 	C 	0.0921	0.06	0.3399	-0.058
Mof_H 	H 	0.108	0.1363	0.344	0.048
Mof_C 	C 	0.1042	0.9657	0.3028	-0.004
Mof_H 	H 	0.1291	0.9661	0.2765	0.029
Mof_N 	N 	0.0533	0.0261	0.3703	-0.024
Mof_N 	N 	0.0734	0.8705	0.3112	-0.018
Mof_C 	C 	0.06894	0.7488	0.28063	0.091
Mof_C 	C 	0.06422	0.7388	0.21978	-0.07
Mof_H 	H 	0.0623	0.811	0.1966	0.068
Mof_C 	C 	0.06249	0.6201	0.19439	-0.076
Mof_H 	H 	0.0598	0.6119	0.1539	0.075
Mof_C 	C 	0.06479	0.5143	0.22946	0.09
Mof_C 	C 	0.0705	0.5232	0.28998	-0.068
Mof_H 	H 	0.0729	0.451	0.3131	0.061
Mof_C 	C 	0.07254	0.6424	0.3149	-0.079
Mof_H 	H 	0.0764	0.6506	0.3553	0.075
Mof_C 	C 	0.0944	0.3017	0.2101	-0.08
Mof_H 	H 	0.119	0.2986	0.2367	0.06
Mof_C 	C 	0.0806	0.2091	0.1729	0.044
Mof_H 	H 	0.0949	0.1305	0.1696	0.021
Mof_C 	C 	0.033	0.3645	0.1595	0.024
Mof_H 	H 	0.0082	0.4137	0.1464	0.015
Mof_N 	N 	0.0647	0.4009	0.2005	-0.087
Mof_N 	N 	0.0426	0.2474	0.1409	-0.016
Mof_N 	N 	0.59881	0.1333	0.4944	-0.102
Mof_N 	N 	0.55727	0.0708	0.49537	-0.071
Mof_N 	N 	0.54983	0.0209	0.44303	-0.073
Mof_N 	N 	0.58535	0.0493	0.40642	-0.105
Mof_N 	N 	0.95343	0.4519	0.54643	-0.098
Mof_N 	N 	0.9963	0.4216	0.56911	-0.051
Mof_N 	N 	0.01106	0.3165	0.54555	-0.046
Mof_N 	N 	0.97889	0.276	0.50595	-0.121
Mof_O 	O 	0.78628	0.3159	0.3616	-0.293
Mof_Cd	Cd	0.00371	0.14397	0.431	0.382
Mof_N 	N 	0.0588	0.8722	0.3012	-0.11
Mof_N 	N 	0.0365	0.0283	0.358	-0.119
Mof_C 	C 	0.0722	0.9819	0.2752	-0.011
Mof_H 	H 	0.0884	0.9899	0.24	0.027
Mof_C 	C 	0.0577	0.0774	0.3101	0.049
Mof_H 	H 	0.0617	0.163	0.3024	0.01
Mof_C 	C 	0.0413	0.9022	0.3547	0.062
Mof_H 	H 	0.0338	0.8449	0.3842	0.019
Mof_C 	C 	0.0679	0.262	0.2281	0.065
Mof_H 	H 	0.0856	0.2484	0.2617	0.001
Mof_C 	C 	0.0514	0.1725	0.1912	-0.069
Mof_H 	H 	0.0553	0.0859	0.196	0.055
Mof_C 	C 	0.0329	0.354	0.1541	0.022
Mof_H 	H 	0.0235	0.4159	0.1277	0.022
Mof_N 	N 	0.0536	0.3765	0.2068	-0.031
Mof_N 	N 	0.0282	0.2285	0.146	-0.113
Mof_C 	C 	0.88529	0.8824	0.4396	0.146
Mof_C 	C 	0.84023	0.8311	0.4194	-0.118
Mof_C 	C 	0.81567	0.7502	0.4549	0.105
Mof_H 	H 	0.8278	0.7274	0.4913	0.003
Mof_C 	C 	0.77307	0.7024	0.437	-0.255
Mof_H 	H 	0.7566	0.6478	0.4614	0.126
Mof_C 	C 	0.75477	0.7354	0.3829	0.278
Mof_C 	C 	0.7787	0.8186	0.3477	-0.253
Mof_H 	H 	0.7662	0.8434	0.3118	0.129
Mof_C 	C 	0.8211	0.8652	0.3659	0.106
Mof_H 	H 	0.8373	0.9209	0.3417	-0.003
Mof_C 	C 	0.6761	0.6722	0.4017	0.259
Mof_C 	C 	0.65424	0.5571	0.4056	-0.233
Mof_H 	H 	0.6655	0.4882	0.3846	0.131
Mof_C 	C 	0.61532	0.5444	0.44109	0.088
Mof_H 	H 	0.6001	0.467	0.4439	0.015
Mof_C 	C 	0.59891	0.6491	0.47283	-0.099
Mof_C 	C 	0.62179	0.7641	0.4687	0.083
Mof_H 	H 	0.611	0.8335	0.4898	0.015
Mof_C 	C 	0.66107	0.7756	0.4329	-0.233
Mof_H 	H 	0.6769	0.8522	0.4303	0.122
Mof_C 	C 	0.55589	0.6394	0.50809	0.144
Mof_C 	C 	0.4587	0.0885	0.3507	0.008
Mof_H 	H 	0.4851	0.1333	0.3624	0.018
Mof_C 	C 	0.4079	0.94	0.3399	-0.058
Mof_H 	H 	0.392	0.8637	0.344	0.048
Mof_C 	C 	0.3958	0.0343	0.3028	-0.004
Mof_H 	H 	0.3709	0.0339	0.2765	0.029
Mof_N 	N 	0.4467	0.9739	0.3703	-0.024
Mof_N 	N 	0.4266	0.1295	0.3112	-0.018
Mof_C 	C 	0.43106	0.2512	0.28063	0.091
Mof_C 	C 	0.43578	0.2612	0.21978	-0.07
Mof_H 	H 	0.4377	0.189	0.1966	0.068
Mof_C 	C 	0.43751	0.3799	0.19439	-0.076
Mof_H 	H 	0.4402	0.3881	0.1539	0.075
Mof_C 	C 	0.43521	0.4857	0.22946	0.09
Mof_C 	C 	0.4295	0.4768	0.28998	-0.068
Mof_H 	H 	0.4271	0.549	0.3131	0.061
Mof_C 	C 	0.42746	0.3576	0.3149	-0.079
Mof_H 	H 	0.4236	0.3494	0.3553	0.075
Mof_C 	C 	0.4056	0.6983	0.2101	-0.08
Mof_H 	H 	0.381	0.7014	0.2367	0.06
Mof_C 	C 	0.4194	0.7909	0.1729	0.044
Mof_H 	H 	0.4051	0.8695	0.1696	0.021
Mof_C 	C 	0.467	0.6355	0.1595	0.024
Mof_H 	H 	0.4918	0.5863	0.1464	0.015
Mof_N 	N 	0.4353	0.5991	0.2005	-0.087
Mof_N 	N 	0.4574	0.7526	0.1409	-0.016
Mof_N 	N 	0.90119	0.8667	0.4944	-0.102
Mof_N 	N 	0.94273	0.9292	0.49537	-0.071
Mof_N 	N 	0.95017	0.9791	0.44303	-0.073
Mof_N 	N 	0.91465	0.9507	0.40642	-0.106
Mof_N 	N 	0.54657	0.5481	0.54643	-0.098
Mof_N 	N 	0.5037	0.5784	0.56911	-0.051
Mof_N 	N 	0.48894	0.6835	0.54555	-0.046
Mof_N 	N 	0.52111	0.724	0.50595	-0.121
Mof_O 	O 	0.71372	0.6841	0.3616	-0.293
Mof_Cd	Cd	0.49629	0.85603	0.431	0.381
Mof_N 	N 	0.4412	0.1278	0.3012	-0.11
Mof_N 	N 	0.4635	0.9717	0.358	-0.119
Mof_C 	C 	0.4278	0.0181	0.2752	-0.011
Mof_H 	H 	0.4116	0.0101	0.24	0.027
Mof_C 	C 	0.4423	0.9226	0.3101	0.049
Mof_H 	H 	0.4383	0.837	0.3024	0.01
Mof_C 	C 	0.4587	0.0978	0.3547	0.062
Mof_H 	H 	0.4662	0.1551	0.3842	0.019
Mof_C 	C 	0.4321	0.738	0.2281	0.065
Mof_H 	H 	0.4144	0.7516	0.2617	0.001
Mof_C 	C 	0.4486	0.8275	0.1912	-0.07
Mof_H 	H 	0.4447	0.9141	0.196	0.055
Mof_C 	C 	0.4671	0.646	0.1541	0.022
Mof_H 	H 	0.4765	0.5841	0.1277	0.022
Mof_N 	N 	0.4464	0.6235	0.2068	-0.03
Mof_N 	N 	0.4718	0.7715	0.146	-0.113
Mof_C 	C 	0.38529	0.1176	0.0604	0.146
Mof_C 	C 	0.34023	0.1689	0.0806	-0.118
Mof_C 	C 	0.31567	0.2498	0.0451	0.105
Mof_H 	H 	0.3278	0.2726	0.0087	0.003
Mof_C 	C 	0.27307	0.2976	0.063	-0.255
Mof_H 	H 	0.2566	0.3522	0.0386	0.126
Mof_C 	C 	0.25477	0.2646	0.1171	0.278
Mof_C 	C 	0.2787	0.1814	0.1523	-0.253
Mof_H 	H 	0.2662	0.1566	0.1882	0.129
Mof_C 	C 	0.3211	0.1348	0.1341	0.106
Mof_H 	H 	0.3373	0.0791	0.1583	-0.003
Mof_C 	C 	0.1761	0.3278	0.0983	0.259
Mof_C 	C 	0.15424	0.4429	0.0944	-0.233
Mof_H 	H 	0.1655	0.5118	0.1154	0.131
Mof_C 	C 	0.11532	0.4556	0.05891	0.087
Mof_H 	H 	0.1001	0.533	0.0561	0.015
Mof_C 	C 	0.09891	0.3509	0.02717	-0.099
Mof_C 	C 	0.12179	0.2359	0.0313	0.083
Mof_H 	H 	0.111	0.1665	0.0102	0.015
Mof_C 	C 	0.16107	0.2244	0.0671	-0.233
Mof_H 	H 	0.1769	0.1478	0.0697	0.122
Mof_C 	C 	0.05589	0.3606	0.99191	0.143
Mof_C 	C 	0.9587	0.9115	0.1493	0.008
Mof_H 	H 	0.9851	0.8667	0.1376	0.018
Mof_C 	C 	0.9079	0.06	0.1601	-0.058
Mof_H 	H 	0.892	0.1363	0.156	0.048
Mof_C 	C 	0.8958	0.9657	0.1972	-0.004
Mof_H 	H 	0.8709	0.9661	0.2235	0.029
Mof_N 	N 	0.9467	0.0261	0.1297	-0.024
Mof_N 	N 	0.9266	0.8705	0.1888	-0.018
Mof_C 	C 	0.93106	0.7488	0.21937	0.091
Mof_C 	C 	0.93578	0.7388	0.28022	-0.07
Mof_H 	H 	0.9377	0.811	0.3034	0.068
Mof_C 	C 	0.93751	0.6201	0.30561	-0.076
Mof_H 	H 	0.9402	0.6119	0.3461	0.075
Mof_C 	C 	0.93521	0.5143	0.27054	0.09
Mof_C 	C 	0.9295	0.5232	0.21002	-0.068
Mof_H 	H 	0.9271	0.451	0.1869	0.061
Mof_C 	C 	0.92746	0.6424	0.1851	-0.079
Mof_H 	H 	0.9236	0.6506	0.1447	0.075
Mof_C 	C 	0.9056	0.3017	0.2899	-0.08
Mof_H 	H 	0.881	0.2986	0.2633	0.06
Mof_C 	C 	0.9194	0.2091	0.3271	0.045
Mof_H 	H 	0.9051	0.1305	0.3304	0.021
Mof_C 	C 	0.967	0.3645	0.3405	0.024
Mof_H 	H 	0.9918	0.4137	0.3536	0.015
Mof_N 	N 	0.9353	0.4009	0.2995	-0.087
Mof_N 	N 	0.9574	0.2474	0.3591	-0.016
Mof_N 	N 	0.40119	0.1333	0.0056	-0.102
Mof_N 	N 	0.44273	0.0708	0.00463	-0.071
Mof_N 	N 	0.45017	0.0209	0.05697	-0.073
Mof_N 	N 	0.41465	0.0493	0.09358	-0.105
Mof_N 	N 	0.04657	0.4519	0.95357	-0.098
Mof_N 	N 	0.0037	0.4216	0.93089	-0.051
Mof_N 	N 	0.98894	0.3165	0.95445	-0.046
Mof_N 	N 	0.02111	0.276	0.99405	-0.121
Mof_O 	O 	0.21372	0.3159	0.1384	-0.293
Mof_Cd	Cd	0.99629	0.14397	0.069	0.381
Mof_N 	N 	0.9412	0.8722	0.1988	-0.11
Mof_N 	N 	0.9635	0.0283	0.142	-0.119
Mof_C 	C 	0.9278	0.9819	0.2248	-0.011
Mof_H 	H 	0.9116	0.9899	0.26	0.027
Mof_C 	C 	0.9423	0.0774	0.1899	0.049
Mof_H 	H 	0.9383	0.163	0.1976	0.01
Mof_C 	C 	0.9587	0.9022	0.1453	0.062
Mof_H 	H 	0.9662	0.8449	0.1158	0.019
Mof_C 	C 	0.9321	0.262	0.2719	0.065
Mof_H 	H 	0.9144	0.2484	0.2383	0.001
Mof_C 	C 	0.9486	0.1725	0.3088	-0.07
Mof_H 	H 	0.9447	0.0859	0.304	0.055
Mof_C 	C 	0.9671	0.354	0.3459	0.021
Mof_H 	H 	0.9765	0.4159	0.3723	0.022
Mof_N 	N 	0.9464	0.3765	0.2932	-0.03
Mof_N 	N 	0.9718	0.2285	0.354	-0.113
Mof_C 	C 	0.11471	0.8824	0.0604	0.146
Mof_C 	C 	0.15977	0.8311	0.0806	-0.118
Mof_C 	C 	0.18433	0.7502	0.0451	0.105
Mof_H 	H 	0.1722	0.7274	0.0087	0.003
Mof_C 	C 	0.22693	0.7024	0.063	-0.255
Mof_H 	H 	0.2434	0.6478	0.0386	0.126
Mof_C 	C 	0.24523	0.7354	0.1171	0.278
Mof_C 	C 	0.2213	0.8186	0.1523	-0.253
Mof_H 	H 	0.2338	0.8434	0.1882	0.129
Mof_C 	C 	0.1789	0.8652	0.1341	0.106
Mof_H 	H 	0.1627	0.9209	0.1583	-0.003
Mof_C 	C 	0.3239	0.6722	0.0983	0.259
Mof_C 	C 	0.34576	0.5571	0.0944	-0.233
Mof_H 	H 	0.3345	0.4882	0.1154	0.131
Mof_C 	C 	0.38468	0.5444	0.05891	0.087
Mof_H 	H 	0.3999	0.467	0.0561	0.015
Mof_C 	C 	0.40109	0.6491	0.02717	-0.099
Mof_C 	C 	0.37821	0.7641	0.0313	0.083
Mof_H 	H 	0.389	0.8335	0.0102	0.015
Mof_C 	C 	0.33893	0.7756	0.0671	-0.233
Mof_H 	H 	0.3231	0.8522	0.0697	0.122
Mof_C 	C 	0.44411	0.6394	0.99191	0.144
Mof_C 	C 	0.5413	0.0885	0.1493	0.008
Mof_H 	H 	0.5149	0.1333	0.1376	0.018
Mof_C 	C 	0.5921	0.94	0.1601	-0.058
Mof_H 	H 	0.608	0.8637	0.156	0.048
Mof_C 	C 	0.6042	0.0343	0.1972	-0.004
Mof_H 	H 	0.6291	0.0339	0.2235	0.029
Mof_N 	N 	0.5533	0.9739	0.1297	-0.024
Mof_N 	N 	0.5734	0.1295	0.1888	-0.018
Mof_C 	C 	0.56894	0.2512	0.21937	0.091
Mof_C 	C 	0.56422	0.2612	0.28022	-0.07
Mof_H 	H 	0.5623	0.189	0.3034	0.068
Mof_C 	C 	0.56249	0.3799	0.30561	-0.076
Mof_H 	H 	0.5598	0.3881	0.3461	0.075
Mof_C 	C 	0.56479	0.4857	0.27054	0.09
Mof_C 	C 	0.5705	0.4768	0.21002	-0.068
Mof_H 	H 	0.5729	0.549	0.1869	0.061
Mof_C 	C 	0.57254	0.3576	0.1851	-0.079
Mof_H 	H 	0.5764	0.3494	0.1447	0.075
Mof_C 	C 	0.5944	0.6983	0.2899	-0.08
Mof_H 	H 	0.619	0.7014	0.2633	0.06
Mof_C 	C 	0.5806	0.7909	0.3271	0.044
Mof_H 	H 	0.5949	0.8695	0.3304	0.021
Mof_C 	C 	0.533	0.6355	0.3405	0.024
Mof_H 	H 	0.5082	0.5863	0.3536	0.015
Mof_N 	N 	0.5647	0.5991	0.2995	-0.087
Mof_N 	N 	0.5426	0.7526	0.3591	-0.016
Mof_N 	N 	0.09881	0.8667	0.0056	-0.102
Mof_N 	N 	0.05727	0.9292	0.00463	-0.071
Mof_N 	N 	0.04983	0.9791	0.05697	-0.073
Mof_N 	N 	0.08535	0.9507	0.09358	-0.105
Mof_N 	N 	0.45343	0.5481	0.95357	-0.098
Mof_N 	N 	0.4963	0.5784	0.93089	-0.051
Mof_N 	N 	0.51106	0.6835	0.95445	-0.046
Mof_N 	N 	0.47889	0.724	0.99405	-0.121
Mof_O 	O 	0.28628	0.6841	0.1384	-0.293
Mof_Cd	Cd	0.50371	0.85603	0.069	0.381
Mof_N 	N 	0.5588	0.1278	0.1988	-0.11
Mof_N 	N 	0.5365	0.9717	0.142	-0.119
Mof_C 	C 	0.5722	0.0181	0.2248	-0.011
Mof_H 	H 	0.5884	0.0101	0.26	0.027
Mof_C 	C 	0.5577	0.9226	0.1899	0.049
Mof_H 	H 	0.5617	0.837	0.1976	0.01
Mof_C 	C 	0.5413	0.0978	0.1453	0.062
Mof_H 	H 	0.5338	0.1551	0.1158	0.019
Mof_C 	C 	0.5679	0.738	0.2719	0.065
Mof_H 	H 	0.5856	0.7516	0.2383	0.001
Mof_C 	C 	0.5514	0.8275	0.3088	-0.07
Mof_H 	H 	0.5553	0.9141	0.304	0.055
Mof_C 	C 	0.5329	0.646	0.3459	0.022
Mof_H 	H 	0.5235	0.5841	0.3723	0.022
Mof_N 	N 	0.5536	0.6235	0.2932	-0.03
Mof_N 	N 	0.5282	0.7715	0.354	-0.113
Mof_C 	C 	0.38529	0.8824	0.5604	0.146
Mof_C 	C 	0.34023	0.8311	0.5806	-0.118
Mof_C 	C 	0.31567	0.7502	0.5451	0.105
Mof_H 	H 	0.3278	0.7274	0.5087	0.003
Mof_C 	C 	0.27307	0.7024	0.563	-0.255
Mof_H 	H 	0.2566	0.6478	0.5386	0.126
Mof_C 	C 	0.25477	0.7354	0.6171	0.278
Mof_C 	C 	0.2787	0.8186	0.6523	-0.253
Mof_H 	H 	0.2662	0.8434	0.6882	0.129
Mof_C 	C 	0.3211	0.8652	0.6341	0.106
Mof_H 	H 	0.3373	0.9209	0.6583	-0.003
Mof_C 	C 	0.1761	0.6722	0.5983	0.259
Mof_C 	C 	0.15424	0.5571	0.5944	-0.233
Mof_H 	H 	0.1655	0.4882	0.6154	0.131
Mof_C 	C 	0.11532	0.5444	0.55891	0.088
Mof_H 	H 	0.1001	0.467	0.5561	0.015
Mof_C 	C 	0.09891	0.6491	0.52717	-0.099
Mof_C 	C 	0.12179	0.7641	0.5313	0.083
Mof_H 	H 	0.111	0.8335	0.5102	0.015
Mof_C 	C 	0.16107	0.7756	0.5671	-0.233
Mof_H 	H 	0.1769	0.8522	0.5697	0.122
Mof_C 	C 	0.05589	0.6394	0.49191	0.144
Mof_C 	C 	0.9587	0.0885	0.6493	0.008
Mof_H 	H 	0.9851	0.1333	0.6376	0.018
Mof_C 	C 	0.9079	0.94	0.6601	-0.058
Mof_H 	H 	0.892	0.8637	0.656	0.048
Mof_C 	C 	0.8958	0.0343	0.6972	-0.004
Mof_H 	H 	0.8709	0.0339	0.7235	0.029
Mof_N 	N 	0.9467	0.9739	0.6297	-0.024
Mof_N 	N 	0.9266	0.1295	0.6888	-0.018
Mof_C 	C 	0.93106	0.2512	0.71937	0.091
Mof_C 	C 	0.93578	0.2612	0.78022	-0.07
Mof_H 	H 	0.9377	0.189	0.8034	0.068
Mof_C 	C 	0.93751	0.3799	0.80561	-0.076
Mof_H 	H 	0.9402	0.3881	0.8461	0.075
Mof_C 	C 	0.93521	0.4857	0.77054	0.09
Mof_C 	C 	0.9295	0.4768	0.71002	-0.068
Mof_H 	H 	0.9271	0.549	0.6869	0.061
Mof_C 	C 	0.92746	0.3576	0.6851	-0.079
Mof_H 	H 	0.9236	0.3494	0.6447	0.075
Mof_C 	C 	0.9056	0.6983	0.7899	-0.08
Mof_H 	H 	0.881	0.7014	0.7633	0.06
Mof_C 	C 	0.9194	0.7909	0.8271	0.044
Mof_H 	H 	0.9051	0.8695	0.8304	0.021
Mof_C 	C 	0.967	0.6355	0.8405	0.024
Mof_H 	H 	0.9918	0.5863	0.8536	0.015
Mof_N 	N 	0.9353	0.5991	0.7995	-0.087
Mof_N 	N 	0.9574	0.7526	0.8591	-0.016
Mof_N 	N 	0.40119	0.8667	0.5056	-0.102
Mof_N 	N 	0.44273	0.9292	0.50463	-0.071
Mof_N 	N 	0.45017	0.9791	0.55697	-0.073
Mof_N 	N 	0.41465	0.9507	0.59358	-0.105
Mof_N 	N 	0.04657	0.5481	0.45357	-0.098
Mof_N 	N 	0.0037	0.5784	0.43089	-0.051
Mof_N 	N 	0.98894	0.6835	0.45445	-0.046
Mof_N 	N 	0.02111	0.724	0.49405	-0.121
Mof_O 	O 	0.21372	0.6841	0.6384	-0.293
Mof_Cd	Cd	0.99629	0.85603	0.569	0.382
Mof_N 	N 	0.9412	0.1278	0.6988	-0.11
Mof_N 	N 	0.9635	0.9717	0.642	-0.119
Mof_C 	C 	0.9278	0.0181	0.7248	-0.011
Mof_H 	H 	0.9116	0.0101	0.76	0.027
Mof_C 	C 	0.9423	0.9226	0.6899	0.049
Mof_H 	H 	0.9383	0.837	0.6976	0.01
Mof_C 	C 	0.9587	0.0978	0.6453	0.062
Mof_H 	H 	0.9662	0.1551	0.6158	0.019
Mof_C 	C 	0.9321	0.738	0.7719	0.065
Mof_H 	H 	0.9144	0.7516	0.7383	0.001
Mof_C 	C 	0.9486	0.8275	0.8088	-0.069
Mof_H 	H 	0.9447	0.9141	0.804	0.055
Mof_C 	C 	0.9671	0.646	0.8459	0.022
Mof_H 	H 	0.9765	0.5841	0.8723	0.022
Mof_N 	N 	0.9464	0.6235	0.7932	-0.031
Mof_N 	N 	0.9718	0.7715	0.854	-0.113
Mof_C 	C 	0.11471	0.1176	0.5604	0.146
Mof_C 	C 	0.15977	0.1689	0.5806	-0.118
Mof_C 	C 	0.18433	0.2498	0.5451	0.105
Mof_H 	H 	0.1722	0.2726	0.5087	0.003
Mof_C 	C 	0.22693	0.2976	0.563	-0.255
Mof_H 	H 	0.2434	0.3522	0.5386	0.126
Mof_C 	C 	0.24523	0.2646	0.6171	0.278
Mof_C 	C 	0.2213	0.1814	0.6523	-0.253
Mof_H 	H 	0.2338	0.1566	0.6882	0.129
Mof_C 	C 	0.1789	0.1348	0.6341	0.106
Mof_H 	H 	0.1627	0.0791	0.6583	-0.003
Mof_C 	C 	0.3239	0.3278	0.5983	0.259
Mof_C 	C 	0.34576	0.4429	0.5944	-0.233
Mof_H 	H 	0.3345	0.5118	0.6154	0.131
Mof_C 	C 	0.38468	0.4556	0.55891	0.088
Mof_H 	H 	0.3999	0.533	0.5561	0.015
Mof_C 	C 	0.40109	0.3509	0.52717	-0.099
Mof_C 	C 	0.37821	0.2359	0.5313	0.083
Mof_H 	H 	0.389	0.1665	0.5102	0.015
Mof_C 	C 	0.33893	0.2244	0.5671	-0.233
Mof_H 	H 	0.3231	0.1478	0.5697	0.122
Mof_C 	C 	0.44411	0.3606	0.49191	0.144
Mof_C 	C 	0.5413	0.9115	0.6493	0.008
Mof_H 	H 	0.5149	0.8667	0.6376	0.018
Mof_C 	C 	0.5921	0.06	0.6601	-0.058
Mof_H 	H 	0.608	0.1363	0.656	0.048
Mof_C 	C 	0.6042	0.9657	0.6972	-0.004
Mof_H 	H 	0.6291	0.9661	0.7235	0.029
Mof_N 	N 	0.5533	0.0261	0.6297	-0.024
Mof_N 	N 	0.5734	0.8705	0.6888	-0.018
Mof_C 	C 	0.56894	0.7488	0.71937	0.091
Mof_C 	C 	0.56422	0.7388	0.78022	-0.07
Mof_H 	H 	0.5623	0.811	0.8034	0.068
Mof_C 	C 	0.56249	0.6201	0.80561	-0.076
Mof_H 	H 	0.5598	0.6119	0.8461	0.075
Mof_C 	C 	0.56479	0.5143	0.77054	0.09
Mof_C 	C 	0.5705	0.5232	0.71002	-0.068
Mof_H 	H 	0.5729	0.451	0.6869	0.061
Mof_C 	C 	0.57254	0.6424	0.6851	-0.079
Mof_H 	H 	0.5764	0.6506	0.6447	0.075
Mof_C 	C 	0.5944	0.3017	0.7899	-0.08
Mof_H 	H 	0.619	0.2986	0.7633	0.06
Mof_C 	C 	0.5806	0.2091	0.8271	0.044
Mof_H 	H 	0.5949	0.1305	0.8304	0.021
Mof_C 	C 	0.533	0.3645	0.8405	0.024
Mof_H 	H 	0.5082	0.4137	0.8536	0.015
Mof_N 	N 	0.5647	0.4009	0.7995	-0.087
Mof_N 	N 	0.5426	0.2474	0.8591	-0.016
Mof_N 	N 	0.09881	0.1333	0.5056	-0.102
Mof_N 	N 	0.05727	0.0708	0.50463	-0.071
Mof_N 	N 	0.04983	0.0209	0.55697	-0.073
Mof_N 	N 	0.08535	0.0493	0.59358	-0.106
Mof_N 	N 	0.45343	0.4519	0.45357	-0.098
Mof_N 	N 	0.4963	0.4216	0.43089	-0.051
Mof_N 	N 	0.51106	0.3165	0.45445	-0.046
Mof_N 	N 	0.47889	0.276	0.49405	-0.121
Mof_O 	O 	0.28628	0.3159	0.6384	-0.293
Mof_Cd	Cd	0.50371	0.14397	0.569	0.381
Mof_N 	N 	0.5588	0.8722	0.6988	-0.11
Mof_N 	N 	0.5365	0.0283	0.642	-0.119
Mof_C 	C 	0.5722	0.9819	0.7248	-0.011
Mof_H 	H 	0.5884	0.9899	0.76	0.027
Mof_C 	C 	0.5577	0.0774	0.6899	0.049
Mof_H 	H 	0.5617	0.163	0.6976	0.01
Mof_C 	C 	0.5413	0.9022	0.6453	0.062
Mof_H 	H 	0.5338	0.8449	0.6158	0.019
Mof_C 	C 	0.5679	0.262	0.7719	0.065
Mof_H 	H 	0.5856	0.2484	0.7383	0.001
Mof_C 	C 	0.5514	0.1725	0.8088	-0.07
Mof_H 	H 	0.5553	0.0859	0.804	0.055
Mof_C 	C 	0.5329	0.354	0.8459	0.022
Mof_H 	H 	0.5235	0.4159	0.8723	0.022
Mof_N 	N 	0.5536	0.3765	0.7932	-0.03
Mof_N 	N 	0.5282	0.2285	0.854	-0.113
Mof_C 	C 	0.61471	0.8824	0.9396	0.146
Mof_C 	C 	0.65977	0.8311	0.9194	-0.118
Mof_C 	C 	0.68433	0.7502	0.9549	0.105
Mof_H 	H 	0.6722	0.7274	0.9913	0.003
Mof_C 	C 	0.72693	0.7024	0.937	-0.255
Mof_H 	H 	0.7434	0.6478	0.9614	0.126
Mof_C 	C 	0.74523	0.7354	0.8829	0.278
Mof_C 	C 	0.7213	0.8186	0.8477	-0.253
Mof_H 	H 	0.7338	0.8434	0.8118	0.129
Mof_C 	C 	0.6789	0.8652	0.8659	0.106
Mof_H 	H 	0.6627	0.9209	0.8417	-0.003
Mof_C 	C 	0.8239	0.6722	0.9017	0.259
Mof_C 	C 	0.84576	0.5571	0.9056	-0.233
Mof_H 	H 	0.8345	0.4882	0.8846	0.131
Mof_C 	C 	0.88468	0.5444	0.94109	0.087
Mof_H 	H 	0.8999	0.467	0.9439	0.015
Mof_C 	C 	0.90109	0.6491	0.97283	-0.099
Mof_C 	C 	0.87821	0.7641	0.9687	0.083
Mof_H 	H 	0.889	0.8335	0.9898	0.015
Mof_C 	C 	0.83893	0.7756	0.9329	-0.233
Mof_H 	H 	0.8231	0.8522	0.9303	0.122
Mof_C 	C 	0.94411	0.6394	0.00809	0.143
Mof_C 	C 	0.0413	0.0885	0.8507	0.008
Mof_H 	H 	0.0149	0.1333	0.8624	0.018
Mof_C 	C 	0.0921	0.94	0.8399	-0.058
Mof_H 	H 	0.108	0.8637	0.844	0.048
Mof_C 	C 	0.1042	0.0343	0.8028	-0.004
Mof_H 	H 	0.1291	0.0339	0.7765	0.029
Mof_N 	N 	0.0533	0.9739	0.8703	-0.024
Mof_N 	N 	0.0734	0.1295	0.8112	-0.018
Mof_C 	C 	0.06894	0.2512	0.78063	0.091
Mof_C 	C 	0.06422	0.2612	0.71978	-0.07
Mof_H 	H 	0.0623	0.189	0.6966	0.068
Mof_C 	C 	0.06249	0.3799	0.69439	-0.076
Mof_H 	H 	0.0598	0.3881	0.6539	0.075
Mof_C 	C 	0.06479	0.4857	0.72946	0.09
Mof_C 	C 	0.0705	0.4768	0.78998	-0.068
Mof_H 	H 	0.0729	0.549	0.8131	0.061
Mof_C 	C 	0.07254	0.3576	0.8149	-0.079
Mof_H 	H 	0.0764	0.3494	0.8553	0.075
Mof_C 	C 	0.0944	0.6983	0.7101	-0.08
Mof_H 	H 	0.119	0.7014	0.7367	0.06
Mof_C 	C 	0.0806	0.7909	0.6729	0.045
Mof_H 	H 	0.0949	0.8695	0.6696	0.021
Mof_C 	C 	0.033	0.6355	0.6595	0.024
Mof_H 	H 	0.0082	0.5863	0.6464	0.015
Mof_N 	N 	0.0647	0.5991	0.7005	-0.087
Mof_N 	N 	0.0426	0.7526	0.6409	-0.016
Mof_N 	N 	0.59881	0.8667	0.9944	-0.102
Mof_N 	N 	0.55727	0.9292	0.99537	-0.071
Mof_N 	N 	0.54983	0.9791	0.94303	-0.073
Mof_N 	N 	0.58535	0.9507	0.90642	-0.105
Mof_N 	N 	0.95343	0.5481	0.04643	-0.098
Mof_N 	N 	0.9963	0.5784	0.06911	-0.051
Mof_N 	N 	0.01106	0.6835	0.04555	-0.046
Mof_N 	N 	0.97889	0.724	0.00595	-0.121
Mof_O 	O 	0.78628	0.6841	0.8616	-0.293
Mof_Cd	Cd	0.00371	0.85603	0.931	0.381
Mof_N 	N 	0.0588	0.1278	0.8012	-0.11
Mof_N 	N 	0.0365	0.9717	0.858	-0.119
Mof_C 	C 	0.0722	0.0181	0.7752	-0.011
Mof_H 	H 	0.0884	0.0101	0.74	0.027
Mof_C 	C 	0.0577	0.9226	0.8101	0.049
Mof_H 	H 	0.0617	0.837	0.8024	0.01
Mof_C 	C 	0.0413	0.0978	0.8547	0.062
Mof_H 	H 	0.0338	0.1551	0.8842	0.019
Mof_C 	C 	0.0679	0.738	0.7281	0.065
Mof_H 	H 	0.0856	0.7516	0.7617	0.001
Mof_C 	C 	0.0514	0.8275	0.6912	-0.07
Mof_H 	H 	0.0553	0.9141	0.696	0.055
Mof_C 	C 	0.0329	0.646	0.6541	0.021
Mof_H 	H 	0.0235	0.5841	0.6277	0.022
Mof_N 	N 	0.0536	0.6235	0.7068	-0.03
Mof_N 	N 	0.0282	0.7715	0.646	-0.113
Mof_C 	C 	0.88529	0.1176	0.9396	0.146
Mof_C 	C 	0.84023	0.1689	0.9194	-0.118
Mof_C 	C 	0.81567	0.2498	0.9549	0.105
Mof_H 	H 	0.8278	0.2726	0.9913	0.003
Mof_C 	C 	0.77307	0.2976	0.937	-0.255
Mof_H 	H 	0.7566	0.3522	0.9614	0.126
Mof_C 	C 	0.75477	0.2646	0.8829	0.278
Mof_C 	C 	0.7787	0.1814	0.8477	-0.253
Mof_H 	H 	0.7662	0.1566	0.8118	0.129
Mof_C 	C 	0.8211	0.1348	0.8659	0.106
Mof_H 	H 	0.8373	0.0791	0.8417	-0.003
Mof_C 	C 	0.6761	0.3278	0.9017	0.259
Mof_C 	C 	0.65424	0.4429	0.9056	-0.233
Mof_H 	H 	0.6655	0.5118	0.8846	0.131
Mof_C 	C 	0.61532	0.4556	0.94109	0.087
Mof_H 	H 	0.6001	0.533	0.9439	0.015
Mof_C 	C 	0.59891	0.3509	0.97283	-0.099
Mof_C 	C 	0.62179	0.2359	0.9687	0.083
Mof_H 	H 	0.611	0.1665	0.9898	0.015
Mof_C 	C 	0.66107	0.2244	0.9329	-0.233
Mof_H 	H 	0.6769	0.1478	0.9303	0.122
Mof_C 	C 	0.55589	0.3606	0.00809	0.144
Mof_C 	C 	0.4587	0.9115	0.8507	0.008
Mof_H 	H 	0.4851	0.8667	0.8624	0.018
Mof_C 	C 	0.4079	0.06	0.8399	-0.058
Mof_H 	H 	0.392	0.1363	0.844	0.048
Mof_C 	C 	0.3958	0.9657	0.8028	-0.004
Mof_H 	H 	0.3709	0.9661	0.7765	0.029
Mof_N 	N 	0.4467	0.0261	0.8703	-0.024
Mof_N 	N 	0.4266	0.8705	0.8112	-0.018
Mof_C 	C 	0.43106	0.7488	0.78063	0.091
Mof_C 	C 	0.43578	0.7388	0.71978	-0.07
Mof_H 	H 	0.4377	0.811	0.6966	0.068
Mof_C 	C 	0.43751	0.6201	0.69439	-0.076
Mof_H 	H 	0.4402	0.6119	0.6539	0.075
Mof_C 	C 	0.43521	0.5143	0.72946	0.09
Mof_C 	C 	0.4295	0.5232	0.78998	-0.068
Mof_H 	H 	0.4271	0.451	0.8131	0.061
Mof_C 	C 	0.42746	0.6424	0.8149	-0.079
Mof_H 	H 	0.4236	0.6506	0.8553	0.075
Mof_C 	C 	0.4056	0.3017	0.7101	-0.08
Mof_H 	H 	0.381	0.2986	0.7367	0.06
Mof_C 	C 	0.4194	0.2091	0.6729	0.044
Mof_H 	H 	0.4051	0.1305	0.6696	0.021
Mof_C 	C 	0.467	0.3645	0.6595	0.024
Mof_H 	H 	0.4918	0.4137	0.6464	0.015
Mof_N 	N 	0.4353	0.4009	0.7005	-0.087
Mof_N 	N 	0.4574	0.2474	0.6409	-0.016
Mof_N 	N 	0.90119	0.1333	0.9944	-0.102
Mof_N 	N 	0.94273	0.0708	0.99537	-0.071
Mof_N 	N 	0.95017	0.0209	0.94303	-0.073
Mof_N 	N 	0.91465	0.0493	0.90642	-0.105
Mof_N 	N 	0.54657	0.4519	0.04643	-0.098
Mof_N 	N 	0.5037	0.4216	0.06911	-0.051
Mof_N 	N 	0.48894	0.3165	0.04555	-0.046
Mof_N 	N 	0.52111	0.276	0.00595	-0.121
Mof_O 	O 	0.71372	0.3159	0.8616	-0.293
Mof_Cd	Cd	0.49629	0.14397	0.931	0.381
Mof_N 	N 	0.4412	0.8722	0.8012	-0.11
Mof_N 	N 	0.4635	0.0283	0.858	-0.119
Mof_C 	C 	0.4278	0.9819	0.7752	-0.011
Mof_H 	H 	0.4116	0.9899	0.74	0.027
Mof_C 	C 	0.4423	0.0774	0.8101	0.049
Mof_H 	H 	0.4383	0.163	0.8024	0.01
Mof_C 	C 	0.4587	0.9022	0.8547	0.062
Mof_H 	H 	0.4662	0.8449	0.8842	0.019
Mof_C 	C 	0.4321	0.262	0.7281	0.065
Mof_H 	H 	0.4144	0.2484	0.7617	0.001
Mof_C 	C 	0.4486	0.1725	0.6912	-0.07
Mof_H 	H 	0.4447	0.0859	0.696	0.055
Mof_C 	C 	0.4671	0.354	0.6541	0.022
Mof_H 	H 	0.4765	0.4159	0.6277	0.022
Mof_N 	N 	0.4464	0.3765	0.7068	-0.03
Mof_N 	N 	0.4718	0.2285	0.646	-0.113
_end
