data_functionalizedCrystal
_audit_creation_method	'EQeq! by Chris Wilmer'
_symmetry_space_group_name_H-M	'P1'
_symmetry_Int_Tables_number	1
_symmetry_cell_setting	triclinic
loop_
_symmetry_equiv_pos_as_xyz
  x,y,z
_cell_length_a	16.8687
_cell_length_b	16.8687
_cell_length_c	28.5613
_cell_angle_alpha	90
_cell_angle_beta	90
_cell_angle_gamma	90
loop_
_atom_site_label
_atom_site_type_symbol
_atom_site_fract_x
_atom_site_fract_y
_atom_site_fract_z
_atom_site_charge
Mof_Cd	Cd	0.69351	0.21804	0.00658	0.351
Mof_S 	S 	0.6008	0.23465	0.77212	-0.071
Mof_S 	S 	0.8234	0.31468	0.2268	-0.064
Mof_N 	N 	0.66851	0.354	0.99977	-0.161
Mof_N 	N 	0.66403	0.21316	0.92605	-0.161
Mof_N 	N 	0.33361	0.26396	0.75657	-0.155
Mof_N 	N 	0.71496	0.23738	0.08801	-0.161
Mof_N 	N 	0.80432	0.58287	0.23719	-0.161
Mof_C 	C 	0.6036	0.3808	0.979	0.084
Mof_H 	H 	0.5697	0.3435	0.9642	0.002
Mof_C 	C 	0.5822	0.4606	0.97767	-0.155
Mof_H 	H 	0.5354	0.4776	0.9621	0.083
Mof_C 	C 	0.6319	0.5141	0.99991	0.095
Mof_C 	C 	0.7012	0.4875	0.02094	-0.152
Mof_H 	H 	0.7365	0.5235	0.0357	0.086
Mof_C 	C 	0.7172	0.4075	0.01973	0.083
Mof_H 	H 	0.765	0.3891	0.0336	0.003
Mof_C 	C 	0.6998	0.265	0.89767	0.086
Mof_H 	H 	0.7409	0.2969	0.9104	0.004
Mof_C 	C 	0.6809	0.2749	0.85136	-0.156
Mof_H 	H 	0.7075	0.3132	0.8327	0.086
Mof_C 	C 	0.6217	0.2274	0.83256	0.097
Mof_C 	C 	0.5844	0.172	0.86098	-0.155
Mof_H 	H 	0.5442	0.1383	0.8489	0.083
Mof_C 	C 	0.6077	0.1674	0.90751	0.081
Mof_H 	H 	0.5822	0.1297	0.9271	0.001
Mof_C 	C 	0.3708	0.2912	0.7949	0.083
Mof_H 	H 	0.34	0.3177	0.8179	0.003
Mof_C 	C 	0.4508	0.2831	0.80286	-0.154
Mof_H 	H 	0.4742	0.3045	0.8303	0.083
Mof_C 	C 	0.4968	0.2434	0.77043	0.094
Mof_C 	C 	0.459	0.2131	0.73072	-0.148
Mof_H 	H 	0.4883	0.1845	0.7078	0.08
Mof_C 	C 	0.3793	0.2251	0.7253	0.079
Mof_H 	H 	0.3546	0.2048	0.6979	0.006
Mof_C 	C 	0.6844	0.2991	0.1115	0.081
Mof_H 	H 	0.6403	0.3259	0.0982	0.002
Mof_C 	C 	0.7133	0.3259	0.15372	-0.157
Mof_H 	H 	0.6892	0.3694	0.1693	0.084
Mof_C 	C 	0.7785	0.2876	0.17305	0.097
Mof_C 	C 	0.8091	0.2218	0.15016	-0.155
Mof_H 	H 	0.8523	0.1931	0.163	0.088
Mof_C 	C 	0.7754	0.1992	0.10845	0.083
Mof_H 	H 	0.7963	0.1538	0.0932	0.003
Mof_C 	C 	0.8264	0.5476	0.19696	0.08
Mof_H 	H 	0.8404	0.5802	0.1712	0.002
Mof_C 	C 	0.8299	0.467	0.1913	-0.152
Mof_H 	H 	0.8453	0.4447	0.1621	0.082
Mof_C 	C 	0.8104	0.4182	0.22888	0.093
Mof_C 	C 	0.7865	0.4533	0.27022	-0.15
Mof_H 	H 	0.7716	0.4217	0.2963	0.084
Mof_C 	C 	0.7845	0.5356	0.27314	0.079
Mof_H 	H 	0.7685	0.5593	0.3018	0.004
Mof_Cd	Cd	0.30649	0.78196	0.50658	0.35
Mof_S 	S 	0.3992	0.76535	0.27212	-0.072
Mof_S 	S 	0.1766	0.68532	0.7268	-0.065
Mof_N 	N 	0.33149	0.646	0.49977	-0.162
Mof_N 	N 	0.33597	0.78684	0.42605	-0.162
Mof_N 	N 	0.66639	0.73604	0.25657	-0.156
Mof_N 	N 	0.28504	0.76262	0.58801	-0.162
Mof_N 	N 	0.19568	0.41713	0.73719	-0.162
Mof_C 	C 	0.3964	0.6192	0.479	0.084
Mof_H 	H 	0.4303	0.6565	0.4642	0.001
Mof_C 	C 	0.4178	0.5394	0.47767	-0.157
Mof_H 	H 	0.4646	0.5224	0.4621	0.083
Mof_C 	C 	0.3681	0.4859	0.49991	0.096
Mof_C 	C 	0.2988	0.5125	0.52094	-0.154
Mof_H 	H 	0.2635	0.4765	0.5357	0.086
Mof_C 	C 	0.2828	0.5925	0.51973	0.083
Mof_H 	H 	0.235	0.6109	0.5336	0.003
Mof_C 	C 	0.3002	0.735	0.39767	0.086
Mof_H 	H 	0.2591	0.7031	0.4104	0.004
Mof_C 	C 	0.3191	0.7251	0.35136	-0.156
Mof_H 	H 	0.2925	0.6868	0.3327	0.086
Mof_C 	C 	0.3783	0.7726	0.33256	0.096
Mof_C 	C 	0.4156	0.828	0.36098	-0.155
Mof_H 	H 	0.4558	0.8617	0.3489	0.083
Mof_C 	C 	0.3923	0.8326	0.40751	0.081
Mof_H 	H 	0.4178	0.8703	0.4271	0.001
Mof_C 	C 	0.6292	0.7088	0.2949	0.083
Mof_H 	H 	0.66	0.6823	0.3179	0.003
Mof_C 	C 	0.5492	0.7169	0.30286	-0.154
Mof_H 	H 	0.5258	0.6955	0.3303	0.083
Mof_C 	C 	0.5032	0.7566	0.27043	0.094
Mof_C 	C 	0.541	0.7869	0.23072	-0.148
Mof_H 	H 	0.5117	0.8155	0.2078	0.08
Mof_C 	C 	0.6207	0.7749	0.2253	0.079
Mof_H 	H 	0.6454	0.7952	0.1979	0.006
Mof_C 	C 	0.3156	0.7009	0.6115	0.081
Mof_H 	H 	0.3597	0.6741	0.5982	0.002
Mof_C 	C 	0.2867	0.6741	0.65372	-0.157
Mof_H 	H 	0.3108	0.6306	0.6693	0.084
Mof_C 	C 	0.2215	0.7124	0.67305	0.097
Mof_C 	C 	0.1909	0.7782	0.65016	-0.155
Mof_H 	H 	0.1477	0.8069	0.663	0.088
Mof_C 	C 	0.2246	0.8008	0.60845	0.083
Mof_H 	H 	0.2037	0.8462	0.5932	0.003
Mof_C 	C 	0.1736	0.4524	0.69696	0.08
Mof_H 	H 	0.1596	0.4198	0.6712	0.002
Mof_C 	C 	0.1701	0.533	0.6913	-0.152
Mof_H 	H 	0.1547	0.5553	0.6621	0.082
Mof_C 	C 	0.1896	0.5818	0.72888	0.093
Mof_C 	C 	0.2135	0.5467	0.77022	-0.15
Mof_H 	H 	0.2284	0.5783	0.7963	0.084
Mof_C 	C 	0.2155	0.4644	0.77314	0.079
Mof_H 	H 	0.2315	0.4407	0.8018	0.004
Mof_Cd	Cd	0.28196	0.19351	0.25658	0.35
Mof_S 	S 	0.26535	0.1008	0.02212	-0.071
Mof_S 	S 	0.18532	0.3234	0.4768	-0.064
Mof_N 	N 	0.146	0.16851	0.24977	-0.161
Mof_N 	N 	0.28684	0.16403	0.17605	-0.162
Mof_N 	N 	0.23604	0.83361	0.00657	-0.155
Mof_N 	N 	0.26262	0.21496	0.33801	-0.161
Mof_N 	N 	0.91713	0.30432	0.48719	-0.162
Mof_C 	C 	0.1192	0.1036	0.229	0.082
Mof_H 	H 	0.1565	0.0697	0.2142	0.001
Mof_C 	C 	0.0394	0.0822	0.22767	-0.153
Mof_H 	H 	0.0224	0.0354	0.2121	0.082
Mof_C 	C 	0.9859	0.1319	0.24991	0.092
Mof_C 	C 	0.0125	0.2012	0.27094	-0.149
Mof_H 	H 	0.9765	0.2365	0.2857	0.084
Mof_C 	C 	0.0925	0.2172	0.26973	0.081
Mof_H 	H 	0.1109	0.265	0.2836	0.004
Mof_C 	C 	0.235	0.1998	0.14767	0.086
Mof_H 	H 	0.2031	0.2409	0.1604	0.004
Mof_C 	C 	0.2251	0.1809	0.10136	-0.156
Mof_H 	H 	0.1868	0.2075	0.0827	0.086
Mof_C 	C 	0.2726	0.1217	0.08256	0.097
Mof_C 	C 	0.328	0.0844	0.11098	-0.155
Mof_H 	H 	0.3617	0.0442	0.0989	0.083
Mof_C 	C 	0.3326	0.1077	0.15751	0.081
Mof_H 	H 	0.3703	0.0822	0.1771	0.001
Mof_C 	C 	0.2088	0.8708	0.0449	0.083
Mof_H 	H 	0.1823	0.84	0.0679	0.003
Mof_C 	C 	0.2169	0.9508	0.05286	-0.154
Mof_H 	H 	0.1955	0.9742	0.0803	0.083
Mof_C 	C 	0.2566	0.9968	0.02043	0.095
Mof_C 	C 	0.2869	0.959	0.98072	-0.15
Mof_H 	H 	0.3155	0.9883	0.9578	0.08
Mof_C 	C 	0.2749	0.8793	0.9753	0.078
Mof_H 	H 	0.2952	0.8546	0.9479	0.006
Mof_C 	C 	0.2009	0.1844	0.3615	0.081
Mof_H 	H 	0.1741	0.1403	0.3482	0.002
Mof_C 	C 	0.1741	0.2133	0.40372	-0.157
Mof_H 	H 	0.1306	0.1892	0.4193	0.084
Mof_C 	C 	0.2124	0.2785	0.42305	0.097
Mof_C 	C 	0.2782	0.3091	0.40016	-0.155
Mof_H 	H 	0.3069	0.3523	0.413	0.088
Mof_C 	C 	0.3008	0.2754	0.35845	0.083
Mof_H 	H 	0.3462	0.2963	0.3432	0.004
Mof_C 	C 	0.9524	0.3264	0.44696	0.079
Mof_H 	H 	0.9198	0.3404	0.4212	0.002
Mof_C 	C 	0.033	0.3299	0.4413	-0.151
Mof_H 	H 	0.0553	0.3453	0.4121	0.081
Mof_C 	C 	0.0818	0.3104	0.47888	0.092
Mof_C 	C 	0.0467	0.2865	0.52022	-0.149
Mof_H 	H 	0.0783	0.2716	0.5463	0.083
Mof_C 	C 	0.9644	0.2845	0.52314	0.078
Mof_H 	H 	0.9407	0.2685	0.5518	0.004
Mof_Cd	Cd	0.71804	0.80649	0.75658	0.35
Mof_S 	S 	0.73465	0.8992	0.52212	-0.071
Mof_S 	S 	0.81468	0.6766	0.9768	-0.065
Mof_N 	N 	0.854	0.83149	0.74977	-0.161
Mof_N 	N 	0.71316	0.83597	0.67605	-0.162
Mof_N 	N 	0.76396	0.16639	0.50657	-0.156
Mof_N 	N 	0.73738	0.78504	0.83801	-0.162
Mof_N 	N 	0.08287	0.69568	0.98719	-0.163
Mof_C 	C 	0.8808	0.8964	0.729	0.082
Mof_H 	H 	0.8435	0.9303	0.7142	0.001
Mof_C 	C 	0.9606	0.9178	0.72767	-0.153
Mof_H 	H 	0.9776	0.9646	0.7121	0.082
Mof_C 	C 	0.0141	0.8681	0.74991	0.092
Mof_C 	C 	0.9875	0.7988	0.77094	-0.149
Mof_H 	H 	0.0235	0.7635	0.7857	0.084
Mof_C 	C 	0.9075	0.7828	0.76973	0.081
Mof_H 	H 	0.8891	0.735	0.7836	0.004
Mof_C 	C 	0.765	0.8002	0.64767	0.086
Mof_H 	H 	0.7969	0.7591	0.6604	0.004
Mof_C 	C 	0.7749	0.8191	0.60136	-0.156
Mof_H 	H 	0.8132	0.7925	0.5827	0.086
Mof_C 	C 	0.7274	0.8783	0.58256	0.096
Mof_C 	C 	0.672	0.9156	0.61098	-0.155
Mof_H 	H 	0.6383	0.9558	0.5989	0.083
Mof_C 	C 	0.6674	0.8923	0.65751	0.081
Mof_H 	H 	0.6297	0.9178	0.6771	0.001
Mof_C 	C 	0.7912	0.1292	0.5449	0.082
Mof_H 	H 	0.8177	0.16	0.5679	0.003
Mof_C 	C 	0.7831	0.0492	0.55286	-0.153
Mof_H 	H 	0.8045	0.0258	0.5803	0.083
Mof_C 	C 	0.7434	0.0032	0.52043	0.093
Mof_C 	C 	0.7131	0.041	0.48072	-0.148
Mof_H 	H 	0.6845	0.0117	0.4578	0.08
Mof_C 	C 	0.7251	0.1207	0.4753	0.079
Mof_H 	H 	0.7048	0.1454	0.4479	0.006
Mof_C 	C 	0.7991	0.8156	0.8615	0.081
Mof_H 	H 	0.8259	0.8597	0.8482	0.002
Mof_C 	C 	0.8259	0.7867	0.90372	-0.157
Mof_H 	H 	0.8694	0.8108	0.9193	0.084
Mof_C 	C 	0.7876	0.7215	0.92305	0.097
Mof_C 	C 	0.7218	0.6909	0.90016	-0.155
Mof_H 	H 	0.6931	0.6477	0.913	0.088
Mof_C 	C 	0.6992	0.7246	0.85845	0.083
Mof_H 	H 	0.6538	0.7037	0.8432	0.004
Mof_C 	C 	0.0476	0.6736	0.94696	0.078
Mof_H 	H 	0.0802	0.6596	0.9212	0.002
Mof_C 	C 	0.967	0.6701	0.9413	-0.15
Mof_H 	H 	0.9447	0.6547	0.9121	0.081
Mof_C 	C 	0.9182	0.6896	0.97888	0.092
Mof_C 	C 	0.9533	0.7135	0.02022	-0.149
Mof_H 	H 	0.9217	0.7284	0.0463	0.083
Mof_C 	C 	0.0356	0.7155	0.02314	0.08
Mof_H 	H 	0.0593	0.7315	0.0518	0.004
Mof_Cd	Cd	0.80649	0.71804	0.24342	0.35
Mof_S 	S 	0.8992	0.73465	0.47788	-0.071
Mof_S 	S 	0.6766	0.81468	0.0232	-0.064
Mof_N 	N 	0.83149	0.854	0.25023	-0.161
Mof_N 	N 	0.83597	0.71316	0.32395	-0.162
Mof_N 	N 	0.16639	0.76396	0.49343	-0.156
Mof_N 	N 	0.78504	0.73738	0.16199	-0.161
Mof_N 	N 	0.69568	0.08287	0.01281	-0.162
Mof_C 	C 	0.8964	0.8808	0.271	0.082
Mof_H 	H 	0.9303	0.8435	0.2858	0.001
Mof_C 	C 	0.9178	0.9606	0.27233	-0.153
Mof_H 	H 	0.9646	0.9776	0.2879	0.082
Mof_C 	C 	0.8681	0.0141	0.25009	0.092
Mof_C 	C 	0.7988	0.9875	0.22906	-0.149
Mof_H 	H 	0.7635	0.0235	0.2143	0.084
Mof_C 	C 	0.7828	0.9075	0.23027	0.081
Mof_H 	H 	0.735	0.8891	0.2164	0.004
Mof_C 	C 	0.8002	0.765	0.35233	0.086
Mof_H 	H 	0.7591	0.7969	0.3396	0.004
Mof_C 	C 	0.8191	0.7749	0.39864	-0.156
Mof_H 	H 	0.7925	0.8132	0.4173	0.086
Mof_C 	C 	0.8783	0.7274	0.41744	0.096
Mof_C 	C 	0.9156	0.672	0.38902	-0.155
Mof_H 	H 	0.9558	0.6383	0.4011	0.083
Mof_C 	C 	0.8923	0.6674	0.34249	0.081
Mof_H 	H 	0.9178	0.6297	0.3229	0.001
Mof_C 	C 	0.1292	0.7912	0.4551	0.082
Mof_H 	H 	0.16	0.8177	0.4321	0.003
Mof_C 	C 	0.0492	0.7831	0.44714	-0.153
Mof_H 	H 	0.0258	0.8045	0.4197	0.083
Mof_C 	C 	0.0032	0.7434	0.47957	0.093
Mof_C 	C 	0.041	0.7131	0.51928	-0.148
Mof_H 	H 	0.0117	0.6845	0.5422	0.08
Mof_C 	C 	0.1207	0.7251	0.5247	0.079
Mof_H 	H 	0.1454	0.7048	0.5521	0.006
Mof_C 	C 	0.8156	0.7991	0.1385	0.081
Mof_H 	H 	0.8597	0.8259	0.1518	0.002
Mof_C 	C 	0.7867	0.8259	0.09628	-0.157
Mof_H 	H 	0.8108	0.8694	0.0807	0.084
Mof_C 	C 	0.7215	0.7876	0.07695	0.097
Mof_C 	C 	0.6909	0.7218	0.09984	-0.155
Mof_H 	H 	0.6477	0.6931	0.087	0.088
Mof_C 	C 	0.7246	0.6992	0.14155	0.083
Mof_H 	H 	0.7037	0.6538	0.1568	0.004
Mof_C 	C 	0.6736	0.0476	0.05304	0.079
Mof_H 	H 	0.6596	0.0802	0.0788	0.002
Mof_C 	C 	0.6701	0.967	0.0587	-0.151
Mof_H 	H 	0.6547	0.9447	0.0879	0.081
Mof_C 	C 	0.6896	0.9182	0.02112	0.094
Mof_C 	C 	0.7135	0.9533	0.97978	-0.151
Mof_H 	H 	0.7284	0.9217	0.9537	0.084
Mof_C 	C 	0.7155	0.0356	0.97686	0.079
Mof_H 	H 	0.7315	0.0593	0.9482	0.004
Mof_Cd	Cd	0.19351	0.28196	0.74342	0.35
Mof_S 	S 	0.1008	0.26535	0.97788	-0.072
Mof_S 	S 	0.3234	0.18532	0.5232	-0.064
Mof_N 	N 	0.16851	0.146	0.75023	-0.161
Mof_N 	N 	0.16403	0.28684	0.82395	-0.162
Mof_N 	N 	0.83361	0.23604	0.99343	-0.157
Mof_N 	N 	0.21496	0.26262	0.66199	-0.161
Mof_N 	N 	0.30432	0.91713	0.51281	-0.162
Mof_C 	C 	0.1036	0.1192	0.771	0.082
Mof_H 	H 	0.0697	0.1565	0.7858	0.001
Mof_C 	C 	0.0822	0.0394	0.77233	-0.153
Mof_H 	H 	0.0354	0.0224	0.7879	0.082
Mof_C 	C 	0.1319	0.9859	0.75009	0.092
Mof_C 	C 	0.2012	0.0125	0.72906	-0.149
Mof_H 	H 	0.2365	0.9765	0.7143	0.084
Mof_C 	C 	0.2172	0.0925	0.73027	0.081
Mof_H 	H 	0.265	0.1109	0.7164	0.004
Mof_C 	C 	0.1998	0.235	0.85233	0.086
Mof_H 	H 	0.2409	0.2031	0.8396	0.004
Mof_C 	C 	0.1809	0.2251	0.89864	-0.156
Mof_H 	H 	0.2075	0.1868	0.9173	0.086
Mof_C 	C 	0.1217	0.2726	0.91744	0.097
Mof_C 	C 	0.0844	0.328	0.88902	-0.155
Mof_H 	H 	0.0442	0.3617	0.9011	0.083
Mof_C 	C 	0.1077	0.3326	0.84249	0.081
Mof_H 	H 	0.0822	0.3703	0.8229	0.001
Mof_C 	C 	0.8708	0.2088	0.9551	0.082
Mof_H 	H 	0.84	0.1823	0.9321	0.003
Mof_C 	C 	0.9508	0.2169	0.94714	-0.153
Mof_H 	H 	0.9742	0.1955	0.9197	0.083
Mof_C 	C 	0.9968	0.2566	0.97957	0.093
Mof_C 	C 	0.959	0.2869	0.01928	-0.148
Mof_H 	H 	0.9883	0.3155	0.0422	0.08
Mof_C 	C 	0.8793	0.2749	0.0247	0.079
Mof_H 	H 	0.8546	0.2952	0.0521	0.006
Mof_C 	C 	0.1844	0.2009	0.6385	0.081
Mof_H 	H 	0.1403	0.1741	0.6518	0.002
Mof_C 	C 	0.2133	0.1741	0.59628	-0.157
Mof_H 	H 	0.1892	0.1306	0.5807	0.084
Mof_C 	C 	0.2785	0.2124	0.57695	0.097
Mof_C 	C 	0.3091	0.2782	0.59984	-0.155
Mof_H 	H 	0.3523	0.3069	0.587	0.088
Mof_C 	C 	0.2754	0.3008	0.64155	0.083
Mof_H 	H 	0.2963	0.3462	0.6568	0.004
Mof_C 	C 	0.3264	0.9524	0.55304	0.079
Mof_H 	H 	0.3404	0.9198	0.5788	0.002
Mof_C 	C 	0.3299	0.033	0.5587	-0.151
Mof_H 	H 	0.3453	0.0553	0.5879	0.081
Mof_C 	C 	0.3104	0.0818	0.52112	0.092
Mof_C 	C 	0.2865	0.0467	0.47978	-0.149
Mof_H 	H 	0.2716	0.0783	0.4537	0.083
Mof_C 	C 	0.2845	0.9644	0.47686	0.078
Mof_H 	H 	0.2685	0.9407	0.4482	0.004
Mof_Cd	Cd	0.21804	0.69351	0.99342	0.349
Mof_S 	S 	0.23465	0.6008	0.22788	-0.072
Mof_S 	S 	0.31468	0.8234	0.7732	-0.065
Mof_N 	N 	0.354	0.66851	0.00023	-0.161
Mof_N 	N 	0.21316	0.66403	0.07395	-0.162
Mof_N 	N 	0.26396	0.33361	0.24343	-0.156
Mof_N 	N 	0.23738	0.71496	0.91199	-0.162
Mof_N 	N 	0.58287	0.80432	0.76281	-0.162
Mof_C 	C 	0.3808	0.6036	0.021	0.084
Mof_H 	H 	0.3435	0.5697	0.0358	0.001
Mof_C 	C 	0.4606	0.5822	0.02233	-0.157
Mof_H 	H 	0.4776	0.5354	0.0379	0.083
Mof_C 	C 	0.5141	0.6319	9e-05	0.097
Mof_C 	C 	0.4875	0.7012	0.97906	-0.155
Mof_H 	H 	0.5235	0.7365	0.9643	0.086
Mof_C 	C 	0.4075	0.7172	0.98027	0.082
Mof_H 	H 	0.3891	0.765	0.9664	0.003
Mof_C 	C 	0.265	0.6998	0.10233	0.086
Mof_H 	H 	0.2969	0.7409	0.0896	0.004
Mof_C 	C 	0.2749	0.6809	0.14864	-0.156
Mof_H 	H 	0.3132	0.7075	0.1673	0.086
Mof_C 	C 	0.2274	0.6217	0.16744	0.096
Mof_C 	C 	0.172	0.5844	0.13902	-0.155
Mof_H 	H 	0.1383	0.5442	0.1511	0.083
Mof_C 	C 	0.1674	0.6077	0.09249	0.081
Mof_H 	H 	0.1297	0.5822	0.0729	0.001
Mof_C 	C 	0.2912	0.3708	0.2051	0.083
Mof_H 	H 	0.3177	0.34	0.1821	0.003
Mof_C 	C 	0.2831	0.4508	0.19714	-0.154
Mof_H 	H 	0.3045	0.4742	0.1697	0.084
Mof_C 	C 	0.2434	0.4968	0.22957	0.094
Mof_C 	C 	0.2131	0.459	0.26928	-0.148
Mof_H 	H 	0.1845	0.4883	0.2922	0.08
Mof_C 	C 	0.2251	0.3793	0.2747	0.079
Mof_H 	H 	0.2048	0.3546	0.3021	0.006
Mof_C 	C 	0.2991	0.6844	0.8885	0.081
Mof_H 	H 	0.3259	0.6403	0.9018	0.002
Mof_C 	C 	0.3259	0.7133	0.84628	-0.157
Mof_H 	H 	0.3694	0.6892	0.8307	0.084
Mof_C 	C 	0.2876	0.7785	0.82695	0.097
Mof_C 	C 	0.2218	0.8091	0.84984	-0.155
Mof_H 	H 	0.1931	0.8523	0.837	0.088
Mof_C 	C 	0.1992	0.7754	0.89155	0.083
Mof_H 	H 	0.1538	0.7963	0.9068	0.003
Mof_C 	C 	0.5476	0.8264	0.80304	0.08
Mof_H 	H 	0.5802	0.8404	0.8288	0.002
Mof_C 	C 	0.467	0.8299	0.8087	-0.152
Mof_H 	H 	0.4447	0.8453	0.8379	0.081
Mof_C 	C 	0.4182	0.8104	0.77112	0.093
Mof_C 	C 	0.4533	0.7865	0.72978	-0.15
Mof_H 	H 	0.4217	0.7716	0.7037	0.084
Mof_C 	C 	0.5356	0.7845	0.72686	0.079
Mof_H 	H 	0.5593	0.7685	0.6982	0.004
Mof_Cd	Cd	0.78196	0.30649	0.49342	0.35
Mof_S 	S 	0.76535	0.3992	0.72788	-0.072
Mof_S 	S 	0.68532	0.1766	0.2732	-0.065
Mof_N 	N 	0.646	0.33149	0.50023	-0.162
Mof_N 	N 	0.78684	0.33597	0.57395	-0.162
Mof_N 	N 	0.73604	0.66639	0.74343	-0.156
Mof_N 	N 	0.76262	0.28504	0.41199	-0.162
Mof_N 	N 	0.41713	0.19568	0.26281	-0.162
Mof_C 	C 	0.6192	0.3964	0.521	0.084
Mof_H 	H 	0.6565	0.4303	0.5358	0.001
Mof_C 	C 	0.5394	0.4178	0.52233	-0.157
Mof_H 	H 	0.5224	0.4646	0.5379	0.083
Mof_C 	C 	0.4859	0.3681	0.50009	0.096
Mof_C 	C 	0.5125	0.2988	0.47906	-0.154
Mof_H 	H 	0.4765	0.2635	0.4643	0.086
Mof_C 	C 	0.5925	0.2828	0.48027	0.083
Mof_H 	H 	0.6109	0.235	0.4664	0.003
Mof_C 	C 	0.735	0.3002	0.60233	0.086
Mof_H 	H 	0.7031	0.2591	0.5896	0.004
Mof_C 	C 	0.7251	0.3191	0.64864	-0.156
Mof_H 	H 	0.6868	0.2925	0.6673	0.086
Mof_C 	C 	0.7726	0.3783	0.66744	0.096
Mof_C 	C 	0.828	0.4156	0.63902	-0.155
Mof_H 	H 	0.8617	0.4558	0.6511	0.083
Mof_C 	C 	0.8326	0.3923	0.59249	0.081
Mof_H 	H 	0.8703	0.4178	0.5729	0.001
Mof_C 	C 	0.7088	0.6292	0.7051	0.083
Mof_H 	H 	0.6823	0.66	0.6821	0.003
Mof_C 	C 	0.7169	0.5492	0.69714	-0.154
Mof_H 	H 	0.6955	0.5258	0.6697	0.083
Mof_C 	C 	0.7566	0.5032	0.72957	0.094
Mof_C 	C 	0.7869	0.541	0.76928	-0.148
Mof_H 	H 	0.8155	0.5117	0.7922	0.08
Mof_C 	C 	0.7749	0.6207	0.7747	0.079
Mof_H 	H 	0.7952	0.6454	0.8021	0.006
Mof_C 	C 	0.7009	0.3156	0.3885	0.081
Mof_H 	H 	0.6741	0.3597	0.4018	0.002
Mof_C 	C 	0.6741	0.2867	0.34628	-0.157
Mof_H 	H 	0.6306	0.3108	0.3307	0.084
Mof_C 	C 	0.7124	0.2215	0.32695	0.097
Mof_C 	C 	0.7782	0.1909	0.34984	-0.155
Mof_H 	H 	0.8069	0.1477	0.337	0.088
Mof_C 	C 	0.8008	0.2246	0.39155	0.083
Mof_H 	H 	0.8462	0.2037	0.4068	0.003
Mof_C 	C 	0.4524	0.1736	0.30304	0.08
Mof_H 	H 	0.4198	0.1596	0.3288	0.002
Mof_C 	C 	0.533	0.1701	0.3087	-0.152
Mof_H 	H 	0.5553	0.1547	0.3379	0.082
Mof_C 	C 	0.5818	0.1896	0.27112	0.093
Mof_C 	C 	0.5467	0.2135	0.22978	-0.15
Mof_H 	H 	0.5783	0.2284	0.2037	0.084
Mof_C 	C 	0.4644	0.2155	0.22686	0.079
Mof_H 	H 	0.4407	0.2315	0.1982	0.004
Mof_S 	S 	0.61752	0.61752	-0	-0.071
Mof_S 	S 	0.38248	0.38248	0.5	-0.072
Mof_S 	S 	0.88248	0.11752	0.25	-0.071
Mof_S 	S 	0.11752	0.88248	0.75	-0.071
_end
