data_functionalizedCrystal
_audit_creation_method	'EQeq! by Chris Wilmer'
_symmetry_space_group_name_H-M	'P1'
_symmetry_Int_Tables_number	1
_symmetry_cell_setting	triclinic
loop_
_symmetry_equiv_pos_as_xyz
  x,y,z
_cell_length_a	9.6427
_cell_length_b	9.9392
_cell_length_c	9.9832
_cell_angle_alpha	86.303
_cell_angle_beta	81.118
_cell_angle_gamma	65.262
loop_
_atom_site_label
_atom_site_type_symbol
_atom_site_fract_x
_atom_site_fract_y
_atom_site_fract_z
_atom_site_charge
Mof_Cd	Cd	0.95039	0.72492	0.5415	0.441
Mof_Cd	Cd	0.04961	0.27508	0.4585	0.441
Mof_H 	H 	0.171	0.9943	0.8052	0.05
Mof_H 	H 	0.8222	0.8976	0.9976	0.059
Mof_H 	H 	0.4921	0.6567	0.6697	0.055
Mof_H 	H 	0.7073	0.4193	0.3257	0.053
Mof_H 	H 	0.4493	0.449	0.8946	0.071
Mof_H 	H 	0.4168	0.4136	0.0519	0.072
Mof_H 	H 	0.1993	0.6113	0.9687	0.054
Mof_H 	H 	0.2975	0.7089	0.9458	0.058
Mof_H 	H 	0.2332	0.8324	0.3936	0.024
Mof_H 	H 	0.0713	0.5984	0.2167	0.023
Mof_H 	H 	0.829	0.0057	0.1948	0.05
Mof_H 	H 	0.1778	0.1024	0.0024	0.059
Mof_H 	H 	0.5079	0.3433	0.3303	0.055
Mof_H 	H 	0.2927	0.5807	0.6743	0.053
Mof_H 	H 	0.5507	0.551	0.1054	0.071
Mof_H 	H 	0.5832	0.5864	0.9481	0.072
Mof_H 	H 	0.8007	0.3887	0.0313	0.054
Mof_H 	H 	0.7025	0.2911	0.0542	0.058
Mof_H 	H 	0.7668	0.1676	0.6064	0.024
Mof_H 	H 	0.9287	0.4016	0.7833	0.023
Mof_C 	C 	0.9933	0.8629	0.7543	0.279
Mof_C 	C 	0.9965	0.935	0.8808	-0.053
Mof_C 	C 	0.1013	0.9965	0.8843	-0.013
Mof_C 	C 	0.8946	0.9392	0.9984	-0.028
Mof_C 	C 	0.7513	0.5874	0.496	0.287
Mof_C 	C 	0.6198	0.5443	0.4965	-0.052
Mof_C 	C 	0.4955	0.5931	0.601	-0.02
Mof_C 	C 	0.6228	0.4521	0.3968	-0.022
Mof_C 	C 	0.4301	0.4886	0.9873	-0.094
Mof_C 	C 	0.2812	0.6298	0.0022	-0.044
Mof_C 	C 	0.2167	0.7792	0.3265	0.101
Mof_C 	C 	0.1271	0.6534	0.2338	0.092
Mof_C 	C 	0.0067	0.1371	0.2457	0.279
Mof_C 	C 	0.0035	0.065	0.1192	-0.053
Mof_C 	C 	0.8987	0.0035	0.1157	-0.013
Mof_C 	C 	0.1054	0.0608	0.0016	-0.028
Mof_C 	C 	0.2487	0.4126	0.504	0.287
Mof_C 	C 	0.3802	0.4557	0.5035	-0.052
Mof_C 	C 	0.5045	0.4069	0.399	-0.02
Mof_C 	C 	0.3772	0.5479	0.6032	-0.022
Mof_C 	C 	0.5699	0.5114	0.0127	-0.094
Mof_C 	C 	0.7188	0.3702	0.9978	-0.044
Mof_C 	C 	0.7833	0.2208	0.6735	0.101
Mof_C 	C 	0.8729	0.3466	0.7662	0.092
Mof_N 	N 	0.2309	0.6792	0.143	-0.088
Mof_N 	N 	0.2897	0.7604	0.2034	-0.092
Mof_N 	N 	0.1142	0.7158	0.3506	-0.152
Mof_N 	N 	0.7691	0.3208	0.857	-0.088
Mof_N 	N 	0.7103	0.2396	0.7966	-0.092
Mof_N 	N 	0.8858	0.2842	0.6494	-0.152
Mof_O 	O 	0.067	0.8772	0.644	-0.259
Mof_O 	O 	0.9155	0.786	0.7629	-0.261
Mof_O 	O 	0.7352	0.6852	0.5789	-0.269
Mof_O 	O 	0.8731	0.5256	0.4128	-0.272
Mof_O 	O 	0.933	0.1228	0.356	-0.259
Mof_O 	O 	0.0845	0.214	0.2371	-0.261
Mof_O 	O 	0.2648	0.3148	0.4211	-0.269
Mof_O 	O 	0.1269	0.4744	0.5872	-0.272
_end
