data_functionalizedCrystal
_audit_creation_method	'EQeq! by Chris Wilmer'
_symmetry_space_group_name_H-M	'P1'
_symmetry_Int_Tables_number	1
_symmetry_cell_setting	triclinic
loop_
_symmetry_equiv_pos_as_xyz
  x,y,z
_cell_length_a	17.005
_cell_length_b	17.539
_cell_length_c	21.668
_cell_angle_alpha	92.01
_cell_angle_beta	104.49
_cell_angle_gamma	107.16
loop_
_atom_site_label
_atom_site_type_symbol
_atom_site_fract_x
_atom_site_fract_y
_atom_site_fract_z
_atom_site_charge
Mof_Dy	Dy	0.88068	0.7112	0.09299	1.883
Mof_Dy	Dy	0.00225	0.75898	0.29576	1.893
Mof_Cu	Cu	0.4322	0.71086	0.19027	0.889
Mof_Cu	Cu	0.8781	0.21779	0.19107	0.89
Mof_Cu	Cu	0.88517	0.70721	0.67823	0.893
Mof_O 	O 	0.9745	0.6913	0.38837	-0.42
Mof_O 	O 	0.984	0.8171	0.39507	-0.418
Mof_O 	O 	0.947	0.5475	0.5861	-0.238
Mof_O 	O 	0.9095	0.6078	0.6583	-0.392
Mof_O 	O 	0.923	0.1139	0.348	-0.239
Mof_O 	O 	0.9142	0.2087	0.2824	-0.403
Mof_O 	O 	0.9565	0.8616	0.24542	-0.535
Mof_O 	O 	0.926	0.8455	0.14062	-0.513
Mof_O 	O 	0.8731	0.8912	0.7818	-0.22
Mof_O 	O 	0.8945	0.6459	0.99557	-0.398
Mof_O 	O 	0.901	0.7746	0.99587	-0.398
Mof_O 	O 	0.953	0.6263	0.25158	-0.499
Mof_O 	O 	0.0561	0.7657	0.20862	-0.558
Mof_O 	O 	0.0282	0.7492	0.10156	-0.455
Mof_O 	O 	0.4278	0.7242	0.28039	-0.393
Mof_O 	O 	0.3485	0.7495	0.3394	-0.263
Mof_O 	O 	0.8309	0.7061	0.18062	-0.584
Mof_O 	O 	0.8538	0.7229	0.2865	-0.466
Mof_O 	O 	0.5261	0.6847	0.0462	-0.255
Mof_O 	O 	0.4384	0.7001	0.10154	-0.381
Mof_O 	O 	0.9275	0.6102	0.14219	-0.493
Mof_O 	O 	0.8609	0.327	0.0333	-0.245
Mof_O 	O 	0.8675	0.2324	0.1014	-0.369
Mof_O 	O 	0.881	0.8133	0.7007	-0.377
Mof_N 	N 	0.8966	0.6993	0.7705	-0.213
Mof_N 	N 	0.8981	0.1146	0.1838	-0.195
Mof_N 	N 	0.9056	0.7288	0.5947	-0.192
Mof_N 	N 	0.8919	0.334	0.2018	-0.198
Mof_N 	N 	0.5467	0.6996	0.2092	-0.195
Mof_N 	N 	0.3224	0.7317	0.1725	-0.199
Mof_C 	C 	0.937	0.8838	0.1939	0.527
Mof_C 	C 	0.8078	0.7107	0.2309	0.476
Mof_C 	C 	0.7126	0.7039	0.2209	-0.135
Mof_C 	C 	0.9703	0.7514	0.4166	0.352
Mof_C 	C 	0.9009	0.71	0.9681	0.281
Mof_C 	C 	0.9044	0.7056	0.9001	-0.024
Mof_C 	C 	0.6576	0.6978	0.1627	0.058
Mof_H 	H 	0.6755	0.6944	0.1258	-0.012
Mof_C 	C 	0.1886	0.7413	0.1078	-0.014
Mof_H 	H 	0.1525	0.7399	0.0673	0.077
Mof_C 	C 	0.2685	0.7323	0.1149	0.016
Mof_H 	H 	0.2862	0.7264	0.0782	0.039
Mof_C 	C 	0.2194	0.7525	0.2253	0.031
Mof_H 	H 	0.204	0.7589	0.2629	0.001
Mof_C 	C 	0.2993	0.7422	0.2253	-0.057
Mof_C 	C 	0.0764	0.7565	0.157	0.456
Mof_C 	C 	0.9221	0.9633	0.1915	-0.145
Mof_C 	C 	0.51	0.6926	0.0978	0.294
Mof_C 	C 	0.3643	0.74	0.289	0.323
Mof_C 	C 	0.1644	0.7524	0.1631	-0.119
Mof_C 	C 	0.5754	0.6964	0.1581	-0.074
Mof_C 	C 	0.5986	0.7039	0.2674	0.006
Mof_H 	H 	0.5778	0.7057	0.3031	0.033
Mof_C 	C 	0.9099	0.6405	0.8692	-0.068
Mof_H 	H 	0.9164	0.5972	0.8912	0.074
Mof_C 	C 	0.9061	0.6379	0.8048	0.026
Mof_H 	H 	0.9102	0.5923	0.7842	0.024
Mof_C 	C 	0.8909	0.7627	0.8006	-0.028
Mof_C 	C 	0.8966	0.769	0.8656	-0.04
Mof_H 	H 	0.8952	0.8159	0.886	0.07
Mof_C 	C 	0.8998	0.4452	0.1408	0.013
Mof_H 	H 	0.8963	0.4661	0.1018	0.045
Mof_C 	C 	0.9208	0.4962	0.1985	-0.102
Mof_C 	C 	0.9351	0.5855	0.1977	0.431
Mof_C 	C 	0.8847	0.3646	0.1435	-0.05
Mof_C 	C 	0.9078	0.3812	0.2559	0.021
Mof_H 	H 	0.9084	0.3593	0.2945	0.034
Mof_C 	C 	0.9233	0.4622	0.2543	-0.017
Mof_H 	H 	0.936	0.495	0.2924	0.064
Mof_C 	C 	0.8926	0.0724	0.1307	0.007
Mof_H 	H 	0.8827	0.0943	0.0921	0.036
Mof_C 	C 	0.9144	0.0858	0.2407	-0.062
Mof_C 	C 	0.8822	0.827	0.7586	0.265
Mof_C 	C 	0.9498	0.6778	0.5094	0.006
Mof_H 	H 	0.9656	0.6372	0.4921	0.062
Mof_C 	C 	0.928	0.6706	0.568	-0.044
Mof_C 	C 	0.9053	0.7968	0.5646	0.029
Mof_H 	H 	0.894	0.8386	0.5846	0.036
Mof_C 	C 	0.9013	0.9945	0.1306	0.007
Mof_H 	H 	0.8937	0.964	0.0923	0.039
Mof_C 	C 	0.9271	0.0094	0.2445	0.049
Mof_H 	H 	0.9391	0.9908	0.2844	0.04
Mof_C 	C 	0.9481	0.7455	0.4764	-0.069
Mof_C 	C 	0.6839	0.706	0.2762	-0.007
Mof_H 	H 	0.7199	0.7087	0.3169	0.052
Mof_C 	C 	0.9198	0.1396	0.2954	0.293
Mof_C 	C 	0.8695	0.3061	0.0862	0.283
Mof_C 	C 	0.9261	0.6032	0.6063	0.316
Mof_C 	C 	0.9218	0.8045	0.5037	-0.026
Mof_H 	H 	0.9153	0.848	0.4821	0.063
Mof_Dy	Dy	0.11932	0.2888	0.90701	1.882
Mof_Dy	Dy	0.99776	0.24102	0.70424	1.892
Mof_Cu	Cu	0.5678	0.28914	0.80973	0.888
Mof_Cu	Cu	0.1219	0.78221	0.80893	0.889
Mof_Cu	Cu	0.11483	0.29279	0.32177	0.892
Mof_O 	O 	0.0255	0.3087	0.61163	-0.421
Mof_O 	O 	0.016	0.1829	0.60493	-0.419
Mof_O 	O 	0.053	0.4525	0.4139	-0.239
Mof_O 	O 	0.0905	0.3922	0.3417	-0.393
Mof_O 	O 	0.077	0.8861	0.652	-0.24
Mof_O 	O 	0.0858	0.7913	0.7176	-0.404
Mof_O 	O 	0.0435	0.1384	0.75458	-0.536
Mof_O 	O 	0.074	0.1545	0.85938	-0.513
Mof_O 	O 	0.1269	0.1088	0.2182	-0.22
Mof_O 	O 	0.1055	0.3541	0.00443	-0.398
Mof_O 	O 	0.099	0.2254	0.00413	-0.398
Mof_O 	O 	0.047	0.3737	0.74842	-0.499
Mof_O 	O 	0.9439	0.2343	0.79138	-0.558
Mof_O 	O 	0.9718	0.2508	0.89844	-0.455
Mof_O 	O 	0.5722	0.2758	0.71961	-0.393
Mof_O 	O 	0.6515	0.2505	0.6606	-0.263
Mof_O 	O 	0.1691	0.2939	0.81938	-0.584
Mof_O 	O 	0.1462	0.2771	0.7135	-0.466
Mof_O 	O 	0.4739	0.3153	0.9538	-0.255
Mof_O 	O 	0.5616	0.2999	0.89846	-0.381
Mof_O 	O 	0.0725	0.3898	0.85781	-0.493
Mof_O 	O 	0.1391	0.673	0.9667	-0.245
Mof_O 	O 	0.1325	0.7676	0.8986	-0.369
Mof_O 	O 	0.119	0.1867	0.2993	-0.377
Mof_N 	N 	0.1034	0.3007	0.2295	-0.213
Mof_N 	N 	0.1019	0.8854	0.8162	-0.195
Mof_N 	N 	0.0944	0.2712	0.4053	-0.192
Mof_N 	N 	0.1081	0.666	0.7982	-0.198
Mof_N 	N 	0.4533	0.3004	0.7908	-0.195
Mof_N 	N 	0.6776	0.2683	0.8275	-0.199
Mof_C 	C 	0.063	0.1162	0.8061	0.527
Mof_C 	C 	0.1922	0.2893	0.7691	0.476
Mof_C 	C 	0.2874	0.2961	0.7791	-0.135
Mof_C 	C 	0.0297	0.2486	0.5834	0.352
Mof_C 	C 	0.0991	0.29	0.0319	0.281
Mof_C 	C 	0.0956	0.2944	0.0999	-0.024
Mof_C 	C 	0.3424	0.3022	0.8373	0.058
Mof_H 	H 	0.3245	0.3056	0.8742	-0.012
Mof_C 	C 	0.8114	0.2587	0.8922	-0.014
Mof_H 	H 	0.8475	0.2601	0.9327	0.077
Mof_C 	C 	0.7315	0.2677	0.8851	0.016
Mof_H 	H 	0.7138	0.2736	0.9218	0.039
Mof_C 	C 	0.7806	0.2475	0.7747	0.031
Mof_H 	H 	0.796	0.2411	0.7371	0.001
Mof_C 	C 	0.7007	0.2578	0.7747	-0.057
Mof_C 	C 	0.9236	0.2435	0.843	0.456
Mof_C 	C 	0.0779	0.0367	0.8085	-0.145
Mof_C 	C 	0.49	0.3074	0.9022	0.294
Mof_C 	C 	0.6357	0.26	0.711	0.323
Mof_C 	C 	0.8356	0.2476	0.8369	-0.119
Mof_C 	C 	0.4246	0.3036	0.8419	-0.074
Mof_C 	C 	0.4014	0.2961	0.7326	0.006
Mof_H 	H 	0.4222	0.2943	0.6969	0.033
Mof_C 	C 	0.0901	0.3595	0.1308	-0.068
Mof_H 	H 	0.0836	0.4028	0.1088	0.074
Mof_C 	C 	0.0939	0.3621	0.1952	0.026
Mof_H 	H 	0.0898	0.4077	0.2158	0.024
Mof_C 	C 	0.1091	0.2373	0.1994	-0.028
Mof_C 	C 	0.1034	0.231	0.1344	-0.04
Mof_H 	H 	0.1048	0.1841	0.114	0.07
Mof_C 	C 	0.1002	0.5548	0.8592	0.013
Mof_H 	H 	0.1037	0.5339	0.8982	0.045
Mof_C 	C 	0.0792	0.5038	0.8015	-0.102
Mof_C 	C 	0.0649	0.4145	0.8023	0.431
Mof_C 	C 	0.1153	0.6354	0.8565	-0.05
Mof_C 	C 	0.0922	0.6188	0.7441	0.021
Mof_H 	H 	0.0916	0.6407	0.7055	0.034
Mof_C 	C 	0.0767	0.5378	0.7457	-0.017
Mof_H 	H 	0.064	0.505	0.7076	0.064
Mof_C 	C 	0.1074	0.9276	0.8693	0.007
Mof_H 	H 	0.1173	0.9057	0.9079	0.036
Mof_C 	C 	0.0856	0.9142	0.7593	-0.062
Mof_C 	C 	0.1178	0.173	0.2414	0.265
Mof_C 	C 	0.0502	0.3222	0.4906	0.006
Mof_H 	H 	0.0344	0.3628	0.5079	0.062
Mof_C 	C 	0.072	0.3294	0.432	-0.044
Mof_C 	C 	0.0947	0.2032	0.4354	0.029
Mof_H 	H 	0.106	0.1614	0.4154	0.036
Mof_C 	C 	0.0987	0.0055	0.8694	0.007
Mof_H 	H 	0.1063	0.036	0.9077	0.039
Mof_C 	C 	0.0729	0.9906	0.7555	0.049
Mof_H 	H 	0.0609	0.0092	0.7156	0.04
Mof_C 	C 	0.0519	0.2545	0.5236	-0.069
Mof_C 	C 	0.3161	0.294	0.7238	-0.007
Mof_H 	H 	0.2801	0.2913	0.6831	0.052
Mof_C 	C 	0.0802	0.8604	0.7046	0.293
Mof_C 	C 	0.1305	0.6939	0.9138	0.283
Mof_C 	C 	0.0739	0.3968	0.3937	0.316
Mof_C 	C 	0.0782	0.1955	0.4963	-0.026
Mof_H 	H 	0.0847	0.152	0.5179	0.063
_end
