# CIF file generated by openbabel 3.1.0, see https://openbabel.org
data_I
_chemical_name_common 'image0'
_cell_length_a 17.088
_cell_length_b 17.088
_cell_length_c 13.892
_cell_angle_alpha 90
_cell_angle_beta 90
_cell_angle_gamma 120
_space_group_name_H-M_alt 'P 1'
_space_group_name_Hall 'P 1'
loop_
    _symmetry_equiv_pos_as_xyz
    x,y,z
loop_
    _atom_site_label
    _atom_site_type_symbol
    _atom_site_fract_x
    _atom_site_fract_y
    _atom_site_fract_z
    _atom_site_occupancy
    O1       O        0.64606    0.42389    0.18110    1.000
    N1       N        0.39744    0.50614    0.41327    1.000
    N2       N        0.33374    0.56034    0.51429    1.000
    C1       C        0.49410    0.45880    0.33182    1.000
    H1       H        0.49440    0.42790    0.38680    1.000
    C2       C        0.44740    0.50460    0.33072    1.000
    C3       C        0.39060    0.57830    0.44247    1.000
    H2       H        0.42310    0.63510    0.41440    1.000
    C4       C        0.30150    0.46960    0.53488    1.000
    C5       C        0.23890    0.41390    0.60370    1.000
    H3       H        0.21210    0.43600    0.64570    1.000
    C6       C        0.21840    0.32570    0.60700    1.000
    H4       H        0.17740    0.28760    0.65290    1.000
    C7       C        0.25720    0.29080    0.54320    1.000
    H5       H        0.24110    0.23020    0.54740    1.000
    C8       C        0.31870    0.34470    0.47450    1.000
    H6       H        0.34460    0.32210    0.43200    1.000
    C9       C        0.34000    0.43390    0.47197    1.000
    O2       O        0.57611    0.22217    0.18110    1.000
    N3       N        0.49386    0.89130    0.41327    1.000
    N4       N        0.43966    0.77340    0.51429    1.000
    C10      C        0.54120    0.03530    0.33182    1.000
    H7       H        0.57210    0.06650    0.38680    1.000
    C11      C        0.49540    0.94280    0.33072    1.000
    C12      C        0.42170    0.81230    0.44247    1.000
    H8       H        0.36490    0.78800    0.41440    1.000
    C13      C        0.53040    0.83190    0.53488    1.000
    C14      C        0.58610    0.82500    0.60370    1.000
    H9       H        0.56400    0.77610    0.64570    1.000
    C15      C        0.67430    0.89270    0.60700    1.000
    H10      H        0.71240    0.88980    0.65290    1.000
    C16      C        0.70920    0.96640    0.54320    1.000
    H11      H        0.76980    0.01090    0.54740    1.000
    C17      C        0.65530    0.97400    0.47450    1.000
    H12      H        0.67790    0.02250    0.43200    1.000
    C18      C        0.56610    0.90610    0.47197    1.000
    O3       O        0.77783    0.35394    0.18110    1.000
    N5       N        0.10870    0.60256    0.41327    1.000
    N6       N        0.22660    0.66626    0.51429    1.000
    C19      C        0.96470    0.50590    0.33182    1.000
    H13      H        0.93350    0.50560    0.38680    1.000
    C20      C        0.05720    0.55260    0.33072    1.000
    C21      C        0.18770    0.60940    0.44247    1.000
    H14      H        0.21200    0.57690    0.41440    1.000
    C22      C        0.16810    0.69850    0.53488    1.000
    C23      C        0.17500    0.76110    0.60370    1.000
    H15      H        0.22390    0.78790    0.64570    1.000
    C24      C        0.10730    0.78160    0.60700    1.000
    H16      H        0.11020    0.82260    0.65290    1.000
    C25      C        0.03360    0.74280    0.54320    1.000
    H17      H        0.98910    0.75890    0.54740    1.000
    C26      C        0.02600    0.68130    0.47450    1.000
    H18      H        0.97750    0.65540    0.43200    1.000
    C27      C        0.09390    0.66000    0.47197    1.000
    O4       O        0.57611    0.35394    0.31890    1.000
    N7       N        0.49386    0.60256    0.08673    1.000
    N8       N        0.43966    0.66626    0.98571    1.000
    C28      C        0.54120    0.50590    0.16818    1.000
    H19      H        0.57210    0.50560    0.11320    1.000
    C29      C        0.49540    0.55260    0.16928    1.000
    C30      C        0.42170    0.60940    0.05753    1.000
    H20      H        0.36490    0.57690    0.08560    1.000
    C31      C        0.53040    0.69850    0.96512    1.000
    C32      C        0.58610    0.76110    0.89630    1.000
    H21      H        0.56400    0.78790    0.85430    1.000
    C33      C        0.67430    0.78160    0.89300    1.000
    H22      H        0.71240    0.82260    0.84710    1.000
    C34      C        0.70920    0.74280    0.95680    1.000
    H23      H        0.76980    0.75890    0.95260    1.000
    C35      C        0.65530    0.68130    0.02550    1.000
    H24      H        0.67790    0.65540    0.06800    1.000
    C36      C        0.56610    0.66000    0.02803    1.000
    O5       O        0.77783    0.42389    0.31890    1.000
    N9       N        0.10870    0.50614    0.08673    1.000
    N10      N        0.22660    0.56034    0.98571    1.000
    C37      C        0.96470    0.45880    0.16818    1.000
    H25      H        0.93350    0.42790    0.11320    1.000
    C38      C        0.05720    0.50460    0.16928    1.000
    C39      C        0.18770    0.57830    0.05753    1.000
    H26      H        0.21200    0.63510    0.08560    1.000
    C40      C        0.16810    0.46960    0.96512    1.000
    C41      C        0.17500    0.41390    0.89630    1.000
    H27      H        0.22390    0.43600    0.85430    1.000
    C42      C        0.10730    0.32570    0.89300    1.000
    H28      H        0.11020    0.28760    0.84710    1.000
    C43      C        0.03360    0.29080    0.95680    1.000
    H29      H        0.98910    0.23020    0.95260    1.000
    C44      C        0.02600    0.34470    0.02550    1.000
    H30      H        0.97750    0.32210    0.06800    1.000
    C45      C        0.09390    0.43390    0.02803    1.000
    O6       O        0.64606    0.22217    0.31890    1.000
    N11      N        0.39744    0.89130    0.08673    1.000
    N12      N        0.33374    0.77340    0.98571    1.000
    C46      C        0.49410    0.03530    0.16818    1.000
    H31      H        0.49440    0.06650    0.11320    1.000
    C47      C        0.44740    0.94280    0.16928    1.000
    C48      C        0.39060    0.81230    0.05753    1.000
    H32      H        0.42310    0.78800    0.08560    1.000
    C49      C        0.30150    0.83190    0.96512    1.000
    C50      C        0.23890    0.82500    0.89630    1.000
    H33      H        0.21210    0.77610    0.85430    1.000
    C51      C        0.21840    0.89270    0.89300    1.000
    H34      H        0.17740    0.88980    0.84710    1.000
    C52      C        0.25720    0.96640    0.95680    1.000
    H35      H        0.24110    0.01090    0.95260    1.000
    C53      C        0.31870    0.97400    0.02550    1.000
    H36      H        0.34460    0.02250    0.06800    1.000
    C54      C        0.34000    0.90610    0.02803    1.000
    O7       O        0.35394    0.57611    0.81890    1.000
    N13      N        0.60256    0.49386    0.58673    1.000
    N14      N        0.66626    0.43966    0.48571    1.000
    C55      C        0.50590    0.54120    0.66818    1.000
    H37      H        0.50560    0.57210    0.61320    1.000
    C56      C        0.55260    0.49540    0.66928    1.000
    C57      C        0.60940    0.42170    0.55753    1.000
    H38      H        0.57690    0.36490    0.58560    1.000
    C58      C        0.69850    0.53040    0.46512    1.000
    C59      C        0.76110    0.58610    0.39630    1.000
    H39      H        0.78790    0.56400    0.35430    1.000
    C60      C        0.78160    0.67430    0.39300    1.000
    H40      H        0.82260    0.71240    0.34710    1.000
    C61      C        0.74280    0.70920    0.45680    1.000
    H41      H        0.75890    0.76980    0.45260    1.000
    C62      C        0.68130    0.65530    0.52550    1.000
    H42      H        0.65540    0.67790    0.56800    1.000
    C63      C        0.66000    0.56610    0.52803    1.000
    O8       O        0.42389    0.77783    0.81890    1.000
    N15      N        0.50614    0.10870    0.58673    1.000
    N16      N        0.56034    0.22660    0.48571    1.000
    C64      C        0.45880    0.96470    0.66818    1.000
    H43      H        0.42790    0.93350    0.61320    1.000
    C65      C        0.50460    0.05720    0.66928    1.000
    C66      C        0.57830    0.18770    0.55753    1.000
    H44      H        0.63510    0.21200    0.58560    1.000
    C67      C        0.46960    0.16810    0.46512    1.000
    C68      C        0.41390    0.17500    0.39630    1.000
    H45      H        0.43600    0.22390    0.35430    1.000
    C69      C        0.32570    0.10730    0.39300    1.000
    H46      H        0.28760    0.11020    0.34710    1.000
    C70      C        0.29080    0.03360    0.45680    1.000
    H47      H        0.23020    0.98910    0.45260    1.000
    C71      C        0.34470    0.02600    0.52550    1.000
    H48      H        0.32210    0.97750    0.56800    1.000
    C72      C        0.43390    0.09390    0.52803    1.000
    O9       O        0.22217    0.64606    0.81890    1.000
    N17      N        0.89130    0.39744    0.58673    1.000
    N18      N        0.77340    0.33374    0.48571    1.000
    C73      C        0.03530    0.49410    0.66818    1.000
    H49      H        0.06650    0.49440    0.61320    1.000
    C74      C        0.94280    0.44740    0.66928    1.000
    C75      C        0.81230    0.39060    0.55753    1.000
    H50      H        0.78800    0.42310    0.58560    1.000
    C76      C        0.83190    0.30150    0.46512    1.000
    C77      C        0.82500    0.23890    0.39630    1.000
    H51      H        0.77610    0.21210    0.35430    1.000
    C78      C        0.89270    0.21840    0.39300    1.000
    H52      H        0.88980    0.17740    0.34710    1.000
    C79      C        0.96640    0.25720    0.45680    1.000
    H53      H        0.01090    0.24110    0.45260    1.000
    C80      C        0.97400    0.31870    0.52550    1.000
    H54      H        0.02250    0.34460    0.56800    1.000
    C81      C        0.90610    0.34000    0.52803    1.000
    O10      O        0.42389    0.64606    0.68110    1.000
    N19      N        0.50614    0.39744    0.91327    1.000
    N20      N        0.56034    0.33374    0.01429    1.000
    C82      C        0.45880    0.49410    0.83182    1.000
    H55      H        0.42790    0.49440    0.88680    1.000
    C83      C        0.50460    0.44740    0.83072    1.000
    C84      C        0.57830    0.39060    0.94247    1.000
    H56      H        0.63510    0.42310    0.91440    1.000
    C85      C        0.46960    0.30150    0.03488    1.000
    C86      C        0.41390    0.23890    0.10370    1.000
    H57      H        0.43600    0.21210    0.14570    1.000
    C87      C        0.32570    0.21840    0.10700    1.000
    H58      H        0.28760    0.17740    0.15290    1.000
    C88      C        0.29080    0.25720    0.04320    1.000
    H59      H        0.23020    0.24110    0.04740    1.000
    C89      C        0.34470    0.31870    0.97450    1.000
    H60      H        0.32210    0.34460    0.93200    1.000
    C90      C        0.43390    0.34000    0.97197    1.000
    O11      O        0.22217    0.57611    0.68110    1.000
    N21      N        0.89130    0.49386    0.91327    1.000
    N22      N        0.77340    0.43966    0.01429    1.000
    C91      C        0.03530    0.54120    0.83182    1.000
    H61      H        0.06650    0.57210    0.88680    1.000
    C92      C        0.94280    0.49540    0.83072    1.000
    C93      C        0.81230    0.42170    0.94247    1.000
    H62      H        0.78800    0.36490    0.91440    1.000
    C94      C        0.83190    0.53040    0.03488    1.000
    C95      C        0.82500    0.58610    0.10370    1.000
    H63      H        0.77610    0.56400    0.14570    1.000
    C96      C        0.89270    0.67430    0.10700    1.000
    H64      H        0.88980    0.71240    0.15290    1.000
    C97      C        0.96640    0.70920    0.04320    1.000
    H65      H        0.01090    0.76980    0.04740    1.000
    C98      C        0.97400    0.65530    0.97450    1.000
    H66      H        0.02250    0.67790    0.93200    1.000
    C99      C        0.90610    0.56610    0.97197    1.000
    O12      O        0.35394    0.77783    0.68110    1.000
    N23      N        0.60256    0.10870    0.91327    1.000
    N24      N        0.66626    0.22660    0.01429    1.000
    C100     C        0.50590    0.96470    0.83182    1.000
    H67      H        0.50560    0.93350    0.88680    1.000
    C101     C        0.55260    0.05720    0.83072    1.000
    C102     C        0.60940    0.18770    0.94247    1.000
    H68      H        0.57690    0.21200    0.91440    1.000
    C103     C        0.69850    0.16810    0.03488    1.000
    C104     C        0.76110    0.17500    0.10370    1.000
    H69      H        0.78790    0.22390    0.14570    1.000
    C105     C        0.78160    0.10730    0.10700    1.000
    H70      H        0.82260    0.11020    0.15290    1.000
    C106     C        0.74280    0.03360    0.04320    1.000
    H71      H        0.75890    0.98910    0.04740    1.000
    C107     C        0.68130    0.02600    0.97450    1.000
    H72      H        0.65540    0.97750    0.93200    1.000
    C108     C        0.66000    0.09390    0.97197    1.000
    Co1      Co       0.66667    0.33333    0.10186    1.000
    Co2      Co       0.66667    0.33333    0.39814    1.000
    Co3      Co       0.33333    0.66667    0.89814    1.000
    Co4      Co       0.33333    0.66667    0.60186    1.000
    C109     C        0.59194    0.40806    0.25000    1.000
    C110     C        0.54122    0.45878    0.25000    1.000
    C111     C        0.44742    0.55258    0.25000    1.000
    H73      H        0.41600    0.58400    0.25000    1.000
    C112     C        0.59194    0.18388    0.25000    1.000
    C113     C        0.54122    0.08244    0.25000    1.000
    C114     C        0.44742    0.89484    0.25000    1.000
    H74      H        0.41600    0.83200    0.25000    1.000
    C115     C        0.81612    0.40806    0.25000    1.000
    C116     C        0.91756    0.45878    0.25000    1.000
    C117     C        0.10516    0.55258    0.25000    1.000
    H75      H        0.16800    0.58400    0.25000    1.000
    C118     C        0.40806    0.59194    0.75000    1.000
    C119     C        0.45878    0.54122    0.75000    1.000
    C120     C        0.55258    0.44742    0.75000    1.000
    H76      H        0.58400    0.41600    0.75000    1.000
    C121     C        0.40806    0.81612    0.75000    1.000
    C122     C        0.45878    0.91756    0.75000    1.000
    C123     C        0.55258    0.10516    0.75000    1.000
    H77      H        0.58400    0.16800    0.75000    1.000
    C124     C        0.18388    0.59194    0.75000    1.000
    C125     C        0.08244    0.54122    0.75000    1.000
    C126     C        0.89484    0.44742    0.75000    1.000
    H78      H        0.83200    0.41600    0.75000    1.000
