data_functionalizedCrystal
_audit_creation_method	'EQeq! by Chris Wilmer'
_symmetry_space_group_name_H-M	'P1'
_symmetry_Int_Tables_number	1
_symmetry_cell_setting	triclinic
loop_
_symmetry_equiv_pos_as_xyz
  x,y,z
_cell_length_a	21.294
_cell_length_b	7.1789
_cell_length_c	15.256
_cell_angle_alpha	90
_cell_angle_beta	90
_cell_angle_gamma	90
loop_
_atom_site_label
_atom_site_type_symbol
_atom_site_fract_x
_atom_site_fract_y
_atom_site_fract_z
_atom_site_charge
Mof_N 	N 	0.5664	0.3464	0.0608	-0.235
Mof_C 	C 	0.6126	0.5994	0.8915	0.114
Mof_H 	H 	0.6233	0.4759	0.8808	-0.023
Mof_C 	C 	0.7424	0.622	0.8219	-0.07
Mof_C 	C 	0.7037	0.619	0.7368	-0.055
Mof_H 	H 	0.7372	0.5308	0.8672	0.064
Mof_H 	H 	0.6723	0.5238	0.731	0.041
Mof_N 	N 	0.0664	0.8464	0.5608	-0.235
Mof_C 	C 	0.1126	0.0994	0.3915	0.033
Mof_H 	H 	0.1233	0.9759	0.3808	0.011
Mof_C 	C 	0.2424	0.122	0.3219	-0.07
Mof_C 	C 	0.2037	0.119	0.2368	-0.057
Mof_H 	H 	0.2372	0.0308	0.3672	0.04
Mof_H 	H 	0.1723	0.0238	0.231	0.021
Mof_N 	N 	0.4336	0.1536	0.0608	-0.228
Mof_C 	C 	0.3874	0.9006	0.8915	0.174
Mof_H 	H 	0.3767	0.0241	0.8808	-0.066
Mof_C 	C 	0.2576	0.878	0.8219	-0.073
Mof_C 	C 	0.2963	0.881	0.7368	-0.055
Mof_H 	H 	0.2628	0.9692	0.8672	0.071
Mof_H 	H 	0.3277	0.9762	0.731	0.052
Mof_N 	N 	0.9336	0.6536	0.5608	-0.203
Mof_C 	C 	0.8874	0.4006	0.3915	0.105
Mof_H 	H 	0.8767	0.5241	0.3808	-0.024
Mof_C 	C 	0.7576	0.378	0.3219	-0.073
Mof_C 	C 	0.7963	0.381	0.2368	-0.056
Mof_H 	H 	0.7628	0.4692	0.3672	0.052
Mof_H 	H 	0.8277	0.4762	0.231	0.044
Mof_N 	N 	0.4336	0.8464	0.9392	-0.204
Mof_C 	C 	0.3874	0.0994	0.1085	0.031
Mof_H 	H 	0.3767	0.9759	0.1192	0.007
Mof_C 	C 	0.2576	0.122	0.1781	-0.075
Mof_C 	C 	0.2963	0.119	0.2632	-0.052
Mof_H 	H 	0.2628	0.0308	0.1328	0.026
Mof_H 	H 	0.3277	0.0238	0.269	0.031
Mof_N 	N 	0.9336	0.3464	0.4392	-0.204
Mof_C 	C 	0.8874	0.5994	0.6085	0.11
Mof_H 	H 	0.8767	0.4759	0.6192	-0.026
Mof_C 	C 	0.7576	0.622	0.6781	-0.074
Mof_C 	C 	0.7963	0.619	0.7632	-0.049
Mof_H 	H 	0.7628	0.5308	0.6328	0.05
Mof_H 	H 	0.8277	0.5238	0.769	0.051
Mof_N 	N 	0.5664	0.6536	0.9392	-0.2
Mof_C 	C 	0.6126	0.4006	0.1085	0.093
Mof_H 	H 	0.6233	0.5241	0.1192	-0.036
Mof_C 	C 	0.7424	0.378	0.1781	-0.069
Mof_C 	C 	0.7037	0.381	0.2632	-0.049
Mof_H 	H 	0.7372	0.4692	0.1328	0.04
Mof_H 	H 	0.6723	0.4762	0.269	0.042
Mof_N 	N 	0.0664	0.1536	0.4392	-0.226
Mof_C 	C 	0.1126	0.9006	0.6085	0.163
Mof_H 	H 	0.1233	0.0241	0.6192	-0.079
Mof_C 	C 	0.2424	0.878	0.6781	-0.07
Mof_C 	C 	0.2037	0.881	0.7632	-0.048
Mof_H 	H 	0.2372	0.9692	0.6328	0.06
Mof_H 	H 	0.1723	0.9762	0.769	0.049
Mof_N 	N 	0.4336	0.6536	0.9392	-0.2
Mof_C 	C 	0.3874	0.4006	0.1085	0.092
Mof_H 	H 	0.3767	0.5241	0.1192	-0.036
Mof_C 	C 	0.2576	0.378	0.1781	-0.073
Mof_C 	C 	0.2963	0.381	0.2632	-0.05
Mof_H 	H 	0.2628	0.4692	0.1328	0.037
Mof_H 	H 	0.3277	0.4762	0.269	0.042
Mof_N 	N 	0.9336	0.1536	0.4392	-0.197
Mof_C 	C 	0.8874	0.9006	0.6085	0.171
Mof_H 	H 	0.8767	0.0241	0.6192	-0.069
Mof_C 	C 	0.7576	0.878	0.6781	-0.073
Mof_C 	C 	0.7963	0.881	0.7632	-0.048
Mof_H 	H 	0.7628	0.9692	0.6328	0.061
Mof_H 	H 	0.8277	0.9762	0.769	0.061
Mof_N 	N 	0.5664	0.8464	0.9392	-0.203
Mof_C 	C 	0.6126	0.0994	0.1085	0.032
Mof_H 	H 	0.6233	0.9759	0.1192	0.008
Mof_C 	C 	0.7424	0.122	0.1781	-0.07
Mof_C 	C 	0.7037	0.119	0.2632	-0.05
Mof_H 	H 	0.7372	0.0308	0.1328	0.03
Mof_H 	H 	0.6723	0.0238	0.269	0.031
Mof_N 	N 	0.0664	0.3464	0.4392	-0.233
Mof_C 	C 	0.1126	0.5994	0.6085	0.101
Mof_H 	H 	0.1233	0.4759	0.6192	-0.036
Mof_C 	C 	0.2424	0.622	0.6781	-0.071
Mof_C 	C 	0.2037	0.619	0.7632	-0.049
Mof_H 	H 	0.2372	0.5308	0.6328	0.049
Mof_H 	H 	0.1723	0.5238	0.769	0.038
Mof_N 	N 	0.5664	0.1536	0.0608	-0.228
Mof_C 	C 	0.6126	0.9006	0.8915	0.174
Mof_H 	H 	0.6233	0.0241	0.8808	-0.065
Mof_C 	C 	0.7424	0.878	0.8219	-0.069
Mof_C 	C 	0.7037	0.881	0.7368	-0.054
Mof_H 	H 	0.7372	0.9692	0.8672	0.074
Mof_H 	H 	0.6723	0.9762	0.731	0.052
Mof_N 	N 	0.0664	0.6536	0.5608	-0.231
Mof_C 	C 	0.1126	0.4006	0.3915	0.096
Mof_H 	H 	0.1233	0.5241	0.3808	-0.033
Mof_C 	C 	0.2424	0.378	0.3219	-0.069
Mof_C 	C 	0.2037	0.381	0.2368	-0.056
Mof_H 	H 	0.2372	0.4692	0.3672	0.051
Mof_H 	H 	0.1723	0.4762	0.231	0.032
Mof_N 	N 	0.4336	0.3464	0.0608	-0.235
Mof_C 	C 	0.3874	0.5994	0.8915	0.114
Mof_H 	H 	0.3767	0.4759	0.8808	-0.024
Mof_C 	C 	0.2576	0.622	0.8219	-0.075
Mof_C 	C 	0.2963	0.619	0.7368	-0.056
Mof_H 	H 	0.2628	0.5308	0.8672	0.061
Mof_H 	H 	0.3277	0.5238	0.731	0.041
Mof_N 	N 	0.9336	0.8464	0.5608	-0.206
Mof_C 	C 	0.8874	0.0994	0.3915	0.044
Mof_H 	H 	0.8767	0.9759	0.3808	0.019
Mof_C 	C 	0.7576	0.122	0.3219	-0.074
Mof_C 	C 	0.7963	0.119	0.2368	-0.057
Mof_H 	H 	0.7628	0.0308	0.3672	0.041
Mof_H 	H 	0.8277	0.0238	0.231	0.033
Mof_Cu	Cu	0.5	0.5	-0	0.793
Mof_Cu	Cu	1.34312e-33	0	0.5	0.782
Mof_Cu	Cu	0.5	0	-0	0.779
Mof_Cu	Cu	-4.06896e-33	0.5	0.5	0.796
Mof_N 	N 	0.6435	0.75	0.8587	-0.173
Mof_C 	C 	0.6974	0.75	0.8047	0.131
Mof_N 	N 	0.1435	0.25	0.3587	-0.156
Mof_C 	C 	0.1974	0.25	0.3047	0.114
Mof_N 	N 	0.3565	0.75	0.8587	-0.174
Mof_C 	C 	0.3026	0.75	0.8047	0.135
Mof_N 	N 	0.8565	0.25	0.3587	-0.155
Mof_C 	C 	0.8026	0.25	0.3047	0.122
Mof_N 	N 	0.3565	0.25	0.1413	-0.155
Mof_C 	C 	0.3026	0.25	0.1953	0.113
Mof_N 	N 	0.8565	0.75	0.6413	-0.172
Mof_C 	C 	0.8026	0.75	0.6953	0.13
Mof_N 	N 	0.6435	0.25	0.1413	-0.155
Mof_C 	C 	0.6974	0.25	0.1953	0.11
Mof_N 	N 	0.1435	0.75	0.6413	-0.174
Mof_C 	C 	0.1974	0.75	0.6953	0.123
_end
