data_functionalizedCrystal
_audit_creation_method	'EQeq! by Chris Wilmer'
_symmetry_space_group_name_H-M	'P1'
_symmetry_Int_Tables_number	1
_symmetry_cell_setting	triclinic
loop_
_symmetry_equiv_pos_as_xyz
  x,y,z
_cell_length_a	26.4452
_cell_length_b	26.4452
_cell_length_c	52.74
_cell_angle_alpha	90.895
_cell_angle_beta	90.895
_cell_angle_gamma	91.78
loop_
_atom_site_label
_atom_site_type_symbol
_atom_site_fract_x
_atom_site_fract_y
_atom_site_fract_z
_atom_site_charge
Mof_Zn	Zn	0.03463	0.02771	0.08056	1.219
Mof_Zn	Zn	0.1055	0.2215	0.62814	1.21
Mof_Zn	Zn	0.02158	0.1334	0.62622	1.203
Mof_Zn	Zn	0.02684	0.10896	0.12439	1.21
Mof_Zn	Zn	0.1236	0.11507	0.08848	1.178
Mof_Zn	Zn	0.02848	0.21	0.58098	1.219
Mof_Zn	Zn	0.10621	0.02466	0.12846	1.216
Mof_Zn	Zn	0.11531	0.12948	0.58927	1.183
Mof_C 	C 	0.7724	0.1847	0.6018	0.017
Mof_C 	C 	0.0621	0.1784	0.70155	-0.152
Mof_C 	C 	0.0682	0.1625	0.7816	-0.008
Mof_C 	C 	0.0354	0.7826	0.602	0.038
Mof_C 	C 	0.5431	0.2146	0.5794	-0.011
Mof_C 	C 	0.0123	0.2831	0.1123	0.035
Mof_C 	C 	0.0583	0.365	0.60186	-0.103
Mof_C 	C 	0.0167	0.5301	0.1039	-0.028
Mof_C 	C 	0.0223	0.3843	0.586	0.051
Mof_C 	C 	0.0953	0.6023	0.1067	-0.023
Mof_C 	C 	0.0918	0.1414	0.432	-0.008
Mof_C 	C 	0.0478	0.1241	0.2127	0.073
Mof_C 	C 	0.1134	0.2644	0.8799	0.068
Mof_C 	C 	0.0535	0.8527	0.1269	0.07
Mof_C 	C 	0.0795	0.1051	0.2522	0.028
Mof_C 	C 	0.0637	0.095	0.8404	0.114
Mof_C 	C 	0.3391	0.2364	0.6227	-0.022
Mof_C 	C 	0.3609	0.211	0.6064	0.021
Mof_C 	C 	0.0125	0.3357	0.1126	-0.008
Mof_C 	C 	0.0683	0.0762	0.1727	0.426
Mof_C 	C 	0.8756	0.1743	0.6004	-0.123
Mof_C 	C 	0.2549	0.2073	0.6074	-0.131
Mof_C 	C 	0.519	0.031	0.1115	-0.032
Mof_C 	C 	0.0417	0.7956	0.0799	-0.012
Mof_C 	C 	0.0944	0.2062	0.71684	0.069
Mof_C 	C 	0.1008	0.0816	0.343	-0.018
Mof_C 	C 	0.0356	0.7242	0.6017	-0.05
Mof_C 	C 	0.0355	0.8268	0.6017	-0.015
Mof_C 	C 	0.0422	0.8514	0.0818	0.06
Mof_C 	C 	0.7983	0.2083	0.5798	-0.017
Mof_C 	C 	0.4172	0.2034	0.605	-0.016
Mof_C 	C 	0.9338	0.1734	0.6004	0.378
Mof_C 	C 	0.0823	0.0815	0.0091	-0.101
Mof_C 	C 	0.0946	0.1345	0.4083	0.039
Mof_C 	C 	0.7222	0.0233	0.1029	-0.016
Mof_C 	C 	0.0541	0.8772	0.1052	-0.132
Mof_C 	C 	0.0571	0.9341	0.1055	0.407
Mof_C 	C 	0.7931	0.1599	0.6209	-0.02
Mof_C 	C 	0.9356	0.0511	0.1021	0.433
Mof_C 	C 	0.1016	0.0637	0.2422	-0.023
Mof_C 	C 	0.0655	0.1922	0.1004	0.248
Mof_C 	C 	0.0633	0.1874	0.4664	-0.012
Mof_C 	C 	0.0489	0.0416	0.6082	0.35
Mof_C 	C 	0.0663	0.168	0.75468	0.025
Mof_C 	C 	0.0516	0.798	0.1261	-0.021
Mof_C 	C 	0.5365	0.2088	0.6247	0.087
Mof_C 	C 	0.3343	0.0053	0.1272	-0.01
Mof_C 	C 	0.9019	0.687	0.5922	0.082
Mof_C 	C 	0.1138	0.1285	0.9748	-0.013
Mof_C 	C 	0.8562	0.0136	0.0852	0.076
Mof_C 	C 	0.0501	0.4668	0.6009	0.013
Mof_C 	C 	0.0474	0.7753	0.1043	0.025
Mof_C 	C 	0.0637	0.1808	0.67396	0.418
Mof_C 	C 	0.0307	0.9583	0.6258	0.064
Mof_C 	C 	0.113	0.1191	0.0017	0.053
Mof_C 	C 	0.5952	0.2105	0.5815	0.117
Mof_C 	C 	0.03	0.9033	0.6243	-0.023
Mof_C 	C 	0.561	0.1279	0.1547	0.101
Mof_C 	C 	0.0868	0.1781	0.3678	-0.011
Mof_C 	C 	0.085	0.1176	0.9087	0.028
Mof_C 	C 	0.042	0.6266	0.6005	-0.028
Mof_C 	C 	0.2822	0.0111	0.1261	0.035
Mof_C 	C 	0.0665	0.515	0.1047	-0.013
Mof_C 	C 	0.1942	0.553	0.1228	0.063
Mof_C 	C 	0.8531	0.1973	0.5829	0.064
Mof_C 	C 	0.3658	0.0348	0.1122	0.017
Mof_C 	C 	0.0529	0.363	0.1024	0.009
Mof_C 	C 	0.034	0.1359	0.7404	-0.018
Mof_C 	C 	0.0528	0.0645	0.9664	-0.009
Mof_C 	C 	0.8804	0.0446	0.1025	-0.168
Mof_C 	C 	0.1059	0.5511	0.106	0.104
Mof_C 	C 	0.0426	0.8836	0.6033	0.026
Mof_C 	C 	0.5137	0.2138	0.601	-0.028
Mof_C 	C 	0.1965	0.2081	0.6097	0.406
Mof_C 	C 	0.086	0.1161	0.2802	-0.013
Mof_C 	C 	0.2797	0.234	0.6251	0.062
Mof_C 	C 	0.5375	0.005	0.0906	-0.02
Mof_C 	C 	0.6043	0.0516	0.1256	-0.017
Mof_C 	C 	0.0951	0.1737	0.87191	0.107
Mof_C 	C 	0.6778	0.0229	0.1013	0.037
Mof_C 	C 	0.1086	0.1252	0.5012	0.064
Mof_C 	C 	0.799	0.0614	0.1213	-0.031
Mof_C 	C 	0.593	0.236	0.5331	0.097
Mof_C 	C 	0.8004	0.0056	0.0849	-0.023
Mof_C 	C 	0.5886	0.2047	0.6268	0.014
Mof_C 	C 	0.093	0.2851	0.0918	-0.004
Mof_C 	C 	0.1606	0.659	0.6334	0.08
Mof_C 	C 	0.9899	0.6395	0.5963	-0.008
Mof_C 	C 	0.0804	0.1618	0.5102	-0.129
Mof_C 	C 	0.3453	0.07	0.096	-0.016
Mof_C 	C 	0.0708	0.1511	0.8043	0.034
Mof_C 	C 	0.0864	0.4498	0.6178	-0.008
Mof_C 	C 	0.6731	0.2015	0.5996	0.031
Mof_C 	C 	0.0545	0.9039	0.5817	-0.02
Mof_C 	C 	0.082	0.1254	0.88228	-0.019
Mof_C 	C 	0.5524	0.0543	0.1289	0.114
Mof_C 	C 	0.0467	0.9824	0.6061	-0.118
Mof_C 	C 	0.0471	0.4181	0.1037	-0.007
Mof_C 	C 	0.8482	0.1521	0.6191	0.062
Mof_C 	C 	0.0175	0.4383	0.5844	-0.017
Mof_C 	C 	0.0453	0.0538	0.994	0.049
Mof_C 	C 	0.5894	0.0023	0.0873	0.11
Mof_C 	C 	0.0774	0.2639	0.3399	0.09
Mof_C 	C 	0.7748	0.0318	0.1028	0.03
Mof_C 	C 	0.0467	0.7207	0.1032	-0.007
Mof_C 	C 	0.0877	0.6442	0.6078	0.075
Mof_C 	C 	0.0723	0.0863	0.201	-0.145
Mof_C 	C 	0.463	0.2	0.6524	0.073
Mof_C 	C 	0.1002	0.0558	0.2156	0.073
Mof_C 	C 	0.9155	0.5926	0.1091	0.095
Mof_C 	C 	0.088	0.1828	0.84677	-0.026
Mof_C 	C 	0.0849	0.1095	0.9312	-0.005
Mof_C 	C 	0.0823	0.7086	0.6065	0.019
Mof_C 	C 	0.2933	0.0757	0.0948	0.034
Mof_C 	C 	0.0551	0.1371	0.239	-0.026
Mof_C 	C 	0.0668	0.0869	0.8656	-0.033
Mof_C 	C 	0.0424	0.0062	0.8318	0.078
Mof_C 	C 	0.7129	0.1823	0.5987	-0.008
Mof_C 	C 	0.6228	0.0256	0.1047	-0.027
Mof_C 	C 	0.618	0.2055	0.6052	-0.042
Mof_C 	C 	0.0859	0.1724	0.3408	0.128
Mof_C 	C 	0.1017	0.0869	0.3701	0.12
Mof_C 	C 	0.0913	0.1211	0.3027	0.032
Mof_C 	C 	0.0889	0.3958	0.6187	0.049
Mof_C 	C 	0.089	0.1465	0.4593	0.023
Mof_C 	C 	0.0967	0.133	0.3819	-0.036
Mof_C 	C 	0.4594	0.2105	0.6	0.021
Mof_C 	C 	0.0441	0.5683	0.5995	0.018
Mof_C 	C 	0.0931	0.3377	0.092	0.001
Mof_C 	C 	0.0858	0.099	0.9571	0.019
Mof_C 	C 	0.2005	0.0444	0.1169	0.373
Mof_C 	C 	0.0728	0.0699	0.038	0.374
Mof_C 	C 	0.1128	0.1153	0.4755	-0.024
Mof_C 	C 	0.0061	0.5813	0.1046	0.116
Mof_C 	C 	0.1143	0.9936	0.3704	0.077
Mof_C 	C 	0.4671	0.0271	0.1108	0.031
Mof_C 	C 	0.2765	0.1807	0.589	0.043
Mof_C 	C 	0.0454	0.6174	0.1059	-0.017
Mof_C 	C 	0.0559	0.9626	0.5837	0.053
Mof_C 	C 	0.4218	0.0284	0.1093	-0.011
Mof_C 	C 	0.0678	0.4599	0.1058	0.027
Mof_C 	C 	0.0525	0.2578	0.1019	-0.026
Mof_C 	C 	0.579	0.963	0.0458	0.086
Mof_C 	C 	0.0494	0.5241	0.5999	-0.003
Mof_C 	C 	0.0622	0.3061	0.60324	0.387
Mof_C 	C 	0.9997	0.6965	0.5969	0.104
Mof_C 	C 	0.0945	0.205	0.744	-0.025
Mof_C 	C 	0.0739	0.1684	0.5385	0.385
Mof_C 	C 	0.2617	0.0463	0.1099	-0.083
Mof_C 	C 	0.092	0.1246	0.3296	-0.038
Mof_C 	C 	0.0543	0.1922	0.4949	0.065
Mof_C 	C 	0.8525	0.0635	0.1206	0.088
Mof_C 	C 	0.0424	0.6723	0.1029	0.034
Mof_C 	C 	0.0306	0.1425	0.7132	0.068
Mof_C 	C 	0.0744	0.1437	0.82998	-0.025
Mof_C 	C 	0.3385	0.1863	0.5868	-0.018
Mof_O 	O 	0.0786	0.2132	0.32708	-0.205
Mof_O 	O 	0.1036	0.2126	0.89012	-0.188
Mof_O 	O 	0.9649	0.6123	0.1042	-0.202
Mof_O 	O 	0.537	0.081	0.1505	-0.202
Mof_O 	O 	0.0718	0.1733	0.0826	-0.47
Mof_O 	O 	0.0373	0.2825	0.58646	-0.496
Mof_O 	O 	0.0914	0.2115	0.66413	-0.517
Mof_O 	O 	0.9587	0.0819	0.11899	-0.484
Mof_O 	O 	0.1756	0.019	0.12824	-0.545
Mof_O 	O 	0.0454	0.201	0.54584	-0.488
Mof_O 	O 	0.6127	0.979	0.0665	-0.195
Mof_O 	O 	0.9485	0.1462	0.61897	-0.466
Mof_O 	O 	0.0709	0.0644	0.58868	-0.484
Mof_O 	O 	0.9569	0.1954	0.5835	-0.504
Mof_O 	O 	0.0707	0.06817	0.10537	-0.956
Mof_O 	O 	0.9482	0.7194	0.5925	-0.186
Mof_O 	O 	0.1017	0.1383	0.55228	-0.471
Mof_O 	O 	0.0417	0.0408	0.04559	-0.502
Mof_O 	O 	0.611	0.22	0.5566	-0.205
Mof_O 	O 	0.1804	0.2264	0.62748	-0.51
Mof_O 	O 	0.1079	0.0982	0.05179	-0.461
Mof_O 	O 	0.5196	0.2086	0.6511	-0.178
Mof_O 	O 	0.0268	0.0606	0.62546	-0.496
Mof_O 	O 	0.1094	0.0463	0.385	-0.193
Mof_O 	O 	0.0757	0.9554	0.12414	-0.496
Mof_O 	O 	0.147	0.645	0.6066	-0.172
Mof_O 	O 	0.06762	0.17536	0.6059	-0.961
Mof_O 	O 	0.0295	0.152	0.66231	-0.492
Mof_O 	O 	0.9591	0.0304	0.08601	-0.49
Mof_O 	O 	0.0904	0.2917	0.62094	-0.485
Mof_O 	O 	0.0227	0.1816	0.11636	-0.401
Mof_O 	O 	0.0922	0.0421	0.16394	-0.513
Mof_O 	O 	0.1742	0.1849	0.59032	-0.499
Mof_O 	O 	0.0385	0.105	0.16103	-0.502
Mof_O 	O 	0.0443	0.9552	0.08456	-0.48
Mof_O 	O 	0.0514	0.057	0.82236	-0.195
Mof_O 	O 	0.1859	0.0764	0.0965	-0.488
Mof_O 	O 	0.1469	0.5201	0.1105	-0.185
Mof_Zn	Zn	0.8764	0.88493	0.91152	1.178
Mof_Zn	Zn	0.97152	0.79	0.41902	1.219
Mof_Zn	Zn	0.96537	0.97229	0.91944	1.219
Mof_Zn	Zn	0.97842	0.8666	0.37378	1.203
Mof_Zn	Zn	0.97316	0.89104	0.87561	1.21
Mof_Zn	Zn	0.8945	0.7785	0.37186	1.21
Mof_Zn	Zn	0.88469	0.87052	0.41073	1.183
Mof_Zn	Zn	0.89379	0.97534	0.87154	1.216
Mof_C 	C 	0.9578	0.1486	0.9182	0.06
Mof_C 	C 	0.9322	0.5401	0.8942	0.027
Mof_C 	C 	0.9367	0.8126	0.5336	-0.012
Mof_C 	C 	0.9833	0.4699	0.8961	-0.028
Mof_C 	C 	0.9142	0.901	0.0429	0.019
Mof_C 	C 	0.9196	0.8382	0.4898	-0.129
Mof_C 	C 	0.9694	0.8575	0.2868	0.068
Mof_C 	C 	0.9526	0.2247	0.8957	0.025
Mof_C 	C 	0.6609	0.7636	0.3773	-0.022
Mof_C 	C 	0.8983	0.9131	0.6299	0.12
Mof_C 	C 	0.7178	0.9889	0.8739	0.035
Mof_C 	C 	0.9546	0.3826	0.8941	-0.017
Mof_C 	C 	0.9465	0.1473	0.8731	0.07
Mof_C 	C 	0.2871	0.8177	0.4013	-0.008
Mof_C 	C 	0.914	0.8839	0.7198	-0.013
Mof_C 	C 	0.6342	0.9652	0.8878	0.017
Mof_C 	C 	0.9055	0.795	0.256	-0.025
Mof_C 	C 	0.407	0.764	0.4669	0.097
Mof_C 	C 	0.201	0.9386	0.8787	-0.031
Mof_C 	C 	0.9151	0.8905	0.0688	-0.005
Mof_C 	C 	0.9177	0.9185	0.9909	-0.101
Mof_C 	C 	0.4635	0.7912	0.3753	0.087
Mof_C 	C 	0.9441	0.0374	0.4163	0.053
Mof_C 	C 	0.8035	0.7919	0.3903	0.406
Mof_C 	C 	0.2276	0.8153	0.3982	0.017
Mof_C 	C 	0.439	0.8721	0.8453	0.101
Mof_C 	C 	0.0981	0.313	0.4078	0.082
Mof_C 	C 	0.958	0.3734	0.3995	-0.028
Mof_C 	C 	0.912	0.8172	0.15323	-0.026
Mof_C 	C 	0.1438	0.9864	0.9148	0.076
Mof_C 	C 	0.9511	0.9584	0.3918	0.35
Mof_C 	C 	0.9646	0.2174	0.398	0.038
Mof_C 	C 	0.9574	0.1164	0.3967	0.026
Mof_C 	C 	0.915	0.8824	0.0913	0.028
Mof_C 	C 	0.9875	0.6643	0.8874	-0.008
Mof_C 	C 	0.9082	0.8586	0.568	-0.008
Mof_C 	C 	0.9499	0.5332	0.3991	0.013
Mof_C 	C 	0.8862	0.8715	0.0252	-0.013
Mof_C 	C 	0.9136	0.5502	0.3822	-0.008
Mof_C 	C 	0.9475	0.7422	0.8981	-0.026
Mof_C 	C 	0.9777	0.6157	0.414	0.051
Mof_C 	C 	0.9317	0.9238	0.8273	0.426
Mof_C 	C 	0.9644	0.2758	0.3983	-0.05
Mof_C 	C 	0.2017	0.7917	0.4202	-0.017
Mof_C 	C 	0.1518	0.8479	0.3809	0.062
Mof_C 	C 	0.382	0.7945	0.3948	-0.042
Mof_C 	C 	0.8058	0.447	0.8772	0.063
Mof_C 	C 	0.9141	0.8276	0.6592	0.128
Mof_C 	C 	0.9277	0.9137	0.799	-0.145
Mof_C 	C 	0.8941	0.4489	0.894	0.104
Mof_C 	C 	0.8984	0.9363	0.7578	-0.023
Mof_C 	C 	0.9825	0.5617	0.4156	-0.017
Mof_C 	C 	0.3772	0.9744	0.8953	-0.027
Mof_C 	C 	0.0003	0.3035	0.4031	0.104
Mof_C 	C 	0.0101	0.3605	0.4037	-0.008
Mof_C 	C 	0.1475	0.9365	0.8794	0.088
Mof_C 	C 	0.9645	0.1732	0.3983	-0.015
Mof_C 	C 	0.9318	0.8375	0.2184	-0.008
Mof_C 	C 	0.4106	0.9977	0.9127	0.11
Mof_C 	C 	0.9559	0.4317	0.4005	0.018
Mof_C 	C 	0.9522	0.8759	0.7873	0.073
Mof_C 	C 	0.6391	0.789	0.3936	0.021
Mof_C 	C 	0.6615	0.8137	0.4132	-0.018
Mof_C 	C 	0.7995	0.9556	0.8831	0.373
Mof_C 	C 	0.4476	0.9457	0.8711	0.114
Mof_C 	C 	0.7383	0.9537	0.8901	-0.083
Mof_C 	C 	0.9472	0.9355	0.0336	-0.009
Mof_C 	C 	0.1996	0.9944	0.9151	-0.023
Mof_C 	C 	0.537	0.8	0.3476	0.073
Mof_C 	C 	0.9033	0.867	0.6181	-0.036
Mof_C 	C 	0.9529	0.5819	0.8963	-0.007
Mof_C 	C 	0.4048	0.7895	0.4185	0.117
Mof_C 	C 	0.8998	0.9442	0.7844	0.073
Mof_C 	C 	0.7451	0.7927	0.3926	-0.131
Mof_C 	C 	0.5406	0.7895	0.4	0.021
Mof_C 	C 	0.9272	0.9301	0.962	0.374
Mof_C 	C 	0.3957	0.9484	0.8744	-0.017
Mof_C 	C 	0.7235	0.8193	0.411	0.043
Mof_C 	C 	0.9363	0.905	0.1596	0.114
Mof_C 	C 	0.9449	0.8629	0.761	-0.026
Mof_C 	C 	0.4569	0.7854	0.4206	-0.011
Mof_C 	C 	0.8394	0.341	0.3666	0.08
Mof_C 	C 	0.9877	0.7169	0.8877	0.035
Mof_C 	C 	0.9693	0.0417	0.3742	0.064
Mof_C 	C 	0.9547	0.9462	0.006	0.049
Mof_C 	C 	0.8914	0.8748	0.4988	0.064
Mof_C 	C 	0.481	0.969	0.8885	-0.032
Mof_C 	C 	0.97	0.0967	0.3757	-0.023
Mof_C 	C 	0.3222	0.9771	0.8987	0.037
Mof_C 	C 	0.9205	0.8949	0.7478	0.028
Mof_C 	C 	0.9132	0.8219	0.6322	-0.011
Mof_C 	C 	0.4863	0.7862	0.399	-0.028
Mof_C 	C 	0.9047	0.3977	0.8933	-0.023
Mof_C 	C 	0.9111	0.6042	0.3813	0.049
Mof_C 	C 	0.9256	0.8563	0.17002	-0.025
Mof_C 	C 	0.9417	0.635	0.39814	-0.103
Mof_C 	C 	0.907	0.7149	0.9082	-0.004
Mof_C 	C 	0.4114	0.7953	0.3732	0.014
Mof_C 	C 	0.908	0.8754	0.6704	-0.038
Mof_C 	C 	0.9576	0.9938	0.1682	0.078
Mof_C 	C 	0.9292	0.8489	0.1957	0.034
Mof_C 	C 	0.0662	0.8266	0.3996	0.378
Mof_C 	C 	0.911	0.8535	0.5407	0.023
Mof_C 	C 	0.3269	0.7985	0.4004	0.031
Mof_C 	C 	0.9457	0.8078	0.5051	0.065
Mof_C 	C 	0.8992	0.9184	0.657	-0.018
Mof_C 	C 	0.7067	0.9243	0.9052	0.034
Mof_C 	C 	0.9533	0.2793	0.8968	-0.007
Mof_C 	C 	0.7203	0.766	0.3749	0.062
Mof_C 	C 	0.5782	0.9716	0.8907	-0.011
Mof_C 	C 	0.9471	0.637	0.8976	0.009
Mof_C 	C 	0.9939	0.4187	0.8954	0.116
Mof_C 	C 	0.421	0.037	0.9542	0.086
Mof_C 	C 	0.887	0.8809	0.9983	0.053
Mof_C 	C 	0.9378	0.6939	0.39676	0.387
Mof_C 	C 	0.9226	0.7361	0.6601	0.09
Mof_C 	C 	0.9379	0.8216	0.29845	-0.152
Mof_C 	C 	0.2069	0.8401	0.3791	-0.02
Mof_C 	C 	0.9337	0.832	0.24532	0.025
Mof_C 	C 	0.9429	0.0659	0.8945	0.407
Mof_C 	C 	0.4625	0.995	0.9094	-0.02
Mof_C 	C 	0.9261	0.8316	0.4615	0.385
Mof_C 	C 	0.5329	0.9729	0.8892	0.031
Mof_C 	C 	0.8857	0.0064	0.6296	0.077
Mof_C 	C 	0.5828	0.7966	0.395	-0.016
Mof_C 	C 	0.0644	0.9489	0.8979	0.433
Mof_C 	C 	0.9345	0.8078	0.8996	0.248
Mof_C 	C 	0.9056	0.7938	0.28316	0.069
Mof_C 	C 	0.9576	0.3277	0.8971	0.034
Mof_C 	C 	0.0845	0.4074	0.8909	0.095
Mof_C 	C 	0.9049	0.8263	0.12809	0.107
Mof_C 	C 	0.6547	0.93	0.904	-0.016
Mof_C 	C 	0.9054	0.8655	0.5917	0.039
Mof_C 	C 	0.8872	0.8847	0.5245	-0.024
Mof_C 	C 	0.966	0.8641	0.2596	-0.018
Mof_C 	C 	0.9363	0.8192	0.32604	0.418
Mof_C 	C 	0.8866	0.7356	0.1201	0.068
Mof_C 	C 	0.9123	0.3558	0.3922	0.075
Mof_C 	C 	0.9335	0.485	0.8953	-0.013
Mof_C 	C 	0.6657	0.9947	0.8728	-0.01
Mof_C 	C 	0.9332	0.9131	0.1344	-0.033
Mof_C 	C 	0.9177	0.2914	0.3935	0.019
Mof_C 	C 	0.9455	0.0961	0.4183	-0.02
Mof_C 	C 	0.9533	0.0176	0.3939	-0.118
Mof_C 	C 	0.2252	0.9682	0.8972	0.03
Mof_C 	C 	0.9087	0.8789	0.6973	0.032
Mof_C 	C 	0.1244	0.8257	0.3996	-0.123
Mof_C 	C 	0.918	0.8746	0.11772	-0.019
Mof_C 	C 	0.2778	0.9767	0.8971	-0.016
Mof_C 	C 	0.9484	0.202	0.8739	-0.021
Mof_C 	C 	0.9583	0.2044	0.9201	-0.012
Mof_C 	C 	0.9069	0.6623	0.908	0.001
Mof_C 	C 	0.1196	0.9554	0.8975	-0.168
Mof_C 	C 	0.9506	0.4759	0.4001	-0.003
Mof_C 	C 	0.9459	0.1228	0.8948	-0.132
Mof_C 	C 	0.1469	0.8027	0.4171	0.064
Mof_O 	O 	0.9627	0.7175	0.41354	-0.496
Mof_O 	O 	0.8141	0.9236	0.9035	-0.488
Mof_O 	O 	0.8906	0.9537	0.615	-0.193
Mof_O 	O 	0.9557	0.0448	0.91544	-0.48
Mof_O 	O 	0.0518	0.2806	0.4075	-0.186
Mof_O 	O 	0.463	0.919	0.8495	-0.202
Mof_O 	O 	0.9243	0.0446	0.87586	-0.496
Mof_O 	O 	0.8983	0.8617	0.44772	-0.471
Mof_O 	O 	0.8196	0.7736	0.37252	-0.51
Mof_O 	O 	0.0413	0.9181	0.88101	-0.484
Mof_O 	O 	0.4804	0.7914	0.3489	-0.178
Mof_O 	O 	0.9086	0.7885	0.33587	-0.517
Mof_O 	O 	0.8244	0.981	0.87176	-0.545
Mof_O 	O 	0.8921	0.9018	0.94821	-0.461
Mof_O 	O 	0.9214	0.7868	0.67292	-0.205
Mof_O 	O 	0.9546	0.799	0.45416	-0.488
Mof_O 	O 	0.853	0.355	0.3934	-0.172
Mof_O 	O 	0.9732	0.9394	0.37454	-0.496
Mof_O 	O 	0.0431	0.8046	0.4165	-0.504
Mof_O 	O 	0.8531	0.4799	0.8895	-0.185
Mof_O 	O 	0.0351	0.3877	0.8958	-0.202
Mof_O 	O 	0.9291	0.9356	0.41132	-0.484
Mof_O 	O 	0.0409	0.9696	0.91399	-0.49
Mof_O 	O 	0.8964	0.7874	0.10988	-0.188
Mof_O 	O 	0.8258	0.8151	0.40968	-0.499
Mof_O 	O 	0.9293	0.93183	0.89463	-0.956
Mof_O 	O 	0.9078	0.9579	0.83606	-0.513
Mof_O 	O 	0.0515	0.8538	0.38103	-0.466
Mof_O 	O 	0.389	0.78	0.4434	-0.205
Mof_O 	O 	0.9486	0.943	0.17764	-0.195
Mof_O 	O 	0.9583	0.9592	0.95441	-0.502
Mof_O 	O 	0.3873	0.021	0.9335	-0.195
Mof_O 	O 	0.9096	0.7083	0.37906	-0.485
Mof_O 	O 	0.9615	0.895	0.83897	-0.502
Mof_O 	O 	0.9773	0.8184	0.88364	-0.401
Mof_O 	O 	0.9282	0.8267	0.9174	-0.47
Mof_O 	O 	0.9705	0.848	0.33769	-0.492
Mof_O 	O 	0.93238	0.82464	0.3941	-0.961
Mof_Zn	Zn	0.80978	0.71137	0.2054	1.206
Mof_Zn	Zn	0.78914	0.60967	0.66218	1.196
Mof_Zn	Zn	0.78492	0.52057	0.70258	1.189
Mof_Zn	Zn	0.69935	0.60573	0.70075	1.22
Mof_Zn	Zn	0.81471	0.62856	0.1626	1.216
Mof_Zn	Zn	0.70451	0.52313	0.65665	1.217
Mof_Zn	Zn	0.71865	0.62777	0.20036	1.189
Mof_Zn	Zn	0.73533	0.71403	0.15886	1.212
Mof_C 	C 	0.7543	0.5962	0.5055	-0.01
Mof_C 	C 	0.7416	0.9148	0.6833	-0.01
Mof_C 	C 	0.527	0.5229	0.6586	0.071
Mof_C 	C 	0.644	0.6951	0.1772	0.262
Mof_C 	C 	0.7733	0.4752	0.1851	-0.079
Mof_C 	C 	0.0172	0.583	0.6675	-0.018
Mof_C 	C 	0.7507	0.5773	0.5838	-0.112
Mof_C 	C 	0.7258	0.5792	0.4411	-0.013
Mof_C 	C 	0.7332	0.6729	0.0451	-0.023
Mof_C 	C 	0.0923	0.5458	0.6866	-0.015
Mof_C 	C 	0.3246	0.7108	0.1859	-0.03
Mof_C 	C 	0.7453	0.9582	0.678	0.016
Mof_C 	C 	0.6093	0.5572	0.6756	0.468
Mof_C 	C 	0.9637	0.5938	0.6669	0.05
Mof_C 	C 	0.5513	0.5508	0.6764	-0.142
Mof_C 	C 	0.7467	0.613	0.285	0.049
Mof_C 	C 	0.8535	0.7135	0.4546	0.073
Mof_C 	C 	0.7812	0.8829	0.161	0.065
Mof_C 	C 	0.746	0.6047	0.3125	-0.013
Mof_C 	C 	0.3008	0.7372	0.2051	0
Mof_C 	C 	0.2	0.5282	0.6146	0.104
Mof_C 	C 	0.7551	0.1182	0.6834	-0.04
Mof_C 	C 	0.0107	0.5453	0.7079	-0.017
Mof_C 	C 	0.3911	0.5334	0.6757	-0.017
Mof_C 	C 	0.8171	0.4617	0.1784	0.041
Mof_C 	C 	0.9917	0.6623	0.1676	0.078
Mof_C 	C 	0.7377	0.5712	0.7471	0.437
Mof_C 	C 	0.7943	0.6844	0.3194	-0.015
Mof_C 	C 	0.2197	0.707	0.1887	-0.025
Mof_C 	C 	0.7676	0.635	0.3548	-0.007
Mof_C 	C 	0.7848	0.5736	0.9191	0.018
Mof_C 	C 	0.7725	0.2177	0.185	-0.031
Mof_C 	C 	0.7712	0.6419	0.3286	0.02
Mof_C 	C 	0.7945	0.6522	0.4206	-0.025
Mof_C 	C 	0.2687	0.5269	0.7016	0.087
Mof_C 	C 	0.6601	0.5231	0.4069	0.08
Mof_C 	C 	0.7493	0.1721	0.684	0.035
Mof_C 	C 	0.8068	0.887	0.2036	0.067
Mof_C 	C 	0.4458	0.5396	0.6781	0.028
Mof_C 	C 	0.741	0.5854	0.8783	0.036
Mof_C 	C 	0.7427	0.8619	0.6816	0.019
Mof_C 	C 	0.1902	0.5337	0.6847	-0.046
Mof_C 	C 	0.7796	0.6612	0.2496	0.35
Mof_C 	C 	0.7989	0.6911	0.2929	0.054
Mof_C 	C 	0.7065	0.835	0.6952	-0.018
Mof_C 	C 	0.7771	0.8362	0.6669	-0.02
Mof_C 	C 	0.7817	0.8038	0.1813	0.405
Mof_C 	C 	0.7471	0.585	0.8555	-0.014
Mof_C 	C 	0.7565	0.6102	0.4554	-0.031
Mof_C 	C 	0.7358	0.4369	0.6743	0.355
Mof_C 	C 	0.685	0.198	0.1487	0.083
Mof_C 	C 	0.7366	0.6797	0.0715	0.069
Mof_C 	C 	0.635	0.0888	0.6522	0.071
Mof_C 	C 	0.7968	0.0609	0.1845	0.023
Mof_C 	C 	0.1643	0.7118	0.1884	0.023
Mof_C 	C 	0.0639	0.7014	0.1837	0.027
Mof_C 	C 	0.7181	0.5482	0.5699	0.055
Mof_C 	C 	0.739	0.7567	0.6794	-0.095
Mof_C 	C 	0.2435	0.6806	0.1695	-0.016
Mof_C 	C 	0.296	0.6825	0.1681	0.1
Mof_C 	C 	0.7329	0.182	0.1856	0.107
Mof_C 	C 	0.288	0.5993	0.1518	0.09
Mof_C 	C 	0.1177	0.7041	0.1852	-0.012
Mof_C 	C 	0.7843	0.6156	0.5468	-0.015
Mof_C 	C 	0.7681	0.6288	0.377	0.033
Mof_C 	C 	0.3493	0.5287	0.6794	0.036
Mof_C 	C 	0.78	0.5418	0.1827	0.385
Mof_C 	C 	0.4221	0.7089	0.1853	-0.01
Mof_C 	C 	0.2164	0.5305	0.7072	-0.003
Mof_C 	C 	0.7049	0.6088	0.8159	-0.019
Mof_C 	C 	0.7763	0.5537	0.8172	-0.021
Mof_C 	C 	0.758	0.6328	0.0356	0.024
Mof_C 	C 	0.198	0.76	0.2427	0.091
Mof_C 	C 	0.5246	0.5714	0.6971	0.065
Mof_C 	C 	0.5102	0.7386	0.1694	-0.01
Mof_C 	C 	0.3802	0.7053	0.1817	0.034
Mof_C 	C 	0.738	0.573	0.7751	-0.137
Mof_C 	C 	0.2717	0.5118	0.7493	0.079
Mof_C 	C 	0.7082	0.6077	0.7881	0.061
Mof_C 	C 	0.9351	0.5753	0.6863	-0.102
Mof_C 	C 	0.7886	0.6477	0.4458	0.114
Mof_C 	C 	0.472	0.5642	0.6965	-0.024
Mof_C 	C 	0.584	0.6912	0.1794	-0.067
Mof_C 	C 	0.7365	0.27	0.6804	0.016
Mof_C 	C 	0.7047	0.7824	0.6941	0.049
Mof_C 	C 	0.773	0.6626	0.11462	0.435
Mof_C 	C 	0.7406	0.6982	0.6822	0.352
Mof_C 	C 	0.7231	0.5473	0.5414	-0.017
Mof_C 	C 	0.8061	0.9398	0.2072	-0.023
Mof_C 	C 	0.7118	0.0903	0.6761	0.12
Mof_C 	C 	0.7571	0.6051	0.4825	0.035
Mof_C 	C 	0.7759	0.5476	0.7895	0.055
Mof_C 	C 	0.752	0.5899	0.5322	0.02
Mof_C 	C 	0.8733	0.5312	0.9478	0.073
Mof_C 	C 	0.1369	0.5419	0.6853	0.036
Mof_C 	C 	0.7568	0.0132	0.6812	-0.019
Mof_C 	C 	0.562	0.7322	0.1678	0.038
Mof_C 	C 	0.7671	0.6521	0.0851	-0.123
Mof_C 	C 	0.8222	0.2022	0.1843	0.005
Mof_C 	C 	0.0453	0.6675	0.1675	-0.029
Mof_C 	C 	0.7049	0.6264	0.9448	-0.021
Mof_C 	C 	0.7094	0.3443	0.6588	0.041
Mof_C 	C 	0.2483	0.7353	0.2065	0.092
Mof_C 	C 	0.7303	0.3746	0.6783	-0.069
Mof_C 	C 	0.9064	0.6781	0.18342	0.422
Mof_C 	C 	0.7297	0.5857	0.4136	0.106
Mof_C 	C 	0.7794	0.0184	0.1866	-0.008
Mof_C 	C 	0.7244	0.4011	0.1875	-0.009
Mof_C 	C 	0.7468	0.595	0.9068	-0.055
Mof_C 	C 	0.7916	0.6103	0.0751	0.059
Mof_C 	C 	0.8001	0.0412	0.6885	0.08
Mof_C 	C 	0.7508	0.6237	0.0083	-0.005
Mof_C 	C 	0.7573	0.3002	0.6999	-0.016
Mof_C 	C 	0.6264	0.6561	0.917	0.09
Mof_C 	C 	0.8323	0.1509	0.1841	0.075
Mof_C 	C 	0.7993	0.0937	0.6896	0.013
Mof_C 	C 	0.7719	0.3784	0.1875	0.011
Mof_C 	C 	0.8207	0.3985	0.1766	-0.005
Mof_C 	C 	0.784	0.5832	0.9473	0.074
Mof_C 	C 	0.7429	0.1307	0.1854	-0.018
Mof_C 	C 	0.0361	0.5575	0.6869	0.02
Mof_C 	C 	0.7542	0.3526	0.6989	0.028
Mof_C 	C 	0.793	0.8611	0.1821	-0.132
Mof_C 	C 	0.2098	0.5331	0.6619	0.113
Mof_C 	C 	0.5541	0.6566	0.1925	0.019
Mof_C 	C 	0.7125	0.292	0.6599	-0.011
Mof_C 	C 	0.4803	0.704	0.1825	0.016
Mof_C 	C 	0.7288	0.4571	0.1872	0.047
Mof_C 	C 	0.7741	0.6545	0.2769	-0.128
Mof_C 	C 	0.2948	0.5303	0.6801	-0.028
Mof_C 	C 	0.7126	0.0377	0.675	-0.023
Mof_C 	C 	0.7711	0.3168	0.1837	-0.008
Mof_C 	C 	0.2663	0.53	0.6574	-0.006
Mof_C 	C 	0.4705	0.5192	0.6572	-0.022
Mof_C 	C 	0.7926	0.1152	0.1847	-0.015
Mof_C 	C 	0.7046	0.6162	0.9165	0.137
Mof_C 	C 	0.8769	0.5863	0.6895	0.369
Mof_C 	C 	0.7356	0.213	0.6803	-0.005
Mof_C 	C 	0.7386	0.5779	0.8277	0.023
Mof_C 	C 	0.7769	0.9408	0.1644	-0.018
Mof_C 	C 	0.7876	0.6046	0.048	-0.016
Mof_C 	C 	0.7624	0.6217	0.404	-0.024
Mof_C 	C 	0.7841	0.6133	0.5744	0.053
Mof_C 	C 	0.7502	0.6151	0.9849	0.024
Mof_C 	C 	0.5023	0.663	0.1941	-0.009
Mof_C 	C 	0.9845	0.7169	0.2007	0.077
Mof_C 	C 	0.9549	0.5528	0.7083	0.032
Mof_C 	C 	0.7437	0.6094	0.9567	-0.016
Mof_C 	C 	0.7908	0.963	0.1861	0.024
Mof_C 	C 	0.751	0.5729	0.6144	0.432
Mof_C 	C 	0.7688	0.2741	0.1851	0.03
Mof_C 	C 	0.861	0.979	0.693	0.081
Mof_C 	C 	0.0405	0.7246	0.2039	-0.026
Mof_C 	C 	0.9641	0.6865	0.1841	-0.154
Mof_C 	C 	0.7752	0.7836	0.6658	0.059
Mof_O 	O 	0.7773	0.6835	0.66657	-0.449
Mof_O 	O 	0.8836	0.705	0.1996	-0.486
Mof_O 	O 	0.8007	0.6321	0.1256	-0.497
Mof_O 	O 	0.2281	0.7757	0.2227	-0.189
Mof_O 	O 	0.8035	0.699	0.24119	-0.481
Mof_O 	O 	0.6301	0.534	0.66047	-0.522
Mof_O 	O 	0.8524	0.5614	0.7037	-0.523
Mof_O 	O 	0.8116	0.5568	0.16994	-0.514
Mof_O 	O 	0.8285	0.5612	0.9625	-0.166
Mof_O 	O 	0.698	0.5591	0.3962	-0.194
Mof_O 	O 	0.6729	0.646	0.9049	-0.215
Mof_O 	O 	0.7083	0.4506	0.65881	-0.499
Mof_O 	O 	0.7663	0.7833	0.16221	-0.511
Mof_O 	O 	0.7171	0.5406	0.6219	-0.508
Mof_O 	O 	0.7079	0.6767	0.69367	-0.51
Mof_O 	O 	0.7505	0.6975	0.12303	-0.507
Mof_O 	O 	0.6589	0.6462	0.1773	-0.452
Mof_O 	O 	0.7783	0.601	0.62476	-0.536
Mof_O 	O 	0.6633	0.7204	0.16075	-0.45
Mof_O 	O 	0.8534	0.0326	0.6971	-0.18
Mof_O 	O 	0.8896	0.1416	0.1788	-0.144
Mof_O 	O 	0.628	0.5847	0.69359	-0.499
Mof_O 	O 	0.668	0.1164	0.6741	-0.186
Mof_O 	O 	0.8848	0.6499	0.16771	-0.515
Mof_O 	O 	0.7447	0.455	0.6967	-0.494
Mof_O 	O 	0.8184	0.6737	0.46428	-0.192
Mof_O 	O 	0.8629	0.6078	0.66813	-0.467
Mof_O 	O 	0.7358	0.5565	0.18999	-0.48
Mof_O 	O 	0.7529	0.6288	0.23387	-0.498
Mof_O 	O 	0.6868	0.202	0.176	-0.192
Mof_O 	O 	0.7696	0.66999	0.18118	-0.958
Mof_O 	O 	0.8006	0.7842	0.20137	-0.49
Mof_O 	O 	0.3179	0.6436	0.1519	-0.193
Mof_O 	O 	0.7065	0.599	0.73613	-0.51
Mof_O 	O 	0.7658	0.5406	0.73751	-0.514
Mof_O 	O 	0.7411	0.56414	0.68019	-0.96
Mof_O 	O 	0.2981	0.5226	0.7265	-0.188
Mof_O 	O 	0.1802	0.5348	0.6393	-0.2
Mof_Zn	Zn	0.30065	0.39427	0.29925	1.22
Mof_Zn	Zn	0.21086	0.39033	0.33782	1.196
Mof_Zn	Zn	0.18529	0.37144	0.8374	1.216
Mof_Zn	Zn	0.19022	0.28863	0.7946	1.206
Mof_Zn	Zn	0.29549	0.47687	0.34335	1.217
Mof_Zn	Zn	0.26467	0.28597	0.84114	1.212
Mof_Zn	Zn	0.21508	0.47943	0.29742	1.189
Mof_Zn	Zn	0.28135	0.37223	0.79964	1.189
Mof_C 	C 	0.0649	0.4247	0.3137	-0.102
Mof_C 	C 	0.2953	0.2176	0.3059	0.049
Mof_C 	C 	0.2159	0.3867	0.4256	0.053
Mof_C 	C 	0.2376	0.3783	0.596	-0.024
Mof_C 	C 	0.5197	0.296	0.8175	0.016
Mof_C 	C 	0.2742	0.4208	0.5589	-0.013
Mof_C 	C 	0.2594	0.3018	0.3178	0.352
Mof_C 	C 	0.2084	0.3897	0.9249	0.059
Mof_C 	C 	0.0936	0.3219	0.81658	0.422
Mof_C 	C 	0.8357	0.2882	0.8116	0.023
Mof_C 	C 	0.2529	0.415	0.1445	-0.014
Mof_C 	C 	0.365	0.9112	0.3478	0.071
Mof_C 	C 	0.7052	0.4697	0.3199	-0.028
Mof_C 	C 	0.9595	0.2754	0.7961	-0.026
Mof_C 	C 	0.8631	0.4581	0.3147	0.036
Mof_C 	C 	0.9893	0.4547	0.2921	-0.017
Mof_C 	C 	0.2712	0.5429	0.8128	0.047
Mof_C 	C 	0.1793	0.6015	0.8234	-0.005
Mof_C 	C 	0.2152	0.4264	0.0809	0.018
Mof_C 	C 	0.2074	0.8848	0.8153	-0.015
Mof_C 	C 	0.2319	0.3712	0.623	0.033
Mof_C 	C 	0.7517	0.2647	0.7935	0.092
Mof_C 	C 	0.2324	0.365	0.6452	-0.007
Mof_C 	C 	0.2206	0.9816	0.8134	-0.008
Mof_C 	C 	0.2429	0.3949	0.5175	0.035
Mof_C 	C 	0.2875	0.708	0.3401	-0.011
Mof_C 	C 	0.1778	0.7978	0.8157	0.005
Mof_C 	C 	0.2289	0.6832	0.8163	-0.008
Mof_C 	C 	0.2114	0.3523	0.5542	0.114
Mof_C 	C 	0.2288	0.3581	0.6714	0.02
Mof_C 	C 	0.438	0.2678	0.8322	0.038
Mof_C 	C 	0.8823	0.2959	0.8148	-0.012
Mof_C 	C 	0.2703	0.4143	0.5864	0.106
Mof_C 	C 	0.2769	0.4527	0.4586	-0.017
Mof_C 	C 	0.2011	0.3089	0.7071	0.054
Mof_C 	C 	0.6507	0.4713	0.3206	0.036
Mof_C 	C 	0.1829	0.5383	0.8216	0.041
Mof_C 	C 	0.9361	0.2986	0.8163	0.027
Mof_C 	C 	0.2449	0.8818	0.3166	-0.04
Mof_C 	C 	0.1999	0.9588	0.3115	0.08
Mof_C 	C 	0.2668	0.3271	0.9549	-0.023
Mof_C 	C 	0.528	0.4358	0.3035	-0.024
Mof_C 	C 	0.5779	0.2911	0.8147	-0.01
Mof_C 	C 	0.254	0.3953	0.6875	-0.013
Mof_C 	C 	0.0155	0.2831	0.7993	0.077
Mof_C 	C 	0.473	0.4771	0.3414	0.071
Mof_C 	C 	0.6754	0.2892	0.8141	-0.03
Mof_C 	C 	0.2756	0.5989	0.8125	-0.009
Mof_C 	C 	0.356	0.3049	0.8228	0.262
Mof_C 	C 	0.1465	0.2865	0.5454	0.073
Mof_C 	C 	0.207	0.1389	0.8179	-0.132
Mof_C 	C 	0.2644	0.787	0.3197	-0.005
Mof_C 	C 	0.7902	0.4669	0.3381	0.113
Mof_C 	C 	0.4977	0.337	0.8059	-0.009
Mof_C 	C 	0.6992	0.2628	0.7949	0
Mof_C 	C 	0.2547	0.0418	0.322	0.016
Mof_C 	C 	0.2507	0.8279	0.316	0.035
Mof_C 	C 	0.2671	0.818	0.8144	0.107
Mof_C 	C 	0.2281	0.6216	0.8125	0.011
Mof_C 	C 	0.8	0.4718	0.3854	0.104
Mof_C 	C 	0.2329	0.3479	0.9149	-0.123
Mof_C 	C 	0.2954	0.3838	0.0835	0.137
Mof_C 	C 	0.2229	0.1638	0.3331	-0.02
Mof_C 	C 	0.249	0.4271	0.3856	0.432
Mof_C 	C 	0.2819	0.4518	0.4301	0.055
Mof_C 	C 	0.2951	0.3736	0.0552	-0.021
Mof_C 	C 	0.315	0.802	0.8513	0.083
Mof_C 	C 	0.4754	0.4286	0.3029	0.065
Mof_C 	C 	0.9547	0.3325	0.8325	-0.029
Mof_C 	C 	0.3736	0.3439	0.083	0.09
Mof_C 	C 	0.2642	0.5631	0.3257	0.355
Mof_C 	C 	0.2057	0.3156	0.6806	-0.015
Mof_C 	C 	0.2432	0.9868	0.3188	-0.019
Mof_C 	C 	0.704	0.3175	0.8319	0.1
Mof_C 	C 	0.2157	0.3844	0.4532	-0.015
Mof_C 	C 	0.2697	0.6254	0.3217	-0.069
Mof_C 	C 	0.7337	0.47	0.3426	-0.006
Mof_C 	C 	0.4898	0.2614	0.8306	-0.01
Mof_C 	C 	0.2882	0.9097	0.3239	0.12
Mof_C 	C 	0.2188	0.1171	0.839	0.065
Mof_C 	C 	0.5295	0.4808	0.3428	-0.022
Mof_C 	C 	0.2573	0.1381	0.3184	0.019
Mof_C 	C 	0.2614	0.4221	0.1723	0.023
Mof_C 	C 	0.0363	0.4062	0.3331	0.05
Mof_C 	C 	0.7313	0.4731	0.2984	0.087
Mof_C 	C 	0.7283	0.4882	0.2507	0.079
Mof_C 	C 	0.2231	0.0592	0.8356	-0.018
Mof_C 	C 	0.2951	0.3912	0.1841	-0.019
Mof_C 	C 	0.3399	0.4769	0.5931	0.08
Mof_C 	C 	0.2498	0.3849	0.0151	0.024
Mof_C 	C 	0.22	0.4582	0.8173	0.385
Mof_C 	C 	0.9639	0.4425	0.3131	0.02
Mof_C 	C 	0.5542	0.4604	0.3219	0.028
Mof_C 	C 	0.712	0.4007	0.8482	0.09
Mof_C 	C 	0.1267	0.4688	0.0522	0.073
Mof_C 	C 	0.2204	0.3388	0.7504	0.35
Mof_C 	C 	0.7836	0.4695	0.2928	-0.003
Mof_C 	C 	0.248	0.4101	0.4678	0.02
Mof_C 	C 	0.2532	0.405	0.0932	-0.055
Mof_C 	C 	0.2427	0.6998	0.3001	-0.016
Mof_C 	C 	0.2055	0.3478	0.5794	-0.025
Mof_C 	C 	0.6198	0.2947	0.8183	0.034
Mof_C 	C 	0.9828	0.417	0.3325	-0.018
Mof_C 	C 	0.1932	0.113	0.7964	0.067
Mof_C 	C 	0.2918	0.3923	0.2119	0.061
Mof_C 	C 	0.2124	0.3954	0.952	-0.016
Mof_C 	C 	0.2237	0.4463	0.1828	-0.021
Mof_C 	C 	0.1939	0.0602	0.7928	-0.023
Mof_C 	C 	0.7565	0.3194	0.8305	-0.016
Mof_C 	C 	0.802	0.24	0.7573	0.091
Mof_C 	C 	0.416	0.3088	0.8206	-0.067
Mof_C 	C 	0.227	0.3374	0.88538	0.435
Mof_C 	C 	0.1231	0.4137	0.3105	0.369
Mof_C 	C 	0.0451	0.4472	0.2917	0.032
Mof_C 	C 	0.261	0.2433	0.3206	-0.095
Mof_C 	C 	0.2275	0.7823	0.815	-0.031
Mof_C 	C 	0.4459	0.3434	0.8075	0.019
Mof_C 	C 	0.2435	0.3898	0.5446	-0.031
Mof_C 	C 	0.2634	0.3203	0.9285	0.069
Mof_C 	C 	0.2241	0.4524	0.2105	0.055
Mof_C 	C 	0.216	0.4168	0.0527	0.074
Mof_C 	C 	0.1677	0.8491	0.8159	0.075
Mof_C 	C 	0.2935	0.165	0.3048	-0.018
Mof_C 	C 	0.242	0.3672	0.9644	0.024
Mof_C 	C 	0.2312	0.7259	0.8149	0.03
Mof_C 	C 	0.2874	0.9623	0.325	-0.023
Mof_C 	C 	0.0359	0.3135	0.8159	-0.154
Mof_C 	C 	0.2635	0.73	0.3196	0.016
Mof_C 	C 	0.2533	0.387	0.715	0.049
Mof_C 	C 	0.6089	0.4666	0.3243	-0.017
Mof_C 	C 	0.2032	0.9391	0.8155	0.023
Mof_C 	C 	0.2493	0.4227	0.4162	-0.112
Mof_C 	C 	0.9077	0.4542	0.3134	-0.015
Mof_C 	C 	0.139	0.021	0.307	0.081
Mof_C 	C 	0.2183	0.1962	0.8187	0.405
Mof_C 	C 	0.7803	0.293	0.8113	-0.025
Mof_C 	C 	0.262	0.427	0.2249	-0.137
Mof_C 	C 	0.2492	0.3763	0.9917	-0.005
Mof_C 	C 	0.2259	0.3455	0.7231	-0.128
Mof_C 	C 	0.2458	0.6474	0.3011	0.028
Mof_C 	C 	0.0083	0.3377	0.8324	0.078
Mof_C 	C 	0.2457	0.4038	0.4945	-0.01
Mof_C 	C 	0.8098	0.4663	0.3153	-0.046
Mof_C 	C 	0.2007	0.9063	0.3104	0.013
Mof_C 	C 	0.2623	0.4288	0.2529	0.437
Mof_C 	C 	0.259	0.4146	0.1217	0.036
Mof_C 	C 	0.2571	0.8693	0.8146	-0.018
Mof_C 	C 	0.2584	0.0852	0.3167	-0.01
Mof_C 	C 	0.3907	0.4428	0.3244	0.468
Mof_C 	C 	0.2563	0.3906	0.0433	-0.016
Mof_C 	C 	0.2267	0.5248	0.8149	-0.079
Mof_C 	C 	0.2092	0.037	0.8139	0.024
Mof_C 	C 	0.4487	0.4492	0.3236	-0.142
Mof_C 	C 	0.2248	0.2164	0.3342	0.059
Mof_C 	C 	0.2906	0.6557	0.3412	0.041
Mof_O 	O 	0.2495	0.3025	0.87697	-0.507
Mof_O 	O 	0.1152	0.3501	0.83229	-0.515
Mof_O 	O 	0.2337	0.2167	0.83779	-0.511
Mof_O 	O 	0.2935	0.401	0.26387	-0.51
Mof_O 	O 	0.3367	0.2796	0.83925	-0.45
Mof_O 	O 	0.372	0.4153	0.30641	-0.499
Mof_O 	O 	0.2917	0.5494	0.34119	-0.499
Mof_O 	O 	0.1164	0.295	0.8004	-0.486
Mof_O 	O 	0.3271	0.354	0.0951	-0.215
Mof_O 	O 	0.2304	0.33001	0.81882	-0.958
Mof_O 	O 	0.1816	0.3263	0.53572	-0.192
Mof_O 	O 	0.2829	0.4594	0.3781	-0.508
Mof_O 	O 	0.2217	0.399	0.37524	-0.536
Mof_O 	O 	0.1104	0.8584	0.8212	-0.144
Mof_O 	O 	0.7719	0.2243	0.7773	-0.189
Mof_O 	O 	0.332	0.8836	0.3259	-0.186
Mof_O 	O 	0.8198	0.4652	0.3607	-0.2
Mof_O 	O 	0.2553	0.545	0.3033	-0.494
Mof_O 	O 	0.1371	0.3922	0.33187	-0.467
Mof_O 	O 	0.1476	0.4386	0.2963	-0.523
Mof_O 	O 	0.1466	0.9674	0.3029	-0.18
Mof_O 	O 	0.1965	0.301	0.75881	-0.481
Mof_O 	O 	0.1993	0.3679	0.8744	-0.497
Mof_O 	O 	0.2589	0.43586	0.31981	-0.96
Mof_O 	O 	0.1884	0.4432	0.83006	-0.514
Mof_O 	O 	0.2227	0.3165	0.33343	-0.449
Mof_O 	O 	0.302	0.4409	0.6038	-0.194
Mof_O 	O 	0.3132	0.798	0.824	-0.192
Mof_O 	O 	0.3411	0.3538	0.8227	-0.452
Mof_O 	O 	0.6821	0.3564	0.8481	-0.193
Mof_O 	O 	0.2342	0.4594	0.26249	-0.514
Mof_O 	O 	0.1994	0.2158	0.79863	-0.49
Mof_O 	O 	0.3699	0.466	0.33953	-0.522
Mof_O 	O 	0.2471	0.3712	0.76613	-0.498
Mof_O 	O 	0.7019	0.4774	0.2735	-0.188
Mof_O 	O 	0.1715	0.4388	0.0375	-0.166
Mof_O 	O 	0.2921	0.3233	0.30633	-0.51
Mof_O 	O 	0.2642	0.4435	0.81001	-0.48
_end
