data_functionalizedCrystal
_audit_creation_method	'EQeq! by Chris Wilmer'
_symmetry_space_group_name_H-M	'P1'
_symmetry_Int_Tables_number	1
_symmetry_cell_setting	triclinic
loop_
_symmetry_equiv_pos_as_xyz
  x,y,z
_cell_length_a	29.778
_cell_length_b	6.6754
_cell_length_c	19.4782
_cell_angle_alpha	90
_cell_angle_beta	113.623
_cell_angle_gamma	90
loop_
_atom_site_label
_atom_site_type_symbol
_atom_site_fract_x
_atom_site_fract_y
_atom_site_fract_z
_atom_site_charge
Mof_Cd	Cd	0.10338	0.95854	0.35327	0.423
Mof_O 	O 	0.42363	0.877	0.6678	-0.29
Mof_C 	C 	0.40053	0.0389	0.6463	0.315
Mof_O 	O 	0.42071	0.2032	0.6722	-0.292
Mof_C 	C 	0.3483	0.0311	0.5917	-0.095
Mof_O 	O 	0.47695	0.1309	0.341	-0.25
Mof_O 	O 	0.47708	0.8015	0.341	-0.256
Mof_C 	C 	0.2631	0.0342	0.5704	-0.049
Mof_H 	H 	0.2389	0.0481	0.5888	0.065
Mof_O 	O 	0.18629	0.9495	0.3746	-0.269
Mof_C 	C 	0.2504	0.9956	0.4955	-0.026
Mof_O 	O 	0.16506	0.0002	0.4685	-0.278
Mof_C 	C 	0.2864	0.9768	0.4685	-0.061
Mof_H 	H 	0.2776	0.9521	0.4178	0.071
Mof_C 	C 	0.3359	0.994	0.5158	0.037
Mof_C 	C 	0.19761	0.9802	0.4429	0.283
Mof_C 	C 	0.3122	0.0524	0.6185	0.015
Mof_H 	H 	0.3208	0.0791	0.669	0.039
Mof_C 	C 	0.3734	0.9795	0.4831	0.059
Mof_C 	C 	0.3776	0.8081	0.446	-0.114
Mof_H 	H 	0.3587	0.6963	0.4449	0.088
Mof_C 	C 	0.4097	0.8017	0.4107	0.036
Mof_H 	H 	0.4126	0.6846	0.3868	0.038
Mof_C 	C 	0.4376	0.9667	0.4104	-0.089
Mof_C 	C 	0.4338	0.1379	0.4474	0.036
Mof_H 	H 	0.4521	0.2507	0.447	0.04
Mof_C 	C 	0.403	0.1427	0.4851	-0.104
Mof_H 	H 	0.4022	0.2563	0.5122	0.084
Mof_C 	C 	0.46617	0.9657	0.3623	0.294
Mof_Cd	Cd	0.89662	0.95854	0.14673	0.43
Mof_O 	O 	0.57637	0.877	0.8322	-0.29
Mof_C 	C 	0.59947	0.0389	0.8537	0.317
Mof_O 	O 	0.57929	0.2032	0.8278	-0.293
Mof_C 	C 	0.6517	0.0311	0.9083	-0.101
Mof_O 	O 	0.52305	0.1309	0.159	-0.249
Mof_O 	O 	0.52292	0.8015	0.159	-0.255
Mof_C 	C 	0.7369	0.0342	0.9296	-0.055
Mof_H 	H 	0.7611	0.0481	0.9112	0.067
Mof_O 	O 	0.81371	0.9495	0.1254	-0.268
Mof_C 	C 	0.7496	0.9956	0.0045	-0.021
Mof_O 	O 	0.83494	0.0002	0.0315	-0.274
Mof_C 	C 	0.7136	0.9768	0.0315	-0.069
Mof_H 	H 	0.7224	0.9521	0.0822	0.073
Mof_C 	C 	0.6641	0.994	0.9842	0.046
Mof_C 	C 	0.80239	0.9802	0.0571	0.278
Mof_C 	C 	0.6878	0.0524	0.8815	0.02
Mof_H 	H 	0.6792	0.0791	0.831	0.038
Mof_C 	C 	0.6266	0.9795	0.0169	0.049
Mof_C 	C 	0.6224	0.8081	0.054	-0.107
Mof_H 	H 	0.6413	0.6963	0.0551	0.086
Mof_C 	C 	0.5903	0.8017	0.0893	0.031
Mof_H 	H 	0.5874	0.6846	0.1132	0.039
Mof_C 	C 	0.5624	0.9667	0.0896	-0.086
Mof_C 	C 	0.5662	0.1379	0.0526	0.03
Mof_H 	H 	0.5479	0.2507	0.053	0.042
Mof_C 	C 	0.597	0.1427	0.0149	-0.092
Mof_H 	H 	0.5978	0.2563	0.9878	0.079
Mof_C 	C 	0.53383	0.9657	0.1377	0.292
Mof_Cd	Cd	0.39662	0.54146	0.64673	0.429
Mof_O 	O 	0.07637	0.623	0.3322	-0.294
Mof_C 	C 	0.09947	0.4611	0.3537	0.318
Mof_O 	O 	0.07929	0.2968	0.3278	-0.294
Mof_C 	C 	0.1517	0.4689	0.4083	-0.095
Mof_O 	O 	0.02305	0.3691	0.659	-0.257
Mof_O 	O 	0.02292	0.6985	0.659	-0.261
Mof_C 	C 	0.2369	0.4658	0.4296	-0.048
Mof_H 	H 	0.2611	0.4519	0.4112	0.065
Mof_O 	O 	0.31371	0.5505	0.6254	-0.269
Mof_C 	C 	0.2496	0.5044	0.5045	-0.027
Mof_O 	O 	0.33494	0.4998	0.5315	-0.279
Mof_C 	C 	0.2136	0.5232	0.5315	-0.06
Mof_H 	H 	0.2224	0.5479	0.5822	0.071
Mof_C 	C 	0.1641	0.506	0.4842	0.035
Mof_C 	C 	0.30239	0.5198	0.5571	0.284
Mof_C 	C 	0.1878	0.4476	0.3815	0.015
Mof_H 	H 	0.1792	0.4209	0.331	0.04
Mof_C 	C 	0.1266	0.5205	0.5169	0.06
Mof_C 	C 	0.1224	0.6919	0.554	-0.116
Mof_H 	H 	0.1413	0.8037	0.5551	0.088
Mof_C 	C 	0.0903	0.6983	0.5893	0.037
Mof_H 	H 	0.0874	0.8154	0.6132	0.036
Mof_C 	C 	0.0624	0.5333	0.5896	-0.093
Mof_C 	C 	0.0662	0.3621	0.5526	0.035
Mof_H 	H 	0.0479	0.2493	0.553	0.036
Mof_C 	C 	0.097	0.3573	0.5149	-0.107
Mof_H 	H 	0.0978	0.2437	0.4878	0.084
Mof_C 	C 	0.03383	0.5343	0.6377	0.296
Mof_Cd	Cd	0.60338	0.54146	0.85327	0.429
Mof_O 	O 	0.92363	0.623	0.1678	-0.286
Mof_C 	C 	0.90053	0.4611	0.1463	0.316
Mof_O 	O 	0.92071	0.2968	0.1722	-0.286
Mof_C 	C 	0.8483	0.4689	0.0917	-0.093
Mof_O 	O 	0.97695	0.3691	0.841	-0.244
Mof_O 	O 	0.97708	0.6985	0.841	-0.247
Mof_C 	C 	0.7631	0.4658	0.0704	-0.047
Mof_H 	H 	0.7389	0.4519	0.0888	0.065
Mof_O 	O 	0.68629	0.5505	0.8746	-0.269
Mof_C 	C 	0.7504	0.5044	0.9955	-0.028
Mof_O 	O 	0.66506	0.4998	0.9685	-0.279
Mof_C 	C 	0.7864	0.5232	0.9685	-0.061
Mof_H 	H 	0.7776	0.5479	0.9178	0.071
Mof_C 	C 	0.8359	0.506	0.0158	0.037
Mof_C 	C 	0.69761	0.5198	0.9429	0.284
Mof_C 	C 	0.8122	0.4476	0.1185	0.014
Mof_H 	H 	0.8208	0.4209	0.169	0.04
Mof_C 	C 	0.8734	0.5205	0.9831	0.059
Mof_C 	C 	0.8776	0.6919	0.946	-0.112
Mof_H 	H 	0.8587	0.8037	0.9449	0.088
Mof_C 	C 	0.9097	0.6983	0.9107	0.035
Mof_H 	H 	0.9126	0.8154	0.8868	0.039
Mof_C 	C 	0.9376	0.5333	0.9104	-0.085
Mof_C 	C 	0.9338	0.3621	0.9474	0.036
Mof_H 	H 	0.9521	0.2493	0.947	0.042
Mof_C 	C 	0.903	0.3573	0.9851	-0.106
Mof_H 	H 	0.9022	0.2437	0.0122	0.088
Mof_C 	C 	0.96617	0.5343	0.8623	0.295
Mof_Cd	Cd	0.5	0.96223	0.25	0.49
Mof_Cd	Cd	2.57648e-33	0.53777	0.75	0.476
Mof_Cd	Cd	0.60338	0.45854	0.35327	0.429
Mof_O 	O 	0.92363	0.377	0.6678	-0.286
Mof_C 	C 	0.90053	0.5389	0.6463	0.317
Mof_O 	O 	0.92071	0.7032	0.6722	-0.287
Mof_C 	C 	0.8483	0.5311	0.5917	-0.094
Mof_O 	O 	0.97695	0.6309	0.341	-0.244
Mof_O 	O 	0.97708	0.3015	0.341	-0.247
Mof_C 	C 	0.7631	0.5342	0.5704	-0.048
Mof_H 	H 	0.7389	0.5481	0.5888	0.065
Mof_O 	O 	0.68629	0.4495	0.3746	-0.269
Mof_C 	C 	0.7504	0.4956	0.4955	-0.027
Mof_O 	O 	0.66506	0.5002	0.4685	-0.279
Mof_C 	C 	0.7864	0.4768	0.4685	-0.061
Mof_H 	H 	0.7776	0.4521	0.4178	0.071
Mof_C 	C 	0.8359	0.494	0.5158	0.036
Mof_C 	C 	0.69761	0.4802	0.4429	0.284
Mof_C 	C 	0.8122	0.5524	0.6185	0.014
Mof_H 	H 	0.8208	0.5791	0.669	0.04
Mof_C 	C 	0.8734	0.4795	0.4831	0.058
Mof_C 	C 	0.8776	0.3081	0.446	-0.111
Mof_H 	H 	0.8587	0.1963	0.4449	0.087
Mof_C 	C 	0.9097	0.3017	0.4107	0.034
Mof_H 	H 	0.9126	0.1846	0.3868	0.04
Mof_C 	C 	0.9376	0.4667	0.4104	-0.083
Mof_C 	C 	0.9338	0.6379	0.4474	0.033
Mof_H 	H 	0.9521	0.7507	0.447	0.044
Mof_C 	C 	0.903	0.6427	0.4851	-0.1
Mof_H 	H 	0.9022	0.7563	0.5122	0.085
Mof_C 	C 	0.96617	0.4657	0.3623	0.295
Mof_Cd	Cd	0.39662	0.45854	0.14673	0.429
Mof_O 	O 	0.07637	0.377	0.8322	-0.294
Mof_C 	C 	0.09947	0.5389	0.8537	0.317
Mof_O 	O 	0.07929	0.7032	0.8278	-0.294
Mof_C 	C 	0.1517	0.5311	0.9083	-0.093
Mof_O 	O 	0.02305	0.6309	0.159	-0.257
Mof_O 	O 	0.02292	0.3015	0.159	-0.26
Mof_C 	C 	0.2369	0.5342	0.9296	-0.049
Mof_H 	H 	0.2611	0.5481	0.9112	0.066
Mof_O 	O 	0.31371	0.4495	0.1254	-0.269
Mof_C 	C 	0.2496	0.4956	0.0045	-0.027
Mof_O 	O 	0.33494	0.5002	0.0315	-0.278
Mof_C 	C 	0.2136	0.4768	0.0315	-0.057
Mof_H 	H 	0.2224	0.4521	0.0822	0.07
Mof_C 	C 	0.1641	0.494	0.9842	0.032
Mof_C 	C 	0.30239	0.4802	0.0571	0.284
Mof_C 	C 	0.1878	0.5524	0.8815	0.015
Mof_H 	H 	0.1792	0.5791	0.831	0.04
Mof_C 	C 	0.1266	0.4795	0.0169	0.062
Mof_C 	C 	0.1224	0.3081	0.054	-0.117
Mof_H 	H 	0.1413	0.1963	0.0551	0.089
Mof_C 	C 	0.0903	0.3017	0.0893	0.038
Mof_H 	H 	0.0874	0.1846	0.1132	0.036
Mof_C 	C 	0.0624	0.4667	0.0896	-0.093
Mof_C 	C 	0.0662	0.6379	0.0526	0.036
Mof_H 	H 	0.0479	0.7507	0.053	0.036
Mof_C 	C 	0.097	0.6427	0.0149	-0.107
Mof_H 	H 	0.0978	0.7563	0.9878	0.084
Mof_C 	C 	0.03383	0.4657	0.1377	0.297
Mof_Cd	Cd	0.89662	0.04146	0.64673	0.431
Mof_O 	O 	0.57637	0.123	0.3322	-0.29
Mof_C 	C 	0.59947	0.9611	0.3537	0.315
Mof_O 	O 	0.57929	0.7968	0.3278	-0.292
Mof_C 	C 	0.6517	0.9689	0.4083	-0.095
Mof_O 	O 	0.52305	0.8691	0.659	-0.25
Mof_O 	O 	0.52292	0.1985	0.659	-0.256
Mof_C 	C 	0.7369	0.9658	0.4296	-0.049
Mof_H 	H 	0.7611	0.9519	0.4112	0.065
Mof_O 	O 	0.81371	0.0505	0.6254	-0.269
Mof_C 	C 	0.7496	0.0044	0.5045	-0.026
Mof_O 	O 	0.83494	0.9998	0.5315	-0.277
Mof_C 	C 	0.7136	0.0232	0.5315	-0.061
Mof_H 	H 	0.7224	0.0479	0.5822	0.071
Mof_C 	C 	0.6641	0.006	0.4842	0.037
Mof_C 	C 	0.80239	0.0198	0.5571	0.282
Mof_C 	C 	0.6878	0.9476	0.3815	0.015
Mof_H 	H 	0.6792	0.9209	0.331	0.039
Mof_C 	C 	0.6266	0.0205	0.5169	0.059
Mof_C 	C 	0.6224	0.1919	0.554	-0.114
Mof_H 	H 	0.6413	0.3037	0.5551	0.088
Mof_C 	C 	0.5903	0.1983	0.5893	0.036
Mof_H 	H 	0.5874	0.3154	0.6132	0.038
Mof_C 	C 	0.5624	0.0333	0.5896	-0.089
Mof_C 	C 	0.5662	0.8621	0.5526	0.036
Mof_H 	H 	0.5479	0.7493	0.553	0.04
Mof_C 	C 	0.597	0.8573	0.5149	-0.104
Mof_H 	H 	0.5978	0.7437	0.4878	0.084
Mof_C 	C 	0.53383	0.0343	0.6377	0.294
Mof_Cd	Cd	0.10338	0.04146	0.85327	0.423
Mof_O 	O 	0.42363	0.123	0.1678	-0.29
Mof_C 	C 	0.40053	0.9611	0.1463	0.317
Mof_O 	O 	0.42071	0.7968	0.1722	-0.293
Mof_C 	C 	0.3483	0.9689	0.0917	-0.102
Mof_O 	O 	0.47695	0.8691	0.841	-0.249
Mof_O 	O 	0.47708	0.1985	0.841	-0.256
Mof_C 	C 	0.2631	0.9658	0.0704	-0.052
Mof_H 	H 	0.2389	0.9519	0.0888	0.066
Mof_O 	O 	0.18629	0.0505	0.8746	-0.268
Mof_C 	C 	0.2504	0.0044	0.9955	-0.023
Mof_O 	O 	0.16506	0.9998	0.9685	-0.276
Mof_C 	C 	0.2864	0.0232	0.9685	-0.071
Mof_H 	H 	0.2776	0.0479	0.9178	0.074
Mof_C 	C 	0.3359	0.006	0.0158	0.05
Mof_C 	C 	0.19761	0.0198	0.9429	0.279
Mof_C 	C 	0.3122	0.9476	0.1185	0.02
Mof_H 	H 	0.3208	0.9209	0.169	0.038
Mof_C 	C 	0.3734	0.0205	0.9831	0.048
Mof_C 	C 	0.3776	0.1919	0.946	-0.107
Mof_H 	H 	0.3587	0.3037	0.9449	0.085
Mof_C 	C 	0.4097	0.1983	0.9107	0.031
Mof_H 	H 	0.4126	0.3154	0.8868	0.039
Mof_C 	C 	0.4376	0.0333	0.9104	-0.087
Mof_C 	C 	0.4338	0.8621	0.9474	0.032
Mof_H 	H 	0.4521	0.7493	0.947	0.041
Mof_C 	C 	0.403	0.8573	0.9851	-0.095
Mof_H 	H 	0.4022	0.7437	0.0122	0.081
Mof_C 	C 	0.46617	0.0343	0.8623	0.292
Mof_Cd	Cd	8.58826e-34	0.46223	0.25	0.476
Mof_Cd	Cd	0.5	0.03777	0.75	0.49
_end
