data_functionalizedCrystal
_audit_creation_method	'EQeq! by Chris Wilmer'
_symmetry_space_group_name_H-M	'P1'
_symmetry_Int_Tables_number	1
_symmetry_cell_setting	triclinic
loop_
_symmetry_equiv_pos_as_xyz
  x,y,z
_cell_length_a	16.0445
_cell_length_b	11.8985
_cell_length_c	18.3896
_cell_angle_alpha	90
_cell_angle_beta	104.452
_cell_angle_gamma	90
loop_
_atom_site_label
_atom_site_type_symbol
_atom_site_fract_x
_atom_site_fract_y
_atom_site_fract_z
_atom_site_charge
Mof_Mn	Mn	0.14315	0.70904	0.43777	1.005
Mof_O 	O 	0.9845	0.7062	0.1508	-0.286
Mof_O 	O 	0.3284	0.3325	0.1412	-0.344
Mof_O 	O 	0.2131	0.5893	0.39	-0.36
Mof_C 	C 	0.2129	0.4498	0.1514	-0.117
Mof_O 	O 	0.3401	0.5907	0.3621	-0.25
Mof_C 	C 	0.0949	0.5703	0.1572	-0.081
Mof_O 	O 	0.2164	0.3382	0.0458	-0.422
Mof_O 	O 	0.9622	0.5771	0.0634	-0.296
Mof_C 	C 	0.2161	0.5539	0.2646	-0.099
Mof_C 	C 	0.1327	0.4942	0.1185	0.051
Mof_H 	H 	0.1041	0.4728	0.0701	0.054
Mof_C 	C 	0.2593	0.5812	0.3453	0.357
Mof_O 	O 	0.0864	0.833	0.497	-0.414
Mof_H 	H 	0.1187	0.8442	0.5386	0.282
Mof_C 	C 	0.2551	0.3684	0.1096	0.399
Mof_C 	C 	0.2549	0.482	0.2239	0.059
Mof_H 	H 	0.3099	0.4548	0.2454	0.056
Mof_C 	C 	0.0087	0.6206	0.1211	0.305
Mof_C 	C 	0.1357	0.5983	0.231	0.042
Mof_H 	H 	0.1091	0.6469	0.2578	0.052
Mof_Mn	Mn	0.64315	0.20904	0.43777	1.006
Mof_O 	O 	0.4845	0.2062	0.1508	-0.287
Mof_O 	O 	0.8284	0.8325	0.1412	-0.343
Mof_O 	O 	0.7131	0.0893	0.39	-0.359
Mof_C 	C 	0.7129	0.9498	0.1514	-0.117
Mof_O 	O 	0.8401	0.0907	0.3621	-0.249
Mof_C 	C 	0.5949	0.0703	0.1572	-0.081
Mof_O 	O 	0.7164	0.8382	0.0458	-0.419
Mof_O 	O 	0.4622	0.0771	0.0634	-0.299
Mof_C 	C 	0.7161	0.0539	0.2646	-0.1
Mof_C 	C 	0.6327	0.9942	0.1185	0.052
Mof_H 	H 	0.6041	0.9728	0.0701	0.054
Mof_C 	C 	0.7593	0.0812	0.3453	0.357
Mof_O 	O 	0.5864	0.333	0.497	-0.414
Mof_H 	H 	0.6187	0.3442	0.5386	0.282
Mof_C 	C 	0.7551	0.8684	0.1096	0.399
Mof_C 	C 	0.7549	0.982	0.2239	0.059
Mof_H 	H 	0.8099	0.9548	0.2454	0.056
Mof_C 	C 	0.5087	0.1206	0.1211	0.31
Mof_C 	C 	0.6357	0.0983	0.231	0.043
Mof_H 	H 	0.6091	0.1469	0.2578	0.052
Mof_Mn	Mn	0.85685	0.70904	0.06223	1.007
Mof_O 	O 	0.0155	0.7062	0.3492	-0.288
Mof_O 	O 	0.6716	0.3325	0.3588	-0.343
Mof_O 	O 	0.7869	0.5893	0.11	-0.359
Mof_C 	C 	0.7871	0.4498	0.3486	-0.117
Mof_O 	O 	0.6599	0.5907	0.1379	-0.249
Mof_C 	C 	0.9051	0.5703	0.3428	-0.081
Mof_O 	O 	0.7836	0.3382	0.4542	-0.42
Mof_O 	O 	0.0378	0.5771	0.4366	-0.3
Mof_C 	C 	0.7839	0.5539	0.2354	-0.1
Mof_C 	C 	0.8673	0.4942	0.3815	0.052
Mof_H 	H 	0.8959	0.4728	0.4299	0.054
Mof_C 	C 	0.7407	0.5812	0.1547	0.357
Mof_O 	O 	0.9136	0.833	0.003	-0.411
Mof_H 	H 	0.8813	0.8442	0.9614	0.279
Mof_C 	C 	0.7449	0.3684	0.3904	0.399
Mof_C 	C 	0.7451	0.482	0.2761	0.059
Mof_H 	H 	0.6901	0.4548	0.2546	0.056
Mof_C 	C 	0.9913	0.6206	0.3789	0.312
Mof_C 	C 	0.8643	0.5983	0.269	0.043
Mof_H 	H 	0.8909	0.6469	0.2422	0.052
Mof_Mn	Mn	0.35685	0.20904	0.06223	1.005
Mof_O 	O 	0.5155	0.2062	0.3492	-0.287
Mof_O 	O 	0.1716	0.8325	0.3588	-0.344
Mof_O 	O 	0.2869	0.0893	0.11	-0.359
Mof_C 	C 	0.2871	0.9498	0.3486	-0.117
Mof_O 	O 	0.1599	0.0907	0.1379	-0.249
Mof_C 	C 	0.4051	0.0703	0.3428	-0.081
Mof_O 	O 	0.2836	0.8382	0.4542	-0.42
Mof_O 	O 	0.5378	0.0771	0.4366	-0.299
Mof_C 	C 	0.2839	0.0539	0.2354	-0.1
Mof_C 	C 	0.3673	0.9942	0.3815	0.052
Mof_H 	H 	0.3959	0.9728	0.4299	0.054
Mof_C 	C 	0.2407	0.0812	0.1547	0.357
Mof_O 	O 	0.4136	0.333	0.003	-0.415
Mof_H 	H 	0.3813	0.3442	0.9614	0.283
Mof_C 	C 	0.2449	0.8684	0.3904	0.399
Mof_C 	C 	0.2451	0.982	0.2761	0.059
Mof_H 	H 	0.1901	0.9548	0.2546	0.056
Mof_C 	C 	0.4913	0.1206	0.3789	0.31
Mof_C 	C 	0.3643	0.0983	0.269	0.043
Mof_H 	H 	0.3909	0.1469	0.2422	0.052
Mof_Mn	Mn	0.85685	0.29096	0.56223	1.006
Mof_O 	O 	0.0155	0.2938	0.8492	-0.285
Mof_O 	O 	0.6716	0.6675	0.8588	-0.343
Mof_O 	O 	0.7869	0.4107	0.61	-0.359
Mof_C 	C 	0.7871	0.5502	0.8486	-0.116
Mof_O 	O 	0.6599	0.4093	0.6379	-0.249
Mof_C 	C 	0.9051	0.4297	0.8428	-0.08
Mof_O 	O 	0.7836	0.6618	0.9542	-0.421
Mof_O 	O 	0.0378	0.4229	0.9366	-0.296
Mof_C 	C 	0.7839	0.4461	0.7354	-0.099
Mof_C 	C 	0.8673	0.5058	0.8815	0.051
Mof_H 	H 	0.8959	0.5272	0.9299	0.054
Mof_C 	C 	0.7407	0.4188	0.6547	0.357
Mof_O 	O 	0.9136	0.167	0.503	-0.414
Mof_H 	H 	0.8813	0.1558	0.4614	0.282
Mof_C 	C 	0.7449	0.6316	0.8904	0.399
Mof_C 	C 	0.7451	0.518	0.7761	0.059
Mof_H 	H 	0.6901	0.5452	0.7546	0.056
Mof_C 	C 	0.9913	0.3794	0.8789	0.305
Mof_C 	C 	0.8643	0.4017	0.769	0.042
Mof_H 	H 	0.8909	0.3531	0.7422	0.052
Mof_Mn	Mn	0.35685	0.79096	0.56223	1.006
Mof_O 	O 	0.5155	0.7938	0.8492	-0.287
Mof_O 	O 	0.1716	0.1675	0.8588	-0.343
Mof_O 	O 	0.2869	0.9107	0.61	-0.359
Mof_C 	C 	0.2871	0.0502	0.8486	-0.117
Mof_O 	O 	0.1599	0.9093	0.6379	-0.249
Mof_C 	C 	0.4051	0.9297	0.8428	-0.081
Mof_O 	O 	0.2836	0.1618	0.9542	-0.419
Mof_O 	O 	0.5378	0.9229	0.9366	-0.299
Mof_C 	C 	0.2839	0.9461	0.7354	-0.1
Mof_C 	C 	0.3673	0.0058	0.8815	0.052
Mof_H 	H 	0.3959	0.0272	0.9299	0.054
Mof_C 	C 	0.2407	0.9188	0.6547	0.357
Mof_O 	O 	0.4136	0.667	0.503	-0.414
Mof_H 	H 	0.3813	0.6558	0.4614	0.282
Mof_C 	C 	0.2449	0.1316	0.8904	0.399
Mof_C 	C 	0.2451	0.018	0.7761	0.059
Mof_H 	H 	0.1901	0.0452	0.7546	0.056
Mof_C 	C 	0.4913	0.8794	0.8789	0.31
Mof_C 	C 	0.3643	0.9017	0.769	0.043
Mof_H 	H 	0.3909	0.8531	0.7422	0.052
Mof_Mn	Mn	0.14315	0.29096	0.93777	1.007
Mof_O 	O 	0.9845	0.2938	0.6508	-0.288
Mof_O 	O 	0.3284	0.6675	0.6412	-0.343
Mof_O 	O 	0.2131	0.4107	0.89	-0.359
Mof_C 	C 	0.2129	0.5502	0.6514	-0.117
Mof_O 	O 	0.3401	0.4093	0.8621	-0.249
Mof_C 	C 	0.0949	0.4297	0.6572	-0.081
Mof_O 	O 	0.2164	0.6618	0.5458	-0.42
Mof_O 	O 	0.9622	0.4229	0.5634	-0.3
Mof_C 	C 	0.2161	0.4461	0.7646	-0.1
Mof_C 	C 	0.1327	0.5058	0.6185	0.052
Mof_H 	H 	0.1041	0.5272	0.5701	0.054
Mof_C 	C 	0.2593	0.4188	0.8453	0.357
Mof_O 	O 	0.0864	0.167	0.997	-0.411
Mof_H 	H 	0.1187	0.1558	0.0386	0.279
Mof_C 	C 	0.2551	0.6316	0.6096	0.399
Mof_C 	C 	0.2549	0.518	0.7239	0.059
Mof_H 	H 	0.3099	0.5452	0.7454	0.056
Mof_C 	C 	0.0087	0.3794	0.6211	0.312
Mof_C 	C 	0.1357	0.4017	0.731	0.043
Mof_H 	H 	0.1091	0.3531	0.7578	0.052
Mof_Mn	Mn	0.64315	0.79096	0.93777	1.005
Mof_O 	O 	0.4845	0.7938	0.6508	-0.287
Mof_O 	O 	0.8284	0.1675	0.6412	-0.344
Mof_O 	O 	0.7131	0.9107	0.89	-0.359
Mof_C 	C 	0.7129	0.0502	0.6514	-0.117
Mof_O 	O 	0.8401	0.9093	0.8621	-0.249
Mof_C 	C 	0.5949	0.9297	0.6572	-0.081
Mof_O 	O 	0.7164	0.1618	0.5458	-0.42
Mof_O 	O 	0.4622	0.9229	0.5634	-0.299
Mof_C 	C 	0.7161	0.9461	0.7646	-0.1
Mof_C 	C 	0.6327	0.0058	0.6185	0.052
Mof_H 	H 	0.6041	0.0272	0.5701	0.054
Mof_C 	C 	0.7593	0.9188	0.8453	0.357
Mof_O 	O 	0.5864	0.667	0.997	-0.415
Mof_H 	H 	0.6187	0.6558	0.0386	0.283
Mof_C 	C 	0.7551	0.1316	0.6096	0.399
Mof_C 	C 	0.7549	0.018	0.7239	0.059
Mof_H 	H 	0.8099	0.0452	0.7454	0.056
Mof_C 	C 	0.5087	0.8794	0.6211	0.31
Mof_C 	C 	0.6357	0.9017	0.731	0.043
Mof_H 	H 	0.6091	0.8531	0.7578	0.052
_end
