data_functionalizedCrystal
_audit_creation_method	'EQeq! by Chris Wilmer'
_symmetry_space_group_name_H-M	'P1'
_symmetry_Int_Tables_number	1
_symmetry_cell_setting	triclinic
loop_
_symmetry_equiv_pos_as_xyz
  x,y,z
_cell_length_a	19.168
_cell_length_b	19.168
_cell_length_c	67.695
_cell_angle_alpha	90
_cell_angle_beta	90
_cell_angle_gamma	120
loop_
_atom_site_label
_atom_site_type_symbol
_atom_site_fract_x
_atom_site_fract_y
_atom_site_fract_z
_atom_site_charge
Mof_Zn	Zn	0.35649	0.58519	0.33171	1.213
Mof_Zn	Zn	0.10308	0.08677	0.15076	1.211
Mof_O 	O 	0.3376	0.5749	0.28323	-0.511
Mof_O 	O 	0.3818	0.5369	0.30995	-0.512
Mof_O 	O 	0.1034	0.0805	0.1982	-0.532
Mof_O 	O 	0.1811	0.1436	0.17224	-0.517
Mof_O 	O 	0.153	0.0442	0.13365	-0.525
Mof_O 	O 	0.0763	0.9103	0.13615	-0.522
Mof_O 	O 	0.5169	0.2195	0.01581	-0.509
Mof_O 	O 	0.6021	0.1698	0.01412	-0.506
Mof_N 	N 	0.4225	0.3247	0.24347	-0.132
Mof_N 	N 	0.3544	0.9383	0.08044	-0.132
Mof_C 	C 	0.3663	0.5351	0.2919	0.384
Mof_C 	C 	0.3802	0.4767	0.27933	-0.147
Mof_C 	C 	0.4218	0.4405	0.28684	0.078
Mof_H 	H 	0.4412	0.451	0.3	0.015
Mof_C 	C 	0.4351	0.3889	0.27505	-0.168
Mof_H 	H 	0.4636	0.3642	0.2802	0.084
Mof_C 	C 	0.4068	0.3735	0.25573	0.145
Mof_C 	C 	0.3651	0.4097	0.24821	-0.176
Mof_H 	H 	0.3457	0.3992	0.235	0.091
Mof_C 	C 	0.3518	0.4613	0.26001	0.073
Mof_H 	H 	0.3233	0.486	0.2549	0.005
Mof_C 	C 	0.4915	0.3129	0.24605	-0.243
Mof_H 	H 	0.5414	0.3641	0.244	0.098
Mof_H 	H 	0.4884	0.2732	0.2364	0.102
Mof_H 	H 	0.491	0.2934	0.2595	0.094
Mof_C 	C 	0.17	0.1296	0.19015	0.448
Mof_C 	C 	0.237	0.1825	0.20342	-0.23
Mof_C 	C 	0.3129	0.2305	0.19696	0.147
Mof_H 	H 	0.3243	0.2301	0.1833	-0.001
Mof_C 	C 	0.375	0.2804	0.20964	-0.223
Mof_H 	H 	0.4272	0.3166	0.2046	0.106
Mof_C 	C 	0.3598	0.2765	0.2292	0.181
Mof_C 	C 	0.2814	0.2281	0.23613	-0.235
Mof_H 	H 	0.2683	0.2294	0.2496	0.112
Mof_C 	C 	0.2255	0.1799	0.22317	0.161
Mof_H 	H 	0.1742	0.1412	0.2282	-0.01
Mof_C 	C 	0.137	0.9728	0.12984	0.414
Mof_C 	C 	0.198	0.9654	0.11725	-0.166
Mof_C 	C 	0.1802	0.88934	0.11083	0.092
Mof_H 	H 	0.1317	0.8431	0.1149	0.011
Mof_C 	C 	0.2334	0.881	0.09844	-0.184
Mof_H 	H 	0.2213	0.8291	0.0941	0.094
Mof_C 	C 	0.3044	0.9487	0.09247	0.169
Mof_C 	C 	0.3222	0.0247	0.09889	-0.193
Mof_H 	H 	0.3707	0.071	0.0948	0.098
Mof_C 	C 	0.2689	0.03305	0.11128	0.089
Mof_H 	H 	0.2811	0.085	0.1157	0.013
Mof_C 	C 	0.3517	0.8616	0.0804	-0.246
Mof_H 	H 	0.3147	0.827	0.0907	0.099
Mof_H 	H 	0.4057	0.8701	0.0829	0.103
Mof_H 	H 	0.3328	0.8358	0.0675	0.102
Mof_C 	C 	0.5414	0.1706	0.02071	0.396
Mof_C 	C 	0.4942	0.1123	0.03682	-0.16
Mof_C 	C 	0.5224	0.065	0.04524	0.091
Mof_H 	H 	0.5727	0.0713	0.0412	0.012
Mof_C 	C 	0.4771	0.0084	0.05957	-0.186
Mof_H 	H 	0.4964	0.976	0.0653	0.097
Mof_C 	C 	0.4035	0.9991	0.0655	0.151
Mof_C 	C 	0.3752	0.0464	0.05708	-0.181
Mof_H 	H 	0.3249	0.0401	0.0611	0.091
Mof_C 	C 	0.4206	0.1031	0.04274	0.089
Mof_H 	H 	0.4013	0.1354	0.037	0.012
Mof_Zn	Zn	0.02316	0.91852	0.66504	1.213
Mof_Zn	Zn	0.76975	0.4201	0.48409	1.212
Mof_O 	O 	0.00427	0.90823	0.61656	-0.512
Mof_O 	O 	0.04847	0.87023	0.64328	-0.512
Mof_O 	O 	0.77007	0.41383	0.53153	-0.53
Mof_O 	O 	0.84777	0.47693	0.50557	-0.516
Mof_O 	O 	0.81967	0.37753	0.46698	-0.52
Mof_O 	O 	0.74297	0.24363	0.46948	-0.521
Mof_O 	O 	0.18357	0.55283	0.34914	-0.509
Mof_O 	O 	0.26877	0.50313	0.34745	-0.506
Mof_N 	N 	0.08917	0.65803	0.5768	-0.13
Mof_N 	N 	0.02107	0.27163	0.41377	-0.128
Mof_C 	C 	0.03297	0.86843	0.62523	0.381
Mof_C 	C 	0.04687	0.81003	0.61266	-0.14
Mof_C 	C 	0.08847	0.77383	0.62017	0.072
Mof_H 	H 	0.10787	0.78433	0.63333	0.017
Mof_C 	C 	0.10177	0.72223	0.60838	-0.163
Mof_H 	H 	0.13027	0.69753	0.61353	0.082
Mof_C 	C 	0.07347	0.70683	0.58906	0.139
Mof_C 	C 	0.03177	0.74303	0.58154	-0.166
Mof_H 	H 	0.01237	0.73253	0.56833	0.086
Mof_C 	C 	0.01847	0.79463	0.59334	0.055
Mof_H 	H 	0.98997	0.81933	0.58823	0.016
Mof_C 	C 	0.15817	0.64623	0.57938	-0.245
Mof_H 	H 	0.20807	0.69743	0.57733	0.098
Mof_H 	H 	0.15507	0.60653	0.56973	0.103
Mof_H 	H 	0.15767	0.62673	0.59283	0.094
Mof_C 	C 	0.83667	0.46293	0.52348	0.448
Mof_C 	C 	0.90367	0.51583	0.53675	-0.23
Mof_C 	C 	0.97957	0.56383	0.53029	0.156
Mof_H 	H 	0.99097	0.56343	0.51663	-0.002
Mof_C 	C 	0.04167	0.61373	0.54297	-0.229
Mof_H 	H 	0.09387	0.64993	0.53793	0.108
Mof_C 	C 	0.02647	0.60983	0.56253	0.176
Mof_C 	C 	0.94807	0.56143	0.56946	-0.225
Mof_H 	H 	0.93497	0.56273	0.58293	0.111
Mof_C 	C 	0.89217	0.51323	0.5565	0.159
Mof_H 	H 	0.84087	0.47453	0.56153	-0.008
Mof_C 	C 	0.80367	0.30613	0.46317	0.408
Mof_C 	C 	0.86467	0.29873	0.45058	-0.166
Mof_C 	C 	0.84687	0.22267	0.44416	0.089
Mof_H 	H 	0.79837	0.17643	0.44823	0.012
Mof_C 	C 	0.90007	0.21433	0.43177	-0.18
Mof_H 	H 	0.88797	0.16243	0.42743	0.093
Mof_C 	C 	0.97107	0.28203	0.4258	0.161
Mof_C 	C 	0.98887	0.35803	0.43222	-0.176
Mof_H 	H 	0.03737	0.40433	0.42813	0.09
Mof_C 	C 	0.93557	0.36638	0.44461	0.087
Mof_H 	H 	0.94777	0.41833	0.44903	0.015
Mof_C 	C 	0.01837	0.19493	0.41373	-0.276
Mof_H 	H 	0.98137	0.16033	0.42403	0.11
Mof_H 	H 	0.07237	0.20343	0.41623	0.11
Mof_H 	H 	0.99947	0.16913	0.40083	0.114
Mof_C 	C 	0.20807	0.50393	0.35404	0.394
Mof_C 	C 	0.16087	0.44563	0.37015	-0.154
Mof_C 	C 	0.18907	0.39833	0.37857	0.081
Mof_H 	H 	0.23937	0.40463	0.37453	0.016
Mof_C 	C 	0.14377	0.34173	0.3929	-0.167
Mof_H 	H 	0.16307	0.30933	0.39863	0.088
Mof_C 	C 	0.07017	0.33243	0.39883	0.137
Mof_C 	C 	0.04187	0.37973	0.39041	-0.177
Mof_H 	H 	0.99157	0.37343	0.39443	0.094
Mof_C 	C 	0.08727	0.43643	0.37607	0.085
Mof_H 	H 	0.06797	0.46873	0.37033	0.013
Mof_Zn	Zn	0.68982	0.25186	0.99837	1.214
Mof_Zn	Zn	0.43641	0.75344	0.81742	1.212
Mof_O 	O 	0.67093	0.24157	0.9499	-0.512
Mof_O 	O 	0.71513	0.20357	0.97662	-0.512
Mof_O 	O 	0.43673	0.74717	0.86487	-0.53
Mof_O 	O 	0.51443	0.81027	0.83891	-0.516
Mof_O 	O 	0.48633	0.71087	0.80032	-0.52
Mof_O 	O 	0.40963	0.57697	0.80282	-0.521
Mof_O 	O 	0.85023	0.88617	0.68248	-0.507
Mof_O 	O 	0.93543	0.83647	0.68079	-0.502
Mof_N 	N 	0.75583	0.99137	0.91014	-0.131
Mof_N 	N 	0.68773	0.60497	0.74711	-0.129
Mof_C 	C 	0.69963	0.20177	0.95857	0.384
Mof_C 	C 	0.71353	0.14337	0.946	-0.147
Mof_C 	C 	0.75513	0.10717	0.95351	0.077
Mof_H 	H 	0.77453	0.11767	0.96667	0.016
Mof_C 	C 	0.76843	0.05557	0.94172	-0.167
Mof_H 	H 	0.79693	0.03087	0.94687	0.083
Mof_C 	C 	0.74013	0.04017	0.9224	0.144
Mof_C 	C 	0.69843	0.07637	0.91488	-0.175
Mof_H 	H 	0.67903	0.06587	0.90167	0.09
Mof_C 	C 	0.68513	0.12797	0.92668	0.073
Mof_H 	H 	0.65663	0.15267	0.92157	0.006
Mof_C 	C 	0.82483	0.97957	0.91272	-0.24
Mof_H 	H 	0.87473	0.03077	0.91067	0.096
Mof_H 	H 	0.82173	0.93987	0.90307	0.102
Mof_H 	H 	0.82433	0.96007	0.92617	0.094
Mof_C 	C 	0.50333	0.79627	0.85682	0.448
Mof_C 	C 	0.57033	0.84917	0.87009	-0.229
Mof_C 	C 	0.64623	0.89717	0.86363	0.147
Mof_H 	H 	0.65763	0.89677	0.84997	-0.001
Mof_C 	C 	0.70833	0.94707	0.87631	-0.223
Mof_H 	H 	0.76053	0.98327	0.87127	0.106
Mof_C 	C 	0.69313	0.94317	0.89587	0.181
Mof_C 	C 	0.61473	0.89477	0.9028	-0.234
Mof_H 	H 	0.60163	0.89607	0.91627	0.113
Mof_C 	C 	0.55883	0.84657	0.88984	0.161
Mof_H 	H 	0.50753	0.80787	0.89487	-0.009
Mof_C 	C 	0.47033	0.63947	0.79651	0.409
Mof_C 	C 	0.53133	0.63207	0.78392	-0.169
Mof_C 	C 	0.51353	0.55601	0.7775	0.092
Mof_H 	H 	0.46503	0.50977	0.78157	0.012
Mof_C 	C 	0.56673	0.54767	0.76511	-0.182
Mof_H 	H 	0.55463	0.49577	0.76077	0.094
Mof_C 	C 	0.63773	0.61537	0.75914	0.163
Mof_C 	C 	0.65553	0.69137	0.76556	-0.187
Mof_H 	H 	0.70403	0.73767	0.76147	0.097
Mof_C 	C 	0.60223	0.69972	0.77795	0.093
Mof_H 	H 	0.61443	0.75167	0.78237	0.012
Mof_C 	C 	0.68503	0.52827	0.74707	-0.248
Mof_H 	H 	0.64803	0.49367	0.75737	0.1
Mof_H 	H 	0.73903	0.53677	0.74957	0.103
Mof_H 	H 	0.66613	0.50247	0.73417	0.103
Mof_C 	C 	0.87473	0.83727	0.68738	0.393
Mof_C 	C 	0.82753	0.77897	0.70349	-0.15
Mof_C 	C 	0.85573	0.73167	0.71191	0.078
Mof_H 	H 	0.90603	0.73797	0.70787	0.018
Mof_C 	C 	0.81043	0.67507	0.72624	-0.164
Mof_H 	H 	0.82973	0.64267	0.73197	0.088
Mof_C 	C 	0.73683	0.66577	0.73217	0.134
Mof_C 	C 	0.70853	0.71307	0.72375	-0.166
Mof_H 	H 	0.65823	0.70677	0.72777	0.088
Mof_C 	C 	0.75393	0.76977	0.70941	0.079
Mof_H 	H 	0.73463	0.80207	0.70367	0.016
Mof_Zn	Zn	0.41481	0.7713	0.33171	1.214
Mof_Zn	Zn	0.91323	0.01631	0.15076	1.212
Mof_O 	O 	0.4251	0.7627	0.28323	-0.511
Mof_O 	O 	0.4631	0.8449	0.30995	-0.512
Mof_O 	O 	0.9195	0.0229	0.1982	-0.531
Mof_O 	O 	0.8564	0.0375	0.17224	-0.517
Mof_O 	O 	0.9558	0.1088	0.13365	-0.519
Mof_O 	O 	0.0897	0.166	0.13615	-0.521
Mof_O 	O 	0.7805	0.2974	0.01581	-0.508
Mof_O 	O 	0.8302	0.4323	0.01412	-0.504
Mof_N 	N 	0.6753	0.0978	0.24347	-0.131
Mof_N 	N 	0.0617	0.4161	0.08044	-0.127
Mof_C 	C 	0.4649	0.8312	0.2919	0.385
Mof_C 	C 	0.5233	0.9035	0.27933	-0.149
Mof_C 	C 	0.5595	0.9813	0.28684	0.088
Mof_H 	H 	0.549	0.9902	0.3	0.014
Mof_C 	C 	0.6111	0.0462	0.27505	-0.177
Mof_H 	H 	0.6358	0.0994	0.2802	0.086
Mof_C 	C 	0.6265	0.0333	0.25573	0.141
Mof_C 	C 	0.5903	0.9554	0.24821	-0.168
Mof_H 	H 	0.6008	0.9465	0.235	0.09
Mof_C 	C 	0.5387	0.8905	0.26001	0.072
Mof_H 	H 	0.514	0.8373	0.2549	0.006
Mof_C 	C 	0.6871	0.1786	0.24605	-0.244
Mof_H 	H 	0.6359	0.1773	0.244	0.097
Mof_H 	H 	0.7268	0.2152	0.2364	0.103
Mof_H 	H 	0.7066	0.1976	0.2595	0.094
Mof_C 	C 	0.8704	0.0404	0.19015	0.447
Mof_C 	C 	0.8175	0.0545	0.20342	-0.229
Mof_C 	C 	0.7695	0.0824	0.19696	0.146
Mof_H 	H 	0.7699	0.0942	0.1833	-0.001
Mof_C 	C 	0.7196	0.0946	0.20964	-0.222
Mof_H 	H 	0.6834	0.1106	0.2046	0.105
Mof_C 	C 	0.7235	0.0833	0.2292	0.18
Mof_C 	C 	0.7719	0.0533	0.23613	-0.234
Mof_H 	H 	0.7706	0.0389	0.2496	0.111
Mof_C 	C 	0.8201	0.0456	0.22317	0.16
Mof_H 	H 	0.8588	0.033	0.2282	-0.01
Mof_C 	C 	0.0272	0.1642	0.12984	0.407
Mof_C 	C 	0.0346	0.2326	0.11725	-0.171
Mof_C 	C 	0.11066	0.29086	0.11083	0.091
Mof_H 	H 	0.1569	0.2886	0.1149	0.012
Mof_C 	C 	0.119	0.3524	0.09844	-0.181
Mof_H 	H 	0.1709	0.3922	0.0941	0.093
Mof_C 	C 	0.0513	0.3557	0.09247	0.159
Mof_C 	C 	0.9753	0.2975	0.09889	-0.184
Mof_H 	H 	0.929	0.2997	0.0948	0.096
Mof_C 	C 	0.96695	0.23585	0.11128	0.094
Mof_H 	H 	0.915	0.1961	0.1157	0.012
Mof_C 	C 	0.1384	0.4901	0.0804	-0.249
Mof_H 	H 	0.173	0.4877	0.0907	0.1
Mof_H 	H 	0.1299	0.5356	0.0829	0.103
Mof_H 	H 	0.1642	0.497	0.0675	0.103
Mof_C 	C 	0.8294	0.3708	0.02071	0.391
Mof_C 	C 	0.8877	0.3819	0.03682	-0.146
Mof_C 	C 	0.935	0.4574	0.04524	0.071
Mof_H 	H 	0.9287	0.5014	0.0412	0.02
Mof_C 	C 	0.9916	0.4687	0.05957	-0.152
Mof_H 	H 	0.024	0.5204	0.0653	0.082
Mof_C 	C 	0.0009	0.4044	0.0655	0.124
Mof_C 	C 	0.9536	0.3288	0.05708	-0.158
Mof_H 	H 	0.9599	0.2848	0.0611	0.085
Mof_C 	C 	0.8969	0.3175	0.04274	0.073
Mof_H 	H 	0.8646	0.2659	0.037	0.018
Mof_Zn	Zn	0.08148	0.10463	0.66504	1.213
Mof_Zn	Zn	0.5799	0.34964	0.48409	1.212
Mof_O 	O 	0.09177	0.09603	0.61656	-0.514
Mof_O 	O 	0.12977	0.17823	0.64328	-0.513
Mof_O 	O 	0.58617	0.35623	0.53153	-0.53
Mof_O 	O 	0.52307	0.37083	0.50557	-0.516
Mof_O 	O 	0.62247	0.44213	0.46698	-0.52
Mof_O 	O 	0.75637	0.49933	0.46948	-0.52
Mof_O 	O 	0.44717	0.63073	0.34914	-0.509
Mof_O 	O 	0.49687	0.76563	0.34745	-0.505
Mof_N 	N 	0.34197	0.43113	0.5768	-0.132
Mof_N 	N 	0.72837	0.74943	0.41377	-0.129
Mof_C 	C 	0.13157	0.16453	0.62523	0.384
Mof_C 	C 	0.18997	0.23683	0.61266	-0.148
Mof_C 	C 	0.22617	0.31463	0.62017	0.078
Mof_H 	H 	0.21567	0.32353	0.63333	0.015
Mof_C 	C 	0.27777	0.37953	0.60838	-0.168
Mof_H 	H 	0.30247	0.43273	0.61353	0.084
Mof_C 	C 	0.29317	0.36663	0.58906	0.146
Mof_C 	C 	0.25697	0.28873	0.58154	-0.176
Mof_H 	H 	0.26747	0.27983	0.56833	0.09
Mof_C 	C 	0.20537	0.22383	0.59334	0.074
Mof_H 	H 	0.18067	0.17063	0.58823	0.004
Mof_C 	C 	0.35377	0.51193	0.57938	-0.244
Mof_H 	H 	0.30257	0.51063	0.57733	0.098
Mof_H 	H 	0.39347	0.54853	0.56973	0.102
Mof_H 	H 	0.37327	0.53093	0.59283	0.094
Mof_C 	C 	0.53707	0.37373	0.52348	0.447
Mof_C 	C 	0.48417	0.38783	0.53675	-0.229
Mof_C 	C 	0.43617	0.41573	0.53029	0.147
Mof_H 	H 	0.43657	0.42753	0.51663	-0.001
Mof_C 	C 	0.38627	0.42793	0.54297	-0.222
Mof_H 	H 	0.35007	0.44393	0.53793	0.106
Mof_C 	C 	0.39017	0.41663	0.56253	0.181
Mof_C 	C 	0.43857	0.38663	0.56946	-0.234
Mof_H 	H 	0.43727	0.37223	0.58293	0.112
Mof_C 	C 	0.48677	0.37893	0.5565	0.16
Mof_H 	H 	0.52547	0.36633	0.56153	-0.009
Mof_C 	C 	0.69387	0.49753	0.46317	0.409
Mof_C 	C 	0.70127	0.56593	0.45058	-0.169
Mof_C 	C 	0.77733	0.62419	0.44416	0.092
Mof_H 	H 	0.82357	0.62193	0.44823	0.012
Mof_C 	C 	0.78567	0.68573	0.43177	-0.182
Mof_H 	H 	0.83757	0.72553	0.42743	0.094
Mof_C 	C 	0.71797	0.68903	0.4258	0.163
Mof_C 	C 	0.64197	0.63083	0.43222	-0.187
Mof_H 	H 	0.59567	0.63303	0.42813	0.097
Mof_C 	C 	0.63362	0.56918	0.44461	0.093
Mof_H 	H 	0.58167	0.52943	0.44903	0.012
Mof_C 	C 	0.80507	0.82343	0.41373	-0.25
Mof_H 	H 	0.83967	0.82103	0.42403	0.101
Mof_H 	H 	0.79657	0.86893	0.41623	0.105
Mof_H 	H 	0.83087	0.83033	0.40083	0.104
Mof_C 	C 	0.49607	0.70413	0.35404	0.393
Mof_C 	C 	0.55437	0.71523	0.37015	-0.151
Mof_C 	C 	0.60167	0.79073	0.37857	0.079
Mof_H 	H 	0.59537	0.83473	0.37453	0.018
Mof_C 	C 	0.65827	0.80203	0.3929	-0.165
Mof_H 	H 	0.69067	0.85373	0.39863	0.089
Mof_C 	C 	0.66757	0.73773	0.39883	0.135
Mof_C 	C 	0.62027	0.66213	0.39041	-0.167
Mof_H 	H 	0.62657	0.61813	0.39443	0.088
Mof_C 	C 	0.56357	0.65083	0.37607	0.079
Mof_H 	H 	0.53127	0.59923	0.37033	0.016
Mof_Zn	Zn	0.74814	0.43797	0.99837	1.214
Mof_Zn	Zn	0.24656	0.68298	0.81742	1.212
Mof_O 	O 	0.75843	0.42937	0.9499	-0.512
Mof_O 	O 	0.79643	0.51157	0.97662	-0.512
Mof_O 	O 	0.25283	0.68957	0.86487	-0.53
Mof_O 	O 	0.18973	0.70417	0.83891	-0.516
Mof_O 	O 	0.28913	0.77547	0.80032	-0.52
Mof_O 	O 	0.42303	0.83267	0.80282	-0.521
Mof_O 	O 	0.11383	0.96407	0.68248	-0.507
Mof_O 	O 	0.16353	0.09897	0.68079	-0.505
Mof_N 	N 	0.00863	0.76447	0.91014	-0.132
Mof_N 	N 	0.39503	0.08277	0.74711	-0.128
Mof_C 	C 	0.79823	0.49787	0.95857	0.384
Mof_C 	C 	0.85663	0.57017	0.946	-0.148
Mof_C 	C 	0.89283	0.64797	0.95351	0.08
Mof_H 	H 	0.88233	0.65687	0.96667	0.015
Mof_C 	C 	0.94443	0.71287	0.94172	-0.17
Mof_H 	H 	0.96913	0.76607	0.94687	0.086
Mof_C 	C 	0.95983	0.69997	0.9224	0.15
Mof_C 	C 	0.92363	0.62207	0.91488	-0.177
Mof_H 	H 	0.93413	0.61317	0.90167	0.093
Mof_C 	C 	0.87203	0.55717	0.92668	0.075
Mof_H 	H 	0.84733	0.50397	0.92157	0.005
Mof_C 	C 	0.02043	0.84527	0.91272	-0.255
Mof_H 	H 	0.96923	0.84397	0.91067	0.103
Mof_H 	H 	0.06013	0.88187	0.90307	0.105
Mof_H 	H 	0.03993	0.86427	0.92617	0.096
Mof_C 	C 	0.20373	0.70707	0.85682	0.447
Mof_C 	C 	0.15083	0.72117	0.87009	-0.229
Mof_C 	C 	0.10283	0.74907	0.86363	0.146
Mof_H 	H 	0.10323	0.76087	0.84997	-0.001
Mof_C 	C 	0.05293	0.76127	0.87631	-0.222
Mof_H 	H 	0.01673	0.77727	0.87127	0.104
Mof_C 	C 	0.05683	0.74997	0.89587	0.179
Mof_C 	C 	0.10523	0.71997	0.9028	-0.234
Mof_H 	H 	0.10393	0.70557	0.91627	0.111
Mof_C 	C 	0.15343	0.71227	0.88984	0.16
Mof_H 	H 	0.19213	0.69967	0.89487	-0.009
Mof_C 	C 	0.36053	0.83087	0.79651	0.409
Mof_C 	C 	0.36793	0.89927	0.78392	-0.169
Mof_C 	C 	0.44399	0.95753	0.7775	0.094
Mof_H 	H 	0.49023	0.95527	0.78157	0.011
Mof_C 	C 	0.45233	0.01907	0.76511	-0.184
Mof_H 	H 	0.50423	0.05887	0.76077	0.094
Mof_C 	C 	0.38463	0.02237	0.75914	0.16
Mof_C 	C 	0.30863	0.96417	0.76556	-0.184
Mof_H 	H 	0.26233	0.96637	0.76147	0.097
Mof_C 	C 	0.30028	0.90252	0.77795	0.092
Mof_H 	H 	0.24833	0.86277	0.78237	0.012
Mof_C 	C 	0.47173	0.15677	0.74707	-0.248
Mof_H 	H 	0.50633	0.15437	0.75737	0.1
Mof_H 	H 	0.46323	0.20227	0.74957	0.103
Mof_H 	H 	0.49753	0.16367	0.73417	0.103
Mof_C 	C 	0.16273	0.03747	0.68738	0.39
Mof_C 	C 	0.22103	0.04857	0.70349	-0.154
Mof_C 	C 	0.26833	0.12407	0.71191	0.079
Mof_H 	H 	0.26203	0.16807	0.70787	0.017
Mof_C 	C 	0.32493	0.13537	0.72624	-0.164
Mof_H 	H 	0.35733	0.18707	0.73197	0.088
Mof_C 	C 	0.33423	0.07107	0.73217	0.131
Mof_C 	C 	0.28693	0.99547	0.72375	-0.164
Mof_H 	H 	0.29323	0.95147	0.72777	0.087
Mof_C 	C 	0.23023	0.98417	0.70941	0.082
Mof_H 	H 	0.19793	0.93257	0.70367	0.015
Mof_Zn	Zn	0.2287	0.64351	0.33171	1.214
Mof_Zn	Zn	0.98369	0.89692	0.15076	1.213
Mof_O 	O 	0.2373	0.6624	0.28323	-0.511
Mof_O 	O 	0.1551	0.6182	0.30995	-0.512
Mof_O 	O 	0.9771	0.8966	0.1982	-0.527
Mof_O 	O 	0.9625	0.8189	0.17224	-0.515
Mof_O 	O 	0.8912	0.847	0.13365	-0.519
Mof_O 	O 	0.834	0.9237	0.13615	-0.518
Mof_O 	O 	0.7026	0.4831	0.01581	-0.509
Mof_O 	O 	0.5677	0.3979	0.01412	-0.505
Mof_N 	N 	0.9022	0.5775	0.24347	-0.132
Mof_N 	N 	0.5839	0.6456	0.08044	-0.129
Mof_C 	C 	0.1688	0.6337	0.2919	0.383
Mof_C 	C 	0.0965	0.6198	0.27933	-0.147
Mof_C 	C 	0.0187	0.5782	0.28684	0.074
Mof_H 	H 	0.0098	0.5588	0.3	0.016
Mof_C 	C 	0.9538	0.5649	0.27505	-0.165
Mof_H 	H 	0.9006	0.5364	0.2802	0.083
Mof_C 	C 	0.9667	0.5932	0.25573	0.147
Mof_C 	C 	0.0446	0.6349	0.24821	-0.178
Mof_H 	H 	0.0535	0.6543	0.235	0.091
Mof_C 	C 	0.1095	0.6482	0.26001	0.073
Mof_H 	H 	0.1627	0.6767	0.2549	0.005
Mof_C 	C 	0.8214	0.5085	0.24605	-0.244
Mof_H 	H 	0.8227	0.4586	0.244	0.098
Mof_H 	H 	0.7848	0.5116	0.2364	0.102
Mof_H 	H 	0.8024	0.509	0.2595	0.094
Mof_C 	C 	0.9596	0.83	0.19015	0.447
Mof_C 	C 	0.9455	0.763	0.20342	-0.228
Mof_C 	C 	0.9176	0.6871	0.19696	0.146
Mof_H 	H 	0.9058	0.6757	0.1833	-0.001
Mof_C 	C 	0.9054	0.625	0.20964	-0.222
Mof_H 	H 	0.8894	0.5728	0.2046	0.106
Mof_C 	C 	0.9167	0.6402	0.2292	0.181
Mof_C 	C 	0.9467	0.7186	0.23613	-0.233
Mof_H 	H 	0.9611	0.7317	0.2496	0.113
Mof_C 	C 	0.9544	0.7745	0.22317	0.16
Mof_H 	H 	0.967	0.8258	0.2282	-0.008
Mof_C 	C 	0.8358	0.863	0.12984	0.408
Mof_C 	C 	0.7674	0.802	0.11725	-0.168
Mof_C 	C 	0.70914	0.8198	0.11083	0.091
Mof_H 	H 	0.7114	0.8683	0.1149	0.013
Mof_C 	C 	0.6476	0.7666	0.09844	-0.181
Mof_H 	H 	0.6078	0.7787	0.0941	0.094
Mof_C 	C 	0.6443	0.6956	0.09247	0.162
Mof_C 	C 	0.7025	0.6778	0.09889	-0.187
Mof_H 	H 	0.7003	0.6293	0.0948	0.097
Mof_C 	C 	0.76415	0.7311	0.11128	0.092
Mof_H 	H 	0.8039	0.7189	0.1157	0.012
Mof_C 	C 	0.5099	0.6483	0.0804	-0.248
Mof_H 	H 	0.5123	0.6853	0.0907	0.1
Mof_H 	H 	0.4644	0.5943	0.0829	0.103
Mof_H 	H 	0.503	0.6672	0.0675	0.103
Mof_C 	C 	0.6292	0.4586	0.02071	0.393
Mof_C 	C 	0.6181	0.5058	0.03682	-0.151
Mof_C 	C 	0.5426	0.4776	0.04524	0.079
Mof_H 	H 	0.4986	0.4273	0.0412	0.017
Mof_C 	C 	0.5313	0.5229	0.05957	-0.165
Mof_H 	H 	0.4796	0.5036	0.0653	0.088
Mof_C 	C 	0.5956	0.5965	0.0655	0.134
Mof_C 	C 	0.6712	0.6248	0.05708	-0.167
Mof_H 	H 	0.7152	0.6751	0.0611	0.088
Mof_C 	C 	0.6825	0.5794	0.04274	0.079
Mof_H 	H 	0.7341	0.5987	0.037	0.016
Mof_Zn	Zn	0.89537	0.97684	0.66504	1.216
Mof_Zn	Zn	0.65036	0.23025	0.48409	1.212
Mof_O 	O 	0.90397	0.99573	0.61656	-0.506
Mof_O 	O 	0.82177	0.95153	0.64328	-0.511
Mof_O 	O 	0.64377	0.22993	0.53153	-0.53
Mof_O 	O 	0.62917	0.15223	0.50557	-0.517
Mof_O 	O 	0.55787	0.18033	0.46698	-0.521
Mof_O 	O 	0.50067	0.25703	0.46948	-0.521
Mof_O 	O 	0.36927	0.81643	0.34914	-0.508
Mof_O 	O 	0.23437	0.73123	0.34745	-0.505
Mof_N 	N 	0.56887	0.91083	0.5768	-0.132
Mof_N 	N 	0.25057	0.97893	0.41377	-0.131
Mof_C 	C 	0.83547	0.96703	0.62523	0.385
Mof_C 	C 	0.76317	0.95313	0.61266	-0.151
Mof_C 	C 	0.68537	0.91153	0.62017	0.081
Mof_H 	H 	0.67647	0.89213	0.63333	0.015
Mof_C 	C 	0.62047	0.89823	0.60838	-0.17
Mof_H 	H 	0.56727	0.86973	0.61353	0.085
Mof_C 	C 	0.63337	0.92653	0.58906	0.149
Mof_C 	C 	0.71127	0.96823	0.58154	-0.181
Mof_H 	H 	0.72017	0.98763	0.56833	0.094
Mof_C 	C 	0.77617	0.98153	0.59334	0.083
Mof_H 	H 	0.82937	0.01003	0.58823	0
Mof_C 	C 	0.48807	0.84183	0.57938	-0.243
Mof_H 	H 	0.48937	0.79193	0.57733	0.097
Mof_H 	H 	0.45147	0.84493	0.56973	0.102
Mof_H 	H 	0.46907	0.84233	0.59283	0.094
Mof_C 	C 	0.62627	0.16333	0.52348	0.447
Mof_C 	C 	0.61217	0.09633	0.53675	-0.227
Mof_C 	C 	0.58427	0.02043	0.53029	0.139
Mof_H 	H 	0.57247	0.00903	0.51663	-0
Mof_C 	C 	0.57207	0.95833	0.54297	-0.216
Mof_H 	H 	0.55607	0.90613	0.53793	0.104
Mof_C 	C 	0.58337	0.97353	0.56253	0.184
Mof_C 	C 	0.61337	0.05193	0.56946	-0.24
Mof_H 	H 	0.62777	0.06503	0.58293	0.113
Mof_C 	C 	0.62107	0.10783	0.5565	0.161
Mof_H 	H 	0.63367	0.15913	0.56153	-0.01
Mof_C 	C 	0.50247	0.19633	0.46317	0.41
Mof_C 	C 	0.43407	0.13533	0.45058	-0.174
Mof_C 	C 	0.37581	0.15313	0.44416	0.095
Mof_H 	H 	0.37807	0.20163	0.44823	0.01
Mof_C 	C 	0.31427	0.09993	0.43177	-0.186
Mof_H 	H 	0.27447	0.11203	0.42743	0.094
Mof_C 	C 	0.31097	0.02893	0.4258	0.164
Mof_C 	C 	0.36917	0.01113	0.43222	-0.203
Mof_H 	H 	0.36697	0.96263	0.42813	0.106
Mof_C 	C 	0.43082	0.06443	0.44461	0.1
Mof_H 	H 	0.47057	0.05223	0.44903	0.008
Mof_C 	C 	0.17657	0.98163	0.41373	-0.202
Mof_H 	H 	0.17897	0.01863	0.42403	0.082
Mof_H 	H 	0.13107	0.92763	0.41623	0.091
Mof_H 	H 	0.16967	0.00053	0.40083	0.084
Mof_C 	C 	0.29587	0.79193	0.35404	0.392
Mof_C 	C 	0.28477	0.83913	0.37015	-0.146
Mof_C 	C 	0.20927	0.81093	0.37857	0.074
Mof_H 	H 	0.16527	0.76063	0.37453	0.018
Mof_C 	C 	0.19797	0.85623	0.3929	-0.16
Mof_H 	H 	0.14627	0.83693	0.39863	0.086
Mof_C 	C 	0.26227	0.92983	0.39883	0.13
Mof_C 	C 	0.33787	0.95813	0.39041	-0.149
Mof_H 	H 	0.38187	0.00843	0.39443	0.077
Mof_C 	C 	0.34917	0.91273	0.37607	0.07
Mof_H 	H 	0.40077	0.93203	0.37033	0.021
Mof_Zn	Zn	0.56203	0.31018	0.99837	1.214
Mof_Zn	Zn	0.31702	0.56359	0.81742	1.212
Mof_O 	O 	0.57063	0.32907	0.9499	-0.511
Mof_O 	O 	0.48843	0.28487	0.97662	-0.512
Mof_O 	O 	0.31043	0.56327	0.86487	-0.53
Mof_O 	O 	0.29583	0.48557	0.83891	-0.516
Mof_O 	O 	0.22453	0.51367	0.80032	-0.521
Mof_O 	O 	0.16733	0.59037	0.80282	-0.521
Mof_O 	O 	0.03593	0.14977	0.68248	-0.515
Mof_O 	O 	0.90103	0.06457	0.68079	-0.507
Mof_N 	N 	0.23553	0.24417	0.91014	-0.132
Mof_N 	N 	0.91723	0.31227	0.74711	-0.13
Mof_C 	C 	0.50213	0.30037	0.95857	0.384
Mof_C 	C 	0.42983	0.28647	0.946	-0.147
Mof_C 	C 	0.35203	0.24487	0.95351	0.078
Mof_H 	H 	0.34313	0.22547	0.96667	0.015
Mof_C 	C 	0.28713	0.23157	0.94172	-0.168
Mof_H 	H 	0.23393	0.20307	0.94687	0.084
Mof_C 	C 	0.30003	0.25987	0.9224	0.145
Mof_C 	C 	0.37793	0.30157	0.91488	-0.176
Mof_H 	H 	0.38683	0.32097	0.90167	0.091
Mof_C 	C 	0.44283	0.31487	0.92668	0.073
Mof_H 	H 	0.49603	0.34337	0.92157	0.005
Mof_C 	C 	0.15473	0.17517	0.91272	-0.242
Mof_H 	H 	0.15603	0.12527	0.91067	0.096
Mof_H 	H 	0.11813	0.17827	0.90307	0.101
Mof_H 	H 	0.13573	0.17567	0.92617	0.093
Mof_C 	C 	0.29293	0.49667	0.85682	0.447
Mof_C 	C 	0.27883	0.42967	0.87009	-0.229
Mof_C 	C 	0.25093	0.35377	0.86363	0.147
Mof_H 	H 	0.23913	0.34237	0.84997	-0.001
Mof_C 	C 	0.23873	0.29167	0.87631	-0.222
Mof_H 	H 	0.22273	0.23947	0.87127	0.106
Mof_C 	C 	0.25003	0.30687	0.89587	0.181
Mof_C 	C 	0.28003	0.38527	0.9028	-0.234
Mof_H 	H 	0.29443	0.39837	0.91627	0.112
Mof_C 	C 	0.28773	0.44117	0.88984	0.16
Mof_H 	H 	0.30033	0.49247	0.89487	-0.009
Mof_C 	C 	0.16913	0.52967	0.79651	0.408
Mof_C 	C 	0.10073	0.46867	0.78392	-0.168
Mof_C 	C 	0.04247	0.48647	0.7775	0.083
Mof_H 	H 	0.04473	0.53497	0.78157	0.013
Mof_C 	C 	0.98093	0.43327	0.76511	-0.174
Mof_H 	H 	0.94113	0.44537	0.76077	0.092
Mof_C 	C 	0.97763	0.36227	0.75914	0.169
Mof_C 	C 	0.03583	0.34447	0.76556	-0.196
Mof_H 	H 	0.03363	0.29597	0.76147	0.098
Mof_C 	C 	0.09748	0.39777	0.77795	0.094
Mof_H 	H 	0.13723	0.38557	0.78237	0.011
Mof_C 	C 	0.84323	0.31497	0.74707	-0.247
Mof_H 	H 	0.84563	0.35197	0.75737	0.1
Mof_H 	H 	0.79773	0.26097	0.74957	0.103
Mof_H 	H 	0.83633	0.33387	0.73417	0.102
Mof_C 	C 	0.96253	0.12527	0.68738	0.4
Mof_C 	C 	0.95143	0.17247	0.70349	-0.146
Mof_C 	C 	0.87593	0.14427	0.71191	0.079
Mof_H 	H 	0.83193	0.09397	0.70787	0.016
Mof_C 	C 	0.86463	0.18957	0.72624	-0.167
Mof_H 	H 	0.81293	0.17027	0.73197	0.089
Mof_C 	C 	0.92893	0.26317	0.73217	0.143
Mof_C 	C 	0.00453	0.29147	0.72375	-0.175
Mof_H 	H 	0.04853	0.34177	0.72777	0.089
Mof_C 	C 	0.01583	0.24607	0.70941	0.074
Mof_H 	H 	0.06743	0.26537	0.70367	0.016
Mof_Zn	Zn	0.33333	0.66667	0.29348	1.214
Mof_O 	O 	0.33333	0.66667	0.32189	-0.964
Mof_Zn	Zn	-0	0	0.62681	1.211
Mof_O 	O 	1.87512e-32	3.75024e-32	0.65522	-0.97
Mof_Zn	Zn	0.66667	0.33333	0.96014	1.213
Mof_O 	O 	0.66667	0.33333	0.98856	-0.964
Mof_Zn	Zn	9.37561e-33	9.37561e-33	0.18845	1.214
Mof_O 	O 	1.40634e-32	0	0.15984	-0.968
Mof_Zn	Zn	0.66667	0.33333	0.52179	1.215
Mof_O 	O 	0.66667	0.33333	0.49317	-0.964
Mof_Zn	Zn	0.33333	0.66667	0.85512	1.215
Mof_O 	O 	0.33333	0.66667	0.82651	-0.964
Mof_Zn	Zn	0.58519	0.35649	0.66829	1.214
Mof_Zn	Zn	0.08677	0.10308	0.84924	1.212
Mof_O 	O 	0.5749	0.3376	0.71677	-0.511
Mof_O 	O 	0.5369	0.3818	0.69005	-0.512
Mof_O 	O 	0.0805	0.1034	0.8018	-0.532
Mof_O 	O 	0.1436	0.1811	0.82776	-0.517
Mof_O 	O 	0.0442	0.153	0.86635	-0.525
Mof_O 	O 	0.9103	0.0763	0.86385	-0.522
Mof_O 	O 	0.2195	0.5169	0.98419	-0.509
Mof_O 	O 	0.1698	0.6021	0.98588	-0.506
Mof_N 	N 	0.3247	0.4225	0.75653	-0.132
Mof_N 	N 	0.9383	0.3544	0.91956	-0.132
Mof_C 	C 	0.5351	0.3663	0.7081	0.384
Mof_C 	C 	0.4767	0.3802	0.72067	-0.147
Mof_C 	C 	0.4405	0.4218	0.71316	0.078
Mof_H 	H 	0.451	0.4412	0.7	0.015
Mof_C 	C 	0.3889	0.4351	0.72495	-0.168
Mof_H 	H 	0.3642	0.4636	0.7198	0.084
Mof_C 	C 	0.3735	0.4068	0.74427	0.145
Mof_C 	C 	0.4097	0.3651	0.75179	-0.176
Mof_H 	H 	0.3992	0.3457	0.765	0.091
Mof_C 	C 	0.4613	0.3518	0.73999	0.073
Mof_H 	H 	0.486	0.3233	0.7451	0.005
Mof_C 	C 	0.3129	0.4915	0.75395	-0.243
Mof_H 	H 	0.3641	0.5414	0.756	0.098
Mof_H 	H 	0.2732	0.4884	0.7636	0.102
Mof_H 	H 	0.2934	0.491	0.7405	0.094
Mof_C 	C 	0.1296	0.17	0.80985	0.448
Mof_C 	C 	0.1825	0.237	0.79658	-0.23
Mof_C 	C 	0.2305	0.3129	0.80304	0.147
Mof_H 	H 	0.2301	0.3243	0.8167	-0.001
Mof_C 	C 	0.2804	0.375	0.79036	-0.223
Mof_H 	H 	0.3166	0.4272	0.7954	0.106
Mof_C 	C 	0.2765	0.3598	0.7708	0.181
Mof_C 	C 	0.2281	0.2814	0.76387	-0.235
Mof_H 	H 	0.2294	0.2683	0.7504	0.112
Mof_C 	C 	0.1799	0.2255	0.77683	0.161
Mof_H 	H 	0.1412	0.1742	0.7718	-0.01
Mof_C 	C 	0.9728	0.137	0.87016	0.414
Mof_C 	C 	0.9654	0.198	0.88275	-0.166
Mof_C 	C 	0.88934	0.1802	0.88917	0.092
Mof_H 	H 	0.8431	0.1317	0.8851	0.011
Mof_C 	C 	0.881	0.2334	0.90156	-0.184
Mof_H 	H 	0.8291	0.2213	0.9059	0.094
Mof_C 	C 	0.9487	0.3044	0.90753	0.169
Mof_C 	C 	0.0247	0.3222	0.90111	-0.193
Mof_H 	H 	0.071	0.3707	0.9052	0.098
Mof_C 	C 	0.03305	0.2689	0.88872	0.089
Mof_H 	H 	0.085	0.2811	0.8843	0.013
Mof_C 	C 	0.8616	0.3517	0.9196	-0.246
Mof_H 	H 	0.827	0.3147	0.9093	0.099
Mof_H 	H 	0.8701	0.4057	0.9171	0.103
Mof_H 	H 	0.8358	0.3328	0.9325	0.102
Mof_C 	C 	0.1706	0.5414	0.97929	0.396
Mof_C 	C 	0.1123	0.4942	0.96318	-0.16
Mof_C 	C 	0.065	0.5224	0.95476	0.091
Mof_H 	H 	0.0713	0.5727	0.9588	0.012
Mof_C 	C 	0.0084	0.4771	0.94043	-0.186
Mof_H 	H 	0.976	0.4964	0.9347	0.097
Mof_C 	C 	0.9991	0.4035	0.9345	0.151
Mof_C 	C 	0.0464	0.3752	0.94292	-0.181
Mof_H 	H 	0.0401	0.3249	0.9389	0.091
Mof_C 	C 	0.1031	0.4206	0.95726	0.089
Mof_H 	H 	0.1354	0.4013	0.963	0.012
Mof_Zn	Zn	0.25186	0.68982	0.00163	1.214
Mof_Zn	Zn	0.75344	0.43641	0.18258	1.212
Mof_O 	O 	0.24157	0.67093	0.0501	-0.512
Mof_O 	O 	0.20357	0.71513	0.02338	-0.512
Mof_O 	O 	0.74717	0.43673	0.13513	-0.53
Mof_O 	O 	0.81027	0.51443	0.16109	-0.516
Mof_O 	O 	0.71087	0.48633	0.19968	-0.52
Mof_O 	O 	0.57697	0.40963	0.19718	-0.521
Mof_O 	O 	0.88617	0.85023	0.31752	-0.507
Mof_O 	O 	0.83647	0.93543	0.31921	-0.502
Mof_N 	N 	0.99137	0.75583	0.08986	-0.131
Mof_N 	N 	0.60497	0.68773	0.25289	-0.129
Mof_C 	C 	0.20177	0.69963	0.04143	0.384
Mof_C 	C 	0.14337	0.71353	0.054	-0.147
Mof_C 	C 	0.10717	0.75513	0.04649	0.077
Mof_H 	H 	0.11767	0.77453	0.03333	0.016
Mof_C 	C 	0.05557	0.76843	0.05828	-0.167
Mof_H 	H 	0.03087	0.79693	0.05313	0.083
Mof_C 	C 	0.04017	0.74013	0.0776	0.144
Mof_C 	C 	0.07637	0.69843	0.08512	-0.175
Mof_H 	H 	0.06587	0.67903	0.09833	0.09
Mof_C 	C 	0.12797	0.68513	0.07332	0.073
Mof_H 	H 	0.15267	0.65663	0.07843	0.006
Mof_C 	C 	0.97957	0.82483	0.08728	-0.24
Mof_H 	H 	0.03077	0.87473	0.08933	0.096
Mof_H 	H 	0.93987	0.82173	0.09693	0.102
Mof_H 	H 	0.96007	0.82433	0.07383	0.094
Mof_C 	C 	0.79627	0.50333	0.14318	0.448
Mof_C 	C 	0.84917	0.57033	0.12991	-0.229
Mof_C 	C 	0.89717	0.64623	0.13637	0.147
Mof_H 	H 	0.89677	0.65763	0.15003	-0.001
Mof_C 	C 	0.94707	0.70833	0.12369	-0.223
Mof_H 	H 	0.98327	0.76053	0.12873	0.106
Mof_C 	C 	0.94317	0.69313	0.10413	0.181
Mof_C 	C 	0.89477	0.61473	0.0972	-0.234
Mof_H 	H 	0.89607	0.60163	0.08373	0.113
Mof_C 	C 	0.84657	0.55883	0.11016	0.161
Mof_H 	H 	0.80787	0.50753	0.10513	-0.009
Mof_C 	C 	0.63947	0.47033	0.20349	0.409
Mof_C 	C 	0.63207	0.53133	0.21608	-0.169
Mof_C 	C 	0.55601	0.51353	0.2225	0.092
Mof_H 	H 	0.50977	0.46503	0.21843	0.012
Mof_C 	C 	0.54767	0.56673	0.23489	-0.182
Mof_H 	H 	0.49577	0.55463	0.23923	0.094
Mof_C 	C 	0.61537	0.63773	0.24086	0.163
Mof_C 	C 	0.69137	0.65553	0.23444	-0.187
Mof_H 	H 	0.73767	0.70403	0.23853	0.097
Mof_C 	C 	0.69972	0.60223	0.22205	0.093
Mof_H 	H 	0.75167	0.61443	0.21763	0.012
Mof_C 	C 	0.52827	0.68503	0.25293	-0.248
Mof_H 	H 	0.49367	0.64803	0.24263	0.1
Mof_H 	H 	0.53677	0.73903	0.25043	0.103
Mof_H 	H 	0.50247	0.66613	0.26583	0.103
Mof_C 	C 	0.83727	0.87473	0.31262	0.393
Mof_C 	C 	0.77897	0.82753	0.29651	-0.15
Mof_C 	C 	0.73167	0.85573	0.28809	0.078
Mof_H 	H 	0.73797	0.90603	0.29213	0.018
Mof_C 	C 	0.67507	0.81043	0.27376	-0.164
Mof_H 	H 	0.64267	0.82973	0.26803	0.088
Mof_C 	C 	0.66577	0.73683	0.26783	0.134
Mof_C 	C 	0.71307	0.70853	0.27625	-0.166
Mof_H 	H 	0.70677	0.65823	0.27223	0.088
Mof_C 	C 	0.76977	0.75393	0.29059	0.079
Mof_H 	H 	0.80207	0.73463	0.29633	0.016
Mof_Zn	Zn	0.91852	0.02316	0.33496	1.213
Mof_Zn	Zn	0.4201	0.76975	0.51591	1.212
Mof_O 	O 	0.90823	0.00427	0.38344	-0.512
Mof_O 	O 	0.87023	0.04847	0.35672	-0.512
Mof_O 	O 	0.41383	0.77007	0.46847	-0.53
Mof_O 	O 	0.47693	0.84777	0.49443	-0.516
Mof_O 	O 	0.37753	0.81967	0.53302	-0.52
Mof_O 	O 	0.24363	0.74297	0.53052	-0.521
Mof_O 	O 	0.55283	0.18357	0.65086	-0.509
Mof_O 	O 	0.50313	0.26877	0.65255	-0.506
Mof_N 	N 	0.65803	0.08917	0.4232	-0.13
Mof_N 	N 	0.27163	0.02107	0.58623	-0.128
Mof_C 	C 	0.86843	0.03297	0.37477	0.381
Mof_C 	C 	0.81003	0.04687	0.38734	-0.14
Mof_C 	C 	0.77383	0.08847	0.37983	0.072
Mof_H 	H 	0.78433	0.10787	0.36667	0.017
Mof_C 	C 	0.72223	0.10177	0.39162	-0.163
Mof_H 	H 	0.69753	0.13027	0.38647	0.082
Mof_C 	C 	0.70683	0.07347	0.41094	0.139
Mof_C 	C 	0.74303	0.03177	0.41846	-0.166
Mof_H 	H 	0.73253	0.01237	0.43167	0.086
Mof_C 	C 	0.79463	0.01847	0.40666	0.055
Mof_H 	H 	0.81933	0.98997	0.41177	0.016
Mof_C 	C 	0.64623	0.15817	0.42062	-0.245
Mof_H 	H 	0.69743	0.20807	0.42267	0.098
Mof_H 	H 	0.60653	0.15507	0.43027	0.103
Mof_H 	H 	0.62673	0.15767	0.40717	0.094
Mof_C 	C 	0.46293	0.83667	0.47652	0.448
Mof_C 	C 	0.51583	0.90367	0.46325	-0.23
Mof_C 	C 	0.56383	0.97957	0.46971	0.156
Mof_H 	H 	0.56343	0.99097	0.48337	-0.002
Mof_C 	C 	0.61373	0.04167	0.45703	-0.229
Mof_H 	H 	0.64993	0.09387	0.46207	0.108
Mof_C 	C 	0.60983	0.02647	0.43747	0.176
Mof_C 	C 	0.56143	0.94807	0.43054	-0.225
Mof_H 	H 	0.56273	0.93497	0.41707	0.111
Mof_C 	C 	0.51323	0.89217	0.4435	0.159
Mof_H 	H 	0.47453	0.84087	0.43847	-0.008
Mof_C 	C 	0.30613	0.80367	0.53683	0.408
Mof_C 	C 	0.29873	0.86467	0.54942	-0.166
Mof_C 	C 	0.22267	0.84687	0.55584	0.089
Mof_H 	H 	0.17643	0.79837	0.55177	0.012
Mof_C 	C 	0.21433	0.90007	0.56823	-0.18
Mof_H 	H 	0.16243	0.88797	0.57257	0.093
Mof_C 	C 	0.28203	0.97107	0.5742	0.161
Mof_C 	C 	0.35803	0.98887	0.56778	-0.176
Mof_H 	H 	0.40433	0.03737	0.57187	0.09
Mof_C 	C 	0.36638	0.93557	0.55539	0.087
Mof_H 	H 	0.41833	0.94777	0.55097	0.015
Mof_C 	C 	0.19493	0.01837	0.58627	-0.276
Mof_H 	H 	0.16033	0.98137	0.57597	0.11
Mof_H 	H 	0.20343	0.07237	0.58377	0.11
Mof_H 	H 	0.16913	0.99947	0.59917	0.114
Mof_C 	C 	0.50393	0.20807	0.64596	0.394
Mof_C 	C 	0.44563	0.16087	0.62985	-0.154
Mof_C 	C 	0.39833	0.18907	0.62143	0.081
Mof_H 	H 	0.40463	0.23937	0.62547	0.016
Mof_C 	C 	0.34173	0.14377	0.6071	-0.167
Mof_H 	H 	0.30933	0.16307	0.60137	0.088
Mof_C 	C 	0.33243	0.07017	0.60117	0.137
Mof_C 	C 	0.37973	0.04187	0.60959	-0.177
Mof_H 	H 	0.37343	0.99157	0.60557	0.094
Mof_C 	C 	0.43643	0.08727	0.62393	0.085
Mof_H 	H 	0.46873	0.06797	0.62967	0.013
Mof_Zn	Zn	0.7713	0.41481	0.66829	1.214
Mof_Zn	Zn	0.01631	0.91323	0.84924	1.212
Mof_O 	O 	0.7627	0.4251	0.71677	-0.511
Mof_O 	O 	0.8449	0.4631	0.69005	-0.512
Mof_O 	O 	0.0229	0.9195	0.8018	-0.531
Mof_O 	O 	0.0375	0.8564	0.82776	-0.517
Mof_O 	O 	0.1088	0.9558	0.86635	-0.519
Mof_O 	O 	0.166	0.0897	0.86385	-0.521
Mof_O 	O 	0.2974	0.7805	0.98419	-0.508
Mof_O 	O 	0.4323	0.8302	0.98588	-0.504
Mof_N 	N 	0.0978	0.6753	0.75653	-0.131
Mof_N 	N 	0.4161	0.0617	0.91956	-0.127
Mof_C 	C 	0.8312	0.4649	0.7081	0.385
Mof_C 	C 	0.9035	0.5233	0.72067	-0.149
Mof_C 	C 	0.9813	0.5595	0.71316	0.088
Mof_H 	H 	0.9902	0.549	0.7	0.014
Mof_C 	C 	0.0462	0.6111	0.72495	-0.177
Mof_H 	H 	0.0994	0.6358	0.7198	0.086
Mof_C 	C 	0.0333	0.6265	0.74427	0.141
Mof_C 	C 	0.9554	0.5903	0.75179	-0.168
Mof_H 	H 	0.9465	0.6008	0.765	0.09
Mof_C 	C 	0.8905	0.5387	0.73999	0.072
Mof_H 	H 	0.8373	0.514	0.7451	0.006
Mof_C 	C 	0.1786	0.6871	0.75395	-0.244
Mof_H 	H 	0.1773	0.6359	0.756	0.097
Mof_H 	H 	0.2152	0.7268	0.7636	0.103
Mof_H 	H 	0.1976	0.7066	0.7405	0.094
Mof_C 	C 	0.0404	0.8704	0.80985	0.447
Mof_C 	C 	0.0545	0.8175	0.79658	-0.229
Mof_C 	C 	0.0824	0.7695	0.80304	0.146
Mof_H 	H 	0.0942	0.7699	0.8167	-0.001
Mof_C 	C 	0.0946	0.7196	0.79036	-0.222
Mof_H 	H 	0.1106	0.6834	0.7954	0.105
Mof_C 	C 	0.0833	0.7235	0.7708	0.18
Mof_C 	C 	0.0533	0.7719	0.76387	-0.234
Mof_H 	H 	0.0389	0.7706	0.7504	0.111
Mof_C 	C 	0.0456	0.8201	0.77683	0.16
Mof_H 	H 	0.033	0.8588	0.7718	-0.01
Mof_C 	C 	0.1642	0.0272	0.87016	0.407
Mof_C 	C 	0.2326	0.0346	0.88275	-0.171
Mof_C 	C 	0.29086	0.11066	0.88917	0.091
Mof_H 	H 	0.2886	0.1569	0.8851	0.012
Mof_C 	C 	0.3524	0.119	0.90156	-0.181
Mof_H 	H 	0.3922	0.1709	0.9059	0.093
Mof_C 	C 	0.3557	0.0513	0.90753	0.159
Mof_C 	C 	0.2975	0.9753	0.90111	-0.184
Mof_H 	H 	0.2997	0.929	0.9052	0.096
Mof_C 	C 	0.23585	0.96695	0.88872	0.094
Mof_H 	H 	0.1961	0.915	0.8843	0.012
Mof_C 	C 	0.4901	0.1384	0.9196	-0.249
Mof_H 	H 	0.4877	0.173	0.9093	0.1
Mof_H 	H 	0.5356	0.1299	0.9171	0.103
Mof_H 	H 	0.497	0.1642	0.9325	0.103
Mof_C 	C 	0.3708	0.8294	0.97929	0.391
Mof_C 	C 	0.3819	0.8877	0.96318	-0.146
Mof_C 	C 	0.4574	0.935	0.95476	0.071
Mof_H 	H 	0.5014	0.9287	0.9588	0.02
Mof_C 	C 	0.4687	0.9916	0.94043	-0.152
Mof_H 	H 	0.5204	0.024	0.9347	0.082
Mof_C 	C 	0.4044	0.0009	0.9345	0.124
Mof_C 	C 	0.3288	0.9536	0.94292	-0.158
Mof_H 	H 	0.2848	0.9599	0.9389	0.085
Mof_C 	C 	0.3175	0.8969	0.95726	0.073
Mof_H 	H 	0.2659	0.8646	0.963	0.018
Mof_Zn	Zn	0.43797	0.74814	0.00163	1.214
Mof_Zn	Zn	0.68298	0.24656	0.18258	1.212
Mof_O 	O 	0.42937	0.75843	0.0501	-0.512
Mof_O 	O 	0.51157	0.79643	0.02338	-0.512
Mof_O 	O 	0.68957	0.25283	0.13513	-0.53
Mof_O 	O 	0.70417	0.18973	0.16109	-0.516
Mof_O 	O 	0.77547	0.28913	0.19968	-0.52
Mof_O 	O 	0.83267	0.42303	0.19718	-0.521
Mof_O 	O 	0.96407	0.11383	0.31752	-0.507
Mof_O 	O 	0.09897	0.16353	0.31921	-0.505
Mof_N 	N 	0.76447	0.00863	0.08986	-0.132
Mof_N 	N 	0.08277	0.39503	0.25289	-0.128
Mof_C 	C 	0.49787	0.79823	0.04143	0.384
Mof_C 	C 	0.57017	0.85663	0.054	-0.148
Mof_C 	C 	0.64797	0.89283	0.04649	0.08
Mof_H 	H 	0.65687	0.88233	0.03333	0.015
Mof_C 	C 	0.71287	0.94443	0.05828	-0.17
Mof_H 	H 	0.76607	0.96913	0.05313	0.086
Mof_C 	C 	0.69997	0.95983	0.0776	0.15
Mof_C 	C 	0.62207	0.92363	0.08512	-0.177
Mof_H 	H 	0.61317	0.93413	0.09833	0.093
Mof_C 	C 	0.55717	0.87203	0.07332	0.075
Mof_H 	H 	0.50397	0.84733	0.07843	0.005
Mof_C 	C 	0.84527	0.02043	0.08728	-0.255
Mof_H 	H 	0.84397	0.96923	0.08933	0.103
Mof_H 	H 	0.88187	0.06013	0.09693	0.105
Mof_H 	H 	0.86427	0.03993	0.07383	0.096
Mof_C 	C 	0.70707	0.20373	0.14318	0.447
Mof_C 	C 	0.72117	0.15083	0.12991	-0.229
Mof_C 	C 	0.74907	0.10283	0.13637	0.146
Mof_H 	H 	0.76087	0.10323	0.15003	-0.001
Mof_C 	C 	0.76127	0.05293	0.12369	-0.222
Mof_H 	H 	0.77727	0.01673	0.12873	0.104
Mof_C 	C 	0.74997	0.05683	0.10413	0.179
Mof_C 	C 	0.71997	0.10523	0.0972	-0.234
Mof_H 	H 	0.70557	0.10393	0.08373	0.111
Mof_C 	C 	0.71227	0.15343	0.11016	0.16
Mof_H 	H 	0.69967	0.19213	0.10513	-0.009
Mof_C 	C 	0.83087	0.36053	0.20349	0.409
Mof_C 	C 	0.89927	0.36793	0.21608	-0.169
Mof_C 	C 	0.95753	0.44399	0.2225	0.094
Mof_H 	H 	0.95527	0.49023	0.21843	0.011
Mof_C 	C 	0.01907	0.45233	0.23489	-0.184
Mof_H 	H 	0.05887	0.50423	0.23923	0.094
Mof_C 	C 	0.02237	0.38463	0.24086	0.16
Mof_C 	C 	0.96417	0.30863	0.23444	-0.184
Mof_H 	H 	0.96637	0.26233	0.23853	0.097
Mof_C 	C 	0.90252	0.30028	0.22205	0.092
Mof_H 	H 	0.86277	0.24833	0.21763	0.012
Mof_C 	C 	0.15677	0.47173	0.25293	-0.248
Mof_H 	H 	0.15437	0.50633	0.24263	0.1
Mof_H 	H 	0.20227	0.46323	0.25043	0.103
Mof_H 	H 	0.16367	0.49753	0.26583	0.103
Mof_C 	C 	0.03747	0.16273	0.31262	0.39
Mof_C 	C 	0.04857	0.22103	0.29651	-0.154
Mof_C 	C 	0.12407	0.26833	0.28809	0.079
Mof_H 	H 	0.16807	0.26203	0.29213	0.017
Mof_C 	C 	0.13537	0.32493	0.27376	-0.164
Mof_H 	H 	0.18707	0.35733	0.26803	0.088
Mof_C 	C 	0.07107	0.33423	0.26783	0.131
Mof_C 	C 	0.99547	0.28693	0.27625	-0.164
Mof_H 	H 	0.95147	0.29323	0.27223	0.087
Mof_C 	C 	0.98417	0.23023	0.29059	0.082
Mof_H 	H 	0.93257	0.19793	0.29633	0.015
Mof_Zn	Zn	0.10463	0.08148	0.33496	1.213
Mof_Zn	Zn	0.34964	0.5799	0.51591	1.212
Mof_O 	O 	0.09603	0.09177	0.38344	-0.514
Mof_O 	O 	0.17823	0.12977	0.35672	-0.513
Mof_O 	O 	0.35623	0.58617	0.46847	-0.53
Mof_O 	O 	0.37083	0.52307	0.49443	-0.516
Mof_O 	O 	0.44213	0.62247	0.53302	-0.52
Mof_O 	O 	0.49933	0.75637	0.53052	-0.52
Mof_O 	O 	0.63073	0.44717	0.65086	-0.509
Mof_O 	O 	0.76563	0.49687	0.65255	-0.505
Mof_N 	N 	0.43113	0.34197	0.4232	-0.132
Mof_N 	N 	0.74943	0.72837	0.58623	-0.129
Mof_C 	C 	0.16453	0.13157	0.37477	0.384
Mof_C 	C 	0.23683	0.18997	0.38734	-0.148
Mof_C 	C 	0.31463	0.22617	0.37983	0.078
Mof_H 	H 	0.32353	0.21567	0.36667	0.015
Mof_C 	C 	0.37953	0.27777	0.39162	-0.168
Mof_H 	H 	0.43273	0.30247	0.38647	0.084
Mof_C 	C 	0.36663	0.29317	0.41094	0.146
Mof_C 	C 	0.28873	0.25697	0.41846	-0.176
Mof_H 	H 	0.27983	0.26747	0.43167	0.09
Mof_C 	C 	0.22383	0.20537	0.40666	0.074
Mof_H 	H 	0.17063	0.18067	0.41177	0.004
Mof_C 	C 	0.51193	0.35377	0.42062	-0.244
Mof_H 	H 	0.51063	0.30257	0.42267	0.098
Mof_H 	H 	0.54853	0.39347	0.43027	0.102
Mof_H 	H 	0.53093	0.37327	0.40717	0.094
Mof_C 	C 	0.37373	0.53707	0.47652	0.447
Mof_C 	C 	0.38783	0.48417	0.46325	-0.229
Mof_C 	C 	0.41573	0.43617	0.46971	0.147
Mof_H 	H 	0.42753	0.43657	0.48337	-0.001
Mof_C 	C 	0.42793	0.38627	0.45703	-0.222
Mof_H 	H 	0.44393	0.35007	0.46207	0.106
Mof_C 	C 	0.41663	0.39017	0.43747	0.181
Mof_C 	C 	0.38663	0.43857	0.43054	-0.234
Mof_H 	H 	0.37223	0.43727	0.41707	0.112
Mof_C 	C 	0.37893	0.48677	0.4435	0.16
Mof_H 	H 	0.36633	0.52547	0.43847	-0.009
Mof_C 	C 	0.49753	0.69387	0.53683	0.409
Mof_C 	C 	0.56593	0.70127	0.54942	-0.169
Mof_C 	C 	0.62419	0.77733	0.55584	0.092
Mof_H 	H 	0.62193	0.82357	0.55177	0.012
Mof_C 	C 	0.68573	0.78567	0.56823	-0.182
Mof_H 	H 	0.72553	0.83757	0.57257	0.094
Mof_C 	C 	0.68903	0.71797	0.5742	0.163
Mof_C 	C 	0.63083	0.64197	0.56778	-0.187
Mof_H 	H 	0.63303	0.59567	0.57187	0.097
Mof_C 	C 	0.56918	0.63362	0.55539	0.093
Mof_H 	H 	0.52943	0.58167	0.55097	0.012
Mof_C 	C 	0.82343	0.80507	0.58627	-0.25
Mof_H 	H 	0.82103	0.83967	0.57597	0.101
Mof_H 	H 	0.86893	0.79657	0.58377	0.105
Mof_H 	H 	0.83033	0.83087	0.59917	0.104
Mof_C 	C 	0.70413	0.49607	0.64596	0.393
Mof_C 	C 	0.71523	0.55437	0.62985	-0.151
Mof_C 	C 	0.79073	0.60167	0.62143	0.079
Mof_H 	H 	0.83473	0.59537	0.62547	0.018
Mof_C 	C 	0.80203	0.65827	0.6071	-0.165
Mof_H 	H 	0.85373	0.69067	0.60137	0.089
Mof_C 	C 	0.73773	0.66757	0.60117	0.135
Mof_C 	C 	0.66213	0.62027	0.60959	-0.167
Mof_H 	H 	0.61813	0.62657	0.60557	0.088
Mof_C 	C 	0.65083	0.56357	0.62393	0.079
Mof_H 	H 	0.59923	0.53127	0.62967	0.016
Mof_Zn	Zn	0.64351	0.2287	0.66829	1.214
Mof_Zn	Zn	0.89692	0.98369	0.84924	1.213
Mof_O 	O 	0.6624	0.2373	0.71677	-0.511
Mof_O 	O 	0.6182	0.1551	0.69005	-0.512
Mof_O 	O 	0.8966	0.9771	0.8018	-0.527
Mof_O 	O 	0.8189	0.9625	0.82776	-0.515
Mof_O 	O 	0.847	0.8912	0.86635	-0.519
Mof_O 	O 	0.9237	0.834	0.86385	-0.518
Mof_O 	O 	0.4831	0.7026	0.98419	-0.509
Mof_O 	O 	0.3979	0.5677	0.98588	-0.505
Mof_N 	N 	0.5775	0.9022	0.75653	-0.132
Mof_N 	N 	0.6456	0.5839	0.91956	-0.129
Mof_C 	C 	0.6337	0.1688	0.7081	0.383
Mof_C 	C 	0.6198	0.0965	0.72067	-0.147
Mof_C 	C 	0.5782	0.0187	0.71316	0.074
Mof_H 	H 	0.5588	0.0098	0.7	0.016
Mof_C 	C 	0.5649	0.9538	0.72495	-0.165
Mof_H 	H 	0.5364	0.9006	0.7198	0.083
Mof_C 	C 	0.5932	0.9667	0.74427	0.147
Mof_C 	C 	0.6349	0.0446	0.75179	-0.178
Mof_H 	H 	0.6543	0.0535	0.765	0.091
Mof_C 	C 	0.6482	0.1095	0.73999	0.073
Mof_H 	H 	0.6767	0.1627	0.7451	0.005
Mof_C 	C 	0.5085	0.8214	0.75395	-0.244
Mof_H 	H 	0.4586	0.8227	0.756	0.098
Mof_H 	H 	0.5116	0.7848	0.7636	0.102
Mof_H 	H 	0.509	0.8024	0.7405	0.094
Mof_C 	C 	0.83	0.9596	0.80985	0.447
Mof_C 	C 	0.763	0.9455	0.79658	-0.228
Mof_C 	C 	0.6871	0.9176	0.80304	0.146
Mof_H 	H 	0.6757	0.9058	0.8167	-0.001
Mof_C 	C 	0.625	0.9054	0.79036	-0.222
Mof_H 	H 	0.5728	0.8894	0.7954	0.106
Mof_C 	C 	0.6402	0.9167	0.7708	0.181
Mof_C 	C 	0.7186	0.9467	0.76387	-0.233
Mof_H 	H 	0.7317	0.9611	0.7504	0.113
Mof_C 	C 	0.7745	0.9544	0.77683	0.16
Mof_H 	H 	0.8258	0.967	0.7718	-0.008
Mof_C 	C 	0.863	0.8358	0.87016	0.408
Mof_C 	C 	0.802	0.7674	0.88275	-0.168
Mof_C 	C 	0.8198	0.70914	0.88917	0.091
Mof_H 	H 	0.8683	0.7114	0.8851	0.013
Mof_C 	C 	0.7666	0.6476	0.90156	-0.181
Mof_H 	H 	0.7787	0.6078	0.9059	0.094
Mof_C 	C 	0.6956	0.6443	0.90753	0.162
Mof_C 	C 	0.6778	0.7025	0.90111	-0.187
Mof_H 	H 	0.6293	0.7003	0.9052	0.097
Mof_C 	C 	0.7311	0.76415	0.88872	0.092
Mof_H 	H 	0.7189	0.8039	0.8843	0.012
Mof_C 	C 	0.6483	0.5099	0.9196	-0.248
Mof_H 	H 	0.6853	0.5123	0.9093	0.1
Mof_H 	H 	0.5943	0.4644	0.9171	0.103
Mof_H 	H 	0.6672	0.503	0.9325	0.103
Mof_C 	C 	0.4586	0.6292	0.97929	0.393
Mof_C 	C 	0.5058	0.6181	0.96318	-0.151
Mof_C 	C 	0.4776	0.5426	0.95476	0.079
Mof_H 	H 	0.4273	0.4986	0.9588	0.017
Mof_C 	C 	0.5229	0.5313	0.94043	-0.165
Mof_H 	H 	0.5036	0.4796	0.9347	0.088
Mof_C 	C 	0.5965	0.5956	0.9345	0.134
Mof_C 	C 	0.6248	0.6712	0.94292	-0.167
Mof_H 	H 	0.6751	0.7152	0.9389	0.088
Mof_C 	C 	0.5794	0.6825	0.95726	0.079
Mof_H 	H 	0.5987	0.7341	0.963	0.016
Mof_Zn	Zn	0.31018	0.56203	0.00163	1.214
Mof_Zn	Zn	0.56359	0.31702	0.18258	1.212
Mof_O 	O 	0.32907	0.57063	0.0501	-0.511
Mof_O 	O 	0.28487	0.48843	0.02338	-0.512
Mof_O 	O 	0.56327	0.31043	0.13513	-0.53
Mof_O 	O 	0.48557	0.29583	0.16109	-0.516
Mof_O 	O 	0.51367	0.22453	0.19968	-0.521
Mof_O 	O 	0.59037	0.16733	0.19718	-0.521
Mof_O 	O 	0.14977	0.03593	0.31752	-0.515
Mof_O 	O 	0.06457	0.90103	0.31921	-0.507
Mof_N 	N 	0.24417	0.23553	0.08986	-0.132
Mof_N 	N 	0.31227	0.91723	0.25289	-0.13
Mof_C 	C 	0.30037	0.50213	0.04143	0.384
Mof_C 	C 	0.28647	0.42983	0.054	-0.147
Mof_C 	C 	0.24487	0.35203	0.04649	0.078
Mof_H 	H 	0.22547	0.34313	0.03333	0.015
Mof_C 	C 	0.23157	0.28713	0.05828	-0.168
Mof_H 	H 	0.20307	0.23393	0.05313	0.084
Mof_C 	C 	0.25987	0.30003	0.0776	0.145
Mof_C 	C 	0.30157	0.37793	0.08512	-0.176
Mof_H 	H 	0.32097	0.38683	0.09833	0.091
Mof_C 	C 	0.31487	0.44283	0.07332	0.073
Mof_H 	H 	0.34337	0.49603	0.07843	0.005
Mof_C 	C 	0.17517	0.15473	0.08728	-0.242
Mof_H 	H 	0.12527	0.15603	0.08933	0.096
Mof_H 	H 	0.17827	0.11813	0.09693	0.101
Mof_H 	H 	0.17567	0.13573	0.07383	0.093
Mof_C 	C 	0.49667	0.29293	0.14318	0.447
Mof_C 	C 	0.42967	0.27883	0.12991	-0.229
Mof_C 	C 	0.35377	0.25093	0.13637	0.147
Mof_H 	H 	0.34237	0.23913	0.15003	-0.001
Mof_C 	C 	0.29167	0.23873	0.12369	-0.222
Mof_H 	H 	0.23947	0.22273	0.12873	0.106
Mof_C 	C 	0.30687	0.25003	0.10413	0.181
Mof_C 	C 	0.38527	0.28003	0.0972	-0.234
Mof_H 	H 	0.39837	0.29443	0.08373	0.112
Mof_C 	C 	0.44117	0.28773	0.11016	0.16
Mof_H 	H 	0.49247	0.30033	0.10513	-0.009
Mof_C 	C 	0.52967	0.16913	0.20349	0.408
Mof_C 	C 	0.46867	0.10073	0.21608	-0.168
Mof_C 	C 	0.48647	0.04247	0.2225	0.083
Mof_H 	H 	0.53497	0.04473	0.21843	0.013
Mof_C 	C 	0.43327	0.98093	0.23489	-0.174
Mof_H 	H 	0.44537	0.94113	0.23923	0.092
Mof_C 	C 	0.36227	0.97763	0.24086	0.169
Mof_C 	C 	0.34447	0.03583	0.23444	-0.196
Mof_H 	H 	0.29597	0.03363	0.23853	0.098
Mof_C 	C 	0.39777	0.09748	0.22205	0.094
Mof_H 	H 	0.38557	0.13723	0.21763	0.011
Mof_C 	C 	0.31497	0.84323	0.25293	-0.247
Mof_H 	H 	0.35197	0.84563	0.24263	0.1
Mof_H 	H 	0.26097	0.79773	0.25043	0.103
Mof_H 	H 	0.33387	0.83633	0.26583	0.102
Mof_C 	C 	0.12527	0.96253	0.31262	0.4
Mof_C 	C 	0.17247	0.95143	0.29651	-0.146
Mof_C 	C 	0.14427	0.87593	0.28809	0.079
Mof_H 	H 	0.09397	0.83193	0.29213	0.016
Mof_C 	C 	0.18957	0.86463	0.27376	-0.167
Mof_H 	H 	0.17027	0.81293	0.26803	0.089
Mof_C 	C 	0.26317	0.92893	0.26783	0.143
Mof_C 	C 	0.29147	0.00453	0.27625	-0.175
Mof_H 	H 	0.34177	0.04853	0.27223	0.089
Mof_C 	C 	0.24607	0.01583	0.29059	0.074
Mof_H 	H 	0.26537	0.06743	0.29633	0.016
Mof_Zn	Zn	0.97684	0.89537	0.33496	1.216
Mof_Zn	Zn	0.23025	0.65036	0.51591	1.212
Mof_O 	O 	0.99573	0.90397	0.38344	-0.506
Mof_O 	O 	0.95153	0.82177	0.35672	-0.511
Mof_O 	O 	0.22993	0.64377	0.46847	-0.53
Mof_O 	O 	0.15223	0.62917	0.49443	-0.517
Mof_O 	O 	0.18033	0.55787	0.53302	-0.521
Mof_O 	O 	0.25703	0.50067	0.53052	-0.521
Mof_O 	O 	0.81643	0.36927	0.65086	-0.508
Mof_O 	O 	0.73123	0.23437	0.65255	-0.505
Mof_N 	N 	0.91083	0.56887	0.4232	-0.132
Mof_N 	N 	0.97893	0.25057	0.58623	-0.131
Mof_C 	C 	0.96703	0.83547	0.37477	0.385
Mof_C 	C 	0.95313	0.76317	0.38734	-0.151
Mof_C 	C 	0.91153	0.68537	0.37983	0.081
Mof_H 	H 	0.89213	0.67647	0.36667	0.015
Mof_C 	C 	0.89823	0.62047	0.39162	-0.17
Mof_H 	H 	0.86973	0.56727	0.38647	0.085
Mof_C 	C 	0.92653	0.63337	0.41094	0.149
Mof_C 	C 	0.96823	0.71127	0.41846	-0.181
Mof_H 	H 	0.98763	0.72017	0.43167	0.094
Mof_C 	C 	0.98153	0.77617	0.40666	0.083
Mof_H 	H 	0.01003	0.82937	0.41177	0
Mof_C 	C 	0.84183	0.48807	0.42062	-0.243
Mof_H 	H 	0.79193	0.48937	0.42267	0.097
Mof_H 	H 	0.84493	0.45147	0.43027	0.102
Mof_H 	H 	0.84233	0.46907	0.40717	0.094
Mof_C 	C 	0.16333	0.62627	0.47652	0.447
Mof_C 	C 	0.09633	0.61217	0.46325	-0.227
Mof_C 	C 	0.02043	0.58427	0.46971	0.139
Mof_H 	H 	0.00903	0.57247	0.48337	-0
Mof_C 	C 	0.95833	0.57207	0.45703	-0.216
Mof_H 	H 	0.90613	0.55607	0.46207	0.104
Mof_C 	C 	0.97353	0.58337	0.43747	0.184
Mof_C 	C 	0.05193	0.61337	0.43054	-0.24
Mof_H 	H 	0.06503	0.62777	0.41707	0.113
Mof_C 	C 	0.10783	0.62107	0.4435	0.161
Mof_H 	H 	0.15913	0.63367	0.43847	-0.01
Mof_C 	C 	0.19633	0.50247	0.53683	0.41
Mof_C 	C 	0.13533	0.43407	0.54942	-0.174
Mof_C 	C 	0.15313	0.37581	0.55584	0.095
Mof_H 	H 	0.20163	0.37807	0.55177	0.01
Mof_C 	C 	0.09993	0.31427	0.56823	-0.186
Mof_H 	H 	0.11203	0.27447	0.57257	0.094
Mof_C 	C 	0.02893	0.31097	0.5742	0.164
Mof_C 	C 	0.01113	0.36917	0.56778	-0.203
Mof_H 	H 	0.96263	0.36697	0.57187	0.106
Mof_C 	C 	0.06443	0.43082	0.55539	0.1
Mof_H 	H 	0.05223	0.47057	0.55097	0.008
Mof_C 	C 	0.98163	0.17657	0.58627	-0.202
Mof_H 	H 	0.01863	0.17897	0.57597	0.082
Mof_H 	H 	0.92763	0.13107	0.58377	0.091
Mof_H 	H 	0.00053	0.16967	0.59917	0.084
Mof_C 	C 	0.79193	0.29587	0.64596	0.392
Mof_C 	C 	0.83913	0.28477	0.62985	-0.146
Mof_C 	C 	0.81093	0.20927	0.62143	0.074
Mof_H 	H 	0.76063	0.16527	0.62547	0.018
Mof_C 	C 	0.85623	0.19797	0.6071	-0.16
Mof_H 	H 	0.83693	0.14627	0.60137	0.086
Mof_C 	C 	0.92983	0.26227	0.60117	0.13
Mof_C 	C 	0.95813	0.33787	0.60959	-0.149
Mof_H 	H 	0.00843	0.38187	0.60557	0.077
Mof_C 	C 	0.91273	0.34917	0.62393	0.07
Mof_H 	H 	0.93203	0.40077	0.62967	0.021
Mof_Zn	Zn	0.66667	0.33333	0.70652	1.214
Mof_O 	O 	0.66667	0.33333	0.67811	-0.964
Mof_Zn	Zn	0.33333	0.66667	0.03986	1.213
Mof_O 	O 	0.33333	0.66667	0.01144	-0.964
Mof_Zn	Zn	9.37561e-33	0	0.37319	1.211
Mof_O 	O 	-1.87512e-32	0	0.34478	-0.97
Mof_Zn	Zn	3.75024e-32	0	0.81155	1.214
Mof_O 	O 	-0	0	0.84016	-0.968
Mof_Zn	Zn	0.66667	0.33333	0.14488	1.215
Mof_O 	O 	0.66667	0.33333	0.17349	-0.964
Mof_Zn	Zn	0.33333	0.66667	0.47821	1.215
Mof_O 	O 	0.33333	0.66667	0.50683	-0.964
_end
