data_functionalizedCrystal
_audit_creation_method	'EQeq! by Chris Wilmer'
_symmetry_space_group_name_H-M	'P1'
_symmetry_Int_Tables_number	1
_symmetry_cell_setting	triclinic
loop_
_symmetry_equiv_pos_as_xyz
  x,y,z
_cell_length_a	27.156
_cell_length_b	26.242
_cell_length_c	13.2949
_cell_angle_alpha	90
_cell_angle_beta	90.57
_cell_angle_gamma	90
loop_
_atom_site_label
_atom_site_type_symbol
_atom_site_fract_x
_atom_site_fract_y
_atom_site_fract_z
_atom_site_charge
Mof_Cd	Cd	0.06174	0.42034	0.17877	0.276
Mof_Cd	Cd	0.08705	0.42014	0.87441	0.275
Mof_N 	N 	0.1138	0.3748	0.2887	-0.163
Mof_N 	N 	0.1401	0.3686	0.7772	-0.159
Mof_C 	C 	0.1805	0.3189	0.4051	0.102
Mof_C 	C 	0.1902	0.3111	0.6331	0.089
Mof_C 	C 	0.1424	0.3183	0.7831	0.088
Mof_H 	H 	0.1272	0.3025	0.8371	0.003
Mof_C 	C 	0.1617	0.382	0.2836	0.099
Mof_H 	H 	0.1724	0.4071	0.2397	-0.004
Mof_C 	C 	0.1321	0.3118	0.4138	-0.165
Mof_H 	H 	0.1203	0.2879	0.4593	0.089
Mof_C 	C 	0.1663	0.2878	0.7136	-0.155
Mof_H 	H 	0.1663	0.2525	0.7204	0.082
Mof_C 	C 	0.2481	0.2556	0.3962	-0.059
Mof_H 	H 	0.2459	0.2585	0.3266	0.052
Mof_C 	C 	0.2185	0.2791	0.5601	-0.016
Mof_C 	C 	0.1974	0.356	0.3372	-0.168
Mof_H 	H 	0.2307	0.3626	0.329	0.087
Mof_C 	C 	0.1865	0.3632	0.6256	-0.157
Mof_H 	H 	0.2005	0.3801	0.5714	0.087
Mof_C 	C 	0.1621	0.3903	0.6979	0.086
Mof_H 	H 	0.1607	0.4256	0.6917	-0
Mof_C 	C 	0.2172	0.2867	0.4595	-0.025
Mof_C 	C 	0.0988	0.3403	0.3543	0.088
Mof_H 	H 	0.0652	0.3347	0.3614	0.002
Mof_S 	S 	0.97948	0.40776	0.2596	-0.163
Mof_C 	C 	0.9752	0.3408	0.2781	0.095
Mof_C 	C 	0.9625	0.3219	0.3729	-0.142
Mof_H 	H 	0.9557	0.3447	0.4244	0.084
Mof_C 	C 	0.96	0.2704	0.3919	0.049
Mof_H 	H 	0.9518	0.2587	0.4556	0.008
Mof_C 	C 	0.9697	0.2362	0.3149	-0.124
Mof_H 	H 	0.9673	0.2014	0.3268	0.069
Mof_C 	C 	0.9831	0.2537	0.22	0.048
Mof_H 	H 	0.9905	0.231	0.1687	0.008
Mof_C 	C 	0.9851	0.3059	0.2043	-0.149
Mof_H 	H 	0.9935	0.3178	0.1408	0.073
Mof_S 	S 	0.08078	0.36502	0.02665	-0.178
Mof_C 	C 	0.1395	0.3374	0.0529	0.124
Mof_C 	C 	0.1828	0.3593	0.0273	-0.182
Mof_H 	H 	0.1826	0.391	0.996	0.09
Mof_C 	C 	0.2276	0.3351	0.047	0.09
Mof_H 	H 	0.2564	0.3508	0.0258	-0.002
Mof_C 	C 	0.2312	0.2896	0.0958	-0.168
Mof_H 	H 	0.2613	0.2749	0.1132	0.088
Mof_C 	C 	0.1871	0.267	0.1172	0.088
Mof_H 	H 	0.1871	0.2343	0.1441	-0.002
Mof_C 	C 	0.1423	0.291	0.1005	-0.175
Mof_H 	H 	0.1135	0.2754	0.1219	0.093
Mof_Cd	Cd	0.56174	0.92034	0.17877	0.272
Mof_Cd	Cd	0.58705	0.92014	0.87441	0.271
Mof_N 	N 	0.6138	0.8748	0.2887	-0.164
Mof_N 	N 	0.6401	0.8686	0.7772	-0.16
Mof_C 	C 	0.6805	0.8189	0.4051	0.102
Mof_C 	C 	0.6902	0.8111	0.6331	0.089
Mof_C 	C 	0.6424	0.8183	0.7831	0.088
Mof_H 	H 	0.6272	0.8025	0.8371	0.003
Mof_C 	C 	0.6617	0.882	0.2836	0.099
Mof_H 	H 	0.6724	0.9071	0.2397	-0.006
Mof_C 	C 	0.6321	0.8118	0.4138	-0.165
Mof_H 	H 	0.6203	0.7879	0.4593	0.089
Mof_C 	C 	0.6663	0.7878	0.7136	-0.155
Mof_H 	H 	0.6663	0.7525	0.7204	0.082
Mof_C 	C 	0.7481	0.7556	0.3962	-0.059
Mof_H 	H 	0.7459	0.7585	0.3266	0.051
Mof_C 	C 	0.7185	0.7791	0.5601	-0.017
Mof_C 	C 	0.6974	0.856	0.3372	-0.169
Mof_H 	H 	0.7307	0.8626	0.329	0.086
Mof_C 	C 	0.6865	0.8632	0.6256	-0.158
Mof_H 	H 	0.7005	0.8801	0.5714	0.085
Mof_C 	C 	0.6621	0.8903	0.6979	0.086
Mof_H 	H 	0.6607	0.9256	0.6917	-0.004
Mof_C 	C 	0.7172	0.7867	0.4595	-0.025
Mof_C 	C 	0.5988	0.8403	0.3543	0.087
Mof_H 	H 	0.5652	0.8347	0.3614	0.002
Mof_S 	S 	0.47948	0.90776	0.2596	-0.168
Mof_C 	C 	0.4752	0.8408	0.2781	0.096
Mof_C 	C 	0.4625	0.8219	0.3729	-0.143
Mof_H 	H 	0.4557	0.8447	0.4244	0.084
Mof_C 	C 	0.46	0.7704	0.3919	0.049
Mof_H 	H 	0.4518	0.7587	0.4556	0.008
Mof_C 	C 	0.4697	0.7362	0.3149	-0.124
Mof_H 	H 	0.4673	0.7014	0.3268	0.069
Mof_C 	C 	0.4831	0.7537	0.22	0.049
Mof_H 	H 	0.4905	0.731	0.1687	0.008
Mof_C 	C 	0.4851	0.8059	0.2043	-0.15
Mof_H 	H 	0.4935	0.8178	0.1408	0.074
Mof_S 	S 	0.58078	0.86502	0.02665	-0.179
Mof_C 	C 	0.6395	0.8374	0.0529	0.124
Mof_C 	C 	0.6828	0.8593	0.0273	-0.182
Mof_H 	H 	0.6826	0.891	0.996	0.088
Mof_C 	C 	0.7276	0.8351	0.047	0.089
Mof_H 	H 	0.7564	0.8508	0.0258	-0.004
Mof_C 	C 	0.7312	0.7896	0.0958	-0.168
Mof_H 	H 	0.7613	0.7749	0.1132	0.087
Mof_C 	C 	0.6871	0.767	0.1172	0.088
Mof_H 	H 	0.6871	0.7343	0.1441	-0.002
Mof_C 	C 	0.6423	0.791	0.1005	-0.175
Mof_H 	H 	0.6135	0.7754	0.1219	0.093
Mof_Cd	Cd	0.93826	0.42034	0.82123	0.277
Mof_Cd	Cd	0.91295	0.42014	0.12559	0.276
Mof_N 	N 	0.8862	0.3748	0.7113	-0.163
Mof_N 	N 	0.8599	0.3686	0.2228	-0.159
Mof_C 	C 	0.8195	0.3189	0.5949	0.102
Mof_C 	C 	0.8098	0.3111	0.3669	0.089
Mof_C 	C 	0.8576	0.3183	0.2169	0.088
Mof_H 	H 	0.8728	0.3025	0.1629	0.003
Mof_C 	C 	0.8383	0.382	0.7164	0.099
Mof_H 	H 	0.8276	0.4071	0.7603	-0.004
Mof_C 	C 	0.8679	0.3118	0.5862	-0.165
Mof_H 	H 	0.8797	0.2879	0.5407	0.089
Mof_C 	C 	0.8337	0.2878	0.2864	-0.155
Mof_H 	H 	0.8337	0.2525	0.2796	0.082
Mof_C 	C 	0.7519	0.2556	0.6038	-0.059
Mof_H 	H 	0.7541	0.2585	0.6734	0.052
Mof_C 	C 	0.7815	0.2791	0.4399	-0.016
Mof_C 	C 	0.8026	0.356	0.6628	-0.168
Mof_H 	H 	0.7693	0.3626	0.671	0.087
Mof_C 	C 	0.8135	0.3632	0.3744	-0.157
Mof_H 	H 	0.7995	0.3801	0.4286	0.087
Mof_C 	C 	0.8379	0.3903	0.3021	0.086
Mof_H 	H 	0.8393	0.4256	0.3083	-0
Mof_C 	C 	0.7828	0.2867	0.5405	-0.025
Mof_C 	C 	0.9012	0.3403	0.6457	0.088
Mof_H 	H 	0.9348	0.3347	0.6386	0.002
Mof_S 	S 	0.02052	0.40776	0.7404	-0.163
Mof_C 	C 	0.0248	0.3408	0.7219	0.095
Mof_C 	C 	0.0375	0.3219	0.6271	-0.142
Mof_H 	H 	0.0443	0.3447	0.5756	0.084
Mof_C 	C 	0.04	0.2704	0.6081	0.049
Mof_H 	H 	0.0482	0.2587	0.5444	0.008
Mof_C 	C 	0.0303	0.2362	0.6851	-0.124
Mof_H 	H 	0.0327	0.2014	0.6732	0.069
Mof_C 	C 	0.0169	0.2537	0.78	0.048
Mof_H 	H 	0.0095	0.231	0.8313	0.008
Mof_C 	C 	0.0149	0.3059	0.7957	-0.149
Mof_H 	H 	0.0065	0.3178	0.8592	0.073
Mof_S 	S 	0.91922	0.36502	0.97335	-0.178
Mof_C 	C 	0.8605	0.3374	0.9471	0.124
Mof_C 	C 	0.8172	0.3593	0.9727	-0.182
Mof_H 	H 	0.8174	0.391	0.004	0.09
Mof_C 	C 	0.7724	0.3351	0.953	0.09
Mof_H 	H 	0.7436	0.3508	0.9742	-0.002
Mof_C 	C 	0.7688	0.2896	0.9042	-0.168
Mof_H 	H 	0.7387	0.2749	0.8868	0.088
Mof_C 	C 	0.8129	0.267	0.8828	0.088
Mof_H 	H 	0.8129	0.2343	0.8559	-0.002
Mof_C 	C 	0.8577	0.291	0.8995	-0.175
Mof_H 	H 	0.8865	0.2754	0.8781	0.093
Mof_Cd	Cd	0.43826	0.92034	0.82123	0.272
Mof_Cd	Cd	0.41295	0.92014	0.12559	0.271
Mof_N 	N 	0.3862	0.8748	0.7113	-0.164
Mof_N 	N 	0.3599	0.8686	0.2228	-0.16
Mof_C 	C 	0.3195	0.8189	0.5949	0.102
Mof_C 	C 	0.3098	0.8111	0.3669	0.089
Mof_C 	C 	0.3576	0.8183	0.2169	0.088
Mof_H 	H 	0.3728	0.8025	0.1629	0.003
Mof_C 	C 	0.3383	0.882	0.7164	0.099
Mof_H 	H 	0.3276	0.9071	0.7603	-0.006
Mof_C 	C 	0.3679	0.8118	0.5862	-0.165
Mof_H 	H 	0.3797	0.7879	0.5407	0.089
Mof_C 	C 	0.3337	0.7878	0.2864	-0.155
Mof_H 	H 	0.3337	0.7525	0.2796	0.082
Mof_C 	C 	0.2519	0.7556	0.6038	-0.059
Mof_H 	H 	0.2541	0.7585	0.6734	0.051
Mof_C 	C 	0.2815	0.7791	0.4399	-0.017
Mof_C 	C 	0.3026	0.856	0.6628	-0.169
Mof_H 	H 	0.2693	0.8626	0.671	0.086
Mof_C 	C 	0.3135	0.8632	0.3744	-0.158
Mof_H 	H 	0.2995	0.8801	0.4286	0.085
Mof_C 	C 	0.3379	0.8903	0.3021	0.086
Mof_H 	H 	0.3393	0.9256	0.3083	-0.004
Mof_C 	C 	0.2828	0.7867	0.5405	-0.025
Mof_C 	C 	0.4012	0.8403	0.6457	0.087
Mof_H 	H 	0.4348	0.8347	0.6386	0.002
Mof_S 	S 	0.52052	0.90776	0.7404	-0.168
Mof_C 	C 	0.5248	0.8408	0.7219	0.096
Mof_C 	C 	0.5375	0.8219	0.6271	-0.143
Mof_H 	H 	0.5443	0.8447	0.5756	0.084
Mof_C 	C 	0.54	0.7704	0.6081	0.049
Mof_H 	H 	0.5482	0.7587	0.5444	0.008
Mof_C 	C 	0.5303	0.7362	0.6851	-0.124
Mof_H 	H 	0.5327	0.7014	0.6732	0.069
Mof_C 	C 	0.5169	0.7537	0.78	0.049
Mof_H 	H 	0.5095	0.731	0.8313	0.008
Mof_C 	C 	0.5149	0.8059	0.7957	-0.15
Mof_H 	H 	0.5065	0.8178	0.8592	0.074
Mof_S 	S 	0.41922	0.86502	0.97335	-0.179
Mof_C 	C 	0.3605	0.8374	0.9471	0.124
Mof_C 	C 	0.3172	0.8593	0.9727	-0.182
Mof_H 	H 	0.3174	0.891	0.004	0.088
Mof_C 	C 	0.2724	0.8351	0.953	0.089
Mof_H 	H 	0.2436	0.8508	0.9742	-0.004
Mof_C 	C 	0.2688	0.7896	0.9042	-0.168
Mof_H 	H 	0.2387	0.7749	0.8868	0.087
Mof_C 	C 	0.3129	0.767	0.8828	0.088
Mof_H 	H 	0.3129	0.7343	0.8559	-0.002
Mof_C 	C 	0.3577	0.791	0.8995	-0.175
Mof_H 	H 	0.3865	0.7754	0.8781	0.093
Mof_Cd	Cd	0.93826	0.57966	0.82123	0.277
Mof_Cd	Cd	0.91295	0.57986	0.12559	0.276
Mof_N 	N 	0.8862	0.6252	0.7113	-0.163
Mof_N 	N 	0.8599	0.6314	0.2228	-0.159
Mof_C 	C 	0.8195	0.6811	0.5949	0.102
Mof_C 	C 	0.8098	0.6889	0.3669	0.089
Mof_C 	C 	0.8576	0.6817	0.2169	0.088
Mof_H 	H 	0.8728	0.6975	0.1629	0.003
Mof_C 	C 	0.8383	0.618	0.7164	0.099
Mof_H 	H 	0.8276	0.5929	0.7603	-0.004
Mof_C 	C 	0.8679	0.6882	0.5862	-0.165
Mof_H 	H 	0.8797	0.7121	0.5407	0.089
Mof_C 	C 	0.8337	0.7122	0.2864	-0.154
Mof_H 	H 	0.8337	0.7475	0.2796	0.081
Mof_C 	C 	0.7519	0.7444	0.6038	-0.059
Mof_H 	H 	0.7541	0.7415	0.6734	0.051
Mof_C 	C 	0.7815	0.7209	0.4399	-0.016
Mof_C 	C 	0.8026	0.644	0.6628	-0.168
Mof_H 	H 	0.7693	0.6374	0.671	0.087
Mof_C 	C 	0.8135	0.6368	0.3744	-0.157
Mof_H 	H 	0.7995	0.6199	0.4286	0.087
Mof_C 	C 	0.8379	0.6097	0.3021	0.086
Mof_H 	H 	0.8393	0.5744	0.3083	-0
Mof_C 	C 	0.7828	0.7133	0.5405	-0.025
Mof_C 	C 	0.9012	0.6597	0.6457	0.088
Mof_H 	H 	0.9348	0.6653	0.6386	0.002
Mof_S 	S 	0.02052	0.59224	0.7404	-0.163
Mof_C 	C 	0.0248	0.6592	0.7219	0.095
Mof_C 	C 	0.0375	0.6781	0.6271	-0.142
Mof_H 	H 	0.0443	0.6553	0.5756	0.084
Mof_C 	C 	0.04	0.7296	0.6081	0.049
Mof_H 	H 	0.0482	0.7413	0.5444	0.008
Mof_C 	C 	0.0303	0.7638	0.6851	-0.124
Mof_H 	H 	0.0327	0.7986	0.6732	0.067
Mof_C 	C 	0.0169	0.7463	0.78	0.048
Mof_H 	H 	0.0095	0.769	0.8313	0.007
Mof_C 	C 	0.0149	0.6941	0.7957	-0.149
Mof_H 	H 	0.0065	0.6822	0.8592	0.073
Mof_S 	S 	0.91922	0.63498	0.97335	-0.179
Mof_C 	C 	0.8605	0.6626	0.9471	0.124
Mof_C 	C 	0.8172	0.6407	0.9727	-0.182
Mof_H 	H 	0.8174	0.609	0.004	0.09
Mof_C 	C 	0.7724	0.6649	0.953	0.09
Mof_H 	H 	0.7436	0.6492	0.9742	-0.002
Mof_C 	C 	0.7688	0.7104	0.9042	-0.169
Mof_H 	H 	0.7387	0.7251	0.8868	0.088
Mof_C 	C 	0.8129	0.733	0.8828	0.088
Mof_H 	H 	0.8129	0.7657	0.8559	-0.002
Mof_C 	C 	0.8577	0.709	0.8995	-0.176
Mof_H 	H 	0.8865	0.7246	0.8781	0.093
Mof_Cd	Cd	0.43826	0.07966	0.82123	0.278
Mof_Cd	Cd	0.41295	0.07986	0.12559	0.277
Mof_N 	N 	0.3862	0.1252	0.7113	-0.164
Mof_N 	N 	0.3599	0.1314	0.2228	-0.159
Mof_C 	C 	0.3195	0.1811	0.5949	0.102
Mof_C 	C 	0.3098	0.1889	0.3669	0.089
Mof_C 	C 	0.3576	0.1817	0.2169	0.088
Mof_H 	H 	0.3728	0.1975	0.1629	0.003
Mof_C 	C 	0.3383	0.118	0.7164	0.099
Mof_H 	H 	0.3276	0.0929	0.7603	-0.004
Mof_C 	C 	0.3679	0.1882	0.5862	-0.165
Mof_H 	H 	0.3797	0.2121	0.5407	0.089
Mof_C 	C 	0.3337	0.2122	0.2864	-0.155
Mof_H 	H 	0.3337	0.2475	0.2796	0.082
Mof_C 	C 	0.2519	0.2444	0.6038	-0.059
Mof_H 	H 	0.2541	0.2415	0.6734	0.052
Mof_C 	C 	0.2815	0.2209	0.4399	-0.016
Mof_C 	C 	0.3026	0.144	0.6628	-0.168
Mof_H 	H 	0.2693	0.1374	0.671	0.088
Mof_C 	C 	0.3135	0.1368	0.3744	-0.157
Mof_H 	H 	0.2995	0.1199	0.4286	0.087
Mof_C 	C 	0.3379	0.1097	0.3021	0.086
Mof_H 	H 	0.3393	0.0744	0.3083	-0
Mof_C 	C 	0.2828	0.2133	0.5405	-0.024
Mof_C 	C 	0.4012	0.1597	0.6457	0.088
Mof_H 	H 	0.4348	0.1653	0.6386	0.002
Mof_S 	S 	0.52052	0.09224	0.7404	-0.162
Mof_C 	C 	0.5248	0.1592	0.7219	0.095
Mof_C 	C 	0.5375	0.1781	0.6271	-0.142
Mof_H 	H 	0.5443	0.1553	0.5756	0.084
Mof_C 	C 	0.54	0.2296	0.6081	0.049
Mof_H 	H 	0.5482	0.2413	0.5444	0.008
Mof_C 	C 	0.5303	0.2638	0.6851	-0.124
Mof_H 	H 	0.5327	0.2986	0.6732	0.068
Mof_C 	C 	0.5169	0.2463	0.78	0.048
Mof_H 	H 	0.5095	0.269	0.8313	0.008
Mof_C 	C 	0.5149	0.1941	0.7957	-0.149
Mof_H 	H 	0.5065	0.1822	0.8592	0.073
Mof_S 	S 	0.41922	0.13498	0.97335	-0.178
Mof_C 	C 	0.3605	0.1626	0.9471	0.124
Mof_C 	C 	0.3172	0.1407	0.9727	-0.183
Mof_H 	H 	0.3174	0.109	0.004	0.09
Mof_C 	C 	0.2724	0.1649	0.953	0.09
Mof_H 	H 	0.2436	0.1492	0.9742	-0.002
Mof_C 	C 	0.2688	0.2104	0.9042	-0.168
Mof_H 	H 	0.2387	0.2251	0.8868	0.088
Mof_C 	C 	0.3129	0.233	0.8828	0.088
Mof_H 	H 	0.3129	0.2657	0.8559	-0.002
Mof_C 	C 	0.3577	0.209	0.8995	-0.175
Mof_H 	H 	0.3865	0.2246	0.8781	0.093
Mof_Cd	Cd	0.06174	0.57966	0.17877	0.277
Mof_Cd	Cd	0.08705	0.57986	0.87441	0.276
Mof_N 	N 	0.1138	0.6252	0.2887	-0.163
Mof_N 	N 	0.1401	0.6314	0.7772	-0.159
Mof_C 	C 	0.1805	0.6811	0.4051	0.102
Mof_C 	C 	0.1902	0.6889	0.6331	0.089
Mof_C 	C 	0.1424	0.6817	0.7831	0.088
Mof_H 	H 	0.1272	0.6975	0.8371	0.003
Mof_C 	C 	0.1617	0.618	0.2836	0.099
Mof_H 	H 	0.1724	0.5929	0.2397	-0.004
Mof_C 	C 	0.1321	0.6882	0.4138	-0.165
Mof_H 	H 	0.1203	0.7121	0.4593	0.089
Mof_C 	C 	0.1663	0.7122	0.7136	-0.154
Mof_H 	H 	0.1663	0.7475	0.7204	0.081
Mof_C 	C 	0.2481	0.7444	0.3962	-0.059
Mof_H 	H 	0.2459	0.7415	0.3266	0.051
Mof_C 	C 	0.2185	0.7209	0.5601	-0.016
Mof_C 	C 	0.1974	0.644	0.3372	-0.168
Mof_H 	H 	0.2307	0.6374	0.329	0.087
Mof_C 	C 	0.1865	0.6368	0.6256	-0.157
Mof_H 	H 	0.2005	0.6199	0.5714	0.087
Mof_C 	C 	0.1621	0.6097	0.6979	0.086
Mof_H 	H 	0.1607	0.5744	0.6917	-0
Mof_C 	C 	0.2172	0.7133	0.4595	-0.025
Mof_C 	C 	0.0988	0.6597	0.3543	0.088
Mof_H 	H 	0.0652	0.6653	0.3614	0.002
Mof_S 	S 	0.97948	0.59224	0.2596	-0.163
Mof_C 	C 	0.9752	0.6592	0.2781	0.095
Mof_C 	C 	0.9625	0.6781	0.3729	-0.142
Mof_H 	H 	0.9557	0.6553	0.4244	0.084
Mof_C 	C 	0.96	0.7296	0.3919	0.049
Mof_H 	H 	0.9518	0.7413	0.4556	0.008
Mof_C 	C 	0.9697	0.7638	0.3149	-0.124
Mof_H 	H 	0.9673	0.7986	0.3268	0.067
Mof_C 	C 	0.9831	0.7463	0.22	0.048
Mof_H 	H 	0.9905	0.769	0.1687	0.007
Mof_C 	C 	0.9851	0.6941	0.2043	-0.149
Mof_H 	H 	0.9935	0.6822	0.1408	0.073
Mof_S 	S 	0.08078	0.63498	0.02665	-0.179
Mof_C 	C 	0.1395	0.6626	0.0529	0.124
Mof_C 	C 	0.1828	0.6407	0.0273	-0.182
Mof_H 	H 	0.1826	0.609	0.996	0.09
Mof_C 	C 	0.2276	0.6649	0.047	0.09
Mof_H 	H 	0.2564	0.6492	0.0258	-0.002
Mof_C 	C 	0.2312	0.7104	0.0958	-0.169
Mof_H 	H 	0.2613	0.7251	0.1132	0.088
Mof_C 	C 	0.1871	0.733	0.1172	0.088
Mof_H 	H 	0.1871	0.7657	0.1441	-0.002
Mof_C 	C 	0.1423	0.709	0.1005	-0.176
Mof_H 	H 	0.1135	0.7246	0.1219	0.093
Mof_Cd	Cd	0.56174	0.07966	0.17877	0.278
Mof_Cd	Cd	0.58705	0.07986	0.87441	0.277
Mof_N 	N 	0.6138	0.1252	0.2887	-0.164
Mof_N 	N 	0.6401	0.1314	0.7772	-0.159
Mof_C 	C 	0.6805	0.1811	0.4051	0.102
Mof_C 	C 	0.6902	0.1889	0.6331	0.089
Mof_C 	C 	0.6424	0.1817	0.7831	0.088
Mof_H 	H 	0.6272	0.1975	0.8371	0.003
Mof_C 	C 	0.6617	0.118	0.2836	0.099
Mof_H 	H 	0.6724	0.0929	0.2397	-0.004
Mof_C 	C 	0.6321	0.1882	0.4138	-0.165
Mof_H 	H 	0.6203	0.2121	0.4593	0.089
Mof_C 	C 	0.6663	0.2122	0.7136	-0.155
Mof_H 	H 	0.6663	0.2475	0.7204	0.082
Mof_C 	C 	0.7481	0.2444	0.3962	-0.059
Mof_H 	H 	0.7459	0.2415	0.3266	0.052
Mof_C 	C 	0.7185	0.2209	0.5601	-0.016
Mof_C 	C 	0.6974	0.144	0.3372	-0.168
Mof_H 	H 	0.7307	0.1374	0.329	0.088
Mof_C 	C 	0.6865	0.1368	0.6256	-0.157
Mof_H 	H 	0.7005	0.1199	0.5714	0.087
Mof_C 	C 	0.6621	0.1097	0.6979	0.086
Mof_H 	H 	0.6607	0.0744	0.6917	-0
Mof_C 	C 	0.7172	0.2133	0.4595	-0.024
Mof_C 	C 	0.5988	0.1597	0.3543	0.088
Mof_H 	H 	0.5652	0.1653	0.3614	0.002
Mof_S 	S 	0.47948	0.09224	0.2596	-0.162
Mof_C 	C 	0.4752	0.1592	0.2781	0.095
Mof_C 	C 	0.4625	0.1781	0.3729	-0.142
Mof_H 	H 	0.4557	0.1553	0.4244	0.084
Mof_C 	C 	0.46	0.2296	0.3919	0.049
Mof_H 	H 	0.4518	0.2413	0.4556	0.008
Mof_C 	C 	0.4697	0.2638	0.3149	-0.124
Mof_H 	H 	0.4673	0.2986	0.3268	0.068
Mof_C 	C 	0.4831	0.2463	0.22	0.048
Mof_H 	H 	0.4905	0.269	0.1687	0.008
Mof_C 	C 	0.4851	0.1941	0.2043	-0.149
Mof_H 	H 	0.4935	0.1822	0.1408	0.073
Mof_S 	S 	0.58078	0.13498	0.02665	-0.178
Mof_C 	C 	0.6395	0.1626	0.0529	0.124
Mof_C 	C 	0.6828	0.1407	0.0273	-0.183
Mof_H 	H 	0.6826	0.109	0.996	0.09
Mof_C 	C 	0.7276	0.1649	0.047	0.09
Mof_H 	H 	0.7564	0.1492	0.0258	-0.002
Mof_C 	C 	0.7312	0.2104	0.0958	-0.168
Mof_H 	H 	0.7613	0.2251	0.1132	0.088
Mof_C 	C 	0.6871	0.233	0.1172	0.088
Mof_H 	H 	0.6871	0.2657	0.1441	-0.002
Mof_C 	C 	0.6423	0.209	0.1005	-0.175
Mof_H 	H 	0.6135	0.2246	0.1219	0.093
Mof_S 	S 	0.1349	0.5	0.8367	-0.17
Mof_C 	C 	0.1891	0.5	0.906	0.087
Mof_C 	C 	0.1913	0.5	0.0105	-0.144
Mof_H 	H 	0.1622	0.5	0.047	0.066
Mof_C 	C 	0.2364	0.5	0.061	0.033
Mof_H 	H 	0.2392	0.5	0.131	0.013
Mof_C 	C 	0.2312	0.5	0.848	-0.133
Mof_H 	H 	0.2284	0.5	0.7784	0.078
Mof_C 	C 	0.2775	0.5	0.893	0.031
Mof_H 	H 	0.3065	0.5	0.8568	0.014
Mof_C 	C 	0.277	0.5	0.998	-0.106
Mof_H 	H 	0.3077	0.5	0.0296	0.062
Mof_S 	S 	0.11032	0.5	0.2152	-0.185
Mof_C 	C 	0.1096	0.5	0.3506	0.155
Mof_C 	C 	0.0683	0.5	0.4049	-0.221
Mof_H 	H 	0.0385	0.5	0.3698	0.097
Mof_C 	C 	0.0662	0.5	0.5065	0.14
Mof_H 	H 	0.0366	0.5	0.5411	-0.024
Mof_C 	C 	0.1107	0.5	0.554	-0.207
Mof_H 	H 	0.1107	0.5	0.6239	0.1
Mof_C 	C 	0.1545	0.5	0.5085	0.134
Mof_H 	H 	0.1843	0.5	0.5435	-0.024
Mof_C 	C 	0.1513	0.5	0.4053	-0.21
Mof_H 	H 	0.1807	0.5	0.3703	0.102
Mof_S 	S 	0.6349	0	0.8367	-0.164
Mof_C 	C 	0.6891	0	0.906	0.087
Mof_C 	C 	0.6913	0	0.0105	-0.142
Mof_H 	H 	0.6622	0	0.047	0.066
Mof_C 	C 	0.7364	-3.33069e-34	0.061	0.033
Mof_H 	H 	0.7392	0	0.131	0.015
Mof_C 	C 	0.7312	0	0.848	-0.131
Mof_H 	H 	0.7284	-5.3291e-33	0.7784	0.079
Mof_C 	C 	0.7775	0	0.893	0.031
Mof_H 	H 	0.8065	0	0.8568	0.016
Mof_C 	C 	0.777	0	0.998	-0.104
Mof_H 	H 	0.8077	-1.66534e-34	0.0296	0.063
Mof_S 	S 	0.61032	-1.33228e-33	0.2152	-0.179
Mof_C 	C 	0.6096	-1.33228e-33	0.3506	0.156
Mof_C 	C 	0.5683	0	0.4049	-0.22
Mof_H 	H 	0.5385	-1.33228e-33	0.3698	0.098
Mof_C 	C 	0.5662	-2.66455e-33	0.5065	0.141
Mof_H 	H 	0.5366	0	0.5411	-0.023
Mof_C 	C 	0.6107	-2.66455e-33	0.554	-0.207
Mof_H 	H 	0.6107	2.66455e-33	0.6239	0.101
Mof_C 	C 	0.6545	0	0.5085	0.135
Mof_H 	H 	0.6843	0	0.5435	-0.022
Mof_C 	C 	0.6513	0	0.4053	-0.21
Mof_H 	H 	0.6807	-1.33228e-33	0.3703	0.104
Mof_S 	S 	0.8651	0.5	0.1633	-0.17
Mof_C 	C 	0.8109	0.5	0.094	0.087
Mof_C 	C 	0.8087	0.5	0.9895	-0.144
Mof_H 	H 	0.8378	0.5	0.953	0.066
Mof_C 	C 	0.7636	0.5	0.939	0.033
Mof_H 	H 	0.7608	0.5	0.869	0.013
Mof_C 	C 	0.7688	0.5	0.152	-0.133
Mof_H 	H 	0.7716	0.5	0.2216	0.078
Mof_C 	C 	0.7225	0.5	0.107	0.031
Mof_H 	H 	0.6935	0.5	0.1432	0.014
Mof_C 	C 	0.723	0.5	0.002	-0.106
Mof_H 	H 	0.6923	0.5	0.9704	0.062
Mof_S 	S 	0.88968	0.5	0.7848	-0.185
Mof_C 	C 	0.8904	0.5	0.6494	0.155
Mof_C 	C 	0.9317	0.5	0.5951	-0.221
Mof_H 	H 	0.9615	0.5	0.6302	0.097
Mof_C 	C 	0.9338	0.5	0.4935	0.14
Mof_H 	H 	0.9634	0.5	0.4589	-0.024
Mof_C 	C 	0.8893	0.5	0.446	-0.207
Mof_H 	H 	0.8893	0.5	0.3761	0.1
Mof_C 	C 	0.8455	0.5	0.4915	0.134
Mof_H 	H 	0.8157	0.5	0.4565	-0.024
Mof_C 	C 	0.8487	0.5	0.5947	-0.21
Mof_H 	H 	0.8193	0.5	0.6297	0.102
Mof_S 	S 	0.3651	0	0.1633	-0.164
Mof_C 	C 	0.3109	0	0.094	0.087
Mof_C 	C 	0.3087	-5.3291e-33	0.9895	-0.142
Mof_H 	H 	0.3378	0	0.953	0.066
Mof_C 	C 	0.2636	0	0.939	0.033
Mof_H 	H 	0.2608	-5.3291e-33	0.869	0.015
Mof_C 	C 	0.2688	-6.66138e-34	0.152	-0.131
Mof_H 	H 	0.2716	0	0.2216	0.079
Mof_C 	C 	0.2225	-6.66138e-34	0.107	0.031
Mof_H 	H 	0.1935	0	0.1432	0.016
Mof_C 	C 	0.223	0	0.002	-0.104
Mof_H 	H 	0.1923	-5.3291e-33	0.9704	0.063
Mof_S 	S 	0.38968	0	0.7848	-0.179
Mof_C 	C 	0.3904	2.66455e-33	0.6494	0.156
Mof_C 	C 	0.4317	-2.66455e-33	0.5951	-0.22
Mof_H 	H 	0.4615	-2.66455e-33	0.6302	0.098
Mof_C 	C 	0.4338	-2.66455e-33	0.4935	0.141
Mof_H 	H 	0.4634	0	0.4589	-0.023
Mof_C 	C 	0.3893	0	0.446	-0.207
Mof_H 	H 	0.3893	0	0.3761	0.101
Mof_C 	C 	0.3455	0	0.4915	0.135
Mof_H 	H 	0.3157	0	0.4565	-0.022
Mof_C 	C 	0.3487	-2.66455e-33	0.5947	-0.21
Mof_H 	H 	0.3193	-2.66455e-33	0.6297	0.104
_end
