data_functionalizedCrystal
_audit_creation_method	'EQeq! by Chris Wilmer'
_symmetry_space_group_name_H-M	'P1'
_symmetry_Int_Tables_number	1
_symmetry_cell_setting	triclinic
loop_
_symmetry_equiv_pos_as_xyz
  x,y,z
_cell_length_a	26.655
_cell_length_b	26.655
_cell_length_c	32.281
_cell_angle_alpha	65.6155
_cell_angle_beta	65.6155
_cell_angle_gamma	60
loop_
_atom_site_label
_atom_site_type_symbol
_atom_site_fract_x
_atom_site_fract_y
_atom_site_fract_z
_atom_site_charge
Mof_Zn	Zn	0.32536	0.56203	0.23388	1.225
Mof_Zn	Zn	0.56203	0.87873	0.23388	1.225
Mof_Zn	Zn	0.25	0.71527	0.25	1.189
Mof_Zn	Zn	0.85297	0.72475	0.59948	1.207
Mof_Zn	Zn	0.06203	0.82536	0.73388	1.226
Mof_Zn	Zn	0.37846	0.25537	0.76648	1.219
Mof_Zn	Zn	0.83162	0.83162	0.50514	1.215
Mof_Zn	Zn	0.09969	0.75537	0.26648	1.219
Mof_Zn	Zn	0.37873	0.06203	0.73388	1.226
Mof_Zn	Zn	0.59969	0.37846	0.76648	1.219
Mof_Zn	Zn	0.62154	0.74463	0.23352	1.219
Mof_Zn	Zn	0.90031	0.24463	0.73352	1.219
Mof_Zn	Zn	0.87873	0.32536	0.23388	1.226
Mof_Zn	Zn	0.8228	0.85297	0.59948	1.208
Mof_Zn	Zn	0.93797	0.17464	0.26612	1.226
Mof_Zn	Zn	0.66838	0.66838	0.99486	1.215
Mof_Zn	Zn	0.40031	0.62154	0.23352	1.219
Mof_Zn	Zn	0.82536	0.37873	0.73388	1.226
Mof_Zn	Zn	0.28473	0.21527	0.75	1.19
Mof_Zn	Zn	0.72475	0.8228	0.59948	1.208
Mof_Zn	Zn	0.25537	0.59969	0.76648	1.219
Mof_Zn	Zn	0.78473	0.25	0.25	1.19
Mof_Zn	Zn	0.6772	0.77525	0.90052	1.208
Mof_Zn	Zn	0.75537	0.87846	0.26648	1.219
Mof_Zn	Zn	0.22475	0.35297	0.09948	1.208
Mof_Zn	Zn	0.14703	0.27525	0.40052	1.208
Mof_Zn	Zn	0.77525	0.64703	0.90052	1.208
Mof_Zn	Zn	0.62127	0.93797	0.26612	1.226
Mof_Zn	Zn	0.64703	0.6772	0.90052	1.208
Mof_Zn	Zn	0.35297	0.3228	0.09948	1.208
Mof_Zn	Zn	0.17464	0.62127	0.26612	1.226
Mof_Zn	Zn	0.75	0.28473	0.75	1.19
Mof_Zn	Zn	0.67464	0.43797	0.76612	1.226
Mof_Zn	Zn	0.12127	0.67464	0.76612	1.226
Mof_Zn	Zn	0.12154	0.90031	0.73352	1.219
Mof_Zn	Zn	0.16838	0.16838	0.49486	1.215
Mof_Zn	Zn	0.24463	0.12154	0.73352	1.219
Mof_Zn	Zn	0.21527	0.75	0.75	1.19
Mof_Zn	Zn	0.3228	0.22475	0.09948	1.208
Mof_Zn	Zn	0.87846	0.09969	0.26648	1.219
Mof_Zn	Zn	0.33162	0.33162	0.00514	1.215
Mof_Zn	Zn	0.1772	0.14703	0.40052	1.208
Mof_Zn	Zn	0.27525	0.1772	0.40052	1.208
Mof_Zn	Zn	0.43797	0.12127	0.76612	1.226
Mof_Zn	Zn	0.74463	0.40031	0.23352	1.219
Mof_Zn	Zn	0.71527	0.78473	0.25	1.19
Mof_H 	H 	0.2638	0.9326	0.0039	0.122
Mof_H 	H 	0.978	0.3703	0.9469	0.145
Mof_H 	H 	0.0763	0.895	0.5903	0.078
Mof_H 	H 	0.4355	0.3847	0.2967	0.081
Mof_H 	H 	0.1788	0.3909	0.7081	0.075
Mof_H 	H 	0.4464	0.8297	0.5204	-0.039
Mof_H 	H 	0.0536	0.2965	0.9796	-0.039
Mof_H 	H 	0.5786	0.0592	0.4304	0.132
Mof_H 	H 	0.1791	0.251	0.5675	0.122
Mof_H 	H 	0.749	0.9976	0.4325	0.121
Mof_H 	H 	0.0973	0.4796	0.0285	0.072
Mof_H 	H 	0.7814	0.722	0.9895	-0.04
Mof_H 	H 	0.0069	0.2673	0.5864	0.047
Mof_H 	H 	0.6394	0.7673	0.0864	0.047
Mof_H 	H 	0.2144	0.9823	0.3657	0.115
Mof_H 	H 	0.395	0.5763	0.0903	0.077
Mof_H 	H 	0.864	0.3192	0.3527	0.077
Mof_H 	H 	0.9237	0.105	0.4097	0.078
Mof_H 	H 	0.6869	0.4803	0.9493	0.129
Mof_H 	H 	0.5204	0.6054	0.9715	0.073
Mof_H 	H 	0.5402	0.5346	0.8354	0.005
Mof_H 	H 	0.7965	0.5536	0.4796	-0.039
Mof_H 	H 	0.5197	0.1165	0.0507	0.129
Mof_H 	H 	0.473	0.793	0.8998	0.076
Mof_H 	H 	0.278	0.4929	0.0105	-0.038
Mof_H 	H 	0.778	0.7186	0.5105	-0.037
Mof_H 	H 	0.0616	0.605	0.9097	0.078
Mof_H 	H 	0.5898	0.0346	0.3354	0.005
Mof_H 	H 	0.4027	0.1054	0.4715	0.073
Mof_H 	H 	0.9823	0.4376	0.3657	0.116
Mof_H 	H 	0.0346	0.0402	0.3354	0.006
Mof_H 	H 	0.9796	0.5973	0.5285	0.073
Mof_H 	H 	0.6791	0.5024	0.0675	0.123
Mof_H 	H 	0.1646	0.9988	0.0135	-0.029
Mof_H 	H 	0.0682	0.4214	0.5696	0.132
Mof_H 	H 	0.2003	0.7362	0.9961	0.124
Mof_H 	H 	0.1169	0.5645	0.7033	0.081
Mof_H 	H 	0.751	0.6791	0.0675	0.124
Mof_H 	H 	0.0674	0.2003	0.9961	0.124
Mof_H 	H 	0.9929	0.778	0.5105	-0.037
Mof_H 	H 	0.6054	0.9027	0.9715	0.072
Mof_H 	H 	0.9352	0.5825	0.613	-0.005
Mof_H 	H 	0.1124	0.4557	0.8144	0.11
Mof_H 	H 	0.5069	0.6394	0.0864	0.047
Mof_H 	H 	0.5359	0.136	0.6473	0.077
Mof_H 	H 	0.251	0.0024	0.5675	0.121
Mof_H 	H 	0.2339	0.9569	0.7538	0.048
Mof_H 	H 	0.5554	0.4569	0.2538	0.048
Mof_H 	H 	0.9292	0.2537	0.9457	0.126
Mof_H 	H 	0.8693	0.9352	0.613	-0.004
Mof_H 	H 	0.5024	0.751	0.0675	0.124
Mof_H 	H 	0.5443	0.3825	0.1856	0.111
Mof_H 	H 	0.7952	0.1297	0.5531	0.145
Mof_H 	H 	0.3831	0.8847	0.7967	0.081
Mof_H 	H 	0.1869	0.3835	0.4493	0.128
Mof_H 	H 	0.8946	0.9796	0.5285	0.073
Mof_H 	H 	0.2362	0.7003	0.4961	0.124
Mof_H 	H 	0.6169	0.1153	0.2033	0.081
Mof_H 	H 	0.3946	0.0973	0.0285	0.072
Mof_H 	H 	0.9598	0.4102	0.6646	0.005
Mof_H 	H 	0.4641	0.864	0.3527	0.077
Mof_H 	H 	0.0825	0.4352	0.113	-0.004
Mof_H 	H 	0.2965	0.6703	0.9796	-0.039
Mof_H 	H 	0.8847	0.9355	0.7967	0.081
Mof_H 	H 	0.7339	0.5554	0.2538	0.048
Mof_H 	H 	0.9557	0.6124	0.3144	0.11
Mof_H 	H 	0.8199	0.6018	0.1068	-0.027
Mof_H 	H 	0.4557	0.6175	0.8144	0.111
Mof_H 	H 	0.0443	0.3876	0.6856	0.11
Mof_H 	H 	0.5708	0.6286	0.5543	0.127
Mof_H 	H 	0.3835	0.9803	0.4493	0.128
Mof_H 	H 	0.5177	0.2856	0.1343	0.116
Mof_H 	H 	0.0786	0.4318	0.9304	0.134
Mof_H 	H 	0.5285	0.1801	0.8932	-0.026
Mof_H 	H 	0.7003	0.5674	0.4961	0.124
Mof_H 	H 	0.9027	0.5204	0.9715	0.072
Mof_H 	H 	0.3825	0.8876	0.1856	0.11
Mof_H 	H 	0.2035	0.4464	0.5204	-0.039
Mof_H 	H 	0.9591	0.9066	0.6283	0.104
Mof_H 	H 	0.0624	0.5177	0.1343	0.115
Mof_H 	H 	0.9976	0.8209	0.4325	0.121
Mof_H 	H 	0.8192	0.364	0.8527	0.077
Mof_H 	H 	0.8909	0.6788	0.2081	0.075
Mof_H 	H 	0.3714	0.7537	0.4457	0.127
Mof_H 	H 	0.5071	0.7814	0.9895	-0.039
Mof_H 	H 	0.0177	0.5624	0.6343	0.116
Mof_H 	H 	0.605	0.4237	0.9097	0.077
Mof_H 	H 	0.4326	0.7638	0.5039	0.124
Mof_H 	H 	0.5396	0.9203	0.8296	0.06
Mof_H 	H 	0.4803	0.8835	0.9493	0.129
Mof_H 	H 	0.6658	0.707	0.6002	0.076
Mof_H 	H 	0.8982	0.6801	0.3932	-0.025
Mof_H 	H 	0.5973	0.8946	0.5285	0.073
Mof_H 	H 	0.8342	0.473	0.8998	0.076
Mof_H 	H 	0.4318	0.5592	0.9304	0.133
Mof_H 	H 	0.973	0.3342	0.3998	0.076
Mof_H 	H 	0.3131	0.5197	0.0507	0.129
Mof_H 	H 	0.8297	0.2035	0.5204	-0.039
Mof_H 	H 	0.3909	0.7222	0.7081	0.075
Mof_H 	H 	0.6788	0.2222	0.2081	0.075
Mof_H 	H 	0.5346	0.0898	0.8354	0.005
Mof_H 	H 	0.249	0.3209	0.9325	0.124
Mof_H 	H 	0.3693	0.0825	0.113	-0.004
Mof_H 	H 	0.7048	0.978	0.9469	0.144
Mof_H 	H 	0.636	0.0359	0.1473	0.077
Mof_H 	H 	0.0285	0.8982	0.3932	-0.025
Mof_H 	H 	0.5536	0.1703	0.4796	-0.039
Mof_H 	H 	0.5645	0.6153	0.7033	0.081
Mof_H 	H 	0.222	0.2814	0.4895	-0.037
Mof_H 	H 	0.8714	0.9292	0.9457	0.125
Mof_H 	H 	0.0934	0.494	0.3717	0.105
Mof_H 	H 	0.3297	0.9464	0.0204	-0.037
Mof_H 	H 	0.4384	0.0763	0.5903	0.077
Mof_H 	H 	0.4976	0.249	0.9325	0.124
Mof_H 	H 	0.9446	0.7661	0.2462	0.048
Mof_H 	H 	0.0402	0.5898	0.3354	0.005
Mof_H 	H 	0.4175	0.1307	0.387	-0.005
Mof_H 	H 	0.9355	0.3831	0.7967	0.081
Mof_H 	H 	0.4715	0.8199	0.1068	-0.026
Mof_H 	H 	0.0797	0.2895	0.1704	0.06
Mof_H 	H 	0.0012	0.1769	0.9865	-0.032
Mof_H 	H 	0.3606	0.2327	0.9136	0.047
Mof_H 	H 	0.2997	0.4326	0.5039	0.124
Mof_H 	H 	0.527	0.207	0.1002	0.076
Mof_H 	H 	0.9654	0.9598	0.6646	0.006
Mof_H 	H 	0.3212	0.7778	0.7919	0.075
Mof_H 	H 	0.7778	0.1091	0.7919	0.075
Mof_H 	H 	0.994	0.5934	0.8717	0.104
Mof_H 	H 	0.7105	0.5396	0.8296	0.06
Mof_H 	H 	0.8209	0.749	0.4325	0.122
Mof_H 	H 	0.6286	0.2463	0.5543	0.127
Mof_H 	H 	0.4376	0.2144	0.3657	0.116
Mof_H 	H 	0.0898	0.5402	0.8354	0.006
Mof_H 	H 	0.9604	0.7895	0.6704	0.06
Mof_H 	H 	0.9988	0.8231	0.0135	-0.032
Mof_H 	H 	0.7537	0.4292	0.4457	0.127
Mof_H 	H 	0.5012	0.3354	0.4865	-0.032
Mof_H 	H 	0.5682	0.4408	0.0696	0.133
Mof_H 	H 	0.3209	0.4976	0.9325	0.123
Mof_H 	H 	0.1801	0.3982	0.8932	-0.027
Mof_H 	H 	0.022	0.6297	0.0531	0.145
Mof_H 	H 	0.9214	0.5682	0.0696	0.134
Mof_H 	H 	0.8212	0.6091	0.2919	0.075
Mof_H 	H 	0.1658	0.527	0.1002	0.076
Mof_H 	H 	0.9384	0.395	0.0903	0.078
Mof_H 	H 	0.4237	0.0616	0.9097	0.077
Mof_H 	H 	0.522	0.7952	0.5531	0.145
Mof_H 	H 	0.1165	0.3131	0.0507	0.13
Mof_H 	H 	0.4214	0.9408	0.5696	0.132
Mof_H 	H 	0.5409	0.994	0.8717	0.104
Mof_H 	H 	0.4203	0.0396	0.3296	0.06
Mof_H 	H 	0.1153	0.0645	0.2033	0.081
Mof_H 	H 	0.2856	0.0624	0.1343	0.116
Mof_H 	H 	0.9641	0.8192	0.8527	0.077
Mof_H 	H 	0.8703	0.478	0.4469	0.145
Mof_H 	H 	0.4102	0.9654	0.6646	0.005
Mof_H 	H 	0.2222	0.8909	0.2081	0.075
Mof_H 	H 	0.9203	0.7105	0.8296	0.06
Mof_H 	H 	0.8831	0.4355	0.2967	0.081
Mof_H 	H 	0.1054	0.0204	0.4715	0.073
Mof_H 	H 	0.0024	0.1791	0.5675	0.121
Mof_H 	H 	0.793	0.8342	0.8998	0.076
Mof_H 	H 	0.6165	0.0197	0.5507	0.128
Mof_H 	H 	0.5592	0.0786	0.9304	0.134
Mof_H 	H 	0.2327	0.4931	0.9136	0.047
Mof_H 	H 	0.4408	0.9214	0.0696	0.134
Mof_H 	H 	0.8354	0.0012	0.9865	-0.029
Mof_H 	H 	0.3342	0.293	0.3998	0.076
Mof_H 	H 	0.3876	0.8825	0.6856	0.11
Mof_H 	H 	0.7222	0.1788	0.7081	0.075
Mof_H 	H 	0.4796	0.3946	0.0285	0.073
Mof_H 	H 	0.4066	0.4591	0.1283	0.105
Mof_H 	H 	0.364	0.9641	0.8527	0.077
Mof_H 	H 	0.7327	0.8606	0.4136	0.047
Mof_H 	H 	0.4446	0.5431	0.7462	0.048
Mof_H 	H 	0.4598	0.4654	0.1646	0.005
Mof_H 	H 	0.1175	0.9557	0.3144	0.11
Mof_H 	H 	0.2105	0.4203	0.3296	0.06
Mof_H 	H 	0.5763	0.9384	0.0903	0.077
Mof_H 	H 	0.9326	0.7997	0.0039	0.124
Mof_H 	H 	0.9464	0.7035	0.0204	-0.039
Mof_H 	H 	0.4604	0.0797	0.1704	0.06
Mof_H 	H 	0.2537	0.8714	0.9457	0.127
Mof_H 	H 	0.6769	0.5012	0.4865	-0.032
Mof_H 	H 	0.9318	0.5786	0.4304	0.132
Mof_H 	H 	0.2186	0.278	0.0105	-0.04
Mof_H 	H 	0.9102	0.4598	0.1646	0.006
Mof_H 	H 	0.4591	0.006	0.1283	0.104
Mof_H 	H 	0.4929	0.2186	0.0105	-0.039
Mof_H 	H 	0.9931	0.7327	0.4136	0.047
Mof_H 	H 	0.4931	0.3606	0.9136	0.047
Mof_H 	H 	0.8876	0.5443	0.1856	0.11
Mof_H 	H 	0.027	0.6658	0.6002	0.076
Mof_H 	H 	0.7186	0.9929	0.5105	-0.037
Mof_H 	H 	0.0645	0.6169	0.2033	0.081
Mof_H 	H 	0.3703	0.7048	0.9469	0.145
Mof_H 	H 	0.2048	0.8703	0.4469	0.145
Mof_H 	H 	0.4352	0.3693	0.113	-0.005
Mof_H 	H 	0.0359	0.1808	0.1473	0.077
Mof_H 	H 	0.6153	0.1169	0.7033	0.081
Mof_H 	H 	0.0197	0.8131	0.5507	0.128
Mof_H 	H 	0.5624	0.7856	0.6343	0.116
Mof_H 	H 	0.8606	0.9931	0.4136	0.046
Mof_H 	H 	0.6646	0.3231	0.5135	-0.032
Mof_H 	H 	0.478	0.2048	0.4469	0.145
Mof_H 	H 	0.2778	0.8212	0.2919	0.075
Mof_H 	H 	0.2673	0.1394	0.5864	0.047
Mof_H 	H 	0.6808	0.5359	0.6473	0.077
Mof_H 	H 	0.1769	0.8354	0.9865	-0.032
Mof_H 	H 	0.3354	0.6769	0.4865	-0.032
Mof_H 	H 	0.722	0.5071	0.9895	-0.038
Mof_H 	H 	0.7895	0.5797	0.6704	0.06
Mof_H 	H 	0.3231	0.4988	0.5135	-0.032
Mof_H 	H 	0.3847	0.8831	0.2967	0.081
Mof_H 	H 	0.0648	0.4175	0.387	-0.005
Mof_H 	H 	0.006	0.4066	0.1283	0.104
Mof_H 	H 	0.5934	0.5409	0.8717	0.105
Mof_H 	H 	0.5431	0.2661	0.7462	0.048
Mof_H 	H 	0.1091	0.3212	0.7919	0.075
Mof_H 	H 	0.506	0.9591	0.6283	0.105
Mof_H 	H 	0.2952	0.022	0.0531	0.144
Mof_H 	H 	0.4654	0.9102	0.1646	0.005
Mof_H 	H 	0.3192	0.4641	0.3527	0.077
Mof_H 	H 	0.105	0.5616	0.4097	0.077
Mof_H 	H 	0.0071	0.222	0.4895	-0.037
Mof_H 	H 	0.0554	0.2339	0.7538	0.048
Mof_H 	H 	0.7997	0.2638	0.0039	0.124
Mof_H 	H 	0.7673	0.5069	0.0864	0.047
Mof_H 	H 	0.9408	0.0682	0.5696	0.132
Mof_H 	H 	0.895	0.4384	0.5903	0.077
Mof_H 	H 	0.707	0.027	0.6002	0.076
Mof_H 	H 	0.9175	0.5648	0.887	-0.004
Mof_H 	H 	0.1307	0.0648	0.387	-0.004
Mof_H 	H 	0.1286	0.0708	0.0543	0.125
Mof_H 	H 	0.7035	0.3297	0.0204	-0.039
Mof_H 	H 	0.6124	0.1175	0.3144	0.11
Mof_H 	H 	0.7144	0.9376	0.8657	0.116
Mof_H 	H 	0.4988	0.6646	0.5135	-0.032
Mof_H 	H 	0.7638	0.2997	0.5039	0.124
Mof_H 	H 	0.3982	0.5285	0.8932	-0.026
Mof_H 	H 	0.6297	0.2952	0.0531	0.145
Mof_H 	H 	0.7463	0.1286	0.0543	0.127
Mof_H 	H 	0.1297	0.522	0.5531	0.145
Mof_H 	H 	0.4823	0.7144	0.8657	0.116
Mof_H 	H 	0.1018	0.3199	0.6068	-0.025
Mof_H 	H 	0.8825	0.0443	0.6856	0.11
Mof_H 	H 	0.6175	0.1124	0.8144	0.11
Mof_H 	H 	0.7661	0.0431	0.2462	0.048
Mof_H 	H 	0.3199	0.9715	0.6068	-0.025
Mof_H 	H 	0.7856	0.0177	0.6343	0.115
Mof_H 	H 	0.6801	0.0285	0.3932	-0.025
Mof_H 	H 	0.5648	0.6307	0.887	-0.005
Mof_H 	H 	0.494	0.0409	0.3717	0.105
Mof_H 	H 	0.207	0.1658	0.1002	0.076
Mof_H 	H 	0.5616	0.9237	0.4097	0.077
Mof_H 	H 	0.0409	0.0934	0.3717	0.104
Mof_H 	H 	0.2463	0.5708	0.5543	0.127
Mof_H 	H 	0.9803	0.1869	0.4493	0.128
Mof_H 	H 	0.0396	0.2105	0.3296	0.06
Mof_H 	H 	0.0592	0.9318	0.4304	0.132
Mof_H 	H 	0.2814	0.0071	0.4895	-0.037
Mof_H 	H 	0.6091	0.2778	0.2919	0.075
Mof_H 	H 	0.6018	0.4715	0.1068	-0.026
Mof_H 	H 	0.2661	0.4446	0.7462	0.048
Mof_H 	H 	0.4292	0.3714	0.4457	0.127
Mof_H 	H 	0.9376	0.4823	0.8657	0.115
Mof_H 	H 	0.293	0.973	0.3998	0.076
Mof_H 	H 	0.5825	0.8693	0.613	-0.005
Mof_H 	H 	0.9569	0.0554	0.7538	0.048
Mof_H 	H 	0.6703	0.0536	0.9796	-0.037
Mof_H 	H 	0.2895	0.4604	0.1704	0.06
Mof_H 	H 	0.5797	0.9604	0.6704	0.06
Mof_H 	H 	0.4569	0.7339	0.2538	0.048
Mof_H 	H 	0.9066	0.506	0.6283	0.105
Mof_H 	H 	0.1703	0.7965	0.4796	-0.039
Mof_H 	H 	0.7362	0.0674	0.9961	0.122
Mof_H 	H 	0.136	0.6808	0.6473	0.077
Mof_H 	H 	0.0431	0.9446	0.2462	0.048
Mof_H 	H 	0.5674	0.2362	0.4961	0.124
Mof_H 	H 	0.8835	0.6869	0.9493	0.13
Mof_H 	H 	0.8231	0.1646	0.0135	-0.032
Mof_H 	H 	0.0708	0.7463	0.0543	0.126
Mof_H 	H 	0.9715	0.1018	0.6068	-0.025
Mof_H 	H 	0.6307	0.9175	0.887	-0.004
Mof_H 	H 	0.8131	0.6165	0.5507	0.128
Mof_H 	H 	0.1394	0.0069	0.5864	0.046
Mof_H 	H 	0.1808	0.636	0.1473	0.077
Mof_H 	H 	0.0204	0.4027	0.4715	0.073
Mof_C 	C 	0.01456	0.73371	0.80827	0.314
Mof_C 	C 	0.40183	0.93553	0.85591	-0.078
Mof_C 	C 	0.62831	0.95661	0.87197	0.102
Mof_C 	C 	0.62631	0.80821	0.07167	0.014
Mof_C 	C 	0.5697	0.19233	0.72592	-0.078
Mof_C 	C 	0.68216	0.18399	0.2126	-0.056
Mof_C 	C 	0.57875	0.31601	0.2874	-0.056
Mof_C 	C 	0.80767	0.48795	0.27408	-0.078
Mof_C 	C 	0.32485	0.97335	0.16445	0.175
Mof_C 	C 	0.05928	0.52858	0.84146	0.102
Mof_C 	C 	0.59817	0.06447	0.14409	-0.078
Mof_C 	C 	0.7873	0.529	0.4727	0.219
Mof_C 	C 	0.31784	0.81601	0.7874	-0.056
Mof_C 	C 	0.07293	0.47823	0.82811	-0.192
Mof_C 	C 	0.80515	0.4394	0.26325	0.388
Mof_C 	C 	0.30954	0.99424	0.50558	0.164
Mof_C 	C 	0.02183	0.32843	0.52511	-0.08
Mof_C 	C 	0.23861	0.54931	0.16407	-0.052
Mof_C 	C 	0.5359	0.2499	0.4832	-0.267
Mof_C 	C 	0.31538	0.33308	0.38456	-0.071
Mof_C 	C 	0.03175	0.50595	0.14105	-0.195
Mof_C 	C 	0.0848	0.6713	0.3527	0.374
Mof_C 	C 	0.28542	0.14182	0.49814	0.392
Mof_C 	C 	0.41071	0.08911	0.57377	-0.064
Mof_C 	C 	0.34392	0.64242	0.74104	0.404
Mof_C 	C 	0.57462	0.64182	0.99814	0.391
Mof_C 	C 	0.5025	0.0743	0.363	-0.17
Mof_C 	C 	0.52183	0.62463	0.02511	-0.079
Mof_C 	C 	0.04801	0.23861	0.16407	-0.053
Mof_C 	C 	0.8912	0.0848	0.3527	0.374
Mof_C 	C 	0.98795	0.30767	0.77408	-0.078
Mof_C 	C 	0.27262	0.34392	0.74104	0.404
Mof_C 	C 	0.73449	0.07662	0.23546	0.017
Mof_C 	C 	0.49381	0.62631	0.07167	0.014
Mof_C 	C 	0.83458	0.70848	0.44846	-0.244
Mof_C 	C 	0.40123	0.54523	0.94711	-0.249
Mof_C 	C 	0.82291	0.02012	0.79697	0.09
Mof_C 	C 	0.26629	0.55654	0.19173	0.313
Mof_C 	C 	0.67515	0.02665	0.83555	0.175
Mof_C 	C 	0.55654	0.98544	0.19173	0.313
Mof_C 	C 	0.45343	0.57662	0.73546	0.017
Mof_C 	C 	0.87561	0.58851	0.49427	0.214
Mof_C 	C 	0.94346	0.23371	0.30827	0.313
Mof_C 	C 	0.08851	0.37561	0.99427	0.219
Mof_C 	C 	0.88006	0.97472	0.79031	-0.061
Mof_C 	C 	0.0697	0.01205	0.22592	-0.079
Mof_C 	C 	0.78542	0.57462	0.99814	0.391
Mof_C 	C 	0.76992	0.51452	0.86584	-0.063
Mof_C 	C 	0.95069	0.26139	0.33593	-0.051
Mof_C 	C 	0.31601	0.81784	0.2874	-0.056
Mof_C 	C 	0.97988	0.64	0.20303	0.089
Mof_C 	C 	0.15608	0.22738	0.75896	0.404
Mof_C 	C 	0.88913	0.50173	0.00291	-0.056
Mof_C 	C 	0.0602	0.5025	0.363	-0.169
Mof_C 	C 	0.17875	0.99405	0.35895	-0.193
Mof_C 	C 	0.54161	0.08851	0.99427	0.217
Mof_C 	C 	0.12073	0.97823	0.32811	-0.19
Mof_C 	C 	0.26551	0.92338	0.76454	0.017
Mof_C 	C 	0.80954	0.69064	0.00558	0.172
Mof_C 	C 	0.9303	0.98795	0.77408	-0.079
Mof_C 	C 	0.71458	0.85818	0.50186	0.392
Mof_C 	C 	0.18216	0.42125	0.7126	-0.056
Mof_C 	C 	0.20882	0.04832	0.06264	0.232
Mof_C 	C 	0.96698	0.31538	0.38456	-0.07
Mof_C 	C 	0.99405	0.46825	0.35895	-0.196
Mof_C 	C 	0.0606	0.69485	0.23675	0.388
Mof_C 	C 	0.83056	0.48536	0.45182	-0.291
Mof_C 	C 	0.6088	0.8287	0.1473	0.374
Mof_C 	C 	0.9394	0.30515	0.76325	0.388
Mof_C 	C 	0.47142	0.42932	0.15854	0.104
Mof_C 	C 	0.21458	0.42538	0.00186	0.391
Mof_C 	C 	0.22941	0.40803	0.7288	-0.089
Mof_C 	C 	0.50576	0.19046	0.99442	0.169
Mof_C 	C 	0.22738	0.85758	0.75896	0.404
Mof_C 	C 	0.65608	0.35758	0.25896	0.404
Mof_C 	C 	0.971	0.7127	0.0273	0.219
Mof_C 	C 	0.55928	0.07068	0.34146	0.104
Mof_C 	C 	0.11994	0.02528	0.20969	-0.061
Mof_C 	C 	0.58892	0.93002	0.02754	0.086
Mof_C 	C 	0.87613	0.83333	0.88081	0.095
Mof_C 	C 	0.02528	0.64509	0.20969	-0.06
Mof_C 	C 	0.40973	0.87613	0.88081	0.095
Mof_C 	C 	0.66709	0.02749	0.42503	0.167
Mof_C 	C 	0.57359	0.41089	0.92623	-0.064
Mof_C 	C 	0.9398	0.4975	0.637	-0.169
Mof_C 	C 	0.4922	0.80515	0.26325	0.388
Mof_C 	C 	0.92125	0.68216	0.2126	-0.056
Mof_C 	C 	0.2418	0.4094	0.3416	-0.007
Mof_C 	C 	0.0359	0.231	0.9832	-0.266
Mof_C 	C 	0.0072	0.2418	0.3416	-0.008
Mof_C 	C 	0.17709	0.97988	0.20303	0.09
Mof_C 	C 	0.7499	0.0359	0.9832	-0.26
Mof_C 	C 	0.11961	0.33291	0.57497	0.167
Mof_C 	C 	0.07875	0.31784	0.7874	-0.056
Mof_C 	C 	0.09197	0.27059	0.7712	-0.089
Mof_C 	C 	0.59027	0.12387	0.11919	0.095
Mof_C 	C 	0.29118	0.81978	0.43736	0.235
Mof_C 	C 	0.30984	0.71604	0.47588	0.171
Mof_C 	C 	0.10643	0.40123	0.94711	-0.252
Mof_C 	C 	0.95199	0.76139	0.83593	-0.053
Mof_C 	C 	0.35818	0.21458	0.00186	0.391
Mof_C 	C 	0.99827	0.61087	0.49709	-0.057
Mof_C 	C 	0.39377	0.11087	0.99709	-0.055
Mof_C 	C 	0.67157	0.87537	0.47489	-0.079
Mof_C 	C 	0.76551	0.54657	0.26454	0.017
Mof_C 	C 	0.54493	0.66893	0.54821	-0.252
Mof_C 	C 	0.11087	0.49827	0.99709	-0.056
Mof_C 	C 	0.45168	0.29118	0.43736	0.235
Mof_C 	C 	0.54311	0.62831	0.87197	0.104
Mof_C 	C 	0.96265	0.52665	0.33555	0.175
Mof_C 	C 	0.66692	0.03302	0.61544	-0.07
Mof_C 	C 	0.93002	0.45352	0.02754	0.086
Mof_C 	C 	0.84972	0.76992	0.86584	-0.063
Mof_C 	C 	0.72941	0.13376	0.2288	-0.089
Mof_C 	C 	0.51452	0.84972	0.86584	-0.063
Mof_C 	C 	0.09027	0.66667	0.61919	0.095
Mof_C 	C 	0.85491	0.47472	0.29031	-0.06
Mof_C 	C 	0.66667	0.62387	0.61919	0.095
Mof_C 	C 	0.04648	0.56998	0.47246	0.086
Mof_C 	C 	0.39171	0.15031	0.90367	-0.074
Mof_C 	C 	0.81538	0.46698	0.88456	-0.071
Mof_C 	C 	0.79118	0.95168	0.93736	0.232
Mof_C 	C 	0.45689	0.37169	0.12803	0.104
Mof_C 	C 	0.82485	0.03735	0.66445	0.173
Mof_C 	C 	0.05654	0.76629	0.69173	0.313
Mof_C 	C 	0.53735	0.32485	0.16445	0.175
Mof_C 	C 	0.54657	0.42338	0.26454	0.017
Mof_C 	C 	0.77262	0.14242	0.24104	0.404
Mof_C 	C 	0.08911	0.92641	0.57377	-0.064
Mof_C 	C 	0.06998	0.54648	0.97246	0.086
Mof_C 	C 	0.58851	0.04161	0.49427	0.214
Mof_C 	C 	0.52177	0.37927	0.17189	-0.193
Mof_C 	C 	0.0753	0.2486	0.3725	0.357
Mof_C 	C 	0.36624	0.77059	0.2712	-0.089
Mof_C 	C 	0.38006	0.85491	0.29031	-0.06
Mof_C 	C 	0.19485	0.5606	0.73675	0.388
Mof_C 	C 	0.57662	0.23449	0.73546	0.017
Mof_C 	C 	0.52858	0.57068	0.84146	0.104
Mof_C 	C 	0.58929	0.91089	0.42623	-0.064
Mof_C 	C 	0.16667	0.59027	0.11919	0.095
Mof_C 	C 	0.9779	0.1698	0.4814	-0.245
Mof_C 	C 	0.33308	0.96698	0.38456	-0.07
Mof_C 	C 	0.7486	0.5753	0.8725	0.357
Mof_C 	C 	0.02749	0.88039	0.42503	0.167
Mof_C 	C 	0.70882	0.18022	0.56264	0.235
Mof_C 	C 	0.56447	0.09817	0.64409	-0.079
Mof_C 	C 	0.84392	0.77262	0.24104	0.404
Mof_C 	C 	0.69064	0.49424	0.00558	0.166
Mof_C 	C 	0.2501	0.9641	0.0168	-0.26
Mof_C 	C 	0.5072	0.9094	0.8416	-0.007
Mof_C 	C 	0.90183	0.30673	0.35591	-0.079
Mof_C 	C 	0.29152	0.99152	0.55154	-0.244
Mof_C 	C 	0.33333	0.37613	0.38081	0.095
Mof_C 	C 	0.4152	0.6088	0.1473	0.374
Mof_C 	C 	0.01205	0.69233	0.22592	-0.078
Mof_C 	C 	0.80673	0.40183	0.85591	-0.078
Mof_C 	C 	0.48544	0.05654	0.69173	0.313
Mof_C 	C 	0.02012	0.36	0.79697	0.089
Mof_C 	C 	0.52749	0.16709	0.92503	0.171
Mof_C 	C 	0.99152	0.16542	0.55154	-0.244
Mof_C 	C 	0.89377	0.99827	0.49709	-0.057
Mof_C 	C 	0.89357	0.59877	0.05289	-0.252
Mof_C 	C 	0.66944	0.26774	0.04818	-0.291
Mof_C 	C 	0.16692	0.18462	0.11544	-0.07
Mof_C 	C 	0.289	0.971	0.0273	0.214
Mof_C 	C 	0.98544	0.26629	0.19173	0.314
Mof_C 	C 	0.95507	0.26207	0.95179	-0.252
Mof_C 	C 	0.16542	0.29152	0.55154	-0.244
Mof_C 	C 	0.97472	0.35491	0.79031	-0.06
Mof_C 	C 	0.48536	0.23226	0.45182	-0.291
Mof_C 	C 	0.37369	0.19179	0.92833	0.014
Mof_C 	C 	0.9094	0.7418	0.8416	-0.007
Mof_C 	C 	0.94569	0.34969	0.59633	-0.075
Mof_C 	C 	0.23793	0.54493	0.54821	-0.252
Mof_C 	C 	0.46265	0.67515	0.83555	0.175
Mof_C 	C 	0.81601	0.07875	0.7874	-0.056
Mof_C 	C 	0.46698	0.83308	0.88456	-0.07
Mof_C 	C 	0.44569	0.60829	0.09633	-0.074
Mof_C 	C 	0.54339	0.87169	0.62803	0.104
Mof_C 	C 	0.01452	0.26992	0.36584	-0.063
Mof_C 	C 	0.2873	0.711	0.9727	0.219
Mof_C 	C 	0.95477	0.09877	0.55289	-0.247
Mof_C 	C 	0.789	0.2127	0.5273	0.219
Mof_C 	C 	0.42125	0.68399	0.7126	-0.056
Mof_C 	C 	0.3036	0.0753	0.3725	0.357
Mof_C 	C 	0.43553	0.90183	0.35591	-0.079
Mof_C 	C 	0.8287	0.4152	0.1473	0.374
Mof_C 	C 	0.12631	0.99381	0.57167	0.016
Mof_C 	C 	0.66893	0.23793	0.54821	-0.252
Mof_C 	C 	0.731	0.5359	0.4832	-0.267
Mof_C 	C 	0.9257	0.9398	0.637	-0.167
Mof_C 	C 	0.98548	0.73008	0.63416	-0.063
Mof_C 	C 	0.26207	0.83107	0.95179	-0.252
Mof_C 	C 	0.95343	0.73449	0.23546	0.017
Mof_C 	C 	0.92932	0.97142	0.65854	0.1
Mof_C 	C 	0.87169	0.95689	0.62803	0.1
Mof_C 	C 	0.28396	0.50176	0.52412	0.171
Mof_C 	C 	0.62073	0.07293	0.82811	-0.192
Mof_C 	C 	0.04523	0.90123	0.44711	-0.247
Mof_C 	C 	0.83291	0.61961	0.07497	0.173
Mof_C 	C 	0.45477	0.89357	0.05289	-0.25
Mof_C 	C 	0.68022	0.20882	0.06264	0.235
Mof_C 	C 	0.05431	0.65031	0.40367	-0.075
Mof_C 	C 	0.17515	0.96265	0.33555	0.173
Mof_C 	C 	0.62463	0.82843	0.02511	-0.079
Mof_C 	C 	0.30936	0.50576	0.99442	0.166
Mof_C 	C 	0.96825	0.49405	0.85895	-0.195
Mof_C 	C 	0.66542	0.49152	0.05154	-0.247
Mof_C 	C 	0.04339	0.45689	0.12803	0.101
Mof_C 	C 	0.6713	0.8912	0.3527	0.374
Mof_C 	C 	0.99381	0.30821	0.57167	0.015
Mof_C 	C 	0.69327	0.56447	0.64409	-0.078
Mof_C 	C 	0.4303	0.80767	0.27408	-0.078
Mof_C 	C 	0.73861	0.54801	0.66407	-0.052
Mof_C 	C 	0.89171	0.05431	0.40367	-0.075
Mof_C 	C 	0.82843	0.52183	0.02511	-0.079
Mof_C 	C 	0.42707	0.87927	0.67189	-0.193
Mof_C 	C 	0.69046	0.00576	0.49442	0.164
Mof_C 	C 	0.1291	0.3302	0.0186	-0.252
Mof_C 	C 	0.529	0.211	0.4727	0.219
Mof_C 	C 	0.97335	0.53735	0.16445	0.174
Mof_C 	C 	0.37169	0.04339	0.12803	0.102
Mof_C 	C 	0.42641	0.58911	0.07377	-0.064
Mof_C 	C 	0.33458	0.50848	0.94846	-0.247
Mof_C 	C 	0.83308	0.81538	0.88456	-0.07
Mof_C 	C 	0.45507	0.33107	0.45179	-0.252
Mof_C 	C 	0.64182	0.78542	0.99814	0.391
Mof_C 	C 	0.5221	0.1291	0.0186	-0.25
Mof_C 	C 	0.34969	0.10829	0.59633	-0.074
Mof_C 	C 	0.68399	0.18216	0.7126	-0.056
Mof_C 	C 	0.42538	0.35818	0.00186	0.391
Mof_C 	C 	0.44072	0.92932	0.65854	0.104
Mof_C 	C 	0.16893	0.04493	0.04821	-0.247
Mof_C 	C 	0.69233	0.0697	0.22592	-0.078
Mof_C 	C 	0.38913	0.10623	0.50291	-0.057
Mof_C 	C 	0.39357	0.95477	0.55289	-0.247
Mof_C 	C 	0.95168	0.31978	0.93736	0.235
Mof_C 	C 	0.95352	0.43002	0.52754	0.086
Mof_C 	C 	0.3287	0.1088	0.6473	0.374
Mof_C 	C 	0.37927	0.92707	0.17189	-0.192
Mof_C 	C 	0.52665	0.17515	0.33555	0.175
Mof_C 	C 	0.07359	0.58929	0.42623	-0.063
Mof_C 	C 	0.2514	0.4247	0.1275	0.357
Mof_C 	C 	0.67875	0.96825	0.85895	-0.196
Mof_C 	C 	0.60829	0.84969	0.09633	-0.074
Mof_C 	C 	0.54832	0.70882	0.56264	0.235
Mof_C 	C 	0.65028	0.98548	0.63416	-0.063
Mof_C 	C 	0.211	0.7873	0.4727	0.219
Mof_C 	C 	0.95661	0.54311	0.87197	0.101
Mof_C 	C 	0.36	0.82291	0.79697	0.089
Mof_C 	C 	0.82125	0.00595	0.64105	-0.193
Mof_C 	C 	0.80936	0.69046	0.49442	0.163
Mof_C 	C 	0.9928	0.7582	0.6584	-0.008
Mof_C 	C 	0.19233	0.51205	0.72592	-0.078
Mof_C 	C 	0.13376	0.90803	0.2288	-0.089
Mof_C 	C 	0.34972	0.01452	0.36584	-0.063
Mof_C 	C 	0.80821	0.49381	0.07167	0.014
Mof_C 	C 	0.02665	0.46265	0.83555	0.174
Mof_C 	C 	0.18399	0.92125	0.2126	-0.056
Mof_C 	C 	0.49424	0.80954	0.00558	0.169
Mof_C 	C 	0.7514	0.6964	0.6275	0.357
Mof_C 	C 	0.48795	0.4303	0.27408	-0.078
Mof_C 	C 	0.3709	0.9779	0.4814	-0.245
Mof_C 	C 	0.1088	0.9152	0.6473	0.374
Mof_C 	C 	0.76207	0.45507	0.45179	-0.252
Mof_C 	C 	0.15028	0.23008	0.13416	-0.063
Mof_C 	C 	0.85818	0.92538	0.50186	0.392
Mof_C 	C 	0.64242	0.27262	0.74104	0.404
Mof_C 	C 	0.00576	0.80936	0.49442	0.164
Mof_C 	C 	0.59877	0.45477	0.05289	-0.249
Mof_C 	C 	0.90973	0.33333	0.38081	0.095
Mof_C 	C 	0.09877	0.39357	0.55289	-0.247
Mof_C 	C 	0.76139	0.45069	0.83593	-0.052
Mof_C 	C 	0.04931	0.73861	0.66407	-0.051
Mof_C 	C 	0.41089	0.08929	0.92623	-0.063
Mof_C 	C 	0.2486	0.3036	0.3725	0.357
Mof_C 	C 	0.00173	0.38913	0.50291	-0.057
Mof_C 	C 	0.35758	0.72738	0.25896	0.404
Mof_C 	C 	0.83107	0.95507	0.95179	-0.247
Mof_C 	C 	0.45352	0.58892	0.02754	0.086
Mof_C 	C 	0.04161	0.87561	0.49427	0.214
Mof_C 	C 	0.93553	0.80673	0.85591	-0.078
Mof_C 	C 	0.92641	0.41071	0.57377	-0.063
Mof_C 	C 	0.9152	0.3287	0.6473	0.374
Mof_C 	C 	0.32291	0.86	0.29697	0.089
Mof_C 	C 	0.19046	0.30936	0.99442	0.172
Mof_C 	C 	0.79152	0.66542	0.05154	-0.251
Mof_C 	C 	0.14242	0.84392	0.24104	0.404
Mof_C 	C 	0.7127	0.289	0.0273	0.219
Mof_C 	C 	0.18462	0.53302	0.11544	-0.071
Mof_C 	C 	0.65031	0.89171	0.40367	-0.074
Mof_C 	C 	0.19179	0.50619	0.92833	0.014
Mof_C 	C 	0.92338	0.04657	0.76454	0.018
Mof_C 	C 	0.01464	0.66944	0.04818	-0.291
Mof_C 	C 	0.7501	0.269	0.5168	-0.267
Mof_C 	C 	0.55431	0.39171	0.90367	-0.074
Mof_C 	C 	0.51456	0.94346	0.30827	0.313
Mof_C 	C 	0.76774	0.16944	0.54818	-0.291
Mof_C 	C 	0.26992	0.34972	0.36584	-0.063
Mof_C 	C 	0.59197	0.36624	0.2712	-0.089
Mof_C 	C 	0.41108	0.06998	0.97246	0.086
Mof_C 	C 	0.9247	0.7514	0.6275	0.357
Mof_C 	C 	0.95689	0.54339	0.62803	0.103
Mof_C 	C 	0.07662	0.95343	0.23546	0.018
Mof_C 	C 	0.33291	0.97251	0.57497	0.167
Mof_C 	C 	0.12463	0.02183	0.52511	-0.08
Mof_C 	C 	0.45069	0.95199	0.83593	-0.052
Mof_C 	C 	0.40803	0.63376	0.7288	-0.089
Mof_C 	C 	0.50173	0.60623	0.00291	-0.056
Mof_C 	C 	0.4247	0.1964	0.1275	0.357
Mof_C 	C 	0.54801	0.04931	0.66407	-0.052
Mof_C 	C 	0.07462	0.28542	0.49814	0.392
Mof_C 	C 	0.78396	0.19016	0.02412	0.171
Mof_C 	C 	0.23226	0.83056	0.45182	-0.291
Mof_C 	C 	0.50619	0.37369	0.92833	0.014
Mof_C 	C 	0.23371	0.51456	0.30827	0.313
Mof_C 	C 	0.3912	0.1713	0.8527	0.374
Mof_C 	C 	0.5906	0.9928	0.6584	-0.008
Mof_C 	C 	0.49405	0.67875	0.85895	-0.196
Mof_C 	C 	0.99824	0.21604	0.97588	0.17
Mof_C 	C 	0.23449	0.45343	0.73546	0.017
Mof_C 	C 	0.67709	0.14	0.70303	0.089
Mof_C 	C 	0.97142	0.44072	0.65854	0.104
Mof_C 	C 	0.87927	0.02177	0.67189	-0.19
Mof_C 	C 	0.63376	0.22941	0.7288	-0.089
Mof_C 	C 	0.81784	0.57875	0.2874	-0.056
Mof_C 	C 	0.07068	0.02858	0.34146	0.1
Mof_C 	C 	0.38039	0.52749	0.92503	0.169
Mof_C 	C 	0.53175	0.82125	0.64105	-0.196
Mof_C 	C 	0.45199	0.95069	0.33593	-0.052
Mof_C 	C 	0.94072	0.47142	0.15854	0.102
Mof_C 	C 	0.43002	0.08892	0.52754	0.086
Mof_C 	C 	0.91108	0.04648	0.47246	0.086
Mof_C 	C 	0.2127	0.471	0.5273	0.219
Mof_C 	C 	0.50848	0.20848	0.94846	-0.249
Mof_C 	C 	0.57068	0.05928	0.84146	0.102
Mof_C 	C 	0.0025	0.5602	0.863	-0.166
Mof_C 	C 	0.47817	0.37537	0.97489	-0.079
Mof_C 	C 	0.02858	0.55928	0.34146	0.104
Mof_C 	C 	0.21604	0.80984	0.97588	0.171
Mof_C 	C 	0.92538	0.71458	0.50186	0.392
Mof_C 	C 	0.5606	0.5078	0.73675	0.388
Mof_C 	C 	0.5602	0.5743	0.863	-0.17
Mof_C 	C 	0.1713	0.5848	0.8527	0.374
Mof_C 	C 	0.23008	0.48548	0.13416	-0.063
Mof_C 	C 	0.60623	0.88913	0.00291	-0.055
Mof_C 	C 	0.6964	0.9247	0.6275	0.357
Mof_C 	C 	0.81978	0.45168	0.43736	0.235
Mof_C 	C 	0.42932	0.94072	0.15854	0.102
Mof_C 	C 	0.69485	0.0078	0.23675	0.388
Mof_C 	C 	0.1698	0.3709	0.4814	-0.245
Mof_C 	C 	0.27059	0.86624	0.7712	-0.089
Mof_C 	C 	0.4641	0.7501	0.5168	-0.267
Mof_C 	C 	0.37537	0.17157	0.97489	-0.079
Mof_C 	C 	0.32125	0.03175	0.14105	-0.196
Mof_C 	C 	0.4779	0.8709	0.9814	-0.25
Mof_C 	C 	0.02177	0.42707	0.67189	-0.193
Mof_C 	C 	0.00176	0.78396	0.02412	0.17
Mof_C 	C 	0.56998	0.91108	0.47246	0.086
Mof_C 	C 	0.64509	0.11994	0.20969	-0.06
Mof_C 	C 	0.47988	0.67709	0.70303	0.089
Mof_C 	C 	0.0078	0.0606	0.23675	0.387
Mof_C 	C 	0.32843	0.12463	0.52511	-0.079
Mof_C 	C 	0.06447	0.19327	0.14409	-0.078
Mof_C 	C 	0.44346	0.01456	0.80827	0.313
Mof_C 	C 	0.73371	0.44346	0.80827	0.313
Mof_C 	C 	0.00619	0.69179	0.42833	0.015
Mof_C 	C 	0.231	0.7499	0.9832	-0.267
Mof_C 	C 	0.4398	0.4257	0.137	-0.17
Mof_C 	C 	0.6291	0.0221	0.5186	-0.245
Mof_C 	C 	0.51205	0.5697	0.72592	-0.078
Mof_C 	C 	0.5078	0.19485	0.73675	0.388
Mof_C 	C 	0.77059	0.59197	0.2712	-0.089
Mof_C 	C 	0.73793	0.16893	0.04821	-0.252
Mof_C 	C 	0.20848	0.33458	0.94846	-0.251
Mof_C 	C 	0.269	0.4641	0.5168	-0.267
Mof_C 	C 	0.86624	0.09197	0.7712	-0.089
Mof_C 	C 	0.00848	0.83458	0.44846	-0.244
Mof_C 	C 	0.83333	0.40973	0.88081	0.095
Mof_C 	C 	0.92707	0.52177	0.17189	-0.192
Mof_C 	C 	0.12831	0.04311	0.37197	0.1
Mof_C 	C 	0.3302	0.5221	0.0186	-0.247
Mof_C 	C 	0.47335	0.82485	0.66445	0.175
Mof_C 	C 	0.47472	0.38006	0.29031	-0.06
Mof_C 	C 	0.16944	0.51464	0.54818	-0.291
Mof_C 	C 	0.31978	0.79118	0.93736	0.235
Mof_C 	C 	0.86	0.52012	0.29697	0.089
Mof_C 	C 	0.19327	0.59817	0.14409	-0.078
Mof_C 	C 	0.91089	0.07359	0.42623	-0.064
Mof_C 	C 	0.90123	0.60643	0.44711	-0.247
Mof_C 	C 	0.4975	0.9257	0.637	-0.17
Mof_C 	C 	0.16709	0.38039	0.92503	0.173
Mof_C 	C 	0.49152	0.79152	0.05154	-0.249
Mof_C 	C 	0.30673	0.43553	0.35591	-0.078
Mof_C 	C 	0.47251	0.83291	0.07497	0.171
Mof_C 	C 	0.60643	0.04523	0.44711	-0.247
Mof_C 	C 	0.80984	0.99824	0.97588	0.162
Mof_C 	C 	0.84969	0.44569	0.09633	-0.074
Mof_C 	C 	0.52528	0.61994	0.70969	-0.06
Mof_C 	C 	0.71604	0.49824	0.47588	0.171
Mof_C 	C 	0.8036	0.7486	0.8725	0.357
Mof_C 	C 	0.04832	0.68022	0.06264	0.235
Mof_C 	C 	0.9975	0.4398	0.137	-0.166
Mof_C 	C 	0.2582	0.4928	0.1584	-0.007
Mof_C 	C 	0.97823	0.57293	0.32811	-0.193
Mof_C 	C 	0.72738	0.65608	0.25896	0.404
Mof_C 	C 	0.26139	0.45199	0.33593	-0.052
Mof_C 	C 	0.19064	0.30954	0.50558	0.163
Mof_C 	C 	0.61994	0.14509	0.70969	-0.06
Mof_C 	C 	0.30821	0.12631	0.57167	0.014
Mof_C 	C 	0.90803	0.72941	0.2288	-0.089
Mof_C 	C 	0.4257	0.9975	0.137	-0.167
Mof_C 	C 	0.54931	0.04801	0.16407	-0.052
Mof_C 	C 	0.10623	0.00173	0.50291	-0.057
Mof_C 	C 	0.14509	0.52528	0.70969	-0.06
Mof_C 	C 	0.5848	0.3912	0.8527	0.374
Mof_C 	C 	0.17157	0.47817	0.97489	-0.079
Mof_C 	C 	0.08929	0.57359	0.92623	-0.063
Mof_C 	C 	0.12387	0.16667	0.11919	0.095
Mof_C 	C 	0.4394	0.4922	0.26325	0.388
Mof_C 	C 	0.58911	0.91071	0.07377	-0.063
Mof_C 	C 	0.04311	0.45661	0.37197	0.103
Mof_C 	C 	0.35491	0.88006	0.79031	-0.06
Mof_C 	C 	0.95839	0.12439	0.50573	0.214
Mof_C 	C 	0.5743	0.0025	0.863	-0.167
Mof_C 	C 	0.19016	0.00176	0.02412	0.162
Mof_C 	C 	0.04657	0.26551	0.76454	0.017
Mof_C 	C 	0.76629	0.48544	0.69173	0.313
Mof_C 	C 	0.711	0.029	0.9727	0.214
Mof_C 	C 	0.73008	0.65028	0.63416	-0.063
Mof_C 	C 	0.97251	0.11961	0.57497	0.167
Mof_C 	C 	0.62387	0.09027	0.61919	0.095
Mof_C 	C 	0.26774	0.01464	0.04818	-0.288
Mof_C 	C 	0.42338	0.76551	0.26454	0.017
Mof_C 	C 	0.85758	0.15608	0.75896	0.404
Mof_C 	C 	0.03735	0.47335	0.66445	0.175
Mof_C 	C 	0.4094	0.0072	0.3416	-0.008
Mof_C 	C 	0.33056	0.73226	0.95182	-0.291
Mof_C 	C 	0.14182	0.07462	0.49814	0.392
Mof_C 	C 	0.98536	0.33056	0.95182	-0.291
Mof_C 	C 	0.45661	0.12831	0.37197	0.104
Mof_C 	C 	0.45839	0.91149	0.00573	0.217
Mof_C 	C 	0.14	0.47988	0.70303	0.089
Mof_C 	C 	0.88039	0.66709	0.42503	0.167
Mof_C 	C 	0.10829	0.94569	0.59633	-0.075
Mof_C 	C 	0.8302	0.6291	0.5186	-0.245
Mof_C 	C 	0.30767	0.9303	0.77408	-0.078
Mof_C 	C 	0.53302	0.16692	0.11544	-0.07
Mof_C 	C 	0.12439	0.41149	0.50573	0.214
Mof_C 	C 	0.50176	0.69016	0.52412	0.17
Mof_C 	C 	0.37561	0.54161	0.99427	0.215
Mof_C 	C 	0.37613	0.90973	0.38081	0.095
Mof_C 	C 	0.5753	0.8036	0.8725	0.357
Mof_C 	C 	0.33107	0.76207	0.45179	-0.252
Mof_C 	C 	0.49827	0.39377	0.99709	-0.056
Mof_C 	C 	0.1964	0.2514	0.1275	0.357
Mof_C 	C 	0.04493	0.73793	0.04821	-0.252
Mof_C 	C 	0.61961	0.47251	0.07497	0.169
Mof_C 	C 	0.0221	0.8302	0.5186	-0.245
Mof_C 	C 	0.2499	0.731	0.4832	-0.267
Mof_C 	C 	0.97817	0.67157	0.47489	-0.08
Mof_C 	C 	0.52012	0.32291	0.29697	0.089
Mof_C 	C 	0.99424	0.19064	0.50558	0.164
Mof_C 	C 	0.87537	0.97817	0.47489	-0.08
Mof_C 	C 	0.9641	0.769	0.0168	-0.266
Mof_C 	C 	0.46825	0.17875	0.35895	-0.196
Mof_C 	C 	0.48548	0.15028	0.13416	-0.063
Mof_C 	C 	0.0906	0.2582	0.1584	-0.007
Mof_C 	C 	0.69179	0.87369	0.42833	0.014
Mof_C 	C 	0.9922	0.9394	0.76325	0.387
Mof_C 	C 	0.51464	0.76774	0.54818	-0.291
Mof_C 	C 	0.54648	0.41108	0.97246	0.086
Mof_C 	C 	0.57293	0.12073	0.32811	-0.193
Mof_C 	C 	0.68462	0.66692	0.61544	-0.071
Mof_C 	C 	0.91149	0.62439	0.00573	0.219
Mof_C 	C 	0.61087	0.89377	0.49709	-0.057
Mof_C 	C 	0.00595	0.53175	0.64105	-0.196
Mof_C 	C 	0.08892	0.95352	0.52754	0.086
Mof_C 	C 	0.70848	0.00848	0.44846	-0.244
Mof_C 	C 	0.769	0.2501	0.0168	-0.267
Mof_C 	C 	0.50595	0.32125	0.14105	-0.196
Mof_C 	C 	0.91071	0.42641	0.07377	-0.063
Mof_C 	C 	0.03302	0.68462	0.61544	-0.07
Mof_C 	C 	0.4928	0.0906	0.1584	-0.007
Mof_C 	C 	0.64	0.17709	0.20303	0.089
Mof_C 	C 	0.0743	0.0602	0.363	-0.167
Mof_C 	C 	0.69016	0.28396	0.52412	0.171
Mof_C 	C 	0.41149	0.95839	0.50573	0.214
Mof_C 	C 	0.73226	0.98536	0.95182	-0.288
Mof_C 	C 	0.471	0.789	0.5273	0.219
Mof_C 	C 	0.87369	0.00619	0.42833	0.016
Mof_C 	C 	0.6698	0.4779	0.9814	-0.247
Mof_C 	C 	0.7418	0.5072	0.8416	-0.007
Mof_C 	C 	0.62439	0.45839	0.00573	0.215
Mof_C 	C 	0.54523	0.10643	0.94711	-0.25
Mof_C 	C 	0.8709	0.6698	0.9814	-0.252
Mof_C 	C 	0.49824	0.30984	0.47588	0.17
Mof_C 	C 	0.15031	0.55431	0.90367	-0.074
Mof_C 	C 	0.30515	0.9922	0.76325	0.388
Mof_C 	C 	0.7582	0.5906	0.6584	-0.007
Mof_C 	C 	0.18022	0.54832	0.56264	0.235
Mof_C 	C 	0.029	0.2873	0.9727	0.219
Mof_C 	C 	0.09817	0.69327	0.64409	-0.079
Mof_C 	C 	0.47823	0.62073	0.82811	-0.193
Mof_N 	N 	0.62094	0.63764	0.60008	-0.089
Mof_N 	N 	0.27385	0.90945	0.31455	-0.08
Mof_N 	N 	0.12094	0.64134	0.10008	-0.089
Mof_N 	N 	0.8938	0.527	0.5216	-0.106
Mof_N 	N 	0.49785	0.72615	0.68545	-0.08
Mof_N 	N 	0.54374	0.22424	0.31938	-0.099
Mof_N 	N 	0.86236	0.87906	0.89992	-0.09
Mof_N 	N 	0.09055	0.49785	0.68545	-0.08
Mof_N 	N 	0.27576	0.95626	0.18062	-0.099
Mof_N 	N 	0.57248	0.99148	0.00036	-0.085
Mof_N 	N 	0.6062	0.4424	0.9784	-0.106
Mof_N 	N 	0.99148	0.43568	0.00036	-0.084
Mof_N 	N 	0.77576	0.08736	0.68062	-0.099
Mof_N 	N 	0.90945	0.50215	0.31455	-0.08
Mof_N 	N 	0.80787	0.90577	0.91669	-0.111
Mof_N 	N 	0.58736	0.27576	0.18062	-0.099
Mof_N 	N 	0.64134	0.13764	0.10008	-0.089
Mof_N 	N 	0.3938	0.5576	0.0216	-0.106
Mof_N 	N 	0.14134	0.62094	0.60008	-0.089
Mof_N 	N 	0.87906	0.35866	0.89992	-0.089
Mof_N 	N 	0.42752	0.00852	0.99964	-0.085
Mof_N 	N 	0.37906	0.36236	0.39992	-0.089
Mof_N 	N 	0.92752	0.06432	0.49964	-0.085
Mof_N 	N 	0.00215	0.40945	0.81455	-0.08
Mof_N 	N 	0.527	0.0576	0.5216	-0.106
Mof_N 	N 	0.473	0.9424	0.4784	-0.106
Mof_N 	N 	0.08736	0.45626	0.68062	-0.099
Mof_N 	N 	0.41264	0.72424	0.81938	-0.099
Mof_N 	N 	0.69213	0.13033	0.58331	-0.111
Mof_N 	N 	0.13764	0.12094	0.10008	-0.09
Mof_N 	N 	0.5576	0.027	0.0216	-0.107
Mof_N 	N 	0.49148	0.07248	0.50036	-0.085
Mof_N 	N 	0.40577	0.30787	0.41669	-0.111
Mof_N 	N 	0.59423	0.69213	0.58331	-0.111
Mof_N 	N 	0.30787	0.86967	0.41669	-0.111
Mof_N 	N 	0.4424	0.973	0.9784	-0.107
Mof_N 	N 	0.09423	0.63033	0.08331	-0.111
Mof_N 	N 	0.99785	0.59055	0.18545	-0.08
Mof_N 	N 	0.00852	0.56432	0.99964	-0.084
Mof_N 	N 	0.22615	0.99785	0.18545	-0.08
Mof_N 	N 	0.07248	0.93568	0.50036	-0.085
Mof_N 	N 	0.06432	0.50852	0.49964	-0.085
Mof_N 	N 	0.63033	0.19213	0.08331	-0.111
Mof_N 	N 	0.36967	0.80787	0.91669	-0.111
Mof_N 	N 	0.45626	0.77576	0.68062	-0.099
Mof_N 	N 	0.56432	0.42752	0.99964	-0.085
Mof_N 	N 	0.22424	0.91264	0.31938	-0.099
Mof_N 	N 	0.35866	0.86236	0.89992	-0.089
Mof_N 	N 	0.85866	0.37906	0.39992	-0.089
Mof_N 	N 	0.973	0.6062	0.9784	-0.107
Mof_N 	N 	0.91264	0.54374	0.31938	-0.099
Mof_N 	N 	0.50852	0.92752	0.49964	-0.085
Mof_N 	N 	0.72615	0.09055	0.68545	-0.08
Mof_N 	N 	0.63764	0.14134	0.60008	-0.089
Mof_N 	N 	0.027	0.3938	0.0216	-0.107
Mof_N 	N 	0.9424	0.1062	0.4784	-0.106
Mof_N 	N 	0.50215	0.27385	0.31455	-0.08
Mof_N 	N 	0.90577	0.36967	0.91669	-0.111
Mof_N 	N 	0.36236	0.85866	0.39992	-0.089
Mof_N 	N 	0.93568	0.49148	0.50036	-0.085
Mof_N 	N 	0.77385	0.00215	0.81455	-0.08
Mof_N 	N 	0.1062	0.473	0.4784	-0.106
Mof_N 	N 	0.0576	0.8938	0.5216	-0.106
Mof_N 	N 	0.19213	0.09423	0.08331	-0.111
Mof_N 	N 	0.59055	0.22615	0.18545	-0.08
Mof_N 	N 	0.13033	0.59423	0.58331	-0.111
Mof_N 	N 	0.72424	0.04374	0.81938	-0.099
Mof_N 	N 	0.95626	0.58736	0.18062	-0.099
Mof_N 	N 	0.86967	0.40577	0.41669	-0.111
Mof_N 	N 	0.40945	0.77385	0.81455	-0.08
Mof_N 	N 	0.04374	0.41264	0.81938	-0.099
Mof_N 	N 	0.43568	0.57248	0.00036	-0.085
Mof_O 	O 	0.67764	0.88933	0.62807	-0.507
Mof_O 	O 	0.13144	0.61971	0.83137	-0.477
Mof_O 	O 	0.09445	0.23126	0.52013	-0.497
Mof_O 	O 	0.11971	0.63144	0.33137	-0.477
Mof_O 	O 	0.65416	0.73126	0.02013	-0.496
Mof_O 	O 	0.17764	0.30496	0.12807	-0.507
Mof_O 	O 	0.10839	0.64902	0.23708	-0.465
Mof_O 	O 	0.99449	0.89161	0.76292	-0.465
Mof_O 	O 	0.24092	0.80635	0.75791	-0.497
Mof_O 	O 	0.37211	0.19955	0.74443	-0.694
Mof_O 	O 	0.8647	0.07312	0.33566	-0.484
Mof_O 	O 	0.91455	0.71262	0.62234	-0.512
Mof_O 	O 	0.25798	0.03625	0.75506	-0.488
Mof_O 	O 	0.35852	0.19224	0.04431	-0.495
Mof_O 	O 	0.24419	0.60687	0.20091	-0.488
Mof_O 	O 	0.49449	0.85098	0.26292	-0.465
Mof_O 	O 	0.58252	0.86856	0.16863	-0.477
Mof_O 	O 	0.18391	0.69955	0.24443	-0.694
Mof_O 	O 	0.59507	0.64148	0.95569	-0.495
Mof_O 	O 	0.87211	0.18391	0.24443	-0.694
Mof_O 	O 	0.85098	0.39161	0.26292	-0.465
Mof_O 	O 	0.38029	0.58252	0.16863	-0.477
Mof_O 	O 	0.92688	0.27348	0.66434	-0.484
Mof_O 	O 	0.30776	0.14148	0.45569	-0.495
Mof_O 	O 	0.88029	0.36856	0.66863	-0.477
Mof_O 	O 	0.31609	0.62789	0.25557	-0.694
Mof_O 	O 	0.80985	0.47032	0.70628	-0.393
Mof_O 	O 	0.88933	0.80496	0.62807	-0.507
Mof_O 	O 	0.84584	0.90555	0.47987	-0.497
Mof_O 	O 	0.14148	0.09507	0.45569	-0.496
Mof_O 	O 	0.33443	0.59675	0.75028	-0.502
Mof_O 	O 	0.98645	0.19015	0.29372	-0.393
Mof_O 	O 	0.44803	0.10687	0.70091	-0.488
Mof_O 	O 	0.91748	0.11971	0.33137	-0.477
Mof_O 	O 	0.41455	0.25049	0.12234	-0.512
Mof_O 	O 	0.69482	0.30635	0.25791	-0.497
Mof_O 	O 	0.07312	0.72652	0.33566	-0.484
Mof_O 	O 	0.83443	0.81854	0.25028	-0.502
Mof_O 	O 	0.80776	0.59507	0.95569	-0.495
Mof_O 	O 	0.77348	0.42688	0.16434	-0.484
Mof_O 	O 	0.95071	0.25798	0.75506	-0.488
Mof_O 	O 	0.10687	0.74419	0.70091	-0.488
Mof_O 	O 	0.58545	0.74951	0.87766	-0.512
Mof_O 	O 	0.40493	0.35852	0.04431	-0.495
Mof_O 	O 	0.80518	0.75908	0.24209	-0.497
Mof_O 	O 	0.23126	0.15416	0.52013	-0.496
Mof_O 	O 	0.90325	0.16557	0.74972	-0.502
Mof_O 	O 	0.35098	0.99449	0.76292	-0.465
Mof_O 	O 	0.04929	0.74202	0.24494	-0.488
Mof_O 	O 	0.19224	0.40493	0.04431	-0.495
Mof_O 	O 	0.69504	0.61067	0.87193	-0.507
Mof_O 	O 	0.81609	0.30045	0.75557	-0.694
Mof_O 	O 	0.64148	0.80776	0.95569	-0.495
Mof_O 	O 	0.46375	0.24202	0.74494	-0.488
Mof_O 	O 	0.45071	0.53625	0.25506	-0.488
Mof_O 	O 	0.80496	0.67764	0.62807	-0.507
Mof_O 	O 	0.18146	0.90325	0.74972	-0.502
Mof_O 	O 	0.71262	0.75049	0.62234	-0.512
Mof_O 	O 	0.82236	0.69504	0.87193	-0.507
Mof_O 	O 	0.63144	0.91748	0.33137	-0.477
Mof_O 	O 	0.54929	0.46375	0.74494	-0.488
Mof_O 	O 	0.69224	0.85852	0.54431	-0.495
Mof_O 	O 	0.74202	0.96375	0.24494	-0.488
Mof_O 	O 	0.60839	0.50551	0.73708	-0.465
Mof_O 	O 	0.52968	0.98645	0.29372	-0.393
Mof_O 	O 	0.61971	0.41748	0.83137	-0.477
Mof_O 	O 	0.57312	0.3647	0.83566	-0.484
Mof_O 	O 	0.89313	0.25581	0.29909	-0.488
Mof_O 	O 	0.19955	0.68391	0.74443	-0.694
Mof_O 	O 	0.39313	0.05197	0.79909	-0.488
Mof_O 	O 	0.40555	0.34584	0.97987	-0.496
Mof_O 	O 	0.69125	0.69125	0.92625	-0.967
Mof_O 	O 	0.69365	0.25908	0.74209	-0.497
Mof_O 	O 	0.86856	0.38029	0.16863	-0.477
Mof_O 	O 	0.80045	0.31609	0.25557	-0.694
Mof_O 	O 	0.14902	0.60839	0.73708	-0.465
Mof_O 	O 	0.69955	0.87211	0.24443	-0.694
Mof_O 	O 	0.30875	0.30875	0.07375	-0.967
Mof_O 	O 	0.25049	0.21262	0.12234	-0.512
Mof_O 	O 	0.48645	0.02968	0.79372	-0.393
Mof_O 	O 	0.40325	0.68146	0.24972	-0.502
Mof_O 	O 	0.75049	0.91455	0.62234	-0.512
Mof_O 	O 	0.09675	0.83443	0.25028	-0.502
Mof_O 	O 	0.64902	0.00551	0.23708	-0.465
Mof_O 	O 	0.36856	0.08252	0.66863	-0.477
Mof_O 	O 	0.32236	0.11067	0.37193	-0.507
Mof_O 	O 	0.66557	0.40325	0.24972	-0.502
Mof_O 	O 	0.74092	0.69482	0.25791	-0.497
Mof_O 	O 	0.19504	0.32236	0.37193	-0.507
Mof_O 	O 	0.08252	0.88029	0.66863	-0.477
Mof_O 	O 	0.21262	0.41455	0.12234	-0.512
Mof_O 	O 	0.25908	0.30518	0.74209	-0.497
Mof_O 	O 	0.22652	0.57312	0.83566	-0.484
Mof_O 	O 	0.30985	0.51355	0.20628	-0.393
Mof_O 	O 	0.59445	0.65416	0.02013	-0.496
Mof_O 	O 	0.12789	0.81609	0.75557	-0.694
Mof_O 	O 	0.05197	0.75581	0.79909	-0.488
Mof_O 	O 	0.19125	0.19125	0.42625	-0.967
Mof_O 	O 	0.19482	0.24092	0.75791	-0.497
Mof_O 	O 	0.75798	0.45071	0.25506	-0.488
Mof_O 	O 	0.41748	0.13144	0.83137	-0.477
Mof_O 	O 	0.47032	0.01355	0.70628	-0.393
Mof_O 	O 	0.61067	0.82236	0.87193	-0.507
Mof_O 	O 	0.96375	0.04929	0.24494	-0.487
Mof_O 	O 	0.85852	0.90493	0.54431	-0.496
Mof_O 	O 	0.89161	0.35098	0.76292	-0.465
Mof_O 	O 	0.80875	0.80875	0.57375	-0.967
Mof_O 	O 	0.62789	0.80045	0.25557	-0.694
Mof_O 	O 	0.51355	0.97032	0.20628	-0.393
Mof_O 	O 	0.19365	0.80518	0.24209	-0.497
Mof_O 	O 	0.02968	0.69015	0.79372	-0.393
Mof_O 	O 	0.03625	0.95071	0.75506	-0.487
Mof_O 	O 	0.90493	0.69224	0.54431	-0.495
Mof_O 	O 	0.30635	0.74092	0.25791	-0.497
Mof_O 	O 	0.90555	0.76874	0.47987	-0.497
Mof_O 	O 	0.73126	0.59445	0.02013	-0.496
Mof_O 	O 	0.39161	0.49449	0.26292	-0.465
Mof_O 	O 	0.38933	0.17764	0.12807	-0.507
Mof_O 	O 	0.34584	0.26874	0.97987	-0.496
Mof_O 	O 	0.00551	0.10839	0.23708	-0.465
Mof_O 	O 	0.75581	0.39313	0.79909	-0.488
Mof_O 	O 	0.1353	0.92688	0.66434	-0.484
Mof_O 	O 	0.30518	0.69365	0.74209	-0.497
Mof_O 	O 	0.75908	0.19365	0.24209	-0.497
Mof_O 	O 	0.76874	0.84584	0.47987	-0.496
Mof_O 	O 	0.08545	0.28738	0.37766	-0.512
Mof_O 	O 	0.01355	0.80985	0.70628	-0.393
Mof_O 	O 	0.24951	0.08545	0.37766	-0.512
Mof_O 	O 	0.53625	0.75798	0.25506	-0.488
Mof_O 	O 	0.69015	0.48645	0.79372	-0.393
Mof_O 	O 	0.6353	0.77348	0.16434	-0.484
Mof_O 	O 	0.31854	0.33443	0.75028	-0.502
Mof_O 	O 	0.50551	0.14902	0.73708	-0.465
Mof_O 	O 	0.42688	0.6353	0.16434	-0.484
Mof_O 	O 	0.09507	0.30776	0.45569	-0.495
Mof_O 	O 	0.72652	0.8647	0.33566	-0.484
Mof_O 	O 	0.78738	0.58545	0.87766	-0.512
Mof_O 	O 	0.11067	0.19504	0.37193	-0.507
Mof_O 	O 	0.60687	0.94803	0.20091	-0.488
Mof_O 	O 	0.74419	0.44803	0.70091	-0.488
Mof_O 	O 	0.15416	0.09445	0.52013	-0.497
Mof_O 	O 	0.30496	0.38933	0.12807	-0.507
Mof_O 	O 	0.30045	0.12789	0.75557	-0.694
Mof_O 	O 	0.26874	0.40555	0.97987	-0.496
Mof_O 	O 	0.81854	0.09675	0.25028	-0.502
Mof_O 	O 	0.80635	0.19482	0.75791	-0.497
Mof_O 	O 	0.55197	0.89313	0.29909	-0.488
Mof_O 	O 	0.59675	0.31854	0.75028	-0.502
Mof_O 	O 	0.97032	0.30985	0.20628	-0.393
Mof_O 	O 	0.74951	0.78738	0.87766	-0.512
Mof_O 	O 	0.68391	0.37211	0.74443	-0.694
Mof_O 	O 	0.3647	0.22652	0.83566	-0.484
Mof_O 	O 	0.16557	0.18146	0.74972	-0.502
Mof_O 	O 	0.19015	0.52968	0.29372	-0.393
Mof_O 	O 	0.27348	0.1353	0.66434	-0.484
Mof_O 	O 	0.94803	0.24419	0.20091	-0.488
Mof_O 	O 	0.68146	0.66557	0.24972	-0.502
Mof_O 	O 	0.25581	0.55197	0.29909	-0.488
Mof_O 	O 	0.28738	0.24951	0.37766	-0.512
Mof_O 	O 	0.24202	0.54929	0.74494	-0.488
_end
