data_functionalizedCrystal
_audit_creation_method	'EQeq! by Chris Wilmer'
_symmetry_space_group_name_H-M	'P1'
_symmetry_Int_Tables_number	1
_symmetry_cell_setting	triclinic
loop_
_symmetry_equiv_pos_as_xyz
  x,y,z
_cell_length_a	25.866
_cell_length_b	25.866
_cell_length_c	6.8457
_cell_angle_alpha	90
_cell_angle_beta	90
_cell_angle_gamma	120
loop_
_atom_site_label
_atom_site_type_symbol
_atom_site_fract_x
_atom_site_fract_y
_atom_site_fract_z
_atom_site_charge
Mof_Co	Co	0.97041	0.61787	0.14301	1.162
Mof_O 	O 	0.02201	0.60776	0.3384	-0.532
Mof_O 	O 	0.99381	0.62945	0.6961	-0.579
Mof_O 	O 	0.96838	0.5626	0.9322	-0.469
Mof_C 	C 	0.01033	0.55561	0.4228	0.199
Mof_C 	C 	0.99415	0.5407	0.6215	-0.181
Mof_C 	C 	0.98405	0.48547	0.6927	-0.1
Mof_H 	H 	0.9729	0.4758	0.8256	0.077
Mof_C 	C 	0.98494	0.57941	0.7603	0.415
Mof_Co	Co	0.63708	0.9512	0.47634	1.162
Mof_O 	O 	0.68868	0.94109	0.67173	-0.532
Mof_O 	O 	0.66048	0.96278	0.02943	-0.579
Mof_O 	O 	0.63505	0.89593	0.26553	-0.468
Mof_C 	C 	0.677	0.88894	0.75613	0.201
Mof_C 	C 	0.66082	0.87403	0.95483	-0.181
Mof_C 	C 	0.65072	0.8188	0.02603	-0.099
Mof_H 	H 	0.63957	0.80913	0.15893	0.078
Mof_C 	C 	0.65161	0.91274	0.09363	0.416
Mof_Co	Co	0.30374	0.28454	0.80968	1.163
Mof_O 	O 	0.35534	0.27443	0.00507	-0.531
Mof_O 	O 	0.32714	0.29612	0.36277	-0.578
Mof_O 	O 	0.30171	0.22927	0.59887	-0.468
Mof_C 	C 	0.34366	0.22228	0.08947	0.2
Mof_C 	C 	0.32748	0.20737	0.28817	-0.18
Mof_C 	C 	0.31738	0.15214	0.35937	-0.1
Mof_H 	H 	0.30623	0.14247	0.49227	0.078
Mof_C 	C 	0.31827	0.24608	0.42697	0.416
Mof_Co	Co	0.38213	0.35254	0.14301	1.163
Mof_O 	O 	0.39224	0.41425	0.3384	-0.531
Mof_O 	O 	0.37055	0.36436	0.6961	-0.579
Mof_O 	O 	0.4374	0.40578	0.9322	-0.468
Mof_C 	C 	0.44439	0.45472	0.4228	0.2
Mof_C 	C 	0.4593	0.45345	0.6215	-0.18
Mof_C 	C 	0.51453	0.49858	0.6927	-0.099
Mof_H 	H 	0.5242	0.4971	0.8256	0.078
Mof_C 	C 	0.42059	0.40553	0.7603	0.416
Mof_Co	Co	0.0488	0.68587	0.47634	1.163
Mof_O 	O 	0.05891	0.74758	0.67173	-0.531
Mof_O 	O 	0.03722	0.69769	0.02943	-0.578
Mof_O 	O 	0.10407	0.73911	0.26553	-0.468
Mof_C 	C 	0.11106	0.78805	0.75613	0.201
Mof_C 	C 	0.12597	0.78678	0.95483	-0.182
Mof_C 	C 	0.1812	0.83191	0.02603	-0.097
Mof_H 	H 	0.19087	0.83043	0.15893	0.078
Mof_C 	C 	0.08726	0.73886	0.09363	0.417
Mof_Co	Co	0.71546	0.01921	0.80968	1.163
Mof_O 	O 	0.72557	0.08092	0.00507	-0.531
Mof_O 	O 	0.70388	0.03103	0.36277	-0.578
Mof_O 	O 	0.77073	0.07245	0.59887	-0.468
Mof_C 	C 	0.77772	0.12139	0.08947	0.199
Mof_C 	C 	0.79263	0.12012	0.28817	-0.179
Mof_C 	C 	0.84786	0.16525	0.35937	-0.1
Mof_H 	H 	0.85753	0.16377	0.49227	0.078
Mof_C 	C 	0.75392	0.0722	0.42697	0.416
Mof_Co	Co	0.64746	0.02959	0.14301	1.163
Mof_O 	O 	0.58575	0.97799	0.3384	-0.531
Mof_O 	O 	0.63564	0.00619	0.6961	-0.578
Mof_O 	O 	0.59422	0.03162	0.9322	-0.468
Mof_C 	C 	0.54528	0.98967	0.4228	0.2
Mof_C 	C 	0.54655	0.00585	0.6215	-0.18
Mof_C 	C 	0.50142	0.01595	0.6927	-0.099
Mof_H 	H 	0.5029	0.0271	0.8256	0.078
Mof_C 	C 	0.59447	0.01506	0.7603	0.416
Mof_Co	Co	0.31413	0.36292	0.47634	1.163
Mof_O 	O 	0.25242	0.31132	0.67173	-0.531
Mof_O 	O 	0.30231	0.33952	0.02943	-0.579
Mof_O 	O 	0.26089	0.36495	0.26553	-0.468
Mof_C 	C 	0.21195	0.323	0.75613	0.201
Mof_C 	C 	0.21322	0.33918	0.95483	-0.181
Mof_C 	C 	0.16809	0.34928	0.02603	-0.099
Mof_H 	H 	0.16957	0.36043	0.15893	0.078
Mof_C 	C 	0.26114	0.34839	0.09363	0.416
Mof_Co	Co	0.98079	0.69626	0.80968	1.163
Mof_O 	O 	0.91908	0.64466	0.00507	-0.531
Mof_O 	O 	0.96897	0.67286	0.36277	-0.578
Mof_O 	O 	0.92755	0.69829	0.59887	-0.468
Mof_C 	C 	0.87861	0.65634	0.08947	0.2
Mof_C 	C 	0.87988	0.67252	0.28817	-0.18
Mof_C 	C 	0.83475	0.68262	0.35937	-0.1
Mof_H 	H 	0.83623	0.69377	0.49227	0.078
Mof_C 	C 	0.9278	0.68173	0.42697	0.416
Mof_Co	Co	0.02959	0.38213	0.85699	1.163
Mof_O 	O 	0.97799	0.39224	0.6616	-0.531
Mof_O 	O 	0.00619	0.37055	0.3039	-0.578
Mof_O 	O 	0.03162	0.4374	0.0678	-0.468
Mof_C 	C 	0.98967	0.44439	0.5772	0.2
Mof_C 	C 	0.00585	0.4593	0.3785	-0.18
Mof_C 	C 	0.01595	0.51453	0.3073	-0.099
Mof_H 	H 	0.0271	0.5242	0.1744	0.078
Mof_C 	C 	0.01506	0.42059	0.2397	0.416
Mof_Co	Co	0.69626	0.71546	0.19032	1.163
Mof_O 	O 	0.64466	0.72557	0.99493	-0.531
Mof_O 	O 	0.67286	0.70388	0.63723	-0.578
Mof_O 	O 	0.69829	0.77073	0.40113	-0.468
Mof_C 	C 	0.65634	0.77772	0.91053	0.2
Mof_C 	C 	0.67252	0.79263	0.71183	-0.18
Mof_C 	C 	0.68262	0.84786	0.64063	-0.1
Mof_H 	H 	0.69377	0.85753	0.50773	0.078
Mof_C 	C 	0.68173	0.75392	0.57303	0.416
Mof_Co	Co	0.36292	0.0488	0.52366	1.163
Mof_O 	O 	0.31132	0.05891	0.32827	-0.531
Mof_O 	O 	0.33952	0.03722	0.97057	-0.578
Mof_O 	O 	0.36495	0.10407	0.73447	-0.468
Mof_C 	C 	0.323	0.11106	0.24387	0.201
Mof_C 	C 	0.33918	0.12597	0.04517	-0.181
Mof_C 	C 	0.34928	0.1812	0.97397	-0.099
Mof_H 	H 	0.36043	0.19087	0.84107	0.078
Mof_C 	C 	0.34839	0.08726	0.90637	0.416
Mof_Co	Co	0.61787	0.64746	0.85699	1.163
Mof_O 	O 	0.60776	0.58575	0.6616	-0.531
Mof_O 	O 	0.62945	0.63564	0.3039	-0.579
Mof_O 	O 	0.5626	0.59422	0.0678	-0.468
Mof_C 	C 	0.55561	0.54528	0.5772	0.2
Mof_C 	C 	0.5407	0.54655	0.3785	-0.18
Mof_C 	C 	0.48547	0.50142	0.3073	-0.099
Mof_H 	H 	0.4758	0.5029	0.1744	0.078
Mof_C 	C 	0.57941	0.59447	0.2397	0.416
Mof_Co	Co	0.28454	0.98079	0.19032	1.163
Mof_O 	O 	0.27443	0.91908	0.99493	-0.531
Mof_O 	O 	0.29612	0.96897	0.63723	-0.578
Mof_O 	O 	0.22927	0.92755	0.40113	-0.468
Mof_C 	C 	0.22228	0.87861	0.91053	0.199
Mof_C 	C 	0.20737	0.87988	0.71183	-0.179
Mof_C 	C 	0.15214	0.83475	0.64063	-0.1
Mof_H 	H 	0.14247	0.83623	0.50773	0.078
Mof_C 	C 	0.24608	0.9278	0.57303	0.416
Mof_Co	Co	0.9512	0.31413	0.52366	1.163
Mof_O 	O 	0.94109	0.25242	0.32827	-0.531
Mof_O 	O 	0.96278	0.30231	0.97057	-0.578
Mof_O 	O 	0.89593	0.26089	0.73447	-0.468
Mof_C 	C 	0.88894	0.21195	0.24387	0.201
Mof_C 	C 	0.87403	0.21322	0.04517	-0.182
Mof_C 	C 	0.8188	0.16809	0.97397	-0.097
Mof_H 	H 	0.80913	0.16957	0.84107	0.078
Mof_C 	C 	0.91274	0.26114	0.90637	0.417
Mof_Co	Co	0.35254	0.97041	0.85699	1.163
Mof_O 	O 	0.41425	0.02201	0.6616	-0.531
Mof_O 	O 	0.36436	0.99381	0.3039	-0.578
Mof_O 	O 	0.40578	0.96838	0.0678	-0.468
Mof_C 	C 	0.45472	0.01033	0.5772	0.2
Mof_C 	C 	0.45345	0.99415	0.3785	-0.18
Mof_C 	C 	0.49858	0.98405	0.3073	-0.099
Mof_H 	H 	0.4971	0.9729	0.1744	0.078
Mof_C 	C 	0.40553	0.98494	0.2397	0.416
Mof_Co	Co	0.01921	0.30374	0.19032	1.163
Mof_O 	O 	0.08092	0.35534	0.99493	-0.531
Mof_O 	O 	0.03103	0.32714	0.63723	-0.578
Mof_O 	O 	0.07245	0.30171	0.40113	-0.468
Mof_C 	C 	0.12139	0.34366	0.91053	0.2
Mof_C 	C 	0.12012	0.32748	0.71183	-0.18
Mof_C 	C 	0.16525	0.31738	0.64063	-0.1
Mof_H 	H 	0.16377	0.30623	0.50773	0.078
Mof_C 	C 	0.0722	0.31827	0.57303	0.416
Mof_Co	Co	0.68587	0.63708	0.52366	1.163
Mof_O 	O 	0.74758	0.68868	0.32827	-0.531
Mof_O 	O 	0.69769	0.66048	0.97057	-0.579
Mof_O 	O 	0.73911	0.63505	0.73447	-0.468
Mof_C 	C 	0.78805	0.677	0.24387	0.201
Mof_C 	C 	0.78678	0.66082	0.04517	-0.181
Mof_C 	C 	0.83191	0.65072	0.97397	-0.099
Mof_H 	H 	0.83043	0.63957	0.84107	0.078
Mof_C 	C 	0.73886	0.65161	0.90637	0.416
_end
