# CIF file generated by openbabel 3.1.0, see https://openbabel.org
data_I
_chemical_name_common 'image0'
_cell_length_a 16.3187
_cell_length_b 17.0365
_cell_length_c 18.9426
_cell_angle_alpha 88.412
_cell_angle_beta 70.681
_cell_angle_gamma 62.592
_space_group_name_H-M_alt 'P 1'
_space_group_name_Hall 'P 1'
loop_
    _symmetry_equiv_pos_as_xyz
    x,y,z
loop_
    _atom_site_label
    _atom_site_type_symbol
    _atom_site_fract_x
    _atom_site_fract_y
    _atom_site_fract_z
    _atom_site_occupancy
    Cd1      Cd       0.67246    0.63001    0.44488    1.000
    Cd2      Cd       0.76104    0.71682    0.26259    1.000
    Cd3      Cd       0.85101    0.80512    0.07699    1.000
    O1       O        0.77840    0.68220    0.37820    1.000
    O2       O        0.69380    0.74190    0.49940    1.000
    O3       O        0.59640    0.78030    0.31300    1.000
    O4       O        0.57400    0.67780    0.37930    1.000
    O5       O        0.71360    0.48650    0.39200    1.000
    O6       O        0.78560    0.49850    0.46850    1.000
    O7       O        0.74360    0.75120    0.14760    1.000
    O8       O        0.83130    0.69240    0.03090    1.000
    O9       O        0.84500    0.94210    0.04630    1.000
    O10      O        0.71950    0.94250    0.11740    1.000
    O11      O        0.92560    0.65850    0.20550    1.000
    O12      O        0.93720    0.77500    0.15530    1.000
    N1       N        0.54680    0.65410    0.55310    1.000
    N2       N        0.00000    0.74450    0.97700    1.000
    C1       C        0.51380    0.59520    0.57060    1.000
    H1       H        0.54500    0.54160    0.53620    1.000
    C2       C        0.43650    0.60790    0.63610    1.000
    H2       H        0.41550    0.56380    0.64640    1.000
    C3       C        0.39060    0.68500    0.68590    1.000
    C4       C        0.42850    0.74370    0.66970    1.000
    H3       H        0.40300    0.79620    0.70380    1.000
    C5       C        0.50430    0.72280    0.60250    1.000
    H4       H        0.52810    0.76480    0.59110    1.000
    C6       C        0.30470    0.70770    0.75760    1.000
    H5       H        0.27810    0.76390    0.78710    1.000
    C7       C        0.26290    0.65980    0.78380    1.000
    H6       H        0.29210    0.60180    0.75660    1.000
    C8       C        0.17360    0.68620    0.85230    1.000
    C9       C        0.13670    0.63260    0.88020    1.000
    H7       H        0.17030    0.57170    0.85800    1.000
    C10      C        0.04810    0.66550    0.94240    1.000
    H8       H        0.02250    0.62570    0.95990    1.000
    C11      C        0.03610    0.80150    0.95170    1.000
    H9       H        0.00270    0.86140    0.97630    1.000
    C12      C        0.12260    0.77080    0.88930    1.000
    H10      H        0.14740    0.81110    0.87150    1.000
    C13      C        0.75950    0.73330    0.43480    1.000
    C14      C        0.81390    0.78440    0.42950    1.000
    C15      C        0.90560    0.75470    0.37030    1.000
    H11      H        0.93070    0.70410    0.33410    1.000
    C16      C        0.95930    0.79980    0.36500    1.000
    H12      H        0.02380    0.77650    0.32790    1.000
    C17      C        0.92080    0.87730    0.41250    1.000
    C18      C        0.82740    0.90890    0.47040    1.000
    H13      H        0.80000    0.96240    0.50390    1.000
    C19      C        0.77560    0.86130    0.47820    1.000
    H14      H        0.71310    0.88220    0.51760    1.000
    C20      C        0.97780    0.92650    0.40610    1.000
    C21      C        0.07850    0.88230    0.39140    1.000
    H15      H        0.11240    0.81890    0.38480    1.000
    C22      C        0.13120    0.92870    0.38590    1.000
    C23      C        0.08090    0.02180    0.39220    1.000
    H16      H        0.11610    0.05410    0.38930    1.000
    C24      C        0.98020    0.06900    0.40280    1.000
    C25      C        0.92870    0.01990    0.41130    1.000
    H17      H        0.85970    0.05050    0.42070    1.000
    C26      C        0.23780    0.88180    0.37580    1.000
    C27      C        0.27390    0.80880    0.41210    1.000
    H18      H        0.23010    0.78930    0.44350    1.000
    C28      C        0.37360    0.76350    0.40320    1.000
    H19      H        0.39830    0.71220    0.42690    1.000
    C29      C        0.43710    0.79500    0.35850    1.000
    C30      C        0.40090    0.86840    0.32450    1.000
    H20      H        0.44380    0.88970    0.29490    1.000
    C31      C        0.30130    0.91240    0.33290    1.000
    H21      H        0.27680    0.96370    0.30900    1.000
    C32      C        0.54520    0.74660    0.34970    1.000
    C33      C        0.92800    0.16630    0.40900    1.000
    C34      C        0.95420    0.21990    0.44140    1.000
    H22      H        0.00890    0.19210    0.45770    1.000
    C35      C        0.90350    0.31120    0.45010    1.000
    H23      H        0.91940    0.34600    0.47620    1.000
    C36      C        0.82790    0.35350    0.42060    1.000
    C37      C        0.80310    0.29970    0.38820    1.000
    H24      H        0.75060    0.32670    0.36940    1.000
    C38      C        0.85290    0.20760    0.38260    1.000
    H25      H        0.83420    0.17260    0.35990    1.000
    C39      C        0.77170    0.45100    0.42990    1.000
    C40      C        0.76790    0.69920    0.08990    1.000
    C41      C        0.71010    0.64960    0.09490    1.000
    C42      C        0.74780    0.57700    0.04110    1.000
    H26      H        0.80930    0.55870    0.00100    1.000
    C43      C        0.69480    0.53030    0.04580    1.000
    H27      H        0.72360    0.47760    0.01100    1.000
    C44      C        0.60360    0.55870    0.09900    1.000
    C45      C        0.56550    0.63360    0.15260    1.000
    H28      H        0.50270    0.65360    0.19160    1.000
    C46      C        0.61740    0.67700    0.14900    1.000
    H29      H        0.58920    0.72850    0.18510    1.000
    C47      C        0.54790    0.50840    0.10050    1.000
    C48      C        0.59570    0.41680    0.09020    1.000
    H30      H        0.66500    0.38570    0.07920    1.000
    C49      C        0.54610    0.36790    0.09530    1.000
    C50      C        0.44710    0.41420    0.10740    1.000
    H31      H        0.41270    0.38130    0.10970    1.000
    C51      C        0.39480    0.50640    0.11620    1.000
    C52      C        0.44800    0.55360    0.11310    1.000
    H32      H        0.41450    0.61710    0.11990    1.000
    C53      C        0.59890    0.26870    0.09220    1.000
    C54      C        0.69730    0.21810    0.04640    1.000
    H33      H        0.73060    0.24590    0.01360    1.000
    C55      C        0.74820    0.12540    0.04800    1.000
    H34      H        0.81730    0.09240    0.02070    1.000
    C56      C        0.69970    0.08360    0.08800    1.000
    C57      C        0.60280    0.13300    0.13370    1.000
    H35      H        0.56810    0.10430    0.16300    1.000
    C58      C        0.55650    0.22310    0.13710    1.000
    H36      H        0.49100    0.25640    0.17250    1.000
    C59      C        0.75630    0.98240    0.08260    1.000
    C60      C        0.28680    0.55670    0.13150    1.000
    C61      C        0.22610    0.51830    0.16290    1.000
    H37      H        0.25430    0.45970    0.17550    1.000
    C62      C        0.12810    0.56270    0.17580    1.000
    H38      H        0.08860    0.53490    0.19750    1.000
    C63      C        0.08460    0.64810    0.15790    1.000
    C64      C        0.14220    0.68760    0.12540    1.000
    H39      H        0.11340    0.74540    0.11140    1.000
    C65      C        0.24100    0.64340    0.11340    1.000
    H40      H        0.27980    0.67180    0.09210    1.000
    C66      C        0.97400    0.69710    0.17320    1.000
    Cd4      Cd       0.32754    0.36999    0.55512    1.000
    Cd5      Cd       0.23896    0.28318    0.73741    1.000
    Cd6      Cd       0.14899    0.19488    0.92301    1.000
    O13      O        0.22160    0.31780    0.62180    1.000
    O14      O        0.30620    0.25810    0.50060    1.000
    O15      O        0.40360    0.21970    0.68700    1.000
    O16      O        0.42600    0.32220    0.62070    1.000
    O17      O        0.28640    0.51350    0.60800    1.000
    O18      O        0.21440    0.50150    0.53150    1.000
    O19      O        0.25640    0.24880    0.85240    1.000
    O20      O        0.16870    0.30760    0.96910    1.000
    O21      O        0.15500    0.05790    0.95370    1.000
    O22      O        0.28050    0.05750    0.88260    1.000
    O23      O        0.07440    0.34150    0.79450    1.000
    O24      O        0.06280    0.22500    0.84470    1.000
    N3       N        0.45320    0.34590    0.44690    1.000
    N4       N        0.00000    0.25550    0.02300    1.000
    C67      C        0.48620    0.40480    0.42940    1.000
    H41      H        0.45500    0.45840    0.46380    1.000
    C68      C        0.56350    0.39210    0.36390    1.000
    H42      H        0.58450    0.43620    0.35360    1.000
    C69      C        0.60940    0.31500    0.31410    1.000
    C70      C        0.57150    0.25630    0.33030    1.000
    H43      H        0.59700    0.20380    0.29620    1.000
    C71      C        0.49570    0.27720    0.39750    1.000
    H44      H        0.47190    0.23520    0.40890    1.000
    C72      C        0.69530    0.29230    0.24240    1.000
    H45      H        0.72190    0.23610    0.21290    1.000
    C73      C        0.73710    0.34020    0.21620    1.000
    H46      H        0.70790    0.39820    0.24340    1.000
    C74      C        0.82640    0.31380    0.14770    1.000
    C75      C        0.86330    0.36740    0.11980    1.000
    H47      H        0.82970    0.42830    0.14200    1.000
    C76      C        0.95190    0.33450    0.05760    1.000
    H48      H        0.97750    0.37430    0.04010    1.000
    C77      C        0.96390    0.19850    0.04830    1.000
    H49      H        0.99730    0.13860    0.02370    1.000
    C78      C        0.87740    0.22920    0.11070    1.000
    H50      H        0.85260    0.18890    0.12850    1.000
    C79      C        0.24050    0.26670    0.56520    1.000
    C80      C        0.18610    0.21560    0.57050    1.000
    C81      C        0.09440    0.24530    0.62970    1.000
    H51      H        0.06930    0.29590    0.66590    1.000
    C82      C        0.04070    0.20020    0.63500    1.000
    H52      H        0.97620    0.22350    0.67210    1.000
    C83      C        0.07920    0.12270    0.58750    1.000
    C84      C        0.17260    0.09110    0.52960    1.000
    H53      H        0.20000    0.03760    0.49610    1.000
    C85      C        0.22440    0.13870    0.52180    1.000
    H54      H        0.28690    0.11780    0.48240    1.000
    C86      C        0.02220    0.07350    0.59390    1.000
    C87      C        0.92150    0.11770    0.60860    1.000
    H55      H        0.88760    0.18110    0.61520    1.000
    C88      C        0.86880    0.07130    0.61410    1.000
    C89      C        0.91910    0.97820    0.60780    1.000
    H56      H        0.88390    0.94590    0.61070    1.000
    C90      C        0.01980    0.93100    0.59720    1.000
    C91      C        0.07130    0.98010    0.58870    1.000
    H57      H        0.14030    0.94950    0.57930    1.000
    C92      C        0.76220    0.11820    0.62420    1.000
    C93      C        0.72610    0.19120    0.58790    1.000
    H58      H        0.76990    0.21070    0.55650    1.000
    C94      C        0.62640    0.23650    0.59680    1.000
    H59      H        0.60170    0.28780    0.57310    1.000
    C95      C        0.56290    0.20500    0.64150    1.000
    C96      C        0.59910    0.13160    0.67550    1.000
    H60      H        0.55620    0.11030    0.70510    1.000
    C97      C        0.69870    0.08760    0.66710    1.000
    H61      H        0.72320    0.03630    0.69100    1.000
    C98      C        0.45480    0.25340    0.65030    1.000
    C99      C        0.07200    0.83370    0.59100    1.000
    C100     C        0.04580    0.78010    0.55860    1.000
    H62      H        0.99110    0.80790    0.54230    1.000
    C101     C        0.09650    0.68880    0.54990    1.000
    H63      H        0.08060    0.65400    0.52380    1.000
    C102     C        0.17210    0.64650    0.57940    1.000
    C103     C        0.19690    0.70030    0.61180    1.000
    H64      H        0.24940    0.67330    0.63060    1.000
    C104     C        0.14710    0.79240    0.61740    1.000
    H65      H        0.16580    0.82740    0.64010    1.000
    C105     C        0.22830    0.54900    0.57010    1.000
    C106     C        0.23210    0.30080    0.91010    1.000
    C107     C        0.28990    0.35040    0.90510    1.000
    C108     C        0.25220    0.42300    0.95890    1.000
    H66      H        0.19070    0.44130    0.99900    1.000
    C109     C        0.30520    0.46970    0.95420    1.000
    H67      H        0.27640    0.52240    0.98900    1.000
    C110     C        0.39640    0.44130    0.90100    1.000
    C111     C        0.43450    0.36640    0.84740    1.000
    H68      H        0.49730    0.34640    0.80840    1.000
    C112     C        0.38260    0.32300    0.85100    1.000
    H69      H        0.41080    0.27150    0.81490    1.000
    C113     C        0.45210    0.49160    0.89950    1.000
    C114     C        0.40430    0.58320    0.90980    1.000
    H70      H        0.33500    0.61430    0.92080    1.000
    C115     C        0.45390    0.63210    0.90470    1.000
    C116     C        0.55290    0.58580    0.89260    1.000
    H71      H        0.58730    0.61870    0.89030    1.000
    C117     C        0.60520    0.49360    0.88380    1.000
    C118     C        0.55200    0.44640    0.88690    1.000
    H72      H        0.58550    0.38290    0.88010    1.000
    C119     C        0.40110    0.73130    0.90780    1.000
    C120     C        0.30270    0.78190    0.95360    1.000
    H73      H        0.26940    0.75410    0.98640    1.000
    C121     C        0.25180    0.87460    0.95200    1.000
    H74      H        0.18270    0.90760    0.97930    1.000
    C122     C        0.30030    0.91640    0.91200    1.000
    C123     C        0.39720    0.86700    0.86630    1.000
    H75      H        0.43190    0.89570    0.83700    1.000
    C124     C        0.44350    0.77690    0.86290    1.000
    H76      H        0.50900    0.74360    0.82750    1.000
    C125     C        0.24370    0.01760    0.91740    1.000
    C126     C        0.71320    0.44330    0.86850    1.000
    C127     C        0.77390    0.48170    0.83710    1.000
    H77      H        0.74570    0.54030    0.82450    1.000
    C128     C        0.87190    0.43730    0.82420    1.000
    H78      H        0.91140    0.46510    0.80250    1.000
    C129     C        0.91540    0.35190    0.84210    1.000
    C130     C        0.85780    0.31240    0.87460    1.000
    H79      H        0.88660    0.25460    0.88860    1.000
    C131     C        0.75900    0.35660    0.88660    1.000
    H80      H        0.72020    0.32820    0.90790    1.000
    C132     C        0.02600    0.30290    0.82680    1.000
