# CIF file generated by openbabel 3.1.0, see https://openbabel.org
data_I
_chemical_name_common 'FAFDEX_clean'
_cell_length_a 5.8478
_cell_length_b 9.108
_cell_length_c 11.0349
_cell_angle_alpha 91.713
_cell_angle_beta 93.054
_cell_angle_gamma 97.672
_space_group_name_H-M_alt 'P 1'
_space_group_name_Hall 'P 1'
loop_
    _symmetry_equiv_pos_as_xyz
    x,y,z
loop_
    _atom_site_label
    _atom_site_type_symbol
    _atom_site_fract_x
    _atom_site_fract_y
    _atom_site_fract_z
    _atom_site_occupancy
    K1       K        0.17790    0.95420    0.57480    1.000
    Mn1      Mn       0.55680    0.85471    0.84498    1.000
    H1       H        0.16600    0.93700    0.86500    1.000
    H2       H        0.11600    0.29700    0.65800    1.000
    H3       H        0.75200    0.59300    0.78100    1.000
    H4       H        0.90000    0.62600    0.56100    1.000
    H5       H        0.02500    0.93700    0.30200    1.000
    H6       H        0.37700    0.84400    0.07200    1.000
    H7       H        0.56500    0.85500    0.63800    1.000
    H8       H        0.70400    0.99100    0.63200    1.000
    H9       H        0.26870    0.15440    0.96890    1.000
    H10      H        0.05500    0.28870    0.85170    1.000
    H11      H        0.36630    0.44900    0.92350    1.000
    H12      H        0.46610    0.46830    0.67510    1.000
    H13      H        0.74240    0.55050    0.39330    1.000
    H14      H        0.00490    0.68760    0.28080    1.000
    H15      H        0.68280    0.94820    0.17150    1.000
    H16      H        0.66440    0.63960    0.16220    1.000
    C1       C        0.55820    0.19000    0.87370    1.000
    C2       C        0.30340    0.14960    0.88490    1.000
    C3       C        0.20090    0.26990    0.81840    1.000
    C4       C        0.39380    0.40110    0.84790    1.000
    C5       C        0.43510    0.51680    0.75190    1.000
    C6       C        0.22170    0.59890    0.73430    1.000
    C7       C        0.51380    0.70210    0.39320    1.000
    C8       C        0.75170    0.65780    0.40830    1.000
    C9       C        0.87840    0.73890    0.30770    1.000
    C10      C        0.68810    0.85850    0.12450    1.000
    C11      C        0.67890    0.73080    0.20960    1.000
    C12      C        0.91070    0.87500    0.05510    1.000
    O1       O        0.70170    0.10760    0.86970    1.000
    O2       O        0.60940    0.33310    0.85960    1.000
    O3       O        0.24960    0.00510    0.83690    1.000
    O4       O        0.17310    0.23160    0.69470    1.000
    O5       O        0.62820    0.62310    0.79060    1.000
    O6       O        0.03630    0.51970    0.69470    1.000
    O7       O        0.24350    0.73320    0.76070    1.000
    O8       O        0.38060    0.71600    0.47180    1.000
    O9       O        0.47070    0.73620    0.27820    1.000
    O10      O        0.84720    0.69600    0.52820    1.000
    O11      O        0.95840    0.88550    0.35200    1.000
    O12      O        0.49510    0.83390    0.03720    1.000
    O13      O        0.89200    0.86080    0.94120    1.000
    O14      O        0.09690    0.90260    0.11760    1.000
    O15      O        0.68670    0.90920    0.66760    1.000
