data_functionalizedCrystal
_audit_creation_method	'EQeq! by Chris Wilmer'
_symmetry_space_group_name_H-M	'P1'
_symmetry_Int_Tables_number	1
_symmetry_cell_setting	triclinic
loop_
_symmetry_equiv_pos_as_xyz
  x,y,z
_cell_length_a	6.731
_cell_length_b	22.186
_cell_length_c	7.575
_cell_angle_alpha	90
_cell_angle_beta	90
_cell_angle_gamma	90
loop_
_atom_site_label
_atom_site_type_symbol
_atom_site_fract_x
_atom_site_fract_y
_atom_site_fract_z
_atom_site_charge
Mof_Ni	Ni	0.45767	0.28894	0.24597	1.137
Mof_Ni	Ni	0.54233	0.71106	0.24597	1.137
Mof_Ni	Ni	0.95767	0.21106	0.75403	1.132
Mof_Ni	Ni	0.04233	0.78894	0.75403	1.132
Mof_H 	H 	0.3641	0.1155	0.3709	0.16
Mof_H 	H 	0.1709	0.1228	0.2513	0.159
Mof_H 	H 	0.4694	0.1289	0.0869	0.011
Mof_H 	H 	0.7065	0.1874	0.2474	0.196
Mof_H 	H 	0.0306	0.3286	0.3039	0.022
Mof_H 	H 	0.8364	0.4153	0.2929	0.082
Mof_H 	H 	0.3237	0.5099	0.1386	0.069
Mof_H 	H 	0.5054	0.4207	0.1439	0.007
Mof_H 	H 	0.6359	0.8845	0.3709	0.16
Mof_H 	H 	0.8291	0.8772	0.2513	0.159
Mof_H 	H 	0.5306	0.8711	0.0869	0.011
Mof_H 	H 	0.2935	0.8126	0.2474	0.196
Mof_H 	H 	0.9694	0.6714	0.3039	0.022
Mof_H 	H 	0.1636	0.5847	0.2929	0.082
Mof_H 	H 	0.6763	0.4901	0.1386	0.069
Mof_H 	H 	0.4946	0.5793	0.1439	0.007
Mof_H 	H 	0.8641	0.3845	0.6291	0.158
Mof_H 	H 	0.6709	0.3772	0.7487	0.157
Mof_H 	H 	0.9694	0.3711	0.9131	0.013
Mof_H 	H 	0.2065	0.3126	0.7526	0.196
Mof_H 	H 	0.5306	0.1714	0.6961	0.022
Mof_H 	H 	0.3364	0.0847	0.7071	0.078
Mof_H 	H 	0.8237	0.9901	0.8614	0.067
Mof_H 	H 	0.0054	0.0793	0.8561	0.015
Mof_H 	H 	0.1359	0.6155	0.6291	0.158
Mof_H 	H 	0.3291	0.6228	0.7487	0.157
Mof_H 	H 	0.0306	0.6289	0.9131	0.013
Mof_H 	H 	0.7935	0.6874	0.7526	0.196
Mof_H 	H 	0.4694	0.8286	0.6961	0.022
Mof_H 	H 	0.6636	0.9153	0.7071	0.078
Mof_H 	H 	0.1763	0.0099	0.8614	0.067
Mof_H 	H 	0.9946	0.9207	0.8561	0.015
Mof_C 	C 	0.2083	0.1933	0.4257	0.462
Mof_C 	C 	0.2865	0.1447	0.3004	-0.417
Mof_C 	C 	0.414	0.1651	0.1485	0.118
Mof_C 	C 	0.2892	0.2022	0.0162	0.279
Mof_C 	C 	0.0899	0.3657	0.2692	0.074
Mof_C 	C 	0.9731	0.4172	0.2624	-0.13
Mof_C 	C 	0.0581	0.472	0.2103	0.052
Mof_C 	C 	0.2607	0.4731	0.17	-0.12
Mof_C 	C 	0.3691	0.4198	0.176	0.065
Mof_C 	C 	0.7917	0.8067	0.4257	0.462
Mof_C 	C 	0.7135	0.8553	0.3004	-0.417
Mof_C 	C 	0.586	0.8349	0.1485	0.118
Mof_C 	C 	0.7108	0.7978	0.0162	0.279
Mof_C 	C 	0.9101	0.6343	0.2692	0.074
Mof_C 	C 	0.0269	0.5828	0.2624	-0.13
Mof_C 	C 	0.9419	0.528	0.2103	0.052
Mof_C 	C 	0.7393	0.5269	0.17	-0.12
Mof_C 	C 	0.6309	0.5802	0.176	0.065
Mof_C 	C 	0.7083	0.3067	0.5743	0.46
Mof_C 	C 	0.7865	0.3553	0.6996	-0.413
Mof_C 	C 	0.914	0.3349	0.8515	0.107
Mof_C 	C 	0.7892	0.2978	0.9838	0.282
Mof_C 	C 	0.5899	0.1343	0.7308	0.062
Mof_C 	C 	0.4731	0.0828	0.7376	-0.115
Mof_C 	C 	0.5581	0.028	0.7897	0.045
Mof_C 	C 	0.7607	0.0269	0.83	-0.112
Mof_C 	C 	0.8691	0.0802	0.824	0.051
Mof_C 	C 	0.2917	0.6933	0.5743	0.46
Mof_C 	C 	0.2135	0.6447	0.6996	-0.413
Mof_C 	C 	0.086	0.6651	0.8515	0.107
Mof_C 	C 	0.2108	0.7022	0.9838	0.282
Mof_C 	C 	0.4101	0.8657	0.7308	0.062
Mof_C 	C 	0.5269	0.9172	0.7376	-0.115
Mof_C 	C 	0.4419	0.972	0.7897	0.045
Mof_C 	C 	0.2393	0.9731	0.83	-0.112
Mof_C 	C 	0.1309	0.9198	0.824	0.051
Mof_N 	N 	0.2873	0.36649	0.2275	-0.21
Mof_N 	N 	0.7127	0.63351	0.2275	-0.21
Mof_N 	N 	0.7873	0.13351	0.7725	-0.208
Mof_N 	N 	0.2127	0.86649	0.7725	-0.208
Mof_O 	O 	0.2494	0.24825	0.4029	-0.431
Mof_O 	O 	0.1013	0.17298	0.547	-0.431
Mof_O 	O 	0.5761	0.20062	0.2192	-0.412
Mof_O 	O 	0.3132	0.25901	0.0206	-0.361
Mof_O 	O 	0.175	0.17454	0.9177	-0.368
Mof_O 	O 	0.7506	0.75175	0.4029	-0.431
Mof_O 	O 	0.8987	0.82702	0.547	-0.431
Mof_O 	O 	0.4239	0.79938	0.2192	-0.412
Mof_O 	O 	0.6868	0.74099	0.0206	-0.361
Mof_O 	O 	0.825	0.82546	0.9177	-0.368
Mof_O 	O 	0.7494	0.25175	0.5971	-0.434
Mof_O 	O 	0.6013	0.32702	0.453	-0.435
Mof_O 	O 	0.0761	0.29938	0.7808	-0.402
Mof_O 	O 	0.8132	0.24099	0.9794	-0.365
Mof_O 	O 	0.675	0.32546	0.0823	-0.374
Mof_O 	O 	0.2506	0.74825	0.5971	-0.434
Mof_O 	O 	0.3987	0.67298	0.453	-0.435
Mof_O 	O 	0.9239	0.70062	0.7808	-0.402
Mof_O 	O 	0.1868	0.75901	0.9794	-0.365
Mof_O 	O 	0.325	0.67454	0.0823	-0.374
_end
