data_functionalizedCrystal
_audit_creation_method	'EQeq! by Chris Wilmer'
_symmetry_space_group_name_H-M	'P1'
_symmetry_Int_Tables_number	1
_symmetry_cell_setting	triclinic
loop_
_symmetry_equiv_pos_as_xyz
  x,y,z
_cell_length_a	10.444
_cell_length_b	17.261
_cell_length_c	14.598
_cell_angle_alpha	90
_cell_angle_beta	98.461
_cell_angle_gamma	90
loop_
_atom_site_label
_atom_site_type_symbol
_atom_site_fract_x
_atom_site_fract_y
_atom_site_fract_z
_atom_site_charge
Mof_Eu	Eu	0.49692	0.12736	0.15665	2.264
Mof_Eu	Eu	0.9801	0.33497	0.09083	2.254
Mof_O 	O 	0.6104	0.00221	0.202	-0.397
Mof_O 	O 	0.39	0.05118	0.2626	-0.448
Mof_O 	O 	0.6165	0.98815	0.9267	-0.384
Mof_O 	O 	0.5692	0.09254	0.008	-0.404
Mof_O 	O 	0.7367	0.13643	0.1631	-0.407
Mof_O 	O 	0.3185	0.18244	0.0456	-0.413
Mof_O 	O 	0.3392	0.2076	0.2285	-0.434
Mof_O 	O 	0.1412	0.25845	0.0234	-0.439
Mof_O 	O 	0.1519	0.27467	0.2061	-0.398
Mof_O 	O 	0.9014	0.20919	0.1294	-0.449
Mof_O 	O 	0.741	0.32879	0.0906	-0.409
Mof_O 	O 	0.8769	0.46346	0.0574	-0.418
Mof_O 	O 	0.9212	0.58638	0.0225	-0.435
Mof_O 	O 	0.3733	0.93565	0.3303	-0.404
Mof_O 	O 	0.5787	0.88296	0.2588	-0.385
Mof_O 	O 	0.5734	0.2567	0.1236	-0.438
Mof_C 	C 	0.4261	0.9832	0.2809	0.273
Mof_C 	C 	0.5539	0.0231	0.981	0.261
Mof_C 	C 	0.233	0.2249	0.0734	0.278
Mof_C 	C 	0.2429	0.2367	0.1792	0.274
Mof_C 	C 	0.7849	0.1985	0.1378	0.268
Mof_C 	C 	0.6907	0.2678	0.1151	0.266
Mof_C 	C 	0.5497	0.9535	0.243	0.251
Mof_C 	C 	0.9414	0.5143	0.023	0.263
Mof_Eu	Eu	0.00308	0.62736	0.34335	2.268
Mof_Eu	Eu	0.5199	0.83497	0.40917	2.265
Mof_O 	O 	0.8896	0.50221	0.298	-0.395
Mof_O 	O 	0.11	0.55118	0.2374	-0.449
Mof_O 	O 	0.8835	0.48815	0.5733	-0.387
Mof_O 	O 	0.9308	0.59254	0.492	-0.404
Mof_O 	O 	0.7633	0.63643	0.3369	-0.406
Mof_O 	O 	0.1815	0.68244	0.4544	-0.415
Mof_O 	O 	0.1608	0.7076	0.2715	-0.435
Mof_O 	O 	0.3588	0.75845	0.4766	-0.443
Mof_O 	O 	0.3481	0.77467	0.2939	-0.402
Mof_O 	O 	0.5986	0.70919	0.3706	-0.448
Mof_O 	O 	0.759	0.82879	0.4094	-0.409
Mof_O 	O 	0.6231	0.96346	0.4426	-0.417
Mof_O 	O 	0.5788	0.08638	0.4775	-0.435
Mof_O 	O 	0.1267	0.43565	0.1697	-0.402
Mof_O 	O 	0.9213	0.38296	0.2412	-0.384
Mof_O 	O 	0.9266	0.7567	0.3764	-0.437
Mof_C 	C 	0.0739	0.4832	0.2191	0.279
Mof_C 	C 	0.9461	0.5231	0.519	0.267
Mof_C 	C 	0.267	0.7249	0.4266	0.278
Mof_C 	C 	0.2571	0.7367	0.3208	0.273
Mof_C 	C 	0.7151	0.6985	0.3622	0.268
Mof_C 	C 	0.8093	0.7678	0.3849	0.266
Mof_C 	C 	0.9503	0.4535	0.257	0.249
Mof_C 	C 	0.5586	0.0143	0.477	0.263
Mof_Eu	Eu	0.50308	0.87265	0.84335	2.265
Mof_Eu	Eu	0.0199	0.66503	0.90917	2.255
Mof_O 	O 	0.3896	0.99779	0.798	-0.396
Mof_O 	O 	0.61	0.94882	0.7374	-0.447
Mof_O 	O 	0.3835	0.01185	0.0733	-0.384
Mof_O 	O 	0.4308	0.90746	0.992	-0.404
Mof_O 	O 	0.2633	0.86357	0.8369	-0.407
Mof_O 	O 	0.6815	0.81756	0.9544	-0.413
Mof_O 	O 	0.6608	0.7924	0.7715	-0.434
Mof_O 	O 	0.8588	0.74155	0.9766	-0.439
Mof_O 	O 	0.8481	0.72533	0.7939	-0.398
Mof_O 	O 	0.0986	0.79081	0.8706	-0.449
Mof_O 	O 	0.259	0.67121	0.9094	-0.409
Mof_O 	O 	0.1231	0.53654	0.9426	-0.418
Mof_O 	O 	0.0788	0.41362	0.9775	-0.435
Mof_O 	O 	0.6267	0.06435	0.6697	-0.404
Mof_O 	O 	0.4213	0.11704	0.7412	-0.385
Mof_O 	O 	0.4266	0.7433	0.8764	-0.438
Mof_C 	C 	0.5739	0.0168	0.7191	0.273
Mof_C 	C 	0.4461	0.9769	0.019	0.261
Mof_C 	C 	0.767	0.7751	0.9266	0.278
Mof_C 	C 	0.7571	0.7633	0.8208	0.274
Mof_C 	C 	0.2151	0.8015	0.8622	0.268
Mof_C 	C 	0.3093	0.7322	0.8849	0.266
Mof_C 	C 	0.4503	0.0465	0.757	0.251
Mof_C 	C 	0.0586	0.4857	0.977	0.263
Mof_Eu	Eu	0.99692	0.37264	0.65665	2.268
Mof_Eu	Eu	0.4801	0.16503	0.59083	2.265
Mof_O 	O 	0.1104	0.49779	0.702	-0.395
Mof_O 	O 	0.89	0.44882	0.7626	-0.449
Mof_O 	O 	0.1165	0.51185	0.4267	-0.387
Mof_O 	O 	0.0692	0.40746	0.508	-0.404
Mof_O 	O 	0.2367	0.36357	0.6631	-0.406
Mof_O 	O 	0.8185	0.31756	0.5456	-0.415
Mof_O 	O 	0.8392	0.2924	0.7285	-0.435
Mof_O 	O 	0.6412	0.24155	0.5234	-0.443
Mof_O 	O 	0.6519	0.22533	0.7061	-0.402
Mof_O 	O 	0.4014	0.29081	0.6294	-0.448
Mof_O 	O 	0.241	0.17121	0.5906	-0.409
Mof_O 	O 	0.3769	0.03654	0.5574	-0.417
Mof_O 	O 	0.4212	0.91362	0.5225	-0.435
Mof_O 	O 	0.8733	0.56435	0.8303	-0.402
Mof_O 	O 	0.0787	0.61704	0.7588	-0.384
Mof_O 	O 	0.0734	0.2433	0.6236	-0.437
Mof_C 	C 	0.9261	0.5168	0.7809	0.279
Mof_C 	C 	0.0539	0.4769	0.481	0.267
Mof_C 	C 	0.733	0.2751	0.5734	0.278
Mof_C 	C 	0.7429	0.2633	0.6792	0.273
Mof_C 	C 	0.2849	0.3015	0.6378	0.268
Mof_C 	C 	0.1907	0.2322	0.6151	0.266
Mof_C 	C 	0.0497	0.5465	0.743	0.249
Mof_C 	C 	0.4414	0.9857	0.523	0.263
_end
