# CIF file generated by openbabel 3.1.0, see https://openbabel.org
data_I
_chemical_name_common 'image0'
_cell_length_a 21.5819
_cell_length_b 19.2279
_cell_length_c 25.74
_cell_angle_alpha 90
_cell_angle_beta 95.2863
_cell_angle_gamma 90
_space_group_name_H-M_alt 'P 1'
_space_group_name_Hall 'P 1'
loop_
    _symmetry_equiv_pos_as_xyz
    x,y,z
loop_
    _atom_site_label
    _atom_site_type_symbol
    _atom_site_fract_x
    _atom_site_fract_y
    _atom_site_fract_z
    _atom_site_occupancy
    W1       W        0.76237    0.64948    0.52995    1.000
    W2       W        0.69997    0.64716    0.66311    1.000
    W3       W        0.57954    0.55951    0.73885    1.000
    W4       W        0.44658    0.42999    0.73244    1.000
    W5       W        0.35850    0.30117    0.64116    1.000
    W6       W        0.25588    0.42381    0.60690    1.000
    W7       W        0.34737    0.55417    0.69251    1.000
    W8       W        0.47831    0.68367    0.70340    1.000
    W9       W        0.59672    0.76918    0.62449    1.000
    W10      W        0.66310    0.77546    0.49364    1.000
    O1       O        0.75080    0.55290    0.54010    1.000
    O2       O        0.74130    0.67270    0.60120    1.000
    O3       O        0.64390    0.61450    0.71260    1.000
    O4       O        0.60950    0.48630    0.70010    1.000
    O5       O        0.50630    0.50320    0.74520    1.000
    O6       O        0.51110    0.38880    0.69570    1.000
    O7       O        0.38950    0.36570    0.70410    1.000
    O8       O        0.43880    0.29170    0.63040    1.000
    O9       O        0.27870    0.34270    0.64580    1.000
    O10      O        0.37940    0.48990    0.74490    1.000
    O11      O        0.53280    0.64100    0.75670    1.000
    O12      O        0.61470    0.65630    0.60750    1.000
    O13      O        0.66880    0.74430    0.66250    1.000
    O14      O        0.65760    0.65970    0.51010    1.000
    O15      O        0.74670    0.74700    0.51180    1.000
    O16      O        0.66980    0.74420    0.42360    1.000
    O17      O        0.65080    0.78380    0.56230    1.000
    O18      O        0.54490    0.73490    0.67650    1.000
    O19      O        0.41620    0.61760    0.71260    1.000
    O20      O        0.29060    0.47800    0.66100    1.000
    O21      O        0.23620    0.37260    0.54750    1.000
    O22      O        0.17830    0.43300    0.61850    1.000
    O23      O        0.57620    0.77040    0.47460    1.000
    O24      O        0.52670    0.76360    0.57760    1.000
    O25      O        0.43890    0.69910    0.63340    1.000
    O26      O        0.33590    0.59970    0.62970    1.000
    O27      O        0.26640    0.50150    0.56300    1.000
    O28      O        0.52160    0.59160    0.66650    1.000
    O29      O        0.35770    0.39900    0.59010    1.000
    O30      O        0.42220    0.49080    0.65760    1.000
    O31      O        0.70250    0.55300    0.64370    1.000
    W11      W        0.58255    0.40486    0.65640    1.000
    W12      W        0.70278    0.49027    0.58141    1.000
    O32      O        0.37680    0.64600    0.54790    1.000
    O33      O        0.46740    0.71300    0.49970    1.000
    O34      O        0.64520    0.43700    0.61350    1.000
    P1       P        0.60850    0.63000    0.54610    1.000
    P2       P        0.47830    0.53500    0.63210    1.000
    O35      O        0.52470    0.47950    0.61390    1.000
    O36      O        0.44910    0.57750    0.58090    1.000
    O37      O        0.62360    0.55340    0.55230    1.000
    O38      O        0.54670    0.64400    0.51300    1.000
    W13      W        0.38002    0.66064    0.57765    1.000
    O39      O        0.46000    0.81600    0.48760    1.000
    W14      W        0.49775    0.74433    0.50024    1.000
    O40      O        0.53950    0.33900    0.59700    1.000
    O41      O        0.68800    0.44300    0.51730    1.000
    Cu1      Cu       0.11548    0.41587    0.68376    1.000
    Cu2      Cu       0.23671    0.33875    0.75853    1.000
    Cu3      Cu       0.27992    0.17093    0.72772    1.000
    Cu4      Cu       0.18002    0.09010    0.63911    1.000
    Cu5      Cu       0.83571    0.25356    0.34229    1.000
    N1       N        0.85870    0.36140    0.31900    1.000
    N2       N        0.84150    0.38460    0.27150    1.000
    N3       N        0.85620    0.44760    0.26490    1.000
    H1       H        0.84880    0.47020    0.23610    1.000
    N4       N        0.88670    0.47540    0.31130    1.000
    N5       N        0.98930    0.41950    0.55530    1.000
    N6       N        0.98330    0.41860    0.63330    1.000
    N7       N        0.04570    0.41520    0.62840    1.000
    N8       N        0.13660    0.30140    0.67760    1.000
    N9       N        0.18850    0.28230    0.70760    1.000
    N10      N        0.20540    0.21870    0.69680    1.000
    N11      N        0.16440    0.19610    0.65650    1.000
    N12      N        0.92590    0.24870    0.48900    1.000
    N13      N        0.86530    0.25160    0.50450    1.000
    N14      N        0.86190    0.25150    0.41760    1.000
    N15      N        0.90760    0.92050    0.38630    1.000
    N16      N        0.01080    0.93450    0.39230    1.000
    N17      N        0.99320    0.92470    0.43920    1.000
    N18      N        0.17640    0.87310    0.65230    1.000
    N19      N        0.21770    0.89750    0.69250    1.000
    N20      N        0.22290    0.96030    0.68570    1.000
    H2       H        0.24730    0.98600    0.70590    1.000
    N21      N        0.18890    0.98530    0.64570    1.000
    C1       C        0.88750    0.41970    0.34450    1.000
    C2       C        0.91920    0.42350    0.39820    1.000
    C3       C        0.88160    0.42860    0.43220    1.000
    H3       H        0.83950    0.43260    0.42110    1.000
    C4       C        0.89960    0.42850    0.48760    1.000
    H4       H        0.87240    0.43480    0.51320    1.000
    C5       C        0.96480    0.41760    0.49750    1.000
    C6       C        0.00170    0.41070    0.46160    1.000
    H5       H        0.04420    0.40540    0.47020    1.000
    C7       C        0.97650    0.41130    0.40850    1.000
    H6       H        0.00180    0.40300    0.38180    1.000
    C8       C        0.94730    0.42760    0.59410    1.000
    H7       H        0.90480    0.43700    0.59080    1.000
    C9       C        0.04620    0.41290    0.57820    1.000
    H8       H        0.08170    0.40740    0.56070    1.000
    C10      C        0.12450    0.24650    0.64870    1.000
    C11      C        0.06970    0.24580    0.60370    1.000
    C12      C        0.01490    0.24550    0.61830    1.000
    H9       H        0.00890    0.24430    0.65360    1.000
    C13      C        0.96120    0.24690    0.57870    1.000
    H10      H        0.92040    0.24770    0.58750    1.000
    C14      C        0.97540    0.24700    0.52790    1.000
    C15      C        0.03290    0.24890    0.51310    1.000
    H11      H        0.03930    0.24880    0.47780    1.000
    C16      C        0.08540    0.25110    0.55270    1.000
    H12      H        0.12630    0.25560    0.54450    1.000
    C17      C        0.92730    0.25300    0.43790    1.000
    H13      H        0.96200    0.25620    0.41920    1.000
    C18      C        0.82760    0.25340    0.45820    1.000
    H14      H        0.78440    0.25570    0.45550    1.000
    C19      C        0.96030    0.92950    0.35950    1.000
    H15      H        0.95980    0.93170    0.32340    1.000
    C20      C        0.93210    0.91390    0.43790    1.000
    H16      H        0.90990    0.90390    0.46630    1.000
    C21      C        0.03110    0.92600    0.48630    1.000
    C22      C        0.00990    0.90700    0.53300    1.000
    H17      H        0.96880    0.89480    0.53650    1.000
    C23      C        0.05570    0.90790    0.57430    1.000
    H18      H        0.04340    0.89200    0.60590    1.000
    C24      C        0.11640    0.92860    0.57550    1.000
    C25      C        0.13900    0.94420    0.52920    1.000
    H19      H        0.18080    0.95560    0.52860    1.000
    C26      C        0.09880    0.94350    0.48110    1.000
    H20      H        0.11350    0.95310    0.44900    1.000
    C27      C        0.15880    0.92740    0.62350    1.000
    O42      O        0.26400    0.10170    0.67650    1.000
    H21      H        0.29610    0.07230    0.66860    1.000
    O43      O        0.18390    0.40980    0.73210    1.000
    H22      H        0.19470    0.45270    0.74700    1.000
    O44      O        0.79780    0.24020    0.27060    1.000
    H23      H        0.83330    0.22160    0.25400    1.000
    K1       K        0.45080    0.55990    0.48210    1.000
    O45      O        0.47500    0.53100    0.48000    1.000
    P3       P        0.55350    0.59960    0.60950    1.000
    P4       P        0.62200    0.60510    0.46670    1.000
    O46      O        0.57470    0.52500    0.59620    1.000
    O47      O        0.62400    0.52840    0.48960    1.000
    O48      O        0.60850    0.48830    0.43580    1.000
    P5       P        0.58910    0.54470    0.39740    1.000
    O49      O        0.55280    0.62420    0.46200    1.000
    W15      W        0.28655    0.53376    0.49338    1.000
    O50      O        0.33110    0.59560    0.52140    1.000
    O51      O        0.32080    0.55000    0.42750    1.000
    W16      W        0.34560    0.53659    0.36114    1.000
    W17      W        0.47483    0.66619    0.36664    1.000
    O52      O        0.41240    0.61600    0.37010    1.000
    O53      O        0.47300    0.69700    0.43270    1.000
    O54      O        0.43230    0.69820    0.52940    1.000
    O55      O        0.52220    0.58180    0.40780    1.000
    O56      O        0.50410    0.62020    0.57320    1.000
    W18      W        0.31699    0.58352    0.55287    1.000
    W19      W        0.44441    0.71542    0.56417    1.000
    W20      W        0.50625    0.72081    0.43349    1.000
    O57      O        0.40600    0.78600    0.55800    1.000
    O58      O        0.47180    0.79910    0.41080    1.000
    W21      W        0.73763    0.14948    0.97005    1.000
    W22      W        0.80003    0.14716    0.83689    1.000
    W23      W        0.92046    0.05951    0.76115    1.000
    W24      W        0.05342    0.92999    0.76756    1.000
    W25      W        0.14150    0.80117    0.85884    1.000
    W26      W        0.24412    0.92381    0.89310    1.000
    W27      W        0.15263    0.05417    0.80749    1.000
    W28      W        0.02169    0.18367    0.79660    1.000
    W29      W        0.90328    0.26918    0.87551    1.000
    W30      W        0.83690    0.27546    0.00636    1.000
    O59      O        0.74920    0.05290    0.95990    1.000
    O60      O        0.75870    0.17270    0.89880    1.000
    O61      O        0.85610    0.11450    0.78740    1.000
    O62      O        0.89050    0.98630    0.79990    1.000
    O63      O        0.99370    0.00320    0.75480    1.000
    O64      O        0.98890    0.88880    0.80430    1.000
    O65      O        0.11050    0.86570    0.79590    1.000
    O66      O        0.06120    0.79170    0.86960    1.000
    O67      O        0.22130    0.84270    0.85420    1.000
    O68      O        0.12060    0.98990    0.75510    1.000
    O69      O        0.96720    0.14100    0.74330    1.000
    O70      O        0.88530    0.15630    0.89250    1.000
    O71      O        0.83120    0.24430    0.83750    1.000
    O72      O        0.84240    0.15970    0.98990    1.000
    O73      O        0.75330    0.24700    0.98820    1.000
    O74      O        0.83020    0.24420    0.07640    1.000
    O75      O        0.84920    0.28380    0.93770    1.000
    O76      O        0.95510    0.23490    0.82350    1.000
    O77      O        0.08380    0.11760    0.78740    1.000
    O78      O        0.20940    0.97800    0.83900    1.000
    O79      O        0.26380    0.87260    0.95250    1.000
    O80      O        0.32170    0.93300    0.88150    1.000
    O81      O        0.92380    0.27040    0.02540    1.000
    O82      O        0.97330    0.26360    0.92240    1.000
    O83      O        0.06110    0.19910    0.86660    1.000
    O84      O        0.16410    0.09970    0.87030    1.000
    O85      O        0.23360    0.00150    0.93700    1.000
    O86      O        0.97840    0.09160    0.83350    1.000
    O87      O        0.14230    0.89900    0.90990    1.000
    O88      O        0.07780    0.99080    0.84240    1.000
    O89      O        0.79750    0.05300    0.85630    1.000
    W31      W        0.91745    0.90486    0.84360    1.000
    W32      W        0.79722    0.99027    0.91859    1.000
    O90      O        0.12320    0.14600    0.95210    1.000
    O91      O        0.03260    0.21300    0.00030    1.000
    O92      O        0.85480    0.93700    0.88650    1.000
    P6       P        0.89150    0.13000    0.95390    1.000
    P7       P        0.02170    0.03500    0.86790    1.000
    O93      O        0.97530    0.97950    0.88610    1.000
    O94      O        0.05090    0.07750    0.91910    1.000
    O95      O        0.87640    0.05340    0.94770    1.000
    O96      O        0.95330    0.14400    0.98700    1.000
    W33      W        0.11998    0.16064    0.92235    1.000
    O97      O        0.04000    0.31600    0.01240    1.000
    W34      W        0.00225    0.24433    0.99976    1.000
    O98      O        0.96050    0.83900    0.90300    1.000
    O99      O        0.81200    0.94300    0.98270    1.000
    Cu6      Cu       0.38452    0.91587    0.81624    1.000
    Cu7      Cu       0.26329    0.83875    0.74147    1.000
    Cu8      Cu       0.22008    0.67093    0.77228    1.000
    Cu9      Cu       0.31998    0.59010    0.86089    1.000
    Cu10     Cu       0.66429    0.75356    0.15771    1.000
    N22      N        0.64130    0.86140    0.18100    1.000
    N23      N        0.65850    0.88460    0.22850    1.000
    N24      N        0.64380    0.94760    0.23510    1.000
    H24      H        0.65120    0.97020    0.26390    1.000
    N25      N        0.61330    0.97540    0.18870    1.000
    N26      N        0.51070    0.91950    0.94470    1.000
    N27      N        0.51670    0.91860    0.86670    1.000
    N28      N        0.45430    0.91520    0.87160    1.000
    N29      N        0.36340    0.80140    0.82240    1.000
    N30      N        0.31150    0.78230    0.79240    1.000
    N31      N        0.29460    0.71870    0.80320    1.000
    N32      N        0.33560    0.69610    0.84350    1.000
    N33      N        0.57410    0.74870    0.01100    1.000
    N34      N        0.63470    0.75160    0.99550    1.000
    N35      N        0.63810    0.75150    0.08240    1.000
    N36      N        0.59240    0.42050    0.11370    1.000
    N37      N        0.48920    0.43450    0.10770    1.000
    N38      N        0.50680    0.42470    0.06080    1.000
    N39      N        0.32360    0.37310    0.84770    1.000
    N40      N        0.28230    0.39750    0.80750    1.000
    N41      N        0.27710    0.46030    0.81430    1.000
    H25      H        0.25270    0.48600    0.79410    1.000
    N42      N        0.31110    0.48530    0.85430    1.000
    C28      C        0.61250    0.91970    0.15550    1.000
    C29      C        0.58080    0.92350    0.10180    1.000
    C30      C        0.61840    0.92860    0.06780    1.000
    H26      H        0.66050    0.93260    0.07890    1.000
    C31      C        0.60040    0.92850    0.01240    1.000
    H27      H        0.62760    0.93480    0.98680    1.000
    C32      C        0.53520    0.91760    0.00250    1.000
    C33      C        0.49830    0.91070    0.03840    1.000
    H28      H        0.45580    0.90540    0.02980    1.000
    C34      C        0.52350    0.91130    0.09150    1.000
    H29      H        0.49820    0.90300    0.11820    1.000
    C35      C        0.55270    0.92760    0.90590    1.000
    H30      H        0.59520    0.93700    0.90920    1.000
    C36      C        0.45380    0.91290    0.92180    1.000
    H31      H        0.41830    0.90740    0.93930    1.000
    C37      C        0.37550    0.74650    0.85130    1.000
    C38      C        0.43030    0.74580    0.89630    1.000
    C39      C        0.48510    0.74550    0.88170    1.000
    H32      H        0.49110    0.74430    0.84640    1.000
    C40      C        0.53880    0.74690    0.92130    1.000
    H33      H        0.57960    0.74770    0.91250    1.000
    C41      C        0.52460    0.74700    0.97210    1.000
    C42      C        0.46710    0.74890    0.98690    1.000
    H34      H        0.46070    0.74880    0.02220    1.000
    C43      C        0.41460    0.75110    0.94730    1.000
    H35      H        0.37370    0.75560    0.95550    1.000
    C44      C        0.57270    0.75300    0.06210    1.000
    H36      H        0.53800    0.75620    0.08080    1.000
    C45      C        0.67240    0.75340    0.04180    1.000
    H37      H        0.71560    0.75570    0.04450    1.000
    C46      C        0.53970    0.42950    0.14050    1.000
    H38      H        0.54020    0.43170    0.17660    1.000
    C47      C        0.56790    0.41390    0.06210    1.000
    H39      H        0.59010    0.40390    0.03370    1.000
    C48      C        0.46890    0.42600    0.01370    1.000
    C49      C        0.49010    0.40700    0.96700    1.000
    H40      H        0.53120    0.39480    0.96350    1.000
    C50      C        0.44430    0.40790    0.92570    1.000
    H41      H        0.45660    0.39200    0.89410    1.000
    C51      C        0.38360    0.42860    0.92450    1.000
    C52      C        0.36100    0.44420    0.97080    1.000
    H42      H        0.31920    0.45560    0.97140    1.000
    C53      C        0.40120    0.44350    0.01890    1.000
    H43      H        0.38650    0.45310    0.05100    1.000
    C54      C        0.34120    0.42740    0.87650    1.000
    O100     O        0.23600    0.60170    0.82350    1.000
    H44      H        0.20390    0.57230    0.83140    1.000
    O101     O        0.31610    0.90980    0.76790    1.000
    H45      H        0.30530    0.95270    0.75300    1.000
    O102     O        0.70220    0.74020    0.22940    1.000
    H46      H        0.66670    0.72160    0.24600    1.000
    K2       K        0.04920    0.05990    0.01790    1.000
    O103     O        0.02500    0.03100    0.02000    1.000
    P8       P        0.94650    0.09960    0.89050    1.000
    P9       P        0.87800    0.10510    0.03330    1.000
    O104     O        0.92530    0.02500    0.90380    1.000
    O105     O        0.87600    0.02840    0.01040    1.000
    O106     O        0.89150    0.98830    0.06420    1.000
    P10      P        0.91090    0.04470    0.10260    1.000
    O107     O        0.94720    0.12420    0.03800    1.000
    W35      W        0.21345    0.03376    0.00662    1.000
    O108     O        0.16890    0.09560    0.97860    1.000
    O109     O        0.17920    0.05000    0.07250    1.000
    W36      W        0.15440    0.03659    0.13886    1.000
    W37      W        0.02517    0.16619    0.13336    1.000
    O110     O        0.08760    0.11600    0.12990    1.000
    O111     O        0.02700    0.19700    0.06730    1.000
    O112     O        0.06770    0.19820    0.97060    1.000
    O113     O        0.97780    0.08180    0.09220    1.000
    O114     O        0.99590    0.12020    0.92680    1.000
    W38      W        0.18301    0.08352    0.94713    1.000
    W39      W        0.05559    0.21542    0.93583    1.000
    W40      W        0.99375    0.22081    0.06651    1.000
    O115     O        0.09400    0.28600    0.94200    1.000
    O116     O        0.02820    0.29910    0.08920    1.000
    W41      W        0.23763    0.35052    0.47005    1.000
    W42      W        0.30003    0.35284    0.33689    1.000
    W43      W        0.42046    0.44049    0.26115    1.000
    W44      W        0.55342    0.57001    0.26756    1.000
    W45      W        0.64150    0.69883    0.35884    1.000
    W46      W        0.74412    0.57619    0.39310    1.000
    W47      W        0.65263    0.44583    0.30749    1.000
    W48      W        0.52169    0.31633    0.29660    1.000
    W49      W        0.40328    0.23082    0.37551    1.000
    W50      W        0.33690    0.22454    0.50636    1.000
    O117     O        0.24920    0.44710    0.45990    1.000
    O118     O        0.25870    0.32730    0.39880    1.000
    O119     O        0.35610    0.38550    0.28740    1.000
    O120     O        0.39050    0.51370    0.29990    1.000
    O121     O        0.49370    0.49680    0.25480    1.000
    O122     O        0.48890    0.61120    0.30430    1.000
    O123     O        0.61050    0.63430    0.29590    1.000
    O124     O        0.56120    0.70830    0.36960    1.000
    O125     O        0.72130    0.65730    0.35420    1.000
    O126     O        0.62060    0.51010    0.25510    1.000
    O127     O        0.46720    0.35900    0.24330    1.000
    O128     O        0.38530    0.34370    0.39250    1.000
    O129     O        0.33120    0.25570    0.33750    1.000
    O130     O        0.34240    0.34030    0.48990    1.000
    O131     O        0.25330    0.25300    0.48820    1.000
    O132     O        0.33020    0.25580    0.57640    1.000
    O133     O        0.34920    0.21620    0.43770    1.000
    O134     O        0.45510    0.26510    0.32350    1.000
    O135     O        0.58380    0.38240    0.28740    1.000
    O136     O        0.70940    0.52200    0.33900    1.000
    O137     O        0.76380    0.62740    0.45250    1.000
    O138     O        0.82170    0.56700    0.38150    1.000
    O139     O        0.42380    0.22960    0.52540    1.000
    O140     O        0.47330    0.23640    0.42240    1.000
    O141     O        0.56110    0.30090    0.36660    1.000
    O142     O        0.66410    0.40030    0.37030    1.000
    O143     O        0.73360    0.49850    0.43700    1.000
    O144     O        0.47840    0.40840    0.33350    1.000
    O145     O        0.64230    0.60100    0.40990    1.000
    O146     O        0.57780    0.50920    0.34240    1.000
    O147     O        0.29750    0.44700    0.35630    1.000
    W51      W        0.41745    0.59514    0.34360    1.000
    W52      W        0.29722    0.50973    0.41859    1.000
    O148     O        0.62320    0.35400    0.45210    1.000
    O149     O        0.53260    0.28700    0.50030    1.000
    O150     O        0.35480    0.56300    0.38650    1.000
    P11      P        0.39150    0.37000    0.45390    1.000
    P12      P        0.52170    0.46500    0.36790    1.000
    O151     O        0.47530    0.52050    0.38610    1.000
    O152     O        0.55090    0.42250    0.41910    1.000
    O153     O        0.37640    0.44660    0.44770    1.000
    O154     O        0.45330    0.35600    0.48700    1.000
    W53      W        0.61998    0.33936    0.42235    1.000
    O155     O        0.54000    0.18400    0.51240    1.000
    W54      W        0.50225    0.25567    0.49976    1.000
    O156     O        0.46050    0.66100    0.40300    1.000
    O157     O        0.31200    0.55700    0.48270    1.000
    Cu11     Cu       0.88452    0.58413    0.31624    1.000
    Cu12     Cu       0.76329    0.66125    0.24147    1.000
    Cu13     Cu       0.72008    0.82907    0.27228    1.000
    Cu14     Cu       0.81998    0.90990    0.36089    1.000
    Cu15     Cu       0.16429    0.74644    0.65771    1.000
    N43      N        0.14130    0.63860    0.68100    1.000
    N44      N        0.15850    0.61540    0.72850    1.000
    N45      N        0.14380    0.55240    0.73510    1.000
    H47      H        0.15120    0.52980    0.76390    1.000
    N46      N        0.11330    0.52460    0.68870    1.000
    N47      N        0.01070    0.58050    0.44470    1.000
    N48      N        0.01670    0.58140    0.36670    1.000
    N49      N        0.95430    0.58480    0.37160    1.000
    N50      N        0.86340    0.69860    0.32240    1.000
    N51      N        0.81150    0.71770    0.29240    1.000
    N52      N        0.79460    0.78130    0.30320    1.000
    N53      N        0.83560    0.80390    0.34350    1.000
    N54      N        0.07410    0.75130    0.51100    1.000
    N55      N        0.13470    0.74840    0.49550    1.000
    N56      N        0.13810    0.74850    0.58240    1.000
    N57      N        0.09240    0.07950    0.61370    1.000
    N58      N        0.98920    0.06550    0.60770    1.000
    N59      N        0.00680    0.07530    0.56080    1.000
    N60      N        0.82360    0.12690    0.34770    1.000
    N61      N        0.78230    0.10250    0.30750    1.000
    N62      N        0.77710    0.03970    0.31430    1.000
    H48      H        0.75270    0.01400    0.29410    1.000
    N63      N        0.81110    0.01470    0.35430    1.000
    C55      C        0.11250    0.58030    0.65550    1.000
    C56      C        0.08080    0.57650    0.60180    1.000
    C57      C        0.11840    0.57140    0.56780    1.000
    H49      H        0.16050    0.56740    0.57890    1.000
    C58      C        0.10040    0.57150    0.51240    1.000
    H50      H        0.12760    0.56520    0.48680    1.000
    C59      C        0.03520    0.58240    0.50250    1.000
    C60      C        0.99830    0.58930    0.53840    1.000
    H51      H        0.95580    0.59460    0.52980    1.000
    C61      C        0.02350    0.58870    0.59150    1.000
    H52      H        0.99820    0.59700    0.61820    1.000
    C62      C        0.05270    0.57240    0.40590    1.000
    H53      H        0.09520    0.56300    0.40920    1.000
    C63      C        0.95380    0.58710    0.42180    1.000
    H54      H        0.91830    0.59260    0.43930    1.000
    C64      C        0.87550    0.75350    0.35130    1.000
    C65      C        0.93030    0.75420    0.39630    1.000
    C66      C        0.98510    0.75450    0.38170    1.000
    H55      H        0.99110    0.75570    0.34640    1.000
    C67      C        0.03880    0.75310    0.42130    1.000
    H56      H        0.07960    0.75230    0.41250    1.000
    C68      C        0.02460    0.75300    0.47210    1.000
    C69      C        0.96710    0.75110    0.48690    1.000
    H57      H        0.96070    0.75120    0.52220    1.000
    C70      C        0.91460    0.74890    0.44730    1.000
    H58      H        0.87370    0.74440    0.45550    1.000
    C71      C        0.07270    0.74700    0.56210    1.000
    H59      H        0.03800    0.74380    0.58080    1.000
    C72      C        0.17240    0.74660    0.54180    1.000
    H60      H        0.21560    0.74430    0.54450    1.000
    C73      C        0.03970    0.07050    0.64050    1.000
    H61      H        0.04020    0.06830    0.67660    1.000
    C74      C        0.06790    0.08610    0.56210    1.000
    H62      H        0.09010    0.09610    0.53370    1.000
    C75      C        0.96890    0.07400    0.51370    1.000
    C76      C        0.99010    0.09300    0.46700    1.000
    H63      H        0.03120    0.10520    0.46350    1.000
    C77      C        0.94430    0.09210    0.42570    1.000
    H64      H        0.95660    0.10800    0.39410    1.000
    C78      C        0.88360    0.07140    0.42450    1.000
    C79      C        0.86100    0.05580    0.47080    1.000
    H65      H        0.81920    0.04440    0.47140    1.000
    C80      C        0.90120    0.05650    0.51890    1.000
    H66      H        0.88650    0.04690    0.55100    1.000
    C81      C        0.84120    0.07260    0.37650    1.000
    O158     O        0.73600    0.89830    0.32350    1.000
    H67      H        0.70390    0.92770    0.33140    1.000
    O159     O        0.81610    0.59020    0.26790    1.000
    H68      H        0.80530    0.54730    0.25300    1.000
    O160     O        0.20220    0.75980    0.72940    1.000
    H69      H        0.16670    0.77840    0.74600    1.000
    K3       K        0.54920    0.44010    0.51790    1.000
    O161     O        0.52500    0.46900    0.52000    1.000
    P13      P        0.44650    0.40040    0.39050    1.000
    P14      P        0.37800    0.39490    0.53330    1.000
    O162     O        0.42530    0.47500    0.40380    1.000
    O163     O        0.37600    0.47160    0.51040    1.000
    O164     O        0.39150    0.51170    0.56420    1.000
    P15      P        0.41090    0.45530    0.60260    1.000
    O165     O        0.44720    0.37580    0.53800    1.000
    W55      W        0.71345    0.46624    0.50662    1.000
    O166     O        0.66890    0.40440    0.47860    1.000
    O167     O        0.67920    0.45000    0.57250    1.000
    W56      W        0.65440    0.46341    0.63886    1.000
    W57      W        0.52517    0.33381    0.63336    1.000
    O168     O        0.58760    0.38400    0.62990    1.000
    O169     O        0.52700    0.30300    0.56730    1.000
    O170     O        0.56770    0.30180    0.47060    1.000
    O171     O        0.47780    0.41820    0.59220    1.000
    O172     O        0.49590    0.37980    0.42680    1.000
    W58      W        0.68301    0.41648    0.44713    1.000
    W59      W        0.55559    0.28458    0.43583    1.000
    W60      W        0.49375    0.27919    0.56651    1.000
    O173     O        0.59400    0.21400    0.44200    1.000
    O174     O        0.52820    0.20090    0.58920    1.000
    W61      W        0.26237    0.85052    0.02995    1.000
    W62      W        0.19997    0.85284    0.16311    1.000
    W63      W        0.07954    0.94049    0.23885    1.000
    W64      W        0.94658    0.07001    0.23244    1.000
    W65      W        0.85850    0.19883    0.14116    1.000
    W66      W        0.75588    0.07619    0.10690    1.000
    W67      W        0.84737    0.94583    0.19251    1.000
    W68      W        0.97831    0.81633    0.20340    1.000
    W69      W        0.09672    0.73082    0.12449    1.000
    W70      W        0.16310    0.72454    0.99364    1.000
    O175     O        0.25080    0.94710    0.04010    1.000
    O176     O        0.24130    0.82730    0.10120    1.000
    O177     O        0.14390    0.88550    0.21260    1.000
    O178     O        0.10950    0.01370    0.20010    1.000
    O179     O        0.00630    0.99680    0.24520    1.000
    O180     O        0.01110    0.11120    0.19570    1.000
    O181     O        0.88950    0.13430    0.20410    1.000
    O182     O        0.93880    0.20830    0.13040    1.000
    O183     O        0.77870    0.15730    0.14580    1.000
    O184     O        0.87940    0.01010    0.24490    1.000
    O185     O        0.03280    0.85900    0.25670    1.000
    O186     O        0.11470    0.84370    0.10750    1.000
    O187     O        0.16880    0.75570    0.16250    1.000
    O188     O        0.15760    0.84030    0.01010    1.000
    O189     O        0.24670    0.75300    0.01180    1.000
    O190     O        0.16980    0.75580    0.92360    1.000
    O191     O        0.15080    0.71620    0.06230    1.000
    O192     O        0.04490    0.76510    0.17650    1.000
    O193     O        0.91620    0.88240    0.21260    1.000
    O194     O        0.79060    0.02200    0.16100    1.000
    O195     O        0.73620    0.12740    0.04750    1.000
    O196     O        0.67830    0.06700    0.11850    1.000
    O197     O        0.07620    0.72960    0.97460    1.000
    O198     O        0.02670    0.73640    0.07760    1.000
    O199     O        0.93890    0.80090    0.13340    1.000
    O200     O        0.83590    0.90030    0.12970    1.000
    O201     O        0.76640    0.99850    0.06300    1.000
    O202     O        0.02160    0.90840    0.16650    1.000
    O203     O        0.85770    0.10100    0.09010    1.000
    O204     O        0.92220    0.00920    0.15760    1.000
    O205     O        0.20250    0.94700    0.14370    1.000
    W71      W        0.08255    0.09514    0.15640    1.000
    W72      W        0.20278    0.00973    0.08141    1.000
    O206     O        0.87680    0.85400    0.04790    1.000
    O207     O        0.96740    0.78700    0.99970    1.000
    O208     O        0.14520    0.06300    0.11350    1.000
    P16      P        0.10850    0.87000    0.04610    1.000
    P17      P        0.97830    0.96500    0.13210    1.000
    O209     O        0.02470    0.02050    0.11390    1.000
    O210     O        0.94910    0.92250    0.08090    1.000
    O211     O        0.12360    0.94660    0.05230    1.000
    O212     O        0.04670    0.85600    0.01300    1.000
    W73      W        0.88002    0.83936    0.07765    1.000
    O213     O        0.96000    0.68400    0.98760    1.000
    W74      W        0.99775    0.75567    0.00024    1.000
    O214     O        0.03950    0.16100    0.09700    1.000
    O215     O        0.18800    0.05700    0.01730    1.000
    Cu16     Cu       0.61548    0.08413    0.18376    1.000
    Cu17     Cu       0.73671    0.16125    0.25853    1.000
    Cu18     Cu       0.77992    0.32907    0.22772    1.000
    Cu19     Cu       0.68002    0.40990    0.13911    1.000
    Cu20     Cu       0.33571    0.24644    0.84229    1.000
    N64      N        0.35870    0.13860    0.81900    1.000
    N65      N        0.34150    0.11540    0.77150    1.000
    N66      N        0.35620    0.05240    0.76490    1.000
    H70      H        0.34880    0.02980    0.73610    1.000
    N67      N        0.38670    0.02460    0.81130    1.000
    N68      N        0.48930    0.08050    0.05530    1.000
    N69      N        0.48330    0.08140    0.13330    1.000
    N70      N        0.54570    0.08480    0.12840    1.000
    N71      N        0.63660    0.19860    0.17760    1.000
    N72      N        0.68850    0.21770    0.20760    1.000
    N73      N        0.70540    0.28130    0.19680    1.000
    N74      N        0.66440    0.30390    0.15650    1.000
    N75      N        0.42590    0.25130    0.98900    1.000
    N76      N        0.36530    0.24840    0.00450    1.000
    N77      N        0.36190    0.24850    0.91760    1.000
    N78      N        0.40760    0.57950    0.88630    1.000
    N79      N        0.51080    0.56550    0.89230    1.000
    N80      N        0.49320    0.57530    0.93920    1.000
    N81      N        0.67640    0.62690    0.15230    1.000
    N82      N        0.71770    0.60250    0.19250    1.000
    N83      N        0.72290    0.53970    0.18570    1.000
    H71      H        0.74730    0.51400    0.20590    1.000
    N84      N        0.68890    0.51470    0.14570    1.000
    C82      C        0.38750    0.08030    0.84450    1.000
    C83      C        0.41920    0.07650    0.89820    1.000
    C84      C        0.38160    0.07140    0.93220    1.000
    H72      H        0.33950    0.06740    0.92110    1.000
    C85      C        0.39960    0.07150    0.98760    1.000
    H73      H        0.37240    0.06520    0.01320    1.000
    C86      C        0.46480    0.08240    0.99750    1.000
    C87      C        0.50170    0.08930    0.96160    1.000
    H74      H        0.54420    0.09460    0.97020    1.000
    C88      C        0.47650    0.08870    0.90850    1.000
    H75      H        0.50180    0.09700    0.88180    1.000
    C89      C        0.44730    0.07240    0.09410    1.000
    H76      H        0.40480    0.06300    0.09080    1.000
    C90      C        0.54620    0.08710    0.07820    1.000
    H77      H        0.58170    0.09260    0.06070    1.000
    C91      C        0.62450    0.25350    0.14870    1.000
    C92      C        0.56970    0.25420    0.10370    1.000
    C93      C        0.51490    0.25450    0.11830    1.000
    H78      H        0.50890    0.25570    0.15360    1.000
    C94      C        0.46120    0.25310    0.07870    1.000
    H79      H        0.42040    0.25230    0.08750    1.000
    C95      C        0.47540    0.25300    0.02790    1.000
    C96      C        0.53290    0.25110    0.01310    1.000
    H80      H        0.53930    0.25120    0.97780    1.000
    C97      C        0.58540    0.24890    0.05270    1.000
    H81      H        0.62630    0.24440    0.04450    1.000
    C98      C        0.42730    0.24700    0.93790    1.000
    H82      H        0.46200    0.24380    0.91920    1.000
    C99      C        0.32760    0.24660    0.95820    1.000
    H83      H        0.28440    0.24430    0.95550    1.000
    C100     C        0.46030    0.57050    0.85950    1.000
    H84      H        0.45980    0.56830    0.82340    1.000
    C101     C        0.43210    0.58610    0.93790    1.000
    H85      H        0.40990    0.59610    0.96630    1.000
    C102     C        0.53110    0.57400    0.98630    1.000
    C103     C        0.50990    0.59300    0.03300    1.000
    H86      H        0.46880    0.60520    0.03650    1.000
    C104     C        0.55570    0.59210    0.07430    1.000
    H87      H        0.54340    0.60800    0.10590    1.000
    C105     C        0.61640    0.57140    0.07550    1.000
    C106     C        0.63900    0.55580    0.02920    1.000
    H88      H        0.68080    0.54440    0.02860    1.000
    C107     C        0.59880    0.55650    0.98110    1.000
    H89      H        0.61350    0.54690    0.94900    1.000
    C108     C        0.65880    0.57260    0.12350    1.000
    O216     O        0.76400    0.39830    0.17650    1.000
    H90      H        0.79610    0.42770    0.16860    1.000
    O217     O        0.68390    0.09020    0.23210    1.000
    H91      H        0.69470    0.04730    0.24700    1.000
    O218     O        0.29780    0.25980    0.77060    1.000
    H92      H        0.33330    0.27840    0.75400    1.000
    K4       K        0.95080    0.94010    0.98210    1.000
    O219     O        0.97500    0.96900    0.98000    1.000
    P18      P        0.05350    0.90040    0.10950    1.000
    P19      P        0.12200    0.89490    0.96670    1.000
    O220     O        0.07470    0.97500    0.09620    1.000
    O221     O        0.12400    0.97160    0.98960    1.000
    O222     O        0.10850    0.01170    0.93580    1.000
    P20      P        0.08910    0.95530    0.89740    1.000
    O223     O        0.05280    0.87580    0.96200    1.000
    W75      W        0.78655    0.96624    0.99338    1.000
    O224     O        0.83110    0.90440    0.02140    1.000
    O225     O        0.82080    0.95000    0.92750    1.000
    W76      W        0.84560    0.96341    0.86114    1.000
    W77      W        0.97483    0.83381    0.86664    1.000
    O226     O        0.91240    0.88400    0.87010    1.000
    O227     O        0.97300    0.80300    0.93270    1.000
    O228     O        0.93230    0.80180    0.02940    1.000
    O229     O        0.02220    0.91820    0.90780    1.000
    O230     O        0.00410    0.87980    0.07320    1.000
    W78      W        0.81699    0.91648    0.05287    1.000
    W79      W        0.94441    0.78458    0.06417    1.000
    W80      W        0.00625    0.77919    0.93349    1.000
    O231     O        0.90600    0.71400    0.05800    1.000
    O232     O        0.97180    0.70090    0.91080    1.000
