data_functionalizedCrystal
_audit_creation_method	'EQeq! by Chris Wilmer'
_symmetry_space_group_name_H-M	'P1'
_symmetry_Int_Tables_number	1
_symmetry_cell_setting	triclinic
loop_
_symmetry_equiv_pos_as_xyz
  x,y,z
_cell_length_a	14.6235
_cell_length_b	12.2856
_cell_length_c	14.1355
_cell_angle_alpha	90
_cell_angle_beta	106.068
_cell_angle_gamma	90
loop_
_atom_site_label
_atom_site_type_symbol
_atom_site_fract_x
_atom_site_fract_y
_atom_site_fract_z
_atom_site_charge
Mof_Zn	Zn	0.3411	0.9775	0.6467	1.224
Mof_O 	O 	0.2465	0.0981	0.6647	-0.43
Mof_O 	O 	0.1728	0.2496	0.6111	-0.427
Mof_O 	O 	0.4728	0.2469	0.2909	-0.428
Mof_O 	O 	0.5387	0.1097	0.3857	-0.442
Mof_N 	N 	0.347	0.0967	0.5398	-0.227
Mof_C 	C 	0.2954	0.1875	0.5422	-0.031
Mof_C 	C 	0.2964	0.2755	0.4832	-0.069
Mof_H 	H 	0.2576	0.3354	0.4835	0.066
Mof_C 	C 	0.3561	0.2733	0.4236	0.052
Mof_H 	H 	0.3604	0.3341	0.3859	0.026
Mof_C 	C 	0.4089	0.1837	0.4189	-0.152
Mof_C 	C 	0.3985	0.0936	0.475	0.097
Mof_H 	H 	0.4285	0.0289	0.4671	0.005
Mof_C 	C 	0.4771	0.182	0.358	0.427
Mof_C 	C 	0.2335	0.1821	0.6103	0.35
Mof_Zn	Zn	0.4228	0.7559	0.7997	1.216
Mof_O 	O 	0.4079	0.9253	0.7862	-0.551
Mof_O 	O 	0.4773	0.0865	0.8235	-0.278
Mof_O 	O 	0.8294	0.7905	0.1757	-0.467
Mof_O 	O 	0.7491	0.6389	0.1097	-0.474
Mof_N 	N 	0.5429	0.8143	0.911	-0.225
Mof_C 	C 	0.5514	0.9234	0.9121	0.006
Mof_C 	C 	0.6208	0.974	0.9806	-0.097
Mof_H 	H 	0.6214	0.0497	0.9821	0.081
Mof_C 	C 	0.6888	0.9204	0.0465	0.067
Mof_H 	H 	0.7372	0.9575	0.0916	0.026
Mof_C 	C 	0.6853	0.8068	0.0458	-0.14
Mof_C 	C 	0.6117	0.7561	0.9775	0.094
Mof_H 	H 	0.6086	0.6805	0.9765	-0.006
Mof_C 	C 	0.7619	0.7438	0.1152	0.402
Mof_C 	C 	0.4736	0.986	0.8359	0.304
Mof_Zn	Zn	0.1589	0.4775	0.8533	1.225
Mof_O 	O 	0.2535	0.5981	0.8353	-0.43
Mof_O 	O 	0.3272	0.7496	0.8889	-0.426
Mof_O 	O 	0.0272	0.7469	0.2091	-0.426
Mof_O 	O 	0.9613	0.6097	0.1143	-0.442
Mof_N 	N 	0.153	0.5967	0.9602	-0.227
Mof_C 	C 	0.2046	0.6875	0.9578	-0.033
Mof_C 	C 	0.2036	0.7755	0.0168	-0.068
Mof_H 	H 	0.2424	0.8354	0.0165	0.066
Mof_C 	C 	0.1439	0.7733	0.0764	0.051
Mof_H 	H 	0.1396	0.8341	0.1141	0.027
Mof_C 	C 	0.0911	0.6837	0.0811	-0.151
Mof_C 	C 	0.1015	0.5936	0.025	0.096
Mof_H 	H 	0.0715	0.5289	0.0329	0.005
Mof_C 	C 	0.0229	0.682	0.142	0.426
Mof_C 	C 	0.2665	0.6821	0.8897	0.35
Mof_Zn	Zn	0.0772	0.2559	0.7003	1.216
Mof_O 	O 	0.0921	0.4253	0.7138	-0.552
Mof_O 	O 	0.0227	0.5865	0.6765	-0.279
Mof_O 	O 	0.6706	0.2905	0.3243	-0.467
Mof_O 	O 	0.7509	0.1389	0.3903	-0.474
Mof_N 	N 	0.9571	0.3143	0.589	-0.224
Mof_C 	C 	0.9486	0.4234	0.5879	0.002
Mof_C 	C 	0.8792	0.474	0.5194	-0.088
Mof_H 	H 	0.8786	0.5497	0.5179	0.077
Mof_C 	C 	0.8112	0.4204	0.4535	0.06
Mof_H 	H 	0.7628	0.4575	0.4084	0.028
Mof_C 	C 	0.8147	0.3068	0.4542	-0.139
Mof_C 	C 	0.8883	0.2561	0.5225	0.094
Mof_H 	H 	0.8914	0.1805	0.5235	-0.006
Mof_C 	C 	0.7381	0.2438	0.3848	0.401
Mof_C 	C 	0.0264	0.486	0.6641	0.307
Mof_Zn	Zn	0.6589	0.0225	0.3533	1.225
Mof_O 	O 	0.7535	0.9019	0.3353	-0.429
Mof_O 	O 	0.8272	0.7504	0.3889	-0.426
Mof_O 	O 	0.5272	0.7531	0.7091	-0.427
Mof_O 	O 	0.4613	0.8903	0.6143	-0.442
Mof_N 	N 	0.653	0.9033	0.4602	-0.227
Mof_C 	C 	0.7046	0.8125	0.4578	-0.031
Mof_C 	C 	0.7036	0.7245	0.5168	-0.069
Mof_H 	H 	0.7424	0.6646	0.5165	0.066
Mof_C 	C 	0.6439	0.7267	0.5764	0.052
Mof_H 	H 	0.6396	0.6659	0.6141	0.026
Mof_C 	C 	0.5911	0.8163	0.5811	-0.152
Mof_C 	C 	0.6015	0.9064	0.525	0.097
Mof_H 	H 	0.5715	0.9711	0.5329	0.005
Mof_C 	C 	0.5229	0.818	0.642	0.427
Mof_C 	C 	0.7665	0.8179	0.3897	0.35
Mof_Zn	Zn	0.5772	0.2441	0.2003	1.216
Mof_O 	O 	0.5921	0.0747	0.2138	-0.551
Mof_O 	O 	0.5227	0.9135	0.1765	-0.278
Mof_O 	O 	0.1706	0.2095	0.8243	-0.467
Mof_O 	O 	0.2509	0.3611	0.8903	-0.474
Mof_N 	N 	0.4571	0.1857	0.089	-0.225
Mof_C 	C 	0.4486	0.0766	0.0879	0.006
Mof_C 	C 	0.3792	0.026	0.0194	-0.097
Mof_H 	H 	0.3786	0.9503	0.0179	0.081
Mof_C 	C 	0.3112	0.0796	0.9535	0.067
Mof_H 	H 	0.2628	0.0425	0.9084	0.026
Mof_C 	C 	0.3147	0.1932	0.9542	-0.14
Mof_C 	C 	0.3883	0.2439	0.0225	0.094
Mof_H 	H 	0.3914	0.3195	0.0235	-0.006
Mof_C 	C 	0.2381	0.2562	0.8848	0.402
Mof_C 	C 	0.5264	0.014	0.1641	0.304
Mof_Zn	Zn	0.8411	0.5225	0.1467	1.225
Mof_O 	O 	0.7465	0.4019	0.1647	-0.43
Mof_O 	O 	0.6728	0.2504	0.1111	-0.426
Mof_O 	O 	0.9728	0.2531	0.7909	-0.426
Mof_O 	O 	0.0387	0.3903	0.8857	-0.442
Mof_N 	N 	0.847	0.4033	0.0398	-0.227
Mof_C 	C 	0.7954	0.3125	0.0422	-0.033
Mof_C 	C 	0.7964	0.2245	0.9832	-0.068
Mof_H 	H 	0.7576	0.1646	0.9835	0.066
Mof_C 	C 	0.8561	0.2267	0.9236	0.051
Mof_H 	H 	0.8604	0.1659	0.8859	0.027
Mof_C 	C 	0.9089	0.3163	0.9189	-0.151
Mof_C 	C 	0.8985	0.4064	0.975	0.096
Mof_H 	H 	0.9285	0.4711	0.9671	0.005
Mof_C 	C 	0.9771	0.318	0.858	0.426
Mof_C 	C 	0.7335	0.3179	0.1103	0.35
Mof_Zn	Zn	0.9228	0.7441	0.2997	1.216
Mof_O 	O 	0.9079	0.5747	0.2862	-0.552
Mof_O 	O 	0.9773	0.4135	0.3235	-0.279
Mof_O 	O 	0.3294	0.7095	0.6757	-0.467
Mof_O 	O 	0.2491	0.8611	0.6097	-0.474
Mof_N 	N 	0.0429	0.6857	0.411	-0.224
Mof_C 	C 	0.0514	0.5766	0.4121	0.002
Mof_C 	C 	0.1208	0.526	0.4806	-0.088
Mof_H 	H 	0.1214	0.4503	0.4821	0.077
Mof_C 	C 	0.1888	0.5796	0.5465	0.06
Mof_H 	H 	0.2372	0.5425	0.5916	0.028
Mof_C 	C 	0.1853	0.6932	0.5458	-0.139
Mof_C 	C 	0.1117	0.7439	0.4775	0.094
Mof_H 	H 	0.1086	0.8195	0.4765	-0.006
Mof_C 	C 	0.2619	0.7562	0.6152	0.401
Mof_C 	C 	0.9736	0.514	0.3359	0.307
_end
