data_functionalizedCrystal
_audit_creation_method	'EQeq! by Chris Wilmer'
_symmetry_space_group_name_H-M	'P1'
_symmetry_Int_Tables_number	1
_symmetry_cell_setting	triclinic
loop_
_symmetry_equiv_pos_as_xyz
  x,y,z
_cell_length_a	12.531
_cell_length_b	12.531
_cell_length_c	18.476
_cell_angle_alpha	90
_cell_angle_beta	90
_cell_angle_gamma	120
loop_
_atom_site_label
_atom_site_type_symbol
_atom_site_fract_x
_atom_site_fract_y
_atom_site_fract_z
_atom_site_charge
Mof_Fe	Fe	0.273	0.4925	0.25	0.969
Mof_Fe	Fe	0.727	0.2195	0.75	0.969
Mof_Fe	Fe	0.2195	0.727	0.25	0.969
Mof_Fe	Fe	0.5075	0.7805	0.25	0.969
Mof_Fe	Fe	0.4925	0.273	0.75	0.969
Mof_Fe	Fe	0.7805	0.5075	0.75	0.969
Mof_H 	H 	0.7248	0.6796	0.5545	0.05
Mof_H 	H 	0.2752	0.9548	0.0545	0.05
Mof_H 	H 	0.3616	0.3987	0.4402	0.054
Mof_H 	H 	0.0371	0.6384	0.4402	0.054
Mof_H 	H 	0.6796	0.7248	0.4455	0.049
Mof_H 	H 	0.6013	0.9629	0.0598	0.054
Mof_H 	H 	0.3987	0.3616	0.9402	0.054
Mof_H 	H 	0.6013	0.9629	0.4402	0.054
Mof_H 	H 	0.6796	0.7248	0.0545	0.049
Mof_H 	H 	0.0371	0.6384	0.0598	0.054
Mof_H 	H 	0.2752	0.9548	0.4455	0.049
Mof_H 	H 	0.3616	0.3987	0.0598	0.054
Mof_H 	H 	0.9548	0.2752	0.5545	0.049
Mof_H 	H 	0.3204	0.0452	0.9455	0.049
Mof_H 	H 	0.9629	0.6013	0.9402	0.054
Mof_H 	H 	0.9548	0.2752	0.9455	0.049
Mof_H 	H 	0.9629	0.6013	0.5598	0.054
Mof_H 	H 	0.0452	0.3204	0.0545	0.049
Mof_H 	H 	0.3987	0.3616	0.5598	0.054
Mof_H 	H 	0.0452	0.3204	0.4455	0.049
Mof_H 	H 	0.3204	0.0452	0.5545	0.049
Mof_H 	H 	0.6384	0.0371	0.5598	0.054
Mof_H 	H 	0.6384	0.0371	0.9402	0.054
Mof_H 	H 	0.7248	0.6796	0.9455	0.049
Mof_C 	C 	0.4314	0.9479	0.4315	-0.08
Mof_C 	C 	0.976	0.544	0.9647	-0.015
Mof_C 	C 	0.484	0.595	0.1423	0.391
Mof_C 	C 	0.4835	0.0521	0.5685	-0.08
Mof_C 	C 	0.4835	0.0521	0.9315	-0.08
Mof_C 	C 	0.432	0.456	0.4647	-0.015
Mof_C 	C 	0.0259	0.3754	0.4675	-0.014
Mof_C 	C 	0.976	0.544	0.5353	-0.015
Mof_C 	C 	0.568	0.024	0.9647	-0.016
Mof_C 	C 	0.9741	0.3495	0.9675	-0.014
Mof_C 	C 	0.024	0.568	0.4647	-0.016
Mof_C 	C 	0.5165	0.5686	0.4315	-0.08
Mof_C 	C 	0.6246	0.6505	0.4675	-0.014
Mof_C 	C 	0.9741	0.3495	0.5325	-0.014
Mof_C 	C 	0.6246	0.6505	0.0325	-0.014
Mof_C 	C 	0.5165	0.5686	0.0685	-0.08
Mof_C 	C 	0.024	0.568	0.0353	-0.016
Mof_C 	C 	0.595	0.484	0.6423	0.391
Mof_C 	C 	0.0259	0.3754	0.0325	-0.014
Mof_C 	C 	0.432	0.456	0.0353	-0.015
Mof_C 	C 	0.516	0.111	0.6423	0.391
Mof_C 	C 	0.9479	0.4314	0.5685	-0.08
Mof_C 	C 	0.484	0.595	0.3577	0.391
Mof_C 	C 	0.595	0.484	0.8577	0.391
Mof_C 	C 	0.4314	0.9479	0.0685	-0.08
Mof_C 	C 	0.111	0.516	0.3577	0.391
Mof_C 	C 	0.3495	0.9741	0.0325	-0.014
Mof_C 	C 	0.9479	0.4314	0.9315	-0.08
Mof_C 	C 	0.3754	0.0259	0.9675	-0.014
Mof_C 	C 	0.889	0.405	0.6423	0.391
Mof_C 	C 	0.3754	0.0259	0.5325	-0.014
Mof_C 	C 	0.456	0.432	0.5353	-0.015
Mof_C 	C 	0.544	0.976	0.0353	-0.015
Mof_C 	C 	0.568	0.024	0.5353	-0.016
Mof_C 	C 	0.405	0.889	0.1423	0.391
Mof_C 	C 	0.0521	0.4835	0.0685	-0.08
Mof_C 	C 	0.0521	0.4835	0.4315	-0.08
Mof_C 	C 	0.405	0.889	0.3577	0.391
Mof_C 	C 	0.6505	0.6246	0.9675	-0.014
Mof_C 	C 	0.544	0.976	0.4647	-0.015
Mof_C 	C 	0.456	0.432	0.9647	-0.015
Mof_C 	C 	0.5686	0.5165	0.9315	-0.08
Mof_C 	C 	0.516	0.111	0.8577	0.391
Mof_C 	C 	0.6505	0.6246	0.5325	-0.014
Mof_C 	C 	0.889	0.405	0.8577	0.391
Mof_C 	C 	0.3495	0.9741	0.4675	-0.014
Mof_C 	C 	0.111	0.516	0.1423	0.391
Mof_C 	C 	0.5686	0.5165	0.5685	-0.08
Mof_O 	O 	0.3019	0.8499	0.3308	-0.394
Mof_O 	O 	0.4947	0.8841	0.1719	-0.387
Mof_O 	O 	0.6106	0.1159	0.6719	-0.387
Mof_O 	O 	0.1159	0.6106	0.1719	-0.387
Mof_O 	O 	0.1501	0.452	0.3308	-0.394
Mof_O 	O 	0.5053	0.3894	0.8281	-0.387
Mof_O 	O 	0.1501	0.452	0.1692	-0.394
Mof_O 	O 	0.1159	0.6106	0.3281	-0.387
Mof_O 	O 	0.452	0.1501	0.6692	-0.394
Mof_O 	O 	0.6981	0.548	0.6692	-0.394
Mof_O 	O 	0.4947	0.8841	0.3281	-0.387
Mof_O 	O 	0.8499	0.3019	0.6692	-0.394
Mof_O 	O 	0.3019	0.8499	0.1692	-0.394
Mof_O 	O 	0.8841	0.4947	0.8281	-0.387
Mof_O 	O 	0.66667	0.33334	0.75	-0.53
Mof_O 	O 	0.548	0.6981	0.1692	-0.394
Mof_O 	O 	0.3894	0.5053	0.3281	-0.387
Mof_O 	O 	0.5053	0.3894	0.6719	-0.387
Mof_O 	O 	0.6106	0.1159	0.8281	-0.387
Mof_O 	O 	0.3894	0.5053	0.1719	-0.387
Mof_O 	O 	0.6981	0.548	0.8308	-0.394
Mof_O 	O 	0.8841	0.4947	0.6719	-0.387
Mof_O 	O 	0.452	0.1501	0.8308	-0.394
Mof_O 	O 	0.8499	0.3019	0.8308	-0.394
Mof_O 	O 	0.548	0.6981	0.3308	-0.394
Mof_O 	O 	0.33333	0.66666	0.25	-0.53
_end
