data_functionalizedCrystal
_audit_creation_method	'EQeq! by Chris Wilmer'
_symmetry_space_group_name_H-M	'P1'
_symmetry_Int_Tables_number	1
_symmetry_cell_setting	triclinic
loop_
_symmetry_equiv_pos_as_xyz
  x,y,z
_cell_length_a	16.87
_cell_length_b	16.87
_cell_length_c	13.886
_cell_angle_alpha	90
_cell_angle_beta	90
_cell_angle_gamma	120
loop_
_atom_site_label
_atom_site_type_symbol
_atom_site_fract_x
_atom_site_fract_y
_atom_site_fract_z
_atom_site_charge
Mof_O 	O 	0.7772	0.3529	0.181	-0.407
Mof_N 	N 	0.1112	0.6054	0.4134	-0.157
Mof_N 	N 	0.2281	0.6673	0.5173	-0.225
Mof_C 	C 	0.966	0.5075	0.3317	-0.153
Mof_H 	H 	0.9344	0.5077	0.3864	0.098
Mof_C 	C 	0.0601	0.5548	0.3305	0.167
Mof_C 	C 	0.1904	0.6109	0.4442	0.091
Mof_H 	H 	0.2154	0.5781	0.4164	-0.009
Mof_C 	C 	0.1709	0.7028	0.5358	0.074
Mof_C 	C 	0.1785	0.7664	0.6042	-0.12
Mof_H 	H 	0.2271	0.7924	0.6473	0.086
Mof_C 	C 	0.1101	0.7893	0.6053	-0.004
Mof_H 	H 	0.1121	0.8301	0.6516	0.029
Mof_C 	C 	0.0381	0.7528	0.5387	-0.038
Mof_H 	H 	0.9945	0.7711	0.5408	0.043
Mof_C 	C 	0.0306	0.6902	0.4698	-0.081
Mof_H 	H 	0.9835	0.6666	0.4248	0.063
Mof_C 	C 	0.097	0.6643	0.4714	0.054
Mof_O 	O 	0.6471	0.4243	0.181	-0.406
Mof_N 	N 	0.3946	0.5058	0.4134	-0.156
Mof_N 	N 	0.3327	0.5608	0.5173	-0.224
Mof_C 	C 	0.4925	0.4585	0.3317	-0.152
Mof_H 	H 	0.4923	0.4267	0.3864	0.099
Mof_C 	C 	0.4452	0.5053	0.3305	0.167
Mof_C 	C 	0.3891	0.5795	0.4442	0.091
Mof_H 	H 	0.4219	0.6373	0.4164	-0.009
Mof_C 	C 	0.2972	0.4681	0.5358	0.075
Mof_C 	C 	0.2336	0.4121	0.6042	-0.12
Mof_H 	H 	0.2076	0.4347	0.6473	0.087
Mof_C 	C 	0.2107	0.3208	0.6053	-0.003
Mof_H 	H 	0.1699	0.282	0.6516	0.029
Mof_C 	C 	0.2472	0.2853	0.5387	-0.039
Mof_H 	H 	0.2289	0.2234	0.5408	0.043
Mof_C 	C 	0.3098	0.3404	0.4698	-0.081
Mof_H 	H 	0.3334	0.3169	0.4248	0.062
Mof_C 	C 	0.3357	0.4327	0.4714	0.054
Mof_O 	O 	0.5757	0.2228	0.181	-0.406
Mof_N 	N 	0.4942	0.8888	0.4134	-0.156
Mof_N 	N 	0.4392	0.7719	0.5173	-0.224
Mof_C 	C 	0.5415	0.034	0.3317	-0.152
Mof_H 	H 	0.5733	0.0656	0.3864	0.098
Mof_C 	C 	0.4947	0.9399	0.3305	0.167
Mof_C 	C 	0.4205	0.8096	0.4442	0.091
Mof_H 	H 	0.3627	0.7846	0.4164	-0.009
Mof_C 	C 	0.5319	0.8291	0.5358	0.075
Mof_C 	C 	0.5879	0.8215	0.6042	-0.12
Mof_H 	H 	0.5653	0.7729	0.6473	0.086
Mof_C 	C 	0.6792	0.8899	0.6053	-0.004
Mof_H 	H 	0.718	0.8879	0.6516	0.029
Mof_C 	C 	0.7147	0.9619	0.5387	-0.038
Mof_H 	H 	0.7766	0.0055	0.5408	0.043
Mof_C 	C 	0.6596	0.9694	0.4698	-0.081
Mof_H 	H 	0.6831	0.0165	0.4248	0.063
Mof_C 	C 	0.5673	0.903	0.4714	0.054
Mof_O 	O 	0.6471	0.2228	0.319	-0.406
Mof_N 	N 	0.3946	0.8888	0.0866	-0.156
Mof_N 	N 	0.3327	0.7719	0.9827	-0.224
Mof_C 	C 	0.4925	0.034	0.1683	-0.151
Mof_H 	H 	0.4923	0.0656	0.1136	0.098
Mof_C 	C 	0.4452	0.9399	0.1695	0.166
Mof_C 	C 	0.3891	0.8096	0.0558	0.09
Mof_H 	H 	0.4219	0.7846	0.0836	-0.009
Mof_C 	C 	0.2972	0.8291	0.9642	0.074
Mof_C 	C 	0.2336	0.8215	0.8958	-0.119
Mof_H 	H 	0.2076	0.7729	0.8527	0.086
Mof_C 	C 	0.2107	0.8899	0.8947	-0.006
Mof_H 	H 	0.1699	0.8879	0.8484	0.03
Mof_C 	C 	0.2472	0.9619	0.9613	-0.034
Mof_H 	H 	0.2289	0.0055	0.9592	0.041
Mof_C 	C 	0.3098	0.9694	0.0302	-0.085
Mof_H 	H 	0.3334	0.0165	0.0752	0.064
Mof_C 	C 	0.3357	0.903	0.0286	0.055
Mof_O 	O 	0.5757	0.3529	0.319	-0.406
Mof_N 	N 	0.4942	0.6054	0.0866	-0.156
Mof_N 	N 	0.4392	0.6673	0.9827	-0.224
Mof_C 	C 	0.5415	0.5075	0.1683	-0.152
Mof_H 	H 	0.5733	0.5077	0.1136	0.099
Mof_C 	C 	0.4947	0.5548	0.1695	0.167
Mof_C 	C 	0.4205	0.6109	0.0558	0.091
Mof_H 	H 	0.3627	0.5781	0.0836	-0.009
Mof_C 	C 	0.5319	0.7028	0.9642	0.075
Mof_C 	C 	0.5879	0.7664	0.8958	-0.12
Mof_H 	H 	0.5653	0.7924	0.8527	0.087
Mof_C 	C 	0.6792	0.7893	0.8947	-0.003
Mof_H 	H 	0.718	0.8301	0.8484	0.029
Mof_C 	C 	0.7147	0.7528	0.9613	-0.039
Mof_H 	H 	0.7766	0.7711	0.9592	0.043
Mof_C 	C 	0.6596	0.6902	0.0302	-0.081
Mof_H 	H 	0.6831	0.6666	0.0752	0.062
Mof_C 	C 	0.5673	0.6643	0.0286	0.054
Mof_O 	O 	0.7772	0.4243	0.319	-0.406
Mof_N 	N 	0.1112	0.5058	0.0866	-0.156
Mof_N 	N 	0.2281	0.5608	0.9827	-0.224
Mof_C 	C 	0.966	0.4585	0.1683	-0.151
Mof_H 	H 	0.9344	0.4267	0.1136	0.098
Mof_C 	C 	0.0601	0.5053	0.1695	0.166
Mof_C 	C 	0.1904	0.5795	0.0558	0.09
Mof_H 	H 	0.2154	0.6373	0.0836	-0.009
Mof_C 	C 	0.1709	0.4681	0.9642	0.074
Mof_C 	C 	0.1785	0.4121	0.8958	-0.119
Mof_H 	H 	0.2271	0.4347	0.8527	0.086
Mof_C 	C 	0.1101	0.3208	0.8947	-0.006
Mof_H 	H 	0.1121	0.282	0.8484	0.029
Mof_C 	C 	0.0381	0.2853	0.9613	-0.035
Mof_H 	H 	0.9945	0.2234	0.9592	0.041
Mof_C 	C 	0.0306	0.3404	0.0302	-0.084
Mof_H 	H 	0.9835	0.3169	0.0752	0.064
Mof_C 	C 	0.097	0.4327	0.0286	0.055
Mof_O 	O 	0.2228	0.6471	0.819	-0.406
Mof_N 	N 	0.8888	0.3946	0.5866	-0.156
Mof_N 	N 	0.7719	0.3327	0.4827	-0.224
Mof_C 	C 	0.034	0.4925	0.6683	-0.152
Mof_H 	H 	0.0656	0.4923	0.6136	0.098
Mof_C 	C 	0.9399	0.4452	0.6695	0.167
Mof_C 	C 	0.8096	0.3891	0.5558	0.091
Mof_H 	H 	0.7846	0.4219	0.5836	-0.009
Mof_C 	C 	0.8291	0.2972	0.4642	0.074
Mof_C 	C 	0.8215	0.2336	0.3958	-0.12
Mof_H 	H 	0.7729	0.2076	0.3527	0.086
Mof_C 	C 	0.8899	0.2107	0.3947	-0.004
Mof_H 	H 	0.8879	0.1699	0.3484	0.029
Mof_C 	C 	0.9619	0.2472	0.4613	-0.038
Mof_H 	H 	0.0055	0.2289	0.4592	0.043
Mof_C 	C 	0.9694	0.3098	0.5302	-0.081
Mof_H 	H 	0.0165	0.3334	0.5752	0.063
Mof_C 	C 	0.903	0.3357	0.5286	0.054
Mof_O 	O 	0.3529	0.5757	0.819	-0.406
Mof_N 	N 	0.6054	0.4942	0.5866	-0.156
Mof_N 	N 	0.6673	0.4392	0.4827	-0.224
Mof_C 	C 	0.5075	0.5415	0.6683	-0.152
Mof_H 	H 	0.5077	0.5733	0.6136	0.099
Mof_C 	C 	0.5548	0.4947	0.6695	0.167
Mof_C 	C 	0.6109	0.4205	0.5558	0.091
Mof_H 	H 	0.5781	0.3627	0.5836	-0.009
Mof_C 	C 	0.7028	0.5319	0.4642	0.075
Mof_C 	C 	0.7664	0.5879	0.3958	-0.12
Mof_H 	H 	0.7924	0.5653	0.3527	0.087
Mof_C 	C 	0.7893	0.6792	0.3947	-0.003
Mof_H 	H 	0.8301	0.718	0.3484	0.029
Mof_C 	C 	0.7528	0.7147	0.4613	-0.039
Mof_H 	H 	0.7711	0.7766	0.4592	0.043
Mof_C 	C 	0.6902	0.6596	0.5302	-0.081
Mof_H 	H 	0.6666	0.6831	0.5752	0.062
Mof_C 	C 	0.6643	0.5673	0.5286	0.054
Mof_O 	O 	0.4243	0.7772	0.819	-0.406
Mof_N 	N 	0.5058	0.1112	0.5866	-0.156
Mof_N 	N 	0.5608	0.2281	0.4827	-0.224
Mof_C 	C 	0.4585	0.966	0.6683	-0.152
Mof_H 	H 	0.4267	0.9344	0.6136	0.098
Mof_C 	C 	0.5053	0.0601	0.6695	0.167
Mof_C 	C 	0.5795	0.1904	0.5558	0.091
Mof_H 	H 	0.6373	0.2154	0.5836	-0.009
Mof_C 	C 	0.4681	0.1709	0.4642	0.075
Mof_C 	C 	0.4121	0.1785	0.3958	-0.12
Mof_H 	H 	0.4347	0.2271	0.3527	0.086
Mof_C 	C 	0.3208	0.1101	0.3947	-0.004
Mof_H 	H 	0.282	0.1121	0.3484	0.029
Mof_C 	C 	0.2853	0.0381	0.4613	-0.038
Mof_H 	H 	0.2234	0.9945	0.4592	0.043
Mof_C 	C 	0.3404	0.0306	0.5302	-0.081
Mof_H 	H 	0.3169	0.9835	0.5752	0.063
Mof_C 	C 	0.4327	0.097	0.5286	0.054
Mof_O 	O 	0.3529	0.7772	0.681	-0.406
Mof_N 	N 	0.6054	0.1112	0.9134	-0.156
Mof_N 	N 	0.6673	0.2281	0.0173	-0.224
Mof_C 	C 	0.5075	0.966	0.8317	-0.151
Mof_H 	H 	0.5077	0.9344	0.8864	0.098
Mof_C 	C 	0.5548	0.0601	0.8305	0.166
Mof_C 	C 	0.6109	0.1904	0.9442	0.09
Mof_H 	H 	0.5781	0.2154	0.9164	-0.009
Mof_C 	C 	0.7028	0.1709	0.0358	0.074
Mof_C 	C 	0.7664	0.1785	0.1042	-0.119
Mof_H 	H 	0.7924	0.2271	0.1473	0.086
Mof_C 	C 	0.7893	0.1101	0.1053	-0.006
Mof_H 	H 	0.8301	0.1121	0.1516	0.03
Mof_C 	C 	0.7528	0.0381	0.0387	-0.034
Mof_H 	H 	0.7711	0.9945	0.0408	0.041
Mof_C 	C 	0.6902	0.0306	0.9698	-0.085
Mof_H 	H 	0.6666	0.9835	0.9248	0.064
Mof_C 	C 	0.6643	0.097	0.9714	0.055
Mof_O 	O 	0.4243	0.6471	0.681	-0.406
Mof_N 	N 	0.5058	0.3946	0.9134	-0.156
Mof_N 	N 	0.5608	0.3327	0.0173	-0.224
Mof_C 	C 	0.4585	0.4925	0.8317	-0.152
Mof_H 	H 	0.4267	0.4923	0.8864	0.099
Mof_C 	C 	0.5053	0.4452	0.8305	0.167
Mof_C 	C 	0.5795	0.3891	0.9442	0.091
Mof_H 	H 	0.6373	0.4219	0.9164	-0.009
Mof_C 	C 	0.4681	0.2972	0.0358	0.075
Mof_C 	C 	0.4121	0.2336	0.1042	-0.12
Mof_H 	H 	0.4347	0.2076	0.1473	0.087
Mof_C 	C 	0.3208	0.2107	0.1053	-0.003
Mof_H 	H 	0.282	0.1699	0.1516	0.029
Mof_C 	C 	0.2853	0.2472	0.0387	-0.039
Mof_H 	H 	0.2234	0.2289	0.0408	0.043
Mof_C 	C 	0.3404	0.3098	0.9698	-0.081
Mof_H 	H 	0.3169	0.3334	0.9248	0.062
Mof_C 	C 	0.4327	0.3357	0.9714	0.054
Mof_O 	O 	0.2228	0.5757	0.681	-0.406
Mof_N 	N 	0.8888	0.4942	0.9134	-0.156
Mof_N 	N 	0.7719	0.4392	0.0173	-0.224
Mof_C 	C 	0.034	0.5415	0.8317	-0.151
Mof_H 	H 	0.0656	0.5733	0.8864	0.098
Mof_C 	C 	0.9399	0.4947	0.8305	0.166
Mof_C 	C 	0.8096	0.4205	0.9442	0.09
Mof_H 	H 	0.7846	0.3627	0.9164	-0.009
Mof_C 	C 	0.8291	0.5319	0.0358	0.074
Mof_C 	C 	0.8215	0.5879	0.1042	-0.119
Mof_H 	H 	0.7729	0.5653	0.1473	0.086
Mof_C 	C 	0.8899	0.6792	0.1053	-0.006
Mof_H 	H 	0.8879	0.718	0.1516	0.029
Mof_C 	C 	0.9619	0.7147	0.0387	-0.035
Mof_H 	H 	0.0055	0.7766	0.0408	0.041
Mof_C 	C 	0.9694	0.6596	0.9698	-0.084
Mof_H 	H 	0.0165	0.6831	0.9248	0.064
Mof_C 	C 	0.903	0.5673	0.9714	0.055
Mof_Ni	Ni	0.66667	0.33333	0.1026	1.105
Mof_Ni	Ni	0.66667	0.33333	0.3974	1.105
Mof_Ni	Ni	0.33333	0.66667	0.8974	1.105
Mof_Ni	Ni	0.33333	0.66667	0.6026	1.105
Mof_C 	C 	0.8153	0.40765	0.25	0.324
Mof_C 	C 	0.9187	0.45935	0.25	0.018
Mof_C 	C 	0.1077	0.55385	0.25	-0.221
Mof_H 	H 	0.1714	0.5857	0.25	0.112
Mof_C 	C 	0.59235	0.40765	0.25	0.324
Mof_C 	C 	0.54065	0.45935	0.25	0.019
Mof_C 	C 	0.44615	0.55385	0.25	-0.221
Mof_H 	H 	0.4143	0.5857	0.25	0.112
Mof_C 	C 	0.59235	0.1847	0.25	0.324
Mof_C 	C 	0.54065	0.0813	0.25	0.018
Mof_C 	C 	0.44615	0.8923	0.25	-0.221
Mof_H 	H 	0.4143	0.8286	0.25	0.112
Mof_C 	C 	0.1847	0.59235	0.75	0.324
Mof_C 	C 	0.0813	0.54065	0.75	0.018
Mof_C 	C 	0.8923	0.44615	0.75	-0.221
Mof_H 	H 	0.8286	0.4143	0.75	0.112
Mof_C 	C 	0.40765	0.59235	0.75	0.324
Mof_C 	C 	0.45935	0.54065	0.75	0.019
Mof_C 	C 	0.55385	0.44615	0.75	-0.221
Mof_H 	H 	0.5857	0.4143	0.75	0.112
Mof_C 	C 	0.40765	0.8153	0.75	0.324
Mof_C 	C 	0.45935	0.9187	0.75	0.018
Mof_C 	C 	0.55385	0.1077	0.75	-0.221
Mof_H 	H 	0.5857	0.1714	0.75	0.112
_end
