data_functionalizedCrystal
_audit_creation_method	'EQeq! by Chris Wilmer'
_symmetry_space_group_name_H-M	'P1'
_symmetry_Int_Tables_number	1
_symmetry_cell_setting	triclinic
loop_
_symmetry_equiv_pos_as_xyz
  x,y,z
_cell_length_a	12.935
_cell_length_b	14.708
_cell_length_c	15.359
_cell_angle_alpha	90
_cell_angle_beta	90
_cell_angle_gamma	90
loop_
_atom_site_label
_atom_site_type_symbol
_atom_site_fract_x
_atom_site_fract_y
_atom_site_fract_z
_atom_site_charge
Mof_O 	O 	0.359	0.159	0.125	-0.246
Mof_C 	C 	0.4422	0.1785	0.1505	0.157
Mof_C 	C 	0.4715	0.281	0.1342	0.019
Mof_C 	C 	0.482	0.0262	0.206	0.004
Mof_C 	C 	0.6249	0.151	0.193	0.11
Mof_N 	N 	0.5147	0.124	0.1785	-0.162
Mof_Zn	Zn	0.01766	0.02724	0.04707	1.196
Mof_Zn	Zn	0.20196	0.17115	0.16508	1.19
Mof_O 	O 	0.1305	0.0362	0.9621	-0.501
Mof_O 	O 	0.168	0.164	0.0325	-0.503
Mof_O 	O 	0.4432	0.0469	0.6468	-0.526
Mof_O 	O 	0.3033	0.9685	0.6839	-0.502
Mof_O 	O 	0.4387	0.3663	0.9197	-0.521
Mof_O 	O 	0.5419	0.318	0.81231	-0.506
Mof_C 	C 	0.2632	0.1293	0.9049	-0.191
Mof_C 	C 	0.3236	0.2072	0.9139	0.126
Mof_H 	H 	0.3145	0.2454	0.9616	-0.002
Mof_C 	C 	0.3981	0.2277	0.8508	-0.2
Mof_C 	C 	0.4117	0.17	0.7806	0.127
Mof_H 	H 	0.4625	0.1827	0.7395	-0.009
Mof_C 	C 	0.3497	0.0929	0.7709	-0.208
Mof_C 	C 	0.277	0.0734	0.833	0.133
Mof_H 	H 	0.236	0.0218	0.8268	-0.005
Mof_C 	C 	0.1826	0.1084	0.9721	0.417
Mof_C 	C 	0.3658	0.0306	0.6943	0.451
Mof_C 	C 	0.4658	0.3104	0.8617	0.433
Mof_C 	C 	0.4383	0.1359	0.1684	0.174
Mof_C 	C 	0.472	0.0326	0.175	-0.022
Mof_C 	C 	0.4808	0.2986	0.1647	-0.06
Mof_C 	C 	0.6099	0.179	0.227	-0.068
Mof_N 	N 	0.5089	0.198	0.1816	-0.142
Mof_O 	O 	0.354	0.146	0.139	-0.161
Mof_O 	O 	0.141	0.841	0.625	-0.246
Mof_C 	C 	0.0578	0.8215	0.6505	0.161
Mof_C 	C 	0.0285	0.719	0.6342	0.022
Mof_C 	C 	0.018	0.9738	0.706	0.006
Mof_C 	C 	0.8751	0.849	0.693	0.108
Mof_N 	N 	0.9853	0.876	0.6785	-0.163
Mof_Zn	Zn	0.48234	0.97276	0.54707	1.197
Mof_Zn	Zn	0.29804	0.82885	0.66508	1.19
Mof_O 	O 	0.3695	0.9638	0.4621	-0.502
Mof_O 	O 	0.332	0.836	0.5325	-0.501
Mof_O 	O 	0.0568	0.9531	0.1468	-0.526
Mof_O 	O 	0.1967	0.0315	0.1839	-0.502
Mof_O 	O 	0.0613	0.6337	0.4197	-0.521
Mof_O 	O 	0.9581	0.682	0.31231	-0.506
Mof_C 	C 	0.2368	0.8707	0.4049	-0.191
Mof_C 	C 	0.1764	0.7928	0.4139	0.126
Mof_H 	H 	0.1855	0.7546	0.4616	-0.002
Mof_C 	C 	0.1019	0.7723	0.3508	-0.2
Mof_C 	C 	0.0883	0.83	0.2806	0.127
Mof_H 	H 	0.0375	0.8173	0.2395	-0.009
Mof_C 	C 	0.1503	0.9071	0.2709	-0.208
Mof_C 	C 	0.223	0.9266	0.333	0.132
Mof_H 	H 	0.264	0.9782	0.3268	-0.005
Mof_C 	C 	0.3174	0.8916	0.4721	0.416
Mof_C 	C 	0.1342	0.9694	0.1943	0.451
Mof_C 	C 	0.0342	0.6896	0.3617	0.434
Mof_C 	C 	0.0617	0.8641	0.6684	0.172
Mof_C 	C 	0.028	0.9674	0.675	-0.023
Mof_C 	C 	0.0192	0.7014	0.6647	-0.063
Mof_C 	C 	0.8901	0.821	0.727	-0.068
Mof_N 	N 	0.9911	0.802	0.6816	-0.144
Mof_O 	O 	0.146	0.854	0.639	-0.162
Mof_O 	O 	0.641	0.659	0.375	-0.246
Mof_C 	C 	0.5578	0.6785	0.3495	0.156
Mof_C 	C 	0.5285	0.781	0.3658	0.018
Mof_C 	C 	0.518	0.5262	0.294	0.004
Mof_C 	C 	0.3751	0.651	0.307	0.107
Mof_N 	N 	0.4853	0.624	0.3215	-0.162
Mof_Zn	Zn	0.98234	0.52724	0.45293	1.197
Mof_Zn	Zn	0.79804	0.67115	0.33492	1.19
Mof_O 	O 	0.8695	0.5362	0.5379	-0.502
Mof_O 	O 	0.832	0.664	0.4675	-0.501
Mof_O 	O 	0.5568	0.5469	0.8532	-0.527
Mof_O 	O 	0.6967	0.4685	0.8161	-0.501
Mof_O 	O 	0.5613	0.8663	0.5803	-0.521
Mof_O 	O 	0.4581	0.818	0.68769	-0.506
Mof_C 	C 	0.7368	0.6293	0.5951	-0.191
Mof_C 	C 	0.6764	0.7072	0.5861	0.125
Mof_H 	H 	0.6855	0.7454	0.5384	-0.002
Mof_C 	C 	0.6019	0.7277	0.6492	-0.201
Mof_C 	C 	0.5883	0.67	0.7194	0.126
Mof_H 	H 	0.5375	0.6827	0.7605	-0.01
Mof_C 	C 	0.6503	0.5929	0.7291	-0.208
Mof_C 	C 	0.723	0.5734	0.667	0.132
Mof_H 	H 	0.764	0.5218	0.6732	-0.005
Mof_C 	C 	0.8174	0.6084	0.5279	0.416
Mof_C 	C 	0.6342	0.5306	0.8057	0.449
Mof_C 	C 	0.5342	0.8104	0.6383	0.433
Mof_C 	C 	0.5617	0.6359	0.3316	0.175
Mof_C 	C 	0.528	0.5326	0.325	-0.022
Mof_C 	C 	0.5192	0.7986	0.3353	-0.06
Mof_C 	C 	0.3901	0.679	0.273	-0.065
Mof_N 	N 	0.4911	0.698	0.3184	-0.142
Mof_O 	O 	0.646	0.646	0.361	-0.16
Mof_O 	O 	0.859	0.341	0.875	-0.246
Mof_C 	C 	0.9422	0.3215	0.8495	0.156
Mof_C 	C 	0.9715	0.219	0.8658	0.019
Mof_C 	C 	0.982	0.4738	0.794	0.003
Mof_C 	C 	0.1249	0.349	0.807	0.107
Mof_N 	N 	0.0147	0.376	0.8215	-0.16
Mof_Zn	Zn	0.51766	0.47276	0.95293	1.197
Mof_Zn	Zn	0.70196	0.32885	0.83492	1.19
Mof_O 	O 	0.6305	0.4638	0.0379	-0.502
Mof_O 	O 	0.668	0.336	0.9675	-0.503
Mof_O 	O 	0.9432	0.4531	0.3532	-0.526
Mof_O 	O 	0.8033	0.5315	0.3161	-0.501
Mof_O 	O 	0.9387	0.1337	0.0803	-0.52
Mof_O 	O 	0.0419	0.182	0.18769	-0.508
Mof_C 	C 	0.7632	0.3707	0.0951	-0.191
Mof_C 	C 	0.8236	0.2928	0.0861	0.126
Mof_H 	H 	0.8145	0.2546	0.0384	-0.001
Mof_C 	C 	0.8981	0.2723	0.1492	-0.201
Mof_C 	C 	0.9117	0.33	0.2194	0.127
Mof_H 	H 	0.9625	0.3173	0.2605	-0.009
Mof_C 	C 	0.8497	0.4071	0.2291	-0.208
Mof_C 	C 	0.777	0.4266	0.167	0.133
Mof_H 	H 	0.736	0.4782	0.1732	-0.005
Mof_C 	C 	0.6826	0.3916	0.0279	0.418
Mof_C 	C 	0.8658	0.4694	0.3057	0.45
Mof_C 	C 	0.9658	0.1896	0.1383	0.436
Mof_C 	C 	0.9383	0.3641	0.8316	0.172
Mof_C 	C 	0.972	0.4674	0.825	-0.023
Mof_C 	C 	0.9808	0.2014	0.8353	-0.061
Mof_C 	C 	0.1099	0.321	0.773	-0.065
Mof_N 	N 	0.0089	0.302	0.8184	-0.141
Mof_O 	O 	0.854	0.354	0.861	-0.161
_end
