data_functionalizedCrystal
_audit_creation_method	'EQeq! by Chris Wilmer'
_symmetry_space_group_name_H-M	'P1'
_symmetry_Int_Tables_number	1
_symmetry_cell_setting	triclinic
loop_
_symmetry_equiv_pos_as_xyz
  x,y,z
_cell_length_a	26.7974
_cell_length_b	9.8459
_cell_length_c	18.5441
_cell_angle_alpha	90
_cell_angle_beta	90
_cell_angle_gamma	90
loop_
_atom_site_label
_atom_site_type_symbol
_atom_site_fract_x
_atom_site_fract_y
_atom_site_fract_z
_atom_site_charge
Mof_H 	H 	0.437	0.073	0.648	-0.202
Mof_H 	H 	0.422	0.412	0.96	-0.17
Mof_H 	H 	0.355	0.508	0.729	-0.089
Mof_H 	H 	0.688	0.08	0.646	-0.086
Mof_H 	H 	0.408	0.445	0.39	-0.078
Mof_H 	H 	0.584	0.529	0.717	-0.097
Mof_H 	H 	0.313	0.923	0.492	-0.181
Mof_H 	H 	0.272	0.623	0.496	-0.076
Mof_H 	H 	0.492	0.373	0.607	-0.096
Mof_In	In	0.40038	0.23682	0.80539	3.198
Mof_In	In	0.40107	0.73078	0.56957	3.175
Mof_In	In	0.65009	0.24873	0.80811	3.262
Mof_In	In	0.34876	0.25515	0.07099	2.842
Mof_In	In	0.35529	0.24232	0.5446	3.166
Mof_In	In	0.39443	0.75311	0.03502	2.519
Mof_O 	O 	0.5719	0.2673	0.8261	-0.693
Mof_O 	O 	0.2726	0.313	0.9001	-0.505
Mof_H 	H 	0.2994	0.3414	0.9153	0.287
Mof_O 	O 	0.416	0.3564	0.7136	-0.741
Mof_O 	O 	0.3887	0.8939	0.9499	-0.518
Mof_O 	O 	0.3388	0.0844	0.0048	-0.922
Mof_O 	O 	0.3937	0.8852	0.4923	-0.763
Mof_O 	O 	0.3235	0.7183	0.5871	-0.723
Mof_O 	O 	0.3607	0.0848	0.624	-0.738
Mof_O 	O 	0.231	0.7633	0.5825	-0.662
Mof_O 	O 	0.4021	0.5772	0.4874	-0.748
Mof_O 	O 	0.34823	0.3868	0.9772	-0.576
Mof_O 	O 	0.4055	0.8675	0.6598	-0.681
Mof_O 	O 	0.3488	0.4018	0.6207	-0.761
Mof_O 	O 	0.6431	0.8759	0.6626	-0.669
Mof_O 	O 	0.4334	0.2564	0.5309	-0.726
Mof_O 	O 	0.6012	0.0932	0.6183	-0.723
Mof_O 	O 	0.4796	0.2243	0.8246	-0.619
Mof_O 	O 	0.27638	0.215	0.5611	-0.666
Mof_O 	O 	0.2293	0.2482	0.7849	-0.687
Mof_O 	O 	0.3213	0.2374	0.789	-0.745
Mof_O 	O 	0.3392	0.3902	0.4625	-0.683
Mof_O 	O 	0.52559	0.2236	0.5224	-0.647
Mof_O 	O 	0.3374	0.5978	0.3857	-0.724
Mof_O 	O 	0.4793	0.7473	0.5503	-0.677
Mof_O 	O 	0.3998	0.0517	0.747	-0.695
Mof_O 	O 	0.6563	0.5746	0.638	-0.726
Mof_O 	O 	0.6372	0.0743	0.744	-0.68
Mof_O 	O 	0.4164	0.5767	0.6479	-0.702
Mof_O 	O 	0.392	0.4291	0.859	-0.698
Mof_O 	O 	0.5725	0.736	0.5684	-0.731
Mof_O 	O 	0.3984	0.1296	0.903	-0.724
Mof_O 	O 	0.3354	0.9039	0.3844	-0.703
Mof_O 	O 	0.1831	0.2362	0.5521	-0.721
Mof_O 	O 	0.3521	0.1068	0.4573	-0.707
Mof_O 	O 	0.648	0.3815	0.7207	-0.76
Mof_O 	O 	0.39	0.6123	0.9494	-0.521
Mof_O 	O 	0.5899	0.397	0.613	-0.777
Mof_O 	O 	0.2621	0.534	0.6089	-0.486
Mof_H 	H 	0.2843	0.4786	0.601	0.271
Mof_O 	O 	0.4903	0.4475	0.4962	-0.491
Mof_H 	H 	0.4692	0.5037	0.5078	0.257
Mof_O 	O 	0.2421	0.3209	0.4519	-0.498
Mof_H 	H 	0.2675	0.2985	0.4304	0.274
Mof_O 	O 	0.5217	0.9392	0.6011	-0.491
Mof_H 	H 	0.5452	0.9658	0.6257	0.278
Mof_O 	O 	0.5249	0.1793	0.7149	-0.458
Mof_H 	H 	0.5478	0.2024	0.6883	0.216
Mof_O 	O 	0.2794	0.4461	0.8251	-0.534
Mof_H 	H 	0.3061	0.465	0.8444	0.285
Mof_P 	P 	0.36312	0.02944	0.93787	0.94
Mof_H 	H 	0.3289	0.0105	0.905	-0.164
Mof_P 	P 	0.40311	0.0214	0.66696	0.768
Mof_P 	P 	0.39188	0.4591	0.93986	0.765
Mof_P 	P 	0.52317	0.782	0.59599	0.605
Mof_P 	P 	0.38394	0.46329	0.67702	0.652
Mof_P 	P 	0.52407	0.2738	0.78372	0.576
Mof_H 	H 	0.5102	0.4235	0.7602	-0.045
Mof_P 	P 	0.64311	0.0325	0.66544	0.622
Mof_P 	P 	0.37085	0.50587	0.43069	0.646
Mof_P 	P 	0.61959	0.4723	0.66932	0.69
Mof_P 	P 	0.27516	0.3	0.81801	0.842
Mof_P 	P 	0.23161	0.2191	0.51228	0.625
Mof_H 	H 	0.229	0.1027	0.4634	-0.051
Mof_P 	P 	0.34749	0.9528	0.45988	0.74
Mof_P 	P 	0.27258	0.6661	0.56601	0.639
Mof_P 	P 	0.48378	0.3182	0.54195	0.647
Mof_H 	H 	0.563	0.927	0.148	-0.183
Mof_H 	H 	0.578	0.588	0.46	-0.26
Mof_H 	H 	0.645	0.492	0.229	-0.078
Mof_H 	H 	0.312	0.92	0.146	-0.08
Mof_H 	H 	0.592	0.555	0.89	-0.045
Mof_H 	H 	0.416	0.471	0.217	-0.093
Mof_H 	H 	0.687	0.077	0.992	-0.074
Mof_H 	H 	0.728	0.377	0.996	0.091
Mof_H 	H 	0.508	0.627	0.107	-0.059
Mof_In	In	0.59962	0.76318	0.30539	3.169
Mof_In	In	0.59893	0.26922	0.06957	2.539
Mof_In	In	0.34991	0.75127	0.30811	3.248
Mof_In	In	0.65124	0.74485	0.57099	3.215
Mof_In	In	0.64471	0.75768	0.0446	2.455
Mof_In	In	0.60557	0.24689	0.53502	3.219
Mof_O 	O 	0.4281	0.7327	0.3261	-0.71
Mof_O 	O 	0.7274	0.687	0.4001	-0.536
Mof_H 	H 	0.7006	0.6586	0.4153	0.274
Mof_O 	O 	0.584	0.6436	0.2136	-0.721
Mof_O 	O 	0.6113	0.1061	0.4499	-0.709
Mof_O 	O 	0.6612	0.9156	0.5048	-0.784
Mof_O 	O 	0.6063	0.1148	0.9923	-0.518
Mof_O 	O 	0.6765	0.2817	0.0871	-0.675
Mof_O 	O 	0.6393	0.9152	0.124	-0.675
Mof_O 	O 	0.769	0.2367	0.0825	-0.639
Mof_O 	O 	0.5979	0.4228	0.9874	-0.476
Mof_O 	O 	0.65177	0.6132	0.4772	-0.761
Mof_O 	O 	0.5945	0.1325	0.1598	-0.601
Mof_O 	O 	0.6512	0.5982	0.1207	-0.684
Mof_O 	O 	0.3569	0.1241	0.1626	-0.611
Mof_O 	O 	0.5666	0.7436	0.0309	-0.68
Mof_O 	O 	0.3988	0.9068	0.1183	-0.652
Mof_O 	O 	0.5204	0.7757	0.3246	-0.64
Mof_O 	O 	0.72362	0.785	0.0611	-0.594
Mof_O 	O 	0.7707	0.7518	0.2849	-0.687
Mof_O 	O 	0.6787	0.7626	0.289	-0.741
Mof_O 	O 	0.6608	0.6098	0.9625	-0.473
Mof_O 	O 	0.47441	0.7764	0.0224	-0.632
Mof_O 	O 	0.6626	0.4022	0.8857	-0.701
Mof_O 	O 	0.5207	0.2527	0.0503	-0.676
Mof_O 	O 	0.6002	0.9483	0.247	-0.682
Mof_O 	O 	0.3437	0.4254	0.138	-0.697
Mof_O 	O 	0.3628	0.9257	0.244	-0.675
Mof_O 	O 	0.5836	0.4233	0.1479	-0.625
Mof_O 	O 	0.608	0.5709	0.359	-0.71
Mof_O 	O 	0.4275	0.264	0.0684	-0.752
Mof_O 	O 	0.6016	0.8704	0.403	-0.755
Mof_O 	O 	0.6646	0.0961	0.8844	-0.683
Mof_O 	O 	0.8169	0.7638	0.0521	-0.643
Mof_O 	O 	0.6479	0.8932	0.9573	-0.5
Mof_O 	O 	0.352	0.6185	0.2207	-0.748
Mof_O 	O 	0.61	0.3877	0.4494	-0.723
Mof_O 	O 	0.4101	0.603	0.113	-0.717
Mof_O 	O 	0.7379	0.466	0.1089	-0.452
Mof_H 	H 	0.7157	0.5214	0.101	0.237
Mof_O 	O 	0.5097	0.5525	0.9962	0.079
Mof_H 	H 	0.5308	0.4963	0.0078	-0.149
Mof_O 	O 	0.7579	0.6791	0.9519	-0.258
Mof_H 	H 	0.7325	0.7015	0.9304	0.227
Mof_O 	O 	0.4783	0.0608	0.1011	-0.511
Mof_H 	H 	0.4548	0.0342	0.1257	0.29
Mof_O 	O 	0.4751	0.8207	0.2149	-0.463
Mof_H 	H 	0.4522	0.7976	0.1883	0.227
Mof_O 	O 	0.7206	0.5539	0.3251	-0.534
Mof_H 	H 	0.6939	0.535	0.3444	0.284
Mof_P 	P 	0.63688	0.97056	0.43787	0.78
Mof_H 	H 	0.6711	0.9895	0.405	-0.16
Mof_P 	P 	0.59689	0.9786	0.16696	0.708
Mof_P 	P 	0.60812	0.5409	0.43986	0.831
Mof_P 	P 	0.47683	0.218	0.09599	0.581
Mof_P 	P 	0.61606	0.53671	0.17702	0.618
Mof_P 	P 	0.47593	0.7262	0.28372	0.574
Mof_H 	H 	0.4898	0.5765	0.2602	-0.048
Mof_P 	P 	0.35689	0.9675	0.16544	0.59
Mof_P 	P 	0.62915	0.49413	0.93069	0.607
Mof_P 	P 	0.38041	0.5277	0.16932	0.66
Mof_P 	P 	0.72484	0.7	0.31801	0.843
Mof_P 	P 	0.76839	0.7809	0.01228	0.254
Mof_H 	H 	0.771	0.8973	0.9634	0.095
Mof_P 	P 	0.65251	0.0472	0.95988	0.694
Mof_P 	P 	0.72742	0.3339	0.06601	0.422
Mof_P 	P 	0.51622	0.6818	0.04195	0.371
Mof_H 	H 	0.937	0.427	0.648	-0.201
Mof_H 	H 	0.922	0.088	0.96	-0.17
Mof_H 	H 	0.855	0.992	0.729	-0.091
Mof_H 	H 	0.188	0.42	0.646	-0.087
Mof_H 	H 	0.908	0.055	0.39	-0.074
Mof_H 	H 	0.084	0.971	0.717	-0.1
Mof_H 	H 	0.813	0.577	0.492	-0.181
Mof_H 	H 	0.772	0.877	0.496	-0.077
Mof_H 	H 	0.992	0.127	0.607	-0.095
Mof_In	In	0.90038	0.26318	0.80539	3.199
Mof_In	In	0.90107	0.76922	0.56957	3.175
Mof_In	In	0.15009	0.25127	0.80811	3.263
Mof_In	In	0.84876	0.24485	0.07099	2.849
Mof_In	In	0.85529	0.25768	0.5446	3.166
Mof_In	In	0.89443	0.74689	0.03502	2.524
Mof_O 	O 	0.0719	0.2327	0.8261	-0.693
Mof_O 	O 	0.7726	0.187	0.9001	-0.505
Mof_H 	H 	0.7994	0.1586	0.9153	0.287
Mof_O 	O 	0.916	0.1436	0.7136	-0.741
Mof_O 	O 	0.8887	0.6061	0.9499	-0.52
Mof_O 	O 	0.8388	0.4156	0.0048	-0.929
Mof_O 	O 	0.8937	0.6148	0.4923	-0.762
Mof_O 	O 	0.8235	0.7817	0.5871	-0.724
Mof_O 	O 	0.8607	0.4152	0.624	-0.739
Mof_O 	O 	0.731	0.7367	0.5825	-0.662
Mof_O 	O 	0.9021	0.9228	0.4874	-0.748
Mof_O 	O 	0.84823	0.1132	0.9772	-0.578
Mof_O 	O 	0.9055	0.6325	0.6598	-0.679
Mof_O 	O 	0.8488	0.0982	0.6207	-0.761
Mof_O 	O 	0.1431	0.6241	0.6626	-0.668
Mof_O 	O 	0.9334	0.2436	0.5309	-0.726
Mof_O 	O 	0.1012	0.4068	0.6183	-0.723
Mof_O 	O 	0.9796	0.2757	0.8246	-0.619
Mof_O 	O 	0.77638	0.285	0.5611	-0.666
Mof_O 	O 	0.7293	0.2518	0.7849	-0.687
Mof_O 	O 	0.8213	0.2626	0.789	-0.745
Mof_O 	O 	0.8392	0.1098	0.4625	-0.679
Mof_O 	O 	0.02559	0.2764	0.5224	-0.648
Mof_O 	O 	0.8374	0.9022	0.3857	-0.724
Mof_O 	O 	0.9793	0.7527	0.5503	-0.677
Mof_O 	O 	0.8998	0.4483	0.747	-0.695
Mof_O 	O 	0.1563	0.9254	0.638	-0.729
Mof_O 	O 	0.1372	0.4257	0.744	-0.68
Mof_O 	O 	0.9164	0.9233	0.6479	-0.705
Mof_O 	O 	0.892	0.0709	0.859	-0.698
Mof_O 	O 	0.0725	0.764	0.5684	-0.732
Mof_O 	O 	0.8984	0.3704	0.903	-0.725
Mof_O 	O 	0.8354	0.5961	0.3844	-0.702
Mof_O 	O 	0.6831	0.2638	0.5521	-0.721
Mof_O 	O 	0.8521	0.3932	0.4573	-0.71
Mof_O 	O 	0.148	0.1185	0.7207	-0.76
Mof_O 	O 	0.89	0.8877	0.9494	-0.522
Mof_O 	O 	0.0899	0.103	0.613	-0.777
Mof_O 	O 	0.7621	0.966	0.6089	-0.491
Mof_H 	H 	0.7843	0.0214	0.601	0.275
Mof_O 	O 	0.9903	0.0525	0.4962	-0.483
Mof_H 	H 	0.9692	0.9963	0.5078	0.25
Mof_O 	O 	0.7421	0.1791	0.4519	-0.496
Mof_H 	H 	0.7675	0.2015	0.4304	0.274
Mof_O 	O 	0.0217	0.5608	0.6011	-0.49
Mof_H 	H 	0.0452	0.5342	0.6257	0.279
Mof_O 	O 	0.0249	0.3207	0.7149	-0.458
Mof_H 	H 	0.0478	0.2976	0.6883	0.216
Mof_O 	O 	0.7794	0.0539	0.8251	-0.535
Mof_H 	H 	0.8061	0.035	0.8444	0.285
Mof_P 	P 	0.86312	0.47056	0.93787	0.946
Mof_H 	H 	0.8289	0.4895	0.905	-0.164
Mof_P 	P 	0.90311	0.4786	0.66696	0.766
Mof_P 	P 	0.89188	0.0409	0.93986	0.764
Mof_P 	P 	0.02317	0.718	0.59599	0.604
Mof_P 	P 	0.88394	0.03671	0.67702	0.656
Mof_P 	P 	0.02407	0.2262	0.78372	0.575
Mof_H 	H 	0.0102	0.0765	0.7602	-0.045
Mof_P 	P 	0.14311	0.4675	0.66544	0.621
Mof_P 	P 	0.87085	0.99413	0.43069	0.639
Mof_P 	P 	0.11959	0.0277	0.66932	0.694
Mof_P 	P 	0.77516	0.2	0.81801	0.842
Mof_P 	P 	0.73161	0.2809	0.51228	0.625
Mof_H 	H 	0.729	0.3973	0.4634	-0.053
Mof_P 	P 	0.84749	0.5472	0.45988	0.744
Mof_P 	P 	0.77258	0.8339	0.56601	0.639
Mof_P 	P 	0.98378	0.1818	0.54195	0.646
Mof_H 	H 	0.063	0.573	0.148	-0.183
Mof_H 	H 	0.078	0.912	0.46	-0.26
Mof_H 	H 	0.145	0.008	0.229	-0.07
Mof_H 	H 	0.812	0.58	0.146	-0.079
Mof_H 	H 	0.092	0.945	0.89	-0.046
Mof_H 	H 	0.916	0.029	0.217	-0.087
Mof_H 	H 	0.187	0.423	0.992	-0.074
Mof_H 	H 	0.228	0.123	0.996	0.089
Mof_H 	H 	0.008	0.873	0.107	-0.062
Mof_In	In	0.09962	0.73682	0.30539	3.168
Mof_In	In	0.09893	0.23078	0.06957	2.543
Mof_In	In	0.84991	0.74873	0.30811	3.246
Mof_In	In	0.15124	0.75515	0.57099	3.215
Mof_In	In	0.14471	0.74232	0.0446	2.457
Mof_In	In	0.10557	0.25311	0.53502	3.219
Mof_O 	O 	0.9281	0.7673	0.3261	-0.71
Mof_O 	O 	0.2274	0.813	0.4001	-0.537
Mof_H 	H 	0.2006	0.8414	0.4153	0.274
Mof_O 	O 	0.084	0.8564	0.2136	-0.72
Mof_O 	O 	0.1113	0.3939	0.4499	-0.712
Mof_O 	O 	0.1612	0.5844	0.5048	-0.783
Mof_O 	O 	0.1063	0.3852	0.9923	-0.519
Mof_O 	O 	0.1765	0.2183	0.0871	-0.675
Mof_O 	O 	0.1393	0.5848	0.124	-0.675
Mof_O 	O 	0.269	0.2633	0.0825	-0.64
Mof_O 	O 	0.0979	0.0772	0.9874	-0.481
Mof_O 	O 	0.15177	0.8868	0.4772	-0.761
Mof_O 	O 	0.0945	0.3675	0.1598	-0.608
Mof_O 	O 	0.1512	0.9018	0.1207	-0.684
Mof_O 	O 	0.8569	0.3759	0.1626	-0.617
Mof_O 	O 	0.0666	0.7564	0.0309	-0.681
Mof_O 	O 	0.8988	0.5932	0.1183	-0.651
Mof_O 	O 	0.0204	0.7243	0.3246	-0.641
Mof_O 	O 	0.22362	0.715	0.0611	-0.594
Mof_O 	O 	0.2707	0.7482	0.2849	-0.687
Mof_O 	O 	0.1787	0.7374	0.289	-0.741
Mof_O 	O 	0.1608	0.8902	0.9625	-0.474
Mof_O 	O 	0.97441	0.7236	0.0224	-0.63
Mof_O 	O 	0.1626	0.0978	0.8857	-0.702
Mof_O 	O 	0.0207	0.2473	0.0503	-0.677
Mof_O 	O 	0.1002	0.5517	0.247	-0.681
Mof_O 	O 	0.8437	0.0746	0.138	-0.69
Mof_O 	O 	0.8628	0.5743	0.244	-0.674
Mof_O 	O 	0.0836	0.0767	0.1479	-0.618
Mof_O 	O 	0.108	0.9291	0.359	-0.711
Mof_O 	O 	0.9275	0.236	0.0684	-0.751
Mof_O 	O 	0.1016	0.6296	0.403	-0.754
Mof_O 	O 	0.1646	0.4039	0.8844	-0.683
Mof_O 	O 	0.3169	0.7362	0.0521	-0.642
Mof_O 	O 	0.1479	0.6068	0.9573	-0.501
Mof_O 	O 	0.852	0.8815	0.2207	-0.748
Mof_O 	O 	0.11	0.1123	0.4494	-0.719
Mof_O 	O 	0.9101	0.897	0.113	-0.718
Mof_O 	O 	0.2379	0.034	0.1089	-0.435
Mof_H 	H 	0.2157	0.9786	0.101	0.224
Mof_O 	O 	0.0097	0.9475	0.9962	0.061
Mof_H 	H 	0.0308	0.0037	0.0078	-0.131
Mof_O 	O 	0.2579	0.8209	0.9519	-0.259
Mof_H 	H 	0.2325	0.7985	0.9304	0.227
Mof_O 	O 	0.9783	0.4392	0.1011	-0.514
Mof_H 	H 	0.9548	0.4658	0.1257	0.287
Mof_O 	O 	0.9751	0.6793	0.2149	-0.461
Mof_H 	H 	0.9522	0.7024	0.1883	0.227
Mof_O 	O 	0.2206	0.9461	0.3251	-0.537
Mof_H 	H 	0.1939	0.965	0.3444	0.282
Mof_P 	P 	0.13688	0.52944	0.43787	0.784
Mof_H 	H 	0.1711	0.5105	0.405	-0.159
Mof_P 	P 	0.09689	0.5214	0.16696	0.714
Mof_P 	P 	0.10812	0.9591	0.43986	0.825
Mof_P 	P 	0.97683	0.282	0.09599	0.582
Mof_P 	P 	0.11606	0.96329	0.17702	0.605
Mof_P 	P 	0.97593	0.7738	0.28372	0.574
Mof_H 	H 	0.9898	0.9235	0.2602	-0.05
Mof_P 	P 	0.85689	0.5325	0.16544	0.597
Mof_P 	P 	0.12915	0.00587	0.93069	0.607
Mof_P 	P 	0.88041	0.9723	0.16932	0.649
Mof_P 	P 	0.22484	0.8	0.31801	0.843
Mof_P 	P 	0.26839	0.7191	0.01228	0.254
Mof_H 	H 	0.271	0.6027	0.9634	0.096
Mof_P 	P 	0.15251	0.4528	0.95988	0.697
Mof_P 	P 	0.22742	0.1661	0.06601	0.423
Mof_P 	P 	0.01622	0.8182	0.04195	0.374
_end
