# CIF file generated by openbabel 3.1.0, see https://openbabel.org
data_I
_chemical_name_common 'image0'
_cell_length_a 31.81
_cell_length_b 14.993
_cell_length_c 13.22
_cell_angle_alpha 90
_cell_angle_beta 96.01
_cell_angle_gamma 90
_space_group_name_H-M_alt 'P 1'
_space_group_name_Hall 'P 1'
loop_
    _symmetry_equiv_pos_as_xyz
    x,y,z
loop_
    _atom_site_label
    _atom_site_type_symbol
    _atom_site_fract_x
    _atom_site_fract_y
    _atom_site_fract_z
    _atom_site_occupancy
    C1       C        0.21056    0.39914    0.74211    1.000
    C2       C        0.23587    0.46434    0.79230    1.000
    C3       C        0.21820    0.52663    0.85325    1.000
    C4       C        0.17523    0.52372    0.86401    1.000
    C5       C        0.14991    0.45853    0.81382    1.000
    C6       C        0.16758    0.39624    0.75288    1.000
    C7       C        0.99753    0.29039    0.87921    1.000
    C8       C        0.00263    0.38405    0.87957    1.000
    C9       C        0.96995    0.43856    0.90570    1.000
    C10      C        0.93275    0.39970    0.93229    1.000
    C11      C        0.92810    0.30860    0.93240    1.000
    C12      C        0.95994    0.25451    0.90583    1.000
    C13      C        0.04073    0.42260    0.85542    1.000
    C14      C        0.08123    0.38602    0.84502    1.000
    N1       N        0.10834    0.45683    0.82223    1.000
    N2       N        0.08460    0.53719    0.81854    1.000
    N3       N        0.04282    0.51603    0.83905    1.000
    C15      C        0.22905    0.33500    0.66980    1.000
    C16      C        0.24623    0.59630    0.91020    1.000
    C17      C        0.88841    0.26960    0.96660    1.000
    Eu1      Eu       0.18936    0.20674    0.47045    1.000
    O1       O        0.22986    0.66350    0.94410    1.000
    O2       O        0.28539    0.58232    0.92110    1.000
    O3       O        0.87931    0.18860    0.95340    1.000
    O4       O        0.86357    0.32110    0.00690    1.000
    O5       O        0.20530    0.27185    0.63640    1.000
    O6       O        0.26569    0.34992    0.64930    1.000
    C18      C        0.71056    0.89914    0.74211    1.000
    C19      C        0.73587    0.96434    0.79230    1.000
    C20      C        0.71820    0.02663    0.85325    1.000
    C21      C        0.67523    0.02372    0.86401    1.000
    C22      C        0.64991    0.95853    0.81382    1.000
    C23      C        0.66758    0.89624    0.75288    1.000
    C24      C        0.49753    0.79039    0.87921    1.000
    C25      C        0.50263    0.88405    0.87957    1.000
    C26      C        0.46995    0.93856    0.90570    1.000
    C27      C        0.43275    0.89970    0.93229    1.000
    C28      C        0.42810    0.80860    0.93240    1.000
    C29      C        0.45994    0.75451    0.90583    1.000
    C30      C        0.54073    0.92260    0.85542    1.000
    C31      C        0.58123    0.88602    0.84502    1.000
    N4       N        0.60834    0.95683    0.82223    1.000
    N5       N        0.58460    0.03719    0.81854    1.000
    N6       N        0.54282    0.01603    0.83905    1.000
    C32      C        0.72905    0.83500    0.66980    1.000
    C33      C        0.74623    0.09630    0.91020    1.000
    C34      C        0.38841    0.76960    0.96660    1.000
    Eu2      Eu       0.68936    0.70674    0.47045    1.000
    O7       O        0.72986    0.16350    0.94410    1.000
    O8       O        0.78539    0.08232    0.92110    1.000
    O9       O        0.37931    0.68860    0.95340    1.000
    O10      O        0.36357    0.82110    0.00690    1.000
    O11      O        0.70530    0.77185    0.63640    1.000
    O12      O        0.76569    0.84992    0.64930    1.000
    C35      C        0.78944    0.39914    0.75789    1.000
    C36      C        0.76413    0.46434    0.70770    1.000
    C37      C        0.78180    0.52663    0.64675    1.000
    C38      C        0.82477    0.52372    0.63599    1.000
    C39      C        0.85009    0.45853    0.68618    1.000
    C40      C        0.83242    0.39624    0.74712    1.000
    C41      C        0.00247    0.29039    0.62079    1.000
    C42      C        0.99737    0.38405    0.62043    1.000
    C43      C        0.03005    0.43856    0.59430    1.000
    C44      C        0.06725    0.39970    0.56771    1.000
    C45      C        0.07190    0.30860    0.56760    1.000
    C46      C        0.04006    0.25451    0.59417    1.000
    C47      C        0.95927    0.42260    0.64458    1.000
    C48      C        0.91877    0.38602    0.65498    1.000
    N7       N        0.89166    0.45683    0.67777    1.000
    N8       N        0.91540    0.53719    0.68146    1.000
    N9       N        0.95718    0.51603    0.66095    1.000
    C49      C        0.77095    0.33500    0.83020    1.000
    C50      C        0.75377    0.59630    0.58980    1.000
    C51      C        0.11159    0.26960    0.53340    1.000
    Eu3      Eu       0.81064    0.20674    0.02955    1.000
    O13      O        0.77014    0.66350    0.55590    1.000
    O14      O        0.71461    0.58232    0.57890    1.000
    O15      O        0.12069    0.18860    0.54660    1.000
    O16      O        0.13643    0.32110    0.49310    1.000
    O17      O        0.79470    0.27185    0.86360    1.000
    O18      O        0.73431    0.34992    0.85070    1.000
    C52      C        0.28944    0.89914    0.75789    1.000
    C53      C        0.26413    0.96434    0.70770    1.000
    C54      C        0.28180    0.02663    0.64675    1.000
    C55      C        0.32477    0.02372    0.63599    1.000
    C56      C        0.35009    0.95853    0.68618    1.000
    C57      C        0.33242    0.89624    0.74712    1.000
    C58      C        0.50247    0.79039    0.62079    1.000
    C59      C        0.49737    0.88405    0.62043    1.000
    C60      C        0.53005    0.93856    0.59430    1.000
    C61      C        0.56725    0.89970    0.56771    1.000
    C62      C        0.57190    0.80860    0.56760    1.000
    C63      C        0.54006    0.75451    0.59417    1.000
    C64      C        0.45927    0.92260    0.64458    1.000
    C65      C        0.41877    0.88602    0.65498    1.000
    N10      N        0.39166    0.95683    0.67777    1.000
    N11      N        0.41540    0.03719    0.68146    1.000
    N12      N        0.45718    0.01603    0.66095    1.000
    C66      C        0.27095    0.83500    0.83020    1.000
    C67      C        0.25377    0.09630    0.58980    1.000
    C68      C        0.61159    0.76960    0.53340    1.000
    Eu4      Eu       0.31064    0.70674    0.02955    1.000
    O19      O        0.27014    0.16350    0.55590    1.000
    O20      O        0.21461    0.08232    0.57890    1.000
    O21      O        0.62069    0.68860    0.54660    1.000
    O22      O        0.63643    0.82110    0.49310    1.000
    O23      O        0.29470    0.77185    0.86360    1.000
    O24      O        0.23431    0.84992    0.85070    1.000
    C69      C        0.78944    0.60086    0.25789    1.000
    C70      C        0.76413    0.53566    0.20770    1.000
    C71      C        0.78180    0.47337    0.14675    1.000
    C72      C        0.82477    0.47628    0.13599    1.000
    C73      C        0.85009    0.54147    0.18618    1.000
    C74      C        0.83242    0.60376    0.24712    1.000
    C75      C        0.00247    0.70961    0.12079    1.000
    C76      C        0.99737    0.61595    0.12043    1.000
    C77      C        0.03005    0.56144    0.09430    1.000
    C78      C        0.06725    0.60030    0.06771    1.000
    C79      C        0.07190    0.69140    0.06760    1.000
    C80      C        0.04006    0.74549    0.09417    1.000
    C81      C        0.95927    0.57740    0.14458    1.000
    C82      C        0.91877    0.61398    0.15498    1.000
    N13      N        0.89166    0.54317    0.17777    1.000
    N14      N        0.91540    0.46281    0.18146    1.000
    N15      N        0.95718    0.48397    0.16095    1.000
    C83      C        0.77095    0.66500    0.33020    1.000
    C84      C        0.75377    0.40370    0.08980    1.000
    C85      C        0.11159    0.73040    0.03340    1.000
    Eu5      Eu       0.81064    0.79326    0.52955    1.000
    O25      O        0.77014    0.33650    0.05590    1.000
    O26      O        0.71461    0.41768    0.07890    1.000
    O27      O        0.12069    0.81140    0.04660    1.000
    O28      O        0.13643    0.67890    0.99310    1.000
    O29      O        0.79470    0.72815    0.36360    1.000
    O30      O        0.73431    0.65008    0.35070    1.000
    C86      C        0.28944    0.10086    0.25789    1.000
    C87      C        0.26413    0.03566    0.20770    1.000
    C88      C        0.28180    0.97337    0.14675    1.000
    C89      C        0.32477    0.97628    0.13599    1.000
    C90      C        0.35009    0.04147    0.18618    1.000
    C91      C        0.33242    0.10376    0.24712    1.000
    C92      C        0.50247    0.20961    0.12079    1.000
    C93      C        0.49737    0.11595    0.12043    1.000
    C94      C        0.53005    0.06144    0.09430    1.000
    C95      C        0.56725    0.10030    0.06771    1.000
    C96      C        0.57190    0.19140    0.06760    1.000
    C97      C        0.54006    0.24549    0.09417    1.000
    C98      C        0.45927    0.07740    0.14458    1.000
    C99      C        0.41877    0.11398    0.15498    1.000
    N16      N        0.39166    0.04317    0.17777    1.000
    N17      N        0.41540    0.96281    0.18146    1.000
    N18      N        0.45718    0.98397    0.16095    1.000
    C100     C        0.27095    0.16500    0.33020    1.000
    C101     C        0.25377    0.90370    0.08980    1.000
    C102     C        0.61159    0.23040    0.03340    1.000
    Eu6      Eu       0.31064    0.29326    0.52955    1.000
    O31      O        0.27014    0.83650    0.05590    1.000
    O32      O        0.21461    0.91768    0.07890    1.000
    O33      O        0.62069    0.31140    0.04660    1.000
    O34      O        0.63643    0.17890    0.99310    1.000
    O35      O        0.29470    0.22815    0.36360    1.000
    O36      O        0.23431    0.15008    0.35070    1.000
    C103     C        0.21056    0.60086    0.24211    1.000
    C104     C        0.23587    0.53566    0.29230    1.000
    C105     C        0.21820    0.47337    0.35325    1.000
    C106     C        0.17523    0.47628    0.36401    1.000
    C107     C        0.14991    0.54147    0.31382    1.000
    C108     C        0.16758    0.60376    0.25288    1.000
    C109     C        0.99753    0.70961    0.37921    1.000
    C110     C        0.00263    0.61595    0.37957    1.000
    C111     C        0.96995    0.56144    0.40570    1.000
    C112     C        0.93275    0.60030    0.43229    1.000
    C113     C        0.92810    0.69140    0.43240    1.000
    C114     C        0.95994    0.74549    0.40583    1.000
    C115     C        0.04073    0.57740    0.35542    1.000
    C116     C        0.08123    0.61398    0.34502    1.000
    N19      N        0.10834    0.54317    0.32223    1.000
    N20      N        0.08460    0.46281    0.31854    1.000
    N21      N        0.04282    0.48397    0.33905    1.000
    C117     C        0.22905    0.66500    0.16980    1.000
    C118     C        0.24623    0.40370    0.41020    1.000
    C119     C        0.88841    0.73040    0.46660    1.000
    Eu7      Eu       0.18936    0.79326    0.97045    1.000
    O37      O        0.22986    0.33650    0.44410    1.000
    O38      O        0.28539    0.41768    0.42110    1.000
    O39      O        0.87931    0.81140    0.45340    1.000
    O40      O        0.86357    0.67890    0.50690    1.000
    O41      O        0.20530    0.72815    0.13640    1.000
    O42      O        0.26569    0.65008    0.14930    1.000
    C120     C        0.71056    0.10086    0.24211    1.000
    C121     C        0.73587    0.03566    0.29230    1.000
    C122     C        0.71820    0.97337    0.35325    1.000
    C123     C        0.67523    0.97628    0.36401    1.000
    C124     C        0.64991    0.04147    0.31382    1.000
    C125     C        0.66758    0.10376    0.25288    1.000
    C126     C        0.49753    0.20961    0.37921    1.000
    C127     C        0.50263    0.11595    0.37957    1.000
    C128     C        0.46995    0.06144    0.40570    1.000
    C129     C        0.43275    0.10030    0.43229    1.000
    C130     C        0.42810    0.19140    0.43240    1.000
    C131     C        0.45994    0.24549    0.40583    1.000
    C132     C        0.54073    0.07740    0.35542    1.000
    C133     C        0.58123    0.11398    0.34502    1.000
    N22      N        0.60834    0.04317    0.32223    1.000
    N23      N        0.58460    0.96281    0.31854    1.000
    N24      N        0.54282    0.98397    0.33905    1.000
    C134     C        0.72905    0.16500    0.16980    1.000
    C135     C        0.74623    0.90370    0.41020    1.000
    C136     C        0.38841    0.23040    0.46660    1.000
    Eu8      Eu       0.68936    0.29326    0.97045    1.000
    O43      O        0.72986    0.83650    0.44410    1.000
    O44      O        0.78539    0.91768    0.42110    1.000
    O45      O        0.37931    0.31140    0.45340    1.000
    O46      O        0.36357    0.17890    0.50690    1.000
    O47      O        0.70530    0.22815    0.13640    1.000
    O48      O        0.76569    0.15008    0.14930    1.000
