data_functionalizedCrystal
_audit_creation_method	'EQeq! by Chris Wilmer'
_symmetry_space_group_name_H-M	'P1'
_symmetry_Int_Tables_number	1
_symmetry_cell_setting	triclinic
loop_
_symmetry_equiv_pos_as_xyz
  x,y,z
_cell_length_a	10.692
_cell_length_b	17.219
_cell_length_c	17.855
_cell_angle_alpha	104.852
_cell_angle_beta	90
_cell_angle_gamma	90
loop_
_atom_site_label
_atom_site_type_symbol
_atom_site_fract_x
_atom_site_fract_y
_atom_site_fract_z
_atom_site_charge
Mof_Eu	Eu	0.86987	0.92429	0.51574	2.352
Mof_Eu	Eu	0.57293	0.11061	0.98566	2.471
Mof_Eu	Eu	0.36987	0.57571	0.98426	2.375
Mof_Eu	Eu	0.07293	0.38939	0.51434	2.465
Mof_Eu	Eu	0.13013	0.07571	0.48426	2.351
Mof_Eu	Eu	0.42707	0.88939	0.01434	2.47
Mof_Eu	Eu	0.63013	0.42429	0.01574	2.375
Mof_Eu	Eu	0.92707	0.61061	0.48566	2.465
Mof_H 	H 	0.9552	0.2783	0.6958	0.03
Mof_H 	H 	0.8743	0.3294	0.8272	0.019
Mof_H 	H 	0.1015	0.9264	0.8294	0.031
Mof_H 	H 	0.0291	0.9234	0.7014	0.022
Mof_H 	H 	0.6494	0.7708	0.8408	0.005
Mof_H 	H 	0.7594	0.7005	0.7218	0.026
Mof_H 	H 	0.4552	0.2217	0.8042	0.029
Mof_H 	H 	0.3743	0.1706	0.6728	0.019
Mof_H 	H 	0.6015	0.5736	0.6706	0.03
Mof_H 	H 	0.5291	0.5766	0.7986	0.019
Mof_H 	H 	0.1494	0.7292	0.6592	0.005
Mof_H 	H 	0.2594	0.7995	0.7782	0.026
Mof_H 	H 	0.0448	0.7217	0.3042	0.03
Mof_H 	H 	0.1257	0.6706	0.1728	0.019
Mof_H 	H 	0.8985	0.0736	0.1706	0.031
Mof_H 	H 	0.9709	0.0766	0.2986	0.022
Mof_H 	H 	0.3506	0.2292	0.1592	0.005
Mof_H 	H 	0.2406	0.2995	0.2782	0.026
Mof_H 	H 	0.5448	0.7783	0.1958	0.029
Mof_H 	H 	0.6257	0.8294	0.3272	0.019
Mof_H 	H 	0.3985	0.4264	0.3294	0.03
Mof_H 	H 	0.4709	0.4234	0.2014	0.019
Mof_H 	H 	0.8506	0.2708	0.3408	0.005
Mof_H 	H 	0.7406	0.2005	0.2218	0.026
Mof_C 	C 	0.8918	0.118	0.6138	0.498
Mof_C 	C 	0.8636	0.1731	0.692	-0.153
Mof_C 	C 	0.9041	0.2496	0.7212	-0.009
Mof_C 	C 	0.8555	0.2782	0.797	0.03
Mof_C 	C 	0.7803	0.2277	0.8237	-0.19
Mof_C 	C 	0.7087	0.2404	0.8966	0.565
Mof_C 	C 	0.3368	0.9959	0.8848	0.514
Mof_C 	C 	0.2615	0.9853	0.8126	-0.155
Mof_C 	C 	0.1461	0.9484	0.7951	-0.008
Mof_C 	C 	0.1038	0.9473	0.7221	0.025
Mof_C 	C 	0.183	0.985	0.6839	-0.181
Mof_C 	C 	0.1668	0.9981	0.6092	0.5
Mof_C 	C 	0.6557	0.9396	0.8875	0.522
Mof_C 	C 	0.6979	0.8775	0.8219	-0.187
Mof_C 	C 	0.6906	0.7969	0.8083	0.025
Mof_C 	C 	0.7526	0.756	0.739	0.01
Mof_C 	C 	0.8024	0.8099	0.6998	-0.211
Mof_C 	C 	0.8642	0.7903	0.6249	0.589
Mof_C 	C 	0.3918	0.382	0.8862	0.5
Mof_C 	C 	0.3636	0.3269	0.808	-0.155
Mof_C 	C 	0.4041	0.2504	0.7788	-0.008
Mof_C 	C 	0.3555	0.2218	0.703	0.028
Mof_C 	C 	0.2803	0.2723	0.6763	-0.19
Mof_C 	C 	0.2087	0.2596	0.6034	0.563
Mof_C 	C 	0.8368	0.5041	0.6152	0.51
Mof_C 	C 	0.7615	0.5147	0.6874	-0.159
Mof_C 	C 	0.6461	0.5516	0.7049	-0.008
Mof_C 	C 	0.6038	0.5527	0.7779	0.026
Mof_C 	C 	0.683	0.515	0.8161	-0.186
Mof_C 	C 	0.6668	0.5019	0.8908	0.498
Mof_C 	C 	0.1557	0.5604	0.6125	0.522
Mof_C 	C 	0.1979	0.6225	0.6781	-0.188
Mof_C 	C 	0.1906	0.7031	0.6917	0.025
Mof_C 	C 	0.2526	0.744	0.761	0.01
Mof_C 	C 	0.3024	0.6901	0.8002	-0.211
Mof_C 	C 	0.3642	0.7097	0.8751	0.591
Mof_C 	C 	0.1082	0.882	0.3862	0.498
Mof_C 	C 	0.1364	0.8269	0.308	-0.153
Mof_C 	C 	0.0959	0.7504	0.2788	-0.009
Mof_C 	C 	0.1445	0.7218	0.203	0.03
Mof_C 	C 	0.2197	0.7723	0.1763	-0.19
Mof_C 	C 	0.2913	0.7596	0.1034	0.565
Mof_C 	C 	0.6632	0.0041	0.1152	0.514
Mof_C 	C 	0.7385	0.0147	0.1874	-0.155
Mof_C 	C 	0.8539	0.0516	0.2049	-0.008
Mof_C 	C 	0.8962	0.0527	0.2779	0.025
Mof_C 	C 	0.817	0.015	0.3161	-0.181
Mof_C 	C 	0.8332	0.0019	0.3908	0.5
Mof_C 	C 	0.3443	0.0604	0.1125	0.522
Mof_C 	C 	0.3021	0.1225	0.1781	-0.187
Mof_C 	C 	0.3094	0.2031	0.1917	0.025
Mof_C 	C 	0.2474	0.244	0.261	0.01
Mof_C 	C 	0.1976	0.1901	0.3002	-0.211
Mof_C 	C 	0.1358	0.2097	0.3751	0.589
Mof_C 	C 	0.6082	0.618	0.1138	0.5
Mof_C 	C 	0.6364	0.6731	0.192	-0.155
Mof_C 	C 	0.5959	0.7496	0.2212	-0.008
Mof_C 	C 	0.6445	0.7782	0.297	0.028
Mof_C 	C 	0.7197	0.7277	0.3237	-0.19
Mof_C 	C 	0.7913	0.7404	0.3966	0.563
Mof_C 	C 	0.1632	0.4959	0.3848	0.51
Mof_C 	C 	0.2385	0.4853	0.3126	-0.159
Mof_C 	C 	0.3539	0.4484	0.2951	-0.008
Mof_C 	C 	0.3962	0.4473	0.2221	0.026
Mof_C 	C 	0.317	0.485	0.1839	-0.186
Mof_C 	C 	0.3332	0.4981	0.1092	0.498
Mof_C 	C 	0.8443	0.4396	0.3875	0.522
Mof_C 	C 	0.8021	0.3775	0.3219	-0.188
Mof_C 	C 	0.8094	0.2969	0.3083	0.025
Mof_C 	C 	0.7474	0.256	0.239	0.01
Mof_C 	C 	0.6976	0.3099	0.1998	-0.211
Mof_C 	C 	0.6358	0.2903	0.1249	0.591
Mof_S 	S 	0.7621	0.14139	0.75143	0.081
Mof_S 	S 	0.3128	0.02021	0.73956	0.072
Mof_S 	S 	0.7774	0.90616	0.75091	0.069
Mof_S 	S 	0.2621	0.35861	0.74857	0.079
Mof_S 	S 	0.8128	0.47979	0.76044	0.082
Mof_S 	S 	0.2774	0.59384	0.74909	0.071
Mof_S 	S 	0.2379	0.85861	0.24857	0.081
Mof_S 	S 	0.6872	0.97979	0.26044	0.072
Mof_S 	S 	0.2226	0.09384	0.24909	0.069
Mof_S 	S 	0.7379	0.64139	0.25143	0.079
Mof_S 	S 	0.1872	0.52021	0.23956	0.082
Mof_S 	S 	0.7226	0.40616	0.25091	0.071
Mof_O 	O 	0.838	0.0522	0.5957	-0.618
Mof_O 	O 	0.9763	0.1445	0.5754	-0.557
Mof_O 	O 	0.6418	0.183	0.9042	-0.653
Mof_O 	O 	0.7267	0.305	0.9477	-0.617
Mof_O 	O 	0.3101	0.9533	0.9308	-0.565
Mof_O 	O 	0.4235	0.046	0.8929	-0.604
Mof_O 	O 	0.0665	0.9801	0.573	-0.669
Mof_O 	O 	0.2492	0.0344	0.5826	-0.556
Mof_O 	O 	0.6862	0.0106	0.8943	-0.572
Mof_O 	O 	0.5786	0.9187	0.9345	-0.655
Mof_O 	O 	0.8796	0.7169	0.59	-0.639
Mof_O 	O 	0.9042	0.846	0.601	-0.656
Mof_O 	O 	0.338	0.4478	0.9043	-0.624
Mof_O 	O 	0.4763	0.3555	0.9246	-0.563
Mof_O 	O 	0.1418	0.317	0.5958	-0.653
Mof_O 	O 	0.2267	0.195	0.5523	-0.615
Mof_O 	O 	0.8101	0.5467	0.5692	-0.566
Mof_O 	O 	0.9235	0.454	0.6071	-0.599
Mof_O 	O 	0.5665	0.5199	0.927	-0.674
Mof_O 	O 	0.7492	0.4656	0.9174	-0.553
Mof_O 	O 	0.1862	0.4894	0.6057	-0.572
Mof_O 	O 	0.0786	0.5813	0.5655	-0.655
Mof_O 	O 	0.3796	0.7831	0.91	-0.638
Mof_O 	O 	0.4042	0.654	0.899	-0.656
Mof_O 	O 	0.162	0.9478	0.4043	-0.618
Mof_O 	O 	0.0237	0.8555	0.4246	-0.557
Mof_O 	O 	0.3582	0.817	0.0958	-0.653
Mof_O 	O 	0.2733	0.695	0.0523	-0.617
Mof_O 	O 	0.6899	0.0467	0.0692	-0.565
Mof_O 	O 	0.5765	0.954	0.1071	-0.604
Mof_O 	O 	0.9335	0.0199	0.427	-0.669
Mof_O 	O 	0.7508	0.9656	0.4174	-0.556
Mof_O 	O 	0.3138	0.9894	0.1057	-0.572
Mof_O 	O 	0.4214	0.0813	0.0655	-0.655
Mof_O 	O 	0.1204	0.2831	0.41	-0.639
Mof_O 	O 	0.0958	0.154	0.399	-0.656
Mof_O 	O 	0.662	0.5522	0.0957	-0.624
Mof_O 	O 	0.5237	0.6445	0.0754	-0.563
Mof_O 	O 	0.8582	0.683	0.4042	-0.653
Mof_O 	O 	0.7733	0.805	0.4477	-0.615
Mof_O 	O 	0.1899	0.4533	0.4308	-0.566
Mof_O 	O 	0.0765	0.546	0.3929	-0.599
Mof_O 	O 	0.4335	0.4801	0.073	-0.674
Mof_O 	O 	0.2508	0.5344	0.0826	-0.553
Mof_O 	O 	0.8138	0.5106	0.3943	-0.572
Mof_O 	O 	0.9214	0.4187	0.4345	-0.655
Mof_O 	O 	0.6204	0.2169	0.09	-0.638
Mof_O 	O 	0.5958	0.346	0.101	-0.656
_end
