data_functionalizedCrystal
_audit_creation_method	'EQeq! by Chris Wilmer'
_symmetry_space_group_name_H-M	'P1'
_symmetry_Int_Tables_number	1
_symmetry_cell_setting	triclinic
loop_
_symmetry_equiv_pos_as_xyz
  x,y,z
_cell_length_a	16.6995
_cell_length_b	16.7106
_cell_length_c	9.7907
_cell_angle_alpha	90
_cell_angle_beta	90
_cell_angle_gamma	90
loop_
_atom_site_label
_atom_site_type_symbol
_atom_site_fract_x
_atom_site_fract_y
_atom_site_fract_z
_atom_site_charge
Mof_Na	Na	0.8619	0.6865	0.8283	2.086
Mof_O 	O 	0.9258	0.796	0.7016	-1
Mof_Na	Na	0.3619	0.1865	0.3283	1.979
Mof_O 	O 	0.4258	0.296	0.2016	-1.048
Mof_Na	Na	0.1381	0.8135	0.8283	1.951
Mof_O 	O 	0.0742	0.704	0.7016	-1.04
Mof_Na	Na	0.6381	0.3135	0.3283	1.981
Mof_O 	O 	0.5742	0.204	0.2016	-1.053
Mof_Na	Na	0.1381	0.1865	0.1717	1.952
Mof_O 	O 	0.0742	0.296	0.2984	-1.039
Mof_Na	Na	0.6381	0.6865	0.6717	1.981
Mof_O 	O 	0.5742	0.796	0.7984	-1.053
Mof_Na	Na	0.8619	0.3135	0.1717	2.087
Mof_O 	O 	0.9258	0.204	0.2984	-0.999
Mof_Na	Na	0.3619	0.8135	0.6717	1.98
Mof_O 	O 	0.4258	0.704	0.7984	-1.047
Mof_Na	Na	0.1381	0.3135	0.1717	1.982
Mof_O 	O 	0.0742	0.204	0.2984	-1.032
Mof_Na	Na	0.6381	0.8135	0.6717	1.995
Mof_O 	O 	0.5742	0.704	0.7984	-1.049
Mof_Na	Na	0.8619	0.1865	0.1717	2.044
Mof_O 	O 	0.9258	0.296	0.2984	-1.009
Mof_Na	Na	0.3619	0.6865	0.6717	1.971
Mof_O 	O 	0.4258	0.796	0.7984	-1.049
Mof_Na	Na	0.8619	0.8135	0.8283	2.044
Mof_O 	O 	0.9258	0.704	0.7016	-1.009
Mof_Na	Na	0.3619	0.3135	0.3283	1.971
Mof_O 	O 	0.4258	0.204	0.2016	-1.049
Mof_Na	Na	0.1381	0.6865	0.8283	1.982
Mof_O 	O 	0.0742	0.796	0.7016	-1.032
Mof_Na	Na	0.6381	0.1865	0.3283	1.995
Mof_O 	O 	0.5742	0.296	0.2016	-1.049
Mof_Ho	Ho	-8.91417e-34	0.75	0.11987	1.518
Mof_Na	Na	3.42456e-33	0.75	0.5071	2.584
Mof_Ho	Ho	0.5	0.25	0.61987	1.633
Mof_Na	Na	0.5	0.25	0.0071	2.836
Mof_Ho	Ho	1.93472e-33	0.25	0.88013	1.518
Mof_Na	Na	-1.22633e-33	0.25	0.4929	2.584
Mof_Ho	Ho	0.5	0.75	0.38013	1.633
Mof_Na	Na	0.5	0.75	0.9929	2.836
Mof_O 	O 	0.0902	0.75	0.31	-0.749
Mof_O 	O 	0.136	0.75	0.0513	-0.875
Mof_C 	C 	0.1676	0.75	0.2878	0.136
Mof_C 	C 	0.1928	0.75	0.1422	0.131
Mof_C 	C 	0.2253	0.75	0.39	-0.362
Mof_H 	H 	0.2091	0.75	0.483	-0.078
Mof_O 	O 	0.5902	0.25	0.81	-0.78
Mof_O 	O 	0.636	0.25	0.5513	-0.893
Mof_C 	C 	0.6676	0.25	0.7878	0.146
Mof_C 	C 	0.6928	0.25	0.6422	0.128
Mof_C 	C 	0.7253	0.25	0.89	-0.366
Mof_H 	H 	0.7091	0.25	0.983	-0.081
Mof_O 	O 	0.9098	0.75	0.31	-0.685
Mof_O 	O 	0.864	0.75	0.0513	-0.864
Mof_C 	C 	0.8324	0.75	0.2878	0.133
Mof_C 	C 	0.8072	0.75	0.1422	0.142
Mof_C 	C 	0.7747	0.75	0.39	-0.348
Mof_H 	H 	0.7909	0.75	0.483	-0.077
Mof_O 	O 	0.4098	0.25	0.81	-0.78
Mof_O 	O 	0.364	0.25	0.5513	-0.892
Mof_C 	C 	0.3324	0.25	0.7878	0.142
Mof_C 	C 	0.3072	0.25	0.6422	0.129
Mof_C 	C 	0.2747	0.25	0.89	-0.365
Mof_H 	H 	0.2909	0.25	0.983	-0.079
Mof_O 	O 	0.9098	0.25	0.69	-0.685
Mof_O 	O 	0.864	0.25	0.9487	-0.864
Mof_C 	C 	0.8324	0.25	0.7122	0.133
Mof_C 	C 	0.8072	0.25	0.8578	0.142
Mof_C 	C 	0.7747	0.25	0.61	-0.348
Mof_H 	H 	0.7909	0.25	0.517	-0.077
Mof_O 	O 	0.4098	0.75	0.19	-0.78
Mof_O 	O 	0.364	0.75	0.4487	-0.892
Mof_C 	C 	0.3324	0.75	0.2122	0.142
Mof_C 	C 	0.3072	0.75	0.3578	0.129
Mof_C 	C 	0.2747	0.75	0.11	-0.365
Mof_H 	H 	0.2909	0.75	0.017	-0.079
Mof_O 	O 	0.0902	0.25	0.69	-0.749
Mof_O 	O 	0.136	0.25	0.9487	-0.875
Mof_C 	C 	0.1676	0.25	0.7122	0.136
Mof_C 	C 	0.1928	0.25	0.8578	0.131
Mof_C 	C 	0.2253	0.25	0.61	-0.362
Mof_H 	H 	0.2091	0.25	0.517	-0.078
Mof_O 	O 	0.5902	0.75	0.19	-0.78
Mof_O 	O 	0.636	0.75	0.4487	-0.893
Mof_C 	C 	0.6676	0.75	0.2122	0.146
Mof_C 	C 	0.6928	0.75	0.3578	0.128
Mof_C 	C 	0.7253	0.75	0.11	-0.366
Mof_H 	H 	0.7091	0.75	0.017	-0.081
Mof_O 	O 	-8.80937e-33	0.617	0.1956	-0.542
Mof_O 	O 	-1.18068e-32	0.6603	0.9336	-0.742
Mof_C 	C 	-1.18224e-32	0.478	0.1384	-0.318
Mof_C 	C 	2.11271e-33	0.5831	0.9611	-0.015
Mof_C 	C 	-2.0799e-33	0.5585	0.1046	0.059
Mof_H 	H 	-5.26416e-33	0.4634	0.2322	-0.06
Mof_O 	O 	0.5	0.117	0.6956	-0.534
Mof_O 	O 	0.5	0.1603	0.4336	-0.717
Mof_C 	C 	0.5	0.978	0.6384	-0.31
Mof_C 	C 	0.5	0.0831	0.4611	-0.003
Mof_C 	C 	0.5	0.0585	0.6046	0.07
Mof_H 	H 	0.5	0.9634	0.7322	-0.05
Mof_O 	O 	5.04964e-33	0.883	0.1956	-0.544
Mof_O 	O 	-7.18708e-33	0.8397	0.9336	-0.737
Mof_C 	C 	-2.73225e-34	0.022	0.1384	-0.329
Mof_C 	C 	-2.50696e-33	0.9169	0.9611	-0.02
Mof_C 	C 	-6.69957e-33	0.9415	0.1046	0.076
Mof_H 	H 	-1.79941e-33	0.0366	0.2322	-0.056
Mof_O 	O 	0.5	0.383	0.6956	-0.535
Mof_O 	O 	0.5	0.3397	0.4336	-0.715
Mof_C 	C 	0.5	0.522	0.6384	-0.306
Mof_C 	C 	0.5	0.4169	0.4611	-0.003
Mof_C 	C 	0.5	0.4415	0.6046	0.067
Mof_H 	H 	0.5	0.5366	0.7322	-0.049
Mof_O 	O 	1.76825e-33	0.117	0.8044	-0.544
Mof_O 	O 	-2.74133e-33	0.1603	0.0664	-0.737
Mof_C 	C 	1.89399e-33	0.978	0.8616	-0.329
Mof_C 	C 	-1.64687e-33	0.0831	0.0389	-0.02
Mof_C 	C 	-7.27105e-33	0.0585	0.8954	0.076
Mof_H 	H 	1.6878e-33	0.9634	0.7678	-0.056
Mof_O 	O 	0.5	0.617	0.3044	-0.535
Mof_O 	O 	0.5	0.6603	0.5664	-0.715
Mof_C 	C 	0.5	0.478	0.3616	-0.306
Mof_C 	C 	0.5	0.5831	0.5389	-0.003
Mof_C 	C 	0.5	0.5585	0.3954	0.067
Mof_H 	H 	0.5	0.4634	0.2678	-0.049
Mof_O 	O 	1.76825e-33	0.383	0.8044	-0.542
Mof_O 	O 	-1.58641e-33	0.3397	0.0664	-0.742
Mof_C 	C 	-2.72568e-33	0.522	0.8616	-0.318
Mof_C 	C 	-6.26654e-33	0.4169	0.0389	-0.015
Mof_C 	C 	-2.65138e-33	0.4415	0.8954	0.059
Mof_H 	H 	-1.21712e-32	0.5366	0.7678	-0.06
Mof_O 	O 	0.5	0.883	0.3044	-0.534
Mof_O 	O 	0.5	0.8397	0.5664	-0.717
Mof_C 	C 	0.5	0.022	0.3616	-0.31
Mof_C 	C 	0.5	0.9169	0.5389	-0.003
Mof_C 	C 	0.5	0.9415	0.3954	0.07
Mof_H 	H 	0.5	0.0366	0.2678	-0.05
Mof_O 	O 	0.75	0.75	0.75	-1.403
Mof_O 	O 	0.25	0.25	0.25	-1.38
Mof_O 	O 	0.25	0.75	0.75	-1.38
Mof_O 	O 	0.75	0.25	0.25	-1.403
_end
