data_functionalizedCrystal
_audit_creation_method	'EQeq! by Chris Wilmer'
_symmetry_space_group_name_H-M	'P1'
_symmetry_Int_Tables_number	1
_symmetry_cell_setting	triclinic
loop_
_symmetry_equiv_pos_as_xyz
  x,y,z
_cell_length_a	10.602
_cell_length_b	11.33
_cell_length_c	12.446
_cell_angle_alpha	86.27
_cell_angle_beta	82.02
_cell_angle_gamma	89.22
loop_
_atom_site_label
_atom_site_type_symbol
_atom_site_fract_x
_atom_site_fract_y
_atom_site_fract_z
_atom_site_charge
Mof_Gd	Gd	0.42748	0.98598	0.26144	1.583
Mof_Zn	Zn	0.63184	0.3377	0.29809	1.211
Mof_O 	O 	0.5342	0.0888	0.0937	-0.355
Mof_O 	O 	0.553	0.1839	0.24	-0.507
Mof_O 	O 	0.1973	0.9988	0.3354	-0.354
Mof_O 	O 	0.2759	0.142	0.2175	-0.359
Mof_O 	O 	0.4174	0.7491	0.5427	-0.461
Mof_O 	O 	0.7005	0.5026	0.3249	-0.401
Mof_O 	O 	0.694	0.1134	0.8612	-0.347
Mof_O 	O 	0.392	0.8202	0.3769	-0.478
Mof_O 	O 	0.498	0.1789	0.8584	-0.353
Mof_O 	O 	0.6416	0.6825	0.3766	-0.247
Mof_N 	N 	0.4597	0.4346	0.3354	-0.233
Mof_N 	N 	0.813	0.257	0.2945	-0.241
Mof_N 	N 	0.6477	0.3754	0.1227	-0.22
Mof_C 	C 	0.4789	0.5429	0.3682	0.023
Mof_C 	C 	0.5663	0.1777	0.137	0.293
Mof_C 	C 	0.3999	0.737	0.4464	0.461
Mof_C 	C 	0.6186	0.5804	0.3561	0.284
Mof_C 	C 	0.3789	0.6147	0.4114	-0.156
Mof_C 	C 	0.6187	0.2838	0.0674	-0.002
Mof_C 	C 	0.1825	0.0934	0.2793	0.273
Mof_C 	C 	0.34	0.3944	0.3429	0.097
Mof_H 	H 	0.3264	0.32	0.3193	-0.007
Mof_C 	C 	0.6046	0.1849	0.8895	0.322
Mof_C 	C 	0.256	0.5711	0.4191	0.086
Mof_H 	H 	0.187	0.6165	0.4475	0.006
Mof_C 	C 	0.0533	0.1505	0.2842	0.004
Mof_C 	C 	0.2365	0.4607	0.3849	-0.149
Mof_H 	H 	0.1545	0.4309	0.39	0.091
Mof_C 	C 	0.6324	0.2875	0.9544	-0.064
Mof_C 	C 	0.0351	0.2568	0.2264	-0.094
Mof_H 	H 	0.1031	0.2943	0.1827	0.077
Mof_C 	C 	0.9486	0.1002	0.3482	-0.098
Mof_H 	H 	0.9572	0.0299	0.3895	0.082
Mof_C 	C 	0.8312	0.1543	0.3508	0.068
Mof_H 	H 	0.7615	0.1182	0.3933	-0.008
Mof_C 	C 	0.9151	0.3061	0.2345	0.064
Mof_H 	H 	0.9046	0.3778	0.1959	0.001
Mof_C 	C 	0.6864	0.4763	0.0667	0.068
Mof_H 	H 	0.7052	0.5405	0.1045	0.013
Mof_C 	C 	0.6737	0.3921	0.8987	0.027
Mof_H 	H 	0.6844	0.3979	0.8231	0.033
Mof_C 	C 	0.6993	0.4882	0.9545	-0.11
Mof_H 	H 	0.7247	0.5597	0.9174	0.076
Mof_Gd	Gd	0.57252	0.01402	0.73856	1.584
Mof_Zn	Zn	0.36816	0.6623	0.70191	1.212
Mof_O 	O 	0.4658	0.9112	0.9063	-0.355
Mof_O 	O 	0.447	0.8161	0.76	-0.507
Mof_O 	O 	0.8027	0.0012	0.6646	-0.354
Mof_O 	O 	0.7241	0.858	0.7825	-0.359
Mof_O 	O 	0.5826	0.2509	0.4573	-0.461
Mof_O 	O 	0.2995	0.4974	0.6751	-0.401
Mof_O 	O 	0.306	0.8866	0.1388	-0.347
Mof_O 	O 	0.608	0.1798	0.6231	-0.478
Mof_O 	O 	0.502	0.8211	0.1416	-0.353
Mof_O 	O 	0.3584	0.3175	0.6234	-0.247
Mof_N 	N 	0.5403	0.5654	0.6646	-0.233
Mof_N 	N 	0.187	0.743	0.7055	-0.241
Mof_N 	N 	0.3523	0.6246	0.8773	-0.22
Mof_C 	C 	0.5211	0.4571	0.6318	0.023
Mof_C 	C 	0.4337	0.8223	0.863	0.293
Mof_C 	C 	0.6001	0.263	0.5536	0.461
Mof_C 	C 	0.3814	0.4196	0.6439	0.284
Mof_C 	C 	0.6211	0.3853	0.5886	-0.156
Mof_C 	C 	0.3813	0.7162	0.9326	-0.002
Mof_C 	C 	0.8175	0.9066	0.7207	0.273
Mof_C 	C 	0.66	0.6056	0.6571	0.097
Mof_H 	H 	0.6736	0.68	0.6807	-0.007
Mof_C 	C 	0.3954	0.8151	0.1105	0.322
Mof_C 	C 	0.744	0.4289	0.5809	0.086
Mof_H 	H 	0.813	0.3835	0.5525	0.006
Mof_C 	C 	0.9467	0.8495	0.7158	0.004
Mof_C 	C 	0.7635	0.5393	0.6151	-0.149
Mof_H 	H 	0.8455	0.5691	0.61	0.091
Mof_C 	C 	0.3676	0.7125	0.0456	-0.064
Mof_C 	C 	0.9649	0.7432	0.7736	-0.094
Mof_H 	H 	0.8969	0.7057	0.8173	0.077
Mof_C 	C 	0.0514	0.8998	0.6518	-0.098
Mof_H 	H 	0.0428	0.9701	0.6105	0.082
Mof_C 	C 	0.1688	0.8457	0.6492	0.068
Mof_H 	H 	0.2385	0.8818	0.6067	-0.008
Mof_C 	C 	0.0849	0.6939	0.7655	0.064
Mof_H 	H 	0.0954	0.6222	0.8041	0.001
Mof_C 	C 	0.3136	0.5237	0.9333	0.068
Mof_H 	H 	0.2948	0.4595	0.8955	0.013
Mof_C 	C 	0.3263	0.6079	0.1013	0.027
Mof_H 	H 	0.3156	0.6021	0.1769	0.033
Mof_C 	C 	0.3007	0.5118	0.0455	-0.11
Mof_H 	H 	0.2753	0.4403	0.0826	0.076
_end
