data_functionalizedCrystal
_audit_creation_method	'EQeq! by Chris Wilmer'
_symmetry_space_group_name_H-M	'P1'
_symmetry_Int_Tables_number	1
_symmetry_cell_setting	triclinic
loop_
_symmetry_equiv_pos_as_xyz
  x,y,z
_cell_length_a	34.8807
_cell_length_b	34.8807
_cell_length_c	34.8807
_cell_angle_alpha	90
_cell_angle_beta	90
_cell_angle_gamma	90
loop_
_atom_site_label
_atom_site_type_symbol
_atom_site_fract_x
_atom_site_fract_y
_atom_site_fract_z
_atom_site_charge
Mof_C 	C 	0.0191	0.7177	0.0751	-0.043
Mof_C 	C 	0.0504	0.7791	0.1061	-0.035
Mof_C 	C 	0.1064	0.903	0.0468	-0.163
Mof_H 	H 	0.1226	0.8967	0.0266	0.075
Mof_C 	C 	0.0914	0.9405	0.0483	0.32
Mof_C 	C 	0.0673	0.9489	0.0774	-0.301
Mof_H 	H 	0.0568	0.9733	0.0794	0.167
Mof_C 	C 	0.0583	0.9212	0.1041	0.082
Mof_H 	H 	0.0411	0.9264	0.1237	0.002
Mof_C 	C 	0.0754	0.8853	0.1012	-0.053
Mof_H 	H 	0.0703	0.8671	0.12	0.043
Mof_C 	C 	0.1293	0.7294	0.0518	0.034
Mof_H 	H 	0.1028	0.7313	0.0543	0.029
Mof_C 	C 	0.1455	0.6956	0.0405	-0.044
Mof_C 	C 	0.1842	0.6923	0.0385	0.019
Mof_H 	H 	0.1952	0.6691	0.0312	0.022
Mof_C 	C 	0.206	0.7212	0.0467	-0.124
Mof_H 	H 	0.2325	0.719	0.045	0.076
Mof_C 	C 	0.1891	0.7557	0.058	0.078
Mof_H 	H 	0.2049	0.7761	0.0646	-0.006
Mof_C 	C 	0.1033	0.9702	0.0179	-0.847
Mof_H 	H 	0.1306	0.9749	0.0201	0.411
Mof_H 	H 	0.0984	0.9601	0.9925	-0.205
Mof_C 	C 	0.1308	0.6588	0.0211	-0.007
Mof_H 	H 	0.1476	0.6508	0.0004	0.056
Mof_H 	H 	0.1282	0.638	0.0393	0.007
Mof_N 	N 	0.0297	0.7006	0.0491	-0.111
Mof_N 	N 	0.0766	0.79419	0.09382	-0.166
Mof_N 	N 	0.09859	0.8762	0.0724	-0.117
Mof_N 	N 	0.1517	0.7604	0.0595	-0.175
Mof_O 	O 	0.0943	0.6713	0.0069	-0.368
Mof_H 	H 	0.0763	0.679	0.994	0.26
Mof_O 	O 	0.0811	0.0014	0.0207	-1.415
Mof_H 	H 	0.062	0.014	0.029	0.536
Mof_H 	H 	0.1128	0.9567	0.9955	0.363
Mof_H 	H 	0.0807	0.9845	0.0101	1.145
Mof_C 	C 	0.1184	0.6623	0.0406	0.099
Mof_H 	H 	0.1319	0.6382	0.0373	0.005
Mof_H 	H 	0.1034	0.6614	0.0639	0.015
Mof_O 	O 	0.132	0.9966	0.0306	-0.255
Mof_H 	H 	0.1538	0.9964	0.0194	0.096
Mof_C 	C 	0.5191	0.2177	0.5751	-0.042
Mof_C 	C 	0.5504	0.2791	0.6061	-0.035
Mof_C 	C 	0.6064	0.403	0.5468	-0.159
Mof_H 	H 	0.6226	0.3967	0.5266	0.075
Mof_C 	C 	0.5914	0.4405	0.5483	0.312
Mof_C 	C 	0.5673	0.4489	0.5774	-0.295
Mof_H 	H 	0.5568	0.4733	0.5794	0.164
Mof_C 	C 	0.5583	0.4212	0.6041	0.078
Mof_H 	H 	0.5411	0.4264	0.6237	0.004
Mof_C 	C 	0.5754	0.3853	0.6012	-0.05
Mof_H 	H 	0.5703	0.3671	0.62	0.042
Mof_C 	C 	0.6293	0.2294	0.5518	0.034
Mof_H 	H 	0.6028	0.2313	0.5543	0.029
Mof_C 	C 	0.6455	0.1956	0.5405	-0.042
Mof_C 	C 	0.6842	0.1923	0.5385	0.018
Mof_H 	H 	0.6952	0.1691	0.5312	0.023
Mof_C 	C 	0.706	0.2212	0.5467	-0.123
Mof_H 	H 	0.7325	0.219	0.545	0.077
Mof_C 	C 	0.6891	0.2557	0.558	0.078
Mof_H 	H 	0.7049	0.2761	0.5646	-0.006
Mof_C 	C 	0.6033	0.4702	0.5179	-0.827
Mof_H 	H 	0.6306	0.4749	0.5201	0.408
Mof_H 	H 	0.5984	0.4601	0.4925	-0.202
Mof_C 	C 	0.6308	0.1588	0.5211	-0.008
Mof_H 	H 	0.6476	0.1508	0.5004	0.057
Mof_H 	H 	0.6282	0.138	0.5393	0.007
Mof_N 	N 	0.5297	0.2006	0.5491	-0.11
Mof_N 	N 	0.5766	0.29419	0.59382	-0.166
Mof_N 	N 	0.59859	0.3762	0.5724	-0.118
Mof_N 	N 	0.6517	0.2604	0.5595	-0.175
Mof_O 	O 	0.5943	0.1713	0.5069	-0.362
Mof_H 	H 	0.5763	0.179	0.494	0.255
Mof_O 	O 	0.5811	0.5014	0.5207	-1.394
Mof_H 	H 	0.562	0.514	0.529	0.531
Mof_H 	H 	0.6128	0.4567	0.4955	0.354
Mof_H 	H 	0.5807	0.4845	0.5101	1.127
Mof_C 	C 	0.6184	0.1623	0.5406	0.096
Mof_H 	H 	0.6319	0.1382	0.5373	0.006
Mof_H 	H 	0.6034	0.1614	0.5639	0.016
Mof_O 	O 	0.632	0.4966	0.5306	-0.26
Mof_H 	H 	0.6538	0.4964	0.5194	0.098
Mof_C 	C 	0.4809	0.2823	0.5751	-0.042
Mof_C 	C 	0.4496	0.2209	0.6061	-0.035
Mof_C 	C 	0.3936	0.097	0.5468	-0.157
Mof_H 	H 	0.3774	0.1033	0.5266	0.074
Mof_C 	C 	0.4086	0.0595	0.5483	0.309
Mof_C 	C 	0.4327	0.0511	0.5774	-0.292
Mof_H 	H 	0.4432	0.0267	0.5794	0.162
Mof_C 	C 	0.4417	0.0788	0.6041	0.076
Mof_H 	H 	0.4589	0.0736	0.6237	0.005
Mof_C 	C 	0.4246	0.1147	0.6012	-0.049
Mof_H 	H 	0.4297	0.1329	0.62	0.041
Mof_C 	C 	0.3707	0.2706	0.5518	0.034
Mof_H 	H 	0.3972	0.2687	0.5543	0.029
Mof_C 	C 	0.3545	0.3044	0.5405	-0.042
Mof_C 	C 	0.3158	0.3077	0.5385	0.018
Mof_H 	H 	0.3048	0.3309	0.5312	0.023
Mof_C 	C 	0.294	0.2788	0.5467	-0.123
Mof_H 	H 	0.2675	0.281	0.545	0.077
Mof_C 	C 	0.3109	0.2443	0.558	0.078
Mof_H 	H 	0.2951	0.2239	0.5646	-0.006
Mof_C 	C 	0.3967	0.0298	0.5179	-0.82
Mof_H 	H 	0.3694	0.0251	0.5201	0.407
Mof_H 	H 	0.4016	0.0399	0.4925	-0.198
Mof_C 	C 	0.3692	0.3412	0.5211	-0.008
Mof_H 	H 	0.3524	0.3492	0.5004	0.057
Mof_H 	H 	0.3718	0.362	0.5393	0.007
Mof_N 	N 	0.4703	0.2994	0.5491	-0.109
Mof_N 	N 	0.4234	0.20581	0.59382	-0.165
Mof_N 	N 	0.40141	0.1238	0.5724	-0.118
Mof_N 	N 	0.3483	0.2396	0.5595	-0.174
Mof_O 	O 	0.4057	0.3287	0.5069	-0.361
Mof_H 	H 	0.4237	0.321	0.494	0.256
Mof_O 	O 	0.4189	0.9986	0.5207	-1.372
Mof_H 	H 	0.438	0.986	0.529	0.525
Mof_H 	H 	0.3872	0.0433	0.4955	0.348
Mof_H 	H 	0.4193	0.0155	0.5101	1.111
Mof_C 	C 	0.3816	0.3377	0.5406	0.097
Mof_H 	H 	0.3681	0.3618	0.5373	0.007
Mof_H 	H 	0.3966	0.3386	0.5639	0.017
Mof_O 	O 	0.368	0.0034	0.5306	-0.264
Mof_H 	H 	0.3462	0.0036	0.5194	0.1
Mof_C 	C 	0.9809	0.7823	0.0751	-0.038
Mof_C 	C 	0.9496	0.7209	0.1061	-0.031
Mof_C 	C 	0.8936	0.597	0.0468	-0.16
Mof_H 	H 	0.8774	0.6033	0.0266	0.076
Mof_C 	C 	0.9086	0.5595	0.0483	0.317
Mof_C 	C 	0.9327	0.5511	0.0774	-0.297
Mof_H 	H 	0.9432	0.5267	0.0794	0.167
Mof_C 	C 	0.9417	0.5788	0.1041	0.081
Mof_H 	H 	0.9589	0.5736	0.1237	0.006
Mof_C 	C 	0.9246	0.6147	0.1012	-0.05
Mof_H 	H 	0.9297	0.6329	0.12	0.043
Mof_C 	C 	0.8707	0.7706	0.0518	0.035
Mof_H 	H 	0.8972	0.7687	0.0543	0.03
Mof_C 	C 	0.8545	0.8044	0.0405	-0.043
Mof_C 	C 	0.8158	0.8077	0.0385	0.02
Mof_H 	H 	0.8048	0.8309	0.0312	0.023
Mof_C 	C 	0.794	0.7788	0.0467	-0.123
Mof_H 	H 	0.7675	0.781	0.045	0.077
Mof_C 	C 	0.8109	0.7443	0.058	0.079
Mof_H 	H 	0.7951	0.7239	0.0646	-0.005
Mof_C 	C 	0.8967	0.5298	0.0179	-0.839
Mof_H 	H 	0.8694	0.5251	0.0201	0.412
Mof_H 	H 	0.9016	0.5399	0.9925	-0.199
Mof_C 	C 	0.8692	0.8412	0.0211	-0.006
Mof_H 	H 	0.8524	0.8492	0.0004	0.057
Mof_H 	H 	0.8718	0.862	0.0393	0.008
Mof_N 	N 	0.9703	0.7994	0.0491	-0.109
Mof_N 	N 	0.9234	0.70581	0.09382	-0.165
Mof_N 	N 	0.90141	0.6238	0.0724	-0.117
Mof_N 	N 	0.8483	0.7396	0.0595	-0.174
Mof_O 	O 	0.9057	0.8287	0.0069	-0.367
Mof_H 	H 	0.9237	0.821	0.994	0.262
Mof_O 	O 	0.9189	0.4986	0.0207	-1.394
Mof_H 	H 	0.938	0.486	0.029	0.532
Mof_H 	H 	0.8872	0.5433	0.9955	0.358
Mof_H 	H 	0.9193	0.5155	0.0101	1.131
Mof_C 	C 	0.8816	0.8377	0.0406	0.1
Mof_H 	H 	0.8681	0.8618	0.0373	0.006
Mof_H 	H 	0.8966	0.8386	0.0639	0.016
Mof_O 	O 	0.868	0.5034	0.0306	-0.258
Mof_H 	H 	0.8462	0.5036	0.0194	0.097
Mof_C 	C 	0.9809	0.2177	0.4249	-0.038
Mof_C 	C 	0.9496	0.2791	0.3939	-0.031
Mof_C 	C 	0.8936	0.403	0.4532	-0.157
Mof_H 	H 	0.8774	0.3967	0.4734	0.076
Mof_C 	C 	0.9086	0.4405	0.4517	0.313
Mof_C 	C 	0.9327	0.4489	0.4226	-0.293
Mof_H 	H 	0.9432	0.4733	0.4206	0.165
Mof_C 	C 	0.9417	0.4212	0.3959	0.078
Mof_H 	H 	0.9589	0.4264	0.3763	0.006
Mof_C 	C 	0.9246	0.3853	0.3988	-0.049
Mof_H 	H 	0.9297	0.3671	0.38	0.043
Mof_C 	C 	0.8707	0.2294	0.4482	0.035
Mof_H 	H 	0.8972	0.2313	0.4457	0.03
Mof_C 	C 	0.8545	0.1956	0.4595	-0.041
Mof_C 	C 	0.8158	0.1923	0.4615	0.019
Mof_H 	H 	0.8048	0.1691	0.4688	0.024
Mof_C 	C 	0.794	0.2212	0.4533	-0.122
Mof_H 	H 	0.7675	0.219	0.455	0.078
Mof_C 	C 	0.8109	0.2557	0.442	0.079
Mof_H 	H 	0.7951	0.2761	0.4354	-0.005
Mof_C 	C 	0.8967	0.4702	0.4821	-0.826
Mof_H 	H 	0.8694	0.4749	0.4799	0.409
Mof_H 	H 	0.9016	0.4601	0.5075	-0.201
Mof_C 	C 	0.8692	0.1588	0.4789	-0.007
Mof_H 	H 	0.8524	0.1508	0.4996	0.058
Mof_H 	H 	0.8718	0.138	0.4607	0.008
Mof_N 	N 	0.9703	0.2006	0.4509	-0.109
Mof_N 	N 	0.9234	0.29419	0.40618	-0.165
Mof_N 	N 	0.90141	0.3762	0.4276	-0.117
Mof_N 	N 	0.8483	0.2604	0.4405	-0.174
Mof_O 	O 	0.9057	0.1713	0.4931	-0.361
Mof_H 	H 	0.9237	0.179	0.506	0.257
Mof_O 	O 	0.9189	0.5014	0.4793	-1.394
Mof_H 	H 	0.938	0.514	0.471	0.533
Mof_H 	H 	0.8872	0.4567	0.5045	0.355
Mof_H 	H 	0.9193	0.4845	0.4899	1.128
Mof_C 	C 	0.8816	0.1623	0.4594	0.098
Mof_H 	H 	0.8681	0.1382	0.4627	0.007
Mof_H 	H 	0.8966	0.1614	0.4361	0.017
Mof_O 	O 	0.868	0.4966	0.4694	-0.259
Mof_H 	H 	0.8462	0.4964	0.4806	0.099
Mof_C 	C 	0.4809	0.7177	0.9249	-0.041
Mof_C 	C 	0.4496	0.7791	0.8939	-0.034
Mof_C 	C 	0.3936	0.903	0.9532	-0.157
Mof_H 	H 	0.3774	0.8967	0.9734	0.076
Mof_C 	C 	0.4086	0.9405	0.9517	0.313
Mof_C 	C 	0.4327	0.9489	0.9226	-0.293
Mof_H 	H 	0.4432	0.9733	0.9206	0.166
Mof_C 	C 	0.4417	0.9212	0.8959	0.078
Mof_H 	H 	0.4589	0.9264	0.8763	0.006
Mof_C 	C 	0.4246	0.8853	0.8988	-0.049
Mof_H 	H 	0.4297	0.8671	0.88	0.043
Mof_C 	C 	0.3707	0.7294	0.9482	0.034
Mof_H 	H 	0.3972	0.7313	0.9457	0.03
Mof_C 	C 	0.3545	0.6956	0.9595	-0.039
Mof_C 	C 	0.3158	0.6923	0.9615	0.018
Mof_H 	H 	0.3048	0.6691	0.9688	0.024
Mof_C 	C 	0.294	0.7212	0.9533	-0.121
Mof_H 	H 	0.2675	0.719	0.955	0.078
Mof_C 	C 	0.3109	0.7557	0.942	0.079
Mof_H 	H 	0.2951	0.7761	0.9354	-0.004
Mof_C 	C 	0.3967	0.9702	0.9821	-0.821
Mof_H 	H 	0.3694	0.9749	0.9799	0.406
Mof_H 	H 	0.4016	0.9601	0.0075	-0.209
Mof_C 	C 	0.3692	0.6588	0.9789	-0.008
Mof_H 	H 	0.3524	0.6508	0.9996	0.059
Mof_H 	H 	0.3718	0.638	0.9607	0.009
Mof_N 	N 	0.4703	0.7006	0.9509	-0.108
Mof_N 	N 	0.4234	0.79419	0.90618	-0.165
Mof_N 	N 	0.40141	0.8762	0.9276	-0.118
Mof_N 	N 	0.3483	0.7604	0.9405	-0.173
Mof_O 	O 	0.4057	0.6713	0.9931	-0.355
Mof_H 	H 	0.4237	0.679	0.006	0.251
Mof_O 	O 	0.4189	0.0014	0.9793	-1.414
Mof_H 	H 	0.438	0.014	0.971	0.54
Mof_H 	H 	0.3872	0.9567	0.0045	0.357
Mof_H 	H 	0.4193	0.9845	0.9899	1.141
Mof_C 	C 	0.3816	0.6623	0.9594	0.095
Mof_H 	H 	0.3681	0.6382	0.9627	0.007
Mof_H 	H 	0.3966	0.6614	0.9361	0.017
Mof_O 	O 	0.368	0.9966	0.9694	-0.255
Mof_H 	H 	0.3462	0.9964	0.9806	0.101
Mof_C 	C 	0.5191	0.7823	0.9249	-0.041
Mof_C 	C 	0.5504	0.7209	0.8939	-0.034
Mof_C 	C 	0.6064	0.597	0.9532	-0.155
Mof_H 	H 	0.6226	0.6033	0.9734	0.076
Mof_C 	C 	0.5914	0.5595	0.9517	0.309
Mof_C 	C 	0.5673	0.5511	0.9226	-0.29
Mof_H 	H 	0.5568	0.5267	0.9206	0.164
Mof_C 	C 	0.5583	0.5788	0.8959	0.076
Mof_H 	H 	0.5411	0.5736	0.8763	0.006
Mof_C 	C 	0.5754	0.6147	0.8988	-0.048
Mof_H 	H 	0.5703	0.6329	0.88	0.042
Mof_C 	C 	0.6293	0.7706	0.9482	0.034
Mof_H 	H 	0.6028	0.7687	0.9457	0.03
Mof_C 	C 	0.6455	0.8044	0.9595	-0.039
Mof_C 	C 	0.6842	0.8077	0.9615	0.018
Mof_H 	H 	0.6952	0.8309	0.9688	0.024
Mof_C 	C 	0.706	0.7788	0.9533	-0.121
Mof_H 	H 	0.7325	0.781	0.955	0.078
Mof_C 	C 	0.6891	0.7443	0.942	0.079
Mof_H 	H 	0.7049	0.7239	0.9354	-0.004
Mof_C 	C 	0.6033	0.5298	0.9821	-0.814
Mof_H 	H 	0.6306	0.5251	0.9799	0.406
Mof_H 	H 	0.5984	0.5399	0.0075	-0.204
Mof_C 	C 	0.6308	0.8412	0.9789	-0.008
Mof_H 	H 	0.6476	0.8492	0.9996	0.059
Mof_H 	H 	0.6282	0.862	0.9607	0.009
Mof_N 	N 	0.5297	0.7994	0.9509	-0.108
Mof_N 	N 	0.5766	0.70581	0.90618	-0.165
Mof_N 	N 	0.59859	0.6238	0.9276	-0.118
Mof_N 	N 	0.6517	0.7396	0.9405	-0.173
Mof_O 	O 	0.5943	0.8287	0.9931	-0.355
Mof_H 	H 	0.5763	0.821	0.006	0.251
Mof_O 	O 	0.5811	0.4986	0.9793	-1.392
Mof_H 	H 	0.562	0.486	0.971	0.533
Mof_H 	H 	0.6128	0.5433	0.0045	0.351
Mof_H 	H 	0.5807	0.5155	0.9899	1.125
Mof_C 	C 	0.6184	0.8377	0.9594	0.095
Mof_H 	H 	0.6319	0.8618	0.9627	0.007
Mof_H 	H 	0.6034	0.8386	0.9361	0.017
Mof_O 	O 	0.632	0.5034	0.9694	-0.26
Mof_H 	H 	0.6538	0.5036	0.9806	0.102
Mof_C 	C 	0.0191	0.2823	0.4249	-0.042
Mof_C 	C 	0.0504	0.2209	0.3939	-0.033
Mof_C 	C 	0.1064	0.097	0.4532	-0.156
Mof_H 	H 	0.1226	0.1033	0.4734	0.075
Mof_C 	C 	0.0914	0.0595	0.4517	0.31
Mof_C 	C 	0.0673	0.0511	0.4226	-0.291
Mof_H 	H 	0.0568	0.0267	0.4206	0.163
Mof_C 	C 	0.0583	0.0788	0.3959	0.077
Mof_H 	H 	0.0411	0.0736	0.3763	0.005
Mof_C 	C 	0.0754	0.1147	0.3988	-0.049
Mof_H 	H 	0.0703	0.1329	0.38	0.042
Mof_C 	C 	0.1293	0.2706	0.4482	0.035
Mof_H 	H 	0.1028	0.2687	0.4457	0.03
Mof_C 	C 	0.1455	0.3044	0.4595	-0.041
Mof_C 	C 	0.1842	0.3077	0.4615	0.019
Mof_H 	H 	0.1952	0.3309	0.4688	0.024
Mof_C 	C 	0.206	0.2788	0.4533	-0.122
Mof_H 	H 	0.2325	0.281	0.455	0.078
Mof_C 	C 	0.1891	0.2443	0.442	0.079
Mof_H 	H 	0.2049	0.2239	0.4354	-0.005
Mof_C 	C 	0.1033	0.0298	0.4821	-0.819
Mof_H 	H 	0.1306	0.0251	0.4799	0.408
Mof_H 	H 	0.0984	0.0399	0.5075	-0.196
Mof_C 	C 	0.1308	0.3412	0.4789	-0.007
Mof_H 	H 	0.1476	0.3492	0.4996	0.058
Mof_H 	H 	0.1282	0.362	0.4607	0.008
Mof_N 	N 	0.0297	0.2994	0.4509	-0.109
Mof_N 	N 	0.0766	0.20581	0.40618	-0.165
Mof_N 	N 	0.09859	0.1238	0.4276	-0.118
Mof_N 	N 	0.1517	0.2396	0.4405	-0.174
Mof_O 	O 	0.0943	0.3287	0.4931	-0.361
Mof_H 	H 	0.0763	0.321	0.506	0.256
Mof_O 	O 	0.0811	0.9986	0.4793	-1.371
Mof_H 	H 	0.062	0.986	0.471	0.524
Mof_H 	H 	0.1128	0.0433	0.5045	0.348
Mof_H 	H 	0.0807	0.0155	0.4899	1.11
Mof_C 	C 	0.1184	0.3377	0.4594	0.097
Mof_H 	H 	0.1319	0.3618	0.4627	0.007
Mof_H 	H 	0.1034	0.3386	0.4361	0.017
Mof_O 	O 	0.132	0.0034	0.4694	-0.264
Mof_H 	H 	0.1538	0.0036	0.4806	0.1
Mof_C 	C 	0.0751	0.0191	0.7177	-0.042
Mof_C 	C 	0.1061	0.0504	0.7791	-0.034
Mof_C 	C 	0.0468	0.1064	0.903	-0.162
Mof_H 	H 	0.0266	0.1226	0.8967	0.076
Mof_C 	C 	0.0483	0.0914	0.9405	0.321
Mof_C 	C 	0.0774	0.0673	0.9489	-0.3
Mof_H 	H 	0.0794	0.0568	0.9733	0.168
Mof_C 	C 	0.1041	0.0583	0.9212	0.083
Mof_H 	H 	0.1237	0.0411	0.9264	0.003
Mof_C 	C 	0.1012	0.0754	0.8853	-0.052
Mof_H 	H 	0.12	0.0703	0.8671	0.044
Mof_C 	C 	0.0518	0.1293	0.7294	0.035
Mof_H 	H 	0.0543	0.1028	0.7313	0.03
Mof_C 	C 	0.0405	0.1455	0.6956	-0.043
Mof_C 	C 	0.0385	0.1842	0.6923	0.02
Mof_H 	H 	0.0312	0.1952	0.6691	0.023
Mof_C 	C 	0.0467	0.206	0.7212	-0.123
Mof_H 	H 	0.045	0.2325	0.719	0.077
Mof_C 	C 	0.058	0.1891	0.7557	0.079
Mof_H 	H 	0.0646	0.2049	0.7761	-0.005
Mof_C 	C 	0.0179	0.1033	0.9702	-0.846
Mof_H 	H 	0.0201	0.1306	0.9749	0.412
Mof_H 	H 	0.9925	0.0984	0.9601	-0.204
Mof_C 	C 	0.0211	0.1308	0.6588	-0.006
Mof_H 	H 	0.0004	0.1476	0.6508	0.057
Mof_H 	H 	0.0393	0.1282	0.638	0.008
Mof_N 	N 	0.0491	0.0297	0.7006	-0.11
Mof_N 	N 	0.09382	0.0766	0.79419	-0.165
Mof_N 	N 	0.0724	0.09859	0.8762	-0.116
Mof_N 	N 	0.0595	0.1517	0.7604	-0.174
Mof_O 	O 	0.0069	0.0943	0.6713	-0.367
Mof_H 	H 	0.994	0.0763	0.679	0.261
Mof_O 	O 	0.0207	0.0811	0.0014	-1.414
Mof_H 	H 	0.029	0.062	0.014	0.537
Mof_H 	H 	0.9955	0.1128	0.9567	0.364
Mof_H 	H 	0.0101	0.0807	0.9845	1.146
Mof_C 	C 	0.0406	0.1184	0.6623	0.1
Mof_H 	H 	0.0373	0.1319	0.6382	0.006
Mof_H 	H 	0.0639	0.1034	0.6614	0.016
Mof_O 	O 	0.0306	0.132	0.9966	-0.254
Mof_H 	H 	0.0194	0.1538	0.9964	0.097
Mof_C 	C 	0.5751	0.5191	0.2177	-0.041
Mof_C 	C 	0.6061	0.5504	0.2791	-0.034
Mof_C 	C 	0.5468	0.6064	0.403	-0.158
Mof_H 	H 	0.5266	0.6226	0.3967	0.076
Mof_C 	C 	0.5483	0.5914	0.4405	0.313
Mof_C 	C 	0.5774	0.5673	0.4489	-0.294
Mof_H 	H 	0.5794	0.5568	0.4733	0.165
Mof_C 	C 	0.6041	0.5583	0.4212	0.079
Mof_H 	H 	0.6237	0.5411	0.4264	0.005
Mof_C 	C 	0.6012	0.5754	0.3853	-0.049
Mof_H 	H 	0.62	0.5703	0.3671	0.043
Mof_C 	C 	0.5518	0.6293	0.2294	0.035
Mof_H 	H 	0.5543	0.6028	0.2313	0.03
Mof_C 	C 	0.5405	0.6455	0.1956	-0.041
Mof_C 	C 	0.5385	0.6842	0.1923	0.019
Mof_H 	H 	0.5312	0.6952	0.1691	0.024
Mof_C 	C 	0.5467	0.706	0.2212	-0.122
Mof_H 	H 	0.545	0.7325	0.219	0.078
Mof_C 	C 	0.558	0.6891	0.2557	0.079
Mof_H 	H 	0.5646	0.7049	0.2761	-0.005
Mof_C 	C 	0.5179	0.6033	0.4702	-0.826
Mof_H 	H 	0.5201	0.6306	0.4749	0.409
Mof_H 	H 	0.4925	0.5984	0.4601	-0.201
Mof_C 	C 	0.5211	0.6308	0.1588	-0.007
Mof_H 	H 	0.5004	0.6476	0.1508	0.058
Mof_H 	H 	0.5393	0.6282	0.138	0.008
Mof_N 	N 	0.5491	0.5297	0.2006	-0.109
Mof_N 	N 	0.59382	0.5766	0.29419	-0.165
Mof_N 	N 	0.5724	0.59859	0.3762	-0.117
Mof_N 	N 	0.5595	0.6517	0.2604	-0.174
Mof_O 	O 	0.5069	0.5943	0.1713	-0.361
Mof_H 	H 	0.494	0.5763	0.179	0.256
Mof_O 	O 	0.5207	0.5811	0.5014	-1.393
Mof_H 	H 	0.529	0.562	0.514	0.532
Mof_H 	H 	0.4955	0.6128	0.4567	0.355
Mof_H 	H 	0.5101	0.5807	0.4845	1.128
Mof_C 	C 	0.5406	0.6184	0.1623	0.097
Mof_H 	H 	0.5373	0.6319	0.1382	0.007
Mof_H 	H 	0.5639	0.6034	0.1614	0.017
Mof_O 	O 	0.5306	0.632	0.4966	-0.259
Mof_H 	H 	0.5194	0.6538	0.4964	0.099
Mof_C 	C 	0.5751	0.4809	0.2823	-0.041
Mof_C 	C 	0.6061	0.4496	0.2209	-0.034
Mof_C 	C 	0.5468	0.3936	0.097	-0.156
Mof_H 	H 	0.5266	0.3774	0.1033	0.075
Mof_C 	C 	0.5483	0.4086	0.0595	0.31
Mof_C 	C 	0.5774	0.4327	0.0511	-0.291
Mof_H 	H 	0.5794	0.4432	0.0267	0.163
Mof_C 	C 	0.6041	0.4417	0.0788	0.077
Mof_H 	H 	0.6237	0.4589	0.0736	0.006
Mof_C 	C 	0.6012	0.4246	0.1147	-0.048
Mof_H 	H 	0.62	0.4297	0.1329	0.042
Mof_C 	C 	0.5518	0.3707	0.2706	0.035
Mof_H 	H 	0.5543	0.3972	0.2687	0.03
Mof_C 	C 	0.5405	0.3545	0.3044	-0.041
Mof_C 	C 	0.5385	0.3158	0.3077	0.019
Mof_H 	H 	0.5312	0.3048	0.3309	0.024
Mof_C 	C 	0.5467	0.294	0.2788	-0.122
Mof_H 	H 	0.545	0.2675	0.281	0.078
Mof_C 	C 	0.558	0.3109	0.2443	0.079
Mof_H 	H 	0.5646	0.2951	0.2239	-0.005
Mof_C 	C 	0.5179	0.3967	0.0298	-0.819
Mof_H 	H 	0.5201	0.3694	0.0251	0.408
Mof_H 	H 	0.4925	0.4016	0.0399	-0.197
Mof_C 	C 	0.5211	0.3692	0.3412	-0.007
Mof_H 	H 	0.5004	0.3524	0.3492	0.058
Mof_H 	H 	0.5393	0.3718	0.362	0.008
Mof_N 	N 	0.5491	0.4703	0.2994	-0.109
Mof_N 	N 	0.59382	0.4234	0.20581	-0.165
Mof_N 	N 	0.5724	0.40141	0.1238	-0.118
Mof_N 	N 	0.5595	0.3483	0.2396	-0.174
Mof_O 	O 	0.5069	0.4057	0.3287	-0.361
Mof_H 	H 	0.494	0.4237	0.321	0.256
Mof_O 	O 	0.5207	0.4189	0.9986	-1.372
Mof_H 	H 	0.529	0.438	0.986	0.525
Mof_H 	H 	0.4955	0.3872	0.0433	0.348
Mof_H 	H 	0.5101	0.4193	0.0155	1.111
Mof_C 	C 	0.5406	0.3816	0.3377	0.097
Mof_H 	H 	0.5373	0.3681	0.3618	0.007
Mof_H 	H 	0.5639	0.3966	0.3386	0.017
Mof_O 	O 	0.5306	0.368	0.0034	-0.264
Mof_H 	H 	0.5194	0.3462	0.0036	0.1
Mof_C 	C 	0.0751	0.9809	0.7823	-0.038
Mof_C 	C 	0.1061	0.9496	0.7209	-0.031
Mof_C 	C 	0.0468	0.8936	0.597	-0.16
Mof_H 	H 	0.0266	0.8774	0.6033	0.076
Mof_C 	C 	0.0483	0.9086	0.5595	0.317
Mof_C 	C 	0.0774	0.9327	0.5511	-0.297
Mof_H 	H 	0.0794	0.9432	0.5267	0.167
Mof_C 	C 	0.1041	0.9417	0.5788	0.081
Mof_H 	H 	0.1237	0.9589	0.5736	0.006
Mof_C 	C 	0.1012	0.9246	0.6147	-0.05
Mof_H 	H 	0.12	0.9297	0.6329	0.043
Mof_C 	C 	0.0518	0.8707	0.7706	0.035
Mof_H 	H 	0.0543	0.8972	0.7687	0.03
Mof_C 	C 	0.0405	0.8545	0.8044	-0.043
Mof_C 	C 	0.0385	0.8158	0.8077	0.02
Mof_H 	H 	0.0312	0.8048	0.8309	0.023
Mof_C 	C 	0.0467	0.794	0.7788	-0.123
Mof_H 	H 	0.045	0.7675	0.781	0.077
Mof_C 	C 	0.058	0.8109	0.7443	0.079
Mof_H 	H 	0.0646	0.7951	0.7239	-0.005
Mof_C 	C 	0.0179	0.8967	0.5298	-0.839
Mof_H 	H 	0.0201	0.8694	0.5251	0.412
Mof_H 	H 	0.9925	0.9016	0.5399	-0.199
Mof_C 	C 	0.0211	0.8692	0.8412	-0.006
Mof_H 	H 	0.0004	0.8524	0.8492	0.057
Mof_H 	H 	0.0393	0.8718	0.862	0.008
Mof_N 	N 	0.0491	0.9703	0.7994	-0.109
Mof_N 	N 	0.09382	0.9234	0.70581	-0.165
Mof_N 	N 	0.0724	0.90141	0.6238	-0.117
Mof_N 	N 	0.0595	0.8483	0.7396	-0.174
Mof_O 	O 	0.0069	0.9057	0.8287	-0.367
Mof_H 	H 	0.994	0.9237	0.821	0.262
Mof_O 	O 	0.0207	0.9189	0.4986	-1.394
Mof_H 	H 	0.029	0.938	0.486	0.532
Mof_H 	H 	0.9955	0.8872	0.5433	0.358
Mof_H 	H 	0.0101	0.9193	0.5155	1.131
Mof_C 	C 	0.0406	0.8816	0.8377	0.1
Mof_H 	H 	0.0373	0.8681	0.8618	0.006
Mof_H 	H 	0.0639	0.8966	0.8386	0.016
Mof_O 	O 	0.0306	0.868	0.5034	-0.258
Mof_H 	H 	0.0194	0.8462	0.5036	0.097
Mof_C 	C 	0.4249	0.9809	0.2177	-0.038
Mof_C 	C 	0.3939	0.9496	0.2791	-0.031
Mof_C 	C 	0.4532	0.8936	0.403	-0.157
Mof_H 	H 	0.4734	0.8774	0.3967	0.076
Mof_C 	C 	0.4517	0.9086	0.4405	0.313
Mof_C 	C 	0.4226	0.9327	0.4489	-0.293
Mof_H 	H 	0.4206	0.9432	0.4733	0.165
Mof_C 	C 	0.3959	0.9417	0.4212	0.078
Mof_H 	H 	0.3763	0.9589	0.4264	0.006
Mof_C 	C 	0.3988	0.9246	0.3853	-0.049
Mof_H 	H 	0.38	0.9297	0.3671	0.043
Mof_C 	C 	0.4482	0.8707	0.2294	0.035
Mof_H 	H 	0.4457	0.8972	0.2313	0.03
Mof_C 	C 	0.4595	0.8545	0.1956	-0.041
Mof_C 	C 	0.4615	0.8158	0.1923	0.019
Mof_H 	H 	0.4688	0.8048	0.1691	0.024
Mof_C 	C 	0.4533	0.794	0.2212	-0.122
Mof_H 	H 	0.455	0.7675	0.219	0.078
Mof_C 	C 	0.442	0.8109	0.2557	0.079
Mof_H 	H 	0.4354	0.7951	0.2761	-0.005
Mof_C 	C 	0.4821	0.8967	0.4702	-0.826
Mof_H 	H 	0.4799	0.8694	0.4749	0.409
Mof_H 	H 	0.5075	0.9016	0.4601	-0.201
Mof_C 	C 	0.4789	0.8692	0.1588	-0.007
Mof_H 	H 	0.4996	0.8524	0.1508	0.058
Mof_H 	H 	0.4607	0.8718	0.138	0.008
Mof_N 	N 	0.4509	0.9703	0.2006	-0.109
Mof_N 	N 	0.40618	0.9234	0.29419	-0.165
Mof_N 	N 	0.4276	0.90141	0.3762	-0.117
Mof_N 	N 	0.4405	0.8483	0.2604	-0.174
Mof_O 	O 	0.4931	0.9057	0.1713	-0.361
Mof_H 	H 	0.506	0.9237	0.179	0.257
Mof_O 	O 	0.4793	0.9189	0.5014	-1.394
Mof_H 	H 	0.471	0.938	0.514	0.533
Mof_H 	H 	0.5045	0.8872	0.4567	0.355
Mof_H 	H 	0.4899	0.9193	0.4845	1.128
Mof_C 	C 	0.4594	0.8816	0.1623	0.098
Mof_H 	H 	0.4627	0.8681	0.1382	0.007
Mof_H 	H 	0.4361	0.8966	0.1614	0.017
Mof_O 	O 	0.4694	0.868	0.4966	-0.259
Mof_H 	H 	0.4806	0.8462	0.4964	0.099
Mof_C 	C 	0.9249	0.4809	0.7177	-0.041
Mof_C 	C 	0.8939	0.4496	0.7791	-0.034
Mof_C 	C 	0.9532	0.3936	0.903	-0.157
Mof_H 	H 	0.9734	0.3774	0.8967	0.076
Mof_C 	C 	0.9517	0.4086	0.9405	0.313
Mof_C 	C 	0.9226	0.4327	0.9489	-0.293
Mof_H 	H 	0.9206	0.4432	0.9733	0.166
Mof_C 	C 	0.8959	0.4417	0.9212	0.078
Mof_H 	H 	0.8763	0.4589	0.9264	0.006
Mof_C 	C 	0.8988	0.4246	0.8853	-0.049
Mof_H 	H 	0.88	0.4297	0.8671	0.043
Mof_C 	C 	0.9482	0.3707	0.7294	0.034
Mof_H 	H 	0.9457	0.3972	0.7313	0.03
Mof_C 	C 	0.9595	0.3545	0.6956	-0.039
Mof_C 	C 	0.9615	0.3158	0.6923	0.018
Mof_H 	H 	0.9688	0.3048	0.6691	0.024
Mof_C 	C 	0.9533	0.294	0.7212	-0.121
Mof_H 	H 	0.955	0.2675	0.719	0.078
Mof_C 	C 	0.942	0.3109	0.7557	0.079
Mof_H 	H 	0.9354	0.2951	0.7761	-0.004
Mof_C 	C 	0.9821	0.3967	0.9702	-0.821
Mof_H 	H 	0.9799	0.3694	0.9749	0.406
Mof_H 	H 	0.0075	0.4016	0.9601	-0.209
Mof_C 	C 	0.9789	0.3692	0.6588	-0.008
Mof_H 	H 	0.9996	0.3524	0.6508	0.059
Mof_H 	H 	0.9607	0.3718	0.638	0.009
Mof_N 	N 	0.9509	0.4703	0.7006	-0.108
Mof_N 	N 	0.90618	0.4234	0.79419	-0.165
Mof_N 	N 	0.9276	0.40141	0.8762	-0.118
Mof_N 	N 	0.9405	0.3483	0.7604	-0.173
Mof_O 	O 	0.9931	0.4057	0.6713	-0.355
Mof_H 	H 	0.006	0.4237	0.679	0.251
Mof_O 	O 	0.9793	0.4189	0.0014	-1.414
Mof_H 	H 	0.971	0.438	0.014	0.54
Mof_H 	H 	0.0045	0.3872	0.9567	0.357
Mof_H 	H 	0.9899	0.4193	0.9845	1.141
Mof_C 	C 	0.9594	0.3816	0.6623	0.095
Mof_H 	H 	0.9627	0.3681	0.6382	0.007
Mof_H 	H 	0.9361	0.3966	0.6614	0.017
Mof_O 	O 	0.9694	0.368	0.9966	-0.255
Mof_H 	H 	0.9806	0.3462	0.9964	0.101
Mof_C 	C 	0.9249	0.5191	0.7823	-0.041
Mof_C 	C 	0.8939	0.5504	0.7209	-0.034
Mof_C 	C 	0.9532	0.6064	0.597	-0.155
Mof_H 	H 	0.9734	0.6226	0.6033	0.076
Mof_C 	C 	0.9517	0.5914	0.5595	0.309
Mof_C 	C 	0.9226	0.5673	0.5511	-0.29
Mof_H 	H 	0.9206	0.5568	0.5267	0.164
Mof_C 	C 	0.8959	0.5583	0.5788	0.076
Mof_H 	H 	0.8763	0.5411	0.5736	0.006
Mof_C 	C 	0.8988	0.5754	0.6147	-0.048
Mof_H 	H 	0.88	0.5703	0.6329	0.042
Mof_C 	C 	0.9482	0.6293	0.7706	0.034
Mof_H 	H 	0.9457	0.6028	0.7687	0.03
Mof_C 	C 	0.9595	0.6455	0.8044	-0.039
Mof_C 	C 	0.9615	0.6842	0.8077	0.018
Mof_H 	H 	0.9688	0.6952	0.8309	0.024
Mof_C 	C 	0.9533	0.706	0.7788	-0.121
Mof_H 	H 	0.955	0.7325	0.781	0.078
Mof_C 	C 	0.942	0.6891	0.7443	0.079
Mof_H 	H 	0.9354	0.7049	0.7239	-0.004
Mof_C 	C 	0.9821	0.6033	0.5298	-0.814
Mof_H 	H 	0.9799	0.6306	0.5251	0.406
Mof_H 	H 	0.0075	0.5984	0.5399	-0.204
Mof_C 	C 	0.9789	0.6308	0.8412	-0.008
Mof_H 	H 	0.9996	0.6476	0.8492	0.059
Mof_H 	H 	0.9607	0.6282	0.862	0.009
Mof_N 	N 	0.9509	0.5297	0.7994	-0.108
Mof_N 	N 	0.90618	0.5766	0.70581	-0.165
Mof_N 	N 	0.9276	0.59859	0.6238	-0.118
Mof_N 	N 	0.9405	0.6517	0.7396	-0.173
Mof_O 	O 	0.9931	0.5943	0.8287	-0.355
Mof_H 	H 	0.006	0.5763	0.821	0.251
Mof_O 	O 	0.9793	0.5811	0.4986	-1.392
Mof_H 	H 	0.971	0.562	0.486	0.533
Mof_H 	H 	0.0045	0.6128	0.5433	0.351
Mof_H 	H 	0.9899	0.5807	0.5155	1.125
Mof_C 	C 	0.9594	0.6184	0.8377	0.095
Mof_H 	H 	0.9627	0.6319	0.8618	0.007
Mof_H 	H 	0.9361	0.6034	0.8386	0.017
Mof_O 	O 	0.9694	0.632	0.5034	-0.26
Mof_H 	H 	0.9806	0.6538	0.5036	0.102
Mof_C 	C 	0.4249	0.0191	0.2823	-0.042
Mof_C 	C 	0.3939	0.0504	0.2209	-0.033
Mof_C 	C 	0.4532	0.1064	0.097	-0.156
Mof_H 	H 	0.4734	0.1226	0.1033	0.075
Mof_C 	C 	0.4517	0.0914	0.0595	0.31
Mof_C 	C 	0.4226	0.0673	0.0511	-0.291
Mof_H 	H 	0.4206	0.0568	0.0267	0.163
Mof_C 	C 	0.3959	0.0583	0.0788	0.077
Mof_H 	H 	0.3763	0.0411	0.0736	0.005
Mof_C 	C 	0.3988	0.0754	0.1147	-0.049
Mof_H 	H 	0.38	0.0703	0.1329	0.042
Mof_C 	C 	0.4482	0.1293	0.2706	0.035
Mof_H 	H 	0.4457	0.1028	0.2687	0.03
Mof_C 	C 	0.4595	0.1455	0.3044	-0.041
Mof_C 	C 	0.4615	0.1842	0.3077	0.019
Mof_H 	H 	0.4688	0.1952	0.3309	0.024
Mof_C 	C 	0.4533	0.206	0.2788	-0.122
Mof_H 	H 	0.455	0.2325	0.281	0.078
Mof_C 	C 	0.442	0.1891	0.2443	0.079
Mof_H 	H 	0.4354	0.2049	0.2239	-0.005
Mof_C 	C 	0.4821	0.1033	0.0298	-0.819
Mof_H 	H 	0.4799	0.1306	0.0251	0.408
Mof_H 	H 	0.5075	0.0984	0.0399	-0.196
Mof_C 	C 	0.4789	0.1308	0.3412	-0.007
Mof_H 	H 	0.4996	0.1476	0.3492	0.058
Mof_H 	H 	0.4607	0.1282	0.362	0.008
Mof_N 	N 	0.4509	0.0297	0.2994	-0.109
Mof_N 	N 	0.40618	0.0766	0.20581	-0.165
Mof_N 	N 	0.4276	0.09859	0.1238	-0.118
Mof_N 	N 	0.4405	0.1517	0.2396	-0.174
Mof_O 	O 	0.4931	0.0943	0.3287	-0.361
Mof_H 	H 	0.506	0.0763	0.321	0.256
Mof_O 	O 	0.4793	0.0811	0.9986	-1.371
Mof_H 	H 	0.471	0.062	0.986	0.524
Mof_H 	H 	0.5045	0.1128	0.0433	0.348
Mof_H 	H 	0.4899	0.0807	0.0155	1.11
Mof_C 	C 	0.4594	0.1184	0.3377	0.097
Mof_H 	H 	0.4627	0.1319	0.3618	0.007
Mof_H 	H 	0.4361	0.1034	0.3386	0.017
Mof_O 	O 	0.4694	0.132	0.0034	-0.264
Mof_H 	H 	0.4806	0.1538	0.0036	0.1
Mof_C 	C 	0.7177	0.0751	0.0191	-0.042
Mof_C 	C 	0.7791	0.1061	0.0504	-0.034
Mof_C 	C 	0.903	0.0468	0.1064	-0.162
Mof_H 	H 	0.8967	0.0266	0.1226	0.076
Mof_C 	C 	0.9405	0.0483	0.0914	0.321
Mof_C 	C 	0.9489	0.0774	0.0673	-0.3
Mof_H 	H 	0.9733	0.0794	0.0568	0.168
Mof_C 	C 	0.9212	0.1041	0.0583	0.083
Mof_H 	H 	0.9264	0.1237	0.0411	0.003
Mof_C 	C 	0.8853	0.1012	0.0754	-0.052
Mof_H 	H 	0.8671	0.12	0.0703	0.044
Mof_C 	C 	0.7294	0.0518	0.1293	0.035
Mof_H 	H 	0.7313	0.0543	0.1028	0.03
Mof_C 	C 	0.6956	0.0405	0.1455	-0.043
Mof_C 	C 	0.6923	0.0385	0.1842	0.02
Mof_H 	H 	0.6691	0.0312	0.1952	0.023
Mof_C 	C 	0.7212	0.0467	0.206	-0.123
Mof_H 	H 	0.719	0.045	0.2325	0.077
Mof_C 	C 	0.7557	0.058	0.1891	0.079
Mof_H 	H 	0.7761	0.0646	0.2049	-0.005
Mof_C 	C 	0.9702	0.0179	0.1033	-0.846
Mof_H 	H 	0.9749	0.0201	0.1306	0.412
Mof_H 	H 	0.9601	0.9925	0.0984	-0.204
Mof_C 	C 	0.6588	0.0211	0.1308	-0.006
Mof_H 	H 	0.6508	0.0004	0.1476	0.057
Mof_H 	H 	0.638	0.0393	0.1282	0.008
Mof_N 	N 	0.7006	0.0491	0.0297	-0.11
Mof_N 	N 	0.79419	0.09382	0.0766	-0.165
Mof_N 	N 	0.8762	0.0724	0.09859	-0.116
Mof_N 	N 	0.7604	0.0595	0.1517	-0.174
Mof_O 	O 	0.6713	0.0069	0.0943	-0.367
Mof_H 	H 	0.679	0.994	0.0763	0.261
Mof_O 	O 	0.0014	0.0207	0.0811	-1.414
Mof_H 	H 	0.014	0.029	0.062	0.537
Mof_H 	H 	0.9567	0.9955	0.1128	0.364
Mof_H 	H 	0.9845	0.0101	0.0807	1.146
Mof_C 	C 	0.6623	0.0406	0.1184	0.1
Mof_H 	H 	0.6382	0.0373	0.1319	0.006
Mof_H 	H 	0.6614	0.0639	0.1034	0.016
Mof_O 	O 	0.9966	0.0306	0.132	-0.254
Mof_H 	H 	0.9964	0.0194	0.1538	0.097
Mof_C 	C 	0.2177	0.5751	0.5191	-0.041
Mof_C 	C 	0.2791	0.6061	0.5504	-0.034
Mof_C 	C 	0.403	0.5468	0.6064	-0.158
Mof_H 	H 	0.3967	0.5266	0.6226	0.076
Mof_C 	C 	0.4405	0.5483	0.5914	0.313
Mof_C 	C 	0.4489	0.5774	0.5673	-0.294
Mof_H 	H 	0.4733	0.5794	0.5568	0.165
Mof_C 	C 	0.4212	0.6041	0.5583	0.079
Mof_H 	H 	0.4264	0.6237	0.5411	0.005
Mof_C 	C 	0.3853	0.6012	0.5754	-0.049
Mof_H 	H 	0.3671	0.62	0.5703	0.043
Mof_C 	C 	0.2294	0.5518	0.6293	0.035
Mof_H 	H 	0.2313	0.5543	0.6028	0.03
Mof_C 	C 	0.1956	0.5405	0.6455	-0.041
Mof_C 	C 	0.1923	0.5385	0.6842	0.019
Mof_H 	H 	0.1691	0.5312	0.6952	0.024
Mof_C 	C 	0.2212	0.5467	0.706	-0.122
Mof_H 	H 	0.219	0.545	0.7325	0.078
Mof_C 	C 	0.2557	0.558	0.6891	0.079
Mof_H 	H 	0.2761	0.5646	0.7049	-0.005
Mof_C 	C 	0.4702	0.5179	0.6033	-0.826
Mof_H 	H 	0.4749	0.5201	0.6306	0.409
Mof_H 	H 	0.4601	0.4925	0.5984	-0.201
Mof_C 	C 	0.1588	0.5211	0.6308	-0.007
Mof_H 	H 	0.1508	0.5004	0.6476	0.058
Mof_H 	H 	0.138	0.5393	0.6282	0.008
Mof_N 	N 	0.2006	0.5491	0.5297	-0.109
Mof_N 	N 	0.29419	0.59382	0.5766	-0.165
Mof_N 	N 	0.3762	0.5724	0.59859	-0.117
Mof_N 	N 	0.2604	0.5595	0.6517	-0.174
Mof_O 	O 	0.1713	0.5069	0.5943	-0.361
Mof_H 	H 	0.179	0.494	0.5763	0.256
Mof_O 	O 	0.5014	0.5207	0.5811	-1.393
Mof_H 	H 	0.514	0.529	0.562	0.532
Mof_H 	H 	0.4567	0.4955	0.6128	0.355
Mof_H 	H 	0.4845	0.5101	0.5807	1.128
Mof_C 	C 	0.1623	0.5406	0.6184	0.097
Mof_H 	H 	0.1382	0.5373	0.6319	0.007
Mof_H 	H 	0.1614	0.5639	0.6034	0.017
Mof_O 	O 	0.4966	0.5306	0.632	-0.259
Mof_H 	H 	0.4964	0.5194	0.6538	0.099
Mof_C 	C 	0.2823	0.5751	0.4809	-0.041
Mof_C 	C 	0.2209	0.6061	0.4496	-0.034
Mof_C 	C 	0.097	0.5468	0.3936	-0.156
Mof_H 	H 	0.1033	0.5266	0.3774	0.075
Mof_C 	C 	0.0595	0.5483	0.4086	0.31
Mof_C 	C 	0.0511	0.5774	0.4327	-0.291
Mof_H 	H 	0.0267	0.5794	0.4432	0.163
Mof_C 	C 	0.0788	0.6041	0.4417	0.077
Mof_H 	H 	0.0736	0.6237	0.4589	0.006
Mof_C 	C 	0.1147	0.6012	0.4246	-0.048
Mof_H 	H 	0.1329	0.62	0.4297	0.042
Mof_C 	C 	0.2706	0.5518	0.3707	0.035
Mof_H 	H 	0.2687	0.5543	0.3972	0.03
Mof_C 	C 	0.3044	0.5405	0.3545	-0.041
Mof_C 	C 	0.3077	0.5385	0.3158	0.019
Mof_H 	H 	0.3309	0.5312	0.3048	0.024
Mof_C 	C 	0.2788	0.5467	0.294	-0.122
Mof_H 	H 	0.281	0.545	0.2675	0.078
Mof_C 	C 	0.2443	0.558	0.3109	0.079
Mof_H 	H 	0.2239	0.5646	0.2951	-0.005
Mof_C 	C 	0.0298	0.5179	0.3967	-0.819
Mof_H 	H 	0.0251	0.5201	0.3694	0.408
Mof_H 	H 	0.0399	0.4925	0.4016	-0.197
Mof_C 	C 	0.3412	0.5211	0.3692	-0.007
Mof_H 	H 	0.3492	0.5004	0.3524	0.058
Mof_H 	H 	0.362	0.5393	0.3718	0.008
Mof_N 	N 	0.2994	0.5491	0.4703	-0.109
Mof_N 	N 	0.20581	0.59382	0.4234	-0.165
Mof_N 	N 	0.1238	0.5724	0.40141	-0.118
Mof_N 	N 	0.2396	0.5595	0.3483	-0.174
Mof_O 	O 	0.3287	0.5069	0.4057	-0.361
Mof_H 	H 	0.321	0.494	0.4237	0.256
Mof_O 	O 	0.9986	0.5207	0.4189	-1.372
Mof_H 	H 	0.986	0.529	0.438	0.525
Mof_H 	H 	0.0433	0.4955	0.3872	0.348
Mof_H 	H 	0.0155	0.5101	0.4193	1.111
Mof_C 	C 	0.3377	0.5406	0.3816	0.097
Mof_H 	H 	0.3618	0.5373	0.3681	0.007
Mof_H 	H 	0.3386	0.5639	0.3966	0.017
Mof_O 	O 	0.0034	0.5306	0.368	-0.264
Mof_H 	H 	0.0036	0.5194	0.3462	0.1
Mof_C 	C 	0.7823	0.0751	0.9809	-0.038
Mof_C 	C 	0.7209	0.1061	0.9496	-0.031
Mof_C 	C 	0.597	0.0468	0.8936	-0.16
Mof_H 	H 	0.6033	0.0266	0.8774	0.076
Mof_C 	C 	0.5595	0.0483	0.9086	0.317
Mof_C 	C 	0.5511	0.0774	0.9327	-0.297
Mof_H 	H 	0.5267	0.0794	0.9432	0.167
Mof_C 	C 	0.5788	0.1041	0.9417	0.081
Mof_H 	H 	0.5736	0.1237	0.9589	0.006
Mof_C 	C 	0.6147	0.1012	0.9246	-0.05
Mof_H 	H 	0.6329	0.12	0.9297	0.043
Mof_C 	C 	0.7706	0.0518	0.8707	0.035
Mof_H 	H 	0.7687	0.0543	0.8972	0.03
Mof_C 	C 	0.8044	0.0405	0.8545	-0.043
Mof_C 	C 	0.8077	0.0385	0.8158	0.02
Mof_H 	H 	0.8309	0.0312	0.8048	0.023
Mof_C 	C 	0.7788	0.0467	0.794	-0.123
Mof_H 	H 	0.781	0.045	0.7675	0.077
Mof_C 	C 	0.7443	0.058	0.8109	0.079
Mof_H 	H 	0.7239	0.0646	0.7951	-0.005
Mof_C 	C 	0.5298	0.0179	0.8967	-0.839
Mof_H 	H 	0.5251	0.0201	0.8694	0.412
Mof_H 	H 	0.5399	0.9925	0.9016	-0.199
Mof_C 	C 	0.8412	0.0211	0.8692	-0.006
Mof_H 	H 	0.8492	0.0004	0.8524	0.057
Mof_H 	H 	0.862	0.0393	0.8718	0.008
Mof_N 	N 	0.7994	0.0491	0.9703	-0.109
Mof_N 	N 	0.70581	0.09382	0.9234	-0.165
Mof_N 	N 	0.6238	0.0724	0.90141	-0.117
Mof_N 	N 	0.7396	0.0595	0.8483	-0.174
Mof_O 	O 	0.8287	0.0069	0.9057	-0.367
Mof_H 	H 	0.821	0.994	0.9237	0.262
Mof_O 	O 	0.4986	0.0207	0.9189	-1.394
Mof_H 	H 	0.486	0.029	0.938	0.532
Mof_H 	H 	0.5433	0.9955	0.8872	0.358
Mof_H 	H 	0.5155	0.0101	0.9193	1.131
Mof_C 	C 	0.8377	0.0406	0.8816	0.1
Mof_H 	H 	0.8618	0.0373	0.8681	0.006
Mof_H 	H 	0.8386	0.0639	0.8966	0.016
Mof_O 	O 	0.5034	0.0306	0.868	-0.258
Mof_H 	H 	0.5036	0.0194	0.8462	0.097
Mof_C 	C 	0.2177	0.4249	0.9809	-0.038
Mof_C 	C 	0.2791	0.3939	0.9496	-0.031
Mof_C 	C 	0.403	0.4532	0.8936	-0.157
Mof_H 	H 	0.3967	0.4734	0.8774	0.076
Mof_C 	C 	0.4405	0.4517	0.9086	0.313
Mof_C 	C 	0.4489	0.4226	0.9327	-0.293
Mof_H 	H 	0.4733	0.4206	0.9432	0.165
Mof_C 	C 	0.4212	0.3959	0.9417	0.078
Mof_H 	H 	0.4264	0.3763	0.9589	0.006
Mof_C 	C 	0.3853	0.3988	0.9246	-0.049
Mof_H 	H 	0.3671	0.38	0.9297	0.043
Mof_C 	C 	0.2294	0.4482	0.8707	0.035
Mof_H 	H 	0.2313	0.4457	0.8972	0.03
Mof_C 	C 	0.1956	0.4595	0.8545	-0.041
Mof_C 	C 	0.1923	0.4615	0.8158	0.019
Mof_H 	H 	0.1691	0.4688	0.8048	0.024
Mof_C 	C 	0.2212	0.4533	0.794	-0.122
Mof_H 	H 	0.219	0.455	0.7675	0.078
Mof_C 	C 	0.2557	0.442	0.8109	0.079
Mof_H 	H 	0.2761	0.4354	0.7951	-0.005
Mof_C 	C 	0.4702	0.4821	0.8967	-0.826
Mof_H 	H 	0.4749	0.4799	0.8694	0.409
Mof_H 	H 	0.4601	0.5075	0.9016	-0.201
Mof_C 	C 	0.1588	0.4789	0.8692	-0.007
Mof_H 	H 	0.1508	0.4996	0.8524	0.058
Mof_H 	H 	0.138	0.4607	0.8718	0.008
Mof_N 	N 	0.2006	0.4509	0.9703	-0.109
Mof_N 	N 	0.29419	0.40618	0.9234	-0.165
Mof_N 	N 	0.3762	0.4276	0.90141	-0.117
Mof_N 	N 	0.2604	0.4405	0.8483	-0.174
Mof_O 	O 	0.1713	0.4931	0.9057	-0.361
Mof_H 	H 	0.179	0.506	0.9237	0.257
Mof_O 	O 	0.5014	0.4793	0.9189	-1.394
Mof_H 	H 	0.514	0.471	0.938	0.533
Mof_H 	H 	0.4567	0.5045	0.8872	0.355
Mof_H 	H 	0.4845	0.4899	0.9193	1.128
Mof_C 	C 	0.1623	0.4594	0.8816	0.098
Mof_H 	H 	0.1382	0.4627	0.8681	0.007
Mof_H 	H 	0.1614	0.4361	0.8966	0.017
Mof_O 	O 	0.4966	0.4694	0.868	-0.259
Mof_H 	H 	0.4964	0.4806	0.8462	0.099
Mof_C 	C 	0.7177	0.9249	0.4809	-0.041
Mof_C 	C 	0.7791	0.8939	0.4496	-0.034
Mof_C 	C 	0.903	0.9532	0.3936	-0.157
Mof_H 	H 	0.8967	0.9734	0.3774	0.076
Mof_C 	C 	0.9405	0.9517	0.4086	0.313
Mof_C 	C 	0.9489	0.9226	0.4327	-0.293
Mof_H 	H 	0.9733	0.9206	0.4432	0.166
Mof_C 	C 	0.9212	0.8959	0.4417	0.078
Mof_H 	H 	0.9264	0.8763	0.4589	0.006
Mof_C 	C 	0.8853	0.8988	0.4246	-0.049
Mof_H 	H 	0.8671	0.88	0.4297	0.043
Mof_C 	C 	0.7294	0.9482	0.3707	0.034
Mof_H 	H 	0.7313	0.9457	0.3972	0.03
Mof_C 	C 	0.6956	0.9595	0.3545	-0.039
Mof_C 	C 	0.6923	0.9615	0.3158	0.018
Mof_H 	H 	0.6691	0.9688	0.3048	0.024
Mof_C 	C 	0.7212	0.9533	0.294	-0.121
Mof_H 	H 	0.719	0.955	0.2675	0.078
Mof_C 	C 	0.7557	0.942	0.3109	0.079
Mof_H 	H 	0.7761	0.9354	0.2951	-0.004
Mof_C 	C 	0.9702	0.9821	0.3967	-0.821
Mof_H 	H 	0.9749	0.9799	0.3694	0.406
Mof_H 	H 	0.9601	0.0075	0.4016	-0.209
Mof_C 	C 	0.6588	0.9789	0.3692	-0.008
Mof_H 	H 	0.6508	0.9996	0.3524	0.059
Mof_H 	H 	0.638	0.9607	0.3718	0.009
Mof_N 	N 	0.7006	0.9509	0.4703	-0.108
Mof_N 	N 	0.79419	0.90618	0.4234	-0.165
Mof_N 	N 	0.8762	0.9276	0.40141	-0.118
Mof_N 	N 	0.7604	0.9405	0.3483	-0.173
Mof_O 	O 	0.6713	0.9931	0.4057	-0.355
Mof_H 	H 	0.679	0.006	0.4237	0.251
Mof_O 	O 	0.0014	0.9793	0.4189	-1.414
Mof_H 	H 	0.014	0.971	0.438	0.54
Mof_H 	H 	0.9567	0.0045	0.3872	0.357
Mof_H 	H 	0.9845	0.9899	0.4193	1.141
Mof_C 	C 	0.6623	0.9594	0.3816	0.095
Mof_H 	H 	0.6382	0.9627	0.3681	0.007
Mof_H 	H 	0.6614	0.9361	0.3966	0.017
Mof_O 	O 	0.9966	0.9694	0.368	-0.255
Mof_H 	H 	0.9964	0.9806	0.3462	0.101
Mof_C 	C 	0.7823	0.9249	0.5191	-0.041
Mof_C 	C 	0.7209	0.8939	0.5504	-0.034
Mof_C 	C 	0.597	0.9532	0.6064	-0.155
Mof_H 	H 	0.6033	0.9734	0.6226	0.076
Mof_C 	C 	0.5595	0.9517	0.5914	0.309
Mof_C 	C 	0.5511	0.9226	0.5673	-0.29
Mof_H 	H 	0.5267	0.9206	0.5568	0.164
Mof_C 	C 	0.5788	0.8959	0.5583	0.076
Mof_H 	H 	0.5736	0.8763	0.5411	0.006
Mof_C 	C 	0.6147	0.8988	0.5754	-0.048
Mof_H 	H 	0.6329	0.88	0.5703	0.042
Mof_C 	C 	0.7706	0.9482	0.6293	0.034
Mof_H 	H 	0.7687	0.9457	0.6028	0.03
Mof_C 	C 	0.8044	0.9595	0.6455	-0.039
Mof_C 	C 	0.8077	0.9615	0.6842	0.018
Mof_H 	H 	0.8309	0.9688	0.6952	0.024
Mof_C 	C 	0.7788	0.9533	0.706	-0.121
Mof_H 	H 	0.781	0.955	0.7325	0.078
Mof_C 	C 	0.7443	0.942	0.6891	0.079
Mof_H 	H 	0.7239	0.9354	0.7049	-0.004
Mof_C 	C 	0.5298	0.9821	0.6033	-0.814
Mof_H 	H 	0.5251	0.9799	0.6306	0.406
Mof_H 	H 	0.5399	0.0075	0.5984	-0.204
Mof_C 	C 	0.8412	0.9789	0.6308	-0.008
Mof_H 	H 	0.8492	0.9996	0.6476	0.059
Mof_H 	H 	0.862	0.9607	0.6282	0.009
Mof_N 	N 	0.7994	0.9509	0.5297	-0.108
Mof_N 	N 	0.70581	0.90618	0.5766	-0.165
Mof_N 	N 	0.6238	0.9276	0.59859	-0.118
Mof_N 	N 	0.7396	0.9405	0.6517	-0.173
Mof_O 	O 	0.8287	0.9931	0.5943	-0.355
Mof_H 	H 	0.821	0.006	0.5763	0.251
Mof_O 	O 	0.4986	0.9793	0.5811	-1.392
Mof_H 	H 	0.486	0.971	0.562	0.533
Mof_H 	H 	0.5433	0.0045	0.6128	0.351
Mof_H 	H 	0.5155	0.9899	0.5807	1.125
Mof_C 	C 	0.8377	0.9594	0.6184	0.095
Mof_H 	H 	0.8618	0.9627	0.6319	0.007
Mof_H 	H 	0.8386	0.9361	0.6034	0.017
Mof_O 	O 	0.5034	0.9694	0.632	-0.26
Mof_H 	H 	0.5036	0.9806	0.6538	0.102
Mof_C 	C 	0.2823	0.4249	0.0191	-0.042
Mof_C 	C 	0.2209	0.3939	0.0504	-0.033
Mof_C 	C 	0.097	0.4532	0.1064	-0.156
Mof_H 	H 	0.1033	0.4734	0.1226	0.075
Mof_C 	C 	0.0595	0.4517	0.0914	0.31
Mof_C 	C 	0.0511	0.4226	0.0673	-0.291
Mof_H 	H 	0.0267	0.4206	0.0568	0.163
Mof_C 	C 	0.0788	0.3959	0.0583	0.077
Mof_H 	H 	0.0736	0.3763	0.0411	0.005
Mof_C 	C 	0.1147	0.3988	0.0754	-0.049
Mof_H 	H 	0.1329	0.38	0.0703	0.042
Mof_C 	C 	0.2706	0.4482	0.1293	0.035
Mof_H 	H 	0.2687	0.4457	0.1028	0.03
Mof_C 	C 	0.3044	0.4595	0.1455	-0.041
Mof_C 	C 	0.3077	0.4615	0.1842	0.019
Mof_H 	H 	0.3309	0.4688	0.1952	0.024
Mof_C 	C 	0.2788	0.4533	0.206	-0.122
Mof_H 	H 	0.281	0.455	0.2325	0.078
Mof_C 	C 	0.2443	0.442	0.1891	0.079
Mof_H 	H 	0.2239	0.4354	0.2049	-0.005
Mof_C 	C 	0.0298	0.4821	0.1033	-0.819
Mof_H 	H 	0.0251	0.4799	0.1306	0.408
Mof_H 	H 	0.0399	0.5075	0.0984	-0.196
Mof_C 	C 	0.3412	0.4789	0.1308	-0.007
Mof_H 	H 	0.3492	0.4996	0.1476	0.058
Mof_H 	H 	0.362	0.4607	0.1282	0.008
Mof_N 	N 	0.2994	0.4509	0.0297	-0.109
Mof_N 	N 	0.20581	0.40618	0.0766	-0.165
Mof_N 	N 	0.1238	0.4276	0.09859	-0.118
Mof_N 	N 	0.2396	0.4405	0.1517	-0.174
Mof_O 	O 	0.3287	0.4931	0.0943	-0.361
Mof_H 	H 	0.321	0.506	0.0763	0.256
Mof_O 	O 	0.9986	0.4793	0.0811	-1.371
Mof_H 	H 	0.986	0.471	0.062	0.524
Mof_H 	H 	0.0433	0.5045	0.1128	0.348
Mof_H 	H 	0.0155	0.4899	0.0807	1.11
Mof_C 	C 	0.3377	0.4594	0.1184	0.097
Mof_H 	H 	0.3618	0.4627	0.1319	0.007
Mof_H 	H 	0.3386	0.4361	0.1034	0.017
Mof_O 	O 	0.0034	0.4694	0.132	-0.264
Mof_H 	H 	0.0036	0.4806	0.1538	0.1
Mof_C 	C 	0.4677	0.2691	0.1749	-0.041
Mof_C 	C 	0.5291	0.3004	0.1439	-0.034
Mof_C 	C 	0.653	0.3564	0.2032	-0.158
Mof_H 	H 	0.6467	0.3726	0.2234	0.076
Mof_C 	C 	0.6905	0.3414	0.2017	0.313
Mof_C 	C 	0.6989	0.3173	0.1726	-0.294
Mof_H 	H 	0.7233	0.3068	0.1706	0.165
Mof_C 	C 	0.6712	0.3083	0.1459	0.079
Mof_H 	H 	0.6764	0.2911	0.1263	0.005
Mof_C 	C 	0.6353	0.3254	0.1488	-0.049
Mof_H 	H 	0.6171	0.3203	0.13	0.043
Mof_C 	C 	0.4794	0.3793	0.1982	0.035
Mof_H 	H 	0.4813	0.3528	0.1957	0.03
Mof_C 	C 	0.4456	0.3955	0.2095	-0.041
Mof_C 	C 	0.4423	0.4342	0.2115	0.019
Mof_H 	H 	0.4191	0.4452	0.2188	0.024
Mof_C 	C 	0.4712	0.456	0.2033	-0.122
Mof_H 	H 	0.469	0.4825	0.205	0.078
Mof_C 	C 	0.5057	0.4391	0.192	0.079
Mof_H 	H 	0.5261	0.4549	0.1854	-0.005
Mof_C 	C 	0.7202	0.3533	0.2321	-0.826
Mof_H 	H 	0.7249	0.3806	0.2299	0.409
Mof_H 	H 	0.7101	0.3484	0.2575	-0.201
Mof_C 	C 	0.4088	0.3808	0.2289	-0.007
Mof_H 	H 	0.4008	0.3976	0.2496	0.058
Mof_H 	H 	0.388	0.3782	0.2107	0.008
Mof_N 	N 	0.4506	0.2797	0.2009	-0.109
Mof_N 	N 	0.54419	0.3266	0.15618	-0.165
Mof_N 	N 	0.6262	0.34859	0.1776	-0.117
Mof_N 	N 	0.5104	0.4017	0.1905	-0.174
Mof_O 	O 	0.4213	0.3443	0.2431	-0.361
Mof_H 	H 	0.429	0.3263	0.256	0.256
Mof_O 	O 	0.7514	0.3311	0.2293	-1.393
Mof_H 	H 	0.764	0.312	0.221	0.532
Mof_H 	H 	0.7067	0.3628	0.2545	0.355
Mof_H 	H 	0.7345	0.3307	0.2399	1.128
Mof_C 	C 	0.4123	0.3684	0.2094	0.097
Mof_H 	H 	0.3882	0.3819	0.2127	0.007
Mof_H 	H 	0.4114	0.3534	0.1861	0.017
Mof_O 	O 	0.7466	0.382	0.2194	-0.259
Mof_H 	H 	0.7464	0.4038	0.2306	0.099
Mof_C 	C 	0.9677	0.7691	0.6749	-0.038
Mof_C 	C 	0.0291	0.8004	0.6439	-0.034
Mof_C 	C 	0.153	0.8564	0.7032	-0.157
Mof_H 	H 	0.1467	0.8726	0.7234	0.076
Mof_C 	C 	0.1905	0.8414	0.7017	0.313
Mof_C 	C 	0.1989	0.8173	0.6726	-0.294
Mof_H 	H 	0.2233	0.8068	0.6706	0.165
Mof_C 	C 	0.1712	0.8083	0.6459	0.079
Mof_H 	H 	0.1764	0.7911	0.6263	0.005
Mof_C 	C 	0.1353	0.8254	0.6488	-0.049
Mof_H 	H 	0.1171	0.8203	0.63	0.043
Mof_C 	C 	0.9794	0.8793	0.6982	0.037
Mof_H 	H 	0.9813	0.8528	0.6957	0.03
Mof_C 	C 	0.9456	0.8955	0.7095	-0.039
Mof_C 	C 	0.9423	0.9342	0.7115	0.014
Mof_H 	H 	0.9191	0.9452	0.7188	0.026
Mof_C 	C 	0.9712	0.956	0.7033	-0.113
Mof_H 	H 	0.969	0.9825	0.705	0.076
Mof_C 	C 	0.0057	0.9391	0.692	0.071
Mof_H 	H 	0.0261	0.9549	0.6854	-0.002
Mof_C 	C 	0.2202	0.8533	0.7321	-0.826
Mof_H 	H 	0.2249	0.8806	0.7299	0.409
Mof_H 	H 	0.2101	0.8484	0.7575	-0.201
Mof_C 	C 	0.9088	0.8808	0.7289	-0.008
Mof_H 	H 	0.9008	0.8976	0.7496	0.058
Mof_H 	H 	0.888	0.8782	0.7107	0.008
Mof_N 	N 	0.9506	0.7797	0.7009	-0.109
Mof_N 	N 	0.04419	0.8266	0.65618	-0.165
Mof_N 	N 	0.1262	0.84859	0.6776	-0.117
Mof_N 	N 	0.0104	0.9017	0.6905	-0.174
Mof_O 	O 	0.9213	0.8443	0.7431	-0.361
Mof_H 	H 	0.929	0.8263	0.756	0.257
Mof_O 	O 	0.2514	0.8311	0.7293	-1.393
Mof_H 	H 	0.264	0.812	0.721	0.532
Mof_H 	H 	0.2067	0.8628	0.7545	0.355
Mof_H 	H 	0.2345	0.8307	0.7399	1.127
Mof_C 	C 	0.9123	0.8684	0.7094	0.098
Mof_H 	H 	0.8882	0.8819	0.7127	0.007
Mof_H 	H 	0.9114	0.8534	0.6861	0.017
Mof_O 	O 	0.2466	0.882	0.7194	-0.259
Mof_H 	H 	0.2464	0.9038	0.7306	0.1
Mof_C 	C 	0.0323	0.7309	0.6749	-0.041
Mof_C 	C 	0.9709	0.6996	0.6439	-0.031
Mof_C 	C 	0.847	0.6436	0.7032	-0.158
Mof_H 	H 	0.8533	0.6274	0.7234	0.076
Mof_C 	C 	0.8095	0.6586	0.7017	0.313
Mof_C 	C 	0.8011	0.6827	0.6726	-0.294
Mof_H 	H 	0.7767	0.6932	0.6706	0.165
Mof_C 	C 	0.8288	0.6917	0.6459	0.079
Mof_H 	H 	0.8236	0.7089	0.6263	0.005
Mof_C 	C 	0.8647	0.6746	0.6488	-0.049
Mof_H 	H 	0.8829	0.6797	0.63	0.043
Mof_C 	C 	0.0206	0.6207	0.6982	0.033
Mof_H 	H 	0.0187	0.6472	0.6957	0.03
Mof_C 	C 	0.0544	0.6045	0.7095	-0.043
Mof_C 	C 	0.0577	0.5658	0.7115	0.024
Mof_H 	H 	0.0809	0.5548	0.7188	0.022
Mof_C 	C 	0.0288	0.544	0.7033	-0.131
Mof_H 	H 	0.031	0.5175	0.705	0.08
Mof_C 	C 	0.9943	0.5609	0.692	0.087
Mof_H 	H 	0.9739	0.5451	0.6854	-0.007
Mof_C 	C 	0.7798	0.6467	0.7321	-0.826
Mof_H 	H 	0.7751	0.6194	0.7299	0.409
Mof_H 	H 	0.7899	0.6516	0.7575	-0.201
Mof_C 	C 	0.0912	0.6192	0.7289	-0.006
Mof_H 	H 	0.0992	0.6024	0.7496	0.057
Mof_H 	H 	0.112	0.6218	0.7107	0.008
Mof_N 	N 	0.0494	0.7203	0.7009	-0.109
Mof_N 	N 	0.95581	0.6734	0.65618	-0.165
Mof_N 	N 	0.8738	0.65141	0.6776	-0.117
Mof_N 	N 	0.9896	0.5983	0.6905	-0.173
Mof_O 	O 	0.0787	0.6557	0.7431	-0.361
Mof_H 	H 	0.071	0.6737	0.756	0.256
Mof_O 	O 	0.7486	0.6689	0.7293	-1.393
Mof_H 	H 	0.736	0.688	0.721	0.532
Mof_H 	H 	0.7933	0.6372	0.7545	0.355
Mof_H 	H 	0.7655	0.6693	0.7399	1.128
Mof_C 	C 	0.0877	0.6316	0.7094	0.097
Mof_H 	H 	0.1118	0.6181	0.7127	0.007
Mof_H 	H 	0.0886	0.6466	0.6861	0.017
Mof_O 	O 	0.7534	0.618	0.7194	-0.259
Mof_H 	H 	0.7536	0.5962	0.7306	0.099
Mof_C 	C 	0.5323	0.2309	0.1749	-0.041
Mof_C 	C 	0.4709	0.1996	0.1439	-0.034
Mof_C 	C 	0.347	0.1436	0.2032	-0.158
Mof_H 	H 	0.3533	0.1274	0.2234	0.076
Mof_C 	C 	0.3095	0.1586	0.2017	0.313
Mof_C 	C 	0.3011	0.1827	0.1726	-0.294
Mof_H 	H 	0.2767	0.1932	0.1706	0.165
Mof_C 	C 	0.3288	0.1917	0.1459	0.079
Mof_H 	H 	0.3236	0.2089	0.1263	0.005
Mof_C 	C 	0.3647	0.1746	0.1488	-0.049
Mof_H 	H 	0.3829	0.1797	0.13	0.043
Mof_C 	C 	0.5206	0.1207	0.1982	0.035
Mof_H 	H 	0.5187	0.1472	0.1957	0.03
Mof_C 	C 	0.5544	0.1045	0.2095	-0.041
Mof_C 	C 	0.5577	0.0658	0.2115	0.019
Mof_H 	H 	0.5809	0.0548	0.2188	0.023
Mof_C 	C 	0.5288	0.044	0.2033	-0.122
Mof_H 	H 	0.531	0.0175	0.205	0.077
Mof_C 	C 	0.4943	0.0609	0.192	0.079
Mof_H 	H 	0.4739	0.0451	0.1854	-0.005
Mof_C 	C 	0.2798	0.1467	0.2321	-0.826
Mof_H 	H 	0.2751	0.1194	0.2299	0.409
Mof_H 	H 	0.2899	0.1516	0.2575	-0.201
Mof_C 	C 	0.5912	0.1192	0.2289	-0.007
Mof_H 	H 	0.5992	0.1024	0.2496	0.057
Mof_H 	H 	0.612	0.1218	0.2107	0.008
Mof_N 	N 	0.5494	0.2203	0.2009	-0.109
Mof_N 	N 	0.45581	0.1734	0.15618	-0.165
Mof_N 	N 	0.3738	0.15141	0.1776	-0.117
Mof_N 	N 	0.4896	0.0983	0.1905	-0.174
Mof_O 	O 	0.5787	0.1557	0.2431	-0.361
Mof_H 	H 	0.571	0.1737	0.256	0.256
Mof_O 	O 	0.2486	0.1689	0.2293	-1.393
Mof_H 	H 	0.236	0.188	0.221	0.532
Mof_H 	H 	0.2933	0.1372	0.2545	0.355
Mof_H 	H 	0.2655	0.1693	0.2399	1.128
Mof_C 	C 	0.5877	0.1316	0.2094	0.098
Mof_H 	H 	0.6118	0.1181	0.2127	0.007
Mof_H 	H 	0.5886	0.1466	0.1861	0.017
Mof_O 	O 	0.2534	0.118	0.2194	-0.26
Mof_H 	H 	0.2536	0.0962	0.2306	0.099
Mof_C 	C 	0.9677	0.2309	0.8251	-0.038
Mof_C 	C 	0.0291	0.1996	0.8561	-0.034
Mof_C 	C 	0.153	0.1436	0.7968	-0.158
Mof_H 	H 	0.1467	0.1274	0.7766	0.076
Mof_C 	C 	0.1905	0.1586	0.7983	0.313
Mof_C 	C 	0.1989	0.1827	0.8274	-0.294
Mof_H 	H 	0.2233	0.1932	0.8294	0.165
Mof_C 	C 	0.1712	0.1917	0.8541	0.079
Mof_H 	H 	0.1764	0.2089	0.8737	0.005
Mof_C 	C 	0.1353	0.1746	0.8512	-0.049
Mof_H 	H 	0.1171	0.1797	0.87	0.043
Mof_C 	C 	0.9794	0.1207	0.8018	0.037
Mof_H 	H 	0.9813	0.1472	0.8043	0.03
Mof_C 	C 	0.9456	0.1045	0.7905	-0.039
Mof_C 	C 	0.9423	0.0658	0.7885	0.014
Mof_H 	H 	0.9191	0.0548	0.7812	0.025
Mof_C 	C 	0.9712	0.044	0.7967	-0.113
Mof_H 	H 	0.969	0.0175	0.795	0.074
Mof_C 	C 	0.0057	0.0609	0.808	0.071
Mof_H 	H 	0.0261	0.0451	0.8146	-0.003
Mof_C 	C 	0.2202	0.1467	0.7679	-0.826
Mof_H 	H 	0.2249	0.1194	0.7701	0.409
Mof_H 	H 	0.2101	0.1516	0.7425	-0.201
Mof_C 	C 	0.9088	0.1192	0.7711	-0.008
Mof_H 	H 	0.9008	0.1024	0.7504	0.058
Mof_H 	H 	0.888	0.1218	0.7893	0.008
Mof_N 	N 	0.9506	0.2203	0.7991	-0.109
Mof_N 	N 	0.04419	0.1734	0.84382	-0.165
Mof_N 	N 	0.1262	0.15141	0.8224	-0.117
Mof_N 	N 	0.0104	0.0983	0.8095	-0.174
Mof_O 	O 	0.9213	0.1557	0.7569	-0.361
Mof_H 	H 	0.929	0.1737	0.744	0.257
Mof_O 	O 	0.2514	0.1689	0.7707	-1.393
Mof_H 	H 	0.264	0.188	0.779	0.532
Mof_H 	H 	0.2067	0.1372	0.7455	0.355
Mof_H 	H 	0.2345	0.1693	0.7601	1.128
Mof_C 	C 	0.9123	0.1316	0.7906	0.098
Mof_H 	H 	0.8882	0.1181	0.7873	0.007
Mof_H 	H 	0.9114	0.1466	0.8139	0.016
Mof_O 	O 	0.2466	0.118	0.7806	-0.259
Mof_H 	H 	0.2464	0.0962	0.7694	0.099
Mof_C 	C 	0.4677	0.7309	0.3251	-0.041
Mof_C 	C 	0.5291	0.6996	0.3561	-0.034
Mof_C 	C 	0.653	0.6436	0.2968	-0.158
Mof_H 	H 	0.6467	0.6274	0.2766	0.076
Mof_C 	C 	0.6905	0.6586	0.2983	0.313
Mof_C 	C 	0.6989	0.6827	0.3274	-0.294
Mof_H 	H 	0.7233	0.6932	0.3294	0.165
Mof_C 	C 	0.6712	0.6917	0.3541	0.079
Mof_H 	H 	0.6764	0.7089	0.3737	0.005
Mof_C 	C 	0.6353	0.6746	0.3512	-0.049
Mof_H 	H 	0.6171	0.6797	0.37	0.043
Mof_C 	C 	0.4794	0.6207	0.3018	0.035
Mof_H 	H 	0.4813	0.6472	0.3043	0.03
Mof_C 	C 	0.4456	0.6045	0.2905	-0.041
Mof_C 	C 	0.4423	0.5658	0.2885	0.019
Mof_H 	H 	0.4191	0.5548	0.2812	0.024
Mof_C 	C 	0.4712	0.544	0.2967	-0.122
Mof_H 	H 	0.469	0.5175	0.295	0.078
Mof_C 	C 	0.5057	0.5609	0.308	0.079
Mof_H 	H 	0.5261	0.5451	0.3146	-0.005
Mof_C 	C 	0.7202	0.6467	0.2679	-0.826
Mof_H 	H 	0.7249	0.6194	0.2701	0.409
Mof_H 	H 	0.7101	0.6516	0.2425	-0.201
Mof_C 	C 	0.4088	0.6192	0.2711	-0.007
Mof_H 	H 	0.4008	0.6024	0.2504	0.058
Mof_H 	H 	0.388	0.6218	0.2893	0.008
Mof_N 	N 	0.4506	0.7203	0.2991	-0.109
Mof_N 	N 	0.54419	0.6734	0.34382	-0.165
Mof_N 	N 	0.6262	0.65141	0.3224	-0.117
Mof_N 	N 	0.5104	0.5983	0.3095	-0.174
Mof_O 	O 	0.4213	0.6557	0.2569	-0.361
Mof_H 	H 	0.429	0.6737	0.244	0.256
Mof_O 	O 	0.7514	0.6689	0.2707	-1.393
Mof_H 	H 	0.764	0.688	0.279	0.532
Mof_H 	H 	0.7067	0.6372	0.2455	0.355
Mof_H 	H 	0.7345	0.6693	0.2601	1.128
Mof_C 	C 	0.4123	0.6316	0.2906	0.097
Mof_H 	H 	0.3882	0.6181	0.2873	0.007
Mof_H 	H 	0.4114	0.6466	0.3139	0.017
Mof_O 	O 	0.7466	0.618	0.2806	-0.259
Mof_H 	H 	0.7464	0.5962	0.2694	0.099
Mof_C 	C 	0.5323	0.7691	0.3251	-0.041
Mof_C 	C 	0.4709	0.8004	0.3561	-0.034
Mof_C 	C 	0.347	0.8564	0.2968	-0.157
Mof_H 	H 	0.3533	0.8726	0.2766	0.076
Mof_C 	C 	0.3095	0.8414	0.2983	0.313
Mof_C 	C 	0.3011	0.8173	0.3274	-0.294
Mof_H 	H 	0.2767	0.8068	0.3294	0.165
Mof_C 	C 	0.3288	0.8083	0.3541	0.079
Mof_H 	H 	0.3236	0.7911	0.3737	0.005
Mof_C 	C 	0.3647	0.8254	0.3512	-0.049
Mof_H 	H 	0.3829	0.8203	0.37	0.043
Mof_C 	C 	0.5206	0.8793	0.3018	0.035
Mof_H 	H 	0.5187	0.8528	0.3043	0.03
Mof_C 	C 	0.5544	0.8955	0.2905	-0.041
Mof_C 	C 	0.5577	0.9342	0.2885	0.019
Mof_H 	H 	0.5809	0.9452	0.2812	0.024
Mof_C 	C 	0.5288	0.956	0.2967	-0.122
Mof_H 	H 	0.531	0.9825	0.295	0.079
Mof_C 	C 	0.4943	0.9391	0.308	0.079
Mof_H 	H 	0.4739	0.9549	0.3146	-0.004
Mof_C 	C 	0.2798	0.8533	0.2679	-0.826
Mof_H 	H 	0.2751	0.8806	0.2701	0.409
Mof_H 	H 	0.2899	0.8484	0.2425	-0.201
Mof_C 	C 	0.5912	0.8808	0.2711	-0.007
Mof_H 	H 	0.5992	0.8976	0.2504	0.058
Mof_H 	H 	0.612	0.8782	0.2893	0.008
Mof_N 	N 	0.5494	0.7797	0.2991	-0.109
Mof_N 	N 	0.45581	0.8266	0.34382	-0.165
Mof_N 	N 	0.3738	0.84859	0.3224	-0.117
Mof_N 	N 	0.4896	0.9017	0.3095	-0.174
Mof_O 	O 	0.5787	0.8443	0.2569	-0.361
Mof_H 	H 	0.571	0.8263	0.244	0.256
Mof_O 	O 	0.2486	0.8311	0.2707	-1.393
Mof_H 	H 	0.236	0.812	0.279	0.532
Mof_H 	H 	0.2933	0.8628	0.2455	0.355
Mof_H 	H 	0.2655	0.8307	0.2601	1.127
Mof_C 	C 	0.5877	0.8684	0.2906	0.097
Mof_H 	H 	0.6118	0.8819	0.2873	0.007
Mof_H 	H 	0.5886	0.8534	0.3139	0.017
Mof_O 	O 	0.2534	0.882	0.2806	-0.259
Mof_H 	H 	0.2536	0.9038	0.2694	0.1
Mof_C 	C 	0.0323	0.2691	0.8251	-0.041
Mof_C 	C 	0.9709	0.3004	0.8561	-0.031
Mof_C 	C 	0.847	0.3564	0.7968	-0.158
Mof_H 	H 	0.8533	0.3726	0.7766	0.076
Mof_C 	C 	0.8095	0.3414	0.7983	0.313
Mof_C 	C 	0.8011	0.3173	0.8274	-0.294
Mof_H 	H 	0.7767	0.3068	0.8294	0.165
Mof_C 	C 	0.8288	0.3083	0.8541	0.079
Mof_H 	H 	0.8236	0.2911	0.8737	0.005
Mof_C 	C 	0.8647	0.3254	0.8512	-0.049
Mof_H 	H 	0.8829	0.3203	0.87	0.043
Mof_C 	C 	0.0206	0.3793	0.8018	0.033
Mof_H 	H 	0.0187	0.3528	0.8043	0.03
Mof_C 	C 	0.0544	0.3955	0.7905	-0.043
Mof_C 	C 	0.0577	0.4342	0.7885	0.024
Mof_H 	H 	0.0809	0.4452	0.7812	0.022
Mof_C 	C 	0.0288	0.456	0.7967	-0.131
Mof_H 	H 	0.031	0.4825	0.795	0.08
Mof_C 	C 	0.9943	0.4391	0.808	0.087
Mof_H 	H 	0.9739	0.4549	0.8146	-0.007
Mof_C 	C 	0.7798	0.3533	0.7679	-0.826
Mof_H 	H 	0.7751	0.3806	0.7701	0.409
Mof_H 	H 	0.7899	0.3484	0.7425	-0.201
Mof_C 	C 	0.0912	0.3808	0.7711	-0.006
Mof_H 	H 	0.0992	0.3976	0.7504	0.057
Mof_H 	H 	0.112	0.3782	0.7893	0.008
Mof_N 	N 	0.0494	0.2797	0.7991	-0.109
Mof_N 	N 	0.95581	0.3266	0.84382	-0.165
Mof_N 	N 	0.8738	0.34859	0.8224	-0.117
Mof_N 	N 	0.9896	0.4017	0.8095	-0.173
Mof_O 	O 	0.0787	0.3443	0.7569	-0.361
Mof_H 	H 	0.071	0.3263	0.744	0.256
Mof_O 	O 	0.7486	0.3311	0.7707	-1.393
Mof_H 	H 	0.736	0.312	0.779	0.532
Mof_H 	H 	0.7933	0.3628	0.7455	0.355
Mof_H 	H 	0.7655	0.3307	0.7601	1.128
Mof_C 	C 	0.0877	0.3684	0.7906	0.097
Mof_H 	H 	0.1118	0.3819	0.7873	0.007
Mof_H 	H 	0.0886	0.3534	0.8139	0.017
Mof_O 	O 	0.7534	0.382	0.7806	-0.259
Mof_H 	H 	0.7536	0.4038	0.7694	0.099
Mof_C 	C 	0.7691	0.3251	0.5323	-0.041
Mof_C 	C 	0.8004	0.3561	0.4709	-0.034
Mof_C 	C 	0.8564	0.2968	0.347	-0.157
Mof_H 	H 	0.8726	0.2766	0.3533	0.076
Mof_C 	C 	0.8414	0.2983	0.3095	0.313
Mof_C 	C 	0.8173	0.3274	0.3011	-0.294
Mof_H 	H 	0.8068	0.3294	0.2767	0.165
Mof_C 	C 	0.8083	0.3541	0.3288	0.079
Mof_H 	H 	0.7911	0.3737	0.3236	0.005
Mof_C 	C 	0.8254	0.3512	0.3647	-0.049
Mof_H 	H 	0.8203	0.37	0.3829	0.043
Mof_C 	C 	0.8793	0.3018	0.5206	0.035
Mof_H 	H 	0.8528	0.3043	0.5187	0.03
Mof_C 	C 	0.8955	0.2905	0.5544	-0.041
Mof_C 	C 	0.9342	0.2885	0.5577	0.019
Mof_H 	H 	0.9452	0.2812	0.5809	0.024
Mof_C 	C 	0.956	0.2967	0.5288	-0.122
Mof_H 	H 	0.9825	0.295	0.531	0.079
Mof_C 	C 	0.9391	0.308	0.4943	0.079
Mof_H 	H 	0.9549	0.3146	0.4739	-0.004
Mof_C 	C 	0.8533	0.2679	0.2798	-0.826
Mof_H 	H 	0.8806	0.2701	0.2751	0.409
Mof_H 	H 	0.8484	0.2425	0.2899	-0.201
Mof_C 	C 	0.8808	0.2711	0.5912	-0.007
Mof_H 	H 	0.8976	0.2504	0.5992	0.058
Mof_H 	H 	0.8782	0.2893	0.612	0.008
Mof_N 	N 	0.7797	0.2991	0.5494	-0.109
Mof_N 	N 	0.8266	0.34382	0.45581	-0.165
Mof_N 	N 	0.84859	0.3224	0.3738	-0.117
Mof_N 	N 	0.9017	0.3095	0.4896	-0.174
Mof_O 	O 	0.8443	0.2569	0.5787	-0.361
Mof_H 	H 	0.8263	0.244	0.571	0.256
Mof_O 	O 	0.8311	0.2707	0.2486	-1.393
Mof_H 	H 	0.812	0.279	0.236	0.532
Mof_H 	H 	0.8628	0.2455	0.2933	0.355
Mof_H 	H 	0.8307	0.2601	0.2655	1.127
Mof_C 	C 	0.8684	0.2906	0.5877	0.097
Mof_H 	H 	0.8819	0.2873	0.6118	0.007
Mof_H 	H 	0.8534	0.3139	0.5886	0.017
Mof_O 	O 	0.882	0.2806	0.2534	-0.259
Mof_H 	H 	0.9038	0.2694	0.2536	0.1
Mof_C 	C 	0.2691	0.8251	0.0323	-0.041
Mof_C 	C 	0.3004	0.8561	0.9709	-0.031
Mof_C 	C 	0.3564	0.7968	0.847	-0.158
Mof_H 	H 	0.3726	0.7766	0.8533	0.076
Mof_C 	C 	0.3414	0.7983	0.8095	0.313
Mof_C 	C 	0.3173	0.8274	0.8011	-0.294
Mof_H 	H 	0.3068	0.8294	0.7767	0.165
Mof_C 	C 	0.3083	0.8541	0.8288	0.079
Mof_H 	H 	0.2911	0.8737	0.8236	0.005
Mof_C 	C 	0.3254	0.8512	0.8647	-0.049
Mof_H 	H 	0.3203	0.87	0.8829	0.043
Mof_C 	C 	0.3793	0.8018	0.0206	0.033
Mof_H 	H 	0.3528	0.8043	0.0187	0.03
Mof_C 	C 	0.3955	0.7905	0.0544	-0.043
Mof_C 	C 	0.4342	0.7885	0.0577	0.024
Mof_H 	H 	0.4452	0.7812	0.0809	0.022
Mof_C 	C 	0.456	0.7967	0.0288	-0.131
Mof_H 	H 	0.4825	0.795	0.031	0.08
Mof_C 	C 	0.4391	0.808	0.9943	0.087
Mof_H 	H 	0.4549	0.8146	0.9739	-0.007
Mof_C 	C 	0.3533	0.7679	0.7798	-0.826
Mof_H 	H 	0.3806	0.7701	0.7751	0.409
Mof_H 	H 	0.3484	0.7425	0.7899	-0.201
Mof_C 	C 	0.3808	0.7711	0.0912	-0.006
Mof_H 	H 	0.3976	0.7504	0.0992	0.057
Mof_H 	H 	0.3782	0.7893	0.112	0.008
Mof_N 	N 	0.2797	0.7991	0.0494	-0.109
Mof_N 	N 	0.3266	0.84382	0.95581	-0.165
Mof_N 	N 	0.34859	0.8224	0.8738	-0.117
Mof_N 	N 	0.4017	0.8095	0.9896	-0.173
Mof_O 	O 	0.3443	0.7569	0.0787	-0.361
Mof_H 	H 	0.3263	0.744	0.071	0.256
Mof_O 	O 	0.3311	0.7707	0.7486	-1.393
Mof_H 	H 	0.312	0.779	0.736	0.532
Mof_H 	H 	0.3628	0.7455	0.7933	0.355
Mof_H 	H 	0.3307	0.7601	0.7655	1.128
Mof_C 	C 	0.3684	0.7906	0.0877	0.097
Mof_H 	H 	0.3819	0.7873	0.1118	0.007
Mof_H 	H 	0.3534	0.8139	0.0886	0.017
Mof_O 	O 	0.382	0.7806	0.7534	-0.259
Mof_H 	H 	0.4038	0.7694	0.7536	0.099
Mof_C 	C 	0.2309	0.8251	0.9677	-0.038
Mof_C 	C 	0.1996	0.8561	0.0291	-0.034
Mof_C 	C 	0.1436	0.7968	0.153	-0.158
Mof_H 	H 	0.1274	0.7766	0.1467	0.076
Mof_C 	C 	0.1586	0.7983	0.1905	0.313
Mof_C 	C 	0.1827	0.8274	0.1989	-0.294
Mof_H 	H 	0.1932	0.8294	0.2233	0.165
Mof_C 	C 	0.1917	0.8541	0.1712	0.079
Mof_H 	H 	0.2089	0.8737	0.1764	0.005
Mof_C 	C 	0.1746	0.8512	0.1353	-0.049
Mof_H 	H 	0.1797	0.87	0.1171	0.043
Mof_C 	C 	0.1207	0.8018	0.9794	0.037
Mof_H 	H 	0.1472	0.8043	0.9813	0.03
Mof_C 	C 	0.1045	0.7905	0.9456	-0.039
Mof_C 	C 	0.0658	0.7885	0.9423	0.014
Mof_H 	H 	0.0548	0.7812	0.9191	0.025
Mof_C 	C 	0.044	0.7967	0.9712	-0.113
Mof_H 	H 	0.0175	0.795	0.969	0.074
Mof_C 	C 	0.0609	0.808	0.0057	0.071
Mof_H 	H 	0.0451	0.8146	0.0261	-0.003
Mof_C 	C 	0.1467	0.7679	0.2202	-0.826
Mof_H 	H 	0.1194	0.7701	0.2249	0.409
Mof_H 	H 	0.1516	0.7425	0.2101	-0.201
Mof_C 	C 	0.1192	0.7711	0.9088	-0.008
Mof_H 	H 	0.1024	0.7504	0.9008	0.058
Mof_H 	H 	0.1218	0.7893	0.888	0.008
Mof_N 	N 	0.2203	0.7991	0.9506	-0.109
Mof_N 	N 	0.1734	0.84382	0.04419	-0.165
Mof_N 	N 	0.15141	0.8224	0.1262	-0.117
Mof_N 	N 	0.0983	0.8095	0.0104	-0.174
Mof_O 	O 	0.1557	0.7569	0.9213	-0.361
Mof_H 	H 	0.1737	0.744	0.929	0.257
Mof_O 	O 	0.1689	0.7707	0.2514	-1.393
Mof_H 	H 	0.188	0.779	0.264	0.532
Mof_H 	H 	0.1372	0.7455	0.2067	0.355
Mof_H 	H 	0.1693	0.7601	0.2345	1.128
Mof_C 	C 	0.1316	0.7906	0.9123	0.098
Mof_H 	H 	0.1181	0.7873	0.8882	0.007
Mof_H 	H 	0.1466	0.8139	0.9114	0.016
Mof_O 	O 	0.118	0.7806	0.2466	-0.259
Mof_H 	H 	0.0962	0.7694	0.2464	0.099
Mof_C 	C 	0.7309	0.3251	0.4677	-0.041
Mof_C 	C 	0.6996	0.3561	0.5291	-0.034
Mof_C 	C 	0.6436	0.2968	0.653	-0.158
Mof_H 	H 	0.6274	0.2766	0.6467	0.076
Mof_C 	C 	0.6586	0.2983	0.6905	0.313
Mof_C 	C 	0.6827	0.3274	0.6989	-0.294
Mof_H 	H 	0.6932	0.3294	0.7233	0.165
Mof_C 	C 	0.6917	0.3541	0.6712	0.079
Mof_H 	H 	0.7089	0.3737	0.6764	0.005
Mof_C 	C 	0.6746	0.3512	0.6353	-0.049
Mof_H 	H 	0.6797	0.37	0.6171	0.043
Mof_C 	C 	0.6207	0.3018	0.4794	0.035
Mof_H 	H 	0.6472	0.3043	0.4813	0.03
Mof_C 	C 	0.6045	0.2905	0.4456	-0.041
Mof_C 	C 	0.5658	0.2885	0.4423	0.019
Mof_H 	H 	0.5548	0.2812	0.4191	0.024
Mof_C 	C 	0.544	0.2967	0.4712	-0.122
Mof_H 	H 	0.5175	0.295	0.469	0.078
Mof_C 	C 	0.5609	0.308	0.5057	0.079
Mof_H 	H 	0.5451	0.3146	0.5261	-0.005
Mof_C 	C 	0.6467	0.2679	0.7202	-0.826
Mof_H 	H 	0.6194	0.2701	0.7249	0.409
Mof_H 	H 	0.6516	0.2425	0.7101	-0.201
Mof_C 	C 	0.6192	0.2711	0.4088	-0.007
Mof_H 	H 	0.6024	0.2504	0.4008	0.058
Mof_H 	H 	0.6218	0.2893	0.388	0.008
Mof_N 	N 	0.7203	0.2991	0.4506	-0.109
Mof_N 	N 	0.6734	0.34382	0.54419	-0.165
Mof_N 	N 	0.65141	0.3224	0.6262	-0.117
Mof_N 	N 	0.5983	0.3095	0.5104	-0.174
Mof_O 	O 	0.6557	0.2569	0.4213	-0.361
Mof_H 	H 	0.6737	0.244	0.429	0.256
Mof_O 	O 	0.6689	0.2707	0.7514	-1.393
Mof_H 	H 	0.688	0.279	0.764	0.532
Mof_H 	H 	0.6372	0.2455	0.7067	0.355
Mof_H 	H 	0.6693	0.2601	0.7345	1.128
Mof_C 	C 	0.6316	0.2906	0.4123	0.097
Mof_H 	H 	0.6181	0.2873	0.3882	0.007
Mof_H 	H 	0.6466	0.3139	0.4114	0.017
Mof_O 	O 	0.618	0.2806	0.7466	-0.259
Mof_H 	H 	0.5962	0.2694	0.7464	0.099
Mof_C 	C 	0.7309	0.6749	0.0323	-0.041
Mof_C 	C 	0.6996	0.6439	0.9709	-0.031
Mof_C 	C 	0.6436	0.7032	0.847	-0.158
Mof_H 	H 	0.6274	0.7234	0.8533	0.076
Mof_C 	C 	0.6586	0.7017	0.8095	0.313
Mof_C 	C 	0.6827	0.6726	0.8011	-0.294
Mof_H 	H 	0.6932	0.6706	0.7767	0.165
Mof_C 	C 	0.6917	0.6459	0.8288	0.079
Mof_H 	H 	0.7089	0.6263	0.8236	0.005
Mof_C 	C 	0.6746	0.6488	0.8647	-0.049
Mof_H 	H 	0.6797	0.63	0.8829	0.043
Mof_C 	C 	0.6207	0.6982	0.0206	0.033
Mof_H 	H 	0.6472	0.6957	0.0187	0.03
Mof_C 	C 	0.6045	0.7095	0.0544	-0.043
Mof_C 	C 	0.5658	0.7115	0.0577	0.024
Mof_H 	H 	0.5548	0.7188	0.0809	0.022
Mof_C 	C 	0.544	0.7033	0.0288	-0.131
Mof_H 	H 	0.5175	0.705	0.031	0.08
Mof_C 	C 	0.5609	0.692	0.9943	0.087
Mof_H 	H 	0.5451	0.6854	0.9739	-0.007
Mof_C 	C 	0.6467	0.7321	0.7798	-0.826
Mof_H 	H 	0.6194	0.7299	0.7751	0.409
Mof_H 	H 	0.6516	0.7575	0.7899	-0.201
Mof_C 	C 	0.6192	0.7289	0.0912	-0.006
Mof_H 	H 	0.6024	0.7496	0.0992	0.057
Mof_H 	H 	0.6218	0.7107	0.112	0.008
Mof_N 	N 	0.7203	0.7009	0.0494	-0.109
Mof_N 	N 	0.6734	0.65618	0.95581	-0.165
Mof_N 	N 	0.65141	0.6776	0.8738	-0.117
Mof_N 	N 	0.5983	0.6905	0.9896	-0.173
Mof_O 	O 	0.6557	0.7431	0.0787	-0.361
Mof_H 	H 	0.6737	0.756	0.071	0.256
Mof_O 	O 	0.6689	0.7293	0.7486	-1.393
Mof_H 	H 	0.688	0.721	0.736	0.532
Mof_H 	H 	0.6372	0.7545	0.7933	0.355
Mof_H 	H 	0.6693	0.7399	0.7655	1.128
Mof_C 	C 	0.6316	0.7094	0.0877	0.097
Mof_H 	H 	0.6181	0.7127	0.1118	0.007
Mof_H 	H 	0.6466	0.6861	0.0886	0.017
Mof_O 	O 	0.618	0.7194	0.7534	-0.259
Mof_H 	H 	0.5962	0.7306	0.7536	0.099
Mof_C 	C 	0.2309	0.1749	0.5323	-0.041
Mof_C 	C 	0.1996	0.1439	0.4709	-0.034
Mof_C 	C 	0.1436	0.2032	0.347	-0.158
Mof_H 	H 	0.1274	0.2234	0.3533	0.076
Mof_C 	C 	0.1586	0.2017	0.3095	0.313
Mof_C 	C 	0.1827	0.1726	0.3011	-0.294
Mof_H 	H 	0.1932	0.1706	0.2767	0.165
Mof_C 	C 	0.1917	0.1459	0.3288	0.079
Mof_H 	H 	0.2089	0.1263	0.3236	0.005
Mof_C 	C 	0.1746	0.1488	0.3647	-0.049
Mof_H 	H 	0.1797	0.13	0.3829	0.043
Mof_C 	C 	0.1207	0.1982	0.5206	0.035
Mof_H 	H 	0.1472	0.1957	0.5187	0.03
Mof_C 	C 	0.1045	0.2095	0.5544	-0.041
Mof_C 	C 	0.0658	0.2115	0.5577	0.019
Mof_H 	H 	0.0548	0.2188	0.5809	0.023
Mof_C 	C 	0.044	0.2033	0.5288	-0.122
Mof_H 	H 	0.0175	0.205	0.531	0.077
Mof_C 	C 	0.0609	0.192	0.4943	0.079
Mof_H 	H 	0.0451	0.1854	0.4739	-0.005
Mof_C 	C 	0.1467	0.2321	0.2798	-0.826
Mof_H 	H 	0.1194	0.2299	0.2751	0.409
Mof_H 	H 	0.1516	0.2575	0.2899	-0.201
Mof_C 	C 	0.1192	0.2289	0.5912	-0.007
Mof_H 	H 	0.1024	0.2496	0.5992	0.057
Mof_H 	H 	0.1218	0.2107	0.612	0.008
Mof_N 	N 	0.2203	0.2009	0.5494	-0.109
Mof_N 	N 	0.1734	0.15618	0.45581	-0.165
Mof_N 	N 	0.15141	0.1776	0.3738	-0.117
Mof_N 	N 	0.0983	0.1905	0.4896	-0.174
Mof_O 	O 	0.1557	0.2431	0.5787	-0.361
Mof_H 	H 	0.1737	0.256	0.571	0.256
Mof_O 	O 	0.1689	0.2293	0.2486	-1.393
Mof_H 	H 	0.188	0.221	0.236	0.532
Mof_H 	H 	0.1372	0.2545	0.2933	0.355
Mof_H 	H 	0.1693	0.2399	0.2655	1.128
Mof_C 	C 	0.1316	0.2094	0.5877	0.098
Mof_H 	H 	0.1181	0.2127	0.6118	0.007
Mof_H 	H 	0.1466	0.1861	0.5886	0.017
Mof_O 	O 	0.118	0.2194	0.2534	-0.26
Mof_H 	H 	0.0962	0.2306	0.2536	0.099
Mof_C 	C 	0.2691	0.1749	0.4677	-0.041
Mof_C 	C 	0.3004	0.1439	0.5291	-0.034
Mof_C 	C 	0.3564	0.2032	0.653	-0.158
Mof_H 	H 	0.3726	0.2234	0.6467	0.076
Mof_C 	C 	0.3414	0.2017	0.6905	0.313
Mof_C 	C 	0.3173	0.1726	0.6989	-0.294
Mof_H 	H 	0.3068	0.1706	0.7233	0.165
Mof_C 	C 	0.3083	0.1459	0.6712	0.079
Mof_H 	H 	0.2911	0.1263	0.6764	0.005
Mof_C 	C 	0.3254	0.1488	0.6353	-0.049
Mof_H 	H 	0.3203	0.13	0.6171	0.043
Mof_C 	C 	0.3793	0.1982	0.4794	0.035
Mof_H 	H 	0.3528	0.1957	0.4813	0.03
Mof_C 	C 	0.3955	0.2095	0.4456	-0.041
Mof_C 	C 	0.4342	0.2115	0.4423	0.019
Mof_H 	H 	0.4452	0.2188	0.4191	0.024
Mof_C 	C 	0.456	0.2033	0.4712	-0.122
Mof_H 	H 	0.4825	0.205	0.469	0.078
Mof_C 	C 	0.4391	0.192	0.5057	0.079
Mof_H 	H 	0.4549	0.1854	0.5261	-0.005
Mof_C 	C 	0.3533	0.2321	0.7202	-0.826
Mof_H 	H 	0.3806	0.2299	0.7249	0.409
Mof_H 	H 	0.3484	0.2575	0.7101	-0.201
Mof_C 	C 	0.3808	0.2289	0.4088	-0.007
Mof_H 	H 	0.3976	0.2496	0.4008	0.058
Mof_H 	H 	0.3782	0.2107	0.388	0.008
Mof_N 	N 	0.2797	0.2009	0.4506	-0.109
Mof_N 	N 	0.3266	0.15618	0.54419	-0.165
Mof_N 	N 	0.34859	0.1776	0.6262	-0.117
Mof_N 	N 	0.4017	0.1905	0.5104	-0.174
Mof_O 	O 	0.3443	0.2431	0.4213	-0.361
Mof_H 	H 	0.3263	0.256	0.429	0.256
Mof_O 	O 	0.3311	0.2293	0.7514	-1.393
Mof_H 	H 	0.312	0.221	0.764	0.532
Mof_H 	H 	0.3628	0.2545	0.7067	0.355
Mof_H 	H 	0.3307	0.2399	0.7345	1.128
Mof_C 	C 	0.3684	0.2094	0.4123	0.097
Mof_H 	H 	0.3819	0.2127	0.3882	0.007
Mof_H 	H 	0.3534	0.1861	0.4114	0.017
Mof_O 	O 	0.382	0.2194	0.7466	-0.259
Mof_H 	H 	0.4038	0.2306	0.7464	0.099
Mof_C 	C 	0.7691	0.6749	0.9677	-0.038
Mof_C 	C 	0.8004	0.6439	0.0291	-0.034
Mof_C 	C 	0.8564	0.7032	0.153	-0.157
Mof_H 	H 	0.8726	0.7234	0.1467	0.076
Mof_C 	C 	0.8414	0.7017	0.1905	0.313
Mof_C 	C 	0.8173	0.6726	0.1989	-0.294
Mof_H 	H 	0.8068	0.6706	0.2233	0.165
Mof_C 	C 	0.8083	0.6459	0.1712	0.079
Mof_H 	H 	0.7911	0.6263	0.1764	0.005
Mof_C 	C 	0.8254	0.6488	0.1353	-0.049
Mof_H 	H 	0.8203	0.63	0.1171	0.043
Mof_C 	C 	0.8793	0.6982	0.9794	0.037
Mof_H 	H 	0.8528	0.6957	0.9813	0.03
Mof_C 	C 	0.8955	0.7095	0.9456	-0.039
Mof_C 	C 	0.9342	0.7115	0.9423	0.014
Mof_H 	H 	0.9452	0.7188	0.9191	0.026
Mof_C 	C 	0.956	0.7033	0.9712	-0.113
Mof_H 	H 	0.9825	0.705	0.969	0.076
Mof_C 	C 	0.9391	0.692	0.0057	0.071
Mof_H 	H 	0.9549	0.6854	0.0261	-0.002
Mof_C 	C 	0.8533	0.7321	0.2202	-0.826
Mof_H 	H 	0.8806	0.7299	0.2249	0.409
Mof_H 	H 	0.8484	0.7575	0.2101	-0.201
Mof_C 	C 	0.8808	0.7289	0.9088	-0.008
Mof_H 	H 	0.8976	0.7496	0.9008	0.058
Mof_H 	H 	0.8782	0.7107	0.888	0.008
Mof_N 	N 	0.7797	0.7009	0.9506	-0.109
Mof_N 	N 	0.8266	0.65618	0.04419	-0.165
Mof_N 	N 	0.84859	0.6776	0.1262	-0.117
Mof_N 	N 	0.9017	0.6905	0.0104	-0.174
Mof_O 	O 	0.8443	0.7431	0.9213	-0.361
Mof_H 	H 	0.8263	0.756	0.929	0.257
Mof_O 	O 	0.8311	0.7293	0.2514	-1.393
Mof_H 	H 	0.812	0.721	0.264	0.532
Mof_H 	H 	0.8628	0.7545	0.2067	0.355
Mof_H 	H 	0.8307	0.7399	0.2345	1.127
Mof_C 	C 	0.8684	0.7094	0.9123	0.098
Mof_H 	H 	0.8819	0.7127	0.8882	0.007
Mof_H 	H 	0.8534	0.6861	0.9114	0.017
Mof_O 	O 	0.882	0.7194	0.2466	-0.259
Mof_H 	H 	0.9038	0.7306	0.2464	0.1
Mof_C 	C 	0.8251	0.9677	0.2309	-0.038
Mof_C 	C 	0.8561	0.0291	0.1996	-0.034
Mof_C 	C 	0.7968	0.153	0.1436	-0.158
Mof_H 	H 	0.7766	0.1467	0.1274	0.076
Mof_C 	C 	0.7983	0.1905	0.1586	0.313
Mof_C 	C 	0.8274	0.1989	0.1827	-0.294
Mof_H 	H 	0.8294	0.2233	0.1932	0.165
Mof_C 	C 	0.8541	0.1712	0.1917	0.079
Mof_H 	H 	0.8737	0.1764	0.2089	0.005
Mof_C 	C 	0.8512	0.1353	0.1746	-0.049
Mof_H 	H 	0.87	0.1171	0.1797	0.043
Mof_C 	C 	0.8018	0.9794	0.1207	0.037
Mof_H 	H 	0.8043	0.9813	0.1472	0.03
Mof_C 	C 	0.7905	0.9456	0.1045	-0.039
Mof_C 	C 	0.7885	0.9423	0.0658	0.014
Mof_H 	H 	0.7812	0.9191	0.0548	0.025
Mof_C 	C 	0.7967	0.9712	0.044	-0.113
Mof_H 	H 	0.795	0.969	0.0175	0.074
Mof_C 	C 	0.808	0.0057	0.0609	0.071
Mof_H 	H 	0.8146	0.0261	0.0451	-0.003
Mof_C 	C 	0.7679	0.2202	0.1467	-0.826
Mof_H 	H 	0.7701	0.2249	0.1194	0.409
Mof_H 	H 	0.7425	0.2101	0.1516	-0.201
Mof_C 	C 	0.7711	0.9088	0.1192	-0.008
Mof_H 	H 	0.7504	0.9008	0.1024	0.058
Mof_H 	H 	0.7893	0.888	0.1218	0.008
Mof_N 	N 	0.7991	0.9506	0.2203	-0.109
Mof_N 	N 	0.84382	0.04419	0.1734	-0.165
Mof_N 	N 	0.8224	0.1262	0.15141	-0.117
Mof_N 	N 	0.8095	0.0104	0.0983	-0.174
Mof_O 	O 	0.7569	0.9213	0.1557	-0.361
Mof_H 	H 	0.744	0.929	0.1737	0.257
Mof_O 	O 	0.7707	0.2514	0.1689	-1.393
Mof_H 	H 	0.779	0.264	0.188	0.532
Mof_H 	H 	0.7455	0.2067	0.1372	0.355
Mof_H 	H 	0.7601	0.2345	0.1693	1.128
Mof_C 	C 	0.7906	0.9123	0.1316	0.098
Mof_H 	H 	0.7873	0.8882	0.1181	0.007
Mof_H 	H 	0.8139	0.9114	0.1466	0.016
Mof_O 	O 	0.7806	0.2466	0.118	-0.259
Mof_H 	H 	0.7694	0.2464	0.0962	0.099
Mof_C 	C 	0.3251	0.4677	0.7309	-0.041
Mof_C 	C 	0.3561	0.5291	0.6996	-0.034
Mof_C 	C 	0.2968	0.653	0.6436	-0.158
Mof_H 	H 	0.2766	0.6467	0.6274	0.076
Mof_C 	C 	0.2983	0.6905	0.6586	0.313
Mof_C 	C 	0.3274	0.6989	0.6827	-0.294
Mof_H 	H 	0.3294	0.7233	0.6932	0.165
Mof_C 	C 	0.3541	0.6712	0.6917	0.079
Mof_H 	H 	0.3737	0.6764	0.7089	0.005
Mof_C 	C 	0.3512	0.6353	0.6746	-0.049
Mof_H 	H 	0.37	0.6171	0.6797	0.043
Mof_C 	C 	0.3018	0.4794	0.6207	0.035
Mof_H 	H 	0.3043	0.4813	0.6472	0.03
Mof_C 	C 	0.2905	0.4456	0.6045	-0.041
Mof_C 	C 	0.2885	0.4423	0.5658	0.019
Mof_H 	H 	0.2812	0.4191	0.5548	0.024
Mof_C 	C 	0.2967	0.4712	0.544	-0.122
Mof_H 	H 	0.295	0.469	0.5175	0.078
Mof_C 	C 	0.308	0.5057	0.5609	0.079
Mof_H 	H 	0.3146	0.5261	0.5451	-0.005
Mof_C 	C 	0.2679	0.7202	0.6467	-0.826
Mof_H 	H 	0.2701	0.7249	0.6194	0.409
Mof_H 	H 	0.2425	0.7101	0.6516	-0.201
Mof_C 	C 	0.2711	0.4088	0.6192	-0.007
Mof_H 	H 	0.2504	0.4008	0.6024	0.058
Mof_H 	H 	0.2893	0.388	0.6218	0.008
Mof_N 	N 	0.2991	0.4506	0.7203	-0.109
Mof_N 	N 	0.34382	0.54419	0.6734	-0.165
Mof_N 	N 	0.3224	0.6262	0.65141	-0.117
Mof_N 	N 	0.3095	0.5104	0.5983	-0.174
Mof_O 	O 	0.2569	0.4213	0.6557	-0.361
Mof_H 	H 	0.244	0.429	0.6737	0.256
Mof_O 	O 	0.2707	0.7514	0.6689	-1.393
Mof_H 	H 	0.279	0.764	0.688	0.532
Mof_H 	H 	0.2455	0.7067	0.6372	0.355
Mof_H 	H 	0.2601	0.7345	0.6693	1.128
Mof_C 	C 	0.2906	0.4123	0.6316	0.097
Mof_H 	H 	0.2873	0.3882	0.6181	0.007
Mof_H 	H 	0.3139	0.4114	0.6466	0.017
Mof_O 	O 	0.2806	0.7466	0.618	-0.259
Mof_H 	H 	0.2694	0.7464	0.5962	0.099
Mof_C 	C 	0.3251	0.5323	0.7691	-0.041
Mof_C 	C 	0.3561	0.4709	0.8004	-0.034
Mof_C 	C 	0.2968	0.347	0.8564	-0.157
Mof_H 	H 	0.2766	0.3533	0.8726	0.076
Mof_C 	C 	0.2983	0.3095	0.8414	0.313
Mof_C 	C 	0.3274	0.3011	0.8173	-0.294
Mof_H 	H 	0.3294	0.2767	0.8068	0.165
Mof_C 	C 	0.3541	0.3288	0.8083	0.079
Mof_H 	H 	0.3737	0.3236	0.7911	0.005
Mof_C 	C 	0.3512	0.3647	0.8254	-0.049
Mof_H 	H 	0.37	0.3829	0.8203	0.043
Mof_C 	C 	0.3018	0.5206	0.8793	0.035
Mof_H 	H 	0.3043	0.5187	0.8528	0.03
Mof_C 	C 	0.2905	0.5544	0.8955	-0.041
Mof_C 	C 	0.2885	0.5577	0.9342	0.019
Mof_H 	H 	0.2812	0.5809	0.9452	0.024
Mof_C 	C 	0.2967	0.5288	0.956	-0.122
Mof_H 	H 	0.295	0.531	0.9825	0.079
Mof_C 	C 	0.308	0.4943	0.9391	0.079
Mof_H 	H 	0.3146	0.4739	0.9549	-0.004
Mof_C 	C 	0.2679	0.2798	0.8533	-0.826
Mof_H 	H 	0.2701	0.2751	0.8806	0.409
Mof_H 	H 	0.2425	0.2899	0.8484	-0.201
Mof_C 	C 	0.2711	0.5912	0.8808	-0.007
Mof_H 	H 	0.2504	0.5992	0.8976	0.058
Mof_H 	H 	0.2893	0.612	0.8782	0.008
Mof_N 	N 	0.2991	0.5494	0.7797	-0.109
Mof_N 	N 	0.34382	0.45581	0.8266	-0.165
Mof_N 	N 	0.3224	0.3738	0.84859	-0.117
Mof_N 	N 	0.3095	0.4896	0.9017	-0.174
Mof_O 	O 	0.2569	0.5787	0.8443	-0.361
Mof_H 	H 	0.244	0.571	0.8263	0.256
Mof_O 	O 	0.2707	0.2486	0.8311	-1.393
Mof_H 	H 	0.279	0.236	0.812	0.532
Mof_H 	H 	0.2455	0.2933	0.8628	0.355
Mof_H 	H 	0.2601	0.2655	0.8307	1.127
Mof_C 	C 	0.2906	0.5877	0.8684	0.097
Mof_H 	H 	0.2873	0.6118	0.8819	0.007
Mof_H 	H 	0.3139	0.5886	0.8534	0.017
Mof_O 	O 	0.2806	0.2534	0.882	-0.259
Mof_H 	H 	0.2694	0.2536	0.9038	0.1
Mof_C 	C 	0.8251	0.0323	0.2691	-0.041
Mof_C 	C 	0.8561	0.9709	0.3004	-0.031
Mof_C 	C 	0.7968	0.847	0.3564	-0.158
Mof_H 	H 	0.7766	0.8533	0.3726	0.076
Mof_C 	C 	0.7983	0.8095	0.3414	0.313
Mof_C 	C 	0.8274	0.8011	0.3173	-0.294
Mof_H 	H 	0.8294	0.7767	0.3068	0.165
Mof_C 	C 	0.8541	0.8288	0.3083	0.079
Mof_H 	H 	0.8737	0.8236	0.2911	0.005
Mof_C 	C 	0.8512	0.8647	0.3254	-0.049
Mof_H 	H 	0.87	0.8829	0.3203	0.043
Mof_C 	C 	0.8018	0.0206	0.3793	0.033
Mof_H 	H 	0.8043	0.0187	0.3528	0.03
Mof_C 	C 	0.7905	0.0544	0.3955	-0.043
Mof_C 	C 	0.7885	0.0577	0.4342	0.024
Mof_H 	H 	0.7812	0.0809	0.4452	0.022
Mof_C 	C 	0.7967	0.0288	0.456	-0.131
Mof_H 	H 	0.795	0.031	0.4825	0.08
Mof_C 	C 	0.808	0.9943	0.4391	0.087
Mof_H 	H 	0.8146	0.9739	0.4549	-0.007
Mof_C 	C 	0.7679	0.7798	0.3533	-0.826
Mof_H 	H 	0.7701	0.7751	0.3806	0.409
Mof_H 	H 	0.7425	0.7899	0.3484	-0.201
Mof_C 	C 	0.7711	0.0912	0.3808	-0.006
Mof_H 	H 	0.7504	0.0992	0.3976	0.057
Mof_H 	H 	0.7893	0.112	0.3782	0.008
Mof_N 	N 	0.7991	0.0494	0.2797	-0.109
Mof_N 	N 	0.84382	0.95581	0.3266	-0.165
Mof_N 	N 	0.8224	0.8738	0.34859	-0.117
Mof_N 	N 	0.8095	0.9896	0.4017	-0.173
Mof_O 	O 	0.7569	0.0787	0.3443	-0.361
Mof_H 	H 	0.744	0.071	0.3263	0.256
Mof_O 	O 	0.7707	0.7486	0.3311	-1.393
Mof_H 	H 	0.779	0.736	0.312	0.532
Mof_H 	H 	0.7455	0.7933	0.3628	0.355
Mof_H 	H 	0.7601	0.7655	0.3307	1.128
Mof_C 	C 	0.7906	0.0877	0.3684	0.097
Mof_H 	H 	0.7873	0.1118	0.3819	0.007
Mof_H 	H 	0.8139	0.0886	0.3534	0.017
Mof_O 	O 	0.7806	0.7534	0.382	-0.259
Mof_H 	H 	0.7694	0.7536	0.4038	0.099
Mof_C 	C 	0.1749	0.4677	0.2691	-0.041
Mof_C 	C 	0.1439	0.5291	0.3004	-0.034
Mof_C 	C 	0.2032	0.653	0.3564	-0.158
Mof_H 	H 	0.2234	0.6467	0.3726	0.076
Mof_C 	C 	0.2017	0.6905	0.3414	0.313
Mof_C 	C 	0.1726	0.6989	0.3173	-0.294
Mof_H 	H 	0.1706	0.7233	0.3068	0.165
Mof_C 	C 	0.1459	0.6712	0.3083	0.079
Mof_H 	H 	0.1263	0.6764	0.2911	0.005
Mof_C 	C 	0.1488	0.6353	0.3254	-0.049
Mof_H 	H 	0.13	0.6171	0.3203	0.043
Mof_C 	C 	0.1982	0.4794	0.3793	0.035
Mof_H 	H 	0.1957	0.4813	0.3528	0.03
Mof_C 	C 	0.2095	0.4456	0.3955	-0.041
Mof_C 	C 	0.2115	0.4423	0.4342	0.019
Mof_H 	H 	0.2188	0.4191	0.4452	0.024
Mof_C 	C 	0.2033	0.4712	0.456	-0.122
Mof_H 	H 	0.205	0.469	0.4825	0.078
Mof_C 	C 	0.192	0.5057	0.4391	0.079
Mof_H 	H 	0.1854	0.5261	0.4549	-0.005
Mof_C 	C 	0.2321	0.7202	0.3533	-0.826
Mof_H 	H 	0.2299	0.7249	0.3806	0.409
Mof_H 	H 	0.2575	0.7101	0.3484	-0.201
Mof_C 	C 	0.2289	0.4088	0.3808	-0.007
Mof_H 	H 	0.2496	0.4008	0.3976	0.058
Mof_H 	H 	0.2107	0.388	0.3782	0.008
Mof_N 	N 	0.2009	0.4506	0.2797	-0.109
Mof_N 	N 	0.15618	0.54419	0.3266	-0.165
Mof_N 	N 	0.1776	0.6262	0.34859	-0.117
Mof_N 	N 	0.1905	0.5104	0.4017	-0.174
Mof_O 	O 	0.2431	0.4213	0.3443	-0.361
Mof_H 	H 	0.256	0.429	0.3263	0.256
Mof_O 	O 	0.2293	0.7514	0.3311	-1.393
Mof_H 	H 	0.221	0.764	0.312	0.532
Mof_H 	H 	0.2545	0.7067	0.3628	0.355
Mof_H 	H 	0.2399	0.7345	0.3307	1.128
Mof_C 	C 	0.2094	0.4123	0.3684	0.097
Mof_H 	H 	0.2127	0.3882	0.3819	0.007
Mof_H 	H 	0.1861	0.4114	0.3534	0.017
Mof_O 	O 	0.2194	0.7466	0.382	-0.259
Mof_H 	H 	0.2306	0.7464	0.4038	0.099
Mof_C 	C 	0.6749	0.9677	0.7691	-0.038
Mof_C 	C 	0.6439	0.0291	0.8004	-0.034
Mof_C 	C 	0.7032	0.153	0.8564	-0.157
Mof_H 	H 	0.7234	0.1467	0.8726	0.076
Mof_C 	C 	0.7017	0.1905	0.8414	0.313
Mof_C 	C 	0.6726	0.1989	0.8173	-0.294
Mof_H 	H 	0.6706	0.2233	0.8068	0.165
Mof_C 	C 	0.6459	0.1712	0.8083	0.079
Mof_H 	H 	0.6263	0.1764	0.7911	0.005
Mof_C 	C 	0.6488	0.1353	0.8254	-0.049
Mof_H 	H 	0.63	0.1171	0.8203	0.043
Mof_C 	C 	0.6982	0.9794	0.8793	0.037
Mof_H 	H 	0.6957	0.9813	0.8528	0.03
Mof_C 	C 	0.7095	0.9456	0.8955	-0.039
Mof_C 	C 	0.7115	0.9423	0.9342	0.014
Mof_H 	H 	0.7188	0.9191	0.9452	0.026
Mof_C 	C 	0.7033	0.9712	0.956	-0.113
Mof_H 	H 	0.705	0.969	0.9825	0.076
Mof_C 	C 	0.692	0.0057	0.9391	0.071
Mof_H 	H 	0.6854	0.0261	0.9549	-0.002
Mof_C 	C 	0.7321	0.2202	0.8533	-0.826
Mof_H 	H 	0.7299	0.2249	0.8806	0.409
Mof_H 	H 	0.7575	0.2101	0.8484	-0.201
Mof_C 	C 	0.7289	0.9088	0.8808	-0.008
Mof_H 	H 	0.7496	0.9008	0.8976	0.058
Mof_H 	H 	0.7107	0.888	0.8782	0.008
Mof_N 	N 	0.7009	0.9506	0.7797	-0.109
Mof_N 	N 	0.65618	0.04419	0.8266	-0.165
Mof_N 	N 	0.6776	0.1262	0.84859	-0.117
Mof_N 	N 	0.6905	0.0104	0.9017	-0.174
Mof_O 	O 	0.7431	0.9213	0.8443	-0.361
Mof_H 	H 	0.756	0.929	0.8263	0.257
Mof_O 	O 	0.7293	0.2514	0.8311	-1.393
Mof_H 	H 	0.721	0.264	0.812	0.532
Mof_H 	H 	0.7545	0.2067	0.8628	0.355
Mof_H 	H 	0.7399	0.2345	0.8307	1.127
Mof_C 	C 	0.7094	0.9123	0.8684	0.098
Mof_H 	H 	0.7127	0.8882	0.8819	0.007
Mof_H 	H 	0.6861	0.9114	0.8534	0.017
Mof_O 	O 	0.7194	0.2466	0.882	-0.259
Mof_H 	H 	0.7306	0.2464	0.9038	0.1
Mof_C 	C 	0.6749	0.0323	0.7309	-0.041
Mof_C 	C 	0.6439	0.9709	0.6996	-0.031
Mof_C 	C 	0.7032	0.847	0.6436	-0.158
Mof_H 	H 	0.7234	0.8533	0.6274	0.076
Mof_C 	C 	0.7017	0.8095	0.6586	0.313
Mof_C 	C 	0.6726	0.8011	0.6827	-0.294
Mof_H 	H 	0.6706	0.7767	0.6932	0.165
Mof_C 	C 	0.6459	0.8288	0.6917	0.079
Mof_H 	H 	0.6263	0.8236	0.7089	0.005
Mof_C 	C 	0.6488	0.8647	0.6746	-0.049
Mof_H 	H 	0.63	0.8829	0.6797	0.043
Mof_C 	C 	0.6982	0.0206	0.6207	0.033
Mof_H 	H 	0.6957	0.0187	0.6472	0.03
Mof_C 	C 	0.7095	0.0544	0.6045	-0.043
Mof_C 	C 	0.7115	0.0577	0.5658	0.024
Mof_H 	H 	0.7188	0.0809	0.5548	0.022
Mof_C 	C 	0.7033	0.0288	0.544	-0.131
Mof_H 	H 	0.705	0.031	0.5175	0.08
Mof_C 	C 	0.692	0.9943	0.5609	0.087
Mof_H 	H 	0.6854	0.9739	0.5451	-0.007
Mof_C 	C 	0.7321	0.7798	0.6467	-0.826
Mof_H 	H 	0.7299	0.7751	0.6194	0.409
Mof_H 	H 	0.7575	0.7899	0.6516	-0.201
Mof_C 	C 	0.7289	0.0912	0.6192	-0.006
Mof_H 	H 	0.7496	0.0992	0.6024	0.057
Mof_H 	H 	0.7107	0.112	0.6218	0.008
Mof_N 	N 	0.7009	0.0494	0.7203	-0.109
Mof_N 	N 	0.65618	0.95581	0.6734	-0.165
Mof_N 	N 	0.6776	0.8738	0.65141	-0.117
Mof_N 	N 	0.6905	0.9896	0.5983	-0.173
Mof_O 	O 	0.7431	0.0787	0.6557	-0.361
Mof_H 	H 	0.756	0.071	0.6737	0.256
Mof_O 	O 	0.7293	0.7486	0.6689	-1.393
Mof_H 	H 	0.721	0.736	0.688	0.532
Mof_H 	H 	0.7545	0.7933	0.6372	0.355
Mof_H 	H 	0.7399	0.7655	0.6693	1.128
Mof_C 	C 	0.7094	0.0877	0.6316	0.097
Mof_H 	H 	0.7127	0.1118	0.6181	0.007
Mof_H 	H 	0.6861	0.0886	0.6466	0.017
Mof_O 	O 	0.7194	0.7534	0.618	-0.259
Mof_H 	H 	0.7306	0.7536	0.5962	0.099
Mof_C 	C 	0.1749	0.5323	0.2309	-0.041
Mof_C 	C 	0.1439	0.4709	0.1996	-0.034
Mof_C 	C 	0.2032	0.347	0.1436	-0.158
Mof_H 	H 	0.2234	0.3533	0.1274	0.076
Mof_C 	C 	0.2017	0.3095	0.1586	0.313
Mof_C 	C 	0.1726	0.3011	0.1827	-0.294
Mof_H 	H 	0.1706	0.2767	0.1932	0.165
Mof_C 	C 	0.1459	0.3288	0.1917	0.079
Mof_H 	H 	0.1263	0.3236	0.2089	0.005
Mof_C 	C 	0.1488	0.3647	0.1746	-0.049
Mof_H 	H 	0.13	0.3829	0.1797	0.043
Mof_C 	C 	0.1982	0.5206	0.1207	0.035
Mof_H 	H 	0.1957	0.5187	0.1472	0.03
Mof_C 	C 	0.2095	0.5544	0.1045	-0.041
Mof_C 	C 	0.2115	0.5577	0.0658	0.019
Mof_H 	H 	0.2188	0.5809	0.0548	0.023
Mof_C 	C 	0.2033	0.5288	0.044	-0.122
Mof_H 	H 	0.205	0.531	0.0175	0.077
Mof_C 	C 	0.192	0.4943	0.0609	0.079
Mof_H 	H 	0.1854	0.4739	0.0451	-0.005
Mof_C 	C 	0.2321	0.2798	0.1467	-0.826
Mof_H 	H 	0.2299	0.2751	0.1194	0.409
Mof_H 	H 	0.2575	0.2899	0.1516	-0.201
Mof_C 	C 	0.2289	0.5912	0.1192	-0.007
Mof_H 	H 	0.2496	0.5992	0.1024	0.057
Mof_H 	H 	0.2107	0.612	0.1218	0.008
Mof_N 	N 	0.2009	0.5494	0.2203	-0.109
Mof_N 	N 	0.15618	0.45581	0.1734	-0.165
Mof_N 	N 	0.1776	0.3738	0.15141	-0.117
Mof_N 	N 	0.1905	0.4896	0.0983	-0.174
Mof_O 	O 	0.2431	0.5787	0.1557	-0.361
Mof_H 	H 	0.256	0.571	0.1737	0.256
Mof_O 	O 	0.2293	0.2486	0.1689	-1.393
Mof_H 	H 	0.221	0.236	0.188	0.532
Mof_H 	H 	0.2545	0.2933	0.1372	0.355
Mof_H 	H 	0.2399	0.2655	0.1693	1.128
Mof_C 	C 	0.2094	0.5877	0.1316	0.098
Mof_H 	H 	0.2127	0.6118	0.1181	0.007
Mof_H 	H 	0.1861	0.5886	0.1466	0.017
Mof_O 	O 	0.2194	0.2534	0.118	-0.26
Mof_H 	H 	0.2306	0.2536	0.0962	0.099
Mof_C 	C 	0.9809	0.2823	0.9249	-0.038
Mof_C 	C 	0.9496	0.2209	0.8939	-0.031
Mof_C 	C 	0.8936	0.097	0.9532	-0.153
Mof_H 	H 	0.8774	0.1033	0.9734	0.075
Mof_C 	C 	0.9086	0.0595	0.9517	0.306
Mof_C 	C 	0.9327	0.0511	0.9226	-0.287
Mof_H 	H 	0.9432	0.0267	0.9206	0.162
Mof_C 	C 	0.9417	0.0788	0.8959	0.074
Mof_H 	H 	0.9589	0.0736	0.8763	0.008
Mof_C 	C 	0.9246	0.1147	0.8988	-0.047
Mof_H 	H 	0.9297	0.1329	0.88	0.042
Mof_C 	C 	0.8707	0.2706	0.9482	0.034
Mof_H 	H 	0.8972	0.2687	0.9457	0.03
Mof_C 	C 	0.8545	0.3044	0.9595	-0.039
Mof_C 	C 	0.8158	0.3077	0.9615	0.018
Mof_H 	H 	0.8048	0.3309	0.9688	0.024
Mof_C 	C 	0.794	0.2788	0.9533	-0.121
Mof_H 	H 	0.7675	0.281	0.955	0.078
Mof_C 	C 	0.8109	0.2443	0.942	0.079
Mof_H 	H 	0.7951	0.2239	0.9354	-0.004
Mof_C 	C 	0.8967	0.0298	0.9821	-0.807
Mof_H 	H 	0.8694	0.0251	0.9799	0.405
Mof_H 	H 	0.9016	0.0399	0.0075	-0.199
Mof_C 	C 	0.8692	0.3412	0.9789	-0.008
Mof_H 	H 	0.8524	0.3492	0.9996	0.059
Mof_H 	H 	0.8718	0.362	0.9607	0.009
Mof_N 	N 	0.9703	0.2994	0.9509	-0.108
Mof_N 	N 	0.9234	0.20581	0.90618	-0.165
Mof_N 	N 	0.90141	0.1238	0.9276	-0.119
Mof_N 	N 	0.8483	0.2396	0.9405	-0.173
Mof_O 	O 	0.9057	0.3287	0.9931	-0.355
Mof_H 	H 	0.9237	0.321	0.006	0.251
Mof_O 	O 	0.9189	0.9986	0.9793	-1.372
Mof_H 	H 	0.938	0.986	0.971	0.527
Mof_H 	H 	0.8872	0.0433	0.0045	0.345
Mof_H 	H 	0.9193	0.0155	0.9899	1.109
Mof_C 	C 	0.8816	0.3377	0.9594	0.095
Mof_H 	H 	0.8681	0.3618	0.9627	0.007
Mof_H 	H 	0.8966	0.3386	0.9361	0.017
Mof_O 	O 	0.868	0.0034	0.9694	-0.265
Mof_H 	H 	0.8462	0.0036	0.9806	0.102
Mof_C 	C 	0.4809	0.7823	0.4249	-0.041
Mof_C 	C 	0.4496	0.7209	0.3939	-0.034
Mof_C 	C 	0.3936	0.597	0.4532	-0.158
Mof_H 	H 	0.3774	0.6033	0.4734	0.076
Mof_C 	C 	0.4086	0.5595	0.4517	0.313
Mof_C 	C 	0.4327	0.5511	0.4226	-0.294
Mof_H 	H 	0.4432	0.5267	0.4206	0.165
Mof_C 	C 	0.4417	0.5788	0.3959	0.079
Mof_H 	H 	0.4589	0.5736	0.3763	0.005
Mof_C 	C 	0.4246	0.6147	0.3988	-0.049
Mof_H 	H 	0.4297	0.6329	0.38	0.043
Mof_C 	C 	0.3707	0.7706	0.4482	0.035
Mof_H 	H 	0.3972	0.7687	0.4457	0.03
Mof_C 	C 	0.3545	0.8044	0.4595	-0.041
Mof_C 	C 	0.3158	0.8077	0.4615	0.019
Mof_H 	H 	0.3048	0.8309	0.4688	0.024
Mof_C 	C 	0.294	0.7788	0.4533	-0.122
Mof_H 	H 	0.2675	0.781	0.455	0.078
Mof_C 	C 	0.3109	0.7443	0.442	0.079
Mof_H 	H 	0.2951	0.7239	0.4354	-0.005
Mof_C 	C 	0.3967	0.5298	0.4821	-0.826
Mof_H 	H 	0.3694	0.5251	0.4799	0.409
Mof_H 	H 	0.4016	0.5399	0.5075	-0.201
Mof_C 	C 	0.3692	0.8412	0.4789	-0.007
Mof_H 	H 	0.3524	0.8492	0.4996	0.058
Mof_H 	H 	0.3718	0.862	0.4607	0.008
Mof_N 	N 	0.4703	0.7994	0.4509	-0.109
Mof_N 	N 	0.4234	0.70581	0.40618	-0.165
Mof_N 	N 	0.40141	0.6238	0.4276	-0.117
Mof_N 	N 	0.3483	0.7396	0.4405	-0.174
Mof_O 	O 	0.4057	0.8287	0.4931	-0.361
Mof_H 	H 	0.4237	0.821	0.506	0.256
Mof_O 	O 	0.4189	0.4986	0.4793	-1.393
Mof_H 	H 	0.438	0.486	0.471	0.532
Mof_H 	H 	0.3872	0.5433	0.5045	0.355
Mof_H 	H 	0.4193	0.5155	0.4899	1.128
Mof_C 	C 	0.3816	0.8377	0.4594	0.097
Mof_H 	H 	0.3681	0.8618	0.4627	0.007
Mof_H 	H 	0.3966	0.8386	0.4361	0.017
Mof_O 	O 	0.368	0.5034	0.4694	-0.259
Mof_H 	H 	0.3462	0.5036	0.4806	0.099
Mof_C 	C 	0.5191	0.7177	0.4249	-0.041
Mof_C 	C 	0.5504	0.7791	0.3939	-0.034
Mof_C 	C 	0.6064	0.903	0.4532	-0.159
Mof_H 	H 	0.6226	0.8967	0.4734	0.076
Mof_C 	C 	0.5914	0.9405	0.4517	0.317
Mof_C 	C 	0.5673	0.9489	0.4226	-0.297
Mof_H 	H 	0.5568	0.9733	0.4206	0.167
Mof_C 	C 	0.5583	0.9212	0.3959	0.081
Mof_H 	H 	0.5411	0.9264	0.3763	0.005
Mof_C 	C 	0.5754	0.8853	0.3988	-0.05
Mof_H 	H 	0.5703	0.8671	0.38	0.043
Mof_C 	C 	0.6293	0.7294	0.4482	0.035
Mof_H 	H 	0.6028	0.7313	0.4457	0.03
Mof_C 	C 	0.6455	0.6956	0.4595	-0.041
Mof_C 	C 	0.6842	0.6923	0.4615	0.019
Mof_H 	H 	0.6952	0.6691	0.4688	0.024
Mof_C 	C 	0.706	0.7212	0.4533	-0.122
Mof_H 	H 	0.7325	0.719	0.455	0.078
Mof_C 	C 	0.6891	0.7557	0.442	0.079
Mof_H 	H 	0.7049	0.7761	0.4354	-0.005
Mof_C 	C 	0.6033	0.9702	0.4821	-0.834
Mof_H 	H 	0.6306	0.9749	0.4799	0.409
Mof_H 	H 	0.5984	0.9601	0.5075	-0.206
Mof_C 	C 	0.6308	0.6588	0.4789	-0.007
Mof_H 	H 	0.6476	0.6508	0.4996	0.058
Mof_H 	H 	0.6282	0.638	0.4607	0.008
Mof_N 	N 	0.5297	0.7006	0.4509	-0.109
Mof_N 	N 	0.5766	0.79419	0.40618	-0.165
Mof_N 	N 	0.59859	0.8762	0.4276	-0.117
Mof_N 	N 	0.6517	0.7604	0.4405	-0.174
Mof_O 	O 	0.5943	0.6713	0.4931	-0.361
Mof_H 	H 	0.5763	0.679	0.506	0.256
Mof_O 	O 	0.5811	0.0014	0.4793	-1.414
Mof_H 	H 	0.562	0.014	0.471	0.539
Mof_H 	H 	0.6128	0.9567	0.5045	0.361
Mof_H 	H 	0.5807	0.9845	0.4899	1.144
Mof_C 	C 	0.6184	0.6623	0.4594	0.097
Mof_H 	H 	0.6319	0.6382	0.4627	0.007
Mof_H 	H 	0.6034	0.6614	0.4361	0.017
Mof_O 	O 	0.632	0.9966	0.4694	-0.255
Mof_H 	H 	0.6538	0.9964	0.4806	0.099
Mof_C 	C 	0.0191	0.2177	0.9249	-0.041
Mof_C 	C 	0.0504	0.2791	0.8939	-0.033
Mof_C 	C 	0.1064	0.403	0.9532	-0.155
Mof_H 	H 	0.1226	0.3967	0.9734	0.076
Mof_C 	C 	0.0914	0.4405	0.9517	0.309
Mof_C 	C 	0.0673	0.4489	0.9226	-0.291
Mof_H 	H 	0.0568	0.4733	0.9206	0.164
Mof_C 	C 	0.0583	0.4212	0.8959	0.077
Mof_H 	H 	0.0411	0.4264	0.8763	0.005
Mof_C 	C 	0.0754	0.3853	0.8988	-0.049
Mof_H 	H 	0.0703	0.3671	0.88	0.042
Mof_C 	C 	0.1293	0.2294	0.9482	0.034
Mof_H 	H 	0.1028	0.2313	0.9457	0.03
Mof_C 	C 	0.1455	0.1956	0.9595	-0.039
Mof_C 	C 	0.1842	0.1923	0.9615	0.018
Mof_H 	H 	0.1952	0.1691	0.9688	0.024
Mof_C 	C 	0.206	0.2212	0.9533	-0.121
Mof_H 	H 	0.2325	0.219	0.955	0.078
Mof_C 	C 	0.1891	0.2557	0.942	0.079
Mof_H 	H 	0.2049	0.2761	0.9354	-0.004
Mof_C 	C 	0.1033	0.4702	0.9821	-0.813
Mof_H 	H 	0.1306	0.4749	0.9799	0.406
Mof_H 	H 	0.0984	0.4601	0.0075	-0.204
Mof_C 	C 	0.1308	0.1588	0.9789	-0.008
Mof_H 	H 	0.1476	0.1508	0.9996	0.059
Mof_H 	H 	0.1282	0.138	0.9607	0.009
Mof_N 	N 	0.0297	0.2006	0.9509	-0.109
Mof_N 	N 	0.0766	0.29419	0.90618	-0.165
Mof_N 	N 	0.09859	0.3762	0.9276	-0.118
Mof_N 	N 	0.1517	0.2604	0.9405	-0.173
Mof_O 	O 	0.0943	0.1713	0.9931	-0.355
Mof_H 	H 	0.0763	0.179	0.006	0.251
Mof_O 	O 	0.0811	0.5014	0.9793	-1.392
Mof_H 	H 	0.062	0.514	0.971	0.532
Mof_H 	H 	0.1128	0.4567	0.0045	0.351
Mof_H 	H 	0.0807	0.4845	0.9899	1.124
Mof_C 	C 	0.1184	0.1623	0.9594	0.095
Mof_H 	H 	0.1319	0.1382	0.9627	0.007
Mof_H 	H 	0.1034	0.1614	0.9361	0.017
Mof_O 	O 	0.132	0.4966	0.9694	-0.26
Mof_H 	H 	0.1538	0.4964	0.9806	0.102
Mof_C 	C 	0.0191	0.7823	0.5751	-0.042
Mof_C 	C 	0.0504	0.7209	0.6061	-0.034
Mof_C 	C 	0.1064	0.597	0.5468	-0.158
Mof_H 	H 	0.1226	0.6033	0.5266	0.076
Mof_C 	C 	0.0914	0.5595	0.5483	0.313
Mof_C 	C 	0.0673	0.5511	0.5774	-0.294
Mof_H 	H 	0.0568	0.5267	0.5794	0.165
Mof_C 	C 	0.0583	0.5788	0.6041	0.079
Mof_H 	H 	0.0411	0.5736	0.6237	0.005
Mof_C 	C 	0.0754	0.6147	0.6012	-0.05
Mof_H 	H 	0.0703	0.6329	0.62	0.043
Mof_C 	C 	0.1293	0.7706	0.5518	0.035
Mof_H 	H 	0.1028	0.7687	0.5543	0.03
Mof_C 	C 	0.1455	0.8044	0.5405	-0.041
Mof_C 	C 	0.1842	0.8077	0.5385	0.019
Mof_H 	H 	0.1952	0.8309	0.5312	0.024
Mof_C 	C 	0.206	0.7788	0.5467	-0.122
Mof_H 	H 	0.2325	0.781	0.545	0.078
Mof_C 	C 	0.1891	0.7443	0.558	0.079
Mof_H 	H 	0.2049	0.7239	0.5646	-0.005
Mof_C 	C 	0.1033	0.5298	0.5179	-0.826
Mof_H 	H 	0.1306	0.5251	0.5201	0.409
Mof_H 	H 	0.0984	0.5399	0.4925	-0.201
Mof_C 	C 	0.1308	0.8412	0.5211	-0.007
Mof_H 	H 	0.1476	0.8492	0.5004	0.058
Mof_H 	H 	0.1282	0.862	0.5393	0.008
Mof_N 	N 	0.0297	0.7994	0.5491	-0.109
Mof_N 	N 	0.0766	0.70581	0.59382	-0.165
Mof_N 	N 	0.09859	0.6238	0.5724	-0.117
Mof_N 	N 	0.1517	0.7396	0.5595	-0.174
Mof_O 	O 	0.0943	0.8287	0.5069	-0.361
Mof_H 	H 	0.0763	0.821	0.494	0.256
Mof_O 	O 	0.0811	0.4986	0.5207	-1.392
Mof_H 	H 	0.062	0.486	0.529	0.531
Mof_H 	H 	0.1128	0.5433	0.4955	0.354
Mof_H 	H 	0.0807	0.5155	0.5101	1.127
Mof_C 	C 	0.1184	0.8377	0.5406	0.097
Mof_H 	H 	0.1319	0.8618	0.5373	0.007
Mof_H 	H 	0.1034	0.8386	0.5639	0.017
Mof_O 	O 	0.132	0.5034	0.5306	-0.26
Mof_H 	H 	0.1538	0.5036	0.5194	0.1
Mof_C 	C 	0.5191	0.2823	0.0751	-0.041
Mof_C 	C 	0.5504	0.2209	0.1061	-0.034
Mof_C 	C 	0.6064	0.097	0.0468	-0.158
Mof_H 	H 	0.6226	0.1033	0.0266	0.075
Mof_C 	C 	0.5914	0.0595	0.0483	0.314
Mof_C 	C 	0.5673	0.0511	0.0774	-0.294
Mof_H 	H 	0.5568	0.0267	0.0794	0.164
Mof_C 	C 	0.5583	0.0788	0.1041	0.079
Mof_H 	H 	0.5411	0.0736	0.1237	0.005
Mof_C 	C 	0.5754	0.1147	0.1012	-0.05
Mof_H 	H 	0.5703	0.1329	0.12	0.043
Mof_C 	C 	0.6293	0.2706	0.0518	0.035
Mof_H 	H 	0.6028	0.2687	0.0543	0.03
Mof_C 	C 	0.6455	0.3044	0.0405	-0.043
Mof_C 	C 	0.6842	0.3077	0.0385	0.02
Mof_H 	H 	0.6952	0.3309	0.0312	0.023
Mof_C 	C 	0.706	0.2788	0.0467	-0.123
Mof_H 	H 	0.7325	0.281	0.045	0.077
Mof_C 	C 	0.6891	0.2443	0.058	0.079
Mof_H 	H 	0.7049	0.2239	0.0646	-0.005
Mof_C 	C 	0.6033	0.0298	0.0179	-0.832
Mof_H 	H 	0.6306	0.0251	0.0201	0.411
Mof_H 	H 	0.5984	0.0399	0.9925	-0.194
Mof_C 	C 	0.6308	0.3412	0.0211	-0.006
Mof_H 	H 	0.6476	0.3492	0.0004	0.057
Mof_H 	H 	0.6282	0.362	0.0393	0.008
Mof_N 	N 	0.5297	0.2994	0.0491	-0.109
Mof_N 	N 	0.5766	0.20581	0.09382	-0.165
Mof_N 	N 	0.59859	0.1238	0.0724	-0.117
Mof_N 	N 	0.6517	0.2396	0.0595	-0.174
Mof_O 	O 	0.5943	0.3287	0.0069	-0.367
Mof_H 	H 	0.5763	0.321	0.994	0.262
Mof_O 	O 	0.5811	0.9986	0.0207	-1.372
Mof_H 	H 	0.562	0.986	0.029	0.524
Mof_H 	H 	0.6128	0.0433	0.9955	0.352
Mof_H 	H 	0.5807	0.0155	0.0101	1.114
Mof_C 	C 	0.6184	0.3377	0.0406	0.1
Mof_H 	H 	0.6319	0.3618	0.0373	0.006
Mof_H 	H 	0.6034	0.3386	0.0639	0.016
Mof_O 	O 	0.632	0.0034	0.0306	-0.263
Mof_H 	H 	0.6538	0.0036	0.0194	0.098
Mof_C 	C 	0.4809	0.2177	0.0751	-0.041
Mof_C 	C 	0.4496	0.2791	0.1061	-0.034
Mof_C 	C 	0.3936	0.403	0.0468	-0.16
Mof_H 	H 	0.3774	0.3967	0.0266	0.076
Mof_C 	C 	0.4086	0.4405	0.0483	0.318
Mof_C 	C 	0.4327	0.4489	0.0774	-0.297
Mof_H 	H 	0.4432	0.4733	0.0794	0.167
Mof_C 	C 	0.4417	0.4212	0.1041	0.081
Mof_H 	H 	0.4589	0.4264	0.1237	0.005
Mof_C 	C 	0.4246	0.3853	0.1012	-0.051
Mof_H 	H 	0.4297	0.3671	0.12	0.043
Mof_C 	C 	0.3707	0.2294	0.0518	0.035
Mof_H 	H 	0.3972	0.2313	0.0543	0.03
Mof_C 	C 	0.3545	0.1956	0.0405	-0.043
Mof_C 	C 	0.3158	0.1923	0.0385	0.02
Mof_H 	H 	0.3048	0.1691	0.0312	0.023
Mof_C 	C 	0.294	0.2212	0.0467	-0.123
Mof_H 	H 	0.2675	0.219	0.045	0.077
Mof_C 	C 	0.3109	0.2557	0.058	0.079
Mof_H 	H 	0.2951	0.2761	0.0646	-0.005
Mof_C 	C 	0.3967	0.4702	0.0179	-0.839
Mof_H 	H 	0.3694	0.4749	0.0201	0.412
Mof_H 	H 	0.4016	0.4601	0.9925	-0.199
Mof_C 	C 	0.3692	0.1588	0.0211	-0.006
Mof_H 	H 	0.3524	0.1508	0.0004	0.057
Mof_H 	H 	0.3718	0.138	0.0393	0.008
Mof_N 	N 	0.4703	0.2006	0.0491	-0.109
Mof_N 	N 	0.4234	0.29419	0.09382	-0.165
Mof_N 	N 	0.40141	0.3762	0.0724	-0.117
Mof_N 	N 	0.3483	0.2604	0.0595	-0.174
Mof_O 	O 	0.4057	0.1713	0.0069	-0.367
Mof_H 	H 	0.4237	0.179	0.994	0.262
Mof_O 	O 	0.4189	0.5014	0.0207	-1.394
Mof_H 	H 	0.438	0.514	0.029	0.531
Mof_H 	H 	0.3872	0.4567	0.9955	0.358
Mof_H 	H 	0.4193	0.4845	0.0101	1.13
Mof_C 	C 	0.3816	0.1623	0.0406	0.1
Mof_H 	H 	0.3681	0.1382	0.0373	0.006
Mof_H 	H 	0.3966	0.1614	0.0639	0.016
Mof_O 	O 	0.368	0.4966	0.0306	-0.259
Mof_H 	H 	0.3462	0.4964	0.0194	0.097
Mof_C 	C 	0.9809	0.7177	0.5751	-0.038
Mof_C 	C 	0.9496	0.7791	0.6061	-0.031
Mof_C 	C 	0.8936	0.903	0.5468	-0.159
Mof_H 	H 	0.8774	0.8967	0.5266	0.076
Mof_C 	C 	0.9086	0.9405	0.5483	0.317
Mof_C 	C 	0.9327	0.9489	0.5774	-0.296
Mof_H 	H 	0.9432	0.9733	0.5794	0.167
Mof_C 	C 	0.9417	0.9212	0.6041	0.08
Mof_H 	H 	0.9589	0.9264	0.6237	0.006
Mof_C 	C 	0.9246	0.8853	0.6012	-0.05
Mof_H 	H 	0.9297	0.8671	0.62	0.043
Mof_C 	C 	0.8707	0.7294	0.5518	0.035
Mof_H 	H 	0.8972	0.7313	0.5543	0.03
Mof_C 	C 	0.8545	0.6956	0.5405	-0.041
Mof_C 	C 	0.8158	0.6923	0.5385	0.019
Mof_H 	H 	0.8048	0.6691	0.5312	0.024
Mof_C 	C 	0.794	0.7212	0.5467	-0.122
Mof_H 	H 	0.7675	0.719	0.545	0.078
Mof_C 	C 	0.8109	0.7557	0.558	0.079
Mof_H 	H 	0.7951	0.7761	0.5646	-0.005
Mof_C 	C 	0.8967	0.9702	0.5179	-0.834
Mof_H 	H 	0.8694	0.9749	0.5201	0.409
Mof_H 	H 	0.9016	0.9601	0.4925	-0.206
Mof_C 	C 	0.8692	0.6588	0.5211	-0.007
Mof_H 	H 	0.8524	0.6508	0.5004	0.058
Mof_H 	H 	0.8718	0.638	0.5393	0.008
Mof_N 	N 	0.9703	0.7006	0.5491	-0.109
Mof_N 	N 	0.9234	0.79419	0.59382	-0.165
Mof_N 	N 	0.90141	0.8762	0.5724	-0.117
Mof_N 	N 	0.8483	0.7604	0.5595	-0.174
Mof_O 	O 	0.9057	0.6713	0.5069	-0.361
Mof_H 	H 	0.9237	0.679	0.494	0.257
Mof_O 	O 	0.9189	0.0014	0.5207	-1.415
Mof_H 	H 	0.938	0.014	0.529	0.54
Mof_H 	H 	0.8872	0.9567	0.4955	0.361
Mof_H 	H 	0.9193	0.9845	0.5101	1.145
Mof_C 	C 	0.8816	0.6623	0.5406	0.097
Mof_H 	H 	0.8681	0.6382	0.5373	0.007
Mof_H 	H 	0.8966	0.6614	0.5639	0.017
Mof_O 	O 	0.868	0.9966	0.5306	-0.254
Mof_H 	H 	0.8462	0.9964	0.5194	0.099
Mof_C 	C 	0.9249	0.9809	0.2823	-0.038
Mof_C 	C 	0.8939	0.9496	0.2209	-0.031
Mof_C 	C 	0.9532	0.8936	0.097	-0.153
Mof_H 	H 	0.9734	0.8774	0.1033	0.075
Mof_C 	C 	0.9517	0.9086	0.0595	0.306
Mof_C 	C 	0.9226	0.9327	0.0511	-0.287
Mof_H 	H 	0.9206	0.9432	0.0267	0.162
Mof_C 	C 	0.8959	0.9417	0.0788	0.074
Mof_H 	H 	0.8763	0.9589	0.0736	0.008
Mof_C 	C 	0.8988	0.9246	0.1147	-0.047
Mof_H 	H 	0.88	0.9297	0.1329	0.042
Mof_C 	C 	0.9482	0.8707	0.2706	0.034
Mof_H 	H 	0.9457	0.8972	0.2687	0.03
Mof_C 	C 	0.9595	0.8545	0.3044	-0.039
Mof_C 	C 	0.9615	0.8158	0.3077	0.018
Mof_H 	H 	0.9688	0.8048	0.3309	0.024
Mof_C 	C 	0.9533	0.794	0.2788	-0.121
Mof_H 	H 	0.955	0.7675	0.281	0.078
Mof_C 	C 	0.942	0.8109	0.2443	0.079
Mof_H 	H 	0.9354	0.7951	0.2239	-0.004
Mof_C 	C 	0.9821	0.8967	0.0298	-0.807
Mof_H 	H 	0.9799	0.8694	0.0251	0.405
Mof_H 	H 	0.0075	0.9016	0.0399	-0.199
Mof_C 	C 	0.9789	0.8692	0.3412	-0.008
Mof_H 	H 	0.9996	0.8524	0.3492	0.059
Mof_H 	H 	0.9607	0.8718	0.362	0.009
Mof_N 	N 	0.9509	0.9703	0.2994	-0.108
Mof_N 	N 	0.90618	0.9234	0.20581	-0.165
Mof_N 	N 	0.9276	0.90141	0.1238	-0.119
Mof_N 	N 	0.9405	0.8483	0.2396	-0.173
Mof_O 	O 	0.9931	0.9057	0.3287	-0.355
Mof_H 	H 	0.006	0.9237	0.321	0.251
Mof_O 	O 	0.9793	0.9189	0.9986	-1.372
Mof_H 	H 	0.971	0.938	0.986	0.527
Mof_H 	H 	0.0045	0.8872	0.0433	0.345
Mof_H 	H 	0.9899	0.9193	0.0155	1.109
Mof_C 	C 	0.9594	0.8816	0.3377	0.095
Mof_H 	H 	0.9627	0.8681	0.3618	0.007
Mof_H 	H 	0.9361	0.8966	0.3386	0.017
Mof_O 	O 	0.9694	0.868	0.0034	-0.265
Mof_H 	H 	0.9806	0.8462	0.0036	0.102
Mof_C 	C 	0.4249	0.4809	0.7823	-0.041
Mof_C 	C 	0.3939	0.4496	0.7209	-0.034
Mof_C 	C 	0.4532	0.3936	0.597	-0.158
Mof_H 	H 	0.4734	0.3774	0.6033	0.076
Mof_C 	C 	0.4517	0.4086	0.5595	0.313
Mof_C 	C 	0.4226	0.4327	0.5511	-0.294
Mof_H 	H 	0.4206	0.4432	0.5267	0.165
Mof_C 	C 	0.3959	0.4417	0.5788	0.079
Mof_H 	H 	0.3763	0.4589	0.5736	0.005
Mof_C 	C 	0.3988	0.4246	0.6147	-0.049
Mof_H 	H 	0.38	0.4297	0.6329	0.043
Mof_C 	C 	0.4482	0.3707	0.7706	0.035
Mof_H 	H 	0.4457	0.3972	0.7687	0.03
Mof_C 	C 	0.4595	0.3545	0.8044	-0.041
Mof_C 	C 	0.4615	0.3158	0.8077	0.019
Mof_H 	H 	0.4688	0.3048	0.8309	0.024
Mof_C 	C 	0.4533	0.294	0.7788	-0.122
Mof_H 	H 	0.455	0.2675	0.781	0.078
Mof_C 	C 	0.442	0.3109	0.7443	0.079
Mof_H 	H 	0.4354	0.2951	0.7239	-0.005
Mof_C 	C 	0.4821	0.3967	0.5298	-0.826
Mof_H 	H 	0.4799	0.3694	0.5251	0.409
Mof_H 	H 	0.5075	0.4016	0.5399	-0.201
Mof_C 	C 	0.4789	0.3692	0.8412	-0.007
Mof_H 	H 	0.4996	0.3524	0.8492	0.058
Mof_H 	H 	0.4607	0.3718	0.862	0.008
Mof_N 	N 	0.4509	0.4703	0.7994	-0.109
Mof_N 	N 	0.40618	0.4234	0.70581	-0.165
Mof_N 	N 	0.4276	0.40141	0.6238	-0.117
Mof_N 	N 	0.4405	0.3483	0.7396	-0.174
Mof_O 	O 	0.4931	0.4057	0.8287	-0.361
Mof_H 	H 	0.506	0.4237	0.821	0.256
Mof_O 	O 	0.4793	0.4189	0.4986	-1.393
Mof_H 	H 	0.471	0.438	0.486	0.532
Mof_H 	H 	0.5045	0.3872	0.5433	0.355
Mof_H 	H 	0.4899	0.4193	0.5155	1.128
Mof_C 	C 	0.4594	0.3816	0.8377	0.097
Mof_H 	H 	0.4627	0.3681	0.8618	0.007
Mof_H 	H 	0.4361	0.3966	0.8386	0.017
Mof_O 	O 	0.4694	0.368	0.5034	-0.259
Mof_H 	H 	0.4806	0.3462	0.5036	0.099
Mof_C 	C 	0.4249	0.5191	0.7177	-0.041
Mof_C 	C 	0.3939	0.5504	0.7791	-0.034
Mof_C 	C 	0.4532	0.6064	0.903	-0.159
Mof_H 	H 	0.4734	0.6226	0.8967	0.076
Mof_C 	C 	0.4517	0.5914	0.9405	0.317
Mof_C 	C 	0.4226	0.5673	0.9489	-0.297
Mof_H 	H 	0.4206	0.5568	0.9733	0.167
Mof_C 	C 	0.3959	0.5583	0.9212	0.081
Mof_H 	H 	0.3763	0.5411	0.9264	0.005
Mof_C 	C 	0.3988	0.5754	0.8853	-0.05
Mof_H 	H 	0.38	0.5703	0.8671	0.043
Mof_C 	C 	0.4482	0.6293	0.7294	0.035
Mof_H 	H 	0.4457	0.6028	0.7313	0.03
Mof_C 	C 	0.4595	0.6455	0.6956	-0.041
Mof_C 	C 	0.4615	0.6842	0.6923	0.019
Mof_H 	H 	0.4688	0.6952	0.6691	0.024
Mof_C 	C 	0.4533	0.706	0.7212	-0.122
Mof_H 	H 	0.455	0.7325	0.719	0.078
Mof_C 	C 	0.442	0.6891	0.7557	0.079
Mof_H 	H 	0.4354	0.7049	0.7761	-0.005
Mof_C 	C 	0.4821	0.6033	0.9702	-0.834
Mof_H 	H 	0.4799	0.6306	0.9749	0.409
Mof_H 	H 	0.5075	0.5984	0.9601	-0.206
Mof_C 	C 	0.4789	0.6308	0.6588	-0.007
Mof_H 	H 	0.4996	0.6476	0.6508	0.058
Mof_H 	H 	0.4607	0.6282	0.638	0.008
Mof_N 	N 	0.4509	0.5297	0.7006	-0.109
Mof_N 	N 	0.40618	0.5766	0.79419	-0.165
Mof_N 	N 	0.4276	0.59859	0.8762	-0.117
Mof_N 	N 	0.4405	0.6517	0.7604	-0.174
Mof_O 	O 	0.4931	0.5943	0.6713	-0.361
Mof_H 	H 	0.506	0.5763	0.679	0.256
Mof_O 	O 	0.4793	0.5811	0.0014	-1.414
Mof_H 	H 	0.471	0.562	0.014	0.539
Mof_H 	H 	0.5045	0.6128	0.9567	0.361
Mof_H 	H 	0.4899	0.5807	0.9845	1.144
Mof_C 	C 	0.4594	0.6184	0.6623	0.097
Mof_H 	H 	0.4627	0.6319	0.6382	0.007
Mof_H 	H 	0.4361	0.6034	0.6614	0.017
Mof_O 	O 	0.4694	0.632	0.9966	-0.255
Mof_H 	H 	0.4806	0.6538	0.9964	0.099
Mof_C 	C 	0.9249	0.0191	0.2177	-0.041
Mof_C 	C 	0.8939	0.0504	0.2791	-0.033
Mof_C 	C 	0.9532	0.1064	0.403	-0.155
Mof_H 	H 	0.9734	0.1226	0.3967	0.076
Mof_C 	C 	0.9517	0.0914	0.4405	0.309
Mof_C 	C 	0.9226	0.0673	0.4489	-0.291
Mof_H 	H 	0.9206	0.0568	0.4733	0.164
Mof_C 	C 	0.8959	0.0583	0.4212	0.077
Mof_H 	H 	0.8763	0.0411	0.4264	0.005
Mof_C 	C 	0.8988	0.0754	0.3853	-0.049
Mof_H 	H 	0.88	0.0703	0.3671	0.042
Mof_C 	C 	0.9482	0.1293	0.2294	0.034
Mof_H 	H 	0.9457	0.1028	0.2313	0.03
Mof_C 	C 	0.9595	0.1455	0.1956	-0.039
Mof_C 	C 	0.9615	0.1842	0.1923	0.018
Mof_H 	H 	0.9688	0.1952	0.1691	0.024
Mof_C 	C 	0.9533	0.206	0.2212	-0.121
Mof_H 	H 	0.955	0.2325	0.219	0.078
Mof_C 	C 	0.942	0.1891	0.2557	0.079
Mof_H 	H 	0.9354	0.2049	0.2761	-0.004
Mof_C 	C 	0.9821	0.1033	0.4702	-0.813
Mof_H 	H 	0.9799	0.1306	0.4749	0.406
Mof_H 	H 	0.0075	0.0984	0.4601	-0.204
Mof_C 	C 	0.9789	0.1308	0.1588	-0.008
Mof_H 	H 	0.9996	0.1476	0.1508	0.059
Mof_H 	H 	0.9607	0.1282	0.138	0.009
Mof_N 	N 	0.9509	0.0297	0.2006	-0.109
Mof_N 	N 	0.90618	0.0766	0.29419	-0.165
Mof_N 	N 	0.9276	0.09859	0.3762	-0.118
Mof_N 	N 	0.9405	0.1517	0.2604	-0.173
Mof_O 	O 	0.9931	0.0943	0.1713	-0.355
Mof_H 	H 	0.006	0.0763	0.179	0.251
Mof_O 	O 	0.9793	0.0811	0.5014	-1.392
Mof_H 	H 	0.971	0.062	0.514	0.532
Mof_H 	H 	0.0045	0.1128	0.4567	0.351
Mof_H 	H 	0.9899	0.0807	0.4845	1.124
Mof_C 	C 	0.9594	0.1184	0.1623	0.095
Mof_H 	H 	0.9627	0.1319	0.1382	0.007
Mof_H 	H 	0.9361	0.1034	0.1614	0.017
Mof_O 	O 	0.9694	0.132	0.4966	-0.26
Mof_H 	H 	0.9806	0.1538	0.4964	0.102
Mof_C 	C 	0.5751	0.0191	0.7823	-0.042
Mof_C 	C 	0.6061	0.0504	0.7209	-0.034
Mof_C 	C 	0.5468	0.1064	0.597	-0.158
Mof_H 	H 	0.5266	0.1226	0.6033	0.076
Mof_C 	C 	0.5483	0.0914	0.5595	0.313
Mof_C 	C 	0.5774	0.0673	0.5511	-0.294
Mof_H 	H 	0.5794	0.0568	0.5267	0.165
Mof_C 	C 	0.6041	0.0583	0.5788	0.079
Mof_H 	H 	0.6237	0.0411	0.5736	0.005
Mof_C 	C 	0.6012	0.0754	0.6147	-0.05
Mof_H 	H 	0.62	0.0703	0.6329	0.043
Mof_C 	C 	0.5518	0.1293	0.7706	0.035
Mof_H 	H 	0.5543	0.1028	0.7687	0.03
Mof_C 	C 	0.5405	0.1455	0.8044	-0.041
Mof_C 	C 	0.5385	0.1842	0.8077	0.019
Mof_H 	H 	0.5312	0.1952	0.8309	0.024
Mof_C 	C 	0.5467	0.206	0.7788	-0.122
Mof_H 	H 	0.545	0.2325	0.781	0.078
Mof_C 	C 	0.558	0.1891	0.7443	0.079
Mof_H 	H 	0.5646	0.2049	0.7239	-0.005
Mof_C 	C 	0.5179	0.1033	0.5298	-0.826
Mof_H 	H 	0.5201	0.1306	0.5251	0.409
Mof_H 	H 	0.4925	0.0984	0.5399	-0.201
Mof_C 	C 	0.5211	0.1308	0.8412	-0.007
Mof_H 	H 	0.5004	0.1476	0.8492	0.058
Mof_H 	H 	0.5393	0.1282	0.862	0.008
Mof_N 	N 	0.5491	0.0297	0.7994	-0.109
Mof_N 	N 	0.59382	0.0766	0.70581	-0.165
Mof_N 	N 	0.5724	0.09859	0.6238	-0.117
Mof_N 	N 	0.5595	0.1517	0.7396	-0.174
Mof_O 	O 	0.5069	0.0943	0.8287	-0.361
Mof_H 	H 	0.494	0.0763	0.821	0.256
Mof_O 	O 	0.5207	0.0811	0.4986	-1.392
Mof_H 	H 	0.529	0.062	0.486	0.531
Mof_H 	H 	0.4955	0.1128	0.5433	0.354
Mof_H 	H 	0.5101	0.0807	0.5155	1.127
Mof_C 	C 	0.5406	0.1184	0.8377	0.097
Mof_H 	H 	0.5373	0.1319	0.8618	0.007
Mof_H 	H 	0.5639	0.1034	0.8386	0.017
Mof_O 	O 	0.5306	0.132	0.5034	-0.26
Mof_H 	H 	0.5194	0.1538	0.5036	0.1
Mof_C 	C 	0.0751	0.5191	0.2823	-0.041
Mof_C 	C 	0.1061	0.5504	0.2209	-0.034
Mof_C 	C 	0.0468	0.6064	0.097	-0.158
Mof_H 	H 	0.0266	0.6226	0.1033	0.075
Mof_C 	C 	0.0483	0.5914	0.0595	0.314
Mof_C 	C 	0.0774	0.5673	0.0511	-0.294
Mof_H 	H 	0.0794	0.5568	0.0267	0.164
Mof_C 	C 	0.1041	0.5583	0.0788	0.079
Mof_H 	H 	0.1237	0.5411	0.0736	0.005
Mof_C 	C 	0.1012	0.5754	0.1147	-0.05
Mof_H 	H 	0.12	0.5703	0.1329	0.043
Mof_C 	C 	0.0518	0.6293	0.2706	0.035
Mof_H 	H 	0.0543	0.6028	0.2687	0.03
Mof_C 	C 	0.0405	0.6455	0.3044	-0.043
Mof_C 	C 	0.0385	0.6842	0.3077	0.02
Mof_H 	H 	0.0312	0.6952	0.3309	0.023
Mof_C 	C 	0.0467	0.706	0.2788	-0.123
Mof_H 	H 	0.045	0.7325	0.281	0.077
Mof_C 	C 	0.058	0.6891	0.2443	0.079
Mof_H 	H 	0.0646	0.7049	0.2239	-0.005
Mof_C 	C 	0.0179	0.6033	0.0298	-0.832
Mof_H 	H 	0.0201	0.6306	0.0251	0.411
Mof_H 	H 	0.9925	0.5984	0.0399	-0.194
Mof_C 	C 	0.0211	0.6308	0.3412	-0.006
Mof_H 	H 	0.0004	0.6476	0.3492	0.057
Mof_H 	H 	0.0393	0.6282	0.362	0.008
Mof_N 	N 	0.0491	0.5297	0.2994	-0.109
Mof_N 	N 	0.09382	0.5766	0.20581	-0.165
Mof_N 	N 	0.0724	0.59859	0.1238	-0.117
Mof_N 	N 	0.0595	0.6517	0.2396	-0.174
Mof_O 	O 	0.0069	0.5943	0.3287	-0.367
Mof_H 	H 	0.994	0.5763	0.321	0.262
Mof_O 	O 	0.0207	0.5811	0.9986	-1.372
Mof_H 	H 	0.029	0.562	0.986	0.524
Mof_H 	H 	0.9955	0.6128	0.0433	0.352
Mof_H 	H 	0.0101	0.5807	0.0155	1.114
Mof_C 	C 	0.0406	0.6184	0.3377	0.1
Mof_H 	H 	0.0373	0.6319	0.3618	0.006
Mof_H 	H 	0.0639	0.6034	0.3386	0.016
Mof_O 	O 	0.0306	0.632	0.0034	-0.263
Mof_H 	H 	0.0194	0.6538	0.0036	0.098
Mof_C 	C 	0.0751	0.4809	0.2177	-0.041
Mof_C 	C 	0.1061	0.4496	0.2791	-0.034
Mof_C 	C 	0.0468	0.3936	0.403	-0.16
Mof_H 	H 	0.0266	0.3774	0.3967	0.076
Mof_C 	C 	0.0483	0.4086	0.4405	0.318
Mof_C 	C 	0.0774	0.4327	0.4489	-0.297
Mof_H 	H 	0.0794	0.4432	0.4733	0.167
Mof_C 	C 	0.1041	0.4417	0.4212	0.081
Mof_H 	H 	0.1237	0.4589	0.4264	0.005
Mof_C 	C 	0.1012	0.4246	0.3853	-0.051
Mof_H 	H 	0.12	0.4297	0.3671	0.043
Mof_C 	C 	0.0518	0.3707	0.2294	0.035
Mof_H 	H 	0.0543	0.3972	0.2313	0.03
Mof_C 	C 	0.0405	0.3545	0.1956	-0.043
Mof_C 	C 	0.0385	0.3158	0.1923	0.02
Mof_H 	H 	0.0312	0.3048	0.1691	0.023
Mof_C 	C 	0.0467	0.294	0.2212	-0.123
Mof_H 	H 	0.045	0.2675	0.219	0.077
Mof_C 	C 	0.058	0.3109	0.2557	0.079
Mof_H 	H 	0.0646	0.2951	0.2761	-0.005
Mof_C 	C 	0.0179	0.3967	0.4702	-0.839
Mof_H 	H 	0.0201	0.3694	0.4749	0.412
Mof_H 	H 	0.9925	0.4016	0.4601	-0.199
Mof_C 	C 	0.0211	0.3692	0.1588	-0.006
Mof_H 	H 	0.0004	0.3524	0.1508	0.057
Mof_H 	H 	0.0393	0.3718	0.138	0.008
Mof_N 	N 	0.0491	0.4703	0.2006	-0.109
Mof_N 	N 	0.09382	0.4234	0.29419	-0.165
Mof_N 	N 	0.0724	0.40141	0.3762	-0.117
Mof_N 	N 	0.0595	0.3483	0.2604	-0.174
Mof_O 	O 	0.0069	0.4057	0.1713	-0.367
Mof_H 	H 	0.994	0.4237	0.179	0.262
Mof_O 	O 	0.0207	0.4189	0.5014	-1.394
Mof_H 	H 	0.029	0.438	0.514	0.531
Mof_H 	H 	0.9955	0.3872	0.4567	0.358
Mof_H 	H 	0.0101	0.4193	0.4845	1.13
Mof_C 	C 	0.0406	0.3816	0.1623	0.1
Mof_H 	H 	0.0373	0.3681	0.1382	0.006
Mof_H 	H 	0.0639	0.3966	0.1614	0.016
Mof_O 	O 	0.0306	0.368	0.4966	-0.259
Mof_H 	H 	0.0194	0.3462	0.4964	0.097
Mof_C 	C 	0.5751	0.9809	0.7177	-0.038
Mof_C 	C 	0.6061	0.9496	0.7791	-0.031
Mof_C 	C 	0.5468	0.8936	0.903	-0.159
Mof_H 	H 	0.5266	0.8774	0.8967	0.076
Mof_C 	C 	0.5483	0.9086	0.9405	0.317
Mof_C 	C 	0.5774	0.9327	0.9489	-0.296
Mof_H 	H 	0.5794	0.9432	0.9733	0.167
Mof_C 	C 	0.6041	0.9417	0.9212	0.08
Mof_H 	H 	0.6237	0.9589	0.9264	0.006
Mof_C 	C 	0.6012	0.9246	0.8853	-0.05
Mof_H 	H 	0.62	0.9297	0.8671	0.043
Mof_C 	C 	0.5518	0.8707	0.7294	0.035
Mof_H 	H 	0.5543	0.8972	0.7313	0.03
Mof_C 	C 	0.5405	0.8545	0.6956	-0.041
Mof_C 	C 	0.5385	0.8158	0.6923	0.019
Mof_H 	H 	0.5312	0.8048	0.6691	0.024
Mof_C 	C 	0.5467	0.794	0.7212	-0.122
Mof_H 	H 	0.545	0.7675	0.719	0.078
Mof_C 	C 	0.558	0.8109	0.7557	0.079
Mof_H 	H 	0.5646	0.7951	0.7761	-0.005
Mof_C 	C 	0.5179	0.8967	0.9702	-0.834
Mof_H 	H 	0.5201	0.8694	0.9749	0.409
Mof_H 	H 	0.4925	0.9016	0.9601	-0.206
Mof_C 	C 	0.5211	0.8692	0.6588	-0.007
Mof_H 	H 	0.5004	0.8524	0.6508	0.058
Mof_H 	H 	0.5393	0.8718	0.638	0.008
Mof_N 	N 	0.5491	0.9703	0.7006	-0.109
Mof_N 	N 	0.59382	0.9234	0.79419	-0.165
Mof_N 	N 	0.5724	0.90141	0.8762	-0.117
Mof_N 	N 	0.5595	0.8483	0.7604	-0.174
Mof_O 	O 	0.5069	0.9057	0.6713	-0.361
Mof_H 	H 	0.494	0.9237	0.679	0.257
Mof_O 	O 	0.5207	0.9189	0.0014	-1.415
Mof_H 	H 	0.529	0.938	0.014	0.54
Mof_H 	H 	0.4955	0.8872	0.9567	0.361
Mof_H 	H 	0.5101	0.9193	0.9845	1.145
Mof_C 	C 	0.5406	0.8816	0.6623	0.097
Mof_H 	H 	0.5373	0.8681	0.6382	0.007
Mof_H 	H 	0.5639	0.8966	0.6614	0.017
Mof_O 	O 	0.5306	0.868	0.9966	-0.254
Mof_H 	H 	0.5194	0.8462	0.9964	0.099
Mof_C 	C 	0.2823	0.9249	0.9809	-0.038
Mof_C 	C 	0.2209	0.8939	0.9496	-0.031
Mof_C 	C 	0.097	0.9532	0.8936	-0.153
Mof_H 	H 	0.1033	0.9734	0.8774	0.075
Mof_C 	C 	0.0595	0.9517	0.9086	0.306
Mof_C 	C 	0.0511	0.9226	0.9327	-0.287
Mof_H 	H 	0.0267	0.9206	0.9432	0.162
Mof_C 	C 	0.0788	0.8959	0.9417	0.074
Mof_H 	H 	0.0736	0.8763	0.9589	0.008
Mof_C 	C 	0.1147	0.8988	0.9246	-0.047
Mof_H 	H 	0.1329	0.88	0.9297	0.042
Mof_C 	C 	0.2706	0.9482	0.8707	0.034
Mof_H 	H 	0.2687	0.9457	0.8972	0.03
Mof_C 	C 	0.3044	0.9595	0.8545	-0.039
Mof_C 	C 	0.3077	0.9615	0.8158	0.018
Mof_H 	H 	0.3309	0.9688	0.8048	0.024
Mof_C 	C 	0.2788	0.9533	0.794	-0.121
Mof_H 	H 	0.281	0.955	0.7675	0.078
Mof_C 	C 	0.2443	0.942	0.8109	0.079
Mof_H 	H 	0.2239	0.9354	0.7951	-0.004
Mof_C 	C 	0.0298	0.9821	0.8967	-0.807
Mof_H 	H 	0.0251	0.9799	0.8694	0.405
Mof_H 	H 	0.0399	0.0075	0.9016	-0.199
Mof_C 	C 	0.3412	0.9789	0.8692	-0.008
Mof_H 	H 	0.3492	0.9996	0.8524	0.059
Mof_H 	H 	0.362	0.9607	0.8718	0.009
Mof_N 	N 	0.2994	0.9509	0.9703	-0.108
Mof_N 	N 	0.20581	0.90618	0.9234	-0.165
Mof_N 	N 	0.1238	0.9276	0.90141	-0.119
Mof_N 	N 	0.2396	0.9405	0.8483	-0.173
Mof_O 	O 	0.3287	0.9931	0.9057	-0.355
Mof_H 	H 	0.321	0.006	0.9237	0.251
Mof_O 	O 	0.9986	0.9793	0.9189	-1.372
Mof_H 	H 	0.986	0.971	0.938	0.527
Mof_H 	H 	0.0433	0.0045	0.8872	0.345
Mof_H 	H 	0.0155	0.9899	0.9193	1.109
Mof_C 	C 	0.3377	0.9594	0.8816	0.095
Mof_H 	H 	0.3618	0.9627	0.8681	0.007
Mof_H 	H 	0.3386	0.9361	0.8966	0.017
Mof_O 	O 	0.0034	0.9694	0.868	-0.265
Mof_H 	H 	0.0036	0.9806	0.8462	0.102
Mof_C 	C 	0.7823	0.4249	0.4809	-0.041
Mof_C 	C 	0.7209	0.3939	0.4496	-0.034
Mof_C 	C 	0.597	0.4532	0.3936	-0.158
Mof_H 	H 	0.6033	0.4734	0.3774	0.076
Mof_C 	C 	0.5595	0.4517	0.4086	0.313
Mof_C 	C 	0.5511	0.4226	0.4327	-0.294
Mof_H 	H 	0.5267	0.4206	0.4432	0.165
Mof_C 	C 	0.5788	0.3959	0.4417	0.079
Mof_H 	H 	0.5736	0.3763	0.4589	0.005
Mof_C 	C 	0.6147	0.3988	0.4246	-0.049
Mof_H 	H 	0.6329	0.38	0.4297	0.043
Mof_C 	C 	0.7706	0.4482	0.3707	0.035
Mof_H 	H 	0.7687	0.4457	0.3972	0.03
Mof_C 	C 	0.8044	0.4595	0.3545	-0.041
Mof_C 	C 	0.8077	0.4615	0.3158	0.019
Mof_H 	H 	0.8309	0.4688	0.3048	0.024
Mof_C 	C 	0.7788	0.4533	0.294	-0.122
Mof_H 	H 	0.781	0.455	0.2675	0.078
Mof_C 	C 	0.7443	0.442	0.3109	0.079
Mof_H 	H 	0.7239	0.4354	0.2951	-0.005
Mof_C 	C 	0.5298	0.4821	0.3967	-0.826
Mof_H 	H 	0.5251	0.4799	0.3694	0.409
Mof_H 	H 	0.5399	0.5075	0.4016	-0.201
Mof_C 	C 	0.8412	0.4789	0.3692	-0.007
Mof_H 	H 	0.8492	0.4996	0.3524	0.058
Mof_H 	H 	0.862	0.4607	0.3718	0.008
Mof_N 	N 	0.7994	0.4509	0.4703	-0.109
Mof_N 	N 	0.70581	0.40618	0.4234	-0.165
Mof_N 	N 	0.6238	0.4276	0.40141	-0.117
Mof_N 	N 	0.7396	0.4405	0.3483	-0.174
Mof_O 	O 	0.8287	0.4931	0.4057	-0.361
Mof_H 	H 	0.821	0.506	0.4237	0.256
Mof_O 	O 	0.4986	0.4793	0.4189	-1.393
Mof_H 	H 	0.486	0.471	0.438	0.532
Mof_H 	H 	0.5433	0.5045	0.3872	0.355
Mof_H 	H 	0.5155	0.4899	0.4193	1.128
Mof_C 	C 	0.8377	0.4594	0.3816	0.097
Mof_H 	H 	0.8618	0.4627	0.3681	0.007
Mof_H 	H 	0.8386	0.4361	0.3966	0.017
Mof_O 	O 	0.5034	0.4694	0.368	-0.259
Mof_H 	H 	0.5036	0.4806	0.3462	0.099
Mof_C 	C 	0.7177	0.4249	0.5191	-0.041
Mof_C 	C 	0.7791	0.3939	0.5504	-0.034
Mof_C 	C 	0.903	0.4532	0.6064	-0.159
Mof_H 	H 	0.8967	0.4734	0.6226	0.076
Mof_C 	C 	0.9405	0.4517	0.5914	0.317
Mof_C 	C 	0.9489	0.4226	0.5673	-0.297
Mof_H 	H 	0.9733	0.4206	0.5568	0.167
Mof_C 	C 	0.9212	0.3959	0.5583	0.081
Mof_H 	H 	0.9264	0.3763	0.5411	0.005
Mof_C 	C 	0.8853	0.3988	0.5754	-0.05
Mof_H 	H 	0.8671	0.38	0.5703	0.043
Mof_C 	C 	0.7294	0.4482	0.6293	0.035
Mof_H 	H 	0.7313	0.4457	0.6028	0.03
Mof_C 	C 	0.6956	0.4595	0.6455	-0.041
Mof_C 	C 	0.6923	0.4615	0.6842	0.019
Mof_H 	H 	0.6691	0.4688	0.6952	0.024
Mof_C 	C 	0.7212	0.4533	0.706	-0.122
Mof_H 	H 	0.719	0.455	0.7325	0.078
Mof_C 	C 	0.7557	0.442	0.6891	0.079
Mof_H 	H 	0.7761	0.4354	0.7049	-0.005
Mof_C 	C 	0.9702	0.4821	0.6033	-0.834
Mof_H 	H 	0.9749	0.4799	0.6306	0.409
Mof_H 	H 	0.9601	0.5075	0.5984	-0.206
Mof_C 	C 	0.6588	0.4789	0.6308	-0.007
Mof_H 	H 	0.6508	0.4996	0.6476	0.058
Mof_H 	H 	0.638	0.4607	0.6282	0.008
Mof_N 	N 	0.7006	0.4509	0.5297	-0.109
Mof_N 	N 	0.79419	0.40618	0.5766	-0.165
Mof_N 	N 	0.8762	0.4276	0.59859	-0.117
Mof_N 	N 	0.7604	0.4405	0.6517	-0.174
Mof_O 	O 	0.6713	0.4931	0.5943	-0.361
Mof_H 	H 	0.679	0.506	0.5763	0.256
Mof_O 	O 	0.0014	0.4793	0.5811	-1.414
Mof_H 	H 	0.014	0.471	0.562	0.539
Mof_H 	H 	0.9567	0.5045	0.6128	0.361
Mof_H 	H 	0.9845	0.4899	0.5807	1.144
Mof_C 	C 	0.6623	0.4594	0.6184	0.097
Mof_H 	H 	0.6382	0.4627	0.6319	0.007
Mof_H 	H 	0.6614	0.4361	0.6034	0.017
Mof_O 	O 	0.9966	0.4694	0.632	-0.255
Mof_H 	H 	0.9964	0.4806	0.6538	0.099
Mof_C 	C 	0.2177	0.9249	0.0191	-0.041
Mof_C 	C 	0.2791	0.8939	0.0504	-0.033
Mof_C 	C 	0.403	0.9532	0.1064	-0.155
Mof_H 	H 	0.3967	0.9734	0.1226	0.076
Mof_C 	C 	0.4405	0.9517	0.0914	0.309
Mof_C 	C 	0.4489	0.9226	0.0673	-0.291
Mof_H 	H 	0.4733	0.9206	0.0568	0.164
Mof_C 	C 	0.4212	0.8959	0.0583	0.077
Mof_H 	H 	0.4264	0.8763	0.0411	0.005
Mof_C 	C 	0.3853	0.8988	0.0754	-0.049
Mof_H 	H 	0.3671	0.88	0.0703	0.042
Mof_C 	C 	0.2294	0.9482	0.1293	0.034
Mof_H 	H 	0.2313	0.9457	0.1028	0.03
Mof_C 	C 	0.1956	0.9595	0.1455	-0.039
Mof_C 	C 	0.1923	0.9615	0.1842	0.018
Mof_H 	H 	0.1691	0.9688	0.1952	0.024
Mof_C 	C 	0.2212	0.9533	0.206	-0.121
Mof_H 	H 	0.219	0.955	0.2325	0.078
Mof_C 	C 	0.2557	0.942	0.1891	0.079
Mof_H 	H 	0.2761	0.9354	0.2049	-0.004
Mof_C 	C 	0.4702	0.9821	0.1033	-0.813
Mof_H 	H 	0.4749	0.9799	0.1306	0.406
Mof_H 	H 	0.4601	0.0075	0.0984	-0.204
Mof_C 	C 	0.1588	0.9789	0.1308	-0.008
Mof_H 	H 	0.1508	0.9996	0.1476	0.059
Mof_H 	H 	0.138	0.9607	0.1282	0.009
Mof_N 	N 	0.2006	0.9509	0.0297	-0.109
Mof_N 	N 	0.29419	0.90618	0.0766	-0.165
Mof_N 	N 	0.3762	0.9276	0.09859	-0.118
Mof_N 	N 	0.2604	0.9405	0.1517	-0.173
Mof_O 	O 	0.1713	0.9931	0.0943	-0.355
Mof_H 	H 	0.179	0.006	0.0763	0.251
Mof_O 	O 	0.5014	0.9793	0.0811	-1.392
Mof_H 	H 	0.514	0.971	0.062	0.532
Mof_H 	H 	0.4567	0.0045	0.1128	0.351
Mof_H 	H 	0.4845	0.9899	0.0807	1.124
Mof_C 	C 	0.1623	0.9594	0.1184	0.095
Mof_H 	H 	0.1382	0.9627	0.1319	0.007
Mof_H 	H 	0.1614	0.9361	0.1034	0.017
Mof_O 	O 	0.4966	0.9694	0.132	-0.26
Mof_H 	H 	0.4964	0.9806	0.1538	0.102
Mof_C 	C 	0.7823	0.5751	0.0191	-0.042
Mof_C 	C 	0.7209	0.6061	0.0504	-0.034
Mof_C 	C 	0.597	0.5468	0.1064	-0.158
Mof_H 	H 	0.6033	0.5266	0.1226	0.076
Mof_C 	C 	0.5595	0.5483	0.0914	0.313
Mof_C 	C 	0.5511	0.5774	0.0673	-0.294
Mof_H 	H 	0.5267	0.5794	0.0568	0.165
Mof_C 	C 	0.5788	0.6041	0.0583	0.079
Mof_H 	H 	0.5736	0.6237	0.0411	0.005
Mof_C 	C 	0.6147	0.6012	0.0754	-0.05
Mof_H 	H 	0.6329	0.62	0.0703	0.043
Mof_C 	C 	0.7706	0.5518	0.1293	0.035
Mof_H 	H 	0.7687	0.5543	0.1028	0.03
Mof_C 	C 	0.8044	0.5405	0.1455	-0.041
Mof_C 	C 	0.8077	0.5385	0.1842	0.019
Mof_H 	H 	0.8309	0.5312	0.1952	0.024
Mof_C 	C 	0.7788	0.5467	0.206	-0.122
Mof_H 	H 	0.781	0.545	0.2325	0.078
Mof_C 	C 	0.7443	0.558	0.1891	0.079
Mof_H 	H 	0.7239	0.5646	0.2049	-0.005
Mof_C 	C 	0.5298	0.5179	0.1033	-0.826
Mof_H 	H 	0.5251	0.5201	0.1306	0.409
Mof_H 	H 	0.5399	0.4925	0.0984	-0.201
Mof_C 	C 	0.8412	0.5211	0.1308	-0.007
Mof_H 	H 	0.8492	0.5004	0.1476	0.058
Mof_H 	H 	0.862	0.5393	0.1282	0.008
Mof_N 	N 	0.7994	0.5491	0.0297	-0.109
Mof_N 	N 	0.70581	0.59382	0.0766	-0.165
Mof_N 	N 	0.6238	0.5724	0.09859	-0.117
Mof_N 	N 	0.7396	0.5595	0.1517	-0.174
Mof_O 	O 	0.8287	0.5069	0.0943	-0.361
Mof_H 	H 	0.821	0.494	0.0763	0.256
Mof_O 	O 	0.4986	0.5207	0.0811	-1.392
Mof_H 	H 	0.486	0.529	0.062	0.531
Mof_H 	H 	0.5433	0.4955	0.1128	0.354
Mof_H 	H 	0.5155	0.5101	0.0807	1.127
Mof_C 	C 	0.8377	0.5406	0.1184	0.097
Mof_H 	H 	0.8618	0.5373	0.1319	0.007
Mof_H 	H 	0.8386	0.5639	0.1034	0.017
Mof_O 	O 	0.5034	0.5306	0.132	-0.26
Mof_H 	H 	0.5036	0.5194	0.1538	0.1
Mof_C 	C 	0.2823	0.0751	0.5191	-0.041
Mof_C 	C 	0.2209	0.1061	0.5504	-0.034
Mof_C 	C 	0.097	0.0468	0.6064	-0.158
Mof_H 	H 	0.1033	0.0266	0.6226	0.075
Mof_C 	C 	0.0595	0.0483	0.5914	0.314
Mof_C 	C 	0.0511	0.0774	0.5673	-0.294
Mof_H 	H 	0.0267	0.0794	0.5568	0.164
Mof_C 	C 	0.0788	0.1041	0.5583	0.079
Mof_H 	H 	0.0736	0.1237	0.5411	0.005
Mof_C 	C 	0.1147	0.1012	0.5754	-0.05
Mof_H 	H 	0.1329	0.12	0.5703	0.043
Mof_C 	C 	0.2706	0.0518	0.6293	0.035
Mof_H 	H 	0.2687	0.0543	0.6028	0.03
Mof_C 	C 	0.3044	0.0405	0.6455	-0.043
Mof_C 	C 	0.3077	0.0385	0.6842	0.02
Mof_H 	H 	0.3309	0.0312	0.6952	0.023
Mof_C 	C 	0.2788	0.0467	0.706	-0.123
Mof_H 	H 	0.281	0.045	0.7325	0.077
Mof_C 	C 	0.2443	0.058	0.6891	0.079
Mof_H 	H 	0.2239	0.0646	0.7049	-0.005
Mof_C 	C 	0.0298	0.0179	0.6033	-0.832
Mof_H 	H 	0.0251	0.0201	0.6306	0.411
Mof_H 	H 	0.0399	0.9925	0.5984	-0.194
Mof_C 	C 	0.3412	0.0211	0.6308	-0.006
Mof_H 	H 	0.3492	0.0004	0.6476	0.057
Mof_H 	H 	0.362	0.0393	0.6282	0.008
Mof_N 	N 	0.2994	0.0491	0.5297	-0.109
Mof_N 	N 	0.20581	0.09382	0.5766	-0.165
Mof_N 	N 	0.1238	0.0724	0.59859	-0.117
Mof_N 	N 	0.2396	0.0595	0.6517	-0.174
Mof_O 	O 	0.3287	0.0069	0.5943	-0.367
Mof_H 	H 	0.321	0.994	0.5763	0.262
Mof_O 	O 	0.9986	0.0207	0.5811	-1.372
Mof_H 	H 	0.986	0.029	0.562	0.524
Mof_H 	H 	0.0433	0.9955	0.6128	0.352
Mof_H 	H 	0.0155	0.0101	0.5807	1.114
Mof_C 	C 	0.3377	0.0406	0.6184	0.1
Mof_H 	H 	0.3618	0.0373	0.6319	0.006
Mof_H 	H 	0.3386	0.0639	0.6034	0.016
Mof_O 	O 	0.0034	0.0306	0.632	-0.263
Mof_H 	H 	0.0036	0.0194	0.6538	0.098
Mof_C 	C 	0.2177	0.0751	0.4809	-0.041
Mof_C 	C 	0.2791	0.1061	0.4496	-0.034
Mof_C 	C 	0.403	0.0468	0.3936	-0.16
Mof_H 	H 	0.3967	0.0266	0.3774	0.076
Mof_C 	C 	0.4405	0.0483	0.4086	0.318
Mof_C 	C 	0.4489	0.0774	0.4327	-0.297
Mof_H 	H 	0.4733	0.0794	0.4432	0.167
Mof_C 	C 	0.4212	0.1041	0.4417	0.081
Mof_H 	H 	0.4264	0.1237	0.4589	0.005
Mof_C 	C 	0.3853	0.1012	0.4246	-0.051
Mof_H 	H 	0.3671	0.12	0.4297	0.043
Mof_C 	C 	0.2294	0.0518	0.3707	0.035
Mof_H 	H 	0.2313	0.0543	0.3972	0.03
Mof_C 	C 	0.1956	0.0405	0.3545	-0.043
Mof_C 	C 	0.1923	0.0385	0.3158	0.02
Mof_H 	H 	0.1691	0.0312	0.3048	0.023
Mof_C 	C 	0.2212	0.0467	0.294	-0.123
Mof_H 	H 	0.219	0.045	0.2675	0.077
Mof_C 	C 	0.2557	0.058	0.3109	0.079
Mof_H 	H 	0.2761	0.0646	0.2951	-0.005
Mof_C 	C 	0.4702	0.0179	0.3967	-0.839
Mof_H 	H 	0.4749	0.0201	0.3694	0.412
Mof_H 	H 	0.4601	0.9925	0.4016	-0.199
Mof_C 	C 	0.1588	0.0211	0.3692	-0.006
Mof_H 	H 	0.1508	0.0004	0.3524	0.057
Mof_H 	H 	0.138	0.0393	0.3718	0.008
Mof_N 	N 	0.2006	0.0491	0.4703	-0.109
Mof_N 	N 	0.29419	0.09382	0.4234	-0.165
Mof_N 	N 	0.3762	0.0724	0.40141	-0.117
Mof_N 	N 	0.2604	0.0595	0.3483	-0.174
Mof_O 	O 	0.1713	0.0069	0.4057	-0.367
Mof_H 	H 	0.179	0.994	0.4237	0.262
Mof_O 	O 	0.5014	0.0207	0.4189	-1.394
Mof_H 	H 	0.514	0.029	0.438	0.531
Mof_H 	H 	0.4567	0.9955	0.3872	0.358
Mof_H 	H 	0.4845	0.0101	0.4193	1.13
Mof_C 	C 	0.1623	0.0406	0.3816	0.1
Mof_H 	H 	0.1382	0.0373	0.3681	0.006
Mof_H 	H 	0.1614	0.0639	0.3966	0.016
Mof_O 	O 	0.4966	0.0306	0.368	-0.259
Mof_H 	H 	0.4964	0.0194	0.3462	0.097
Mof_C 	C 	0.7177	0.5751	0.9809	-0.038
Mof_C 	C 	0.7791	0.6061	0.9496	-0.031
Mof_C 	C 	0.903	0.5468	0.8936	-0.159
Mof_H 	H 	0.8967	0.5266	0.8774	0.076
Mof_C 	C 	0.9405	0.5483	0.9086	0.317
Mof_C 	C 	0.9489	0.5774	0.9327	-0.296
Mof_H 	H 	0.9733	0.5794	0.9432	0.167
Mof_C 	C 	0.9212	0.6041	0.9417	0.08
Mof_H 	H 	0.9264	0.6237	0.9589	0.006
Mof_C 	C 	0.8853	0.6012	0.9246	-0.05
Mof_H 	H 	0.8671	0.62	0.9297	0.043
Mof_C 	C 	0.7294	0.5518	0.8707	0.035
Mof_H 	H 	0.7313	0.5543	0.8972	0.03
Mof_C 	C 	0.6956	0.5405	0.8545	-0.041
Mof_C 	C 	0.6923	0.5385	0.8158	0.019
Mof_H 	H 	0.6691	0.5312	0.8048	0.024
Mof_C 	C 	0.7212	0.5467	0.794	-0.122
Mof_H 	H 	0.719	0.545	0.7675	0.078
Mof_C 	C 	0.7557	0.558	0.8109	0.079
Mof_H 	H 	0.7761	0.5646	0.7951	-0.005
Mof_C 	C 	0.9702	0.5179	0.8967	-0.834
Mof_H 	H 	0.9749	0.5201	0.8694	0.409
Mof_H 	H 	0.9601	0.4925	0.9016	-0.206
Mof_C 	C 	0.6588	0.5211	0.8692	-0.007
Mof_H 	H 	0.6508	0.5004	0.8524	0.058
Mof_H 	H 	0.638	0.5393	0.8718	0.008
Mof_N 	N 	0.7006	0.5491	0.9703	-0.109
Mof_N 	N 	0.79419	0.59382	0.9234	-0.165
Mof_N 	N 	0.8762	0.5724	0.90141	-0.117
Mof_N 	N 	0.7604	0.5595	0.8483	-0.174
Mof_O 	O 	0.6713	0.5069	0.9057	-0.361
Mof_H 	H 	0.679	0.494	0.9237	0.257
Mof_O 	O 	0.0014	0.5207	0.9189	-1.415
Mof_H 	H 	0.014	0.529	0.938	0.54
Mof_H 	H 	0.9567	0.4955	0.8872	0.361
Mof_H 	H 	0.9845	0.5101	0.9193	1.145
Mof_C 	C 	0.6623	0.5406	0.8816	0.097
Mof_H 	H 	0.6382	0.5373	0.8681	0.007
Mof_H 	H 	0.6614	0.5639	0.8966	0.017
Mof_O 	O 	0.9966	0.5306	0.868	-0.254
Mof_H 	H 	0.9964	0.5194	0.8462	0.099
Mof_C 	C 	0.5323	0.7309	0.8251	-0.041
Mof_C 	C 	0.4709	0.6996	0.8561	-0.034
Mof_C 	C 	0.347	0.6436	0.7968	-0.158
Mof_H 	H 	0.3533	0.6274	0.7766	0.076
Mof_C 	C 	0.3095	0.6586	0.7983	0.313
Mof_C 	C 	0.3011	0.6827	0.8274	-0.294
Mof_H 	H 	0.2767	0.6932	0.8294	0.165
Mof_C 	C 	0.3288	0.6917	0.8541	0.079
Mof_H 	H 	0.3236	0.7089	0.8737	0.005
Mof_C 	C 	0.3647	0.6746	0.8512	-0.049
Mof_H 	H 	0.3829	0.6797	0.87	0.043
Mof_C 	C 	0.5206	0.6207	0.8018	0.035
Mof_H 	H 	0.5187	0.6472	0.8043	0.03
Mof_C 	C 	0.5544	0.6045	0.7905	-0.041
Mof_C 	C 	0.5577	0.5658	0.7885	0.019
Mof_H 	H 	0.5809	0.5548	0.7812	0.024
Mof_C 	C 	0.5288	0.544	0.7967	-0.122
Mof_H 	H 	0.531	0.5175	0.795	0.078
Mof_C 	C 	0.4943	0.5609	0.808	0.079
Mof_H 	H 	0.4739	0.5451	0.8146	-0.005
Mof_C 	C 	0.2798	0.6467	0.7679	-0.826
Mof_H 	H 	0.2751	0.6194	0.7701	0.409
Mof_H 	H 	0.2899	0.6516	0.7425	-0.201
Mof_C 	C 	0.5912	0.6192	0.7711	-0.007
Mof_H 	H 	0.5992	0.6024	0.7504	0.058
Mof_H 	H 	0.612	0.6218	0.7893	0.008
Mof_N 	N 	0.5494	0.7203	0.7991	-0.109
Mof_N 	N 	0.45581	0.6734	0.84382	-0.165
Mof_N 	N 	0.3738	0.65141	0.8224	-0.117
Mof_N 	N 	0.4896	0.5983	0.8095	-0.174
Mof_O 	O 	0.5787	0.6557	0.7569	-0.361
Mof_H 	H 	0.571	0.6737	0.744	0.256
Mof_O 	O 	0.2486	0.6689	0.7707	-1.393
Mof_H 	H 	0.236	0.688	0.779	0.532
Mof_H 	H 	0.2933	0.6372	0.7455	0.355
Mof_H 	H 	0.2655	0.6693	0.7601	1.128
Mof_C 	C 	0.5877	0.6316	0.7906	0.097
Mof_H 	H 	0.6118	0.6181	0.7873	0.007
Mof_H 	H 	0.5886	0.6466	0.8139	0.017
Mof_O 	O 	0.2534	0.618	0.7806	-0.259
Mof_H 	H 	0.2536	0.5962	0.7694	0.099
Mof_C 	C 	0.0323	0.2309	0.3251	-0.041
Mof_C 	C 	0.9709	0.1996	0.3561	-0.031
Mof_C 	C 	0.847	0.1436	0.2968	-0.158
Mof_H 	H 	0.8533	0.1274	0.2766	0.076
Mof_C 	C 	0.8095	0.1586	0.2983	0.313
Mof_C 	C 	0.8011	0.1827	0.3274	-0.294
Mof_H 	H 	0.7767	0.1932	0.3294	0.165
Mof_C 	C 	0.8288	0.1917	0.3541	0.079
Mof_H 	H 	0.8236	0.2089	0.3737	0.005
Mof_C 	C 	0.8647	0.1746	0.3512	-0.049
Mof_H 	H 	0.8829	0.1797	0.37	0.043
Mof_C 	C 	0.0206	0.1207	0.3018	0.033
Mof_H 	H 	0.0187	0.1472	0.3043	0.03
Mof_C 	C 	0.0544	0.1045	0.2905	-0.043
Mof_C 	C 	0.0577	0.0658	0.2885	0.024
Mof_H 	H 	0.0809	0.0548	0.2812	0.021
Mof_C 	C 	0.0288	0.044	0.2967	-0.131
Mof_H 	H 	0.031	0.0175	0.295	0.079
Mof_C 	C 	0.9943	0.0609	0.308	0.086
Mof_H 	H 	0.9739	0.0451	0.3146	-0.007
Mof_C 	C 	0.7798	0.1467	0.2679	-0.826
Mof_H 	H 	0.7751	0.1194	0.2701	0.409
Mof_H 	H 	0.7899	0.1516	0.2425	-0.201
Mof_C 	C 	0.0912	0.1192	0.2711	-0.006
Mof_H 	H 	0.0992	0.1024	0.2504	0.057
Mof_H 	H 	0.112	0.1218	0.2893	0.008
Mof_N 	N 	0.0494	0.2203	0.2991	-0.109
Mof_N 	N 	0.95581	0.1734	0.34382	-0.165
Mof_N 	N 	0.8738	0.15141	0.3224	-0.117
Mof_N 	N 	0.9896	0.0983	0.3095	-0.173
Mof_O 	O 	0.0787	0.1557	0.2569	-0.362
Mof_H 	H 	0.071	0.1737	0.244	0.256
Mof_O 	O 	0.7486	0.1689	0.2707	-1.393
Mof_H 	H 	0.736	0.188	0.279	0.532
Mof_H 	H 	0.7933	0.1372	0.2455	0.355
Mof_H 	H 	0.7655	0.1693	0.2601	1.128
Mof_C 	C 	0.0877	0.1316	0.2906	0.097
Mof_H 	H 	0.1118	0.1181	0.2873	0.007
Mof_H 	H 	0.0886	0.1466	0.3139	0.017
Mof_O 	O 	0.7534	0.118	0.2806	-0.259
Mof_H 	H 	0.7536	0.0962	0.2694	0.099
Mof_C 	C 	0.9677	0.2691	0.3251	-0.038
Mof_C 	C 	0.0291	0.3004	0.3561	-0.034
Mof_C 	C 	0.153	0.3564	0.2968	-0.158
Mof_H 	H 	0.1467	0.3726	0.2766	0.076
Mof_C 	C 	0.1905	0.3414	0.2983	0.313
Mof_C 	C 	0.1989	0.3173	0.3274	-0.294
Mof_H 	H 	0.2233	0.3068	0.3294	0.165
Mof_C 	C 	0.1712	0.3083	0.3541	0.079
Mof_H 	H 	0.1764	0.2911	0.3737	0.005
Mof_C 	C 	0.1353	0.3254	0.3512	-0.049
Mof_H 	H 	0.1171	0.3203	0.37	0.043
Mof_C 	C 	0.9794	0.3793	0.3018	0.037
Mof_H 	H 	0.9813	0.3528	0.3043	0.03
Mof_C 	C 	0.9456	0.3955	0.2905	-0.039
Mof_C 	C 	0.9423	0.4342	0.2885	0.014
Mof_H 	H 	0.9191	0.4452	0.2812	0.025
Mof_C 	C 	0.9712	0.456	0.2967	-0.113
Mof_H 	H 	0.969	0.4825	0.295	0.075
Mof_C 	C 	0.0057	0.4391	0.308	0.071
Mof_H 	H 	0.0261	0.4549	0.3146	-0.002
Mof_C 	C 	0.2202	0.3533	0.2679	-0.826
Mof_H 	H 	0.2249	0.3806	0.2701	0.409
Mof_H 	H 	0.2101	0.3484	0.2425	-0.201
Mof_C 	C 	0.9088	0.3808	0.2711	-0.008
Mof_H 	H 	0.9008	0.3976	0.2504	0.058
Mof_H 	H 	0.888	0.3782	0.2893	0.008
Mof_N 	N 	0.9506	0.2797	0.2991	-0.109
Mof_N 	N 	0.04419	0.3266	0.34382	-0.165
Mof_N 	N 	0.1262	0.34859	0.3224	-0.117
Mof_N 	N 	0.0104	0.4017	0.3095	-0.174
Mof_O 	O 	0.9213	0.3443	0.2569	-0.361
Mof_H 	H 	0.929	0.3263	0.244	0.257
Mof_O 	O 	0.2514	0.3311	0.2707	-1.393
Mof_H 	H 	0.264	0.312	0.279	0.532
Mof_H 	H 	0.2067	0.3628	0.2455	0.355
Mof_H 	H 	0.2345	0.3307	0.2601	1.128
Mof_C 	C 	0.9123	0.3684	0.2906	0.098
Mof_H 	H 	0.8882	0.3819	0.2873	0.007
Mof_H 	H 	0.9114	0.3534	0.3139	0.016
Mof_O 	O 	0.2466	0.382	0.2806	-0.259
Mof_H 	H 	0.2464	0.4038	0.2694	0.1
Mof_C 	C 	0.4677	0.7691	0.8251	-0.041
Mof_C 	C 	0.5291	0.8004	0.8561	-0.034
Mof_C 	C 	0.653	0.8564	0.7968	-0.157
Mof_H 	H 	0.6467	0.8726	0.7766	0.076
Mof_C 	C 	0.6905	0.8414	0.7983	0.313
Mof_C 	C 	0.6989	0.8173	0.8274	-0.294
Mof_H 	H 	0.7233	0.8068	0.8294	0.165
Mof_C 	C 	0.6712	0.8083	0.8541	0.079
Mof_H 	H 	0.6764	0.7911	0.8737	0.005
Mof_C 	C 	0.6353	0.8254	0.8512	-0.049
Mof_H 	H 	0.6171	0.8203	0.87	0.043
Mof_C 	C 	0.4794	0.8793	0.8018	0.035
Mof_H 	H 	0.4813	0.8528	0.8043	0.03
Mof_C 	C 	0.4456	0.8955	0.7905	-0.041
Mof_C 	C 	0.4423	0.9342	0.7885	0.019
Mof_H 	H 	0.4191	0.9452	0.7812	0.024
Mof_C 	C 	0.4712	0.956	0.7967	-0.122
Mof_H 	H 	0.469	0.9825	0.795	0.079
Mof_C 	C 	0.5057	0.9391	0.808	0.079
Mof_H 	H 	0.5261	0.9549	0.8146	-0.004
Mof_C 	C 	0.7202	0.8533	0.7679	-0.826
Mof_H 	H 	0.7249	0.8806	0.7701	0.409
Mof_H 	H 	0.7101	0.8484	0.7425	-0.201
Mof_C 	C 	0.4088	0.8808	0.7711	-0.007
Mof_H 	H 	0.4008	0.8976	0.7504	0.058
Mof_H 	H 	0.388	0.8782	0.7893	0.008
Mof_N 	N 	0.4506	0.7797	0.7991	-0.109
Mof_N 	N 	0.54419	0.8266	0.84382	-0.165
Mof_N 	N 	0.6262	0.84859	0.8224	-0.117
Mof_N 	N 	0.5104	0.9017	0.8095	-0.174
Mof_O 	O 	0.4213	0.8443	0.7569	-0.361
Mof_H 	H 	0.429	0.8263	0.744	0.256
Mof_O 	O 	0.7514	0.8311	0.7707	-1.393
Mof_H 	H 	0.764	0.812	0.779	0.532
Mof_H 	H 	0.7067	0.8628	0.7455	0.354
Mof_H 	H 	0.7345	0.8307	0.7601	1.127
Mof_C 	C 	0.4123	0.8684	0.7906	0.097
Mof_H 	H 	0.3882	0.8819	0.7873	0.007
Mof_H 	H 	0.4114	0.8534	0.8139	0.017
Mof_O 	O 	0.7466	0.882	0.7806	-0.259
Mof_H 	H 	0.7464	0.9038	0.7694	0.1
Mof_C 	C 	0.0323	0.7691	0.1749	-0.041
Mof_C 	C 	0.9709	0.8004	0.1439	-0.031
Mof_C 	C 	0.847	0.8564	0.2032	-0.157
Mof_H 	H 	0.8533	0.8726	0.2234	0.075
Mof_C 	C 	0.8095	0.8414	0.2017	0.313
Mof_C 	C 	0.8011	0.8173	0.1726	-0.294
Mof_H 	H 	0.7767	0.8068	0.1706	0.165
Mof_C 	C 	0.8288	0.8083	0.1459	0.079
Mof_H 	H 	0.8236	0.7911	0.1263	0.005
Mof_C 	C 	0.8647	0.8254	0.1488	-0.049
Mof_H 	H 	0.8829	0.8203	0.13	0.043
Mof_C 	C 	0.0206	0.8793	0.1982	0.033
Mof_H 	H 	0.0187	0.8528	0.1957	0.03
Mof_C 	C 	0.0544	0.8955	0.2095	-0.043
Mof_C 	C 	0.0577	0.9342	0.2115	0.024
Mof_H 	H 	0.0809	0.9452	0.2188	0.022
Mof_C 	C 	0.0288	0.956	0.2033	-0.131
Mof_H 	H 	0.031	0.9825	0.205	0.081
Mof_C 	C 	0.9943	0.9391	0.192	0.087
Mof_H 	H 	0.9739	0.9549	0.1854	-0.006
Mof_C 	C 	0.7798	0.8533	0.2321	-0.826
Mof_H 	H 	0.7751	0.8806	0.2299	0.409
Mof_H 	H 	0.7899	0.8484	0.2575	-0.201
Mof_C 	C 	0.0912	0.8808	0.2289	-0.006
Mof_H 	H 	0.0992	0.8976	0.2496	0.057
Mof_H 	H 	0.112	0.8782	0.2107	0.008
Mof_N 	N 	0.0494	0.7797	0.2009	-0.109
Mof_N 	N 	0.95581	0.8266	0.15618	-0.165
Mof_N 	N 	0.8738	0.84859	0.1776	-0.117
Mof_N 	N 	0.9896	0.9017	0.1905	-0.173
Mof_O 	O 	0.0787	0.8443	0.2431	-0.361
Mof_H 	H 	0.071	0.8263	0.256	0.256
Mof_O 	O 	0.7486	0.8311	0.2293	-1.393
Mof_H 	H 	0.736	0.812	0.221	0.532
Mof_H 	H 	0.7933	0.8628	0.2545	0.354
Mof_H 	H 	0.7655	0.8307	0.2399	1.127
Mof_C 	C 	0.0877	0.8684	0.2094	0.097
Mof_H 	H 	0.1118	0.8819	0.2127	0.007
Mof_H 	H 	0.0886	0.8534	0.1861	0.017
Mof_O 	O 	0.7534	0.882	0.2194	-0.259
Mof_H 	H 	0.7536	0.9038	0.2306	0.1
Mof_C 	C 	0.5323	0.2691	0.6749	-0.041
Mof_C 	C 	0.4709	0.3004	0.6439	-0.034
Mof_C 	C 	0.347	0.3564	0.7032	-0.158
Mof_H 	H 	0.3533	0.3726	0.7234	0.076
Mof_C 	C 	0.3095	0.3414	0.7017	0.313
Mof_C 	C 	0.3011	0.3173	0.6726	-0.294
Mof_H 	H 	0.2767	0.3068	0.6706	0.165
Mof_C 	C 	0.3288	0.3083	0.6459	0.079
Mof_H 	H 	0.3236	0.2911	0.6263	0.005
Mof_C 	C 	0.3647	0.3254	0.6488	-0.049
Mof_H 	H 	0.3829	0.3203	0.63	0.043
Mof_C 	C 	0.5206	0.3793	0.6982	0.035
Mof_H 	H 	0.5187	0.3528	0.6957	0.03
Mof_C 	C 	0.5544	0.3955	0.7095	-0.041
Mof_C 	C 	0.5577	0.4342	0.7115	0.019
Mof_H 	H 	0.5809	0.4452	0.7188	0.024
Mof_C 	C 	0.5288	0.456	0.7033	-0.122
Mof_H 	H 	0.531	0.4825	0.705	0.078
Mof_C 	C 	0.4943	0.4391	0.692	0.079
Mof_H 	H 	0.4739	0.4549	0.6854	-0.005
Mof_C 	C 	0.2798	0.3533	0.7321	-0.826
Mof_H 	H 	0.2751	0.3806	0.7299	0.409
Mof_H 	H 	0.2899	0.3484	0.7575	-0.201
Mof_C 	C 	0.5912	0.3808	0.7289	-0.007
Mof_H 	H 	0.5992	0.3976	0.7496	0.058
Mof_H 	H 	0.612	0.3782	0.7107	0.008
Mof_N 	N 	0.5494	0.2797	0.7009	-0.109
Mof_N 	N 	0.45581	0.3266	0.65618	-0.165
Mof_N 	N 	0.3738	0.34859	0.6776	-0.117
Mof_N 	N 	0.4896	0.4017	0.6905	-0.174
Mof_O 	O 	0.5787	0.3443	0.7431	-0.361
Mof_H 	H 	0.571	0.3263	0.756	0.256
Mof_O 	O 	0.2486	0.3311	0.7293	-1.393
Mof_H 	H 	0.236	0.312	0.721	0.532
Mof_H 	H 	0.2933	0.3628	0.7545	0.355
Mof_H 	H 	0.2655	0.3307	0.7399	1.128
Mof_C 	C 	0.5877	0.3684	0.7094	0.097
Mof_H 	H 	0.6118	0.3819	0.7127	0.007
Mof_H 	H 	0.5886	0.3534	0.6861	0.017
Mof_O 	O 	0.2534	0.382	0.7194	-0.259
Mof_H 	H 	0.2536	0.4038	0.7306	0.099
Mof_C 	C 	0.4677	0.2309	0.6749	-0.041
Mof_C 	C 	0.5291	0.1996	0.6439	-0.034
Mof_C 	C 	0.653	0.1436	0.7032	-0.158
Mof_H 	H 	0.6467	0.1274	0.7234	0.076
Mof_C 	C 	0.6905	0.1586	0.7017	0.313
Mof_C 	C 	0.6989	0.1827	0.6726	-0.294
Mof_H 	H 	0.7233	0.1932	0.6706	0.165
Mof_C 	C 	0.6712	0.1917	0.6459	0.079
Mof_H 	H 	0.6764	0.2089	0.6263	0.005
Mof_C 	C 	0.6353	0.1746	0.6488	-0.049
Mof_H 	H 	0.6171	0.1797	0.63	0.043
Mof_C 	C 	0.4794	0.1207	0.6982	0.035
Mof_H 	H 	0.4813	0.1472	0.6957	0.03
Mof_C 	C 	0.4456	0.1045	0.7095	-0.041
Mof_C 	C 	0.4423	0.0658	0.7115	0.019
Mof_H 	H 	0.4191	0.0548	0.7188	0.023
Mof_C 	C 	0.4712	0.044	0.7033	-0.122
Mof_H 	H 	0.469	0.0175	0.705	0.077
Mof_C 	C 	0.5057	0.0609	0.692	0.079
Mof_H 	H 	0.5261	0.0451	0.6854	-0.005
Mof_C 	C 	0.7202	0.1467	0.7321	-0.826
Mof_H 	H 	0.7249	0.1194	0.7299	0.409
Mof_H 	H 	0.7101	0.1516	0.7575	-0.201
Mof_C 	C 	0.4088	0.1192	0.7289	-0.007
Mof_H 	H 	0.4008	0.1024	0.7496	0.057
Mof_H 	H 	0.388	0.1218	0.7107	0.008
Mof_N 	N 	0.4506	0.2203	0.7009	-0.109
Mof_N 	N 	0.54419	0.1734	0.65618	-0.165
Mof_N 	N 	0.6262	0.15141	0.6776	-0.117
Mof_N 	N 	0.5104	0.0983	0.6905	-0.174
Mof_O 	O 	0.4213	0.1557	0.7431	-0.361
Mof_H 	H 	0.429	0.1737	0.756	0.256
Mof_O 	O 	0.7514	0.1689	0.7293	-1.393
Mof_H 	H 	0.764	0.188	0.721	0.532
Mof_H 	H 	0.7067	0.1372	0.7545	0.355
Mof_H 	H 	0.7345	0.1693	0.7399	1.128
Mof_C 	C 	0.4123	0.1316	0.7094	0.098
Mof_H 	H 	0.3882	0.1181	0.7127	0.007
Mof_H 	H 	0.4114	0.1466	0.6861	0.017
Mof_O 	O 	0.7466	0.118	0.7194	-0.259
Mof_H 	H 	0.7464	0.0962	0.7306	0.099
Mof_C 	C 	0.9677	0.7309	0.1749	-0.038
Mof_C 	C 	0.0291	0.6996	0.1439	-0.034
Mof_C 	C 	0.153	0.6436	0.2032	-0.158
Mof_H 	H 	0.1467	0.6274	0.2234	0.076
Mof_C 	C 	0.1905	0.6586	0.2017	0.313
Mof_C 	C 	0.1989	0.6827	0.1726	-0.294
Mof_H 	H 	0.2233	0.6932	0.1706	0.165
Mof_C 	C 	0.1712	0.6917	0.1459	0.079
Mof_H 	H 	0.1764	0.7089	0.1263	0.005
Mof_C 	C 	0.1353	0.6746	0.1488	-0.049
Mof_H 	H 	0.1171	0.6797	0.13	0.043
Mof_C 	C 	0.9794	0.6207	0.1982	0.037
Mof_H 	H 	0.9813	0.6472	0.1957	0.03
Mof_C 	C 	0.9456	0.6045	0.2095	-0.039
Mof_C 	C 	0.9423	0.5658	0.2115	0.014
Mof_H 	H 	0.9191	0.5548	0.2188	0.025
Mof_C 	C 	0.9712	0.544	0.2033	-0.113
Mof_H 	H 	0.969	0.5175	0.205	0.075
Mof_C 	C 	0.0057	0.5609	0.192	0.071
Mof_H 	H 	0.0261	0.5451	0.1854	-0.002
Mof_C 	C 	0.2202	0.6467	0.2321	-0.826
Mof_H 	H 	0.2249	0.6194	0.2299	0.409
Mof_H 	H 	0.2101	0.6516	0.2575	-0.201
Mof_C 	C 	0.9088	0.6192	0.2289	-0.008
Mof_H 	H 	0.9008	0.6024	0.2496	0.058
Mof_H 	H 	0.888	0.6218	0.2107	0.008
Mof_N 	N 	0.9506	0.7203	0.2009	-0.109
Mof_N 	N 	0.04419	0.6734	0.15618	-0.165
Mof_N 	N 	0.1262	0.65141	0.1776	-0.117
Mof_N 	N 	0.0104	0.5983	0.1905	-0.174
Mof_O 	O 	0.9213	0.6557	0.2431	-0.361
Mof_H 	H 	0.929	0.6737	0.256	0.257
Mof_O 	O 	0.2514	0.6689	0.2293	-1.393
Mof_H 	H 	0.264	0.688	0.221	0.532
Mof_H 	H 	0.2067	0.6372	0.2545	0.355
Mof_H 	H 	0.2345	0.6693	0.2399	1.128
Mof_C 	C 	0.9123	0.6316	0.2094	0.098
Mof_H 	H 	0.8882	0.6181	0.2127	0.007
Mof_H 	H 	0.9114	0.6466	0.1861	0.016
Mof_O 	O 	0.2466	0.618	0.2194	-0.259
Mof_H 	H 	0.2464	0.5962	0.2306	0.1
Mof_C 	C 	0.2309	0.6749	0.4677	-0.041
Mof_C 	C 	0.1996	0.6439	0.5291	-0.034
Mof_C 	C 	0.1436	0.7032	0.653	-0.158
Mof_H 	H 	0.1274	0.7234	0.6467	0.076
Mof_C 	C 	0.1586	0.7017	0.6905	0.313
Mof_C 	C 	0.1827	0.6726	0.6989	-0.294
Mof_H 	H 	0.1932	0.6706	0.7233	0.165
Mof_C 	C 	0.1917	0.6459	0.6712	0.079
Mof_H 	H 	0.2089	0.6263	0.6764	0.005
Mof_C 	C 	0.1746	0.6488	0.6353	-0.049
Mof_H 	H 	0.1797	0.63	0.6171	0.043
Mof_C 	C 	0.1207	0.6982	0.4794	0.035
Mof_H 	H 	0.1472	0.6957	0.4813	0.03
Mof_C 	C 	0.1045	0.7095	0.4456	-0.041
Mof_C 	C 	0.0658	0.7115	0.4423	0.019
Mof_H 	H 	0.0548	0.7188	0.4191	0.023
Mof_C 	C 	0.044	0.7033	0.4712	-0.122
Mof_H 	H 	0.0175	0.705	0.469	0.077
Mof_C 	C 	0.0609	0.692	0.5057	0.079
Mof_H 	H 	0.0451	0.6854	0.5261	-0.005
Mof_C 	C 	0.1467	0.7321	0.7202	-0.826
Mof_H 	H 	0.1194	0.7299	0.7249	0.409
Mof_H 	H 	0.1516	0.7575	0.7101	-0.201
Mof_C 	C 	0.1192	0.7289	0.4088	-0.007
Mof_H 	H 	0.1024	0.7496	0.4008	0.057
Mof_H 	H 	0.1218	0.7107	0.388	0.008
Mof_N 	N 	0.2203	0.7009	0.4506	-0.109
Mof_N 	N 	0.1734	0.65618	0.54419	-0.165
Mof_N 	N 	0.15141	0.6776	0.6262	-0.117
Mof_N 	N 	0.0983	0.6905	0.5104	-0.174
Mof_O 	O 	0.1557	0.7431	0.4213	-0.361
Mof_H 	H 	0.1737	0.756	0.429	0.256
Mof_O 	O 	0.1689	0.7293	0.7514	-1.393
Mof_H 	H 	0.188	0.721	0.764	0.532
Mof_H 	H 	0.1372	0.7545	0.7067	0.355
Mof_H 	H 	0.1693	0.7399	0.7345	1.128
Mof_C 	C 	0.1316	0.7094	0.4123	0.098
Mof_H 	H 	0.1181	0.7127	0.3882	0.007
Mof_H 	H 	0.1466	0.6861	0.4114	0.017
Mof_O 	O 	0.118	0.7194	0.7466	-0.259
Mof_H 	H 	0.0962	0.7306	0.7464	0.099
Mof_C 	C 	0.7309	0.1749	0.9677	-0.038
Mof_C 	C 	0.6996	0.1439	0.0291	-0.034
Mof_C 	C 	0.6436	0.2032	0.153	-0.158
Mof_H 	H 	0.6274	0.2234	0.1467	0.076
Mof_C 	C 	0.6586	0.2017	0.1905	0.313
Mof_C 	C 	0.6827	0.1726	0.1989	-0.294
Mof_H 	H 	0.6932	0.1706	0.2233	0.165
Mof_C 	C 	0.6917	0.1459	0.1712	0.079
Mof_H 	H 	0.7089	0.1263	0.1764	0.005
Mof_C 	C 	0.6746	0.1488	0.1353	-0.049
Mof_H 	H 	0.6797	0.13	0.1171	0.043
Mof_C 	C 	0.6207	0.1982	0.9794	0.037
Mof_H 	H 	0.6472	0.1957	0.9813	0.03
Mof_C 	C 	0.6045	0.2095	0.9456	-0.039
Mof_C 	C 	0.5658	0.2115	0.9423	0.014
Mof_H 	H 	0.5548	0.2188	0.9191	0.025
Mof_C 	C 	0.544	0.2033	0.9712	-0.113
Mof_H 	H 	0.5175	0.205	0.969	0.075
Mof_C 	C 	0.5609	0.192	0.0057	0.071
Mof_H 	H 	0.5451	0.1854	0.0261	-0.002
Mof_C 	C 	0.6467	0.2321	0.2202	-0.826
Mof_H 	H 	0.6194	0.2299	0.2249	0.409
Mof_H 	H 	0.6516	0.2575	0.2101	-0.201
Mof_C 	C 	0.6192	0.2289	0.9088	-0.008
Mof_H 	H 	0.6024	0.2496	0.9008	0.058
Mof_H 	H 	0.6218	0.2107	0.888	0.008
Mof_N 	N 	0.7203	0.2009	0.9506	-0.109
Mof_N 	N 	0.6734	0.15618	0.04419	-0.165
Mof_N 	N 	0.65141	0.1776	0.1262	-0.117
Mof_N 	N 	0.5983	0.1905	0.0104	-0.174
Mof_O 	O 	0.6557	0.2431	0.9213	-0.361
Mof_H 	H 	0.6737	0.256	0.929	0.257
Mof_O 	O 	0.6689	0.2293	0.2514	-1.393
Mof_H 	H 	0.688	0.221	0.264	0.532
Mof_H 	H 	0.6372	0.2545	0.2067	0.355
Mof_H 	H 	0.6693	0.2399	0.2345	1.128
Mof_C 	C 	0.6316	0.2094	0.9123	0.098
Mof_H 	H 	0.6181	0.2127	0.8882	0.007
Mof_H 	H 	0.6466	0.1861	0.9114	0.016
Mof_O 	O 	0.618	0.2194	0.2466	-0.259
Mof_H 	H 	0.5962	0.2306	0.2464	0.1
Mof_C 	C 	0.7691	0.1749	0.0323	-0.041
Mof_C 	C 	0.8004	0.1439	0.9709	-0.031
Mof_C 	C 	0.8564	0.2032	0.847	-0.157
Mof_H 	H 	0.8726	0.2234	0.8533	0.075
Mof_C 	C 	0.8414	0.2017	0.8095	0.313
Mof_C 	C 	0.8173	0.1726	0.8011	-0.294
Mof_H 	H 	0.8068	0.1706	0.7767	0.165
Mof_C 	C 	0.8083	0.1459	0.8288	0.079
Mof_H 	H 	0.7911	0.1263	0.8236	0.005
Mof_C 	C 	0.8254	0.1488	0.8647	-0.049
Mof_H 	H 	0.8203	0.13	0.8829	0.043
Mof_C 	C 	0.8793	0.1982	0.0206	0.033
Mof_H 	H 	0.8528	0.1957	0.0187	0.03
Mof_C 	C 	0.8955	0.2095	0.0544	-0.043
Mof_C 	C 	0.9342	0.2115	0.0577	0.024
Mof_H 	H 	0.9452	0.2188	0.0809	0.022
Mof_C 	C 	0.956	0.2033	0.0288	-0.131
Mof_H 	H 	0.9825	0.205	0.031	0.081
Mof_C 	C 	0.9391	0.192	0.9943	0.087
Mof_H 	H 	0.9549	0.1854	0.9739	-0.006
Mof_C 	C 	0.8533	0.2321	0.7798	-0.826
Mof_H 	H 	0.8806	0.2299	0.7751	0.409
Mof_H 	H 	0.8484	0.2575	0.7899	-0.201
Mof_C 	C 	0.8808	0.2289	0.0912	-0.006
Mof_H 	H 	0.8976	0.2496	0.0992	0.057
Mof_H 	H 	0.8782	0.2107	0.112	0.008
Mof_N 	N 	0.7797	0.2009	0.0494	-0.109
Mof_N 	N 	0.8266	0.15618	0.95581	-0.165
Mof_N 	N 	0.84859	0.1776	0.8738	-0.117
Mof_N 	N 	0.9017	0.1905	0.9896	-0.173
Mof_O 	O 	0.8443	0.2431	0.0787	-0.361
Mof_H 	H 	0.8263	0.256	0.071	0.256
Mof_O 	O 	0.8311	0.2293	0.7486	-1.393
Mof_H 	H 	0.812	0.221	0.736	0.532
Mof_H 	H 	0.8628	0.2545	0.7933	0.354
Mof_H 	H 	0.8307	0.2399	0.7655	1.127
Mof_C 	C 	0.8684	0.2094	0.0877	0.097
Mof_H 	H 	0.8819	0.2127	0.1118	0.007
Mof_H 	H 	0.8534	0.1861	0.0886	0.017
Mof_O 	O 	0.882	0.2194	0.7534	-0.259
Mof_H 	H 	0.9038	0.2306	0.7536	0.1
Mof_C 	C 	0.2691	0.6749	0.5323	-0.041
Mof_C 	C 	0.3004	0.6439	0.4709	-0.034
Mof_C 	C 	0.3564	0.7032	0.347	-0.158
Mof_H 	H 	0.3726	0.7234	0.3533	0.076
Mof_C 	C 	0.3414	0.7017	0.3095	0.313
Mof_C 	C 	0.3173	0.6726	0.3011	-0.294
Mof_H 	H 	0.3068	0.6706	0.2767	0.165
Mof_C 	C 	0.3083	0.6459	0.3288	0.079
Mof_H 	H 	0.2911	0.6263	0.3236	0.005
Mof_C 	C 	0.3254	0.6488	0.3647	-0.049
Mof_H 	H 	0.3203	0.63	0.3829	0.043
Mof_C 	C 	0.3793	0.6982	0.5206	0.035
Mof_H 	H 	0.3528	0.6957	0.5187	0.03
Mof_C 	C 	0.3955	0.7095	0.5544	-0.041
Mof_C 	C 	0.4342	0.7115	0.5577	0.019
Mof_H 	H 	0.4452	0.7188	0.5809	0.024
Mof_C 	C 	0.456	0.7033	0.5288	-0.122
Mof_H 	H 	0.4825	0.705	0.531	0.078
Mof_C 	C 	0.4391	0.692	0.4943	0.079
Mof_H 	H 	0.4549	0.6854	0.4739	-0.005
Mof_C 	C 	0.3533	0.7321	0.2798	-0.826
Mof_H 	H 	0.3806	0.7299	0.2751	0.409
Mof_H 	H 	0.3484	0.7575	0.2899	-0.201
Mof_C 	C 	0.3808	0.7289	0.5912	-0.007
Mof_H 	H 	0.3976	0.7496	0.5992	0.058
Mof_H 	H 	0.3782	0.7107	0.612	0.008
Mof_N 	N 	0.2797	0.7009	0.5494	-0.109
Mof_N 	N 	0.3266	0.65618	0.45581	-0.165
Mof_N 	N 	0.34859	0.6776	0.3738	-0.117
Mof_N 	N 	0.4017	0.6905	0.4896	-0.174
Mof_O 	O 	0.3443	0.7431	0.5787	-0.361
Mof_H 	H 	0.3263	0.756	0.571	0.256
Mof_O 	O 	0.3311	0.7293	0.2486	-1.393
Mof_H 	H 	0.312	0.721	0.236	0.532
Mof_H 	H 	0.3628	0.7545	0.2933	0.355
Mof_H 	H 	0.3307	0.7399	0.2655	1.128
Mof_C 	C 	0.3684	0.7094	0.5877	0.097
Mof_H 	H 	0.3819	0.7127	0.6118	0.007
Mof_H 	H 	0.3534	0.6861	0.5886	0.017
Mof_O 	O 	0.382	0.7194	0.2534	-0.259
Mof_H 	H 	0.4038	0.7306	0.2536	0.099
Mof_C 	C 	0.2691	0.3251	0.9677	-0.038
Mof_C 	C 	0.3004	0.3561	0.0291	-0.034
Mof_C 	C 	0.3564	0.2968	0.153	-0.158
Mof_H 	H 	0.3726	0.2766	0.1467	0.076
Mof_C 	C 	0.3414	0.2983	0.1905	0.313
Mof_C 	C 	0.3173	0.3274	0.1989	-0.294
Mof_H 	H 	0.3068	0.3294	0.2233	0.165
Mof_C 	C 	0.3083	0.3541	0.1712	0.079
Mof_H 	H 	0.2911	0.3737	0.1764	0.005
Mof_C 	C 	0.3254	0.3512	0.1353	-0.049
Mof_H 	H 	0.3203	0.37	0.1171	0.043
Mof_C 	C 	0.3793	0.3018	0.9794	0.037
Mof_H 	H 	0.3528	0.3043	0.9813	0.03
Mof_C 	C 	0.3955	0.2905	0.9456	-0.039
Mof_C 	C 	0.4342	0.2885	0.9423	0.014
Mof_H 	H 	0.4452	0.2812	0.9191	0.025
Mof_C 	C 	0.456	0.2967	0.9712	-0.113
Mof_H 	H 	0.4825	0.295	0.969	0.075
Mof_C 	C 	0.4391	0.308	0.0057	0.071
Mof_H 	H 	0.4549	0.3146	0.0261	-0.002
Mof_C 	C 	0.3533	0.2679	0.2202	-0.826
Mof_H 	H 	0.3806	0.2701	0.2249	0.409
Mof_H 	H 	0.3484	0.2425	0.2101	-0.201
Mof_C 	C 	0.3808	0.2711	0.9088	-0.008
Mof_H 	H 	0.3976	0.2504	0.9008	0.058
Mof_H 	H 	0.3782	0.2893	0.888	0.008
Mof_N 	N 	0.2797	0.2991	0.9506	-0.109
Mof_N 	N 	0.3266	0.34382	0.04419	-0.165
Mof_N 	N 	0.34859	0.3224	0.1262	-0.117
Mof_N 	N 	0.4017	0.3095	0.0104	-0.174
Mof_O 	O 	0.3443	0.2569	0.9213	-0.361
Mof_H 	H 	0.3263	0.244	0.929	0.257
Mof_O 	O 	0.3311	0.2707	0.2514	-1.393
Mof_H 	H 	0.312	0.279	0.264	0.532
Mof_H 	H 	0.3628	0.2455	0.2067	0.355
Mof_H 	H 	0.3307	0.2601	0.2345	1.128
Mof_C 	C 	0.3684	0.2906	0.9123	0.098
Mof_H 	H 	0.3819	0.2873	0.8882	0.007
Mof_H 	H 	0.3534	0.3139	0.9114	0.016
Mof_O 	O 	0.382	0.2806	0.2466	-0.259
Mof_H 	H 	0.4038	0.2694	0.2464	0.1
Mof_C 	C 	0.7691	0.8251	0.4677	-0.041
Mof_C 	C 	0.8004	0.8561	0.5291	-0.034
Mof_C 	C 	0.8564	0.7968	0.653	-0.157
Mof_H 	H 	0.8726	0.7766	0.6467	0.076
Mof_C 	C 	0.8414	0.7983	0.6905	0.313
Mof_C 	C 	0.8173	0.8274	0.6989	-0.294
Mof_H 	H 	0.8068	0.8294	0.7233	0.165
Mof_C 	C 	0.8083	0.8541	0.6712	0.079
Mof_H 	H 	0.7911	0.8737	0.6764	0.005
Mof_C 	C 	0.8254	0.8512	0.6353	-0.049
Mof_H 	H 	0.8203	0.87	0.6171	0.043
Mof_C 	C 	0.8793	0.8018	0.4794	0.035
Mof_H 	H 	0.8528	0.8043	0.4813	0.03
Mof_C 	C 	0.8955	0.7905	0.4456	-0.041
Mof_C 	C 	0.9342	0.7885	0.4423	0.019
Mof_H 	H 	0.9452	0.7812	0.4191	0.024
Mof_C 	C 	0.956	0.7967	0.4712	-0.122
Mof_H 	H 	0.9825	0.795	0.469	0.079
Mof_C 	C 	0.9391	0.808	0.5057	0.079
Mof_H 	H 	0.9549	0.8146	0.5261	-0.004
Mof_C 	C 	0.8533	0.7679	0.7202	-0.826
Mof_H 	H 	0.8806	0.7701	0.7249	0.409
Mof_H 	H 	0.8484	0.7425	0.7101	-0.201
Mof_C 	C 	0.8808	0.7711	0.4088	-0.007
Mof_H 	H 	0.8976	0.7504	0.4008	0.058
Mof_H 	H 	0.8782	0.7893	0.388	0.008
Mof_N 	N 	0.7797	0.7991	0.4506	-0.109
Mof_N 	N 	0.8266	0.84382	0.54419	-0.165
Mof_N 	N 	0.84859	0.8224	0.6262	-0.117
Mof_N 	N 	0.9017	0.8095	0.5104	-0.174
Mof_O 	O 	0.8443	0.7569	0.4213	-0.361
Mof_H 	H 	0.8263	0.744	0.429	0.256
Mof_O 	O 	0.8311	0.7707	0.7514	-1.393
Mof_H 	H 	0.812	0.779	0.764	0.532
Mof_H 	H 	0.8628	0.7455	0.7067	0.354
Mof_H 	H 	0.8307	0.7601	0.7345	1.127
Mof_C 	C 	0.8684	0.7906	0.4123	0.097
Mof_H 	H 	0.8819	0.7873	0.3882	0.007
Mof_H 	H 	0.8534	0.8139	0.4114	0.017
Mof_O 	O 	0.882	0.7806	0.7466	-0.259
Mof_H 	H 	0.9038	0.7694	0.7464	0.1
Mof_C 	C 	0.7309	0.8251	0.5323	-0.041
Mof_C 	C 	0.6996	0.8561	0.4709	-0.034
Mof_C 	C 	0.6436	0.7968	0.347	-0.158
Mof_H 	H 	0.6274	0.7766	0.3533	0.076
Mof_C 	C 	0.6586	0.7983	0.3095	0.313
Mof_C 	C 	0.6827	0.8274	0.3011	-0.294
Mof_H 	H 	0.6932	0.8294	0.2767	0.165
Mof_C 	C 	0.6917	0.8541	0.3288	0.079
Mof_H 	H 	0.7089	0.8737	0.3236	0.005
Mof_C 	C 	0.6746	0.8512	0.3647	-0.049
Mof_H 	H 	0.6797	0.87	0.3829	0.043
Mof_C 	C 	0.6207	0.8018	0.5206	0.035
Mof_H 	H 	0.6472	0.8043	0.5187	0.03
Mof_C 	C 	0.6045	0.7905	0.5544	-0.041
Mof_C 	C 	0.5658	0.7885	0.5577	0.019
Mof_H 	H 	0.5548	0.7812	0.5809	0.024
Mof_C 	C 	0.544	0.7967	0.5288	-0.122
Mof_H 	H 	0.5175	0.795	0.531	0.078
Mof_C 	C 	0.5609	0.808	0.4943	0.079
Mof_H 	H 	0.5451	0.8146	0.4739	-0.005
Mof_C 	C 	0.6467	0.7679	0.2798	-0.826
Mof_H 	H 	0.6194	0.7701	0.2751	0.409
Mof_H 	H 	0.6516	0.7425	0.2899	-0.201
Mof_C 	C 	0.6192	0.7711	0.5912	-0.007
Mof_H 	H 	0.6024	0.7504	0.5992	0.058
Mof_H 	H 	0.6218	0.7893	0.612	0.008
Mof_N 	N 	0.7203	0.7991	0.5494	-0.109
Mof_N 	N 	0.6734	0.84382	0.45581	-0.165
Mof_N 	N 	0.65141	0.8224	0.3738	-0.117
Mof_N 	N 	0.5983	0.8095	0.4896	-0.174
Mof_O 	O 	0.6557	0.7569	0.5787	-0.361
Mof_H 	H 	0.6737	0.744	0.571	0.256
Mof_O 	O 	0.6689	0.7707	0.2486	-1.393
Mof_H 	H 	0.688	0.779	0.236	0.532
Mof_H 	H 	0.6372	0.7455	0.2933	0.355
Mof_H 	H 	0.6693	0.7601	0.2655	1.128
Mof_C 	C 	0.6316	0.7906	0.5877	0.097
Mof_H 	H 	0.6181	0.7873	0.6118	0.007
Mof_H 	H 	0.6466	0.8139	0.5886	0.017
Mof_O 	O 	0.618	0.7806	0.2534	-0.259
Mof_H 	H 	0.5962	0.7694	0.2536	0.099
Mof_C 	C 	0.2309	0.3251	0.0323	-0.041
Mof_C 	C 	0.1996	0.3561	0.9709	-0.031
Mof_C 	C 	0.1436	0.2968	0.847	-0.158
Mof_H 	H 	0.1274	0.2766	0.8533	0.076
Mof_C 	C 	0.1586	0.2983	0.8095	0.313
Mof_C 	C 	0.1827	0.3274	0.8011	-0.294
Mof_H 	H 	0.1932	0.3294	0.7767	0.165
Mof_C 	C 	0.1917	0.3541	0.8288	0.079
Mof_H 	H 	0.2089	0.3737	0.8236	0.005
Mof_C 	C 	0.1746	0.3512	0.8647	-0.049
Mof_H 	H 	0.1797	0.37	0.8829	0.043
Mof_C 	C 	0.1207	0.3018	0.0206	0.033
Mof_H 	H 	0.1472	0.3043	0.0187	0.03
Mof_C 	C 	0.1045	0.2905	0.0544	-0.043
Mof_C 	C 	0.0658	0.2885	0.0577	0.024
Mof_H 	H 	0.0548	0.2812	0.0809	0.021
Mof_C 	C 	0.044	0.2967	0.0288	-0.131
Mof_H 	H 	0.0175	0.295	0.031	0.079
Mof_C 	C 	0.0609	0.308	0.9943	0.086
Mof_H 	H 	0.0451	0.3146	0.9739	-0.007
Mof_C 	C 	0.1467	0.2679	0.7798	-0.826
Mof_H 	H 	0.1194	0.2701	0.7751	0.409
Mof_H 	H 	0.1516	0.2425	0.7899	-0.201
Mof_C 	C 	0.1192	0.2711	0.0912	-0.006
Mof_H 	H 	0.1024	0.2504	0.0992	0.057
Mof_H 	H 	0.1218	0.2893	0.112	0.008
Mof_N 	N 	0.2203	0.2991	0.0494	-0.109
Mof_N 	N 	0.1734	0.34382	0.95581	-0.165
Mof_N 	N 	0.15141	0.3224	0.8738	-0.117
Mof_N 	N 	0.0983	0.3095	0.9896	-0.173
Mof_O 	O 	0.1557	0.2569	0.0787	-0.362
Mof_H 	H 	0.1737	0.244	0.071	0.256
Mof_O 	O 	0.1689	0.2707	0.7486	-1.393
Mof_H 	H 	0.188	0.279	0.736	0.532
Mof_H 	H 	0.1372	0.2455	0.7933	0.355
Mof_H 	H 	0.1693	0.2601	0.7655	1.128
Mof_C 	C 	0.1316	0.2906	0.0877	0.097
Mof_H 	H 	0.1181	0.2873	0.1118	0.007
Mof_H 	H 	0.1466	0.3139	0.0886	0.017
Mof_O 	O 	0.118	0.2806	0.7534	-0.259
Mof_H 	H 	0.0962	0.2694	0.7536	0.099
Mof_C 	C 	0.1749	0.0323	0.7691	-0.041
Mof_C 	C 	0.1439	0.9709	0.8004	-0.031
Mof_C 	C 	0.2032	0.847	0.8564	-0.157
Mof_H 	H 	0.2234	0.8533	0.8726	0.075
Mof_C 	C 	0.2017	0.8095	0.8414	0.313
Mof_C 	C 	0.1726	0.8011	0.8173	-0.294
Mof_H 	H 	0.1706	0.7767	0.8068	0.165
Mof_C 	C 	0.1459	0.8288	0.8083	0.079
Mof_H 	H 	0.1263	0.8236	0.7911	0.005
Mof_C 	C 	0.1488	0.8647	0.8254	-0.049
Mof_H 	H 	0.13	0.8829	0.8203	0.043
Mof_C 	C 	0.1982	0.0206	0.8793	0.033
Mof_H 	H 	0.1957	0.0187	0.8528	0.03
Mof_C 	C 	0.2095	0.0544	0.8955	-0.043
Mof_C 	C 	0.2115	0.0577	0.9342	0.024
Mof_H 	H 	0.2188	0.0809	0.9452	0.022
Mof_C 	C 	0.2033	0.0288	0.956	-0.131
Mof_H 	H 	0.205	0.031	0.9825	0.081
Mof_C 	C 	0.192	0.9943	0.9391	0.087
Mof_H 	H 	0.1854	0.9739	0.9549	-0.006
Mof_C 	C 	0.2321	0.7798	0.8533	-0.826
Mof_H 	H 	0.2299	0.7751	0.8806	0.409
Mof_H 	H 	0.2575	0.7899	0.8484	-0.201
Mof_C 	C 	0.2289	0.0912	0.8808	-0.006
Mof_H 	H 	0.2496	0.0992	0.8976	0.057
Mof_H 	H 	0.2107	0.112	0.8782	0.008
Mof_N 	N 	0.2009	0.0494	0.7797	-0.109
Mof_N 	N 	0.15618	0.95581	0.8266	-0.165
Mof_N 	N 	0.1776	0.8738	0.84859	-0.117
Mof_N 	N 	0.1905	0.9896	0.9017	-0.173
Mof_O 	O 	0.2431	0.0787	0.8443	-0.361
Mof_H 	H 	0.256	0.071	0.8263	0.256
Mof_O 	O 	0.2293	0.7486	0.8311	-1.393
Mof_H 	H 	0.221	0.736	0.812	0.532
Mof_H 	H 	0.2545	0.7933	0.8628	0.354
Mof_H 	H 	0.2399	0.7655	0.8307	1.127
Mof_C 	C 	0.2094	0.0877	0.8684	0.097
Mof_H 	H 	0.2127	0.1118	0.8819	0.007
Mof_H 	H 	0.1861	0.0886	0.8534	0.017
Mof_O 	O 	0.2194	0.7534	0.882	-0.259
Mof_H 	H 	0.2306	0.7536	0.9038	0.1
Mof_C 	C 	0.6749	0.5323	0.2691	-0.041
Mof_C 	C 	0.6439	0.4709	0.3004	-0.034
Mof_C 	C 	0.7032	0.347	0.3564	-0.158
Mof_H 	H 	0.7234	0.3533	0.3726	0.076
Mof_C 	C 	0.7017	0.3095	0.3414	0.313
Mof_C 	C 	0.6726	0.3011	0.3173	-0.294
Mof_H 	H 	0.6706	0.2767	0.3068	0.165
Mof_C 	C 	0.6459	0.3288	0.3083	0.079
Mof_H 	H 	0.6263	0.3236	0.2911	0.005
Mof_C 	C 	0.6488	0.3647	0.3254	-0.049
Mof_H 	H 	0.63	0.3829	0.3203	0.043
Mof_C 	C 	0.6982	0.5206	0.3793	0.035
Mof_H 	H 	0.6957	0.5187	0.3528	0.03
Mof_C 	C 	0.7095	0.5544	0.3955	-0.041
Mof_C 	C 	0.7115	0.5577	0.4342	0.019
Mof_H 	H 	0.7188	0.5809	0.4452	0.024
Mof_C 	C 	0.7033	0.5288	0.456	-0.122
Mof_H 	H 	0.705	0.531	0.4825	0.078
Mof_C 	C 	0.692	0.4943	0.4391	0.079
Mof_H 	H 	0.6854	0.4739	0.4549	-0.005
Mof_C 	C 	0.7321	0.2798	0.3533	-0.826
Mof_H 	H 	0.7299	0.2751	0.3806	0.409
Mof_H 	H 	0.7575	0.2899	0.3484	-0.201
Mof_C 	C 	0.7289	0.5912	0.3808	-0.007
Mof_H 	H 	0.7496	0.5992	0.3976	0.058
Mof_H 	H 	0.7107	0.612	0.3782	0.008
Mof_N 	N 	0.7009	0.5494	0.2797	-0.109
Mof_N 	N 	0.65618	0.45581	0.3266	-0.165
Mof_N 	N 	0.6776	0.3738	0.34859	-0.117
Mof_N 	N 	0.6905	0.4896	0.4017	-0.174
Mof_O 	O 	0.7431	0.5787	0.3443	-0.361
Mof_H 	H 	0.756	0.571	0.3263	0.256
Mof_O 	O 	0.7293	0.2486	0.3311	-1.393
Mof_H 	H 	0.721	0.236	0.312	0.532
Mof_H 	H 	0.7545	0.2933	0.3628	0.355
Mof_H 	H 	0.7399	0.2655	0.3307	1.128
Mof_C 	C 	0.7094	0.5877	0.3684	0.097
Mof_H 	H 	0.7127	0.6118	0.3819	0.007
Mof_H 	H 	0.6861	0.5886	0.3534	0.017
Mof_O 	O 	0.7194	0.2534	0.382	-0.259
Mof_H 	H 	0.7306	0.2536	0.4038	0.099
Mof_C 	C 	0.6749	0.4677	0.2309	-0.041
Mof_C 	C 	0.6439	0.5291	0.1996	-0.034
Mof_C 	C 	0.7032	0.653	0.1436	-0.158
Mof_H 	H 	0.7234	0.6467	0.1274	0.076
Mof_C 	C 	0.7017	0.6905	0.1586	0.313
Mof_C 	C 	0.6726	0.6989	0.1827	-0.294
Mof_H 	H 	0.6706	0.7233	0.1932	0.165
Mof_C 	C 	0.6459	0.6712	0.1917	0.079
Mof_H 	H 	0.6263	0.6764	0.2089	0.005
Mof_C 	C 	0.6488	0.6353	0.1746	-0.049
Mof_H 	H 	0.63	0.6171	0.1797	0.043
Mof_C 	C 	0.6982	0.4794	0.1207	0.035
Mof_H 	H 	0.6957	0.4813	0.1472	0.03
Mof_C 	C 	0.7095	0.4456	0.1045	-0.041
Mof_C 	C 	0.7115	0.4423	0.0658	0.019
Mof_H 	H 	0.7188	0.4191	0.0548	0.023
Mof_C 	C 	0.7033	0.4712	0.044	-0.122
Mof_H 	H 	0.705	0.469	0.0175	0.077
Mof_C 	C 	0.692	0.5057	0.0609	0.079
Mof_H 	H 	0.6854	0.5261	0.0451	-0.005
Mof_C 	C 	0.7321	0.7202	0.1467	-0.826
Mof_H 	H 	0.7299	0.7249	0.1194	0.409
Mof_H 	H 	0.7575	0.7101	0.1516	-0.201
Mof_C 	C 	0.7289	0.4088	0.1192	-0.007
Mof_H 	H 	0.7496	0.4008	0.1024	0.057
Mof_H 	H 	0.7107	0.388	0.1218	0.008
Mof_N 	N 	0.7009	0.4506	0.2203	-0.109
Mof_N 	N 	0.65618	0.54419	0.1734	-0.165
Mof_N 	N 	0.6776	0.6262	0.15141	-0.117
Mof_N 	N 	0.6905	0.5104	0.0983	-0.174
Mof_O 	O 	0.7431	0.4213	0.1557	-0.361
Mof_H 	H 	0.756	0.429	0.1737	0.256
Mof_O 	O 	0.7293	0.7514	0.1689	-1.393
Mof_H 	H 	0.721	0.764	0.188	0.532
Mof_H 	H 	0.7545	0.7067	0.1372	0.355
Mof_H 	H 	0.7399	0.7345	0.1693	1.128
Mof_C 	C 	0.7094	0.4123	0.1316	0.098
Mof_H 	H 	0.7127	0.3882	0.1181	0.007
Mof_H 	H 	0.6861	0.4114	0.1466	0.017
Mof_O 	O 	0.7194	0.7466	0.118	-0.259
Mof_H 	H 	0.7306	0.7464	0.0962	0.099
Mof_C 	C 	0.1749	0.9677	0.7309	-0.038
Mof_C 	C 	0.1439	0.0291	0.6996	-0.034
Mof_C 	C 	0.2032	0.153	0.6436	-0.158
Mof_H 	H 	0.2234	0.1467	0.6274	0.076
Mof_C 	C 	0.2017	0.1905	0.6586	0.313
Mof_C 	C 	0.1726	0.1989	0.6827	-0.294
Mof_H 	H 	0.1706	0.2233	0.6932	0.165
Mof_C 	C 	0.1459	0.1712	0.6917	0.079
Mof_H 	H 	0.1263	0.1764	0.7089	0.005
Mof_C 	C 	0.1488	0.1353	0.6746	-0.049
Mof_H 	H 	0.13	0.1171	0.6797	0.043
Mof_C 	C 	0.1982	0.9794	0.6207	0.037
Mof_H 	H 	0.1957	0.9813	0.6472	0.03
Mof_C 	C 	0.2095	0.9456	0.6045	-0.039
Mof_C 	C 	0.2115	0.9423	0.5658	0.014
Mof_H 	H 	0.2188	0.9191	0.5548	0.025
Mof_C 	C 	0.2033	0.9712	0.544	-0.113
Mof_H 	H 	0.205	0.969	0.5175	0.075
Mof_C 	C 	0.192	0.0057	0.5609	0.071
Mof_H 	H 	0.1854	0.0261	0.5451	-0.002
Mof_C 	C 	0.2321	0.2202	0.6467	-0.826
Mof_H 	H 	0.2299	0.2249	0.6194	0.409
Mof_H 	H 	0.2575	0.2101	0.6516	-0.201
Mof_C 	C 	0.2289	0.9088	0.6192	-0.008
Mof_H 	H 	0.2496	0.9008	0.6024	0.058
Mof_H 	H 	0.2107	0.888	0.6218	0.008
Mof_N 	N 	0.2009	0.9506	0.7203	-0.109
Mof_N 	N 	0.15618	0.04419	0.6734	-0.165
Mof_N 	N 	0.1776	0.1262	0.65141	-0.117
Mof_N 	N 	0.1905	0.0104	0.5983	-0.174
Mof_O 	O 	0.2431	0.9213	0.6557	-0.361
Mof_H 	H 	0.256	0.929	0.6737	0.257
Mof_O 	O 	0.2293	0.2514	0.6689	-1.393
Mof_H 	H 	0.221	0.264	0.688	0.532
Mof_H 	H 	0.2545	0.2067	0.6372	0.355
Mof_H 	H 	0.2399	0.2345	0.6693	1.128
Mof_C 	C 	0.2094	0.9123	0.6316	0.098
Mof_H 	H 	0.2127	0.8882	0.6181	0.007
Mof_H 	H 	0.1861	0.9114	0.6466	0.016
Mof_O 	O 	0.2194	0.2466	0.618	-0.259
Mof_H 	H 	0.2306	0.2464	0.5962	0.1
Mof_C 	C 	0.8251	0.5323	0.7309	-0.041
Mof_C 	C 	0.8561	0.4709	0.6996	-0.034
Mof_C 	C 	0.7968	0.347	0.6436	-0.158
Mof_H 	H 	0.7766	0.3533	0.6274	0.076
Mof_C 	C 	0.7983	0.3095	0.6586	0.313
Mof_C 	C 	0.8274	0.3011	0.6827	-0.294
Mof_H 	H 	0.8294	0.2767	0.6932	0.165
Mof_C 	C 	0.8541	0.3288	0.6917	0.079
Mof_H 	H 	0.8737	0.3236	0.7089	0.005
Mof_C 	C 	0.8512	0.3647	0.6746	-0.049
Mof_H 	H 	0.87	0.3829	0.6797	0.043
Mof_C 	C 	0.8018	0.5206	0.6207	0.035
Mof_H 	H 	0.8043	0.5187	0.6472	0.03
Mof_C 	C 	0.7905	0.5544	0.6045	-0.041
Mof_C 	C 	0.7885	0.5577	0.5658	0.019
Mof_H 	H 	0.7812	0.5809	0.5548	0.024
Mof_C 	C 	0.7967	0.5288	0.544	-0.122
Mof_H 	H 	0.795	0.531	0.5175	0.078
Mof_C 	C 	0.808	0.4943	0.5609	0.079
Mof_H 	H 	0.8146	0.4739	0.5451	-0.005
Mof_C 	C 	0.7679	0.2798	0.6467	-0.826
Mof_H 	H 	0.7701	0.2751	0.6194	0.409
Mof_H 	H 	0.7425	0.2899	0.6516	-0.201
Mof_C 	C 	0.7711	0.5912	0.6192	-0.007
Mof_H 	H 	0.7504	0.5992	0.6024	0.058
Mof_H 	H 	0.7893	0.612	0.6218	0.008
Mof_N 	N 	0.7991	0.5494	0.7203	-0.109
Mof_N 	N 	0.84382	0.45581	0.6734	-0.165
Mof_N 	N 	0.8224	0.3738	0.65141	-0.117
Mof_N 	N 	0.8095	0.4896	0.5983	-0.174
Mof_O 	O 	0.7569	0.5787	0.6557	-0.361
Mof_H 	H 	0.744	0.571	0.6737	0.256
Mof_O 	O 	0.7707	0.2486	0.6689	-1.393
Mof_H 	H 	0.779	0.236	0.688	0.532
Mof_H 	H 	0.7455	0.2933	0.6372	0.355
Mof_H 	H 	0.7601	0.2655	0.6693	1.128
Mof_C 	C 	0.7906	0.5877	0.6316	0.097
Mof_H 	H 	0.7873	0.6118	0.6181	0.007
Mof_H 	H 	0.8139	0.5886	0.6466	0.017
Mof_O 	O 	0.7806	0.2534	0.618	-0.259
Mof_H 	H 	0.7694	0.2536	0.5962	0.099
Mof_C 	C 	0.3251	0.0323	0.2309	-0.041
Mof_C 	C 	0.3561	0.9709	0.1996	-0.031
Mof_C 	C 	0.2968	0.847	0.1436	-0.158
Mof_H 	H 	0.2766	0.8533	0.1274	0.076
Mof_C 	C 	0.2983	0.8095	0.1586	0.313
Mof_C 	C 	0.3274	0.8011	0.1827	-0.294
Mof_H 	H 	0.3294	0.7767	0.1932	0.165
Mof_C 	C 	0.3541	0.8288	0.1917	0.079
Mof_H 	H 	0.3737	0.8236	0.2089	0.005
Mof_C 	C 	0.3512	0.8647	0.1746	-0.049
Mof_H 	H 	0.37	0.8829	0.1797	0.043
Mof_C 	C 	0.3018	0.0206	0.1207	0.033
Mof_H 	H 	0.3043	0.0187	0.1472	0.03
Mof_C 	C 	0.2905	0.0544	0.1045	-0.043
Mof_C 	C 	0.2885	0.0577	0.0658	0.024
Mof_H 	H 	0.2812	0.0809	0.0548	0.021
Mof_C 	C 	0.2967	0.0288	0.044	-0.131
Mof_H 	H 	0.295	0.031	0.0175	0.079
Mof_C 	C 	0.308	0.9943	0.0609	0.086
Mof_H 	H 	0.3146	0.9739	0.0451	-0.007
Mof_C 	C 	0.2679	0.7798	0.1467	-0.826
Mof_H 	H 	0.2701	0.7751	0.1194	0.409
Mof_H 	H 	0.2425	0.7899	0.1516	-0.201
Mof_C 	C 	0.2711	0.0912	0.1192	-0.006
Mof_H 	H 	0.2504	0.0992	0.1024	0.057
Mof_H 	H 	0.2893	0.112	0.1218	0.008
Mof_N 	N 	0.2991	0.0494	0.2203	-0.109
Mof_N 	N 	0.34382	0.95581	0.1734	-0.165
Mof_N 	N 	0.3224	0.8738	0.15141	-0.117
Mof_N 	N 	0.3095	0.9896	0.0983	-0.173
Mof_O 	O 	0.2569	0.0787	0.1557	-0.362
Mof_H 	H 	0.244	0.071	0.1737	0.256
Mof_O 	O 	0.2707	0.7486	0.1689	-1.393
Mof_H 	H 	0.279	0.736	0.188	0.532
Mof_H 	H 	0.2455	0.7933	0.1372	0.355
Mof_H 	H 	0.2601	0.7655	0.1693	1.128
Mof_C 	C 	0.2906	0.0877	0.1316	0.097
Mof_H 	H 	0.2873	0.1118	0.1181	0.007
Mof_H 	H 	0.3139	0.0886	0.1466	0.017
Mof_O 	O 	0.2806	0.7534	0.118	-0.259
Mof_H 	H 	0.2694	0.7536	0.0962	0.099
Mof_C 	C 	0.3251	0.9677	0.2691	-0.038
Mof_C 	C 	0.3561	0.0291	0.3004	-0.034
Mof_C 	C 	0.2968	0.153	0.3564	-0.158
Mof_H 	H 	0.2766	0.1467	0.3726	0.076
Mof_C 	C 	0.2983	0.1905	0.3414	0.313
Mof_C 	C 	0.3274	0.1989	0.3173	-0.294
Mof_H 	H 	0.3294	0.2233	0.3068	0.165
Mof_C 	C 	0.3541	0.1712	0.3083	0.079
Mof_H 	H 	0.3737	0.1764	0.2911	0.005
Mof_C 	C 	0.3512	0.1353	0.3254	-0.049
Mof_H 	H 	0.37	0.1171	0.3203	0.043
Mof_C 	C 	0.3018	0.9794	0.3793	0.037
Mof_H 	H 	0.3043	0.9813	0.3528	0.03
Mof_C 	C 	0.2905	0.9456	0.3955	-0.039
Mof_C 	C 	0.2885	0.9423	0.4342	0.014
Mof_H 	H 	0.2812	0.9191	0.4452	0.025
Mof_C 	C 	0.2967	0.9712	0.456	-0.113
Mof_H 	H 	0.295	0.969	0.4825	0.075
Mof_C 	C 	0.308	0.0057	0.4391	0.071
Mof_H 	H 	0.3146	0.0261	0.4549	-0.002
Mof_C 	C 	0.2679	0.2202	0.3533	-0.826
Mof_H 	H 	0.2701	0.2249	0.3806	0.409
Mof_H 	H 	0.2425	0.2101	0.3484	-0.201
Mof_C 	C 	0.2711	0.9088	0.3808	-0.008
Mof_H 	H 	0.2504	0.9008	0.3976	0.058
Mof_H 	H 	0.2893	0.888	0.3782	0.008
Mof_N 	N 	0.2991	0.9506	0.2797	-0.109
Mof_N 	N 	0.34382	0.04419	0.3266	-0.165
Mof_N 	N 	0.3224	0.1262	0.34859	-0.117
Mof_N 	N 	0.3095	0.0104	0.4017	-0.174
Mof_O 	O 	0.2569	0.9213	0.3443	-0.361
Mof_H 	H 	0.244	0.929	0.3263	0.257
Mof_O 	O 	0.2707	0.2514	0.3311	-1.393
Mof_H 	H 	0.279	0.264	0.312	0.532
Mof_H 	H 	0.2455	0.2067	0.3628	0.355
Mof_H 	H 	0.2601	0.2345	0.3307	1.128
Mof_C 	C 	0.2906	0.9123	0.3684	0.098
Mof_H 	H 	0.2873	0.8882	0.3819	0.007
Mof_H 	H 	0.3139	0.9114	0.3534	0.016
Mof_O 	O 	0.2806	0.2466	0.382	-0.259
Mof_H 	H 	0.2694	0.2464	0.4038	0.1
Mof_C 	C 	0.8251	0.4677	0.7691	-0.041
Mof_C 	C 	0.8561	0.5291	0.8004	-0.034
Mof_C 	C 	0.7968	0.653	0.8564	-0.157
Mof_H 	H 	0.7766	0.6467	0.8726	0.076
Mof_C 	C 	0.7983	0.6905	0.8414	0.313
Mof_C 	C 	0.8274	0.6989	0.8173	-0.294
Mof_H 	H 	0.8294	0.7233	0.8068	0.165
Mof_C 	C 	0.8541	0.6712	0.8083	0.079
Mof_H 	H 	0.8737	0.6764	0.7911	0.005
Mof_C 	C 	0.8512	0.6353	0.8254	-0.049
Mof_H 	H 	0.87	0.6171	0.8203	0.043
Mof_C 	C 	0.8018	0.4794	0.8793	0.035
Mof_H 	H 	0.8043	0.4813	0.8528	0.03
Mof_C 	C 	0.7905	0.4456	0.8955	-0.041
Mof_C 	C 	0.7885	0.4423	0.9342	0.019
Mof_H 	H 	0.7812	0.4191	0.9452	0.024
Mof_C 	C 	0.7967	0.4712	0.956	-0.122
Mof_H 	H 	0.795	0.469	0.9825	0.079
Mof_C 	C 	0.808	0.5057	0.9391	0.079
Mof_H 	H 	0.8146	0.5261	0.9549	-0.004
Mof_C 	C 	0.7679	0.7202	0.8533	-0.826
Mof_H 	H 	0.7701	0.7249	0.8806	0.409
Mof_H 	H 	0.7425	0.7101	0.8484	-0.201
Mof_C 	C 	0.7711	0.4088	0.8808	-0.007
Mof_H 	H 	0.7504	0.4008	0.8976	0.058
Mof_H 	H 	0.7893	0.388	0.8782	0.008
Mof_N 	N 	0.7991	0.4506	0.7797	-0.109
Mof_N 	N 	0.84382	0.54419	0.8266	-0.165
Mof_N 	N 	0.8224	0.6262	0.84859	-0.117
Mof_N 	N 	0.8095	0.5104	0.9017	-0.174
Mof_O 	O 	0.7569	0.4213	0.8443	-0.361
Mof_H 	H 	0.744	0.429	0.8263	0.256
Mof_O 	O 	0.7707	0.7514	0.8311	-1.393
Mof_H 	H 	0.779	0.764	0.812	0.532
Mof_H 	H 	0.7455	0.7067	0.8628	0.354
Mof_H 	H 	0.7601	0.7345	0.8307	1.127
Mof_C 	C 	0.7906	0.4123	0.8684	0.097
Mof_H 	H 	0.7873	0.3882	0.8819	0.007
Mof_H 	H 	0.8139	0.4114	0.8534	0.017
Mof_O 	O 	0.7806	0.7466	0.882	-0.259
Mof_H 	H 	0.7694	0.7464	0.9038	0.1
Mof_Fe	Fe	0.125	0.81796	0.06796	0.628
Mof_Fe	Fe	0.625	0.31796	0.56796	0.628
Mof_Fe	Fe	0.375	0.18204	0.56796	0.628
Mof_Fe	Fe	0.875	0.68204	0.06796	0.628
Mof_Fe	Fe	0.875	0.31796	0.43204	0.628
Mof_Fe	Fe	0.375	0.81796	0.93204	0.629
Mof_Fe	Fe	0.625	0.68204	0.93204	0.629
Mof_Fe	Fe	0.125	0.18204	0.43204	0.628
Mof_Fe	Fe	0.06796	0.125	0.81796	0.628
Mof_Fe	Fe	0.56796	0.625	0.31796	0.628
Mof_Fe	Fe	0.56796	0.375	0.18204	0.628
Mof_Fe	Fe	0.06796	0.875	0.68204	0.628
Mof_Fe	Fe	0.43204	0.875	0.31796	0.628
Mof_Fe	Fe	0.93204	0.375	0.81796	0.629
Mof_Fe	Fe	0.93204	0.625	0.68204	0.629
Mof_Fe	Fe	0.43204	0.125	0.18204	0.628
Mof_Fe	Fe	0.81796	0.06796	0.125	0.628
Mof_Fe	Fe	0.31796	0.56796	0.625	0.628
Mof_Fe	Fe	0.18204	0.56796	0.375	0.628
Mof_Fe	Fe	0.68204	0.06796	0.875	0.628
Mof_Fe	Fe	0.31796	0.43204	0.875	0.628
Mof_Fe	Fe	0.81796	0.93204	0.375	0.629
Mof_Fe	Fe	0.68204	0.93204	0.625	0.629
Mof_Fe	Fe	0.18204	0.43204	0.125	0.628
Mof_Fe	Fe	0.875	0.18204	0.93204	0.629
Mof_Fe	Fe	0.375	0.68204	0.43204	0.628
Mof_Fe	Fe	0.625	0.81796	0.43204	0.628
Mof_Fe	Fe	0.125	0.31796	0.93204	0.629
Mof_Fe	Fe	0.125	0.68204	0.56796	0.628
Mof_Fe	Fe	0.625	0.18204	0.06796	0.628
Mof_Fe	Fe	0.375	0.31796	0.06796	0.628
Mof_Fe	Fe	0.875	0.81796	0.56796	0.628
Mof_Fe	Fe	0.93204	0.875	0.18204	0.629
Mof_Fe	Fe	0.43204	0.375	0.68204	0.628
Mof_Fe	Fe	0.43204	0.625	0.81796	0.628
Mof_Fe	Fe	0.93204	0.125	0.31796	0.629
Mof_Fe	Fe	0.56796	0.125	0.68204	0.628
Mof_Fe	Fe	0.06796	0.625	0.18204	0.628
Mof_Fe	Fe	0.06796	0.375	0.31796	0.628
Mof_Fe	Fe	0.56796	0.875	0.81796	0.628
Mof_Fe	Fe	0.18204	0.93204	0.875	0.629
Mof_Fe	Fe	0.68204	0.43204	0.375	0.628
Mof_Fe	Fe	0.81796	0.43204	0.625	0.628
Mof_Fe	Fe	0.31796	0.93204	0.125	0.629
Mof_Fe	Fe	0.68204	0.56796	0.125	0.628
Mof_Fe	Fe	0.18204	0.06796	0.625	0.628
Mof_Fe	Fe	0.31796	0.06796	0.375	0.628
Mof_Fe	Fe	0.81796	0.56796	0.875	0.628
Mof_W 	W 	-4.28999e-33	0.75	0.125	0.517
Mof_W 	W 	0.5	0.25	0.625	0.524
Mof_W 	W 	6.16469e-33	0.25	0.375	0.517
Mof_W 	W 	0.5	0.75	0.875	0.524
Mof_W 	W 	0.125	0	0.75	0.517
Mof_W 	W 	0.625	0.5	0.25	0.524
Mof_W 	W 	0.375	2.37933e-33	0.25	0.517
Mof_W 	W 	0.875	0.5	0.75	0.524
Mof_W 	W 	0.75	0.125	-0	0.517
Mof_W 	W 	0.25	0.625	0.5	0.524
Mof_W 	W 	0.25	0.375	-0	0.517
Mof_W 	W 	0.75	0.875	0.5	0.524
Mof_W 	W 	0.5	0.25	0.125	0.524
Mof_W 	W 	7.10204e-33	0.75	0.625	0.517
Mof_W 	W 	1.2798e-32	0.25	0.875	0.517
Mof_W 	W 	0.5	0.75	0.375	0.524
Mof_W 	W 	0.75	0.375	0.5	0.524
Mof_W 	W 	0.25	0.875	-0	0.517
Mof_W 	W 	0.75	0.625	-0	0.517
Mof_W 	W 	0.25	0.125	0.5	0.524
Mof_W 	W 	0.875	2.37933e-33	0.25	0.517
Mof_W 	W 	0.375	0.5	0.75	0.524
Mof_W 	W 	0.125	0.5	0.25	0.524
Mof_W 	W 	0.625	0	0.75	0.517
_end
