data_functionalizedCrystal
_audit_creation_method	'EQeq! by Chris Wilmer'
_symmetry_space_group_name_H-M	'P1'
_symmetry_Int_Tables_number	1
_symmetry_cell_setting	triclinic
loop_
_symmetry_equiv_pos_as_xyz
  x,y,z
_cell_length_a	7.6112
_cell_length_b	11.927
_cell_length_c	12.13
_cell_angle_alpha	67.602
_cell_angle_beta	89.92
_cell_angle_gamma	80.498
loop_
_atom_site_label
_atom_site_type_symbol
_atom_site_fract_x
_atom_site_fract_y
_atom_site_fract_z
_atom_site_charge
Mof_Ho	Ho	0.99247	0.85483	0.35481	1.944
Mof_Ho	Ho	0.49254	0.85507	0.2538	1.931
Mof_O 	O 	0.461	0.6453	0.2621	-0.458
Mof_O 	O 	0.2735	0.725	0.3591	-0.598
Mof_O 	O 	0.2827	0.8886	0.1001	-0.528
Mof_O 	O 	0.2188	0.1065	0.516	-0.522
Mof_O 	O 	0.4856	0.1483	0.5398	-0.508
Mof_O 	O 	0.2364	0.9769	0.288	-0.579
Mof_O 	O 	0.9892	0.0659	0.3288	-0.44
Mof_O 	O 	0.0375	0.3497	0.4945	-0.436
Mof_O 	O 	0.2311	0.273	0.6509	-0.604
Mof_O 	O 	0.2602	0.0235	0.7732	-0.589
Mof_O 	O 	0.5153	0.9298	0.884	-0.447
Mof_C 	C 	0.36	0.9273	0.8536	0.397
Mof_C 	C 	0.274	0.8118	0.9131	-0.191
Mof_H 	H 	0.3626	0.7476	0.9695	0.085
Mof_H 	H 	0.2445	0.783	0.8519	0.084
Mof_C 	C 	0.107	0.828	0.9786	-0.274
Mof_H 	H 	0.0189	0.8935	0.9233	0.111
Mof_H 	H 	0.0574	0.7524	0.0031	0.1
Mof_C 	C 	0.365	0.1393	0.4796	0.521
Mof_C 	C 	0.224	0.1904	0.2707	-0.208
Mof_H 	H 	0.1345	0.2529	0.2807	0.088
Mof_H 	H 	0.2534	0.2204	0.1877	0.086
Mof_C 	C 	0.395	0.17	0.3516	-0.316
Mof_H 	H 	0.482	0.1044	0.3444	0.118
Mof_H 	H 	0.4466	0.2447	0.3219	0.115
Mof_C 	C 	0.148	0.074	0.2994	0.395
Mof_O 	O 	0.02	0.8452	0.1608	-0.521
Mof_C 	C 	0.331	0.636	0.3231	0.441
Mof_C 	C 	0.137	0.8572	0.0905	0.515
Mof_C 	C 	0.178	0.3562	0.5488	0.383
Mof_C 	C 	0.294	0.455	0.4917	-0.184
Mof_H 	H 	0.2863	0.5092	0.5349	0.089
Mof_H 	H 	0.4179	0.4155	0.4981	0.068
Mof_C 	C 	0.234	0.5319	0.3591	-0.307
Mof_H 	H 	0.2648	0.4831	0.3113	0.117
Mof_H 	H 	0.1064	0.561	0.3493	0.121
Mof_Ho	Ho	0.00753	0.14517	0.64519	1.945
Mof_Ho	Ho	0.50746	0.14493	0.7462	1.932
Mof_O 	O 	0.539	0.3547	0.7379	-0.458
Mof_O 	O 	0.7265	0.275	0.6409	-0.598
Mof_O 	O 	0.7173	0.1114	0.8999	-0.528
Mof_O 	O 	0.7812	0.8935	0.484	-0.522
Mof_O 	O 	0.5144	0.8517	0.4602	-0.508
Mof_O 	O 	0.7636	0.0231	0.712	-0.579
Mof_O 	O 	0.0108	0.9341	0.6712	-0.44
Mof_O 	O 	0.9625	0.6503	0.5055	-0.436
Mof_O 	O 	0.7689	0.727	0.3491	-0.604
Mof_O 	O 	0.7398	0.9765	0.2268	-0.589
Mof_O 	O 	0.4847	0.0702	0.116	-0.447
Mof_C 	C 	0.64	0.0727	0.1464	0.397
Mof_C 	C 	0.726	0.1882	0.0869	-0.191
Mof_H 	H 	0.6374	0.2524	0.0305	0.085
Mof_H 	H 	0.7555	0.217	0.1481	0.084
Mof_C 	C 	0.893	0.172	0.0214	-0.274
Mof_H 	H 	0.9811	0.1065	0.0767	0.111
Mof_H 	H 	0.9426	0.2476	0.9969	0.1
Mof_C 	C 	0.635	0.8607	0.5204	0.521
Mof_C 	C 	0.776	0.8096	0.7293	-0.208
Mof_H 	H 	0.8655	0.7471	0.7193	0.088
Mof_H 	H 	0.7466	0.7796	0.8123	0.086
Mof_C 	C 	0.605	0.83	0.6484	-0.316
Mof_H 	H 	0.518	0.8956	0.6556	0.118
Mof_H 	H 	0.5534	0.7553	0.6781	0.115
Mof_C 	C 	0.852	0.926	0.7006	0.395
Mof_O 	O 	0.98	0.1548	0.8392	-0.521
Mof_C 	C 	0.669	0.364	0.6769	0.441
Mof_C 	C 	0.863	0.1428	0.9095	0.515
Mof_C 	C 	0.822	0.6438	0.4512	0.383
Mof_C 	C 	0.706	0.545	0.5083	-0.184
Mof_H 	H 	0.7137	0.4908	0.4651	0.089
Mof_H 	H 	0.5821	0.5845	0.5019	0.068
Mof_C 	C 	0.766	0.4681	0.6409	-0.307
Mof_H 	H 	0.7352	0.5169	0.6887	0.117
Mof_H 	H 	0.8936	0.439	0.6507	0.121
_end
