data_functionalizedCrystal
_audit_creation_method	'EQeq! by Chris Wilmer'
_symmetry_space_group_name_H-M	'P1'
_symmetry_Int_Tables_number	1
_symmetry_cell_setting	triclinic
loop_
_symmetry_equiv_pos_as_xyz
  x,y,z
_cell_length_a	15.307
_cell_length_b	15.307
_cell_length_c	15.695
_cell_angle_alpha	90
_cell_angle_beta	90
_cell_angle_gamma	120
loop_
_atom_site_label
_atom_site_type_symbol
_atom_site_fract_x
_atom_site_fract_y
_atom_site_fract_z
_atom_site_charge
Mof_Gd	Gd	0.33333	0.66666	0.75	1.741
Mof_Gd	Gd	0.66667	0.33334	0.75	1.742
Mof_Gd	Gd	0.66667	0.33334	0.25	1.73
Mof_Gd	Gd	0.33333	0.66666	0.25	1.73
Mof_Mn	Mn	0.5	0.5	-0	0.783
Mof_Mn	Mn	-0	0.5	-0	0.702
Mof_Mn	Mn	0.5	0	-0	0.702
Mof_Mn	Mn	8.61059e-18	0.5	0.5	0.842
Mof_Mn	Mn	0.5	0.5	0.5	0.925
Mof_Mn	Mn	0.5	0	0.5	0.842
Mof_H 	H 	0.2345	0.2894	0.8428	0.062
Mof_H 	H 	0.0549	0.7655	0.8428	0.057
Mof_H 	H 	0.7106	0.9451	0.8428	0.084
Mof_H 	H 	0.7655	0.7106	0.8428	0.073
Mof_H 	H 	0.9451	0.2345	0.8428	0.079
Mof_H 	H 	0.2894	0.0549	0.8428	0.052
Mof_H 	H 	0.9451	0.7106	0.6572	0.07
Mof_H 	H 	0.2894	0.2345	0.6572	0.046
Mof_H 	H 	0.7655	0.0549	0.6572	0.042
Mof_H 	H 	0.0549	0.2894	0.6572	0.036
Mof_H 	H 	0.7106	0.7655	0.6572	0.058
Mof_H 	H 	0.2345	0.9451	0.6572	0.065
Mof_H 	H 	0.7655	0.7106	0.1572	0.045
Mof_H 	H 	0.9451	0.2345	0.1572	0.052
Mof_H 	H 	0.2894	0.0549	0.1572	0.023
Mof_H 	H 	0.2345	0.2894	0.1572	0.033
Mof_H 	H 	0.0549	0.7655	0.1572	0.029
Mof_H 	H 	0.7106	0.9451	0.1572	0.057
Mof_H 	H 	0.0549	0.2894	0.3428	0.034
Mof_H 	H 	0.7106	0.7655	0.3428	0.056
Mof_H 	H 	0.2345	0.9451	0.3428	0.063
Mof_H 	H 	0.9451	0.7106	0.3428	0.068
Mof_H 	H 	0.2894	0.2345	0.3428	0.044
Mof_H 	H 	0.7655	0.0549	0.3428	0.04
Mof_H 	H 	0.1005	0.201	0.75	0.024
Mof_H 	H 	0.1005	0.8995	0.75	0.041
Mof_H 	H 	0.799	0.8995	0.75	0.06
Mof_H 	H 	0.8995	0.799	0.75	0.06
Mof_H 	H 	0.8995	0.1005	0.75	0.041
Mof_H 	H 	0.201	0.1005	0.75	0.024
Mof_H 	H 	0.8995	0.799	0.25	0.056
Mof_H 	H 	0.8995	0.1005	0.25	0.038
Mof_H 	H 	0.201	0.1005	0.25	0.02
Mof_H 	H 	0.1005	0.201	0.25	0.02
Mof_H 	H 	0.1005	0.8995	0.25	0.038
Mof_H 	H 	0.799	0.8995	0.25	0.056
Mof_C 	C 	0.3525	0.4925	0.8596	0.355
Mof_C 	C 	0.2652	0.4269	0.8034	-0.019
Mof_C 	C 	0.2151	0.3235	0.8051	-0.035
Mof_C 	C 	0.14	0.6475	0.8596	0.353
Mof_C 	C 	0.1617	0.7348	0.8034	-0.018
Mof_C 	C 	0.1084	0.7849	0.8051	-0.033
Mof_C 	C 	0.5075	0.86	0.8596	0.349
Mof_C 	C 	0.5731	0.8383	0.8034	-0.005
Mof_C 	C 	0.6765	0.8916	0.8051	-0.029
Mof_C 	C 	0.6475	0.5075	0.8596	0.356
Mof_C 	C 	0.7348	0.5731	0.8034	-0.011
Mof_C 	C 	0.7849	0.6765	0.8051	-0.028
Mof_C 	C 	0.86	0.3525	0.8596	0.348
Mof_C 	C 	0.8383	0.2652	0.8034	-0.008
Mof_C 	C 	0.8916	0.2151	0.8051	-0.033
Mof_C 	C 	0.4925	0.14	0.8596	0.352
Mof_C 	C 	0.4269	0.1617	0.8034	-0.023
Mof_C 	C 	0.3235	0.1084	0.8051	-0.036
Mof_C 	C 	0.86	0.5075	0.6404	0.36
Mof_C 	C 	0.8383	0.5731	0.6966	-0.017
Mof_C 	C 	0.8916	0.6765	0.6949	-0.027
Mof_C 	C 	0.4925	0.3525	0.6404	0.366
Mof_C 	C 	0.4269	0.2652	0.6966	-0.033
Mof_C 	C 	0.3235	0.2151	0.6949	-0.032
Mof_C 	C 	0.6475	0.14	0.6404	0.364
Mof_C 	C 	0.7348	0.1617	0.6966	-0.031
Mof_C 	C 	0.7849	0.1084	0.6949	-0.03
Mof_C 	C 	0.14	0.4925	0.6404	0.363
Mof_C 	C 	0.1617	0.4269	0.6966	-0.036
Mof_C 	C 	0.1084	0.3235	0.6949	-0.033
Mof_C 	C 	0.5075	0.6475	0.6404	0.367
Mof_C 	C 	0.5731	0.7348	0.6966	-0.024
Mof_C 	C 	0.6765	0.7849	0.6949	-0.025
Mof_C 	C 	0.3525	0.86	0.6404	0.359
Mof_C 	C 	0.2652	0.8383	0.6966	-0.021
Mof_C 	C 	0.2151	0.8916	0.6949	-0.031
Mof_C 	C 	0.6475	0.5075	0.1404	0.362
Mof_C 	C 	0.7348	0.5731	0.1966	-0.034
Mof_C 	C 	0.7849	0.6765	0.1949	-0.02
Mof_C 	C 	0.86	0.3525	0.1404	0.354
Mof_C 	C 	0.8383	0.2652	0.1966	-0.03
Mof_C 	C 	0.8916	0.2151	0.1949	-0.025
Mof_C 	C 	0.4925	0.14	0.1404	0.358
Mof_C 	C 	0.4269	0.1617	0.1966	-0.046
Mof_C 	C 	0.3235	0.1084	0.1949	-0.028
Mof_C 	C 	0.3525	0.4925	0.1404	0.361
Mof_C 	C 	0.2652	0.4269	0.1966	-0.043
Mof_C 	C 	0.2151	0.3235	0.1949	-0.027
Mof_C 	C 	0.14	0.6475	0.1404	0.359
Mof_C 	C 	0.1617	0.7348	0.1966	-0.041
Mof_C 	C 	0.1084	0.7849	0.1949	-0.025
Mof_C 	C 	0.5075	0.86	0.1404	0.355
Mof_C 	C 	0.5731	0.8383	0.1966	-0.027
Mof_C 	C 	0.6765	0.8916	0.1949	-0.021
Mof_C 	C 	0.14	0.4925	0.3596	0.364
Mof_C 	C 	0.1617	0.4269	0.3034	-0.041
Mof_C 	C 	0.1084	0.3235	0.3051	-0.027
Mof_C 	C 	0.5075	0.6475	0.3596	0.368
Mof_C 	C 	0.5731	0.7348	0.3034	-0.03
Mof_C 	C 	0.6765	0.7849	0.3051	-0.019
Mof_C 	C 	0.3525	0.86	0.3596	0.36
Mof_C 	C 	0.2652	0.8383	0.3034	-0.026
Mof_C 	C 	0.2151	0.8916	0.3051	-0.025
Mof_C 	C 	0.86	0.5075	0.3596	0.361
Mof_C 	C 	0.8383	0.5731	0.3034	-0.022
Mof_C 	C 	0.8916	0.6765	0.3051	-0.02
Mof_C 	C 	0.4925	0.3525	0.3596	0.367
Mof_C 	C 	0.4269	0.2652	0.3034	-0.038
Mof_C 	C 	0.3235	0.2151	0.3051	-0.026
Mof_C 	C 	0.6475	0.14	0.3596	0.364
Mof_C 	C 	0.7348	0.1617	0.3034	-0.036
Mof_C 	C 	0.7849	0.1084	0.3051	-0.025
Mof_C 	C 	0.13555	0.2711	0.75	-0.039
Mof_C 	C 	0.13555	0.86445	0.75	-0.03
Mof_C 	C 	0.7289	0.86445	0.75	-0.024
Mof_C 	C 	0.86445	0.7289	0.75	-0.024
Mof_C 	C 	0.86445	0.13555	0.75	-0.03
Mof_C 	C 	0.2711	0.13555	0.75	-0.039
Mof_C 	C 	0.86445	0.7289	0.25	-0.039
Mof_C 	C 	0.86445	0.13555	0.25	-0.045
Mof_C 	C 	0.2711	0.13555	0.25	-0.055
Mof_C 	C 	0.13555	0.2711	0.25	-0.055
Mof_C 	C 	0.13555	0.86445	0.25	-0.045
Mof_C 	C 	0.7289	0.86445	0.25	-0.039
Mof_N 	N 	0.23937	0.47874	0.75	-0.178
Mof_N 	N 	0.23937	0.76063	0.75	-0.178
Mof_N 	N 	0.52126	0.76063	0.75	-0.177
Mof_N 	N 	0.76063	0.52126	0.75	-0.177
Mof_N 	N 	0.76063	0.23937	0.75	-0.178
Mof_N 	N 	0.47874	0.23937	0.75	-0.178
Mof_N 	N 	0.76063	0.52126	0.25	-0.175
Mof_N 	N 	0.76063	0.23937	0.25	-0.175
Mof_N 	N 	0.47874	0.23937	0.25	-0.175
Mof_N 	N 	0.23937	0.47874	0.25	-0.175
Mof_N 	N 	0.23937	0.76063	0.25	-0.175
Mof_N 	N 	0.52126	0.76063	0.25	-0.175
Mof_O 	O 	0.38675	0.58593	0.85581	-0.39
Mof_O 	O 	0.3841	0.44866	0.90657	-0.315
Mof_O 	O 	0.19918	0.61325	0.85581	-0.392
Mof_O 	O 	0.06456	0.6159	0.90657	-0.318
Mof_O 	O 	0.41407	0.80082	0.85581	-0.378
Mof_O 	O 	0.55134	0.93544	0.90657	-0.275
Mof_O 	O 	0.61325	0.41407	0.85581	-0.389
Mof_O 	O 	0.6159	0.55134	0.90657	-0.31
Mof_O 	O 	0.80082	0.38675	0.85581	-0.378
Mof_O 	O 	0.93544	0.3841	0.90657	-0.277
Mof_O 	O 	0.58593	0.19918	0.85581	-0.393
Mof_O 	O 	0.44866	0.06456	0.90657	-0.32
Mof_O 	O 	0.80082	0.41407	0.64419	-0.404
Mof_O 	O 	0.93544	0.55134	0.59343	-0.335
Mof_O 	O 	0.58593	0.38675	0.64419	-0.417
Mof_O 	O 	0.44866	0.3841	0.59343	-0.377
Mof_O 	O 	0.61325	0.19918	0.64419	-0.419
Mof_O 	O 	0.6159	0.06456	0.59343	-0.38
Mof_O 	O 	0.19918	0.58593	0.64419	-0.42
Mof_O 	O 	0.06456	0.44866	0.59343	-0.382
Mof_O 	O 	0.41407	0.61325	0.64419	-0.415
Mof_O 	O 	0.55134	0.6159	0.59343	-0.372
Mof_O 	O 	0.38675	0.80082	0.64419	-0.405
Mof_O 	O 	0.3841	0.93544	0.59343	-0.338
Mof_O 	O 	0.61325	0.41407	0.14419	-0.424
Mof_O 	O 	0.6159	0.55134	0.09343	-0.379
Mof_O 	O 	0.80082	0.38675	0.14419	-0.413
Mof_O 	O 	0.93544	0.3841	0.09343	-0.344
Mof_O 	O 	0.58593	0.19918	0.14419	-0.428
Mof_O 	O 	0.44866	0.06456	0.09343	-0.389
Mof_O 	O 	0.38675	0.58593	0.14419	-0.425
Mof_O 	O 	0.3841	0.44866	0.09343	-0.384
Mof_O 	O 	0.19918	0.61325	0.14419	-0.427
Mof_O 	O 	0.06456	0.6159	0.09343	-0.387
Mof_O 	O 	0.41407	0.80082	0.14419	-0.412
Mof_O 	O 	0.55134	0.93544	0.09343	-0.342
Mof_O 	O 	0.19918	0.58593	0.35581	-0.419
Mof_O 	O 	0.06456	0.44866	0.40657	-0.383
Mof_O 	O 	0.41407	0.61325	0.35581	-0.414
Mof_O 	O 	0.55134	0.6159	0.40657	-0.372
Mof_O 	O 	0.38675	0.80082	0.35581	-0.403
Mof_O 	O 	0.3841	0.93544	0.40657	-0.337
Mof_O 	O 	0.80082	0.41407	0.35581	-0.403
Mof_O 	O 	0.93544	0.55134	0.40657	-0.335
Mof_O 	O 	0.58593	0.38675	0.35581	-0.416
Mof_O 	O 	0.44866	0.3841	0.40657	-0.377
Mof_O 	O 	0.61325	0.19918	0.35581	-0.418
Mof_O 	O 	0.6159	0.06456	0.40657	-0.38
_end
