data_functionalizedCrystal
_audit_creation_method	'EQeq! by Chris Wilmer'
_symmetry_space_group_name_H-M	'P1'
_symmetry_Int_Tables_number	1
_symmetry_cell_setting	triclinic
loop_
_symmetry_equiv_pos_as_xyz
  x,y,z
_cell_length_a	35.91
_cell_length_b	14.833
_cell_length_c	32.04
_cell_angle_alpha	90
_cell_angle_beta	102.977
_cell_angle_gamma	90
loop_
_atom_site_label
_atom_site_type_symbol
_atom_site_fract_x
_atom_site_fract_y
_atom_site_fract_z
_atom_site_charge
Mof_I 	I 	0.39548	0.76237	0.90472	-0.378
Mof_I 	I 	0.72475	0.23084	0.78916	-0.371
Mof_I 	I 	0.61928	0.15515	0.69325	-0.396
Mof_I 	I 	0.35655	0.91676	0.01091	-0.36
Mof_I 	I 	0.62482	0.74269	0.04369	-0.38
Mof_I 	I 	0.53243	0.65371	0.11554	-0.345
Mof_Zn	Zn	0.66465	0.1317	0.76684	1.161
Mof_Zn	Zn	0.37553	0.90645	0.93862	1.161
Mof_Zn	Zn	0.59	0.62888	0.08142	1.16
Mof_C 	C 	0.643	0.2119	0.8447	0.076
Mof_H 	H 	0.6646	0.2489	0.8447	-0.011
Mof_C 	C 	0.6227	0.2293	0.8744	-0.125
Mof_H 	H 	0.6296	0.2782	0.8938	0.086
Mof_C 	C 	0.592	0.1764	0.8765	0.067
Mof_C 	C 	0.5683	0.1955	0.9088	0.104
Mof_C 	C 	0.5366	0.3922	0.0129	-0.101
Mof_H 	H 	0.5138	0.3591	0.0119	0.066
Mof_C 	C 	0.5634	0.3624	0.9899	0.047
Mof_C 	C 	0.544	0.4711	0.037	0.053
Mof_H 	H 	0.5257	0.4915	0.0523	-0.003
Mof_C 	C 	0.5967	0.4127	0.9919	-0.112
Mof_H 	H 	0.6154	0.395	0.9767	0.078
Mof_C 	C 	0.5204	0.155	0.9408	0.094
Mof_C 	C 	0.6013	0.4907	0.0176	0.068
Mof_H 	H 	0.6239	0.5252	0.0194	-0.013
Mof_C 	C 	0.5561	0.2782	0.963	0.092
Mof_C 	C 	0.4858	0.0986	0.9421	0.046
Mof_C 	C 	0.6054	0.0927	0.817	0.066
Mof_H 	H 	0.5994	0.044	0.7974	-0.014
Mof_C 	C 	0.5828	0.1062	0.8473	-0.114
Mof_H 	H 	0.5616	0.0681	0.8477	0.082
Mof_C 	C 	0.69574	0.5805	0.738	0.101
Mof_C 	C 	0.8235	0.5521	0.8956	0.062
Mof_H 	H 	0.8381	0.5856	0.9189	0
Mof_C 	C 	0.8116	0.4187	0.8587	0.066
Mof_H 	H 	0.8171	0.3566	0.8561	-0.004
Mof_C 	C 	0.6738	0.5275	0.7009	0.051
Mof_C 	C 	0.6566	0.3919	0.6596	0.066
Mof_H 	H 	0.6606	0.3293	0.6559	-0.01
Mof_C 	C 	0.6555	0.9364	0.7468	0.051
Mof_H 	H 	0.6329	0.9582	0.7282	-0.01
Mof_C 	C 	0.7827	0.4578	0.8278	-0.121
Mof_H 	H 	0.7694	0.4235	0.804	0.092
Mof_C 	C 	0.77345	0.5474	0.8321	0.045
Mof_C 	C 	0.70566	0.7139	0.7736	0.103
Mof_C 	C 	0.74259	0.5909	0.7994	0.085
Mof_C 	C 	0.6963	0.811	0.7746	0.049
Mof_C 	C 	0.7202	0.8725	0.8016	-0.108
Mof_H 	H 	0.7425	0.8521	0.8213	0.076
Mof_C 	C 	0.7107	0.9627	0.7991	0.061
Mof_H 	H 	0.7272	0.0038	0.8172	-0.007
Mof_C 	C 	0.6461	0.572	0.6694	-0.111
Mof_H 	H 	0.6419	0.6348	0.6717	0.09
Mof_C 	C 	0.7948	0.5961	0.8669	-0.114
Mof_H 	H 	0.7896	0.658	0.8707	0.08
Mof_C 	C 	0.6252	0.5235	0.6355	0.06
Mof_H 	H 	0.6066	0.5545	0.6146	0.001
Mof_C 	C 	0.6788	0.4357	0.6953	-0.12
Mof_H 	H 	0.6972	0.4029	0.7155	0.08
Mof_C 	C 	0.6633	0.8439	0.7471	-0.106
Mof_H 	H 	0.6464	0.804	0.7289	0.079
Mof_C 	C 	0.4362	0.0002	0.9059	0.066
Mof_H 	H 	0.4239	0.9685	0.8808	-0.01
Mof_C 	C 	0.438	0.0412	0.9759	0.06
Mof_H 	H 	0.4275	0.0378	0.0005	0.001
Mof_C 	C 	0.4698	0.095	0.9773	-0.116
Mof_H 	H 	0.4805	0.129	0.0023	0.075
Mof_C 	C 	0.4681	0.0506	0.9043	-0.111
Mof_H 	H 	0.4779	0.0531	0.8791	0.084
Mof_N 	N 	0.42138	0.9933	0.9406	-0.266
Mof_N 	N 	0.53944	0.1371	0.9099	-0.131
Mof_N 	N 	0.57724	0.2687	0.9333	-0.133
Mof_N 	N 	0.5282	0.2222	0.9705	-0.142
Mof_N 	N 	0.6352	0.1464	0.815	-0.274
Mof_N 	N 	0.57634	0.5193	0.0393	-0.266
Mof_N 	N 	0.62982	0.4346	0.6304	-0.265
Mof_N 	N 	0.68476	0.6667	0.7405	-0.133
Mof_N 	N 	0.72405	0.5395	0.7661	-0.136
Mof_N 	N 	0.73445	0.6796	0.8047	-0.134
Mof_N 	N 	0.83204	0.4647	0.8922	-0.269
Mof_N 	N 	0.67893	0.9961	0.772	-0.267
Mof_I 	I 	0.89548	0.26237	0.90472	-0.379
Mof_I 	I 	0.22475	0.73084	0.78916	-0.371
Mof_I 	I 	0.11928	0.65515	0.69325	-0.396
Mof_I 	I 	0.85655	0.41676	0.01091	-0.361
Mof_I 	I 	0.12482	0.24269	0.04369	-0.38
Mof_I 	I 	0.03243	0.15371	0.11554	-0.345
Mof_Zn	Zn	0.16465	0.6317	0.76684	1.161
Mof_Zn	Zn	0.87553	0.40645	0.93862	1.161
Mof_Zn	Zn	0.09	0.12888	0.08142	1.16
Mof_C 	C 	0.143	0.7119	0.8447	0.076
Mof_H 	H 	0.1646	0.7489	0.8447	-0.011
Mof_C 	C 	0.1227	0.7293	0.8744	-0.124
Mof_H 	H 	0.1296	0.7782	0.8938	0.086
Mof_C 	C 	0.092	0.6764	0.8765	0.067
Mof_C 	C 	0.0683	0.6955	0.9088	0.104
Mof_C 	C 	0.0366	0.8922	0.0129	-0.101
Mof_H 	H 	0.0138	0.8591	0.0119	0.066
Mof_C 	C 	0.0634	0.8624	0.9899	0.047
Mof_C 	C 	0.044	0.9711	0.037	0.053
Mof_H 	H 	0.0257	0.9915	0.0523	-0.003
Mof_C 	C 	0.0967	0.9127	0.9919	-0.111
Mof_H 	H 	0.1154	0.895	0.9767	0.077
Mof_C 	C 	0.0204	0.655	0.9408	0.093
Mof_C 	C 	0.1013	0.9907	0.0176	0.067
Mof_H 	H 	0.1239	0.0252	0.0194	-0.013
Mof_C 	C 	0.0561	0.7782	0.963	0.092
Mof_C 	C 	0.9858	0.5986	0.9421	0.046
Mof_C 	C 	0.1054	0.5927	0.817	0.066
Mof_H 	H 	0.0994	0.544	0.7974	-0.014
Mof_C 	C 	0.0828	0.6062	0.8473	-0.114
Mof_H 	H 	0.0616	0.5681	0.8477	0.082
Mof_C 	C 	0.19574	0.0805	0.738	0.101
Mof_C 	C 	0.3235	0.0521	0.8956	0.061
Mof_H 	H 	0.3381	0.0856	0.9189	0
Mof_C 	C 	0.3116	0.9187	0.8587	0.066
Mof_H 	H 	0.3171	0.8566	0.8561	-0.004
Mof_C 	C 	0.1738	0.0275	0.7009	0.051
Mof_C 	C 	0.1566	0.8919	0.6596	0.066
Mof_H 	H 	0.1606	0.8293	0.6559	-0.01
Mof_C 	C 	0.1555	0.4364	0.7468	0.051
Mof_H 	H 	0.1329	0.4582	0.7282	-0.01
Mof_C 	C 	0.2827	0.9578	0.8278	-0.121
Mof_H 	H 	0.2694	0.9235	0.804	0.092
Mof_C 	C 	0.27345	0.0474	0.8321	0.045
Mof_C 	C 	0.20566	0.2139	0.7736	0.103
Mof_C 	C 	0.24259	0.0909	0.7994	0.085
Mof_C 	C 	0.1963	0.311	0.7746	0.048
Mof_C 	C 	0.2202	0.3725	0.8016	-0.108
Mof_H 	H 	0.2425	0.3521	0.8213	0.075
Mof_C 	C 	0.2107	0.4627	0.7991	0.06
Mof_H 	H 	0.2272	0.5038	0.8172	-0.006
Mof_C 	C 	0.1461	0.072	0.6694	-0.11
Mof_H 	H 	0.1419	0.1348	0.6717	0.09
Mof_C 	C 	0.2948	0.0961	0.8669	-0.114
Mof_H 	H 	0.2896	0.158	0.8707	0.08
Mof_C 	C 	0.1252	0.0235	0.6355	0.06
Mof_H 	H 	0.1066	0.0545	0.6146	0.001
Mof_C 	C 	0.1788	0.9357	0.6953	-0.12
Mof_H 	H 	0.1972	0.9029	0.7155	0.08
Mof_C 	C 	0.1633	0.3439	0.7471	-0.106
Mof_H 	H 	0.1464	0.304	0.7289	0.079
Mof_C 	C 	0.9362	0.5002	0.9059	0.066
Mof_H 	H 	0.9239	0.4685	0.8808	-0.011
Mof_C 	C 	0.938	0.5412	0.9759	0.06
Mof_H 	H 	0.9275	0.5378	0.0005	0.001
Mof_C 	C 	0.9698	0.595	0.9773	-0.116
Mof_H 	H 	0.9805	0.629	0.0023	0.075
Mof_C 	C 	0.9681	0.5506	0.9043	-0.111
Mof_H 	H 	0.9779	0.5531	0.8791	0.084
Mof_N 	N 	0.92138	0.4933	0.9406	-0.267
Mof_N 	N 	0.03944	0.6371	0.9099	-0.131
Mof_N 	N 	0.07724	0.7687	0.9333	-0.133
Mof_N 	N 	0.0282	0.7222	0.9705	-0.142
Mof_N 	N 	0.1352	0.6464	0.815	-0.274
Mof_N 	N 	0.07634	0.0193	0.0393	-0.265
Mof_N 	N 	0.12982	0.9346	0.6304	-0.265
Mof_N 	N 	0.18476	0.1667	0.7405	-0.133
Mof_N 	N 	0.22405	0.0395	0.7661	-0.137
Mof_N 	N 	0.23445	0.1796	0.8047	-0.134
Mof_N 	N 	0.33204	0.9647	0.8922	-0.268
Mof_N 	N 	0.17893	0.4961	0.772	-0.267
Mof_I 	I 	0.39548	0.23763	0.40472	-0.379
Mof_I 	I 	0.72475	0.76916	0.28916	-0.372
Mof_I 	I 	0.61928	0.84485	0.19325	-0.397
Mof_I 	I 	0.35655	0.08324	0.51091	-0.361
Mof_I 	I 	0.62482	0.25731	0.54369	-0.38
Mof_I 	I 	0.53243	0.34629	0.61554	-0.345
Mof_Zn	Zn	0.66465	0.8683	0.26684	1.161
Mof_Zn	Zn	0.37553	0.09355	0.43862	1.161
Mof_Zn	Zn	0.59	0.37112	0.58142	1.16
Mof_C 	C 	0.643	0.7881	0.3447	0.076
Mof_H 	H 	0.6646	0.7511	0.3447	-0.011
Mof_C 	C 	0.6227	0.7707	0.3744	-0.125
Mof_H 	H 	0.6296	0.7218	0.3938	0.086
Mof_C 	C 	0.592	0.8236	0.3765	0.067
Mof_C 	C 	0.5683	0.8045	0.4088	0.104
Mof_C 	C 	0.5366	0.6078	0.5129	-0.101
Mof_H 	H 	0.5138	0.6409	0.5119	0.066
Mof_C 	C 	0.5634	0.6376	0.4899	0.047
Mof_C 	C 	0.544	0.5289	0.537	0.053
Mof_H 	H 	0.5257	0.5085	0.5523	-0.003
Mof_C 	C 	0.5967	0.5873	0.4919	-0.112
Mof_H 	H 	0.6154	0.605	0.4767	0.078
Mof_C 	C 	0.5204	0.845	0.4408	0.094
Mof_C 	C 	0.6013	0.5093	0.5176	0.068
Mof_H 	H 	0.6239	0.4748	0.5194	-0.013
Mof_C 	C 	0.5561	0.7218	0.463	0.092
Mof_C 	C 	0.4858	0.9014	0.4421	0.046
Mof_C 	C 	0.6054	0.9073	0.317	0.066
Mof_H 	H 	0.5994	0.956	0.2974	-0.014
Mof_C 	C 	0.5828	0.8938	0.3473	-0.114
Mof_H 	H 	0.5616	0.9319	0.3477	0.082
Mof_C 	C 	0.69574	0.4195	0.238	0.101
Mof_C 	C 	0.8235	0.4479	0.3956	0.062
Mof_H 	H 	0.8381	0.4144	0.4189	0
Mof_C 	C 	0.8116	0.5813	0.3587	0.066
Mof_H 	H 	0.8171	0.6434	0.3561	-0.004
Mof_C 	C 	0.6738	0.4725	0.2009	0.051
Mof_C 	C 	0.6566	0.6081	0.1596	0.066
Mof_H 	H 	0.6606	0.6707	0.1559	-0.01
Mof_C 	C 	0.6555	0.0636	0.2468	0.051
Mof_H 	H 	0.6329	0.0418	0.2282	-0.01
Mof_C 	C 	0.7827	0.5422	0.3278	-0.121
Mof_H 	H 	0.7694	0.5765	0.304	0.092
Mof_C 	C 	0.77345	0.4526	0.3321	0.045
Mof_C 	C 	0.70566	0.2861	0.2736	0.103
Mof_C 	C 	0.74259	0.4091	0.2994	0.085
Mof_C 	C 	0.6963	0.189	0.2746	0.049
Mof_C 	C 	0.7202	0.1275	0.3016	-0.108
Mof_H 	H 	0.7425	0.1479	0.3213	0.076
Mof_C 	C 	0.7107	0.0373	0.2991	0.061
Mof_H 	H 	0.7272	0.9962	0.3172	-0.007
Mof_C 	C 	0.6461	0.428	0.1694	-0.111
Mof_H 	H 	0.6419	0.3652	0.1717	0.09
Mof_C 	C 	0.7948	0.4039	0.3669	-0.114
Mof_H 	H 	0.7896	0.342	0.3707	0.08
Mof_C 	C 	0.6252	0.4765	0.1355	0.06
Mof_H 	H 	0.6066	0.4455	0.1146	0.001
Mof_C 	C 	0.6788	0.5643	0.1953	-0.12
Mof_H 	H 	0.6972	0.5971	0.2155	0.08
Mof_C 	C 	0.6633	0.1561	0.2471	-0.106
Mof_H 	H 	0.6464	0.196	0.2289	0.079
Mof_C 	C 	0.4362	0.9998	0.4059	0.066
Mof_H 	H 	0.4239	0.0315	0.3808	-0.01
Mof_C 	C 	0.438	0.9588	0.4759	0.06
Mof_H 	H 	0.4275	0.9622	0.5005	0.001
Mof_C 	C 	0.4698	0.905	0.4773	-0.116
Mof_H 	H 	0.4805	0.871	0.5023	0.075
Mof_C 	C 	0.4681	0.9494	0.4043	-0.111
Mof_H 	H 	0.4779	0.9469	0.3791	0.084
Mof_N 	N 	0.42138	0.0067	0.4406	-0.267
Mof_N 	N 	0.53944	0.8629	0.4099	-0.131
Mof_N 	N 	0.57724	0.7313	0.4333	-0.133
Mof_N 	N 	0.5282	0.7778	0.4705	-0.142
Mof_N 	N 	0.6352	0.8536	0.315	-0.274
Mof_N 	N 	0.57634	0.4807	0.5393	-0.266
Mof_N 	N 	0.62982	0.5654	0.1304	-0.265
Mof_N 	N 	0.68476	0.3333	0.2405	-0.133
Mof_N 	N 	0.72405	0.4605	0.2661	-0.136
Mof_N 	N 	0.73445	0.3204	0.3047	-0.134
Mof_N 	N 	0.83204	0.5353	0.3922	-0.268
Mof_N 	N 	0.67893	0.0039	0.272	-0.267
Mof_I 	I 	0.89548	0.73763	0.40472	-0.379
Mof_I 	I 	0.22475	0.26916	0.28916	-0.371
Mof_I 	I 	0.11928	0.34485	0.19325	-0.396
Mof_I 	I 	0.85655	0.58324	0.51091	-0.361
Mof_I 	I 	0.12482	0.75731	0.54369	-0.38
Mof_I 	I 	0.03243	0.84629	0.61554	-0.345
Mof_Zn	Zn	0.16465	0.3683	0.26684	1.161
Mof_Zn	Zn	0.87553	0.59355	0.43862	1.161
Mof_Zn	Zn	0.09	0.87112	0.58142	1.16
Mof_C 	C 	0.143	0.2881	0.3447	0.076
Mof_H 	H 	0.1646	0.2511	0.3447	-0.011
Mof_C 	C 	0.1227	0.2707	0.3744	-0.124
Mof_H 	H 	0.1296	0.2218	0.3938	0.086
Mof_C 	C 	0.092	0.3236	0.3765	0.067
Mof_C 	C 	0.0683	0.3045	0.4088	0.104
Mof_C 	C 	0.0366	0.1078	0.5129	-0.101
Mof_H 	H 	0.0138	0.1409	0.5119	0.066
Mof_C 	C 	0.0634	0.1376	0.4899	0.047
Mof_C 	C 	0.044	0.0289	0.537	0.053
Mof_H 	H 	0.0257	0.0085	0.5523	-0.003
Mof_C 	C 	0.0967	0.0873	0.4919	-0.111
Mof_H 	H 	0.1154	0.105	0.4767	0.077
Mof_C 	C 	0.0204	0.345	0.4408	0.093
Mof_C 	C 	0.1013	0.0093	0.5176	0.068
Mof_H 	H 	0.1239	0.9748	0.5194	-0.013
Mof_C 	C 	0.0561	0.2218	0.463	0.092
Mof_C 	C 	0.9858	0.4014	0.4421	0.046
Mof_C 	C 	0.1054	0.4073	0.317	0.066
Mof_H 	H 	0.0994	0.456	0.2974	-0.014
Mof_C 	C 	0.0828	0.3938	0.3473	-0.114
Mof_H 	H 	0.0616	0.4319	0.3477	0.082
Mof_C 	C 	0.19574	0.9195	0.238	0.101
Mof_C 	C 	0.3235	0.9479	0.3956	0.061
Mof_H 	H 	0.3381	0.9144	0.4189	0
Mof_C 	C 	0.3116	0.0813	0.3587	0.066
Mof_H 	H 	0.3171	0.1434	0.3561	-0.004
Mof_C 	C 	0.1738	0.9725	0.2009	0.051
Mof_C 	C 	0.1566	0.1081	0.1596	0.066
Mof_H 	H 	0.1606	0.1707	0.1559	-0.01
Mof_C 	C 	0.1555	0.5636	0.2468	0.051
Mof_H 	H 	0.1329	0.5418	0.2282	-0.01
Mof_C 	C 	0.2827	0.0422	0.3278	-0.121
Mof_H 	H 	0.2694	0.0765	0.304	0.092
Mof_C 	C 	0.27345	0.9526	0.3321	0.045
Mof_C 	C 	0.20566	0.7861	0.2736	0.103
Mof_C 	C 	0.24259	0.9091	0.2994	0.085
Mof_C 	C 	0.1963	0.689	0.2746	0.048
Mof_C 	C 	0.2202	0.6275	0.3016	-0.108
Mof_H 	H 	0.2425	0.6479	0.3213	0.075
Mof_C 	C 	0.2107	0.5373	0.2991	0.06
Mof_H 	H 	0.2272	0.4962	0.3172	-0.006
Mof_C 	C 	0.1461	0.928	0.1694	-0.11
Mof_H 	H 	0.1419	0.8652	0.1717	0.09
Mof_C 	C 	0.2948	0.9039	0.3669	-0.114
Mof_H 	H 	0.2896	0.842	0.3707	0.08
Mof_C 	C 	0.1252	0.9765	0.1355	0.06
Mof_H 	H 	0.1066	0.9455	0.1146	0.001
Mof_C 	C 	0.1788	0.0643	0.1953	-0.119
Mof_H 	H 	0.1972	0.0971	0.2155	0.08
Mof_C 	C 	0.1633	0.6561	0.2471	-0.106
Mof_H 	H 	0.1464	0.696	0.2289	0.079
Mof_C 	C 	0.9362	0.4998	0.4059	0.066
Mof_H 	H 	0.9239	0.5315	0.3808	-0.011
Mof_C 	C 	0.938	0.4588	0.4759	0.06
Mof_H 	H 	0.9275	0.4622	0.5005	0.001
Mof_C 	C 	0.9698	0.405	0.4773	-0.116
Mof_H 	H 	0.9805	0.371	0.5023	0.075
Mof_C 	C 	0.9681	0.4494	0.4043	-0.111
Mof_H 	H 	0.9779	0.4469	0.3791	0.084
Mof_N 	N 	0.92138	0.5067	0.4406	-0.267
Mof_N 	N 	0.03944	0.3629	0.4099	-0.131
Mof_N 	N 	0.07724	0.2313	0.4333	-0.133
Mof_N 	N 	0.0282	0.2778	0.4705	-0.142
Mof_N 	N 	0.1352	0.3536	0.315	-0.274
Mof_N 	N 	0.07634	0.9807	0.5393	-0.265
Mof_N 	N 	0.12982	0.0654	0.1304	-0.265
Mof_N 	N 	0.18476	0.8333	0.2405	-0.133
Mof_N 	N 	0.22405	0.9605	0.2661	-0.137
Mof_N 	N 	0.23445	0.8204	0.3047	-0.134
Mof_N 	N 	0.33204	0.0353	0.3922	-0.268
Mof_N 	N 	0.17893	0.5039	0.272	-0.267
Mof_I 	I 	0.60452	0.76237	0.59528	-0.379
Mof_I 	I 	0.27525	0.23084	0.71084	-0.372
Mof_I 	I 	0.38072	0.15515	0.80675	-0.397
Mof_I 	I 	0.64345	0.91676	0.48909	-0.361
Mof_I 	I 	0.37518	0.74269	0.45631	-0.38
Mof_I 	I 	0.46757	0.65371	0.38446	-0.345
Mof_Zn	Zn	0.33535	0.1317	0.73316	1.161
Mof_Zn	Zn	0.62447	0.90645	0.56138	1.161
Mof_Zn	Zn	0.41	0.62888	0.41858	1.16
Mof_C 	C 	0.357	0.2119	0.6553	0.076
Mof_H 	H 	0.3354	0.2489	0.6553	-0.011
Mof_C 	C 	0.3773	0.2293	0.6256	-0.125
Mof_H 	H 	0.3704	0.2782	0.6062	0.086
Mof_C 	C 	0.408	0.1764	0.6235	0.067
Mof_C 	C 	0.4317	0.1955	0.5912	0.104
Mof_C 	C 	0.4634	0.3922	0.4871	-0.101
Mof_H 	H 	0.4862	0.3591	0.4881	0.066
Mof_C 	C 	0.4366	0.3624	0.5101	0.047
Mof_C 	C 	0.456	0.4711	0.463	0.053
Mof_H 	H 	0.4743	0.4915	0.4477	-0.003
Mof_C 	C 	0.4033	0.4127	0.5081	-0.112
Mof_H 	H 	0.3846	0.395	0.5233	0.078
Mof_C 	C 	0.4796	0.155	0.5592	0.094
Mof_C 	C 	0.3987	0.4907	0.4824	0.068
Mof_H 	H 	0.3761	0.5252	0.4806	-0.013
Mof_C 	C 	0.4439	0.2782	0.537	0.092
Mof_C 	C 	0.5142	0.0986	0.5579	0.046
Mof_C 	C 	0.3946	0.0927	0.683	0.066
Mof_H 	H 	0.4006	0.044	0.7026	-0.014
Mof_C 	C 	0.4172	0.1062	0.6527	-0.114
Mof_H 	H 	0.4384	0.0681	0.6523	0.082
Mof_C 	C 	0.30426	0.5805	0.762	0.101
Mof_C 	C 	0.1765	0.5521	0.6044	0.062
Mof_H 	H 	0.1619	0.5856	0.5811	0
Mof_C 	C 	0.1884	0.4187	0.6413	0.066
Mof_H 	H 	0.1829	0.3566	0.6439	-0.004
Mof_C 	C 	0.3262	0.5275	0.7991	0.051
Mof_C 	C 	0.3434	0.3919	0.8404	0.066
Mof_H 	H 	0.3394	0.3293	0.8441	-0.01
Mof_C 	C 	0.3445	0.9364	0.7532	0.051
Mof_H 	H 	0.3671	0.9582	0.7718	-0.01
Mof_C 	C 	0.2173	0.4578	0.6722	-0.121
Mof_H 	H 	0.2306	0.4235	0.696	0.092
Mof_C 	C 	0.22655	0.5474	0.6679	0.045
Mof_C 	C 	0.29434	0.7139	0.7264	0.103
Mof_C 	C 	0.25741	0.5909	0.7006	0.085
Mof_C 	C 	0.3037	0.811	0.7254	0.049
Mof_C 	C 	0.2798	0.8725	0.6984	-0.108
Mof_H 	H 	0.2575	0.8521	0.6787	0.076
Mof_C 	C 	0.2893	0.9627	0.7009	0.061
Mof_H 	H 	0.2728	0.0038	0.6828	-0.007
Mof_C 	C 	0.3539	0.572	0.8306	-0.111
Mof_H 	H 	0.3581	0.6348	0.8283	0.09
Mof_C 	C 	0.2052	0.5961	0.6331	-0.114
Mof_H 	H 	0.2104	0.658	0.6293	0.08
Mof_C 	C 	0.3748	0.5235	0.8645	0.06
Mof_H 	H 	0.3934	0.5545	0.8854	0.001
Mof_C 	C 	0.3212	0.4357	0.8047	-0.12
Mof_H 	H 	0.3028	0.4029	0.7845	0.08
Mof_C 	C 	0.3367	0.8439	0.7529	-0.106
Mof_H 	H 	0.3536	0.804	0.7711	0.079
Mof_C 	C 	0.5638	0.0002	0.5941	0.066
Mof_H 	H 	0.5761	0.9685	0.6192	-0.01
Mof_C 	C 	0.562	0.0412	0.5241	0.06
Mof_H 	H 	0.5725	0.0378	0.4995	0.001
Mof_C 	C 	0.5302	0.095	0.5227	-0.116
Mof_H 	H 	0.5195	0.129	0.4977	0.075
Mof_C 	C 	0.5319	0.0506	0.5957	-0.111
Mof_H 	H 	0.5221	0.0531	0.6209	0.084
Mof_N 	N 	0.57862	0.9933	0.5594	-0.267
Mof_N 	N 	0.46056	0.1371	0.5901	-0.131
Mof_N 	N 	0.42276	0.2687	0.5667	-0.133
Mof_N 	N 	0.4718	0.2222	0.5295	-0.142
Mof_N 	N 	0.3648	0.1464	0.685	-0.274
Mof_N 	N 	0.42366	0.5193	0.4607	-0.266
Mof_N 	N 	0.37018	0.4346	0.8696	-0.265
Mof_N 	N 	0.31524	0.6667	0.7595	-0.133
Mof_N 	N 	0.27595	0.5395	0.7339	-0.136
Mof_N 	N 	0.26555	0.6796	0.6953	-0.134
Mof_N 	N 	0.16796	0.4647	0.6078	-0.268
Mof_N 	N 	0.32107	0.9961	0.728	-0.267
Mof_I 	I 	0.10452	0.26237	0.59528	-0.379
Mof_I 	I 	0.77525	0.73084	0.71084	-0.371
Mof_I 	I 	0.88072	0.65515	0.80675	-0.396
Mof_I 	I 	0.14345	0.41676	0.48909	-0.361
Mof_I 	I 	0.87518	0.24269	0.45631	-0.38
Mof_I 	I 	0.96757	0.15371	0.38446	-0.345
Mof_Zn	Zn	0.83535	0.6317	0.73316	1.161
Mof_Zn	Zn	0.12447	0.40645	0.56138	1.161
Mof_Zn	Zn	0.91	0.12888	0.41858	1.16
Mof_C 	C 	0.857	0.7119	0.6553	0.076
Mof_H 	H 	0.8354	0.7489	0.6553	-0.011
Mof_C 	C 	0.8773	0.7293	0.6256	-0.124
Mof_H 	H 	0.8704	0.7782	0.6062	0.086
Mof_C 	C 	0.908	0.6764	0.6235	0.067
Mof_C 	C 	0.9317	0.6955	0.5912	0.104
Mof_C 	C 	0.9634	0.8922	0.4871	-0.101
Mof_H 	H 	0.9862	0.8591	0.4881	0.066
Mof_C 	C 	0.9366	0.8624	0.5101	0.047
Mof_C 	C 	0.956	0.9711	0.463	0.053
Mof_H 	H 	0.9743	0.9915	0.4477	-0.003
Mof_C 	C 	0.9033	0.9127	0.5081	-0.111
Mof_H 	H 	0.8846	0.895	0.5233	0.077
Mof_C 	C 	0.9796	0.655	0.5592	0.093
Mof_C 	C 	0.8987	0.9907	0.4824	0.068
Mof_H 	H 	0.8761	0.0252	0.4806	-0.013
Mof_C 	C 	0.9439	0.7782	0.537	0.092
Mof_C 	C 	0.0142	0.5986	0.5579	0.046
Mof_C 	C 	0.8946	0.5927	0.683	0.066
Mof_H 	H 	0.9006	0.544	0.7026	-0.014
Mof_C 	C 	0.9172	0.6062	0.6527	-0.114
Mof_H 	H 	0.9384	0.5681	0.6523	0.082
Mof_C 	C 	0.80426	0.0805	0.762	0.101
Mof_C 	C 	0.6765	0.0521	0.6044	0.061
Mof_H 	H 	0.6619	0.0856	0.5811	0
Mof_C 	C 	0.6884	0.9187	0.6413	0.066
Mof_H 	H 	0.6829	0.8566	0.6439	-0.004
Mof_C 	C 	0.8262	0.0275	0.7991	0.051
Mof_C 	C 	0.8434	0.8919	0.8404	0.066
Mof_H 	H 	0.8394	0.8293	0.8441	-0.01
Mof_C 	C 	0.8445	0.4364	0.7532	0.051
Mof_H 	H 	0.8671	0.4582	0.7718	-0.01
Mof_C 	C 	0.7173	0.9578	0.6722	-0.121
Mof_H 	H 	0.7306	0.9235	0.696	0.092
Mof_C 	C 	0.72655	0.0474	0.6679	0.045
Mof_C 	C 	0.79434	0.2139	0.7264	0.103
Mof_C 	C 	0.75741	0.0909	0.7006	0.085
Mof_C 	C 	0.8037	0.311	0.7254	0.048
Mof_C 	C 	0.7798	0.3725	0.6984	-0.108
Mof_H 	H 	0.7575	0.3521	0.6787	0.075
Mof_C 	C 	0.7893	0.4627	0.7009	0.06
Mof_H 	H 	0.7728	0.5038	0.6828	-0.006
Mof_C 	C 	0.8539	0.072	0.8306	-0.11
Mof_H 	H 	0.8581	0.1348	0.8283	0.09
Mof_C 	C 	0.7052	0.0961	0.6331	-0.114
Mof_H 	H 	0.7104	0.158	0.6293	0.08
Mof_C 	C 	0.8748	0.0235	0.8645	0.06
Mof_H 	H 	0.8934	0.0545	0.8854	0.001
Mof_C 	C 	0.8212	0.9357	0.8047	-0.119
Mof_H 	H 	0.8028	0.9029	0.7845	0.08
Mof_C 	C 	0.8367	0.3439	0.7529	-0.106
Mof_H 	H 	0.8536	0.304	0.7711	0.079
Mof_C 	C 	0.0638	0.5002	0.5941	0.066
Mof_H 	H 	0.0761	0.4685	0.6192	-0.011
Mof_C 	C 	0.062	0.5412	0.5241	0.06
Mof_H 	H 	0.0725	0.5378	0.4995	0.001
Mof_C 	C 	0.0302	0.595	0.5227	-0.116
Mof_H 	H 	0.0195	0.629	0.4977	0.075
Mof_C 	C 	0.0319	0.5506	0.5957	-0.111
Mof_H 	H 	0.0221	0.5531	0.6209	0.084
Mof_N 	N 	0.07862	0.4933	0.5594	-0.267
Mof_N 	N 	0.96056	0.6371	0.5901	-0.131
Mof_N 	N 	0.92276	0.7687	0.5667	-0.133
Mof_N 	N 	0.9718	0.7222	0.5295	-0.142
Mof_N 	N 	0.8648	0.6464	0.685	-0.274
Mof_N 	N 	0.92366	0.0193	0.4607	-0.265
Mof_N 	N 	0.87018	0.9346	0.8696	-0.265
Mof_N 	N 	0.81524	0.1667	0.7595	-0.133
Mof_N 	N 	0.77595	0.0395	0.7339	-0.137
Mof_N 	N 	0.76555	0.1796	0.6953	-0.134
Mof_N 	N 	0.66796	0.9647	0.6078	-0.268
Mof_N 	N 	0.82107	0.4961	0.728	-0.267
Mof_I 	I 	0.60452	0.23763	0.09528	-0.379
Mof_I 	I 	0.27525	0.76916	0.21084	-0.372
Mof_I 	I 	0.38072	0.84485	0.30675	-0.397
Mof_I 	I 	0.64345	0.08324	0.98909	-0.361
Mof_I 	I 	0.37518	0.25731	0.95631	-0.38
Mof_I 	I 	0.46757	0.34629	0.88446	-0.345
Mof_Zn	Zn	0.33535	0.8683	0.23316	1.161
Mof_Zn	Zn	0.62447	0.09355	0.06138	1.161
Mof_Zn	Zn	0.41	0.37112	0.91858	1.16
Mof_C 	C 	0.357	0.7881	0.1553	0.076
Mof_H 	H 	0.3354	0.7511	0.1553	-0.011
Mof_C 	C 	0.3773	0.7707	0.1256	-0.125
Mof_H 	H 	0.3704	0.7218	0.1062	0.086
Mof_C 	C 	0.408	0.8236	0.1235	0.067
Mof_C 	C 	0.4317	0.8045	0.0912	0.104
Mof_C 	C 	0.4634	0.6078	0.9871	-0.101
Mof_H 	H 	0.4862	0.6409	0.9881	0.066
Mof_C 	C 	0.4366	0.6376	0.0101	0.047
Mof_C 	C 	0.456	0.5289	0.963	0.053
Mof_H 	H 	0.4743	0.5085	0.9477	-0.003
Mof_C 	C 	0.4033	0.5873	0.0081	-0.112
Mof_H 	H 	0.3846	0.605	0.0233	0.078
Mof_C 	C 	0.4796	0.845	0.0592	0.094
Mof_C 	C 	0.3987	0.5093	0.9824	0.068
Mof_H 	H 	0.3761	0.4748	0.9806	-0.013
Mof_C 	C 	0.4439	0.7218	0.037	0.092
Mof_C 	C 	0.5142	0.9014	0.0579	0.046
Mof_C 	C 	0.3946	0.9073	0.183	0.066
Mof_H 	H 	0.4006	0.956	0.2026	-0.014
Mof_C 	C 	0.4172	0.8938	0.1527	-0.114
Mof_H 	H 	0.4384	0.9319	0.1523	0.082
Mof_C 	C 	0.30426	0.4195	0.262	0.101
Mof_C 	C 	0.1765	0.4479	0.1044	0.062
Mof_H 	H 	0.1619	0.4144	0.0811	0
Mof_C 	C 	0.1884	0.5813	0.1413	0.066
Mof_H 	H 	0.1829	0.6434	0.1439	-0.004
Mof_C 	C 	0.3262	0.4725	0.2991	0.051
Mof_C 	C 	0.3434	0.6081	0.3404	0.066
Mof_H 	H 	0.3394	0.6707	0.3441	-0.01
Mof_C 	C 	0.3445	0.0636	0.2532	0.051
Mof_H 	H 	0.3671	0.0418	0.2718	-0.01
Mof_C 	C 	0.2173	0.5422	0.1722	-0.121
Mof_H 	H 	0.2306	0.5765	0.196	0.092
Mof_C 	C 	0.22655	0.4526	0.1679	0.045
Mof_C 	C 	0.29434	0.2861	0.2264	0.103
Mof_C 	C 	0.25741	0.4091	0.2006	0.085
Mof_C 	C 	0.3037	0.189	0.2254	0.049
Mof_C 	C 	0.2798	0.1275	0.1984	-0.108
Mof_H 	H 	0.2575	0.1479	0.1787	0.076
Mof_C 	C 	0.2893	0.0373	0.2009	0.061
Mof_H 	H 	0.2728	0.9962	0.1828	-0.007
Mof_C 	C 	0.3539	0.428	0.3306	-0.111
Mof_H 	H 	0.3581	0.3652	0.3283	0.09
Mof_C 	C 	0.2052	0.4039	0.1331	-0.114
Mof_H 	H 	0.2104	0.342	0.1293	0.08
Mof_C 	C 	0.3748	0.4765	0.3645	0.06
Mof_H 	H 	0.3934	0.4455	0.3854	0.001
Mof_C 	C 	0.3212	0.5643	0.3047	-0.12
Mof_H 	H 	0.3028	0.5971	0.2845	0.08
Mof_C 	C 	0.3367	0.1561	0.2529	-0.106
Mof_H 	H 	0.3536	0.196	0.2711	0.079
Mof_C 	C 	0.5638	0.9998	0.0941	0.066
Mof_H 	H 	0.5761	0.0315	0.1192	-0.01
Mof_C 	C 	0.562	0.9588	0.0241	0.06
Mof_H 	H 	0.5725	0.9622	0.9995	0.001
Mof_C 	C 	0.5302	0.905	0.0227	-0.116
Mof_H 	H 	0.5195	0.871	0.9977	0.075
Mof_C 	C 	0.5319	0.9494	0.0957	-0.111
Mof_H 	H 	0.5221	0.9469	0.1209	0.084
Mof_N 	N 	0.57862	0.0067	0.0594	-0.266
Mof_N 	N 	0.46056	0.8629	0.0901	-0.131
Mof_N 	N 	0.42276	0.7313	0.0667	-0.133
Mof_N 	N 	0.4718	0.7778	0.0295	-0.142
Mof_N 	N 	0.3648	0.8536	0.185	-0.274
Mof_N 	N 	0.42366	0.4807	0.9607	-0.266
Mof_N 	N 	0.37018	0.5654	0.3696	-0.265
Mof_N 	N 	0.31524	0.3333	0.2595	-0.133
Mof_N 	N 	0.27595	0.4605	0.2339	-0.136
Mof_N 	N 	0.26555	0.3204	0.1953	-0.134
Mof_N 	N 	0.16796	0.5353	0.1078	-0.269
Mof_N 	N 	0.32107	0.0039	0.228	-0.267
Mof_I 	I 	0.10452	0.73763	0.09528	-0.379
Mof_I 	I 	0.77525	0.26916	0.21084	-0.371
Mof_I 	I 	0.88072	0.34485	0.30675	-0.396
Mof_I 	I 	0.14345	0.58324	0.98909	-0.361
Mof_I 	I 	0.87518	0.75731	0.95631	-0.38
Mof_I 	I 	0.96757	0.84629	0.88446	-0.345
Mof_Zn	Zn	0.83535	0.3683	0.23316	1.161
Mof_Zn	Zn	0.12447	0.59355	0.06138	1.161
Mof_Zn	Zn	0.91	0.87112	0.91858	1.16
Mof_C 	C 	0.857	0.2881	0.1553	0.076
Mof_H 	H 	0.8354	0.2511	0.1553	-0.011
Mof_C 	C 	0.8773	0.2707	0.1256	-0.124
Mof_H 	H 	0.8704	0.2218	0.1062	0.086
Mof_C 	C 	0.908	0.3236	0.1235	0.067
Mof_C 	C 	0.9317	0.3045	0.0912	0.104
Mof_C 	C 	0.9634	0.1078	0.9871	-0.101
Mof_H 	H 	0.9862	0.1409	0.9881	0.066
Mof_C 	C 	0.9366	0.1376	0.0101	0.047
Mof_C 	C 	0.956	0.0289	0.963	0.053
Mof_H 	H 	0.9743	0.0085	0.9477	-0.003
Mof_C 	C 	0.9033	0.0873	0.0081	-0.111
Mof_H 	H 	0.8846	0.105	0.0233	0.077
Mof_C 	C 	0.9796	0.345	0.0592	0.093
Mof_C 	C 	0.8987	0.0093	0.9824	0.067
Mof_H 	H 	0.8761	0.9748	0.9806	-0.013
Mof_C 	C 	0.9439	0.2218	0.037	0.092
Mof_C 	C 	0.0142	0.4014	0.0579	0.046
Mof_C 	C 	0.8946	0.4073	0.183	0.066
Mof_H 	H 	0.9006	0.456	0.2026	-0.014
Mof_C 	C 	0.9172	0.3938	0.1527	-0.114
Mof_H 	H 	0.9384	0.4319	0.1523	0.082
Mof_C 	C 	0.80426	0.9195	0.262	0.101
Mof_C 	C 	0.6765	0.9479	0.1044	0.061
Mof_H 	H 	0.6619	0.9144	0.0811	0
Mof_C 	C 	0.6884	0.0813	0.1413	0.066
Mof_H 	H 	0.6829	0.1434	0.1439	-0.004
Mof_C 	C 	0.8262	0.9725	0.2991	0.051
Mof_C 	C 	0.8434	0.1081	0.3404	0.066
Mof_H 	H 	0.8394	0.1707	0.3441	-0.01
Mof_C 	C 	0.8445	0.5636	0.2532	0.051
Mof_H 	H 	0.8671	0.5418	0.2718	-0.01
Mof_C 	C 	0.7173	0.0422	0.1722	-0.121
Mof_H 	H 	0.7306	0.0765	0.196	0.092
Mof_C 	C 	0.72655	0.9526	0.1679	0.045
Mof_C 	C 	0.79434	0.7861	0.2264	0.103
Mof_C 	C 	0.75741	0.9091	0.2006	0.085
Mof_C 	C 	0.8037	0.689	0.2254	0.048
Mof_C 	C 	0.7798	0.6275	0.1984	-0.108
Mof_H 	H 	0.7575	0.6479	0.1787	0.075
Mof_C 	C 	0.7893	0.5373	0.2009	0.06
Mof_H 	H 	0.7728	0.4962	0.1828	-0.006
Mof_C 	C 	0.8539	0.928	0.3306	-0.11
Mof_H 	H 	0.8581	0.8652	0.3283	0.09
Mof_C 	C 	0.7052	0.9039	0.1331	-0.114
Mof_H 	H 	0.7104	0.842	0.1293	0.08
Mof_C 	C 	0.8748	0.9765	0.3645	0.06
Mof_H 	H 	0.8934	0.9455	0.3854	0.001
Mof_C 	C 	0.8212	0.0643	0.3047	-0.12
Mof_H 	H 	0.8028	0.0971	0.2845	0.08
Mof_C 	C 	0.8367	0.6561	0.2529	-0.106
Mof_H 	H 	0.8536	0.696	0.2711	0.079
Mof_C 	C 	0.0638	0.4998	0.0941	0.066
Mof_H 	H 	0.0761	0.5315	0.1192	-0.011
Mof_C 	C 	0.062	0.4588	0.0241	0.06
Mof_H 	H 	0.0725	0.4622	0.9995	0.001
Mof_C 	C 	0.0302	0.405	0.0227	-0.116
Mof_H 	H 	0.0195	0.371	0.9977	0.075
Mof_C 	C 	0.0319	0.4494	0.0957	-0.111
Mof_H 	H 	0.0221	0.4469	0.1209	0.084
Mof_N 	N 	0.07862	0.5067	0.0594	-0.267
Mof_N 	N 	0.96056	0.3629	0.0901	-0.131
Mof_N 	N 	0.92276	0.2313	0.0667	-0.133
Mof_N 	N 	0.9718	0.2778	0.0295	-0.142
Mof_N 	N 	0.8648	0.3536	0.185	-0.274
Mof_N 	N 	0.92366	0.9807	0.9607	-0.265
Mof_N 	N 	0.87018	0.0654	0.3696	-0.265
Mof_N 	N 	0.81524	0.8333	0.2595	-0.133
Mof_N 	N 	0.77595	0.9605	0.2339	-0.137
Mof_N 	N 	0.76555	0.8204	0.1953	-0.134
Mof_N 	N 	0.66796	0.0353	0.1078	-0.268
Mof_N 	N 	0.82107	0.5039	0.228	-0.267
_end
