# CIF file generated by openbabel 3.1.0, see https://openbabel.org
data_I
_chemical_name_common 'image0'
_cell_length_a 33.32
_cell_length_b 33.32
_cell_length_c 9.2856
_cell_angle_alpha 90
_cell_angle_beta 90
_cell_angle_gamma 120
_space_group_name_H-M_alt 'P 1'
_space_group_name_Hall 'P 1'
loop_
    _symmetry_equiv_pos_as_xyz
    x,y,z
loop_
    _atom_site_label
    _atom_site_type_symbol
    _atom_site_fract_x
    _atom_site_fract_y
    _atom_site_fract_z
    _atom_site_occupancy
    C1       C        0.46959    0.92887    0.19700    1.000
    C2       C        0.43439    0.91839    0.29930    1.000
    C3       C        0.39775    0.92248    0.49160    1.000
    C4       C        0.38881    0.93767    0.62260    1.000
    C5       C        0.38591    0.88376    0.28360    1.000
    H1       H        0.37260    0.86360    0.20630    1.000
    C6       C        0.51606    0.96600    0.20490    1.000
    C7       C        0.58041    0.02628    0.28740    1.000
    C8       C        0.45694    0.89724    0.07060    1.000
    C9       C        0.36355    0.88609    0.40150    1.000
    H2       H        0.33210    0.86770    0.42110    1.000
    C10      C        0.55346    0.97201    0.11130    1.000
    H3       H        0.55110    0.95400    0.03170    1.000
    C11      C        0.45762    0.91253    0.93170    1.000
    H4       H        0.46710    0.94350    0.91460    1.000
    C12      C        0.59282    0.00934    0.16290    1.000
    H5       H        0.62240    0.02160    0.12430    1.000
    C13      C        0.44291    0.85070    0.08760    1.000
    H6       H        0.44170    0.83870    0.17890    1.000
    C14      C        0.43082    0.82253    0.96870    1.000
    H7       H        0.42190    0.79150    0.98210    1.000
    C15      C        0.44442    0.88216    0.82020    1.000
    H8       H        0.44450    0.89320    0.72810    1.000
    C16      C        0.33819    0.91307    0.66590    1.000
    C17      C        0.30726    0.92385    0.60290    1.000
    H9       H        0.31730    0.94710    0.53370    1.000
    C18      C        0.32136    0.87870    0.76930    1.000
    H10      H        0.34090    0.87050    0.81610    1.000
    C19      C        0.26138    0.89992    0.64320    1.000
    H11      H        0.24100    0.90750    0.59900    1.000
    C20      C        0.27463    0.85679    0.80110    1.000
    H12      H        0.26340    0.83330    0.86980    1.000
    N1       N        0.44029    0.94077    0.42660    1.000
    N2       N        0.53341    0.99965    0.30810    1.000
    N3       N        0.24479    0.86670    0.74140    1.000
    N4       N        0.43125    0.83725    0.83520    1.000
    C21      C        0.53041    0.07113    0.80300    1.000
    C22      C        0.56561    0.08161    0.70070    1.000
    C23      C        0.60225    0.07752    0.50840    1.000
    C24      C        0.61119    0.06233    0.37740    1.000
    C25      C        0.61409    0.11624    0.71640    1.000
    H13      H        0.62740    0.13640    0.79370    1.000
    C26      C        0.48394    0.03400    0.79510    1.000
    C27      C        0.41959    0.97372    0.71260    1.000
    C28      C        0.54306    0.10276    0.92940    1.000
    C29      C        0.63645    0.11391    0.59850    1.000
    H14      H        0.66790    0.13230    0.57890    1.000
    C30      C        0.44654    0.02799    0.88870    1.000
    H15      H        0.44890    0.04600    0.96830    1.000
    C31      C        0.54238    0.08747    0.06830    1.000
    H16      H        0.53290    0.05650    0.08540    1.000
    C32      C        0.40718    0.99066    0.83710    1.000
    H17      H        0.37760    0.97840    0.87570    1.000
    C33      C        0.55709    0.14930    0.91240    1.000
    H18      H        0.55830    0.16130    0.82110    1.000
    C34      C        0.56918    0.17747    0.03130    1.000
    H19      H        0.57810    0.20850    0.01790    1.000
    C35      C        0.55558    0.11784    0.17980    1.000
    H20      H        0.55550    0.10680    0.27190    1.000
    C36      C        0.66181    0.08693    0.33410    1.000
    C37      C        0.69274    0.07615    0.39710    1.000
    H21      H        0.68270    0.05290    0.46630    1.000
    C38      C        0.67864    0.12130    0.23070    1.000
    H22      H        0.65910    0.12950    0.18390    1.000
    C39      C        0.73862    0.10008    0.35680    1.000
    H23      H        0.75900    0.09250    0.40100    1.000
    C40      C        0.72537    0.14321    0.19890    1.000
    H24      H        0.73660    0.16670    0.13020    1.000
    N5       N        0.55971    0.05923    0.57340    1.000
    N6       N        0.46659    0.00035    0.69190    1.000
    N7       N        0.75521    0.13330    0.25860    1.000
    N8       N        0.56875    0.16275    0.16480    1.000
    Mn1      Mn       0.50000    0.00000    0.50000    1.000
    C41      C        0.13626    0.26220    0.53033    1.000
    C42      C        0.10106    0.25172    0.63263    1.000
    C43      C        0.06442    0.25581    0.82493    1.000
    C44      C        0.05548    0.27100    0.95593    1.000
    C45      C        0.05258    0.21709    0.61693    1.000
    H25      H        0.03927    0.19693    0.53963    1.000
    C46      C        0.18273    0.29933    0.53823    1.000
    C47      C        0.24708    0.35961    0.62073    1.000
    C48      C        0.12361    0.23057    0.40393    1.000
    C49      C        0.03022    0.21942    0.73483    1.000
    H26      H        0.99877    0.20103    0.75443    1.000
    C50      C        0.22013    0.30534    0.44463    1.000
    H27      H        0.21777    0.28733    0.36503    1.000
    C51      C        0.12429    0.24586    0.26503    1.000
    H28      H        0.13377    0.27683    0.24793    1.000
    C52      C        0.25949    0.34267    0.49623    1.000
    H29      H        0.28907    0.35493    0.45763    1.000
    C53      C        0.10958    0.18403    0.42093    1.000
    H30      H        0.10837    0.17203    0.51223    1.000
    C54      C        0.09749    0.15586    0.30203    1.000
    H31      H        0.08857    0.12483    0.31543    1.000
    C55      C        0.11109    0.21549    0.15353    1.000
    H32      H        0.11117    0.22653    0.06143    1.000
    C56      C        0.00486    0.24640    0.99923    1.000
    C57      C        0.97393    0.25718    0.93623    1.000
    H33      H        0.98397    0.28043    0.86703    1.000
    C58      C        0.98803    0.21203    0.10263    1.000
    H34      H        0.00757    0.20383    0.14943    1.000
    C59      C        0.92805    0.23325    0.97653    1.000
    H35      H        0.90767    0.24083    0.93233    1.000
    C60      C        0.94130    0.19012    0.13443    1.000
    H36      H        0.93007    0.16663    0.20313    1.000
    N9       N        0.10696    0.27410    0.75993    1.000
    N10      N        0.20008    0.33298    0.64143    1.000
    N11      N        0.91146    0.20003    0.07473    1.000
    N12      N        0.09792    0.17058    0.16853    1.000
    C61      C        0.19708    0.40446    0.13633    1.000
    C62      C        0.23228    0.41494    0.03403    1.000
    C63      C        0.26892    0.41085    0.84173    1.000
    C64      C        0.27786    0.39566    0.71073    1.000
    C65      C        0.28076    0.44957    0.04973    1.000
    H37      H        0.29407    0.46973    0.12703    1.000
    C66      C        0.15061    0.36733    0.12843    1.000
    C67      C        0.08626    0.30705    0.04593    1.000
    C68      C        0.20973    0.43609    0.26273    1.000
    C69      C        0.30312    0.44724    0.93183    1.000
    H38      H        0.33457    0.46563    0.91223    1.000
    C70      C        0.11321    0.36132    0.22203    1.000
    H39      H        0.11557    0.37933    0.30163    1.000
    C71      C        0.20905    0.42080    0.40163    1.000
    H40      H        0.19957    0.38983    0.41873    1.000
    C72      C        0.07385    0.32399    0.17043    1.000
    H41      H        0.04427    0.31173    0.20903    1.000
    C73      C        0.22376    0.48263    0.24573    1.000
    H42      H        0.22497    0.49463    0.15443    1.000
    C74      C        0.23585    0.51080    0.36463    1.000
    H43      H        0.24477    0.54183    0.35123    1.000
    C75      C        0.22225    0.45117    0.51313    1.000
    H44      H        0.22217    0.44013    0.60523    1.000
    C76      C        0.32848    0.42026    0.66743    1.000
    C77      C        0.35941    0.40948    0.73043    1.000
    H45      H        0.34937    0.38623    0.79963    1.000
    C78      C        0.34531    0.45463    0.56403    1.000
    H46      H        0.32577    0.46283    0.51723    1.000
    C79      C        0.40529    0.43341    0.69013    1.000
    H47      H        0.42567    0.42583    0.73433    1.000
    C80      C        0.39204    0.47654    0.53223    1.000
    H48      H        0.40327    0.50003    0.46353    1.000
    N13      N        0.22638    0.39256    0.90673    1.000
    N14      N        0.13326    0.33368    0.02523    1.000
    N15      N        0.42188    0.46663    0.59193    1.000
    N16      N        0.23542    0.49608    0.49813    1.000
    Mn2      Mn       0.16667    0.33333    0.83333    1.000
    C81      C        0.80292    0.59554    0.86367    1.000
    C82      C        0.76772    0.58506    0.96597    1.000
    C83      C        0.73108    0.58915    0.15827    1.000
    C84      C        0.72214    0.60434    0.28927    1.000
    C85      C        0.71924    0.55043    0.95027    1.000
    H49      H        0.70593    0.53027    0.87297    1.000
    C86      C        0.84939    0.63267    0.87157    1.000
    C87      C        0.91374    0.69295    0.95407    1.000
    C88      C        0.79027    0.56391    0.73727    1.000
    C89      C        0.69688    0.55276    0.06817    1.000
    H50      H        0.66543    0.53437    0.08777    1.000
    C90      C        0.88679    0.63868    0.77797    1.000
    H51      H        0.88443    0.62067    0.69837    1.000
    C91      C        0.79095    0.57920    0.59837    1.000
    H52      H        0.80043    0.61017    0.58127    1.000
    C92      C        0.92615    0.67601    0.82957    1.000
    H53      H        0.95573    0.68827    0.79097    1.000
    C93      C        0.77624    0.51737    0.75427    1.000
    H54      H        0.77503    0.50537    0.84557    1.000
    C94      C        0.76415    0.48920    0.63537    1.000
    H55      H        0.75523    0.45817    0.64877    1.000
    C95      C        0.77775    0.54883    0.48687    1.000
    H56      H        0.77783    0.55987    0.39477    1.000
    C96      C        0.67152    0.57974    0.33257    1.000
    C97      C        0.64059    0.59052    0.26957    1.000
    H57      H        0.65063    0.61377    0.20037    1.000
    C98      C        0.65469    0.54537    0.43597    1.000
    H58      H        0.67423    0.53717    0.48277    1.000
    C99      C        0.59471    0.56659    0.30987    1.000
    H59      H        0.57433    0.57417    0.26567    1.000
    C100     C        0.60796    0.52346    0.46777    1.000
    H60      H        0.59673    0.49997    0.53647    1.000
    N17      N        0.77362    0.60744    0.09327    1.000
    N18      N        0.86674    0.66632    0.97477    1.000
    N19      N        0.57812    0.53337    0.40807    1.000
    N20      N        0.76458    0.50392    0.50187    1.000
    C101     C        0.86374    0.73780    0.46967    1.000
    C102     C        0.89894    0.74828    0.36737    1.000
    C103     C        0.93558    0.74419    0.17507    1.000
    C104     C        0.94452    0.72900    0.04407    1.000
    C105     C        0.94742    0.78291    0.38307    1.000
    H61      H        0.96073    0.80307    0.46037    1.000
    C106     C        0.81727    0.70067    0.46177    1.000
    C107     C        0.75292    0.64039    0.37927    1.000
    C108     C        0.87639    0.76943    0.59607    1.000
    C109     C        0.96978    0.78058    0.26517    1.000
    H62      H        0.00123    0.79897    0.24557    1.000
    C110     C        0.77987    0.69466    0.55537    1.000
    H63      H        0.78223    0.71267    0.63497    1.000
    C111     C        0.87571    0.75414    0.73497    1.000
    H64      H        0.86623    0.72317    0.75207    1.000
    C112     C        0.74051    0.65733    0.50377    1.000
    H65      H        0.71093    0.64507    0.54237    1.000
    C113     C        0.89042    0.81597    0.57907    1.000
    H66      H        0.89163    0.82797    0.48777    1.000
    C114     C        0.90251    0.84414    0.69797    1.000
    H67      H        0.91143    0.87517    0.68457    1.000
    C115     C        0.88891    0.78451    0.84647    1.000
    H68      H        0.88883    0.77347    0.93857    1.000
    C116     C        0.99514    0.75360    0.00077    1.000
    C117     C        0.02607    0.74282    0.06377    1.000
    H69      H        0.01603    0.71957    0.13297    1.000
    C118     C        0.01197    0.78797    0.89737    1.000
    H70      H        0.99243    0.79617    0.85057    1.000
    C119     C        0.07195    0.76675    0.02347    1.000
    H71      H        0.09233    0.75917    0.06767    1.000
    C120     C        0.05870    0.80988    0.86557    1.000
    H72      H        0.06993    0.83337    0.79687    1.000
    N21      N        0.89304    0.72590    0.24007    1.000
    N22      N        0.79992    0.66702    0.35857    1.000
    N23      N        0.08854    0.79997    0.92527    1.000
    N24      N        0.90208    0.82942    0.83147    1.000
    Mn3      Mn       0.83333    0.66667    0.16667    1.000
    C121     C        0.07113    0.54072    0.19700    1.000
    C122     C        0.08161    0.51600    0.29930    1.000
    C123     C        0.07752    0.47527    0.49160    1.000
    C124     C        0.06233    0.45114    0.62260    1.000
    C125     C        0.11624    0.50215    0.28360    1.000
    H73      H        0.13640    0.50900    0.20630    1.000
    C126     C        0.03400    0.55006    0.20490    1.000
    C127     C        0.97372    0.55413    0.28740    1.000
    C128     C        0.10276    0.55970    0.07060    1.000
    C129     C        0.11391    0.47746    0.40150    1.000
    H74      H        0.13230    0.46440    0.42110    1.000
    C130     C        0.02799    0.58145    0.11130    1.000
    H75      H        0.04600    0.59710    0.03170    1.000
    C131     C        0.08747    0.54509    0.93170    1.000
    H76      H        0.05650    0.52360    0.91460    1.000
    C132     C        0.99066    0.58348    0.16290    1.000
    H77      H        0.97840    0.60080    0.12430    1.000
    C133     C        0.14930    0.59221    0.08760    1.000
    H78      H        0.16130    0.60300    0.17890    1.000
    C134     C        0.17747    0.60829    0.96870    1.000
    H79      H        0.20850    0.63040    0.98210    1.000
    C135     C        0.11784    0.56226    0.82020    1.000
    H80      H        0.10680    0.55130    0.72810    1.000
    C136     C        0.08693    0.42512    0.66590    1.000
    C137     C        0.07615    0.38341    0.60290    1.000
    H81      H        0.05290    0.37020    0.53370    1.000
    C138     C        0.12130    0.44266    0.76930    1.000
    H82      H        0.12950    0.47040    0.81610    1.000
    C139     C        0.10008    0.36146    0.64320    1.000
    H83      H        0.09250    0.33350    0.59900    1.000
    C140     C        0.14321    0.41784    0.80110    1.000
    H84      H        0.16670    0.43010    0.86980    1.000
    N25      N        0.05923    0.49952    0.42660    1.000
    N26      N        0.00035    0.53376    0.30810    1.000
    N27      N        0.13330    0.37809    0.74140    1.000
    N28      N        0.16275    0.59400    0.83520    1.000
    C141     C        0.92887    0.45928    0.80300    1.000
    C142     C        0.91839    0.48400    0.70070    1.000
    C143     C        0.92248    0.52473    0.50840    1.000
    C144     C        0.93767    0.54886    0.37740    1.000
    C145     C        0.88376    0.49785    0.71640    1.000
    H85      H        0.86360    0.49100    0.79370    1.000
    C146     C        0.96600    0.44994    0.79510    1.000
    C147     C        0.02628    0.44587    0.71260    1.000
    C148     C        0.89724    0.44030    0.92940    1.000
    C149     C        0.88609    0.52254    0.59850    1.000
    H86      H        0.86770    0.53560    0.57890    1.000
    C150     C        0.97201    0.41855    0.88870    1.000
    H87      H        0.95400    0.40290    0.96830    1.000
    C151     C        0.91253    0.45491    0.06830    1.000
    H88      H        0.94350    0.47640    0.08540    1.000
    C152     C        0.00934    0.41652    0.83710    1.000
    H89      H        0.02160    0.39920    0.87570    1.000
    C153     C        0.85070    0.40779    0.91240    1.000
    H90      H        0.83870    0.39700    0.82110    1.000
    C154     C        0.82253    0.39171    0.03130    1.000
    H91      H        0.79150    0.36960    0.01790    1.000
    C155     C        0.88216    0.43774    0.17980    1.000
    H92      H        0.89320    0.44870    0.27190    1.000
    C156     C        0.91307    0.57488    0.33410    1.000
    C157     C        0.92385    0.61659    0.39710    1.000
    H93      H        0.94710    0.62980    0.46630    1.000
    C158     C        0.87870    0.55734    0.23070    1.000
    H94      H        0.87050    0.52960    0.18390    1.000
    C159     C        0.89992    0.63854    0.35680    1.000
    H95      H        0.90750    0.66650    0.40100    1.000
    C160     C        0.85679    0.58216    0.19890    1.000
    H96      H        0.83330    0.56990    0.13020    1.000
    N29      N        0.94077    0.50048    0.57340    1.000
    N30      N        0.99965    0.46624    0.69190    1.000
    N31      N        0.86670    0.62191    0.25860    1.000
    N32      N        0.83725    0.40600    0.16480    1.000
    Mn4      Mn       0.00000    0.50000    0.50000    1.000
    C161     C        0.73780    0.87405    0.53033    1.000
    C162     C        0.74828    0.84933    0.63263    1.000
    C163     C        0.74419    0.80860    0.82493    1.000
    C164     C        0.72900    0.78447    0.95593    1.000
    C165     C        0.78291    0.83548    0.61693    1.000
    H97      H        0.80307    0.84233    0.53963    1.000
    C166     C        0.70067    0.88339    0.53823    1.000
    C167     C        0.64039    0.88746    0.62073    1.000
    C168     C        0.76943    0.89303    0.40393    1.000
    C169     C        0.78058    0.81079    0.73483    1.000
    H98      H        0.79897    0.79773    0.75443    1.000
    C170     C        0.69466    0.91478    0.44463    1.000
    H99      H        0.71267    0.93043    0.36503    1.000
    C171     C        0.75414    0.87842    0.26503    1.000
    H100     H        0.72317    0.85693    0.24793    1.000
    C172     C        0.65733    0.91681    0.49623    1.000
    H101     H        0.64507    0.93413    0.45763    1.000
    C173     C        0.81597    0.92554    0.42093    1.000
    H102     H        0.82797    0.93633    0.51223    1.000
    C174     C        0.84414    0.94162    0.30203    1.000
    H103     H        0.87517    0.96373    0.31543    1.000
    C175     C        0.78451    0.89559    0.15353    1.000
    H104     H        0.77347    0.88463    0.06143    1.000
    C176     C        0.75360    0.75845    0.99923    1.000
    C177     C        0.74282    0.71674    0.93623    1.000
    H105     H        0.71957    0.70353    0.86703    1.000
    C178     C        0.78797    0.77599    0.10263    1.000
    H106     H        0.79617    0.80373    0.14943    1.000
    C179     C        0.76675    0.69479    0.97653    1.000
    H107     H        0.75917    0.66683    0.93233    1.000
    C180     C        0.80988    0.75117    0.13443    1.000
    H108     H        0.83337    0.76343    0.20313    1.000
    N33      N        0.72590    0.83285    0.75993    1.000
    N34      N        0.66702    0.86709    0.64143    1.000
    N35      N        0.79997    0.71142    0.07473    1.000
    N36      N        0.82942    0.92733    0.16853    1.000
    C181     C        0.59554    0.79261    0.13633    1.000
    C182     C        0.58506    0.81733    0.03403    1.000
    C183     C        0.58915    0.85806    0.84173    1.000
    C184     C        0.60434    0.88219    0.71073    1.000
    C185     C        0.55043    0.83118    0.04973    1.000
    H109     H        0.53027    0.82433    0.12703    1.000
    C186     C        0.63267    0.78327    0.12843    1.000
    C187     C        0.69295    0.77920    0.04593    1.000
    C188     C        0.56391    0.77363    0.26273    1.000
    C189     C        0.55276    0.85587    0.93183    1.000
    H110     H        0.53437    0.86893    0.91223    1.000
    C190     C        0.63868    0.75188    0.22203    1.000
    H111     H        0.62067    0.73623    0.30163    1.000
    C191     C        0.57920    0.78824    0.40163    1.000
    H112     H        0.61017    0.80973    0.41873    1.000
    C192     C        0.67601    0.74985    0.17043    1.000
    H113     H        0.68827    0.73253    0.20903    1.000
    C193     C        0.51737    0.74112    0.24573    1.000
    H114     H        0.50537    0.73033    0.15443    1.000
    C194     C        0.48920    0.72504    0.36463    1.000
    H115     H        0.45817    0.70293    0.35123    1.000
    C195     C        0.54883    0.77107    0.51313    1.000
    H116     H        0.55987    0.78203    0.60523    1.000
    C196     C        0.57974    0.90821    0.66743    1.000
    C197     C        0.59052    0.94992    0.73043    1.000
    H117     H        0.61377    0.96313    0.79963    1.000
    C198     C        0.54537    0.89067    0.56403    1.000
    H118     H        0.53717    0.86293    0.51723    1.000
    C199     C        0.56659    0.97187    0.69013    1.000
    H119     H        0.57417    0.99983    0.73433    1.000
    C200     C        0.52346    0.91549    0.53223    1.000
    H120     H        0.49997    0.90323    0.46353    1.000
    N37      N        0.60744    0.83381    0.90673    1.000
    N38      N        0.66632    0.79957    0.02523    1.000
    N39      N        0.53337    0.95524    0.59193    1.000
    N40      N        0.50392    0.73933    0.49813    1.000
    Mn5      Mn       0.66667    0.83333    0.83333    1.000
    C201     C        0.40446    0.20739    0.86367    1.000
    C202     C        0.41494    0.18267    0.96597    1.000
    C203     C        0.41085    0.14194    0.15827    1.000
    C204     C        0.39566    0.11781    0.28927    1.000
    C205     C        0.44957    0.16882    0.95027    1.000
    H121     H        0.46973    0.17567    0.87297    1.000
    C206     C        0.36733    0.21673    0.87157    1.000
    C207     C        0.30705    0.22080    0.95407    1.000
    C208     C        0.43609    0.22637    0.73727    1.000
    C209     C        0.44724    0.14413    0.06817    1.000
    H122     H        0.46563    0.13107    0.08777    1.000
    C210     C        0.36132    0.24812    0.77797    1.000
    H123     H        0.37933    0.26377    0.69837    1.000
    C211     C        0.42080    0.21176    0.59837    1.000
    H124     H        0.38983    0.19027    0.58127    1.000
    C212     C        0.32399    0.25015    0.82957    1.000
    H125     H        0.31173    0.26747    0.79097    1.000
    C213     C        0.48263    0.25888    0.75427    1.000
    H126     H        0.49463    0.26967    0.84557    1.000
    C214     C        0.51080    0.27496    0.63537    1.000
    H127     H        0.54183    0.29707    0.64877    1.000
    C215     C        0.45117    0.22893    0.48687    1.000
    H128     H        0.44013    0.21797    0.39477    1.000
    C216     C        0.42026    0.09179    0.33257    1.000
    C217     C        0.40948    0.05008    0.26957    1.000
    H129     H        0.38623    0.03687    0.20037    1.000
    C218     C        0.45463    0.10933    0.43597    1.000
    H130     H        0.46283    0.13707    0.48277    1.000
    C219     C        0.43341    0.02813    0.30987    1.000
    H131     H        0.42583    0.00017    0.26567    1.000
    C220     C        0.47654    0.08451    0.46777    1.000
    H132     H        0.50003    0.09677    0.53647    1.000
    N41      N        0.39256    0.16619    0.09327    1.000
    N42      N        0.33368    0.20043    0.97477    1.000
    N43      N        0.46663    0.04476    0.40807    1.000
    N44      N        0.49608    0.26067    0.50187    1.000
    C221     C        0.26220    0.12595    0.46967    1.000
    C222     C        0.25172    0.15067    0.36737    1.000
    C223     C        0.25581    0.19140    0.17507    1.000
    C224     C        0.27100    0.21553    0.04407    1.000
    C225     C        0.21709    0.16452    0.38307    1.000
    H133     H        0.19693    0.15767    0.46037    1.000
    C226     C        0.29933    0.11661    0.46177    1.000
    C227     C        0.35961    0.11254    0.37927    1.000
    C228     C        0.23057    0.10697    0.59607    1.000
    C229     C        0.21942    0.18921    0.26517    1.000
    H134     H        0.20103    0.20227    0.24557    1.000
    C230     C        0.30534    0.08522    0.55537    1.000
    H135     H        0.28733    0.06957    0.63497    1.000
    C231     C        0.24586    0.12158    0.73497    1.000
    H136     H        0.27683    0.14307    0.75207    1.000
    C232     C        0.34267    0.08319    0.50377    1.000
    H137     H        0.35493    0.06587    0.54237    1.000
    C233     C        0.18403    0.07446    0.57907    1.000
    H138     H        0.17203    0.06367    0.48777    1.000
    C234     C        0.15586    0.05838    0.69797    1.000
    H139     H        0.12483    0.03627    0.68457    1.000
    C235     C        0.21549    0.10441    0.84647    1.000
    H140     H        0.22653    0.11537    0.93857    1.000
    C236     C        0.24640    0.24155    0.00077    1.000
    C237     C        0.25718    0.28326    0.06377    1.000
    H141     H        0.28043    0.29647    0.13297    1.000
    C238     C        0.21203    0.22401    0.89737    1.000
    H142     H        0.20383    0.19627    0.85057    1.000
    C239     C        0.23325    0.30521    0.02347    1.000
    H143     H        0.24083    0.33317    0.06767    1.000
    C240     C        0.19012    0.24883    0.86557    1.000
    H144     H        0.16663    0.23657    0.79687    1.000
    N45      N        0.27410    0.16715    0.24007    1.000
    N46      N        0.33298    0.13291    0.35857    1.000
    N47      N        0.20003    0.28858    0.92527    1.000
    N48      N        0.17058    0.07267    0.83147    1.000
    Mn6      Mn       0.33333    0.16667    0.16667    1.000
    C241     C        0.45928    0.53041    0.19700    1.000
    C242     C        0.48400    0.56561    0.29930    1.000
    C243     C        0.52473    0.60225    0.49160    1.000
    C244     C        0.54886    0.61119    0.62260    1.000
    C245     C        0.49785    0.61409    0.28360    1.000
    H145     H        0.49100    0.62740    0.20630    1.000
    C246     C        0.44994    0.48394    0.20490    1.000
    C247     C        0.44587    0.41959    0.28740    1.000
    C248     C        0.44030    0.54306    0.07060    1.000
    C249     C        0.52254    0.63645    0.40150    1.000
    H146     H        0.53560    0.66790    0.42110    1.000
    C250     C        0.41855    0.44654    0.11130    1.000
    H147     H        0.40290    0.44890    0.03170    1.000
    C251     C        0.45491    0.54238    0.93170    1.000
    H148     H        0.47640    0.53290    0.91460    1.000
    C252     C        0.41652    0.40718    0.16290    1.000
    H149     H        0.39920    0.37760    0.12430    1.000
    C253     C        0.40779    0.55709    0.08760    1.000
    H150     H        0.39700    0.55830    0.17890    1.000
    C254     C        0.39171    0.56918    0.96870    1.000
    H151     H        0.36960    0.57810    0.98210    1.000
    C255     C        0.43774    0.55558    0.82020    1.000
    H152     H        0.44870    0.55550    0.72810    1.000
    C256     C        0.57488    0.66181    0.66590    1.000
    C257     C        0.61659    0.69274    0.60290    1.000
    H153     H        0.62980    0.68270    0.53370    1.000
    C258     C        0.55734    0.67864    0.76930    1.000
    H154     H        0.52960    0.65910    0.81610    1.000
    C259     C        0.63854    0.73862    0.64320    1.000
    H155     H        0.66650    0.75900    0.59900    1.000
    C260     C        0.58216    0.72537    0.80110    1.000
    H156     H        0.56990    0.73660    0.86980    1.000
    N49      N        0.50048    0.55971    0.42660    1.000
    N50      N        0.46624    0.46659    0.30810    1.000
    N51      N        0.62191    0.75521    0.74140    1.000
    N52      N        0.40600    0.56875    0.83520    1.000
    C261     C        0.54072    0.46959    0.80300    1.000
    C262     C        0.51600    0.43439    0.70070    1.000
    C263     C        0.47527    0.39775    0.50840    1.000
    C264     C        0.45114    0.38881    0.37740    1.000
    C265     C        0.50215    0.38591    0.71640    1.000
    H157     H        0.50900    0.37260    0.79370    1.000
    C266     C        0.55006    0.51606    0.79510    1.000
    C267     C        0.55413    0.58041    0.71260    1.000
    C268     C        0.55970    0.45694    0.92940    1.000
    C269     C        0.47746    0.36355    0.59850    1.000
    H158     H        0.46440    0.33210    0.57890    1.000
    C270     C        0.58145    0.55346    0.88870    1.000
    H159     H        0.59710    0.55110    0.96830    1.000
    C271     C        0.54509    0.45762    0.06830    1.000
    H160     H        0.52360    0.46710    0.08540    1.000
    C272     C        0.58348    0.59282    0.83710    1.000
    H161     H        0.60080    0.62240    0.87570    1.000
    C273     C        0.59221    0.44291    0.91240    1.000
    H162     H        0.60300    0.44170    0.82110    1.000
    C274     C        0.60829    0.43082    0.03130    1.000
    H163     H        0.63040    0.42190    0.01790    1.000
    C275     C        0.56226    0.44442    0.17980    1.000
    H164     H        0.55130    0.44450    0.27190    1.000
    C276     C        0.42512    0.33819    0.33410    1.000
    C277     C        0.38341    0.30726    0.39710    1.000
    H165     H        0.37020    0.31730    0.46630    1.000
    C278     C        0.44266    0.32136    0.23070    1.000
    H166     H        0.47040    0.34090    0.18390    1.000
    C279     C        0.36146    0.26138    0.35680    1.000
    H167     H        0.33350    0.24100    0.40100    1.000
    C280     C        0.41784    0.27463    0.19890    1.000
    H168     H        0.43010    0.26340    0.13020    1.000
    N53      N        0.49952    0.44029    0.57340    1.000
    N54      N        0.53376    0.53341    0.69190    1.000
    N55      N        0.37809    0.24479    0.25860    1.000
    N56      N        0.59400    0.43125    0.16480    1.000
    Mn7      Mn       0.50000    0.50000    0.50000    1.000
    C281     C        0.12595    0.86374    0.53033    1.000
    C282     C        0.15067    0.89894    0.63263    1.000
    C283     C        0.19140    0.93558    0.82493    1.000
    C284     C        0.21553    0.94452    0.95593    1.000
    C285     C        0.16452    0.94742    0.61693    1.000
    H169     H        0.15767    0.96073    0.53963    1.000
    C286     C        0.11661    0.81727    0.53823    1.000
    C287     C        0.11254    0.75292    0.62073    1.000
    C288     C        0.10697    0.87639    0.40393    1.000
    C289     C        0.18921    0.96978    0.73483    1.000
    H170     H        0.20227    0.00123    0.75443    1.000
    C290     C        0.08522    0.77987    0.44463    1.000
    H171     H        0.06957    0.78223    0.36503    1.000
    C291     C        0.12158    0.87571    0.26503    1.000
    H172     H        0.14307    0.86623    0.24793    1.000
    C292     C        0.08319    0.74051    0.49623    1.000
    H173     H        0.06587    0.71093    0.45763    1.000
    C293     C        0.07446    0.89042    0.42093    1.000
    H174     H        0.06367    0.89163    0.51223    1.000
    C294     C        0.05838    0.90251    0.30203    1.000
    H175     H        0.03627    0.91143    0.31543    1.000
    C295     C        0.10441    0.88891    0.15353    1.000
    H176     H        0.11537    0.88883    0.06143    1.000
    C296     C        0.24155    0.99514    0.99923    1.000
    C297     C        0.28326    0.02607    0.93623    1.000
    H177     H        0.29647    0.01603    0.86703    1.000
    C298     C        0.22401    0.01197    0.10263    1.000
    H178     H        0.19627    0.99243    0.14943    1.000
    C299     C        0.30521    0.07195    0.97653    1.000
    H179     H        0.33317    0.09233    0.93233    1.000
    C300     C        0.24883    0.05870    0.13443    1.000
    H180     H        0.23657    0.06993    0.20313    1.000
    N57      N        0.16715    0.89304    0.75993    1.000
    N58      N        0.13291    0.79992    0.64143    1.000
    N59      N        0.28858    0.08854    0.07473    1.000
    N60      N        0.07267    0.90208    0.16853    1.000
    C301     C        0.20739    0.80292    0.13633    1.000
    C302     C        0.18267    0.76772    0.03403    1.000
    C303     C        0.14194    0.73108    0.84173    1.000
    C304     C        0.11781    0.72214    0.71073    1.000
    C305     C        0.16882    0.71924    0.04973    1.000
    H181     H        0.17567    0.70593    0.12703    1.000
    C306     C        0.21673    0.84939    0.12843    1.000
    C307     C        0.22080    0.91374    0.04593    1.000
    C308     C        0.22637    0.79027    0.26273    1.000
    C309     C        0.14413    0.69688    0.93183    1.000
    H182     H        0.13107    0.66543    0.91223    1.000
    C310     C        0.24812    0.88679    0.22203    1.000
    H183     H        0.26377    0.88443    0.30163    1.000
    C311     C        0.21176    0.79095    0.40163    1.000
    H184     H        0.19027    0.80043    0.41873    1.000
    C312     C        0.25015    0.92615    0.17043    1.000
    H185     H        0.26747    0.95573    0.20903    1.000
    C313     C        0.25888    0.77624    0.24573    1.000
    H186     H        0.26967    0.77503    0.15443    1.000
    C314     C        0.27496    0.76415    0.36463    1.000
    H187     H        0.29707    0.75523    0.35123    1.000
    C315     C        0.22893    0.77775    0.51313    1.000
    H188     H        0.21797    0.77783    0.60523    1.000
    C316     C        0.09179    0.67152    0.66743    1.000
    C317     C        0.05008    0.64059    0.73043    1.000
    H189     H        0.03687    0.65063    0.79963    1.000
    C318     C        0.10933    0.65469    0.56403    1.000
    H190     H        0.13707    0.67423    0.51723    1.000
    C319     C        0.02813    0.59471    0.69013    1.000
    H191     H        0.00017    0.57433    0.73433    1.000
    C320     C        0.08451    0.60796    0.53223    1.000
    H192     H        0.09677    0.59673    0.46353    1.000
    N61      N        0.16619    0.77362    0.90673    1.000
    N62      N        0.20043    0.86674    0.02523    1.000
    N63      N        0.04476    0.57812    0.59193    1.000
    N64      N        0.26067    0.76458    0.49813    1.000
    Mn8      Mn       0.16667    0.83333    0.83333    1.000
    C321     C        0.79261    0.19708    0.86367    1.000
    C322     C        0.81733    0.23228    0.96597    1.000
    C323     C        0.85806    0.26892    0.15827    1.000
    C324     C        0.88219    0.27786    0.28927    1.000
    C325     C        0.83118    0.28076    0.95027    1.000
    H193     H        0.82433    0.29407    0.87297    1.000
    C326     C        0.78327    0.15061    0.87157    1.000
    C327     C        0.77920    0.08626    0.95407    1.000
    C328     C        0.77363    0.20973    0.73727    1.000
    C329     C        0.85587    0.30312    0.06817    1.000
    H194     H        0.86893    0.33457    0.08777    1.000
    C330     C        0.75188    0.11321    0.77797    1.000
    H195     H        0.73623    0.11557    0.69837    1.000
    C331     C        0.78824    0.20905    0.59837    1.000
    H196     H        0.80973    0.19957    0.58127    1.000
    C332     C        0.74985    0.07385    0.82957    1.000
    H197     H        0.73253    0.04427    0.79097    1.000
    C333     C        0.74112    0.22376    0.75427    1.000
    H198     H        0.73033    0.22497    0.84557    1.000
    C334     C        0.72504    0.23585    0.63537    1.000
    H199     H        0.70293    0.24477    0.64877    1.000
    C335     C        0.77107    0.22225    0.48687    1.000
    H200     H        0.78203    0.22217    0.39477    1.000
    C336     C        0.90821    0.32848    0.33257    1.000
    C337     C        0.94992    0.35941    0.26957    1.000
    H201     H        0.96313    0.34937    0.20037    1.000
    C338     C        0.89067    0.34531    0.43597    1.000
    H202     H        0.86293    0.32577    0.48277    1.000
    C339     C        0.97187    0.40529    0.30987    1.000
    H203     H        0.99983    0.42567    0.26567    1.000
    C340     C        0.91549    0.39204    0.46777    1.000
    H204     H        0.90323    0.40327    0.53647    1.000
    N65      N        0.83381    0.22638    0.09327    1.000
    N66      N        0.79957    0.13326    0.97477    1.000
    N67      N        0.95524    0.42188    0.40807    1.000
    N68      N        0.73933    0.23542    0.50187    1.000
    C341     C        0.87405    0.13626    0.46967    1.000
    C342     C        0.84933    0.10106    0.36737    1.000
    C343     C        0.80860    0.06442    0.17507    1.000
    C344     C        0.78447    0.05548    0.04407    1.000
    C345     C        0.83548    0.05258    0.38307    1.000
    H205     H        0.84233    0.03927    0.46037    1.000
    C346     C        0.88339    0.18273    0.46177    1.000
    C347     C        0.88746    0.24708    0.37927    1.000
    C348     C        0.89303    0.12361    0.59607    1.000
    C349     C        0.81079    0.03022    0.26517    1.000
    H206     H        0.79773    0.99877    0.24557    1.000
    C350     C        0.91478    0.22013    0.55537    1.000
    H207     H        0.93043    0.21777    0.63497    1.000
    C351     C        0.87842    0.12429    0.73497    1.000
    H208     H        0.85693    0.13377    0.75207    1.000
    C352     C        0.91681    0.25949    0.50377    1.000
    H209     H        0.93413    0.28907    0.54237    1.000
    C353     C        0.92554    0.10958    0.57907    1.000
    H210     H        0.93633    0.10837    0.48777    1.000
    C354     C        0.94162    0.09749    0.69797    1.000
    H211     H        0.96373    0.08857    0.68457    1.000
    C355     C        0.89559    0.11109    0.84647    1.000
    H212     H        0.88463    0.11117    0.93857    1.000
    C356     C        0.75845    0.00486    0.00077    1.000
    C357     C        0.71674    0.97393    0.06377    1.000
    H213     H        0.70353    0.98397    0.13297    1.000
    C358     C        0.77599    0.98803    0.89737    1.000
    H214     H        0.80373    0.00757    0.85057    1.000
    C359     C        0.69479    0.92805    0.02347    1.000
    H215     H        0.66683    0.90767    0.06767    1.000
    C360     C        0.75117    0.94130    0.86557    1.000
    H216     H        0.76343    0.93007    0.79687    1.000
    N69      N        0.83285    0.10696    0.24007    1.000
    N70      N        0.86709    0.20008    0.35857    1.000
    N71      N        0.71142    0.91146    0.92527    1.000
    N72      N        0.92733    0.09792    0.83147    1.000
    Mn9      Mn       0.83333    0.16667    0.16667    1.000
