data_functionalizedCrystal
_audit_creation_method	'EQeq! by Chris Wilmer'
_symmetry_space_group_name_H-M	'P1'
_symmetry_Int_Tables_number	1
_symmetry_cell_setting	triclinic
loop_
_symmetry_equiv_pos_as_xyz
  x,y,z
_cell_length_a	15.331
_cell_length_b	32.5
_cell_length_c	10.05
_cell_angle_alpha	90
_cell_angle_beta	107.451
_cell_angle_gamma	90
loop_
_atom_site_label
_atom_site_type_symbol
_atom_site_fract_x
_atom_site_fract_y
_atom_site_fract_z
_atom_site_charge
Mof_Cu	Cu	0.41706	0.71618	0.7348	0.92
Mof_Cu	Cu	0.48896	0.71437	0.47274	0.932
Mof_Cu	Cu	0.34304	0.77326	0.49804	0.924
Mof_O 	O 	0.37873	0.71549	0.531	-0.639
Mof_H 	H 	0.3316	0.6953	0.4864	0.195
Mof_O 	O 	0.4682	0.65718	0.7356	-0.374
Mof_O 	O 	0.53138	0.6604	0.559	-0.376
Mof_O 	O 	0.28992	0.72606	0.7447	-0.454
Mof_O 	O 	0.23321	0.76516	0.5526	-0.397
Mof_O 	O 	0.45313	0.726	0.9334	-0.622
Mof_H 	H 	0.5002	0.7068	0.9862	0.185
Mof_O 	O 	0.9661	0.8446	0.5316	-0.086
Mof_O 	O 	0.8543	0.8116	0.5458	-0.089
Mof_O 	O 	0.9923	0.81626	0.9331	-0.094
Mof_O 	O 	0.8825	0.84809	0.9689	-0.087
Mof_O 	O 	0.7742	0.5051	0.7174	-0.036
Mof_O 	O 	0.6902	0.5353	0.4734	-0.069
Mof_O 	O 	0.7269	0.51624	0.998	-0.067
Mof_O 	O 	0.6777	0.4723	0.1387	-0.083
Mof_O 	O 	0.5954	0.78182	0.9111	-0.396
Mof_O 	O 	0.54154	0.74079	0.7225	-0.443
Mof_O 	O 	0.6019	0.31531	0.7566	-0.38
Mof_O 	O 	0.6642	0.33136	0.982	-0.37
Mof_C 	C 	0.5111	0.64287	0.6587	0.342
Mof_C 	C 	0.5416	0.59885	0.6853	-0.049
Mof_C 	C 	0.5007	0.57399	0.761	0.001
Mof_H 	H 	0.4562	0.5847	0.7967	0.063
Mof_C 	C 	0.5261	0.53305	0.7836	-0.056
Mof_H 	H 	0.4952	0.5164	0.8298	0.084
Mof_C 	C 	0.5956	0.51613	0.74	0.016
Mof_C 	C 	0.6329	0.54145	0.6652	0.082
Mof_C 	C 	0.6078	0.58192	0.6359	-0.056
Mof_H 	H 	0.6356	0.5977	0.5828	0.097
Mof_C 	C 	0.6172	0.47156	0.7686	0.031
Mof_C 	C 	0.658	0.45538	0.9009	0.075
Mof_C 	C 	0.664	0.41353	0.9284	-0.033
Mof_H 	H 	0.6913	0.404	0.0186	0.087
Mof_C 	C 	0.6296	0.3862	0.8217	-0.056
Mof_C 	C 	0.5913	0.40146	0.6899	0.01
Mof_H 	H 	0.5695	0.3833	0.6158	0.047
Mof_C 	C 	0.5844	0.44351	0.6655	-0.065
Mof_H 	H 	0.5564	0.4528	0.5753	0.078
Mof_C 	C 	0.6317	0.3408	0.8522	0.327
Mof_C 	C 	0.2261	0.74637	0.6589	0.353
Mof_C 	C 	0.1361	0.74888	0.6855	-0.073
Mof_C 	C 	0.079	0.78216	0.6331	-0.043
Mof_H 	H 	0.0973	0.8024	0.5818	0.085
Mof_C 	C 	0.9966	0.78515	0.6569	0.076
Mof_C 	C 	0.9643	0.75626	0.7331	0.03
Mof_C 	C 	0.0212	0.72226	0.7805	-0.072
Mof_H 	H 	0.0018	0.7015	0.8287	0.086
Mof_C 	C 	0.1061	0.71862	0.7574	0.023
Mof_H 	H 	0.1426	0.6957	0.7906	0.049
Mof_C 	C 	0.8743	0.75767	0.7625	0.026
Mof_C 	C 	0.8125	0.7268	0.711	-0.065
Mof_H 	H 	0.8302	0.7048	0.6658	0.084
Mof_C 	C 	0.7244	0.72701	0.7233	0.014
Mof_H 	H 	0.6835	0.7061	0.6839	0.05
Mof_C 	C 	0.6987	0.75867	0.7947	-0.065
Mof_C 	C 	0.7612	0.78924	0.8564	-0.045
Mof_H 	H 	0.745	0.8102	0.9075	0.087
Mof_C 	C 	0.8475	0.78816	0.8409	0.078
Mof_C 	C 	0.6035	0.76052	0.8091	0.356
Mof_N 	N 	0.7079	0.5272	0.6128	-0.002
Mof_N 	N 	0.9379	0.82003	0.5919	0.01
Mof_N 	N 	0.9118	0.82016	0.9118	-0.003
Mof_N 	N 	0.6905	0.4834	0.0224	-0.001
Mof_O 	O 	0.903	0.8447	0.6681	-0.049
Mof_O 	O 	0.7445	0.4948	0.635	-0.046
Mof_O 	O 	0.758	0.5526	0.5704	-0.046
Mof_O 	O 	0.7651	0.4712	0.105	-0.049
Mof_Cu	Cu	0.58294	0.21618	0.7652	0.921
Mof_Cu	Cu	0.51104	0.21437	0.02726	0.928
Mof_Cu	Cu	0.65696	0.27326	0.00196	0.918
Mof_O 	O 	0.62127	0.21549	0.969	-0.624
Mof_H 	H 	0.6684	0.1953	0.0136	0.185
Mof_O 	O 	0.5318	0.15718	0.7644	-0.371
Mof_O 	O 	0.46862	0.1604	0.941	-0.37
Mof_O 	O 	0.71008	0.22606	0.7553	-0.451
Mof_O 	O 	0.76679	0.26516	0.9474	-0.39
Mof_O 	O 	0.54687	0.226	0.5666	-0.619
Mof_H 	H 	0.4998	0.2068	0.5138	0.188
Mof_O 	O 	0.0339	0.3446	0.9684	-0.084
Mof_O 	O 	0.1457	0.3116	0.9542	-0.086
Mof_O 	O 	0.0077	0.31626	0.5669	-0.091
Mof_O 	O 	0.1175	0.34809	0.5311	-0.084
Mof_O 	O 	0.2258	0.0051	0.7826	-0.035
Mof_O 	O 	0.3098	0.0353	0.0266	-0.071
Mof_O 	O 	0.2731	0.01624	0.502	-0.067
Mof_O 	O 	0.3223	0.9723	0.3613	-0.083
Mof_O 	O 	0.4046	0.28182	0.5889	-0.392
Mof_O 	O 	0.45846	0.24079	0.7775	-0.44
Mof_O 	O 	0.3981	0.81531	0.7434	-0.382
Mof_O 	O 	0.3358	0.83136	0.518	-0.376
Mof_C 	C 	0.4889	0.14287	0.8413	0.341
Mof_C 	C 	0.4584	0.09885	0.8147	-0.047
Mof_C 	C 	0.4993	0.07399	0.739	0.001
Mof_H 	H 	0.5438	0.0847	0.7033	0.065
Mof_C 	C 	0.4739	0.03305	0.7164	-0.056
Mof_H 	H 	0.5048	0.0164	0.6702	0.084
Mof_C 	C 	0.4044	0.01613	0.76	0.017
Mof_C 	C 	0.3671	0.04145	0.8348	0.082
Mof_C 	C 	0.3922	0.08192	0.8641	-0.056
Mof_H 	H 	0.3644	0.0977	0.9172	0.099
Mof_C 	C 	0.3828	0.97156	0.7314	0.027
Mof_C 	C 	0.342	0.95538	0.5991	0.079
Mof_C 	C 	0.336	0.91353	0.5716	-0.05
Mof_H 	H 	0.3087	0.904	0.4814	0.098
Mof_C 	C 	0.3704	0.8862	0.6783	-0.05
Mof_C 	C 	0.4087	0.90146	0.8101	0.005
Mof_H 	H 	0.4305	0.8833	0.8842	0.046
Mof_C 	C 	0.4156	0.94351	0.8345	-0.062
Mof_H 	H 	0.4436	0.9528	0.9247	0.076
Mof_C 	C 	0.3683	0.8408	0.6478	0.325
Mof_C 	C 	0.7739	0.24637	0.8411	0.352
Mof_C 	C 	0.8639	0.24888	0.8145	-0.07
Mof_C 	C 	0.921	0.28216	0.8669	-0.04
Mof_H 	H 	0.9027	0.3024	0.9182	0.087
Mof_C 	C 	0.0034	0.28515	0.8431	0.076
Mof_C 	C 	0.0357	0.25626	0.7669	0.029
Mof_C 	C 	0.9788	0.22226	0.7195	-0.067
Mof_H 	H 	0.9982	0.2015	0.6713	0.088
Mof_C 	C 	0.8939	0.21862	0.7426	0.023
Mof_H 	H 	0.8574	0.1957	0.7094	0.052
Mof_C 	C 	0.1257	0.25767	0.7375	0.027
Mof_C 	C 	0.1875	0.2268	0.789	-0.064
Mof_H 	H 	0.1698	0.2048	0.8342	0.086
Mof_C 	C 	0.2756	0.22701	0.7767	0.015
Mof_H 	H 	0.3165	0.2061	0.8161	0.052
Mof_C 	C 	0.3013	0.25867	0.7053	-0.062
Mof_C 	C 	0.2388	0.28924	0.6436	-0.045
Mof_H 	H 	0.255	0.3102	0.5925	0.089
Mof_C 	C 	0.1525	0.28816	0.6591	0.079
Mof_C 	C 	0.3965	0.26052	0.6909	0.356
Mof_N 	N 	0.2921	0.0272	0.8872	-0.001
Mof_N 	N 	0.0621	0.32003	0.9081	0.01
Mof_N 	N 	0.0882	0.32016	0.5882	-0.003
Mof_N 	N 	0.3095	0.9834	0.4776	-0.001
Mof_O 	O 	0.097	0.3447	0.8319	-0.049
Mof_O 	O 	0.2555	0.9948	0.865	-0.048
Mof_O 	O 	0.242	0.0526	0.9296	-0.043
Mof_O 	O 	0.2349	0.9712	0.395	-0.048
Mof_Cu	Cu	0.58294	0.28382	0.2652	0.921
Mof_Cu	Cu	0.51104	0.28563	0.52726	0.933
Mof_Cu	Cu	0.65696	0.22674	0.50196	0.925
Mof_O 	O 	0.62127	0.28451	0.469	-0.638
Mof_H 	H 	0.6684	0.3047	0.5136	0.196
Mof_O 	O 	0.5318	0.34282	0.2644	-0.373
Mof_O 	O 	0.46862	0.3396	0.441	-0.375
Mof_O 	O 	0.71008	0.27394	0.2553	-0.453
Mof_O 	O 	0.76679	0.23484	0.4474	-0.396
Mof_O 	O 	0.54687	0.274	0.0666	-0.621
Mof_H 	H 	0.4998	0.2932	0.0138	0.185
Mof_O 	O 	0.0339	0.1554	0.4684	-0.086
Mof_O 	O 	0.1457	0.1884	0.4542	-0.089
Mof_O 	O 	0.0077	0.18374	0.0669	-0.094
Mof_O 	O 	0.1175	0.15191	0.0311	-0.087
Mof_O 	O 	0.2258	0.4949	0.2826	-0.036
Mof_O 	O 	0.3098	0.4647	0.5266	-0.069
Mof_O 	O 	0.2731	0.48376	0.002	-0.067
Mof_O 	O 	0.3223	0.5277	0.8613	-0.083
Mof_O 	O 	0.4046	0.21818	0.0889	-0.396
Mof_O 	O 	0.45846	0.25921	0.2775	-0.443
Mof_O 	O 	0.3981	0.68469	0.2434	-0.38
Mof_O 	O 	0.3358	0.66864	0.018	-0.37
Mof_C 	C 	0.4889	0.35713	0.3413	0.342
Mof_C 	C 	0.4584	0.40115	0.3147	-0.049
Mof_C 	C 	0.4993	0.42601	0.239	0.001
Mof_H 	H 	0.5438	0.4153	0.2033	0.063
Mof_C 	C 	0.4739	0.46695	0.2164	-0.056
Mof_H 	H 	0.5048	0.4836	0.1702	0.084
Mof_C 	C 	0.4044	0.48387	0.26	0.016
Mof_C 	C 	0.3671	0.45855	0.3348	0.082
Mof_C 	C 	0.3922	0.41808	0.3641	-0.056
Mof_H 	H 	0.3644	0.4023	0.4172	0.097
Mof_C 	C 	0.3828	0.52844	0.2314	0.031
Mof_C 	C 	0.342	0.54462	0.0991	0.075
Mof_C 	C 	0.336	0.58647	0.0716	-0.033
Mof_H 	H 	0.3087	0.596	0.9814	0.087
Mof_C 	C 	0.3704	0.6138	0.1783	-0.056
Mof_C 	C 	0.4087	0.59854	0.3101	0.01
Mof_H 	H 	0.4305	0.6167	0.3842	0.047
Mof_C 	C 	0.4156	0.55649	0.3345	-0.065
Mof_H 	H 	0.4436	0.5472	0.4247	0.078
Mof_C 	C 	0.3683	0.6592	0.1478	0.327
Mof_C 	C 	0.7739	0.25363	0.3411	0.353
Mof_C 	C 	0.8639	0.25112	0.3145	-0.073
Mof_C 	C 	0.921	0.21784	0.3669	-0.043
Mof_H 	H 	0.9027	0.1976	0.4182	0.085
Mof_C 	C 	0.0034	0.21485	0.3431	0.076
Mof_C 	C 	0.0357	0.24374	0.2669	0.03
Mof_C 	C 	0.9788	0.27774	0.2195	-0.072
Mof_H 	H 	0.9982	0.2985	0.1713	0.086
Mof_C 	C 	0.8939	0.28138	0.2426	0.023
Mof_H 	H 	0.8574	0.3043	0.2094	0.049
Mof_C 	C 	0.1257	0.24233	0.2375	0.026
Mof_C 	C 	0.1875	0.2732	0.289	-0.065
Mof_H 	H 	0.1698	0.2952	0.3342	0.084
Mof_C 	C 	0.2756	0.27299	0.2767	0.014
Mof_H 	H 	0.3165	0.2939	0.3161	0.05
Mof_C 	C 	0.3013	0.24133	0.2053	-0.065
Mof_C 	C 	0.2388	0.21076	0.1436	-0.045
Mof_H 	H 	0.255	0.1898	0.0925	0.087
Mof_C 	C 	0.1525	0.21184	0.1591	0.078
Mof_C 	C 	0.3965	0.23948	0.1909	0.356
Mof_N 	N 	0.2921	0.4728	0.3872	-0.002
Mof_N 	N 	0.0621	0.17997	0.4081	0.01
Mof_N 	N 	0.0882	0.17984	0.0882	-0.003
Mof_N 	N 	0.3095	0.5166	0.9776	-0.001
Mof_O 	O 	0.097	0.1553	0.3319	-0.049
Mof_O 	O 	0.2555	0.5052	0.365	-0.046
Mof_O 	O 	0.242	0.4474	0.4296	-0.046
Mof_O 	O 	0.2349	0.5288	0.895	-0.049
Mof_Cu	Cu	0.41706	0.78382	0.2348	0.921
Mof_Cu	Cu	0.48896	0.78563	0.97274	0.928
Mof_Cu	Cu	0.34304	0.72674	0.99804	0.918
Mof_O 	O 	0.37873	0.78451	0.031	-0.624
Mof_H 	H 	0.3316	0.8047	0.9864	0.185
Mof_O 	O 	0.4682	0.84282	0.2356	-0.371
Mof_O 	O 	0.53138	0.8396	0.059	-0.37
Mof_O 	O 	0.28992	0.77394	0.2447	-0.451
Mof_O 	O 	0.23321	0.73484	0.0526	-0.39
Mof_O 	O 	0.45313	0.774	0.4334	-0.619
Mof_H 	H 	0.5002	0.7932	0.4862	0.188
Mof_O 	O 	0.9661	0.6554	0.0316	-0.084
Mof_O 	O 	0.8543	0.6884	0.0458	-0.086
Mof_O 	O 	0.9923	0.68374	0.4331	-0.091
Mof_O 	O 	0.8825	0.65191	0.4689	-0.084
Mof_O 	O 	0.7742	0.9949	0.2174	-0.035
Mof_O 	O 	0.6902	0.9647	0.9734	-0.071
Mof_O 	O 	0.7269	0.98376	0.498	-0.067
Mof_O 	O 	0.6777	0.0277	0.6387	-0.083
Mof_O 	O 	0.5954	0.71818	0.4111	-0.392
Mof_O 	O 	0.54154	0.75921	0.2225	-0.44
Mof_O 	O 	0.6019	0.18469	0.2566	-0.382
Mof_O 	O 	0.6642	0.16864	0.482	-0.376
Mof_C 	C 	0.5111	0.85713	0.1587	0.341
Mof_C 	C 	0.5416	0.90115	0.1853	-0.047
Mof_C 	C 	0.5007	0.92601	0.261	0.001
Mof_H 	H 	0.4562	0.9153	0.2967	0.065
Mof_C 	C 	0.5261	0.96695	0.2836	-0.056
Mof_H 	H 	0.4952	0.9836	0.3298	0.084
Mof_C 	C 	0.5956	0.98387	0.24	0.017
Mof_C 	C 	0.6329	0.95855	0.1652	0.082
Mof_C 	C 	0.6078	0.91808	0.1359	-0.056
Mof_H 	H 	0.6356	0.9023	0.0828	0.099
Mof_C 	C 	0.6172	0.02844	0.2686	0.027
Mof_C 	C 	0.658	0.04462	0.4009	0.079
Mof_C 	C 	0.664	0.08647	0.4284	-0.05
Mof_H 	H 	0.6913	0.096	0.5186	0.098
Mof_C 	C 	0.6296	0.1138	0.3217	-0.05
Mof_C 	C 	0.5913	0.09854	0.1899	0.005
Mof_H 	H 	0.5695	0.1167	0.1158	0.046
Mof_C 	C 	0.5844	0.05649	0.1655	-0.062
Mof_H 	H 	0.5564	0.0472	0.0753	0.076
Mof_C 	C 	0.6317	0.1592	0.3522	0.325
Mof_C 	C 	0.2261	0.75363	0.1589	0.352
Mof_C 	C 	0.1361	0.75112	0.1855	-0.07
Mof_C 	C 	0.079	0.71784	0.1331	-0.04
Mof_H 	H 	0.0973	0.6976	0.0818	0.087
Mof_C 	C 	0.9966	0.71485	0.1569	0.076
Mof_C 	C 	0.9643	0.74374	0.2331	0.029
Mof_C 	C 	0.0212	0.77774	0.2805	-0.067
Mof_H 	H 	0.0018	0.7985	0.3287	0.088
Mof_C 	C 	0.1061	0.78138	0.2574	0.023
Mof_H 	H 	0.1426	0.8043	0.2906	0.052
Mof_C 	C 	0.8743	0.74233	0.2625	0.027
Mof_C 	C 	0.8125	0.7732	0.211	-0.064
Mof_H 	H 	0.8302	0.7952	0.1658	0.086
Mof_C 	C 	0.7244	0.77299	0.2233	0.015
Mof_H 	H 	0.6835	0.7939	0.1839	0.052
Mof_C 	C 	0.6987	0.74133	0.2947	-0.062
Mof_C 	C 	0.7612	0.71076	0.3564	-0.045
Mof_H 	H 	0.745	0.6898	0.4075	0.089
Mof_C 	C 	0.8475	0.71184	0.3409	0.079
Mof_C 	C 	0.6035	0.73948	0.3091	0.356
Mof_N 	N 	0.7079	0.9728	0.1128	-0.001
Mof_N 	N 	0.9379	0.67997	0.0919	0.01
Mof_N 	N 	0.9118	0.67984	0.4118	-0.003
Mof_N 	N 	0.6905	0.0166	0.5224	-0.001
Mof_O 	O 	0.903	0.6553	0.1681	-0.049
Mof_O 	O 	0.7445	0.0052	0.135	-0.048
Mof_O 	O 	0.758	0.9474	0.0704	-0.043
Mof_O 	O 	0.7651	0.0288	0.605	-0.048
_end
