data_functionalizedCrystal
_audit_creation_method	'EQeq! by Chris Wilmer'
_symmetry_space_group_name_H-M	'P1'
_symmetry_Int_Tables_number	1
_symmetry_cell_setting	triclinic
loop_
_symmetry_equiv_pos_as_xyz
  x,y,z
_cell_length_a	25.5147
_cell_length_b	25.5147
_cell_length_c	14.5426
_cell_angle_alpha	90
_cell_angle_beta	90
_cell_angle_gamma	90
loop_
_atom_site_label
_atom_site_type_symbol
_atom_site_fract_x
_atom_site_fract_y
_atom_site_fract_z
_atom_site_charge
Mof_Co	Co	0.49964	0.31661	0.16363	1.188
Mof_O 	O 	0.5583	0.3645	0.1041	-0.364
Mof_O 	O 	0.5651	0.3431	0.2509	-0.339
Mof_O 	O 	0.7752	0.466	0.0125	-0.452
Mof_O 	O 	0.696	0.4553	0.948	-0.442
Mof_C 	C 	0.6379	0.3858	0.1812	-0.056
Mof_C 	C 	0.7562	0.4011	0.335	0.056
Mof_C 	C 	0.6563	0.408	0.1022	0.016
Mof_H 	H 	0.6342	0.4105	0.0497	0.055
Mof_C 	C 	0.7084	0.4272	0.0986	-0.09
Mof_C 	C 	0.7392	0.4245	0.1787	-0.018
Mof_H 	H 	0.7738	0.4382	0.1782	0.074
Mof_C 	C 	0.72	0.4026	0.2571	0.022
Mof_C 	C 	0.6693	0.3836	0.2586	-0.032
Mof_H 	H 	0.6558	0.3687	0.3137	0.08
Mof_C 	C 	0.5847	0.3638	0.1796	0.275
Mof_C 	C 	0.7293	0.452	0.0138	0.398
Mof_O 	O 	0.8106	0.4101	0.3069	-0.163
Mof_N 	N 	0.4521	0.3829	0.1948	-0.204
Mof_C 	C 	0.4195	0.3805	0.2713	0.046
Mof_H 	H 	0.424	0.3534	0.3153	0.031
Mof_C 	C 	0.3804	0.4178	0.2833	-0.085
Mof_H 	H 	0.3582	0.4162	0.3355	0.075
Mof_C 	C 	0.374	0.4575	0.219	0.025
Mof_H 	H 	0.3472	0.483	0.227	0.037
Mof_C 	C 	0.4066	0.4599	0.1423	-0.087
Mof_H 	H 	0.4021	0.487	0.0983	0.072
Mof_C 	C 	0.4457	0.4226	0.1303	0.053
Mof_H 	H 	0.4679	0.4242	0.0781	0.016
Mof_C 	C 	0.5882	0.258	0.0841	0.184
Mof_C 	C 	0.6024	0.274	0.9859	-0.045
Mof_C 	C 	0.6294	0.263	0.0292	0.016
Mof_Co	Co	0.99964	0.81661	0.66363	1.187
Mof_O 	O 	0.0583	0.8645	0.6041	-0.365
Mof_O 	O 	0.0651	0.8431	0.7509	-0.34
Mof_O 	O 	0.2752	0.966	0.5125	-0.453
Mof_O 	O 	0.196	0.9553	0.448	-0.443
Mof_C 	C 	0.1379	0.8858	0.6812	-0.057
Mof_C 	C 	0.2562	0.9011	0.835	0.055
Mof_C 	C 	0.1563	0.908	0.6022	0.015
Mof_H 	H 	0.1342	0.9105	0.5497	0.054
Mof_C 	C 	0.2084	0.9272	0.5986	-0.091
Mof_C 	C 	0.2392	0.9245	0.6787	-0.019
Mof_H 	H 	0.2738	0.9382	0.6782	0.073
Mof_C 	C 	0.22	0.9026	0.7571	0.021
Mof_C 	C 	0.1693	0.8836	0.7586	-0.033
Mof_H 	H 	0.1558	0.8687	0.8137	0.079
Mof_C 	C 	0.0847	0.8638	0.6796	0.274
Mof_C 	C 	0.2293	0.952	0.5138	0.397
Mof_O 	O 	0.3106	0.9101	0.8069	-0.164
Mof_N 	N 	0.9521	0.8829	0.6948	-0.205
Mof_C 	C 	0.9195	0.8805	0.7713	0.045
Mof_H 	H 	0.924	0.8534	0.8153	0.03
Mof_C 	C 	0.8804	0.9178	0.7833	-0.085
Mof_H 	H 	0.8582	0.9162	0.8355	0.074
Mof_C 	C 	0.874	0.9575	0.719	0.025
Mof_H 	H 	0.8472	0.983	0.727	0.037
Mof_C 	C 	0.9066	0.9599	0.6423	-0.088
Mof_H 	H 	0.9021	0.987	0.5983	0.071
Mof_C 	C 	0.9457	0.9226	0.6303	0.052
Mof_H 	H 	0.9679	0.9242	0.5781	0.016
Mof_C 	C 	0.0882	0.758	0.5841	0.184
Mof_C 	C 	0.1024	0.774	0.4859	-0.045
Mof_C 	C 	0.1294	0.763	0.5292	0.016
Mof_Co	Co	0.50036	0.68339	0.16363	1.187
Mof_O 	O 	0.4417	0.6355	0.1041	-0.365
Mof_O 	O 	0.4349	0.6569	0.2509	-0.34
Mof_O 	O 	0.2248	0.534	0.0125	-0.453
Mof_O 	O 	0.304	0.5447	0.948	-0.443
Mof_C 	C 	0.3621	0.6142	0.1812	-0.057
Mof_C 	C 	0.2438	0.5989	0.335	0.055
Mof_C 	C 	0.3437	0.592	0.1022	0.015
Mof_H 	H 	0.3658	0.5895	0.0497	0.054
Mof_C 	C 	0.2916	0.5728	0.0986	-0.091
Mof_C 	C 	0.2608	0.5755	0.1787	-0.019
Mof_H 	H 	0.2262	0.5618	0.1782	0.073
Mof_C 	C 	0.28	0.5974	0.2571	0.021
Mof_C 	C 	0.3307	0.6164	0.2586	-0.033
Mof_H 	H 	0.3442	0.6313	0.3137	0.079
Mof_C 	C 	0.4153	0.6362	0.1796	0.274
Mof_C 	C 	0.2707	0.548	0.0138	0.397
Mof_O 	O 	0.1894	0.5899	0.3069	-0.164
Mof_N 	N 	0.5479	0.6171	0.1948	-0.205
Mof_C 	C 	0.5805	0.6195	0.2713	0.045
Mof_H 	H 	0.576	0.6466	0.3153	0.03
Mof_C 	C 	0.6196	0.5822	0.2833	-0.086
Mof_H 	H 	0.6418	0.5838	0.3355	0.074
Mof_C 	C 	0.626	0.5425	0.219	0.024
Mof_H 	H 	0.6528	0.517	0.227	0.036
Mof_C 	C 	0.5934	0.5401	0.1423	-0.088
Mof_H 	H 	0.5979	0.513	0.0983	0.071
Mof_C 	C 	0.5543	0.5774	0.1303	0.052
Mof_H 	H 	0.5321	0.5758	0.0781	0.016
Mof_C 	C 	0.4118	0.742	0.0841	0.184
Mof_C 	C 	0.3976	0.726	0.9859	-0.045
Mof_C 	C 	0.3706	0.737	0.0292	0.016
Mof_Co	Co	0.00036	0.18339	0.66363	1.187
Mof_O 	O 	0.9417	0.1355	0.6041	-0.365
Mof_O 	O 	0.9349	0.1569	0.7509	-0.34
Mof_O 	O 	0.7248	0.034	0.5125	-0.453
Mof_O 	O 	0.804	0.0447	0.448	-0.443
Mof_C 	C 	0.8621	0.1142	0.6812	-0.057
Mof_C 	C 	0.7438	0.0989	0.835	0.055
Mof_C 	C 	0.8437	0.092	0.6022	0.015
Mof_H 	H 	0.8658	0.0895	0.5497	0.054
Mof_C 	C 	0.7916	0.0728	0.5986	-0.091
Mof_C 	C 	0.7608	0.0755	0.6787	-0.019
Mof_H 	H 	0.7262	0.0618	0.6782	0.073
Mof_C 	C 	0.78	0.0974	0.7571	0.021
Mof_C 	C 	0.8307	0.1164	0.7586	-0.033
Mof_H 	H 	0.8442	0.1313	0.8137	0.079
Mof_C 	C 	0.9153	0.1362	0.6796	0.274
Mof_C 	C 	0.7707	0.048	0.5138	0.397
Mof_O 	O 	0.6894	0.0899	0.8069	-0.164
Mof_N 	N 	0.0479	0.1171	0.6948	-0.205
Mof_C 	C 	0.0805	0.1195	0.7713	0.045
Mof_H 	H 	0.076	0.1466	0.8153	0.03
Mof_C 	C 	0.1196	0.0822	0.7833	-0.085
Mof_H 	H 	0.1418	0.0838	0.8355	0.074
Mof_C 	C 	0.126	0.0425	0.719	0.025
Mof_H 	H 	0.1528	0.017	0.727	0.037
Mof_C 	C 	0.0934	0.0401	0.6423	-0.088
Mof_H 	H 	0.0979	0.013	0.5983	0.071
Mof_C 	C 	0.0543	0.0774	0.6303	0.052
Mof_H 	H 	0.0321	0.0758	0.5781	0.016
Mof_C 	C 	0.9118	0.242	0.5841	0.184
Mof_C 	C 	0.8976	0.226	0.4859	-0.045
Mof_C 	C 	0.8706	0.237	0.5292	0.016
Mof_Co	Co	0.31661	0.50036	0.83637	1.187
Mof_O 	O 	0.3645	0.4417	0.8959	-0.365
Mof_O 	O 	0.3431	0.4349	0.7491	-0.34
Mof_O 	O 	0.466	0.2248	0.9875	-0.453
Mof_O 	O 	0.4553	0.304	0.052	-0.443
Mof_C 	C 	0.3858	0.3621	0.8188	-0.057
Mof_C 	C 	0.4011	0.2438	0.665	0.055
Mof_C 	C 	0.408	0.3437	0.8978	0.015
Mof_H 	H 	0.4105	0.3658	0.9503	0.054
Mof_C 	C 	0.4272	0.2916	0.9014	-0.091
Mof_C 	C 	0.4245	0.2608	0.8213	-0.019
Mof_H 	H 	0.4382	0.2262	0.8218	0.073
Mof_C 	C 	0.4026	0.28	0.7429	0.021
Mof_C 	C 	0.3836	0.3307	0.7414	-0.033
Mof_H 	H 	0.3687	0.3442	0.6863	0.079
Mof_C 	C 	0.3638	0.4153	0.8204	0.274
Mof_C 	C 	0.452	0.2707	0.9862	0.397
Mof_O 	O 	0.4101	0.1894	0.6931	-0.164
Mof_N 	N 	0.3829	0.5479	0.8052	-0.205
Mof_C 	C 	0.3805	0.5805	0.7287	0.045
Mof_H 	H 	0.3534	0.576	0.6847	0.03
Mof_C 	C 	0.4178	0.6196	0.7167	-0.086
Mof_H 	H 	0.4162	0.6418	0.6645	0.074
Mof_C 	C 	0.4575	0.626	0.781	0.024
Mof_H 	H 	0.483	0.6528	0.773	0.036
Mof_C 	C 	0.4599	0.5934	0.8577	-0.088
Mof_H 	H 	0.487	0.5979	0.9017	0.071
Mof_C 	C 	0.4226	0.5543	0.8697	0.052
Mof_H 	H 	0.4242	0.5321	0.9219	0.016
Mof_C 	C 	0.258	0.4118	0.9159	0.184
Mof_C 	C 	0.274	0.3976	0.0141	-0.045
Mof_C 	C 	0.263	0.3706	0.9708	0.016
Mof_Co	Co	0.81661	0.00036	0.33637	1.187
Mof_O 	O 	0.8645	0.9417	0.3959	-0.365
Mof_O 	O 	0.8431	0.9349	0.2491	-0.34
Mof_O 	O 	0.966	0.7248	0.4875	-0.453
Mof_O 	O 	0.9553	0.804	0.552	-0.443
Mof_C 	C 	0.8858	0.8621	0.3188	-0.057
Mof_C 	C 	0.9011	0.7438	0.165	0.055
Mof_C 	C 	0.908	0.8437	0.3978	0.015
Mof_H 	H 	0.9105	0.8658	0.4503	0.054
Mof_C 	C 	0.9272	0.7916	0.4014	-0.091
Mof_C 	C 	0.9245	0.7608	0.3213	-0.019
Mof_H 	H 	0.9382	0.7262	0.3218	0.073
Mof_C 	C 	0.9026	0.78	0.2429	0.021
Mof_C 	C 	0.8836	0.8307	0.2414	-0.033
Mof_H 	H 	0.8687	0.8442	0.1863	0.079
Mof_C 	C 	0.8638	0.9153	0.3204	0.274
Mof_C 	C 	0.952	0.7707	0.4862	0.397
Mof_O 	O 	0.9101	0.6894	0.1931	-0.164
Mof_N 	N 	0.8829	0.0479	0.3052	-0.205
Mof_C 	C 	0.8805	0.0805	0.2287	0.045
Mof_H 	H 	0.8534	0.076	0.1847	0.03
Mof_C 	C 	0.9178	0.1196	0.2167	-0.085
Mof_H 	H 	0.9162	0.1418	0.1645	0.074
Mof_C 	C 	0.9575	0.126	0.281	0.025
Mof_H 	H 	0.983	0.1528	0.273	0.037
Mof_C 	C 	0.9599	0.0934	0.3577	-0.088
Mof_H 	H 	0.987	0.0979	0.4017	0.071
Mof_C 	C 	0.9226	0.0543	0.3697	0.052
Mof_H 	H 	0.9242	0.0321	0.4219	0.016
Mof_C 	C 	0.758	0.9118	0.4159	0.184
Mof_C 	C 	0.774	0.8976	0.5141	-0.045
Mof_C 	C 	0.763	0.8706	0.4708	0.016
Mof_Co	Co	0.68339	0.49964	0.83637	1.187
Mof_O 	O 	0.6355	0.5583	0.8959	-0.365
Mof_O 	O 	0.6569	0.5651	0.7491	-0.34
Mof_O 	O 	0.534	0.7752	0.9875	-0.453
Mof_O 	O 	0.5447	0.696	0.052	-0.443
Mof_C 	C 	0.6142	0.6379	0.8188	-0.057
Mof_C 	C 	0.5989	0.7562	0.665	0.055
Mof_C 	C 	0.592	0.6563	0.8978	0.015
Mof_H 	H 	0.5895	0.6342	0.9503	0.054
Mof_C 	C 	0.5728	0.7084	0.9014	-0.091
Mof_C 	C 	0.5755	0.7392	0.8213	-0.019
Mof_H 	H 	0.5618	0.7738	0.8218	0.073
Mof_C 	C 	0.5974	0.72	0.7429	0.021
Mof_C 	C 	0.6164	0.6693	0.7414	-0.033
Mof_H 	H 	0.6313	0.6558	0.6863	0.079
Mof_C 	C 	0.6362	0.5847	0.8204	0.274
Mof_C 	C 	0.548	0.7293	0.9862	0.397
Mof_O 	O 	0.5899	0.8106	0.6931	-0.164
Mof_N 	N 	0.6171	0.4521	0.8052	-0.205
Mof_C 	C 	0.6195	0.4195	0.7287	0.045
Mof_H 	H 	0.6466	0.424	0.6847	0.03
Mof_C 	C 	0.5822	0.3804	0.7167	-0.086
Mof_H 	H 	0.5838	0.3582	0.6645	0.074
Mof_C 	C 	0.5425	0.374	0.781	0.024
Mof_H 	H 	0.517	0.3472	0.773	0.036
Mof_C 	C 	0.5401	0.4066	0.8577	-0.088
Mof_H 	H 	0.513	0.4021	0.9017	0.071
Mof_C 	C 	0.5774	0.4457	0.8697	0.052
Mof_H 	H 	0.5758	0.4679	0.9219	0.016
Mof_C 	C 	0.742	0.5882	0.9159	0.184
Mof_C 	C 	0.726	0.6024	0.0141	-0.045
Mof_C 	C 	0.737	0.6294	0.9708	0.016
Mof_Co	Co	0.18339	0.99964	0.33637	1.187
Mof_O 	O 	0.1355	0.0583	0.3959	-0.365
Mof_O 	O 	0.1569	0.0651	0.2491	-0.34
Mof_O 	O 	0.034	0.2752	0.4875	-0.453
Mof_O 	O 	0.0447	0.196	0.552	-0.443
Mof_C 	C 	0.1142	0.1379	0.3188	-0.057
Mof_C 	C 	0.0989	0.2562	0.165	0.055
Mof_C 	C 	0.092	0.1563	0.3978	0.015
Mof_H 	H 	0.0895	0.1342	0.4503	0.054
Mof_C 	C 	0.0728	0.2084	0.4014	-0.091
Mof_C 	C 	0.0755	0.2392	0.3213	-0.019
Mof_H 	H 	0.0618	0.2738	0.3218	0.073
Mof_C 	C 	0.0974	0.22	0.2429	0.021
Mof_C 	C 	0.1164	0.1693	0.2414	-0.033
Mof_H 	H 	0.1313	0.1558	0.1863	0.079
Mof_C 	C 	0.1362	0.0847	0.3204	0.274
Mof_C 	C 	0.048	0.2293	0.4862	0.397
Mof_O 	O 	0.0899	0.3106	0.1931	-0.164
Mof_N 	N 	0.1171	0.9521	0.3052	-0.205
Mof_C 	C 	0.1195	0.9195	0.2287	0.045
Mof_H 	H 	0.1466	0.924	0.1847	0.03
Mof_C 	C 	0.0822	0.8804	0.2167	-0.085
Mof_H 	H 	0.0838	0.8582	0.1645	0.074
Mof_C 	C 	0.0425	0.874	0.281	0.025
Mof_H 	H 	0.017	0.8472	0.273	0.037
Mof_C 	C 	0.0401	0.9066	0.3577	-0.088
Mof_H 	H 	0.013	0.9021	0.4017	0.071
Mof_C 	C 	0.0774	0.9457	0.3697	0.052
Mof_H 	H 	0.0758	0.9679	0.4219	0.016
Mof_C 	C 	0.242	0.0882	0.4159	0.184
Mof_C 	C 	0.226	0.1024	0.5141	-0.045
Mof_C 	C 	0.237	0.1294	0.4708	0.016
Mof_Co	Co	0.00036	0.31661	0.58637	1.187
Mof_O 	O 	0.9417	0.3645	0.6459	-0.365
Mof_O 	O 	0.9349	0.3431	0.4991	-0.34
Mof_O 	O 	0.7248	0.466	0.7375	-0.453
Mof_O 	O 	0.804	0.4553	0.802	-0.443
Mof_C 	C 	0.8621	0.3858	0.5688	-0.057
Mof_C 	C 	0.7438	0.4011	0.415	0.055
Mof_C 	C 	0.8437	0.408	0.6478	0.015
Mof_H 	H 	0.8658	0.4105	0.7003	0.054
Mof_C 	C 	0.7916	0.4272	0.6514	-0.091
Mof_C 	C 	0.7608	0.4245	0.5713	-0.019
Mof_H 	H 	0.7262	0.4382	0.5718	0.073
Mof_C 	C 	0.78	0.4026	0.4929	0.021
Mof_C 	C 	0.8307	0.3836	0.4914	-0.033
Mof_H 	H 	0.8442	0.3687	0.4363	0.079
Mof_C 	C 	0.9153	0.3638	0.5704	0.274
Mof_C 	C 	0.7707	0.452	0.7362	0.397
Mof_O 	O 	0.6894	0.4101	0.4431	-0.164
Mof_N 	N 	0.0479	0.3829	0.5552	-0.205
Mof_C 	C 	0.0805	0.3805	0.4787	0.045
Mof_H 	H 	0.076	0.3534	0.4347	0.03
Mof_C 	C 	0.1196	0.4178	0.4667	-0.086
Mof_H 	H 	0.1418	0.4162	0.4145	0.074
Mof_C 	C 	0.126	0.4575	0.531	0.025
Mof_H 	H 	0.1528	0.483	0.523	0.036
Mof_C 	C 	0.0934	0.4599	0.6077	-0.088
Mof_H 	H 	0.0979	0.487	0.6517	0.071
Mof_C 	C 	0.0543	0.4226	0.6197	0.052
Mof_H 	H 	0.0321	0.4242	0.6719	0.016
Mof_C 	C 	0.9118	0.258	0.6659	0.184
Mof_C 	C 	0.8976	0.274	0.7641	-0.045
Mof_C 	C 	0.8706	0.263	0.7208	0.016
Mof_Co	Co	0.50036	0.81661	0.08637	1.187
Mof_O 	O 	0.4417	0.8645	0.1459	-0.365
Mof_O 	O 	0.4349	0.8431	0.9991	-0.34
Mof_O 	O 	0.2248	0.966	0.2375	-0.453
Mof_O 	O 	0.304	0.9553	0.302	-0.443
Mof_C 	C 	0.3621	0.8858	0.0688	-0.057
Mof_C 	C 	0.2438	0.9011	0.915	0.055
Mof_C 	C 	0.3437	0.908	0.1478	0.015
Mof_H 	H 	0.3658	0.9105	0.2003	0.054
Mof_C 	C 	0.2916	0.9272	0.1514	-0.091
Mof_C 	C 	0.2608	0.9245	0.0713	-0.019
Mof_H 	H 	0.2262	0.9382	0.0718	0.073
Mof_C 	C 	0.28	0.9026	0.9929	0.021
Mof_C 	C 	0.3307	0.8836	0.9914	-0.033
Mof_H 	H 	0.3442	0.8687	0.9363	0.079
Mof_C 	C 	0.4153	0.8638	0.0704	0.274
Mof_C 	C 	0.2707	0.952	0.2362	0.397
Mof_O 	O 	0.1894	0.9101	0.9431	-0.164
Mof_N 	N 	0.5479	0.8829	0.0552	-0.205
Mof_C 	C 	0.5805	0.8805	0.9787	0.045
Mof_H 	H 	0.576	0.8534	0.9347	0.03
Mof_C 	C 	0.6196	0.9178	0.9667	-0.085
Mof_H 	H 	0.6418	0.9162	0.9145	0.074
Mof_C 	C 	0.626	0.9575	0.031	0.024
Mof_H 	H 	0.6528	0.983	0.023	0.037
Mof_C 	C 	0.5934	0.9599	0.1077	-0.088
Mof_H 	H 	0.5979	0.987	0.1517	0.071
Mof_C 	C 	0.5543	0.9226	0.1197	0.052
Mof_H 	H 	0.5321	0.9242	0.1719	0.016
Mof_C 	C 	0.4118	0.758	0.1659	0.184
Mof_C 	C 	0.3976	0.774	0.2641	-0.045
Mof_C 	C 	0.3706	0.763	0.2208	0.017
Mof_Co	Co	0.99964	0.68339	0.58637	1.187
Mof_O 	O 	0.0583	0.6355	0.6459	-0.365
Mof_O 	O 	0.0651	0.6569	0.4991	-0.34
Mof_O 	O 	0.2752	0.534	0.7375	-0.453
Mof_O 	O 	0.196	0.5447	0.802	-0.443
Mof_C 	C 	0.1379	0.6142	0.5688	-0.057
Mof_C 	C 	0.2562	0.5989	0.415	0.055
Mof_C 	C 	0.1563	0.592	0.6478	0.015
Mof_H 	H 	0.1342	0.5895	0.7003	0.054
Mof_C 	C 	0.2084	0.5728	0.6514	-0.091
Mof_C 	C 	0.2392	0.5755	0.5713	-0.019
Mof_H 	H 	0.2738	0.5618	0.5718	0.073
Mof_C 	C 	0.22	0.5974	0.4929	0.021
Mof_C 	C 	0.1693	0.6164	0.4914	-0.033
Mof_H 	H 	0.1558	0.6313	0.4363	0.079
Mof_C 	C 	0.0847	0.6362	0.5704	0.274
Mof_C 	C 	0.2293	0.548	0.7362	0.397
Mof_O 	O 	0.3106	0.5899	0.4431	-0.164
Mof_N 	N 	0.9521	0.6171	0.5552	-0.205
Mof_C 	C 	0.9195	0.6195	0.4787	0.045
Mof_H 	H 	0.924	0.6466	0.4347	0.03
Mof_C 	C 	0.8804	0.5822	0.4667	-0.086
Mof_H 	H 	0.8582	0.5838	0.4145	0.074
Mof_C 	C 	0.874	0.5425	0.531	0.025
Mof_H 	H 	0.8472	0.517	0.523	0.036
Mof_C 	C 	0.9066	0.5401	0.6077	-0.088
Mof_H 	H 	0.9021	0.513	0.6517	0.071
Mof_C 	C 	0.9457	0.5774	0.6197	0.052
Mof_H 	H 	0.9679	0.5758	0.6719	0.016
Mof_C 	C 	0.0882	0.742	0.6659	0.184
Mof_C 	C 	0.1024	0.726	0.7641	-0.045
Mof_C 	C 	0.1294	0.737	0.7208	0.016
Mof_Co	Co	0.49964	0.18339	0.08637	1.187
Mof_O 	O 	0.5583	0.1355	0.1459	-0.365
Mof_O 	O 	0.5651	0.1569	0.9991	-0.34
Mof_O 	O 	0.7752	0.034	0.2375	-0.453
Mof_O 	O 	0.696	0.0447	0.302	-0.443
Mof_C 	C 	0.6379	0.1142	0.0688	-0.057
Mof_C 	C 	0.7562	0.0989	0.915	0.055
Mof_C 	C 	0.6563	0.092	0.1478	0.015
Mof_H 	H 	0.6342	0.0895	0.2003	0.054
Mof_C 	C 	0.7084	0.0728	0.1514	-0.091
Mof_C 	C 	0.7392	0.0755	0.0713	-0.019
Mof_H 	H 	0.7738	0.0618	0.0718	0.073
Mof_C 	C 	0.72	0.0974	0.9929	0.021
Mof_C 	C 	0.6693	0.1164	0.9914	-0.033
Mof_H 	H 	0.6558	0.1313	0.9363	0.079
Mof_C 	C 	0.5847	0.1362	0.0704	0.274
Mof_C 	C 	0.7293	0.048	0.2362	0.397
Mof_O 	O 	0.8106	0.0899	0.9431	-0.164
Mof_N 	N 	0.4521	0.1171	0.0552	-0.205
Mof_C 	C 	0.4195	0.1195	0.9787	0.045
Mof_H 	H 	0.424	0.1466	0.9347	0.03
Mof_C 	C 	0.3804	0.0822	0.9667	-0.085
Mof_H 	H 	0.3582	0.0838	0.9145	0.074
Mof_C 	C 	0.374	0.0425	0.031	0.024
Mof_H 	H 	0.3472	0.017	0.023	0.037
Mof_C 	C 	0.4066	0.0401	0.1077	-0.088
Mof_H 	H 	0.4021	0.013	0.1517	0.071
Mof_C 	C 	0.4457	0.0774	0.1197	0.052
Mof_H 	H 	0.4679	0.0758	0.1719	0.016
Mof_C 	C 	0.5882	0.242	0.1659	0.184
Mof_C 	C 	0.6024	0.226	0.2641	-0.045
Mof_C 	C 	0.6294	0.237	0.2208	0.017
Mof_Co	Co	0.18339	0.50036	0.91363	1.187
Mof_O 	O 	0.1355	0.4417	0.8541	-0.365
Mof_O 	O 	0.1569	0.4349	0.0009	-0.34
Mof_O 	O 	0.034	0.2248	0.7625	-0.453
Mof_O 	O 	0.0447	0.304	0.698	-0.443
Mof_C 	C 	0.1142	0.3621	0.9312	-0.057
Mof_C 	C 	0.0989	0.2438	0.085	0.055
Mof_C 	C 	0.092	0.3437	0.8522	0.015
Mof_H 	H 	0.0895	0.3658	0.7997	0.054
Mof_C 	C 	0.0728	0.2916	0.8486	-0.091
Mof_C 	C 	0.0755	0.2608	0.9287	-0.019
Mof_H 	H 	0.0618	0.2262	0.9282	0.073
Mof_C 	C 	0.0974	0.28	0.0071	0.021
Mof_C 	C 	0.1164	0.3307	0.0086	-0.033
Mof_H 	H 	0.1313	0.3442	0.0637	0.079
Mof_C 	C 	0.1362	0.4153	0.9296	0.274
Mof_C 	C 	0.048	0.2707	0.7638	0.397
Mof_O 	O 	0.0899	0.1894	0.0569	-0.164
Mof_N 	N 	0.1171	0.5479	0.9448	-0.205
Mof_C 	C 	0.1195	0.5805	0.0213	0.045
Mof_H 	H 	0.1466	0.576	0.0653	0.03
Mof_C 	C 	0.0822	0.6196	0.0333	-0.085
Mof_H 	H 	0.0838	0.6418	0.0855	0.074
Mof_C 	C 	0.0425	0.626	0.969	0.024
Mof_H 	H 	0.017	0.6528	0.977	0.037
Mof_C 	C 	0.0401	0.5934	0.8923	-0.088
Mof_H 	H 	0.013	0.5979	0.8483	0.071
Mof_C 	C 	0.0774	0.5543	0.8803	0.052
Mof_H 	H 	0.0758	0.5321	0.8281	0.016
Mof_C 	C 	0.242	0.4118	0.8341	0.184
Mof_C 	C 	0.226	0.3976	0.7359	-0.045
Mof_C 	C 	0.237	0.3706	0.7792	0.017
Mof_Co	Co	0.68339	0.00036	0.41363	1.187
Mof_O 	O 	0.6355	0.9417	0.3541	-0.365
Mof_O 	O 	0.6569	0.9349	0.5009	-0.34
Mof_O 	O 	0.534	0.7248	0.2625	-0.453
Mof_O 	O 	0.5447	0.804	0.198	-0.443
Mof_C 	C 	0.6142	0.8621	0.4312	-0.057
Mof_C 	C 	0.5989	0.7438	0.585	0.055
Mof_C 	C 	0.592	0.8437	0.3522	0.015
Mof_H 	H 	0.5895	0.8658	0.2997	0.054
Mof_C 	C 	0.5728	0.7916	0.3486	-0.091
Mof_C 	C 	0.5755	0.7608	0.4287	-0.019
Mof_H 	H 	0.5618	0.7262	0.4282	0.073
Mof_C 	C 	0.5974	0.78	0.5071	0.021
Mof_C 	C 	0.6164	0.8307	0.5086	-0.033
Mof_H 	H 	0.6313	0.8442	0.5637	0.079
Mof_C 	C 	0.6362	0.9153	0.4296	0.274
Mof_C 	C 	0.548	0.7707	0.2638	0.397
Mof_O 	O 	0.5899	0.6894	0.5569	-0.164
Mof_N 	N 	0.6171	0.0479	0.4448	-0.205
Mof_C 	C 	0.6195	0.0805	0.5213	0.045
Mof_H 	H 	0.6466	0.076	0.5653	0.03
Mof_C 	C 	0.5822	0.1196	0.5333	-0.086
Mof_H 	H 	0.5838	0.1418	0.5855	0.074
Mof_C 	C 	0.5425	0.126	0.469	0.025
Mof_H 	H 	0.517	0.1528	0.477	0.036
Mof_C 	C 	0.5401	0.0934	0.3923	-0.088
Mof_H 	H 	0.513	0.0979	0.3483	0.071
Mof_C 	C 	0.5774	0.0543	0.3803	0.052
Mof_H 	H 	0.5758	0.0321	0.3281	0.016
Mof_C 	C 	0.742	0.9118	0.3341	0.184
Mof_C 	C 	0.726	0.8976	0.2359	-0.045
Mof_C 	C 	0.737	0.8706	0.2792	0.016
Mof_Co	Co	0.81661	0.49964	0.91363	1.187
Mof_O 	O 	0.8645	0.5583	0.8541	-0.365
Mof_O 	O 	0.8431	0.5651	0.0009	-0.34
Mof_O 	O 	0.966	0.7752	0.7625	-0.453
Mof_O 	O 	0.9553	0.696	0.698	-0.443
Mof_C 	C 	0.8858	0.6379	0.9312	-0.057
Mof_C 	C 	0.9011	0.7562	0.085	0.055
Mof_C 	C 	0.908	0.6563	0.8522	0.015
Mof_H 	H 	0.9105	0.6342	0.7997	0.054
Mof_C 	C 	0.9272	0.7084	0.8486	-0.091
Mof_C 	C 	0.9245	0.7392	0.9287	-0.019
Mof_H 	H 	0.9382	0.7738	0.9282	0.073
Mof_C 	C 	0.9026	0.72	0.0071	0.021
Mof_C 	C 	0.8836	0.6693	0.0086	-0.033
Mof_H 	H 	0.8687	0.6558	0.0637	0.079
Mof_C 	C 	0.8638	0.5847	0.9296	0.274
Mof_C 	C 	0.952	0.7293	0.7638	0.397
Mof_O 	O 	0.9101	0.8106	0.0569	-0.164
Mof_N 	N 	0.8829	0.4521	0.9448	-0.205
Mof_C 	C 	0.8805	0.4195	0.0213	0.045
Mof_H 	H 	0.8534	0.424	0.0653	0.03
Mof_C 	C 	0.9178	0.3804	0.0333	-0.085
Mof_H 	H 	0.9162	0.3582	0.0855	0.074
Mof_C 	C 	0.9575	0.374	0.969	0.024
Mof_H 	H 	0.983	0.3472	0.977	0.037
Mof_C 	C 	0.9599	0.4066	0.8923	-0.088
Mof_H 	H 	0.987	0.4021	0.8483	0.071
Mof_C 	C 	0.9226	0.4457	0.8803	0.052
Mof_H 	H 	0.9242	0.4679	0.8281	0.016
Mof_C 	C 	0.758	0.5882	0.8341	0.184
Mof_C 	C 	0.774	0.6024	0.7359	-0.045
Mof_C 	C 	0.763	0.6294	0.7792	0.017
Mof_Co	Co	0.31661	0.99964	0.41363	1.187
Mof_O 	O 	0.3645	0.0583	0.3541	-0.365
Mof_O 	O 	0.3431	0.0651	0.5009	-0.34
Mof_O 	O 	0.466	0.2752	0.2625	-0.453
Mof_O 	O 	0.4553	0.196	0.198	-0.443
Mof_C 	C 	0.3858	0.1379	0.4312	-0.057
Mof_C 	C 	0.4011	0.2562	0.585	0.055
Mof_C 	C 	0.408	0.1563	0.3522	0.015
Mof_H 	H 	0.4105	0.1342	0.2997	0.054
Mof_C 	C 	0.4272	0.2084	0.3486	-0.091
Mof_C 	C 	0.4245	0.2392	0.4287	-0.019
Mof_H 	H 	0.4382	0.2738	0.4282	0.073
Mof_C 	C 	0.4026	0.22	0.5071	0.021
Mof_C 	C 	0.3836	0.1693	0.5086	-0.033
Mof_H 	H 	0.3687	0.1558	0.5637	0.079
Mof_C 	C 	0.3638	0.0847	0.4296	0.274
Mof_C 	C 	0.452	0.2293	0.2638	0.397
Mof_O 	O 	0.4101	0.3106	0.5569	-0.164
Mof_N 	N 	0.3829	0.9521	0.4448	-0.205
Mof_C 	C 	0.3805	0.9195	0.5213	0.045
Mof_H 	H 	0.3534	0.924	0.5653	0.03
Mof_C 	C 	0.4178	0.8804	0.5333	-0.086
Mof_H 	H 	0.4162	0.8582	0.5855	0.074
Mof_C 	C 	0.4575	0.874	0.469	0.025
Mof_H 	H 	0.483	0.8472	0.477	0.036
Mof_C 	C 	0.4599	0.9066	0.3923	-0.088
Mof_H 	H 	0.487	0.9021	0.3483	0.071
Mof_C 	C 	0.4226	0.9457	0.3803	0.052
Mof_H 	H 	0.4242	0.9679	0.3281	0.016
Mof_C 	C 	0.258	0.0882	0.3341	0.184
Mof_C 	C 	0.274	0.1024	0.2359	-0.045
Mof_C 	C 	0.263	0.1294	0.2792	0.016
Mof_O 	O 	0.5482	0.25	0.125	-0.525
Mof_N 	N 	0.6376	0.25	0.125	-0.171
Mof_C 	C 	0.6938	0.25	0.125	0.061
Mof_O 	O 	0.4518	0.75	0.125	-0.525
Mof_N 	N 	0.3624	0.75	0.125	-0.171
Mof_C 	C 	0.3062	0.75	0.125	0.061
Mof_O 	O 	0.25	0.4518	0.875	-0.525
Mof_N 	N 	0.25	0.3624	0.875	-0.171
Mof_C 	C 	0.25	0.3062	0.875	0.061
Mof_O 	O 	0.75	0.9518	0.375	-0.525
Mof_N 	N 	0.75	0.8624	0.375	-0.171
Mof_C 	C 	0.75	0.8062	0.375	0.061
Mof_O 	O 	0.75	0.5482	0.875	-0.525
Mof_N 	N 	0.75	0.6376	0.875	-0.171
Mof_C 	C 	0.75	0.6938	0.875	0.061
Mof_O 	O 	0.25	0.0482	0.375	-0.525
Mof_N 	N 	0.25	0.1376	0.375	-0.171
Mof_C 	C 	0.25	0.1938	0.375	0.061
Mof_O 	O 	0.9518	0.25	0.625	-0.525
Mof_N 	N 	0.8624	0.25	0.625	-0.171
Mof_C 	C 	0.8062	0.25	0.625	0.061
Mof_O 	O 	0.0482	0.75	0.625	-0.525
Mof_N 	N 	0.1376	0.75	0.625	-0.171
Mof_C 	C 	0.1938	0.75	0.625	0.061
_end
