data_functionalizedCrystal
_audit_creation_method	'EQeq! by Chris Wilmer'
_symmetry_space_group_name_H-M	'P1'
_symmetry_Int_Tables_number	1
_symmetry_cell_setting	triclinic
loop_
_symmetry_equiv_pos_as_xyz
  x,y,z
_cell_length_a	26.082
_cell_length_b	26.082
_cell_length_c	5.053
_cell_angle_alpha	90
_cell_angle_beta	90
_cell_angle_gamma	90
loop_
_atom_site_label
_atom_site_type_symbol
_atom_site_fract_x
_atom_site_fract_y
_atom_site_fract_z
_atom_site_charge
Mof_Zn	Zn	0.27581	0.21562	0.8426	1.23
Mof_O 	O 	0.2186	0.2509	0.011	-0.781
Mof_H 	H 	0.1975	0.2621	0.8964	0.289
Mof_N 	N 	0.2607	0.146	0.862	-0.302
Mof_C 	C 	0.2715	0.1065	0.011	0.141
Mof_H 	H 	0.2981	0.1089	0.1326	-0.025
Mof_N 	N 	0.2446	0.062	0.993	-0.177
Mof_C 	C 	0.2154	0.1198	0.711	-0.002
Mof_O 	O 	0.2744	0.8367	0.451	-0.519
Mof_C 	C 	0.1856	0.1416	0.515	-0.089
Mof_H 	H 	0.1914	0.1751	0.4603	0.023
Mof_O 	O 	0.3268	0.8822	0.672	-0.223
Mof_C 	C 	0.1469	0.1126	0.402	0.014
Mof_C 	C 	0.1172	0.1346	0.207	-0.062
Mof_H 	H 	0.1241	0.1682	0.1558	0.049
Mof_C 	C 	0.0776	0.1085	0.083	-0.045
Mof_H 	H 	0.0575	0.1232	0.9511	0.036
Mof_C 	C 	0.0703	0.0586	0.171	-0.006
Mof_H 	H 	0.0443	0.0392	0.0945	0.026
Mof_C 	C 	0.0998	0.0364	0.368	-0.114
Mof_H 	H 	0.0928	0.0029	0.4191	0.069
Mof_C 	C 	0.1395	0.0626	0.491	0.072
Mof_C 	C 	0.1692	0.0407	0.687	-0.152
Mof_H 	H 	0.1626	0.0076	0.7474	0.082
Mof_C 	C 	0.2091	0.0693	0.791	0.097
Mof_C 	C 	0.2532	0.0145	0.111	0.148
Mof_C 	C 	0.2775	0.9303	0.405	-0.113
Mof_C 	C 	0.2788	0.0199	0.349	-0.09
Mof_H 	H 	0.2877	0.0525	0.4073	0.066
Mof_C 	C 	0.2914	0.9779	0.5	0.032
Mof_H 	H 	0.3085	0.9815	0.6605	0.028
Mof_C 	C 	0.2518	0.9233	0.17	-0
Mof_H 	H 	0.2427	0.8907	0.1115	0.032
Mof_C 	C 	0.2401	0.9663	0.024	-0.014
Mof_H 	H 	0.223	0.9627	0.8636	0.038
Mof_C 	C 	0.2864	0.8786	0.532	0.369
Mof_O 	O 	0.307	0.875	0.86	-0.132
Mof_C 	C 	0.3009	0.011	0.224	-0.071
Mof_H 	H 	0.3244	0.0374	0.1996	0.06
Mof_C 	C 	0.3148	0.9684	0.376	0.003
Mof_H 	H 	0.347	0.9656	0.4534	0.041
Mof_C 	C 	0.2283	0.9301	0.297	0.031
Mof_H 	H 	0.2048	0.9037	0.3202	0.014
Mof_C 	C 	0.2186	0.9744	0.15	-0.145
Mof_H 	H 	0.1864	0.9775	0.0723	0.073
Mof_Zn	Zn	0.77581	0.71562	0.3426	1.234
Mof_O 	O 	0.7186	0.7509	0.511	-0.803
Mof_H 	H 	0.6975	0.7621	0.3964	0.305
Mof_N 	N 	0.7607	0.646	0.362	-0.292
Mof_C 	C 	0.7715	0.6065	0.511	0.126
Mof_H 	H 	0.7981	0.6089	0.6326	-0.022
Mof_N 	N 	0.7446	0.562	0.493	-0.171
Mof_C 	C 	0.7154	0.6198	0.211	-0.02
Mof_O 	O 	0.7744	0.3367	0.951	-0.499
Mof_C 	C 	0.6856	0.6416	0.015	-0.032
Mof_H 	H 	0.6914	0.6751	0.9603	-0.005
Mof_O 	O 	0.8268	0.3822	0.172	-0.218
Mof_C 	C 	0.6469	0.6126	0.902	-0.033
Mof_C 	C 	0.6172	0.6346	0.707	-0.022
Mof_H 	H 	0.6241	0.6682	0.6558	0.032
Mof_C 	C 	0.5776	0.6085	0.583	-0.085
Mof_H 	H 	0.5575	0.6232	0.4511	0.053
Mof_C 	C 	0.5703	0.5586	0.671	0.025
Mof_H 	H 	0.5443	0.5392	0.5945	0.016
Mof_C 	C 	0.5998	0.5364	0.868	-0.142
Mof_H 	H 	0.5928	0.5029	0.9191	0.079
Mof_C 	C 	0.6395	0.5626	0.991	0.099
Mof_C 	C 	0.6692	0.5407	0.187	-0.169
Mof_H 	H 	0.6626	0.5076	0.2474	0.087
Mof_C 	C 	0.7091	0.5693	0.291	0.111
Mof_C 	C 	0.7532	0.5145	0.611	0.135
Mof_C 	C 	0.7775	0.4303	0.905	-0.086
Mof_C 	C 	0.7788	0.5199	0.849	-0.101
Mof_H 	H 	0.7877	0.5525	0.9073	0.068
Mof_C 	C 	0.7914	0.4779	-0	0.023
Mof_H 	H 	0.8085	0.4815	0.1605	0.03
Mof_C 	C 	0.7518	0.4233	0.67	0.001
Mof_H 	H 	0.7427	0.3907	0.6115	0.036
Mof_C 	C 	0.7401	0.4663	0.524	-0.009
Mof_H 	H 	0.723	0.4627	0.3636	0.033
Mof_C 	C 	0.7864	0.3786	0.032	0.338
Mof_O 	O 	0.807	0.375	0.36	-0.138
Mof_C 	C 	0.8009	0.511	0.724	-0.045
Mof_H 	H 	0.8244	0.5374	0.6996	0.051
Mof_C 	C 	0.8148	0.4684	0.876	-0.009
Mof_H 	H 	0.847	0.4656	0.9534	0.047
Mof_C 	C 	0.7283	0.4301	0.797	0.013
Mof_H 	H 	0.7048	0.4037	0.8202	0.023
Mof_C 	C 	0.7186	0.4744	0.65	-0.133
Mof_H 	H 	0.6864	0.4775	0.5723	0.069
Mof_Zn	Zn	0.72419	0.78438	0.8426	1.23
Mof_O 	O 	0.7814	0.7491	0.011	-0.781
Mof_H 	H 	0.8025	0.7379	0.8964	0.289
Mof_N 	N 	0.7393	0.854	0.862	-0.302
Mof_C 	C 	0.7285	0.8935	0.011	0.141
Mof_H 	H 	0.7019	0.8911	0.1326	-0.025
Mof_N 	N 	0.7554	0.938	0.993	-0.177
Mof_C 	C 	0.7846	0.8802	0.711	-0.002
Mof_O 	O 	0.7256	0.1633	0.451	-0.519
Mof_C 	C 	0.8144	0.8584	0.515	-0.089
Mof_H 	H 	0.8086	0.8249	0.4603	0.023
Mof_O 	O 	0.6732	0.1178	0.672	-0.223
Mof_C 	C 	0.8531	0.8874	0.402	0.014
Mof_C 	C 	0.8828	0.8654	0.207	-0.062
Mof_H 	H 	0.8759	0.8318	0.1558	0.049
Mof_C 	C 	0.9224	0.8915	0.083	-0.045
Mof_H 	H 	0.9425	0.8768	0.9511	0.036
Mof_C 	C 	0.9297	0.9414	0.171	-0.006
Mof_H 	H 	0.9557	0.9608	0.0945	0.026
Mof_C 	C 	0.9002	0.9636	0.368	-0.114
Mof_H 	H 	0.9072	0.9971	0.4191	0.069
Mof_C 	C 	0.8605	0.9374	0.491	0.072
Mof_C 	C 	0.8308	0.9593	0.687	-0.152
Mof_H 	H 	0.8374	0.9924	0.7474	0.082
Mof_C 	C 	0.7909	0.9307	0.791	0.097
Mof_C 	C 	0.7468	0.9855	0.111	0.148
Mof_C 	C 	0.7225	0.0697	0.405	-0.113
Mof_C 	C 	0.7212	0.9801	0.349	-0.09
Mof_H 	H 	0.7123	0.9475	0.4073	0.066
Mof_C 	C 	0.7086	0.0221	0.5	0.032
Mof_H 	H 	0.6915	0.0185	0.6605	0.028
Mof_C 	C 	0.7482	0.0767	0.17	-0
Mof_H 	H 	0.7573	0.1093	0.1115	0.032
Mof_C 	C 	0.7599	0.0337	0.024	-0.014
Mof_H 	H 	0.777	0.0373	0.8636	0.038
Mof_C 	C 	0.7136	0.1214	0.532	0.369
Mof_O 	O 	0.693	0.125	0.86	-0.132
Mof_C 	C 	0.6991	0.989	0.224	-0.071
Mof_H 	H 	0.6756	0.9626	0.1996	0.06
Mof_C 	C 	0.6852	0.0316	0.376	0.003
Mof_H 	H 	0.653	0.0344	0.4534	0.041
Mof_C 	C 	0.7717	0.0699	0.297	0.031
Mof_H 	H 	0.7952	0.0963	0.3202	0.014
Mof_C 	C 	0.7814	0.0256	0.15	-0.145
Mof_H 	H 	0.8136	0.0225	0.0723	0.073
Mof_Zn	Zn	0.22419	0.28438	0.3426	1.234
Mof_O 	O 	0.2814	0.2491	0.511	-0.803
Mof_H 	H 	0.3025	0.2379	0.3964	0.305
Mof_N 	N 	0.2393	0.354	0.362	-0.292
Mof_C 	C 	0.2285	0.3935	0.511	0.126
Mof_H 	H 	0.2019	0.3911	0.6326	-0.022
Mof_N 	N 	0.2554	0.438	0.493	-0.171
Mof_C 	C 	0.2846	0.3802	0.211	-0.02
Mof_O 	O 	0.2256	0.6633	0.951	-0.499
Mof_C 	C 	0.3144	0.3584	0.015	-0.032
Mof_H 	H 	0.3086	0.3249	0.9603	-0.005
Mof_O 	O 	0.1732	0.6178	0.172	-0.218
Mof_C 	C 	0.3531	0.3874	0.902	-0.033
Mof_C 	C 	0.3828	0.3654	0.707	-0.022
Mof_H 	H 	0.3759	0.3318	0.6558	0.032
Mof_C 	C 	0.4224	0.3915	0.583	-0.085
Mof_H 	H 	0.4425	0.3768	0.4511	0.053
Mof_C 	C 	0.4297	0.4414	0.671	0.025
Mof_H 	H 	0.4557	0.4608	0.5945	0.016
Mof_C 	C 	0.4002	0.4636	0.868	-0.142
Mof_H 	H 	0.4072	0.4971	0.9191	0.079
Mof_C 	C 	0.3605	0.4374	0.991	0.099
Mof_C 	C 	0.3308	0.4593	0.187	-0.169
Mof_H 	H 	0.3374	0.4924	0.2474	0.087
Mof_C 	C 	0.2909	0.4307	0.291	0.111
Mof_C 	C 	0.2468	0.4855	0.611	0.135
Mof_C 	C 	0.2225	0.5697	0.905	-0.086
Mof_C 	C 	0.2212	0.4801	0.849	-0.101
Mof_H 	H 	0.2123	0.4475	0.9073	0.068
Mof_C 	C 	0.2086	0.5221	-0	0.023
Mof_H 	H 	0.1915	0.5185	0.1605	0.03
Mof_C 	C 	0.2482	0.5767	0.67	0.001
Mof_H 	H 	0.2573	0.6093	0.6115	0.036
Mof_C 	C 	0.2599	0.5337	0.524	-0.009
Mof_H 	H 	0.277	0.5373	0.3636	0.033
Mof_C 	C 	0.2136	0.6214	0.032	0.338
Mof_O 	O 	0.193	0.625	0.36	-0.138
Mof_C 	C 	0.1991	0.489	0.724	-0.045
Mof_H 	H 	0.1756	0.4626	0.6996	0.051
Mof_C 	C 	0.1852	0.5316	0.876	-0.009
Mof_H 	H 	0.153	0.5344	0.9534	0.047
Mof_C 	C 	0.2717	0.5699	0.797	0.013
Mof_H 	H 	0.2952	0.5963	0.8202	0.023
Mof_C 	C 	0.2814	0.5256	0.65	-0.133
Mof_H 	H 	0.3136	0.5225	0.5723	0.069
Mof_Zn	Zn	0.21562	0.72419	0.1574	1.23
Mof_O 	O 	0.2509	0.7814	0.989	-0.779
Mof_H 	H 	0.2621	0.8025	0.1036	0.287
Mof_N 	N 	0.146	0.7393	0.138	-0.303
Mof_C 	C 	0.1065	0.7285	0.989	0.144
Mof_H 	H 	0.1089	0.7019	0.8674	-0.026
Mof_N 	N 	0.062	0.7554	0.007	-0.178
Mof_C 	C 	0.1198	0.7846	0.289	-0.002
Mof_O 	O 	0.8367	0.7256	0.549	-0.519
Mof_C 	C 	0.1416	0.8144	0.485	-0.09
Mof_H 	H 	0.1751	0.8086	0.5397	0.023
Mof_O 	O 	0.8822	0.6732	0.328	-0.223
Mof_C 	C 	0.1126	0.8531	0.598	0.016
Mof_C 	C 	0.1346	0.8828	0.793	-0.064
Mof_H 	H 	0.1682	0.8759	0.8442	0.05
Mof_C 	C 	0.1085	0.9224	0.917	-0.041
Mof_H 	H 	0.1232	0.9425	0.0489	0.034
Mof_C 	C 	0.0586	0.9297	0.829	-0.008
Mof_H 	H 	0.0392	0.9557	0.9055	0.027
Mof_C 	C 	0.0364	0.9002	0.632	-0.112
Mof_H 	H 	0.0029	0.9072	0.5809	0.068
Mof_C 	C 	0.0626	0.8605	0.509	0.07
Mof_C 	C 	0.0407	0.8308	0.313	-0.151
Mof_H 	H 	0.0076	0.8374	0.2526	0.081
Mof_C 	C 	0.0693	0.7909	0.209	0.096
Mof_C 	C 	0.0145	0.7468	0.889	0.149
Mof_C 	C 	0.9303	0.7225	0.595	-0.113
Mof_C 	C 	0.0199	0.7212	0.651	-0.09
Mof_H 	H 	0.0525	0.7123	0.5927	0.066
Mof_C 	C 	0.9779	0.7086	0.5	0.032
Mof_H 	H 	0.9815	0.6915	0.3395	0.028
Mof_C 	C 	0.9233	0.7482	0.83	0.003
Mof_H 	H 	0.8907	0.7573	0.8885	0.031
Mof_C 	C 	0.9663	0.7599	0.976	-0.014
Mof_H 	H 	0.9627	0.777	0.1364	0.037
Mof_C 	C 	0.8786	0.7136	0.468	0.369
Mof_O 	O 	0.875	0.693	0.14	-0.133
Mof_C 	C 	0.011	0.6991	0.776	-0.071
Mof_H 	H 	0.0374	0.6756	0.8004	0.061
Mof_C 	C 	0.9684	0.6852	0.624	0.004
Mof_H 	H 	0.9656	0.653	0.5466	0.041
Mof_C 	C 	0.9301	0.7717	0.703	0.028
Mof_H 	H 	0.9037	0.7952	0.6798	0.015
Mof_C 	C 	0.9744	0.7814	0.85	-0.144
Mof_H 	H 	0.9775	0.8136	0.9277	0.073
Mof_Zn	Zn	0.71562	0.22419	0.6574	1.234
Mof_O 	O 	0.7509	0.2814	0.489	-0.803
Mof_H 	H 	0.7621	0.3025	0.6036	0.305
Mof_N 	N 	0.646	0.2393	0.638	-0.292
Mof_C 	C 	0.6065	0.2285	0.489	0.126
Mof_H 	H 	0.6089	0.2019	0.3674	-0.022
Mof_N 	N 	0.562	0.2554	0.507	-0.172
Mof_C 	C 	0.6198	0.2846	0.789	-0.022
Mof_O 	O 	0.3367	0.2256	0.049	-0.502
Mof_C 	C 	0.6416	0.3144	0.985	-0.025
Mof_H 	H 	0.6751	0.3086	0.0397	-0.008
Mof_O 	O 	0.3822	0.1732	0.828	-0.219
Mof_C 	C 	0.6126	0.3531	0.098	-0.037
Mof_C 	C 	0.6346	0.3828	0.293	-0.02
Mof_H 	H 	0.6682	0.3759	0.3442	0.031
Mof_C 	C 	0.6085	0.4224	0.417	-0.087
Mof_H 	H 	0.6232	0.4425	0.5489	0.054
Mof_C 	C 	0.5586	0.4297	0.329	0.026
Mof_H 	H 	0.5392	0.4557	0.4055	0.015
Mof_C 	C 	0.5364	0.4002	0.132	-0.143
Mof_H 	H 	0.5029	0.4072	0.0809	0.079
Mof_C 	C 	0.5626	0.3605	0.009	0.099
Mof_C 	C 	0.5407	0.3308	0.813	-0.168
Mof_H 	H 	0.5076	0.3374	0.7526	0.087
Mof_C 	C 	0.5693	0.2909	0.709	0.111
Mof_C 	C 	0.5145	0.2468	0.389	0.138
Mof_C 	C 	0.4303	0.2225	0.095	-0.093
Mof_C 	C 	0.5199	0.2212	0.151	-0.081
Mof_H 	H 	0.5525	0.2123	0.0927	0.061
Mof_C 	C 	0.4779	0.2086	-0	0.025
Mof_H 	H 	0.4815	0.1915	0.8395	0.03
Mof_C 	C 	0.4233	0.2482	0.33	0.008
Mof_H 	H 	0.3907	0.2573	0.3885	0.034
Mof_C 	C 	0.4663	0.2599	0.476	-0.01
Mof_H 	H 	0.4627	0.277	0.6364	0.033
Mof_C 	C 	0.3786	0.2136	0.968	0.343
Mof_O 	O 	0.375	0.193	0.64	-0.138
Mof_C 	C 	0.511	0.1991	0.276	-0.071
Mof_H 	H 	0.5374	0.1756	0.3004	0.06
Mof_C 	C 	0.4684	0.1852	0.124	-0.001
Mof_H 	H 	0.4656	0.153	0.0466	0.044
Mof_C 	C 	0.4301	0.2717	0.203	0.01
Mof_H 	H 	0.4037	0.2952	0.1798	0.024
Mof_C 	C 	0.4744	0.2814	0.35	-0.136
Mof_H 	H 	0.4775	0.3136	0.4277	0.07
Mof_Zn	Zn	0.78438	0.27581	0.1574	1.23
Mof_O 	O 	0.7491	0.2186	0.989	-0.779
Mof_H 	H 	0.7379	0.1975	0.1036	0.287
Mof_N 	N 	0.854	0.2607	0.138	-0.303
Mof_C 	C 	0.8935	0.2715	0.989	0.144
Mof_H 	H 	0.8911	0.2981	0.8674	-0.026
Mof_N 	N 	0.938	0.2446	0.007	-0.178
Mof_C 	C 	0.8802	0.2154	0.289	-0.002
Mof_O 	O 	0.1633	0.2744	0.549	-0.519
Mof_C 	C 	0.8584	0.1856	0.485	-0.09
Mof_H 	H 	0.8249	0.1914	0.5397	0.023
Mof_O 	O 	0.1178	0.3268	0.328	-0.223
Mof_C 	C 	0.8874	0.1469	0.598	0.016
Mof_C 	C 	0.8654	0.1172	0.793	-0.064
Mof_H 	H 	0.8318	0.1241	0.8442	0.05
Mof_C 	C 	0.8915	0.0776	0.917	-0.041
Mof_H 	H 	0.8768	0.0575	0.0489	0.034
Mof_C 	C 	0.9414	0.0703	0.829	-0.008
Mof_H 	H 	0.9608	0.0443	0.9055	0.027
Mof_C 	C 	0.9636	0.0998	0.632	-0.112
Mof_H 	H 	0.9971	0.0928	0.5809	0.068
Mof_C 	C 	0.9374	0.1395	0.509	0.07
Mof_C 	C 	0.9593	0.1692	0.313	-0.151
Mof_H 	H 	0.9924	0.1626	0.2526	0.081
Mof_C 	C 	0.9307	0.2091	0.209	0.096
Mof_C 	C 	0.9855	0.2532	0.889	0.149
Mof_C 	C 	0.0697	0.2775	0.595	-0.113
Mof_C 	C 	0.9801	0.2788	0.651	-0.09
Mof_H 	H 	0.9475	0.2877	0.5927	0.066
Mof_C 	C 	0.0221	0.2914	0.5	0.032
Mof_H 	H 	0.0185	0.3085	0.3395	0.028
Mof_C 	C 	0.0767	0.2518	0.83	0.003
Mof_H 	H 	0.1093	0.2427	0.8885	0.031
Mof_C 	C 	0.0337	0.2401	0.976	-0.014
Mof_H 	H 	0.0373	0.223	0.1364	0.037
Mof_C 	C 	0.1214	0.2864	0.468	0.369
Mof_O 	O 	0.125	0.307	0.14	-0.133
Mof_C 	C 	0.989	0.3009	0.776	-0.071
Mof_H 	H 	0.9626	0.3244	0.8004	0.061
Mof_C 	C 	0.0316	0.3148	0.624	0.004
Mof_H 	H 	0.0344	0.347	0.5466	0.041
Mof_C 	C 	0.0699	0.2283	0.703	0.028
Mof_H 	H 	0.0963	0.2048	0.6798	0.015
Mof_C 	C 	0.0256	0.2186	0.85	-0.144
Mof_H 	H 	0.0225	0.1864	0.9277	0.073
Mof_Zn	Zn	0.28438	0.77581	0.6574	1.234
Mof_O 	O 	0.2491	0.7186	0.489	-0.803
Mof_H 	H 	0.2379	0.6975	0.6036	0.305
Mof_N 	N 	0.354	0.7607	0.638	-0.292
Mof_C 	C 	0.3935	0.7715	0.489	0.126
Mof_H 	H 	0.3911	0.7981	0.3674	-0.022
Mof_N 	N 	0.438	0.7446	0.507	-0.172
Mof_C 	C 	0.3802	0.7154	0.789	-0.022
Mof_O 	O 	0.6633	0.7744	0.049	-0.502
Mof_C 	C 	0.3584	0.6856	0.985	-0.025
Mof_H 	H 	0.3249	0.6914	0.0397	-0.008
Mof_O 	O 	0.6178	0.8268	0.828	-0.219
Mof_C 	C 	0.3874	0.6469	0.098	-0.037
Mof_C 	C 	0.3654	0.6172	0.293	-0.02
Mof_H 	H 	0.3318	0.6241	0.3442	0.031
Mof_C 	C 	0.3915	0.5776	0.417	-0.087
Mof_H 	H 	0.3768	0.5575	0.5489	0.054
Mof_C 	C 	0.4414	0.5703	0.329	0.026
Mof_H 	H 	0.4608	0.5443	0.4055	0.015
Mof_C 	C 	0.4636	0.5998	0.132	-0.143
Mof_H 	H 	0.4971	0.5928	0.0809	0.079
Mof_C 	C 	0.4374	0.6395	0.009	0.099
Mof_C 	C 	0.4593	0.6692	0.813	-0.168
Mof_H 	H 	0.4924	0.6626	0.7526	0.087
Mof_C 	C 	0.4307	0.7091	0.709	0.111
Mof_C 	C 	0.4855	0.7532	0.389	0.138
Mof_C 	C 	0.5697	0.7775	0.095	-0.093
Mof_C 	C 	0.4801	0.7788	0.151	-0.081
Mof_H 	H 	0.4475	0.7877	0.0927	0.061
Mof_C 	C 	0.5221	0.7914	-0	0.025
Mof_H 	H 	0.5185	0.8085	0.8395	0.03
Mof_C 	C 	0.5767	0.7518	0.33	0.008
Mof_H 	H 	0.6093	0.7427	0.3885	0.034
Mof_C 	C 	0.5337	0.7401	0.476	-0.01
Mof_H 	H 	0.5373	0.723	0.6364	0.033
Mof_C 	C 	0.6214	0.7864	0.968	0.343
Mof_O 	O 	0.625	0.807	0.64	-0.138
Mof_C 	C 	0.489	0.8009	0.276	-0.071
Mof_H 	H 	0.4626	0.8244	0.3004	0.06
Mof_C 	C 	0.5316	0.8148	0.124	-0.001
Mof_H 	H 	0.5344	0.847	0.0466	0.044
Mof_C 	C 	0.5699	0.7283	0.203	0.01
Mof_H 	H 	0.5963	0.7048	0.1798	0.024
Mof_C 	C 	0.5256	0.7186	0.35	-0.136
Mof_H 	H 	0.5225	0.6864	0.4277	0.07
_end
