# CIF file generated by openbabel 3.1.0, see https://openbabel.org
data_I
_chemical_name_common 'image0'
_cell_length_a 15.849
_cell_length_b 10.271
_cell_length_c 21.178
_cell_angle_alpha 90
_cell_angle_beta 108.936
_cell_angle_gamma 90
_space_group_name_H-M_alt 'P 1'
_space_group_name_Hall 'P 1'
loop_
    _symmetry_equiv_pos_as_xyz
    x,y,z
loop_
    _atom_site_label
    _atom_site_type_symbol
    _atom_site_fract_x
    _atom_site_fract_y
    _atom_site_fract_z
    _atom_site_occupancy
    Eu1      Eu       0.39256    0.54097    0.53338    1.000
    O1       O        0.38980    0.66090    0.43530    1.000
    C1       C        0.41560    0.63180    0.38630    1.000
    C2       C        0.35440    0.66040    0.31500    1.000
    C3       C        0.37180    0.60000    0.26140    1.000
    H1       H        0.41930    0.54270    0.26850    1.000
    C4       C        0.31670    0.62770    0.19790    1.000
    C5       C        0.24820    0.71560    0.18680    1.000
    H2       H        0.21270    0.73300    0.14310    1.000
    C6       C        0.22980    0.78140    0.24090    1.000
    C7       C        0.28510    0.74690    0.30630    1.000
    H3       H        0.27440    0.78290    0.34320    1.000
    C8       C        0.33620    0.56510    0.13900    1.000
    C9       C        0.11080    0.91760    0.16470    1.000
    H4       H        0.14870    0.91220    0.13680    1.000
    H5       H        0.09700    0.00890    0.16800    1.000
    C10      C        0.02690    0.84820    0.13070    1.000
    C11      C        0.00330    0.73110    0.15320    1.000
    H6       H        0.04110    0.69400    0.19220    1.000
    C12      C        0.92370    0.66800    0.11830    1.000
    H7       H        0.91030    0.58860    0.13390    1.000
    C13      C        0.86360    0.72140    0.06030    1.000
    C14      C        0.88350    0.84360    0.03940    1.000
    H8       H        0.84250    0.88450    0.00310    1.000
    C15      C        0.96450    0.90430    0.07270    1.000
    H9       H        0.97810    0.98320    0.05670    1.000
    C16      C        0.78050    0.65580    0.02380    1.000
    C17      C        0.14870    0.94110    0.28720    1.000
    H10      H        0.14650    0.87850    0.32090    1.000
    H11      H        0.09130    0.98460    0.27170    1.000
    C18      C        0.22050    0.04220    0.31960    1.000
    C19      C        0.21810    0.10870    0.37460    1.000
    H12      H        0.17180    0.09250    0.39150    1.000
    C20      C        0.28210    0.19910    0.40590    1.000
    H13      H        0.27620    0.24630    0.44170    1.000
    C21      C        0.35570    0.22130    0.38480    1.000
    C22      C        0.35610    0.15630    0.32510    1.000
    H14      H        0.40120    0.17280    0.30700    1.000
    C23      C        0.28960    0.06960    0.29480    1.000
    H15      H        0.29080    0.02760    0.25620    1.000
    C24      C        0.43410    0.30480    0.42130    1.000
    N1       N        0.16190    0.87110    0.23150    1.000
    O2       O        0.36900    0.45620    0.14500    1.000
    O3       O        0.31640    0.62880    0.08330    1.000
    O4       O        0.76630    0.53860    0.03980    1.000
    O5       O        0.71960    0.71450    0.97710    1.000
    O6       O        0.42350    0.38420    0.46430    1.000
    O7       O        0.50690    0.29020    0.40990    1.000
    O8       O        0.49100    0.58030    0.39150    1.000
    Eu2      Eu       0.60744    0.54097    0.96662    1.000
    O9       O        0.61020    0.66090    0.06470    1.000
    C25      C        0.58440    0.63180    0.11370    1.000
    C26      C        0.64560    0.66040    0.18500    1.000
    C27      C        0.62820    0.60000    0.23860    1.000
    H16      H        0.58070    0.54270    0.23150    1.000
    C28      C        0.68330    0.62770    0.30210    1.000
    C29      C        0.75180    0.71560    0.31320    1.000
    H17      H        0.78730    0.73300    0.35690    1.000
    C30      C        0.77020    0.78140    0.25910    1.000
    C31      C        0.71490    0.74690    0.19370    1.000
    H18      H        0.72560    0.78290    0.15680    1.000
    C32      C        0.66380    0.56510    0.36100    1.000
    C33      C        0.88920    0.91760    0.33530    1.000
    H19      H        0.85130    0.91220    0.36320    1.000
    H20      H        0.90300    0.00890    0.33200    1.000
    C34      C        0.97310    0.84820    0.36930    1.000
    C35      C        0.99670    0.73110    0.34680    1.000
    H21      H        0.95890    0.69400    0.30780    1.000
    C36      C        0.07630    0.66800    0.38170    1.000
    H22      H        0.08970    0.58860    0.36610    1.000
    C37      C        0.13640    0.72140    0.43970    1.000
    C38      C        0.11650    0.84360    0.46060    1.000
    H23      H        0.15750    0.88450    0.49690    1.000
    C39      C        0.03550    0.90430    0.42730    1.000
    H24      H        0.02190    0.98320    0.44330    1.000
    C40      C        0.21950    0.65580    0.47620    1.000
    C41      C        0.85130    0.94110    0.21280    1.000
    H25      H        0.85350    0.87850    0.17910    1.000
    H26      H        0.90870    0.98460    0.22830    1.000
    C42      C        0.77950    0.04220    0.18040    1.000
    C43      C        0.78190    0.10870    0.12540    1.000
    H27      H        0.82820    0.09250    0.10850    1.000
    C44      C        0.71790    0.19910    0.09410    1.000
    H28      H        0.72380    0.24630    0.05830    1.000
    C45      C        0.64430    0.22130    0.11520    1.000
    C46      C        0.64390    0.15630    0.17490    1.000
    H29      H        0.59880    0.17280    0.19300    1.000
    C47      C        0.71040    0.06960    0.20520    1.000
    H30      H        0.70920    0.02760    0.24380    1.000
    C48      C        0.56590    0.30480    0.07870    1.000
    N2       N        0.83810    0.87110    0.26850    1.000
    O10      O        0.63100    0.45620    0.35500    1.000
    O11      O        0.68360    0.62880    0.41670    1.000
    O12      O        0.23370    0.53860    0.46020    1.000
    O13      O        0.28040    0.71450    0.52290    1.000
    O14      O        0.57650    0.38420    0.03570    1.000
    O15      O        0.49310    0.29020    0.09010    1.000
    O16      O        0.50900    0.58030    0.10850    1.000
    Eu3      Eu       0.60744    0.45903    0.46662    1.000
    O17      O        0.61020    0.33910    0.56470    1.000
    C49      C        0.58440    0.36820    0.61370    1.000
    C50      C        0.64560    0.33960    0.68500    1.000
    C51      C        0.62820    0.40000    0.73860    1.000
    H31      H        0.58070    0.45730    0.73150    1.000
    C52      C        0.68330    0.37230    0.80210    1.000
    C53      C        0.75180    0.28440    0.81320    1.000
    H32      H        0.78730    0.26700    0.85690    1.000
    C54      C        0.77020    0.21860    0.75910    1.000
    C55      C        0.71490    0.25310    0.69370    1.000
    H33      H        0.72560    0.21710    0.65680    1.000
    C56      C        0.66380    0.43490    0.86100    1.000
    C57      C        0.88920    0.08240    0.83530    1.000
    H34      H        0.85130    0.08780    0.86320    1.000
    H35      H        0.90300    0.99110    0.83200    1.000
    C58      C        0.97310    0.15180    0.86930    1.000
    C59      C        0.99670    0.26890    0.84680    1.000
    H36      H        0.95890    0.30600    0.80780    1.000
    C60      C        0.07630    0.33200    0.88170    1.000
    H37      H        0.08970    0.41140    0.86610    1.000
    C61      C        0.13640    0.27860    0.93970    1.000
    C62      C        0.11650    0.15640    0.96060    1.000
    H38      H        0.15750    0.11550    0.99690    1.000
    C63      C        0.03550    0.09570    0.92730    1.000
    H39      H        0.02190    0.01680    0.94330    1.000
    C64      C        0.21950    0.34420    0.97620    1.000
    C65      C        0.85130    0.05890    0.71280    1.000
    H40      H        0.85350    0.12150    0.67910    1.000
    H41      H        0.90870    0.01540    0.72830    1.000
    C66      C        0.77950    0.95780    0.68040    1.000
    C67      C        0.78190    0.89130    0.62540    1.000
    H42      H        0.82820    0.90750    0.60850    1.000
    C68      C        0.71790    0.80090    0.59410    1.000
    H43      H        0.72380    0.75370    0.55830    1.000
    C69      C        0.64430    0.77870    0.61520    1.000
    C70      C        0.64390    0.84370    0.67490    1.000
    H44      H        0.59880    0.82720    0.69300    1.000
    C71      C        0.71040    0.93040    0.70520    1.000
    H45      H        0.70920    0.97240    0.74380    1.000
    C72      C        0.56590    0.69520    0.57870    1.000
    N3       N        0.83810    0.12890    0.76850    1.000
    O18      O        0.63100    0.54380    0.85500    1.000
    O19      O        0.68360    0.37120    0.91670    1.000
    O20      O        0.23370    0.46140    0.96020    1.000
    O21      O        0.28040    0.28550    0.02290    1.000
    O22      O        0.57650    0.61580    0.53570    1.000
    O23      O        0.49310    0.70980    0.59010    1.000
    O24      O        0.50900    0.41970    0.60850    1.000
    Eu4      Eu       0.39256    0.45903    0.03338    1.000
    O25      O        0.38980    0.33910    0.93530    1.000
    C73      C        0.41560    0.36820    0.88630    1.000
    C74      C        0.35440    0.33960    0.81500    1.000
    C75      C        0.37180    0.40000    0.76140    1.000
    H46      H        0.41930    0.45730    0.76850    1.000
    C76      C        0.31670    0.37230    0.69790    1.000
    C77      C        0.24820    0.28440    0.68680    1.000
    H47      H        0.21270    0.26700    0.64310    1.000
    C78      C        0.22980    0.21860    0.74090    1.000
    C79      C        0.28510    0.25310    0.80630    1.000
    H48      H        0.27440    0.21710    0.84320    1.000
    C80      C        0.33620    0.43490    0.63900    1.000
    C81      C        0.11080    0.08240    0.66470    1.000
    H49      H        0.14870    0.08780    0.63680    1.000
    H50      H        0.09700    0.99110    0.66800    1.000
    C82      C        0.02690    0.15180    0.63070    1.000
    C83      C        0.00330    0.26890    0.65320    1.000
    H51      H        0.04110    0.30600    0.69220    1.000
    C84      C        0.92370    0.33200    0.61830    1.000
    H52      H        0.91030    0.41140    0.63390    1.000
    C85      C        0.86360    0.27860    0.56030    1.000
    C86      C        0.88350    0.15640    0.53940    1.000
    H53      H        0.84250    0.11550    0.50310    1.000
    C87      C        0.96450    0.09570    0.57270    1.000
    H54      H        0.97810    0.01680    0.55670    1.000
    C88      C        0.78050    0.34420    0.52380    1.000
    C89      C        0.14870    0.05890    0.78720    1.000
    H55      H        0.14650    0.12150    0.82090    1.000
    H56      H        0.09130    0.01540    0.77170    1.000
    C90      C        0.22050    0.95780    0.81960    1.000
    C91      C        0.21810    0.89130    0.87460    1.000
    H57      H        0.17180    0.90750    0.89150    1.000
    C92      C        0.28210    0.80090    0.90590    1.000
    H58      H        0.27620    0.75370    0.94170    1.000
    C93      C        0.35570    0.77870    0.88480    1.000
    C94      C        0.35610    0.84370    0.82510    1.000
    H59      H        0.40120    0.82720    0.80700    1.000
    C95      C        0.28960    0.93040    0.79480    1.000
    H60      H        0.29080    0.97240    0.75620    1.000
    C96      C        0.43410    0.69520    0.92130    1.000
    N4       N        0.16190    0.12890    0.73150    1.000
    O26      O        0.36900    0.54380    0.64500    1.000
    O27      O        0.31640    0.37120    0.58330    1.000
    O28      O        0.76630    0.46140    0.53980    1.000
    O29      O        0.71960    0.28550    0.47710    1.000
    O30      O        0.42350    0.61580    0.96430    1.000
    O31      O        0.50690    0.70980    0.90990    1.000
    O32      O        0.49100    0.41970    0.89150    1.000
