data_functionalizedCrystal
_audit_creation_method	'EQeq! by Chris Wilmer'
_symmetry_space_group_name_H-M	'P1'
_symmetry_Int_Tables_number	1
_symmetry_cell_setting	triclinic
loop_
_symmetry_equiv_pos_as_xyz
  x,y,z
_cell_length_a	18.1667
_cell_length_b	12.5175
_cell_length_c	11.021
_cell_angle_alpha	90
_cell_angle_beta	102.672
_cell_angle_gamma	90
loop_
_atom_site_label
_atom_site_type_symbol
_atom_site_fract_x
_atom_site_fract_y
_atom_site_fract_z
_atom_site_charge
Mof_Mg	Mg	0.08427	0.03632	0.04019	1.466
Mof_N 	N 	0.18411	0.93187	0.11037	-0.207
Mof_O 	O 	0.07527	0.98368	0.21889	-0.723
Mof_O 	O 	0.1321	0.90995	0.39936	-0.538
Mof_O 	O 	0.35482	0.66603	0.37018	-0.489
Mof_O 	O 	0.41692	0.71139	0.22404	-0.514
Mof_O 	O 	0.97919	0.0884	0.05421	-0.884
Mof_H 	H 	0.9621	0.149	0.028	0.338
Mof_C 	C 	0.18875	0.89201	0.2261	-0.096
Mof_C 	C 	0.24513	0.8245	0.2838	0.015
Mof_H 	H 	0.2461	0.802	0.355	0.051
Mof_C 	C 	0.30073	0.79547	0.2218	-0.085
Mof_C 	C 	0.29761	0.8382	0.1046	-0.043
Mof_H 	H 	0.3335	0.821	0.061	0.056
Mof_C 	C 	0.23857	0.9048	0.0524	0.045
Mof_H 	H 	0.2322	0.932	0.971	0.005
Mof_C 	C 	0.12693	0.93049	0.2876	0.45
Mof_C 	C 	0.36331	0.71765	0.2775	0.41
Mof_Mg	Mg	0.58427	0.53632	0.04019	1.473
Mof_N 	N 	0.68411	0.43187	0.11037	-0.206
Mof_O 	O 	0.57527	0.48368	0.21889	-0.676
Mof_O 	O 	0.6321	0.40995	0.39936	-0.511
Mof_O 	O 	0.85482	0.16603	0.37018	-0.464
Mof_O 	O 	0.91692	0.21139	0.22404	-0.465
Mof_O 	O 	0.47919	0.5884	0.05421	-0.964
Mof_H 	H 	0.4621	0.649	0.028	0.333
Mof_C 	C 	0.68875	0.39201	0.2261	-0.08
Mof_C 	C 	0.74513	0.3245	0.2838	0.006
Mof_H 	H 	0.7461	0.302	0.355	0.063
Mof_C 	C 	0.80073	0.29547	0.2218	-0.067
Mof_C 	C 	0.79761	0.3382	0.1046	-0.045
Mof_H 	H 	0.8335	0.321	0.061	0.068
Mof_C 	C 	0.73857	0.4048	0.0524	0.045
Mof_H 	H 	0.7322	0.432	0.971	0.013
Mof_C 	C 	0.62693	0.43049	0.2876	0.442
Mof_C 	C 	0.86331	0.21765	0.2775	0.404
Mof_Mg	Mg	0.91573	0.03632	0.45981	1.478
Mof_N 	N 	0.81589	0.93187	0.38963	-0.204
Mof_O 	O 	0.92473	0.98368	0.28111	-0.62
Mof_O 	O 	0.8679	0.90995	0.10064	-0.482
Mof_O 	O 	0.64518	0.66603	0.12982	-0.481
Mof_O 	O 	0.58308	0.71139	0.27596	-0.514
Mof_O 	O 	0.02081	0.0884	0.44579	-1.042
Mof_H 	H 	0.0379	0.149	0.472	0.327
Mof_C 	C 	0.81125	0.89201	0.2739	-0.072
Mof_C 	C 	0.75487	0.8245	0.2162	0.007
Mof_H 	H 	0.7539	0.802	0.145	0.064
Mof_C 	C 	0.69927	0.79547	0.2782	-0.077
Mof_C 	C 	0.70239	0.8382	0.3954	-0.041
Mof_H 	H 	0.6665	0.821	0.439	0.053
Mof_C 	C 	0.76143	0.9048	0.4476	0.038
Mof_H 	H 	0.7678	0.932	0.529	0.011
Mof_C 	C 	0.87307	0.93049	0.2124	0.434
Mof_C 	C 	0.63669	0.71765	0.2225	0.409
Mof_Mg	Mg	0.41573	0.53632	0.45981	1.473
Mof_N 	N 	0.31589	0.43187	0.38963	-0.203
Mof_O 	O 	0.42473	0.48368	0.28111	-0.677
Mof_O 	O 	0.3679	0.40995	0.10064	-0.516
Mof_O 	O 	0.14518	0.16603	0.12982	-0.511
Mof_O 	O 	0.08308	0.21139	0.27596	-0.561
Mof_O 	O 	0.52081	0.5884	0.44579	-0.963
Mof_H 	H 	0.5379	0.649	0.472	0.332
Mof_C 	C 	0.31125	0.39201	0.2739	-0.094
Mof_C 	C 	0.25487	0.3245	0.2162	0.023
Mof_H 	H 	0.2539	0.302	0.145	0.046
Mof_C 	C 	0.19927	0.29547	0.2782	-0.103
Mof_C 	C 	0.20239	0.3382	0.3954	-0.03
Mof_H 	H 	0.1665	0.321	0.439	0.037
Mof_C 	C 	0.26143	0.4048	0.4476	0.023
Mof_H 	H 	0.2678	0.432	0.529	0.011
Mof_C 	C 	0.37307	0.43049	0.2124	0.445
Mof_C 	C 	0.13669	0.21765	0.2225	0.416
Mof_Mg	Mg	0.91573	0.96368	0.95981	1.477
Mof_N 	N 	0.81589	0.06813	0.88963	-0.206
Mof_O 	O 	0.92473	0.01632	0.78111	-0.622
Mof_O 	O 	0.8679	0.09005	0.60064	-0.488
Mof_O 	O 	0.64518	0.33397	0.62982	-0.482
Mof_O 	O 	0.58308	0.28861	0.77596	-0.514
Mof_O 	O 	0.02081	0.9116	0.94579	-1.042
Mof_H 	H 	0.0379	0.851	0.972	0.327
Mof_C 	C 	0.81125	0.10799	0.7739	-0.072
Mof_C 	C 	0.75487	0.1755	0.7162	0.004
Mof_H 	H 	0.7539	0.198	0.645	0.063
Mof_C 	C 	0.69927	0.20453	0.7782	-0.075
Mof_C 	C 	0.70239	0.1618	0.8954	-0.049
Mof_H 	H 	0.6665	0.179	0.939	0.057
Mof_C 	C 	0.76143	0.0952	0.9476	0.051
Mof_H 	H 	0.7678	0.068	0.029	0.002
Mof_C 	C 	0.87307	0.06951	0.7124	0.434
Mof_C 	C 	0.63669	0.28235	0.7225	0.407
Mof_Mg	Mg	0.41573	0.46368	0.95981	1.473
Mof_N 	N 	0.31589	0.56813	0.88963	-0.204
Mof_O 	O 	0.42473	0.51632	0.78111	-0.677
Mof_O 	O 	0.3679	0.59005	0.60064	-0.515
Mof_O 	O 	0.14518	0.83397	0.62982	-0.508
Mof_O 	O 	0.08308	0.78861	0.77596	-0.56
Mof_O 	O 	0.52081	0.4116	0.94579	-0.963
Mof_H 	H 	0.5379	0.351	0.972	0.333
Mof_C 	C 	0.31125	0.60799	0.7739	-0.093
Mof_C 	C 	0.25487	0.6755	0.7162	0.021
Mof_H 	H 	0.2539	0.698	0.645	0.049
Mof_C 	C 	0.19927	0.70453	0.7782	-0.101
Mof_C 	C 	0.20239	0.6618	0.8954	-0.033
Mof_H 	H 	0.1665	0.679	0.939	0.038
Mof_C 	C 	0.26143	0.5952	0.9476	0.026
Mof_H 	H 	0.2678	0.568	0.029	0.01
Mof_C 	C 	0.37307	0.56951	0.7124	0.444
Mof_C 	C 	0.13669	0.78235	0.7225	0.414
Mof_Mg	Mg	0.08427	0.96368	0.54019	1.468
Mof_N 	N 	0.18411	0.06813	0.61037	-0.205
Mof_O 	O 	0.07527	0.01632	0.71889	-0.721
Mof_O 	O 	0.1321	0.09005	0.89936	-0.53
Mof_O 	O 	0.35482	0.33397	0.87018	-0.486
Mof_O 	O 	0.41692	0.28861	0.72404	-0.515
Mof_O 	O 	0.97919	0.9116	0.55421	-0.883
Mof_H 	H 	0.9621	0.851	0.528	0.338
Mof_C 	C 	0.18875	0.10799	0.7261	-0.096
Mof_C 	C 	0.24513	0.1755	0.7838	0.018
Mof_H 	H 	0.2461	0.198	0.855	0.052
Mof_C 	C 	0.30073	0.20453	0.7218	-0.088
Mof_C 	C 	0.29761	0.1618	0.6046	-0.035
Mof_H 	H 	0.3335	0.179	0.561	0.052
Mof_C 	C 	0.23857	0.0952	0.5524	0.032
Mof_H 	H 	0.2322	0.068	0.471	0.013
Mof_C 	C 	0.12693	0.06951	0.7876	0.45
Mof_C 	C 	0.36331	0.28235	0.7775	0.411
Mof_Mg	Mg	0.58427	0.46368	0.54019	1.473
Mof_N 	N 	0.68411	0.56813	0.61037	-0.206
Mof_O 	O 	0.57527	0.51632	0.71889	-0.676
Mof_O 	O 	0.6321	0.59005	0.89936	-0.513
Mof_O 	O 	0.85482	0.83397	0.87018	-0.468
Mof_O 	O 	0.91692	0.78861	0.72404	-0.467
Mof_O 	O 	0.47919	0.4116	0.55421	-0.964
Mof_H 	H 	0.4621	0.351	0.528	0.332
Mof_C 	C 	0.68875	0.60799	0.7261	-0.082
Mof_C 	C 	0.74513	0.6755	0.7838	0.008
Mof_H 	H 	0.7461	0.698	0.855	0.06
Mof_C 	C 	0.80073	0.70453	0.7218	-0.07
Mof_C 	C 	0.79761	0.6618	0.6046	-0.042
Mof_H 	H 	0.8335	0.679	0.561	0.067
Mof_C 	C 	0.73857	0.5952	0.5524	0.043
Mof_H 	H 	0.7322	0.568	0.471	0.015
Mof_C 	C 	0.62693	0.56951	0.7876	0.442
Mof_C 	C 	0.86331	0.78235	0.7775	0.405
Mof_Mg	Mg	6.93397e-34	0.09915	0.25	1.463
Mof_Mg	Mg	0.5	0.59915	0.25	1.477
Mof_Mg	Mg	2.08019e-33	0.90085	0.75	1.463
Mof_Mg	Mg	0.5	0.40085	0.75	1.477
_end
