data_functionalizedCrystal
_audit_creation_method	'EQeq! by Chris Wilmer'
_symmetry_space_group_name_H-M	'P1'
_symmetry_Int_Tables_number	1
_symmetry_cell_setting	triclinic
loop_
_symmetry_equiv_pos_as_xyz
  x,y,z
_cell_length_a	9.7186
_cell_length_b	25.346
_cell_length_c	19.306
_cell_angle_alpha	90
_cell_angle_beta	90
_cell_angle_gamma	90
loop_
_atom_site_label
_atom_site_type_symbol
_atom_site_fract_x
_atom_site_fract_y
_atom_site_fract_z
_atom_site_charge
Mof_Cu	Cu	0.60847	0.47555	0.55242	0.898
Mof_Cu	Cu	0.80833	0.43433	0.44712	0.928
Mof_C 	C 	0.8341	0.43469	0.86397	-0.301
Mof_H 	H 	0.8249	0.4555	0.8245	0.129
Mof_C 	C 	0.8933	0.45435	0.92095	0.221
Mof_H 	H 	0.9245	0.489	0.921	-0.053
Mof_C 	C 	0.9087	0.42403	0.97935	-0.306
Mof_H 	H 	0.9508	0.4381	0.0184	0.139
Mof_C 	C 	0.8617	0.3725	0.98016	0.242
Mof_C 	C 	0.7985	0.3534	0.92267	-0.304
Mof_H 	H 	0.7624	0.3194	0.9227	0.14
Mof_C 	C 	0.7877	0.38433	0.86419	0.216
Mof_H 	H 	0.7481	0.3704	0.8243	-0.049
Mof_C 	C 	0.8461	0.36181	0.10604	0.187
Mof_C 	C 	0.7305	0.39317	0.11339	-0.217
Mof_H 	H 	0.6753	0.4002	0.0751	0.111
Mof_C 	C 	0.6961	0.41431	0.17757	0.114
Mof_H 	H 	0.6183	0.4354	0.1818	0.003
Mof_C 	C 	0.77601	0.4043	0.23495	-0.167
Mof_C 	C 	0.8929	0.37283	0.22735	0.111
Mof_H 	H 	0.9484	0.3658	0.2655	0.004
Mof_C 	C 	0.9264	0.35206	0.16312	-0.218
Mof_H 	H 	0.0045	0.3312	0.1586	0.107
Mof_C 	C 	0.93579	0.28956	0.03367	0.191
Mof_C 	C 	0.90464	0.25002	0.08042	-0.22
Mof_H 	H 	0.8481	0.2575	0.118	0.113
Mof_C 	C 	0.95649	0.19932	0.07212	0.126
Mof_H 	H 	0.9334	0.1732	0.1039	0.005
Mof_C 	C 	0.04163	0.18734	0.01739	-0.189
Mof_C 	C 	0.0745	0.22698	0.9703	0.129
Mof_H 	H 	0.1319	0.2196	0.933	0
Mof_C 	C 	0.0224	0.27723	0.97865	-0.226
Mof_H 	H 	0.0456	0.3033	0.9469	0.114
Mof_C 	C 	0.09764	0.13325	0.0081	0.397
Mof_C 	C 	0.73652	0.42531	0.30457	0.376
Mof_N 	N 	0.88011	0.34043	0.0406	-0.21
Mof_O 	O 	0.04499	0.09702	0.04532	-0.47
Mof_O 	O 	0.19273	0.12684	0.96461	-0.411
Mof_O 	O 	0.62898	0.45007	0.31234	-0.336
Mof_O 	O 	0.82408	0.41538	0.35204	-0.408
Mof_O 	O 	0.80237	0.45422	0.54609	-0.693
Mof_H 	H 	0.865	0.4536	0.5768	0.215
Mof_O 	O 	0.41886	0.49808	0.56426	-0.724
Mof_H 	H 	0.4059	0.5073	0.6061	0.274
Mof_Cu	Cu	0.89153	0.52445	0.55242	0.899
Mof_Cu	Cu	0.69167	0.56567	0.44712	0.929
Mof_C 	C 	0.6659	0.56531	0.86397	-0.297
Mof_H 	H 	0.6751	0.5445	0.8245	0.129
Mof_C 	C 	0.6067	0.54565	0.92095	0.219
Mof_H 	H 	0.5755	0.511	0.921	-0.051
Mof_C 	C 	0.5913	0.57597	0.97935	-0.302
Mof_H 	H 	0.5492	0.5619	0.0184	0.139
Mof_C 	C 	0.6383	0.6275	0.98016	0.241
Mof_C 	C 	0.7015	0.6466	0.92267	-0.302
Mof_H 	H 	0.7376	0.6806	0.9227	0.14
Mof_C 	C 	0.7123	0.61567	0.86419	0.214
Mof_H 	H 	0.7519	0.6296	0.8243	-0.048
Mof_C 	C 	0.6539	0.63819	0.10604	0.188
Mof_C 	C 	0.7695	0.60683	0.11339	-0.218
Mof_H 	H 	0.8247	0.5998	0.0751	0.111
Mof_C 	C 	0.8039	0.58569	0.17757	0.114
Mof_H 	H 	0.8817	0.5646	0.1818	0.003
Mof_C 	C 	0.72399	0.5957	0.23495	-0.167
Mof_C 	C 	0.6071	0.62717	0.22735	0.112
Mof_H 	H 	0.5516	0.6342	0.2655	0.004
Mof_C 	C 	0.5736	0.64794	0.16312	-0.22
Mof_H 	H 	0.4955	0.6688	0.1586	0.108
Mof_C 	C 	0.56421	0.71044	0.03367	0.19
Mof_C 	C 	0.59536	0.74998	0.08042	-0.218
Mof_H 	H 	0.6519	0.7425	0.118	0.112
Mof_C 	C 	0.54351	0.80068	0.07212	0.123
Mof_H 	H 	0.5666	0.8268	0.1039	0.006
Mof_C 	C 	0.45837	0.81266	0.01739	-0.186
Mof_C 	C 	0.4255	0.77302	0.9703	0.127
Mof_H 	H 	0.3681	0.7804	0.933	0.001
Mof_C 	C 	0.4776	0.72277	0.97865	-0.224
Mof_H 	H 	0.4544	0.6967	0.9469	0.114
Mof_C 	C 	0.40236	0.86675	0.0081	0.396
Mof_C 	C 	0.76348	0.57469	0.30457	0.376
Mof_N 	N 	0.61989	0.65957	0.0406	-0.209
Mof_O 	O 	0.45501	0.90298	0.04532	-0.469
Mof_O 	O 	0.30727	0.87316	0.96461	-0.411
Mof_O 	O 	0.87102	0.54993	0.31234	-0.336
Mof_O 	O 	0.67592	0.58462	0.35204	-0.408
Mof_O 	O 	0.69763	0.54578	0.54609	-0.693
Mof_H 	H 	0.635	0.5464	0.5768	0.215
Mof_O 	O 	0.08114	0.50192	0.56426	-0.724
Mof_H 	H 	0.0941	0.4927	0.6061	0.274
Mof_Cu	Cu	0.89153	0.97555	0.94758	0.899
Mof_Cu	Cu	0.69167	0.93433	0.05288	0.929
Mof_C 	C 	0.6659	0.93469	0.63603	-0.297
Mof_H 	H 	0.6751	0.9555	0.6755	0.129
Mof_C 	C 	0.6067	0.95435	0.57905	0.219
Mof_H 	H 	0.5755	0.989	0.579	-0.051
Mof_C 	C 	0.5913	0.92403	0.52065	-0.301
Mof_H 	H 	0.5492	0.9381	0.4816	0.139
Mof_C 	C 	0.6383	0.8725	0.51984	0.242
Mof_C 	C 	0.7015	0.8534	0.57733	-0.302
Mof_H 	H 	0.7376	0.8194	0.5773	0.14
Mof_C 	C 	0.7123	0.88433	0.63581	0.214
Mof_H 	H 	0.7519	0.8704	0.6757	-0.048
Mof_C 	C 	0.6539	0.86181	0.39396	0.188
Mof_C 	C 	0.7695	0.89317	0.38661	-0.218
Mof_H 	H 	0.8247	0.9002	0.4249	0.111
Mof_C 	C 	0.8039	0.91431	0.32243	0.114
Mof_H 	H 	0.8817	0.9354	0.3182	0.003
Mof_C 	C 	0.72399	0.9043	0.26505	-0.167
Mof_C 	C 	0.6071	0.87283	0.27265	0.112
Mof_H 	H 	0.5516	0.8658	0.2345	0.004
Mof_C 	C 	0.5736	0.85206	0.33688	-0.22
Mof_H 	H 	0.4955	0.8312	0.3414	0.108
Mof_C 	C 	0.56421	0.78956	0.46633	0.19
Mof_C 	C 	0.59536	0.75002	0.41958	-0.218
Mof_H 	H 	0.6519	0.7575	0.382	0.112
Mof_C 	C 	0.54351	0.69932	0.42788	0.122
Mof_H 	H 	0.5666	0.6732	0.3961	0.006
Mof_C 	C 	0.45837	0.68734	0.48261	-0.186
Mof_C 	C 	0.4255	0.72698	0.5297	0.126
Mof_H 	H 	0.3681	0.7196	0.567	0.001
Mof_C 	C 	0.4776	0.77723	0.52135	-0.224
Mof_H 	H 	0.4544	0.8033	0.5531	0.114
Mof_C 	C 	0.40236	0.63325	0.4919	0.396
Mof_C 	C 	0.76348	0.92531	0.19543	0.376
Mof_N 	N 	0.61989	0.84043	0.4594	-0.209
Mof_O 	O 	0.45501	0.59702	0.45468	-0.469
Mof_O 	O 	0.30727	0.62684	0.53539	-0.411
Mof_O 	O 	0.87102	0.95007	0.18766	-0.336
Mof_O 	O 	0.67592	0.91538	0.14796	-0.408
Mof_O 	O 	0.69763	0.95422	0.95391	-0.693
Mof_H 	H 	0.635	0.9536	0.9232	0.215
Mof_O 	O 	0.08114	0.99808	0.93574	-0.722
Mof_H 	H 	0.0941	0.0073	0.8939	0.273
Mof_Cu	Cu	0.60847	0.02445	0.94758	0.899
Mof_Cu	Cu	0.80833	0.06567	0.05288	0.929
Mof_C 	C 	0.8341	0.06531	0.63603	-0.297
Mof_H 	H 	0.8249	0.0445	0.6755	0.129
Mof_C 	C 	0.8933	0.04565	0.57905	0.219
Mof_H 	H 	0.9245	0.011	0.579	-0.051
Mof_C 	C 	0.9087	0.07597	0.52065	-0.301
Mof_H 	H 	0.9508	0.0619	0.4816	0.139
Mof_C 	C 	0.8617	0.1275	0.51984	0.242
Mof_C 	C 	0.7985	0.1466	0.57733	-0.302
Mof_H 	H 	0.7624	0.1806	0.5773	0.14
Mof_C 	C 	0.7877	0.11567	0.63581	0.214
Mof_H 	H 	0.7481	0.1296	0.6757	-0.048
Mof_C 	C 	0.8461	0.13819	0.39396	0.187
Mof_C 	C 	0.7305	0.10683	0.38661	-0.217
Mof_H 	H 	0.6753	0.0998	0.4249	0.111
Mof_C 	C 	0.6961	0.08569	0.32243	0.114
Mof_H 	H 	0.6183	0.0646	0.3182	0.003
Mof_C 	C 	0.77601	0.0957	0.26505	-0.166
Mof_C 	C 	0.8929	0.12717	0.27265	0.111
Mof_H 	H 	0.9484	0.1342	0.2345	0.004
Mof_C 	C 	0.9264	0.14794	0.33688	-0.218
Mof_H 	H 	0.0045	0.1688	0.3414	0.107
Mof_C 	C 	0.93579	0.21044	0.46633	0.19
Mof_C 	C 	0.90464	0.24998	0.41958	-0.218
Mof_H 	H 	0.8481	0.2425	0.382	0.112
Mof_C 	C 	0.95649	0.30068	0.42788	0.123
Mof_H 	H 	0.9334	0.3268	0.3961	0.006
Mof_C 	C 	0.04163	0.31266	0.48261	-0.186
Mof_C 	C 	0.0745	0.27302	0.5297	0.127
Mof_H 	H 	0.1319	0.2804	0.567	0.001
Mof_C 	C 	0.0224	0.22277	0.52135	-0.225
Mof_H 	H 	0.0456	0.1967	0.5531	0.114
Mof_C 	C 	0.09764	0.36675	0.4919	0.396
Mof_C 	C 	0.73652	0.07469	0.19543	0.376
Mof_N 	N 	0.88011	0.15957	0.4594	-0.209
Mof_O 	O 	0.04499	0.40298	0.45468	-0.469
Mof_O 	O 	0.19273	0.37316	0.53539	-0.411
Mof_O 	O 	0.62898	0.04993	0.18766	-0.336
Mof_O 	O 	0.82408	0.08462	0.14796	-0.408
Mof_O 	O 	0.80237	0.04578	0.95391	-0.693
Mof_H 	H 	0.865	0.0464	0.9232	0.215
Mof_O 	O 	0.41886	0.00192	0.93574	-0.724
Mof_H 	H 	0.4059	0.9927	0.8939	0.275
Mof_Cu	Cu	0.39153	0.52445	0.44758	0.899
Mof_Cu	Cu	0.19167	0.56567	0.55288	0.929
Mof_C 	C 	0.1659	0.56531	0.13603	-0.3
Mof_H 	H 	0.1751	0.5445	0.1755	0.13
Mof_C 	C 	0.1067	0.54565	0.07905	0.222
Mof_H 	H 	0.0755	0.511	0.079	-0.052
Mof_C 	C 	0.0913	0.57597	0.02065	-0.305
Mof_H 	H 	0.0492	0.5619	0.9816	0.14
Mof_C 	C 	0.1383	0.6275	0.01984	0.243
Mof_C 	C 	0.2015	0.6466	0.07733	-0.303
Mof_H 	H 	0.2376	0.6806	0.0773	0.14
Mof_C 	C 	0.2123	0.61567	0.13581	0.216
Mof_H 	H 	0.2519	0.6296	0.1757	-0.049
Mof_C 	C 	0.1539	0.63819	0.89396	0.187
Mof_C 	C 	0.2695	0.60683	0.88661	-0.217
Mof_H 	H 	0.3247	0.5998	0.9249	0.111
Mof_C 	C 	0.3039	0.58569	0.82243	0.114
Mof_H 	H 	0.3817	0.5646	0.8182	0.003
Mof_C 	C 	0.22399	0.5957	0.76505	-0.167
Mof_C 	C 	0.1071	0.62717	0.77265	0.111
Mof_H 	H 	0.0516	0.6342	0.7345	0.004
Mof_C 	C 	0.0736	0.64794	0.83688	-0.218
Mof_H 	H 	0.9955	0.6688	0.8414	0.107
Mof_C 	C 	0.06421	0.71044	0.96633	0.191
Mof_C 	C 	0.09536	0.74998	0.91958	-0.22
Mof_H 	H 	0.1519	0.7425	0.882	0.113
Mof_C 	C 	0.04351	0.80068	0.92788	0.126
Mof_H 	H 	0.0666	0.8268	0.8961	0.005
Mof_C 	C 	0.95837	0.81266	0.98261	-0.189
Mof_C 	C 	0.9255	0.77302	0.0297	0.129
Mof_H 	H 	0.8681	0.7804	0.067	0
Mof_C 	C 	0.9776	0.72277	0.02135	-0.226
Mof_H 	H 	0.9544	0.6967	0.0531	0.114
Mof_C 	C 	0.90236	0.86675	0.9919	0.397
Mof_C 	C 	0.26348	0.57469	0.69543	0.376
Mof_N 	N 	0.11989	0.65957	0.9594	-0.21
Mof_O 	O 	0.95501	0.90298	0.95468	-0.47
Mof_O 	O 	0.80727	0.87316	0.03539	-0.411
Mof_O 	O 	0.37102	0.54993	0.68766	-0.336
Mof_O 	O 	0.17592	0.58462	0.64796	-0.408
Mof_O 	O 	0.19763	0.54578	0.45391	-0.693
Mof_H 	H 	0.135	0.5464	0.4232	0.215
Mof_O 	O 	0.58114	0.50192	0.43574	-0.724
Mof_H 	H 	0.5941	0.4927	0.3939	0.274
Mof_Cu	Cu	0.10847	0.47555	0.44758	0.899
Mof_Cu	Cu	0.30833	0.43433	0.55288	0.929
Mof_C 	C 	0.3341	0.43469	0.13603	-0.297
Mof_H 	H 	0.3249	0.4555	0.1755	0.129
Mof_C 	C 	0.3933	0.45435	0.07905	0.219
Mof_H 	H 	0.4245	0.489	0.079	-0.051
Mof_C 	C 	0.4087	0.42403	0.02065	-0.302
Mof_H 	H 	0.4508	0.4381	0.9816	0.139
Mof_C 	C 	0.3617	0.3725	0.01984	0.241
Mof_C 	C 	0.2985	0.3534	0.07733	-0.302
Mof_H 	H 	0.2624	0.3194	0.0773	0.14
Mof_C 	C 	0.2877	0.38433	0.13581	0.214
Mof_H 	H 	0.2481	0.3704	0.1757	-0.048
Mof_C 	C 	0.3461	0.36181	0.89396	0.188
Mof_C 	C 	0.2305	0.39317	0.88661	-0.218
Mof_H 	H 	0.1753	0.4002	0.9249	0.111
Mof_C 	C 	0.1961	0.41431	0.82243	0.114
Mof_H 	H 	0.1183	0.4354	0.8182	0.003
Mof_C 	C 	0.27601	0.4043	0.76505	-0.167
Mof_C 	C 	0.3929	0.37283	0.77265	0.112
Mof_H 	H 	0.4484	0.3658	0.7345	0.004
Mof_C 	C 	0.4264	0.35206	0.83688	-0.22
Mof_H 	H 	0.5045	0.3312	0.8414	0.108
Mof_C 	C 	0.43579	0.28956	0.96633	0.19
Mof_C 	C 	0.40464	0.25002	0.91958	-0.218
Mof_H 	H 	0.3481	0.2575	0.882	0.112
Mof_C 	C 	0.45649	0.19932	0.92788	0.123
Mof_H 	H 	0.4334	0.1732	0.8961	0.006
Mof_C 	C 	0.54163	0.18734	0.98261	-0.186
Mof_C 	C 	0.5745	0.22698	0.0297	0.127
Mof_H 	H 	0.6319	0.2196	0.067	0.001
Mof_C 	C 	0.5224	0.27723	0.02135	-0.224
Mof_H 	H 	0.5456	0.3033	0.0531	0.114
Mof_C 	C 	0.59764	0.13325	0.9919	0.396
Mof_C 	C 	0.23652	0.42531	0.69543	0.376
Mof_N 	N 	0.38011	0.34043	0.9594	-0.209
Mof_O 	O 	0.54499	0.09702	0.95468	-0.469
Mof_O 	O 	0.69273	0.12684	0.03539	-0.411
Mof_O 	O 	0.12898	0.45007	0.68766	-0.336
Mof_O 	O 	0.32408	0.41538	0.64796	-0.408
Mof_O 	O 	0.30237	0.45422	0.45391	-0.693
Mof_H 	H 	0.365	0.4536	0.4232	0.215
Mof_O 	O 	0.91886	0.49808	0.43574	-0.724
Mof_H 	H 	0.9059	0.5073	0.3939	0.274
Mof_Cu	Cu	0.10847	0.02445	0.05242	0.899
Mof_Cu	Cu	0.30833	0.06567	0.94712	0.929
Mof_C 	C 	0.3341	0.06531	0.36397	-0.297
Mof_H 	H 	0.3249	0.0445	0.3245	0.129
Mof_C 	C 	0.3933	0.04565	0.42095	0.219
Mof_H 	H 	0.4245	0.011	0.421	-0.051
Mof_C 	C 	0.4087	0.07597	0.47935	-0.301
Mof_H 	H 	0.4508	0.0619	0.5184	0.139
Mof_C 	C 	0.3617	0.1275	0.48016	0.242
Mof_C 	C 	0.2985	0.1466	0.42267	-0.302
Mof_H 	H 	0.2624	0.1806	0.4227	0.14
Mof_C 	C 	0.2877	0.11567	0.36419	0.214
Mof_H 	H 	0.2481	0.1296	0.3243	-0.048
Mof_C 	C 	0.3461	0.13819	0.60604	0.188
Mof_C 	C 	0.2305	0.10683	0.61339	-0.218
Mof_H 	H 	0.1753	0.0998	0.5751	0.111
Mof_C 	C 	0.1961	0.08569	0.67757	0.114
Mof_H 	H 	0.1183	0.0646	0.6818	0.003
Mof_C 	C 	0.27601	0.0957	0.73495	-0.167
Mof_C 	C 	0.3929	0.12717	0.72735	0.112
Mof_H 	H 	0.4484	0.1342	0.7655	0.004
Mof_C 	C 	0.4264	0.14794	0.66312	-0.22
Mof_H 	H 	0.5045	0.1688	0.6586	0.108
Mof_C 	C 	0.43579	0.21044	0.53367	0.19
Mof_C 	C 	0.40464	0.24998	0.58042	-0.218
Mof_H 	H 	0.3481	0.2425	0.618	0.112
Mof_C 	C 	0.45649	0.30068	0.57212	0.122
Mof_H 	H 	0.4334	0.3268	0.6039	0.006
Mof_C 	C 	0.54163	0.31266	0.51739	-0.186
Mof_C 	C 	0.5745	0.27302	0.4703	0.126
Mof_H 	H 	0.6319	0.2804	0.433	0.001
Mof_C 	C 	0.5224	0.22277	0.47865	-0.224
Mof_H 	H 	0.5456	0.1967	0.4469	0.114
Mof_C 	C 	0.59764	0.36675	0.5081	0.396
Mof_C 	C 	0.23652	0.07469	0.80457	0.376
Mof_N 	N 	0.38011	0.15957	0.5406	-0.209
Mof_O 	O 	0.54499	0.40298	0.54532	-0.469
Mof_O 	O 	0.69273	0.37316	0.46461	-0.411
Mof_O 	O 	0.12898	0.04993	0.81234	-0.336
Mof_O 	O 	0.32408	0.08462	0.85204	-0.408
Mof_O 	O 	0.30237	0.04578	0.04609	-0.693
Mof_H 	H 	0.365	0.0464	0.0768	0.215
Mof_O 	O 	0.91886	0.00192	0.06426	-0.722
Mof_H 	H 	0.9059	0.9927	0.1061	0.273
Mof_Cu	Cu	0.39153	0.97555	0.05242	0.899
Mof_Cu	Cu	0.19167	0.93433	0.94712	0.929
Mof_C 	C 	0.1659	0.93469	0.36397	-0.297
Mof_H 	H 	0.1751	0.9555	0.3245	0.129
Mof_C 	C 	0.1067	0.95435	0.42095	0.219
Mof_H 	H 	0.0755	0.989	0.421	-0.051
Mof_C 	C 	0.0913	0.92403	0.47935	-0.301
Mof_H 	H 	0.0492	0.9381	0.5184	0.139
Mof_C 	C 	0.1383	0.8725	0.48016	0.242
Mof_C 	C 	0.2015	0.8534	0.42267	-0.302
Mof_H 	H 	0.2376	0.8194	0.4227	0.14
Mof_C 	C 	0.2123	0.88433	0.36419	0.214
Mof_H 	H 	0.2519	0.8704	0.3243	-0.048
Mof_C 	C 	0.1539	0.86181	0.60604	0.187
Mof_C 	C 	0.2695	0.89317	0.61339	-0.217
Mof_H 	H 	0.3247	0.9002	0.5751	0.111
Mof_C 	C 	0.3039	0.91431	0.67757	0.114
Mof_H 	H 	0.3817	0.9354	0.6818	0.003
Mof_C 	C 	0.22399	0.9043	0.73495	-0.166
Mof_C 	C 	0.1071	0.87283	0.72735	0.111
Mof_H 	H 	0.0516	0.8658	0.7655	0.004
Mof_C 	C 	0.0736	0.85206	0.66312	-0.218
Mof_H 	H 	0.9955	0.8312	0.6586	0.107
Mof_C 	C 	0.06421	0.78956	0.53367	0.19
Mof_C 	C 	0.09536	0.75002	0.58042	-0.218
Mof_H 	H 	0.1519	0.7575	0.618	0.112
Mof_C 	C 	0.04351	0.69932	0.57212	0.123
Mof_H 	H 	0.0666	0.6732	0.6039	0.006
Mof_C 	C 	0.95837	0.68734	0.51739	-0.186
Mof_C 	C 	0.9255	0.72698	0.4703	0.127
Mof_H 	H 	0.8681	0.7196	0.433	0.001
Mof_C 	C 	0.9776	0.77723	0.47865	-0.225
Mof_H 	H 	0.9544	0.8033	0.4469	0.114
Mof_C 	C 	0.90236	0.63325	0.5081	0.396
Mof_C 	C 	0.26348	0.92531	0.80457	0.376
Mof_N 	N 	0.11989	0.84043	0.5406	-0.209
Mof_O 	O 	0.95501	0.59702	0.54532	-0.469
Mof_O 	O 	0.80727	0.62684	0.46461	-0.411
Mof_O 	O 	0.37102	0.95007	0.81234	-0.336
Mof_O 	O 	0.17592	0.91538	0.85204	-0.408
Mof_O 	O 	0.19763	0.95422	0.04609	-0.693
Mof_H 	H 	0.135	0.9536	0.0768	0.215
Mof_O 	O 	0.58114	0.99808	0.06426	-0.724
Mof_H 	H 	0.5941	0.0073	0.1061	0.275
_end
