# CIF file generated by openbabel 3.1.0, see https://openbabel.org
data_I
_chemical_name_common 'image0'
_cell_length_a 24.427
_cell_length_b 24.427
_cell_length_c 24.427
_cell_angle_alpha 90
_cell_angle_beta 90
_cell_angle_gamma 90
_space_group_name_H-M_alt 'P 1'
_space_group_name_Hall 'P 1'
loop_
    _symmetry_equiv_pos_as_xyz
    x,y,z
loop_
    _atom_site_label
    _atom_site_type_symbol
    _atom_site_fract_x
    _atom_site_fract_y
    _atom_site_fract_z
    _atom_site_occupancy
    Cu1      Cu       0.05912    0.21592    0.38543    1.000
    Cu2      Cu       0.14849    0.20257    0.48689    1.000
    O1       O        0.83018    0.05669    0.37102    1.000
    O2       O        0.07903    0.18629    0.45479    1.000
    O3       O        0.98236    0.19405    0.39290    1.000
    O4       O        0.71072    0.25755    0.48015    1.000
    O5       O        0.76742    0.32553    0.45656    1.000
    O6       O        0.96143    0.27640    0.42640    1.000
    O7       O        0.75250    0.07340    0.41220    1.000
    N1       N        0.13800    0.22640    0.37199    1.000
    N2       N        0.17311    0.22340    0.41436    1.000
    C1       C        0.16700    0.23160    0.32590    1.000
    H1       H        0.15230    0.23490    0.29090    1.000
    C2       C        0.22400    0.22660    0.39410    1.000
    H2       H        0.25590    0.22580    0.41490    1.000
    C3       C        0.88960    0.21210    0.41740    1.000
    C4       C        0.22210    0.23140    0.33810    1.000
    H3       H        0.25130    0.23390    0.31380    1.000
    C5       C        0.75510    0.27610    0.46150    1.000
    C6       C        0.79810    0.08800    0.39830    1.000
    C7       C        0.81900    0.14350    0.41260    1.000
    C8       C        0.79710    0.23460    0.44350    1.000
    C9       C        0.94850    0.22960    0.41170    1.000
    C10      C        0.87280    0.15850    0.40520    1.000
    H4       H        0.89810    0.13320    0.39210    1.000
    C11      C        0.85090    0.24980    0.43600    1.000
    H5       H        0.86160    0.28560    0.44340    1.000
    C12      C        0.78090    0.18120    0.43230    1.000
    H6       H        0.74480    0.17060    0.43810    1.000
    Cu3      Cu       0.44088    0.78408    0.88543    1.000
    Cu4      Cu       0.35151    0.79743    0.98689    1.000
    O8       O        0.66982    0.94331    0.87102    1.000
    O9       O        0.42097    0.81371    0.95479    1.000
    O10      O        0.51764    0.80595    0.89290    1.000
    O11      O        0.78928    0.74245    0.98015    1.000
    O12      O        0.73258    0.67447    0.95656    1.000
    O13      O        0.53857    0.72360    0.92640    1.000
    O14      O        0.74750    0.92660    0.91220    1.000
    N3       N        0.36200    0.77360    0.87199    1.000
    N4       N        0.32689    0.77660    0.91436    1.000
    C13      C        0.33300    0.76840    0.82590    1.000
    H7       H        0.34770    0.76510    0.79090    1.000
    C14      C        0.27600    0.77340    0.89410    1.000
    H8       H        0.24410    0.77420    0.91490    1.000
    C15      C        0.61040    0.78790    0.91740    1.000
    C16      C        0.27790    0.76860    0.83810    1.000
    H9       H        0.24870    0.76610    0.81380    1.000
    C17      C        0.74490    0.72390    0.96150    1.000
    C18      C        0.70190    0.91200    0.89830    1.000
    C19      C        0.68100    0.85650    0.91260    1.000
    C20      C        0.70290    0.76540    0.94350    1.000
    C21      C        0.55150    0.77040    0.91170    1.000
    C22      C        0.62720    0.84150    0.90520    1.000
    H10      H        0.60190    0.86680    0.89210    1.000
    C23      C        0.64910    0.75020    0.93600    1.000
    H11      H        0.63840    0.71440    0.94340    1.000
    C24      C        0.71910    0.81880    0.93230    1.000
    H12      H        0.75520    0.82940    0.93810    1.000
    Cu5      Cu       0.94088    0.71592    0.11457    1.000
    Cu6      Cu       0.85151    0.70257    0.01311    1.000
    O15      O        0.16982    0.55669    0.12898    1.000
    O16      O        0.92097    0.68629    0.04521    1.000
    O17      O        0.01764    0.69405    0.10710    1.000
    O18      O        0.28928    0.75755    0.01985    1.000
    O19      O        0.23258    0.82553    0.04344    1.000
    O20      O        0.03857    0.77640    0.07360    1.000
    O21      O        0.24750    0.57340    0.08780    1.000
    N5       N        0.86200    0.72640    0.12801    1.000
    N6       N        0.82689    0.72340    0.08564    1.000
    C25      C        0.83300    0.73160    0.17410    1.000
    H13      H        0.84770    0.73490    0.20910    1.000
    C26      C        0.77600    0.72660    0.10590    1.000
    H14      H        0.74410    0.72580    0.08510    1.000
    C27      C        0.11040    0.71210    0.08260    1.000
    C28      C        0.77790    0.73140    0.16190    1.000
    H15      H        0.74870    0.73390    0.18620    1.000
    C29      C        0.24490    0.77610    0.03850    1.000
    C30      C        0.20190    0.58800    0.10170    1.000
    C31      C        0.18100    0.64350    0.08740    1.000
    C32      C        0.20290    0.73460    0.05650    1.000
    C33      C        0.05150    0.72960    0.08830    1.000
    C34      C        0.12720    0.65850    0.09480    1.000
    H16      H        0.10190    0.63320    0.10790    1.000
    C35      C        0.14910    0.74980    0.06400    1.000
    H17      H        0.13840    0.78560    0.05660    1.000
    C36      C        0.21910    0.68120    0.06770    1.000
    H18      H        0.25520    0.67060    0.06190    1.000
    Cu7      Cu       0.55912    0.28408    0.61457    1.000
    Cu8      Cu       0.64849    0.29743    0.51311    1.000
    O22      O        0.33018    0.44331    0.62898    1.000
    O23      O        0.57903    0.31371    0.54521    1.000
    O24      O        0.48236    0.30595    0.60710    1.000
    O25      O        0.21072    0.24245    0.51985    1.000
    O26      O        0.26742    0.17447    0.54344    1.000
    O27      O        0.46143    0.22360    0.57360    1.000
    O28      O        0.25250    0.42660    0.58780    1.000
    N7       N        0.63800    0.27360    0.62801    1.000
    N8       N        0.67311    0.27660    0.58564    1.000
    C37      C        0.66700    0.26840    0.67410    1.000
    H19      H        0.65230    0.26510    0.70910    1.000
    C38      C        0.72400    0.27340    0.60590    1.000
    H20      H        0.75590    0.27420    0.58510    1.000
    C39      C        0.38960    0.28790    0.58260    1.000
    C40      C        0.72210    0.26860    0.66190    1.000
    H21      H        0.75130    0.26610    0.68620    1.000
    C41      C        0.25510    0.22390    0.53850    1.000
    C42      C        0.29810    0.41200    0.60170    1.000
    C43      C        0.31900    0.35650    0.58740    1.000
    C44      C        0.29710    0.26540    0.55650    1.000
    C45      C        0.44850    0.27040    0.58830    1.000
    C46      C        0.37280    0.34150    0.59480    1.000
    H22      H        0.39810    0.36680    0.60790    1.000
    C47      C        0.35090    0.25020    0.56400    1.000
    H23      H        0.36160    0.21440    0.55660    1.000
    C48      C        0.28090    0.31880    0.56770    1.000
    H24      H        0.24480    0.32940    0.56190    1.000
    Cu9      Cu       0.38543    0.05912    0.21592    1.000
    Cu10     Cu       0.48689    0.14849    0.20257    1.000
    O29      O        0.37102    0.83018    0.05669    1.000
    O30      O        0.45479    0.07903    0.18629    1.000
    O31      O        0.39290    0.98236    0.19405    1.000
    O32      O        0.48015    0.71072    0.25755    1.000
    O33      O        0.45656    0.76742    0.32553    1.000
    O34      O        0.42640    0.96143    0.27640    1.000
    O35      O        0.41220    0.75250    0.07340    1.000
    N9       N        0.37199    0.13800    0.22640    1.000
    N10      N        0.41436    0.17311    0.22340    1.000
    C49      C        0.32590    0.16700    0.23160    1.000
    H25      H        0.29090    0.15230    0.23490    1.000
    C50      C        0.39410    0.22400    0.22660    1.000
    H26      H        0.41490    0.25590    0.22580    1.000
    C51      C        0.41740    0.88960    0.21210    1.000
    C52      C        0.33810    0.22210    0.23140    1.000
    H27      H        0.31380    0.25130    0.23390    1.000
    C53      C        0.46150    0.75510    0.27610    1.000
    C54      C        0.39830    0.79810    0.08800    1.000
    C55      C        0.41260    0.81900    0.14350    1.000
    C56      C        0.44350    0.79710    0.23460    1.000
    C57      C        0.41170    0.94850    0.22960    1.000
    C58      C        0.40520    0.87280    0.15850    1.000
    H28      H        0.39210    0.89810    0.13320    1.000
    C59      C        0.43600    0.85090    0.24980    1.000
    H29      H        0.44340    0.86160    0.28560    1.000
    C60      C        0.43230    0.78090    0.18120    1.000
    H30      H        0.43810    0.74480    0.17060    1.000
    Cu11     Cu       0.88543    0.44088    0.78408    1.000
    Cu12     Cu       0.98689    0.35151    0.79743    1.000
    O36      O        0.87102    0.66982    0.94331    1.000
    O37      O        0.95479    0.42097    0.81371    1.000
    O38      O        0.89290    0.51764    0.80595    1.000
    O39      O        0.98015    0.78928    0.74245    1.000
    O40      O        0.95656    0.73258    0.67447    1.000
    O41      O        0.92640    0.53857    0.72360    1.000
    O42      O        0.91220    0.74750    0.92660    1.000
    N11      N        0.87199    0.36200    0.77360    1.000
    N12      N        0.91436    0.32689    0.77660    1.000
    C61      C        0.82590    0.33300    0.76840    1.000
    H31      H        0.79090    0.34770    0.76510    1.000
    C62      C        0.89410    0.27600    0.77340    1.000
    H32      H        0.91490    0.24410    0.77420    1.000
    C63      C        0.91740    0.61040    0.78790    1.000
    C64      C        0.83810    0.27790    0.76860    1.000
    H33      H        0.81380    0.24870    0.76610    1.000
    C65      C        0.96150    0.74490    0.72390    1.000
    C66      C        0.89830    0.70190    0.91200    1.000
    C67      C        0.91260    0.68100    0.85650    1.000
    C68      C        0.94350    0.70290    0.76540    1.000
    C69      C        0.91170    0.55150    0.77040    1.000
    C70      C        0.90520    0.62720    0.84150    1.000
    H34      H        0.89210    0.60190    0.86680    1.000
    C71      C        0.93600    0.64910    0.75020    1.000
    H35      H        0.94340    0.63840    0.71440    1.000
    C72      C        0.93230    0.71910    0.81880    1.000
    H36      H        0.93810    0.75520    0.82940    1.000
    Cu13     Cu       0.11457    0.94088    0.71592    1.000
    Cu14     Cu       0.01311    0.85151    0.70257    1.000
    O43      O        0.12898    0.16982    0.55669    1.000
    O44      O        0.04521    0.92097    0.68629    1.000
    O45      O        0.10710    0.01764    0.69405    1.000
    O46      O        0.01985    0.28928    0.75755    1.000
    O47      O        0.04344    0.23258    0.82553    1.000
    O48      O        0.07360    0.03857    0.77640    1.000
    O49      O        0.08780    0.24750    0.57340    1.000
    N13      N        0.12801    0.86200    0.72640    1.000
    N14      N        0.08564    0.82689    0.72340    1.000
    C73      C        0.17410    0.83300    0.73160    1.000
    H37      H        0.20910    0.84770    0.73490    1.000
    C74      C        0.10590    0.77600    0.72660    1.000
    H38      H        0.08510    0.74410    0.72580    1.000
    C75      C        0.08260    0.11040    0.71210    1.000
    C76      C        0.16190    0.77790    0.73140    1.000
    H39      H        0.18620    0.74870    0.73390    1.000
    C77      C        0.03850    0.24490    0.77610    1.000
    C78      C        0.10170    0.20190    0.58800    1.000
    C79      C        0.08740    0.18100    0.64350    1.000
    C80      C        0.05650    0.20290    0.73460    1.000
    C81      C        0.08830    0.05150    0.72960    1.000
    C82      C        0.09480    0.12720    0.65850    1.000
    H40      H        0.10790    0.10190    0.63320    1.000
    C83      C        0.06400    0.14910    0.74980    1.000
    H41      H        0.05660    0.13840    0.78560    1.000
    C84      C        0.06770    0.21910    0.68120    1.000
    H42      H        0.06190    0.25520    0.67060    1.000
    Cu15     Cu       0.61457    0.55912    0.28408    1.000
    Cu16     Cu       0.51311    0.64849    0.29743    1.000
    O50      O        0.62898    0.33018    0.44331    1.000
    O51      O        0.54521    0.57903    0.31371    1.000
    O52      O        0.60710    0.48236    0.30595    1.000
    O53      O        0.51985    0.21072    0.24245    1.000
    O54      O        0.54344    0.26742    0.17447    1.000
    O55      O        0.57360    0.46143    0.22360    1.000
    O56      O        0.58780    0.25250    0.42660    1.000
    N15      N        0.62801    0.63800    0.27360    1.000
    N16      N        0.58564    0.67311    0.27660    1.000
    C85      C        0.67410    0.66700    0.26840    1.000
    H43      H        0.70910    0.65230    0.26510    1.000
    C86      C        0.60590    0.72400    0.27340    1.000
    H44      H        0.58510    0.75590    0.27420    1.000
    C87      C        0.58260    0.38960    0.28790    1.000
    C88      C        0.66190    0.72210    0.26860    1.000
    H45      H        0.68620    0.75130    0.26610    1.000
    C89      C        0.53850    0.25510    0.22390    1.000
    C90      C        0.60170    0.29810    0.41200    1.000
    C91      C        0.58740    0.31900    0.35650    1.000
    C92      C        0.55650    0.29710    0.26540    1.000
    C93      C        0.58830    0.44850    0.27040    1.000
    C94      C        0.59480    0.37280    0.34150    1.000
    H46      H        0.60790    0.39810    0.36680    1.000
    C95      C        0.56400    0.35090    0.25020    1.000
    H47      H        0.55660    0.36160    0.21440    1.000
    C96      C        0.56770    0.28090    0.31880    1.000
    H48      H        0.56190    0.24480    0.32940    1.000
    Cu17     Cu       0.21592    0.38543    0.05912    1.000
    Cu18     Cu       0.20257    0.48689    0.14849    1.000
    O57      O        0.05669    0.37102    0.83018    1.000
    O58      O        0.18629    0.45479    0.07903    1.000
    O59      O        0.19405    0.39290    0.98236    1.000
    O60      O        0.25755    0.48015    0.71072    1.000
    O61      O        0.32553    0.45656    0.76742    1.000
    O62      O        0.27640    0.42640    0.96143    1.000
    O63      O        0.07340    0.41220    0.75250    1.000
    N17      N        0.22640    0.37199    0.13800    1.000
    N18      N        0.22340    0.41436    0.17311    1.000
    C97      C        0.23160    0.32590    0.16700    1.000
    H49      H        0.23490    0.29090    0.15230    1.000
    C98      C        0.22660    0.39410    0.22400    1.000
    H50      H        0.22580    0.41490    0.25590    1.000
    C99      C        0.21210    0.41740    0.88960    1.000
    C100     C        0.23140    0.33810    0.22210    1.000
    H51      H        0.23390    0.31380    0.25130    1.000
    C101     C        0.27610    0.46150    0.75510    1.000
    C102     C        0.08800    0.39830    0.79810    1.000
    C103     C        0.14350    0.41260    0.81900    1.000
    C104     C        0.23460    0.44350    0.79710    1.000
    C105     C        0.22960    0.41170    0.94850    1.000
    C106     C        0.15850    0.40520    0.87280    1.000
    H52      H        0.13320    0.39210    0.89810    1.000
    C107     C        0.24980    0.43600    0.85090    1.000
    H53      H        0.28560    0.44340    0.86160    1.000
    C108     C        0.18120    0.43230    0.78090    1.000
    H54      H        0.17060    0.43810    0.74480    1.000
    Cu19     Cu       0.78408    0.88543    0.44088    1.000
    Cu20     Cu       0.79743    0.98689    0.35151    1.000
    O64      O        0.94331    0.87102    0.66982    1.000
    O65      O        0.81371    0.95479    0.42097    1.000
    O66      O        0.80595    0.89290    0.51764    1.000
    O67      O        0.74245    0.98015    0.78928    1.000
    O68      O        0.67447    0.95656    0.73258    1.000
    O69      O        0.72360    0.92640    0.53857    1.000
    O70      O        0.92660    0.91220    0.74750    1.000
    N19      N        0.77360    0.87199    0.36200    1.000
    N20      N        0.77660    0.91436    0.32689    1.000
    C109     C        0.76840    0.82590    0.33300    1.000
    H55      H        0.76510    0.79090    0.34770    1.000
    C110     C        0.77340    0.89410    0.27600    1.000
    H56      H        0.77420    0.91490    0.24410    1.000
    C111     C        0.78790    0.91740    0.61040    1.000
    C112     C        0.76860    0.83810    0.27790    1.000
    H57      H        0.76610    0.81380    0.24870    1.000
    C113     C        0.72390    0.96150    0.74490    1.000
    C114     C        0.91200    0.89830    0.70190    1.000
    C115     C        0.85650    0.91260    0.68100    1.000
    C116     C        0.76540    0.94350    0.70290    1.000
    C117     C        0.77040    0.91170    0.55150    1.000
    C118     C        0.84150    0.90520    0.62720    1.000
    H58      H        0.86680    0.89210    0.60190    1.000
    C119     C        0.75020    0.93600    0.64910    1.000
    H59      H        0.71440    0.94340    0.63840    1.000
    C120     C        0.81880    0.93230    0.71910    1.000
    H60      H        0.82940    0.93810    0.75520    1.000
    Cu21     Cu       0.71592    0.11457    0.94088    1.000
    Cu22     Cu       0.70257    0.01311    0.85151    1.000
    O71      O        0.55669    0.12898    0.16982    1.000
    O72      O        0.68629    0.04521    0.92097    1.000
    O73      O        0.69405    0.10710    0.01764    1.000
    O74      O        0.75755    0.01985    0.28928    1.000
    O75      O        0.82553    0.04344    0.23258    1.000
    O76      O        0.77640    0.07360    0.03857    1.000
    O77      O        0.57340    0.08780    0.24750    1.000
    N21      N        0.72640    0.12801    0.86200    1.000
    N22      N        0.72340    0.08564    0.82689    1.000
    C121     C        0.73160    0.17410    0.83300    1.000
    H61      H        0.73490    0.20910    0.84770    1.000
    C122     C        0.72660    0.10590    0.77600    1.000
    H62      H        0.72580    0.08510    0.74410    1.000
    C123     C        0.71210    0.08260    0.11040    1.000
    C124     C        0.73140    0.16190    0.77790    1.000
    H63      H        0.73390    0.18620    0.74870    1.000
    C125     C        0.77610    0.03850    0.24490    1.000
    C126     C        0.58800    0.10170    0.20190    1.000
    C127     C        0.64350    0.08740    0.18100    1.000
    C128     C        0.73460    0.05650    0.20290    1.000
    C129     C        0.72960    0.08830    0.05150    1.000
    C130     C        0.65850    0.09480    0.12720    1.000
    H64      H        0.63320    0.10790    0.10190    1.000
    C131     C        0.74980    0.06400    0.14910    1.000
    H65      H        0.78560    0.05660    0.13840    1.000
    C132     C        0.68120    0.06770    0.21910    1.000
    H66      H        0.67060    0.06190    0.25520    1.000
    Cu23     Cu       0.28408    0.61457    0.55912    1.000
    Cu24     Cu       0.29743    0.51311    0.64849    1.000
    O78      O        0.44331    0.62898    0.33018    1.000
    O79      O        0.31371    0.54521    0.57903    1.000
    O80      O        0.30595    0.60710    0.48236    1.000
    O81      O        0.24245    0.51985    0.21072    1.000
    O82      O        0.17447    0.54344    0.26742    1.000
    O83      O        0.22360    0.57360    0.46143    1.000
    O84      O        0.42660    0.58780    0.25250    1.000
    N23      N        0.27360    0.62801    0.63800    1.000
    N24      N        0.27660    0.58564    0.67311    1.000
    C133     C        0.26840    0.67410    0.66700    1.000
    H67      H        0.26510    0.70910    0.65230    1.000
    C134     C        0.27340    0.60590    0.72400    1.000
    H68      H        0.27420    0.58510    0.75590    1.000
    C135     C        0.28790    0.58260    0.38960    1.000
    C136     C        0.26860    0.66190    0.72210    1.000
    H69      H        0.26610    0.68620    0.75130    1.000
    C137     C        0.22390    0.53850    0.25510    1.000
    C138     C        0.41200    0.60170    0.29810    1.000
    C139     C        0.35650    0.58740    0.31900    1.000
    C140     C        0.26540    0.55650    0.29710    1.000
    C141     C        0.27040    0.58830    0.44850    1.000
    C142     C        0.34150    0.59480    0.37280    1.000
    H70      H        0.36680    0.60790    0.39810    1.000
    C143     C        0.25020    0.56400    0.35090    1.000
    H71      H        0.21440    0.55660    0.36160    1.000
    C144     C        0.31880    0.56770    0.28090    1.000
    H72      H        0.32940    0.56190    0.24480    1.000
    Cu25     Cu       0.94088    0.78408    0.61457    1.000
    Cu26     Cu       0.85151    0.79743    0.51311    1.000
    O85      O        0.16982    0.94331    0.62898    1.000
    O86      O        0.92097    0.81371    0.54521    1.000
    O87      O        0.01764    0.80595    0.60710    1.000
    O88      O        0.28928    0.74245    0.51985    1.000
    O89      O        0.23258    0.67447    0.54344    1.000
    O90      O        0.03857    0.72360    0.57360    1.000
    O91      O        0.24750    0.92660    0.58780    1.000
    N25      N        0.86200    0.77360    0.62801    1.000
    N26      N        0.82689    0.77660    0.58564    1.000
    C145     C        0.83300    0.76840    0.67410    1.000
    H73      H        0.84770    0.76510    0.70910    1.000
    C146     C        0.77600    0.77340    0.60590    1.000
    H74      H        0.74410    0.77420    0.58510    1.000
    C147     C        0.11040    0.78790    0.58260    1.000
    C148     C        0.77790    0.76860    0.66190    1.000
    H75      H        0.74870    0.76610    0.68620    1.000
    C149     C        0.24490    0.72390    0.53850    1.000
    C150     C        0.20190    0.91200    0.60170    1.000
    C151     C        0.18100    0.85650    0.58740    1.000
    C152     C        0.20290    0.76540    0.55650    1.000
    C153     C        0.05150    0.77040    0.58830    1.000
    C154     C        0.12720    0.84150    0.59480    1.000
    H76      H        0.10190    0.86680    0.60790    1.000
    C155     C        0.14910    0.75020    0.56400    1.000
    H77      H        0.13840    0.71440    0.55660    1.000
    C156     C        0.21910    0.81880    0.56770    1.000
    H78      H        0.25520    0.82940    0.56190    1.000
    Cu27     Cu       0.55912    0.21592    0.11457    1.000
    Cu28     Cu       0.64849    0.20257    0.01311    1.000
    O92      O        0.33018    0.05669    0.12898    1.000
    O93      O        0.57903    0.18629    0.04521    1.000
    O94      O        0.48236    0.19405    0.10710    1.000
    O95      O        0.21072    0.25755    0.01985    1.000
    O96      O        0.26742    0.32553    0.04344    1.000
    O97      O        0.46143    0.27640    0.07360    1.000
    O98      O        0.25250    0.07340    0.08780    1.000
    N27      N        0.63800    0.22640    0.12801    1.000
    N28      N        0.67311    0.22340    0.08564    1.000
    C157     C        0.66700    0.23160    0.17410    1.000
    H79      H        0.65230    0.23490    0.20910    1.000
    C158     C        0.72400    0.22660    0.10590    1.000
    H80      H        0.75590    0.22580    0.08510    1.000
    C159     C        0.38960    0.21210    0.08260    1.000
    C160     C        0.72210    0.23140    0.16190    1.000
    H81      H        0.75130    0.23390    0.18620    1.000
    C161     C        0.25510    0.27610    0.03850    1.000
    C162     C        0.29810    0.08800    0.10170    1.000
    C163     C        0.31900    0.14350    0.08740    1.000
    C164     C        0.29710    0.23460    0.05650    1.000
    C165     C        0.44850    0.22960    0.08830    1.000
    C166     C        0.37280    0.15850    0.09480    1.000
    H82      H        0.39810    0.13320    0.10790    1.000
    C167     C        0.35090    0.24980    0.06400    1.000
    H83      H        0.36160    0.28560    0.05660    1.000
    C168     C        0.28090    0.18120    0.06770    1.000
    H84      H        0.24480    0.17060    0.06190    1.000
    Cu29     Cu       0.05912    0.28408    0.88543    1.000
    Cu30     Cu       0.14849    0.29743    0.98689    1.000
    O99      O        0.83018    0.44331    0.87102    1.000
    O100     O        0.07903    0.31371    0.95479    1.000
    O101     O        0.98236    0.30595    0.89290    1.000
    O102     O        0.71072    0.24245    0.98015    1.000
    O103     O        0.76742    0.17447    0.95656    1.000
    O104     O        0.96143    0.22360    0.92640    1.000
    O105     O        0.75250    0.42660    0.91220    1.000
    N29      N        0.13800    0.27360    0.87199    1.000
    N30      N        0.17311    0.27660    0.91436    1.000
    C169     C        0.16700    0.26840    0.82590    1.000
    H85      H        0.15230    0.26510    0.79090    1.000
    C170     C        0.22400    0.27340    0.89410    1.000
    H86      H        0.25590    0.27420    0.91490    1.000
    C171     C        0.88960    0.28790    0.91740    1.000
    C172     C        0.22210    0.26860    0.83810    1.000
    H87      H        0.25130    0.26610    0.81380    1.000
    C173     C        0.75510    0.22390    0.96150    1.000
    C174     C        0.79810    0.41200    0.89830    1.000
    C175     C        0.81900    0.35650    0.91260    1.000
    C176     C        0.79710    0.26540    0.94350    1.000
    C177     C        0.94850    0.27040    0.91170    1.000
    C178     C        0.87280    0.34150    0.90520    1.000
    H88      H        0.89810    0.36680    0.89210    1.000
    C179     C        0.85090    0.25020    0.93600    1.000
    H89      H        0.86160    0.21440    0.94340    1.000
    C180     C        0.78090    0.31880    0.93230    1.000
    H90      H        0.74480    0.32940    0.93810    1.000
    Cu31     Cu       0.44088    0.71592    0.38543    1.000
    Cu32     Cu       0.35151    0.70257    0.48689    1.000
    O106     O        0.66982    0.55669    0.37102    1.000
    O107     O        0.42097    0.68629    0.45479    1.000
    O108     O        0.51764    0.69405    0.39290    1.000
    O109     O        0.78928    0.75755    0.48015    1.000
    O110     O        0.73258    0.82553    0.45656    1.000
    O111     O        0.53857    0.77640    0.42640    1.000
    O112     O        0.74750    0.57340    0.41220    1.000
    N31      N        0.36200    0.72640    0.37199    1.000
    N32      N        0.32689    0.72340    0.41436    1.000
    C181     C        0.33300    0.73160    0.32590    1.000
    H91      H        0.34770    0.73490    0.29090    1.000
    C182     C        0.27600    0.72660    0.39410    1.000
    H92      H        0.24410    0.72580    0.41490    1.000
    C183     C        0.61040    0.71210    0.41740    1.000
    C184     C        0.27790    0.73140    0.33810    1.000
    H93      H        0.24870    0.73390    0.31380    1.000
    C185     C        0.74490    0.77610    0.46150    1.000
    C186     C        0.70190    0.58800    0.39830    1.000
    C187     C        0.68100    0.64350    0.41260    1.000
    C188     C        0.70290    0.73460    0.44350    1.000
    C189     C        0.55150    0.72960    0.41170    1.000
    C190     C        0.62720    0.65850    0.40520    1.000
    H94      H        0.60190    0.63320    0.39210    1.000
    C191     C        0.64910    0.74980    0.43600    1.000
    H95      H        0.63840    0.78560    0.44340    1.000
    C192     C        0.71910    0.68120    0.43230    1.000
    H96      H        0.75520    0.67060    0.43810    1.000
    Cu33     Cu       0.61457    0.94088    0.78408    1.000
    Cu34     Cu       0.51311    0.85151    0.79743    1.000
    O113     O        0.62898    0.16982    0.94331    1.000
    O114     O        0.54521    0.92097    0.81371    1.000
    O115     O        0.60710    0.01764    0.80595    1.000
    O116     O        0.51985    0.28928    0.74245    1.000
    O117     O        0.54344    0.23258    0.67447    1.000
    O118     O        0.57360    0.03857    0.72360    1.000
    O119     O        0.58780    0.24750    0.92660    1.000
    N33      N        0.62801    0.86200    0.77360    1.000
    N34      N        0.58564    0.82689    0.77660    1.000
    C193     C        0.67410    0.83300    0.76840    1.000
    H97      H        0.70910    0.84770    0.76510    1.000
    C194     C        0.60590    0.77600    0.77340    1.000
    H98      H        0.58510    0.74410    0.77420    1.000
    C195     C        0.58260    0.11040    0.78790    1.000
    C196     C        0.66190    0.77790    0.76860    1.000
    H99      H        0.68620    0.74870    0.76610    1.000
    C197     C        0.53850    0.24490    0.72390    1.000
    C198     C        0.60170    0.20190    0.91200    1.000
    C199     C        0.58740    0.18100    0.85650    1.000
    C200     C        0.55650    0.20290    0.76540    1.000
    C201     C        0.58830    0.05150    0.77040    1.000
    C202     C        0.59480    0.12720    0.84150    1.000
    H100     H        0.60790    0.10190    0.86680    1.000
    C203     C        0.56400    0.14910    0.75020    1.000
    H101     H        0.55660    0.13840    0.71440    1.000
    C204     C        0.56770    0.21910    0.81880    1.000
    H102     H        0.56190    0.25520    0.82940    1.000
    Cu35     Cu       0.11457    0.55912    0.21592    1.000
    Cu36     Cu       0.01311    0.64849    0.20257    1.000
    O120     O        0.12898    0.33018    0.05669    1.000
    O121     O        0.04521    0.57903    0.18629    1.000
    O122     O        0.10710    0.48236    0.19405    1.000
    O123     O        0.01985    0.21072    0.25755    1.000
    O124     O        0.04344    0.26742    0.32553    1.000
    O125     O        0.07360    0.46143    0.27640    1.000
    O126     O        0.08780    0.25250    0.07340    1.000
    N35      N        0.12801    0.63800    0.22640    1.000
    N36      N        0.08564    0.67311    0.22340    1.000
    C205     C        0.17410    0.66700    0.23160    1.000
    H103     H        0.20910    0.65230    0.23490    1.000
    C206     C        0.10590    0.72400    0.22660    1.000
    H104     H        0.08510    0.75590    0.22580    1.000
    C207     C        0.08260    0.38960    0.21210    1.000
    C208     C        0.16190    0.72210    0.23140    1.000
    H105     H        0.18620    0.75130    0.23390    1.000
    C209     C        0.03850    0.25510    0.27610    1.000
    C210     C        0.10170    0.29810    0.08800    1.000
    C211     C        0.08740    0.31900    0.14350    1.000
    C212     C        0.05650    0.29710    0.23460    1.000
    C213     C        0.08830    0.44850    0.22960    1.000
    C214     C        0.09480    0.37280    0.15850    1.000
    H106     H        0.10790    0.39810    0.13320    1.000
    C215     C        0.06400    0.35090    0.24980    1.000
    H107     H        0.05660    0.36160    0.28560    1.000
    C216     C        0.06770    0.28090    0.18120    1.000
    H108     H        0.06190    0.24480    0.17060    1.000
    Cu37     Cu       0.88543    0.05912    0.28408    1.000
    Cu38     Cu       0.98689    0.14849    0.29743    1.000
    O127     O        0.87102    0.83018    0.44331    1.000
    O128     O        0.95479    0.07903    0.31371    1.000
    O129     O        0.89290    0.98236    0.30595    1.000
    O130     O        0.98015    0.71072    0.24245    1.000
    O131     O        0.95656    0.76742    0.17447    1.000
    O132     O        0.92640    0.96143    0.22360    1.000
    O133     O        0.91220    0.75250    0.42660    1.000
    N37      N        0.87199    0.13800    0.27360    1.000
    N38      N        0.91436    0.17311    0.27660    1.000
    C217     C        0.82590    0.16700    0.26840    1.000
    H109     H        0.79090    0.15230    0.26510    1.000
    C218     C        0.89410    0.22400    0.27340    1.000
    H110     H        0.91490    0.25590    0.27420    1.000
    C219     C        0.91740    0.88960    0.28790    1.000
    C220     C        0.83810    0.22210    0.26860    1.000
    H111     H        0.81380    0.25130    0.26610    1.000
    C221     C        0.96150    0.75510    0.22390    1.000
    C222     C        0.89830    0.79810    0.41200    1.000
    C223     C        0.91260    0.81900    0.35650    1.000
    C224     C        0.94350    0.79710    0.26540    1.000
    C225     C        0.91170    0.94850    0.27040    1.000
    C226     C        0.90520    0.87280    0.34150    1.000
    H112     H        0.89210    0.89810    0.36680    1.000
    C227     C        0.93600    0.85090    0.25020    1.000
    H113     H        0.94340    0.86160    0.21440    1.000
    C228     C        0.93230    0.78090    0.31880    1.000
    H114     H        0.93810    0.74480    0.32940    1.000
    Cu39     Cu       0.38543    0.44088    0.71592    1.000
    Cu40     Cu       0.48689    0.35151    0.70257    1.000
    O134     O        0.37102    0.66982    0.55669    1.000
    O135     O        0.45479    0.42097    0.68629    1.000
    O136     O        0.39290    0.51764    0.69405    1.000
    O137     O        0.48015    0.78928    0.75755    1.000
    O138     O        0.45656    0.73258    0.82553    1.000
    O139     O        0.42640    0.53857    0.77640    1.000
    O140     O        0.41220    0.74750    0.57340    1.000
    N39      N        0.37199    0.36200    0.72640    1.000
    N40      N        0.41436    0.32689    0.72340    1.000
    C229     C        0.32590    0.33300    0.73160    1.000
    H115     H        0.29090    0.34770    0.73490    1.000
    C230     C        0.39410    0.27600    0.72660    1.000
    H116     H        0.41490    0.24410    0.72580    1.000
    C231     C        0.41740    0.61040    0.71210    1.000
    C232     C        0.33810    0.27790    0.73140    1.000
    H117     H        0.31380    0.24870    0.73390    1.000
    C233     C        0.46150    0.74490    0.77610    1.000
    C234     C        0.39830    0.70190    0.58800    1.000
    C235     C        0.41260    0.68100    0.64350    1.000
    C236     C        0.44350    0.70290    0.73460    1.000
    C237     C        0.41170    0.55150    0.72960    1.000
    C238     C        0.40520    0.62720    0.65850    1.000
    H118     H        0.39210    0.60190    0.63320    1.000
    C239     C        0.43600    0.64910    0.74980    1.000
    H119     H        0.44340    0.63840    0.78560    1.000
    C240     C        0.43230    0.71910    0.68120    1.000
    H120     H        0.43810    0.75520    0.67060    1.000
    Cu41     Cu       0.78408    0.61457    0.94088    1.000
    Cu42     Cu       0.79743    0.51311    0.85151    1.000
    O141     O        0.94331    0.62898    0.16982    1.000
    O142     O        0.81371    0.54521    0.92097    1.000
    O143     O        0.80595    0.60710    0.01764    1.000
    O144     O        0.74245    0.51985    0.28928    1.000
    O145     O        0.67447    0.54344    0.23258    1.000
    O146     O        0.72360    0.57360    0.03857    1.000
    O147     O        0.92660    0.58780    0.24750    1.000
    N41      N        0.77360    0.62801    0.86200    1.000
    N42      N        0.77660    0.58564    0.82689    1.000
    C241     C        0.76840    0.67410    0.83300    1.000
    H121     H        0.76510    0.70910    0.84770    1.000
    C242     C        0.77340    0.60590    0.77600    1.000
    H122     H        0.77420    0.58510    0.74410    1.000
    C243     C        0.78790    0.58260    0.11040    1.000
    C244     C        0.76860    0.66190    0.77790    1.000
    H123     H        0.76610    0.68620    0.74870    1.000
    C245     C        0.72390    0.53850    0.24490    1.000
    C246     C        0.91200    0.60170    0.20190    1.000
    C247     C        0.85650    0.58740    0.18100    1.000
    C248     C        0.76540    0.55650    0.20290    1.000
    C249     C        0.77040    0.58830    0.05150    1.000
    C250     C        0.84150    0.59480    0.12720    1.000
    H124     H        0.86680    0.60790    0.10190    1.000
    C251     C        0.75020    0.56400    0.14910    1.000
    H125     H        0.71440    0.55660    0.13840    1.000
    C252     C        0.81880    0.56770    0.21910    1.000
    H126     H        0.82940    0.56190    0.25520    1.000
    Cu43     Cu       0.21592    0.11457    0.55912    1.000
    Cu44     Cu       0.20257    0.01311    0.64849    1.000
    O148     O        0.05669    0.12898    0.33018    1.000
    O149     O        0.18629    0.04521    0.57903    1.000
    O150     O        0.19405    0.10710    0.48236    1.000
    O151     O        0.25755    0.01985    0.21072    1.000
    O152     O        0.32553    0.04344    0.26742    1.000
    O153     O        0.27640    0.07360    0.46143    1.000
    O154     O        0.07340    0.08780    0.25250    1.000
    N43      N        0.22640    0.12801    0.63800    1.000
    N44      N        0.22340    0.08564    0.67311    1.000
    C253     C        0.23160    0.17410    0.66700    1.000
    H127     H        0.23490    0.20910    0.65230    1.000
    C254     C        0.22660    0.10590    0.72400    1.000
    H128     H        0.22580    0.08510    0.75590    1.000
    C255     C        0.21210    0.08260    0.38960    1.000
    C256     C        0.23140    0.16190    0.72210    1.000
    H129     H        0.23390    0.18620    0.75130    1.000
    C257     C        0.27610    0.03850    0.25510    1.000
    C258     C        0.08800    0.10170    0.29810    1.000
    C259     C        0.14350    0.08740    0.31900    1.000
    C260     C        0.23460    0.05650    0.29710    1.000
    C261     C        0.22960    0.08830    0.44850    1.000
    C262     C        0.15850    0.09480    0.37280    1.000
    H130     H        0.13320    0.10790    0.39810    1.000
    C263     C        0.24980    0.06400    0.35090    1.000
    H131     H        0.28560    0.05660    0.36160    1.000
    C264     C        0.18120    0.06770    0.28090    1.000
    H132     H        0.17060    0.06190    0.24480    1.000
    Cu45     Cu       0.28408    0.88543    0.05912    1.000
    Cu46     Cu       0.29743    0.98689    0.14849    1.000
    O155     O        0.44331    0.87102    0.83018    1.000
    O156     O        0.31371    0.95479    0.07903    1.000
    O157     O        0.30595    0.89290    0.98236    1.000
    O158     O        0.24245    0.98015    0.71072    1.000
    O159     O        0.17447    0.95656    0.76742    1.000
    O160     O        0.22360    0.92640    0.96143    1.000
    O161     O        0.42660    0.91220    0.75250    1.000
    N45      N        0.27360    0.87199    0.13800    1.000
    N46      N        0.27660    0.91436    0.17311    1.000
    C265     C        0.26840    0.82590    0.16700    1.000
    H133     H        0.26510    0.79090    0.15230    1.000
    C266     C        0.27340    0.89410    0.22400    1.000
    H134     H        0.27420    0.91490    0.25590    1.000
    C267     C        0.28790    0.91740    0.88960    1.000
    C268     C        0.26860    0.83810    0.22210    1.000
    H135     H        0.26610    0.81380    0.25130    1.000
    C269     C        0.22390    0.96150    0.75510    1.000
    C270     C        0.41200    0.89830    0.79810    1.000
    C271     C        0.35650    0.91260    0.81900    1.000
    C272     C        0.26540    0.94350    0.79710    1.000
    C273     C        0.27040    0.91170    0.94850    1.000
    C274     C        0.34150    0.90520    0.87280    1.000
    H136     H        0.36680    0.89210    0.89810    1.000
    C275     C        0.25020    0.93600    0.85090    1.000
    H137     H        0.21440    0.94340    0.86160    1.000
    C276     C        0.31880    0.93230    0.78090    1.000
    H138     H        0.32940    0.93810    0.74480    1.000
    Cu47     Cu       0.71592    0.38543    0.44088    1.000
    Cu48     Cu       0.70257    0.48689    0.35151    1.000
    O162     O        0.55669    0.37102    0.66982    1.000
    O163     O        0.68629    0.45479    0.42097    1.000
    O164     O        0.69405    0.39290    0.51764    1.000
    O165     O        0.75755    0.48015    0.78928    1.000
    O166     O        0.82553    0.45656    0.73258    1.000
    O167     O        0.77640    0.42640    0.53857    1.000
    O168     O        0.57340    0.41220    0.74750    1.000
    N47      N        0.72640    0.37199    0.36200    1.000
    N48      N        0.72340    0.41436    0.32689    1.000
    C277     C        0.73160    0.32590    0.33300    1.000
    H139     H        0.73490    0.29090    0.34770    1.000
    C278     C        0.72660    0.39410    0.27600    1.000
    H140     H        0.72580    0.41490    0.24410    1.000
    C279     C        0.71210    0.41740    0.61040    1.000
    C280     C        0.73140    0.33810    0.27790    1.000
    H141     H        0.73390    0.31380    0.24870    1.000
    C281     C        0.77610    0.46150    0.74490    1.000
    C282     C        0.58800    0.39830    0.70190    1.000
    C283     C        0.64350    0.41260    0.68100    1.000
    C284     C        0.73460    0.44350    0.70290    1.000
    C285     C        0.72960    0.41170    0.55150    1.000
    C286     C        0.65850    0.40520    0.62720    1.000
    H142     H        0.63320    0.39210    0.60190    1.000
    C287     C        0.74980    0.43600    0.64910    1.000
    H143     H        0.78560    0.44340    0.63840    1.000
    C288     C        0.68120    0.43230    0.71910    1.000
    H144     H        0.67060    0.43810    0.75520    1.000
