data_functionalizedCrystal
_audit_creation_method	'EQeq! by Chris Wilmer'
_symmetry_space_group_name_H-M	'P1'
_symmetry_Int_Tables_number	1
_symmetry_cell_setting	triclinic
loop_
_symmetry_equiv_pos_as_xyz
  x,y,z
_cell_length_a	7.6883
_cell_length_b	7.7875
_cell_length_c	12.8558
_cell_angle_alpha	90
_cell_angle_beta	90
_cell_angle_gamma	90
loop_
_atom_site_label
_atom_site_type_symbol
_atom_site_fract_x
_atom_site_fract_y
_atom_site_fract_z
_atom_site_charge
Mof_Mg	Mg	0.55363	0.49437	0.08445	1.481
Mof_C 	C 	0.4275	0.2234	0.23615	0.481
Mof_H 	H 	0.5334	0.1706	0.2219	-0.114
Mof_C 	C 	0.3028	0.7788	0.02788	0.544
Mof_H 	H 	0.376	0.7989	0.9716	-0.128
Mof_C 	C 	0.3101	0.276	0.96274	0.515
Mof_H 	H 	0.2352	0.2981	0.0179	-0.124
Mof_O 	O 	0.39602	0.36228	0.19084	-0.425
Mof_O 	O 	0.32831	0.14995	0.2988	-0.412
Mof_O 	O 	0.34694	0.66409	0.08794	-0.463
Mof_O 	O 	0.17129	0.87066	0.03392	-0.458
Mof_O 	O 	0.45163	0.35039	0.96352	-0.445
Mof_O 	O 	0.25786	0.17326	0.89438	-0.446
Mof_Mg	Mg	0.94637	0.50563	0.58445	1.48
Mof_C 	C 	0.0725	0.7766	0.73615	0.491
Mof_H 	H 	0.9666	0.8294	0.7219	-0.122
Mof_C 	C 	0.1972	0.2212	0.52788	0.552
Mof_H 	H 	0.124	0.2011	0.4716	-0.133
Mof_C 	C 	0.1899	0.724	0.46274	0.521
Mof_H 	H 	0.2648	0.7019	0.5179	-0.128
Mof_O 	O 	0.10398	0.63772	0.69084	-0.428
Mof_O 	O 	0.17169	0.85005	0.7988	-0.414
Mof_O 	O 	0.15306	0.33591	0.58794	-0.465
Mof_O 	O 	0.32871	0.12934	0.53392	-0.461
Mof_O 	O 	0.04837	0.64961	0.46352	-0.445
Mof_O 	O 	0.24214	0.82674	0.39438	-0.445
Mof_Mg	Mg	0.44637	0.99437	0.41555	1.48
Mof_C 	C 	0.5725	0.7234	0.26385	0.481
Mof_H 	H 	0.4666	0.6706	0.2781	-0.115
Mof_C 	C 	0.6972	0.2788	0.47212	0.553
Mof_H 	H 	0.624	0.2989	0.5284	-0.133
Mof_C 	C 	0.6899	0.776	0.53726	0.521
Mof_H 	H 	0.7648	0.7981	0.4821	-0.13
Mof_O 	O 	0.60398	0.86228	0.30916	-0.429
Mof_O 	O 	0.67169	0.64995	0.2012	-0.415
Mof_O 	O 	0.65306	0.16409	0.41206	-0.464
Mof_O 	O 	0.82871	0.37066	0.46608	-0.462
Mof_O 	O 	0.54837	0.85039	0.53648	-0.448
Mof_O 	O 	0.74214	0.67326	0.60562	-0.447
Mof_Mg	Mg	0.05363	0.00563	0.91555	1.48
Mof_C 	C 	0.9275	0.2766	0.76385	0.483
Mof_H 	H 	0.0334	0.3294	0.7781	-0.117
Mof_C 	C 	0.8028	0.7212	0.97212	0.568
Mof_H 	H 	0.876	0.7011	0.0284	-0.144
Mof_C 	C 	0.8101	0.224	0.03726	0.52
Mof_H 	H 	0.7352	0.2019	0.9821	-0.127
Mof_O 	O 	0.89602	0.13772	0.80916	-0.424
Mof_O 	O 	0.82831	0.35005	0.7012	-0.414
Mof_O 	O 	0.84694	0.83591	0.91206	-0.47
Mof_O 	O 	0.67129	0.62934	0.96608	-0.465
Mof_O 	O 	0.95163	0.14961	0.03648	-0.445
Mof_O 	O 	0.75786	0.32674	0.10562	-0.446
_end
