# CIF file generated by openbabel 3.1.0, see https://openbabel.org
data_I
_chemical_name_common 'SAQQIL_clean'
_cell_length_a 15.204
_cell_length_b 15.204
_cell_length_c 18.5354
_cell_angle_alpha 76.2724
_cell_angle_beta 76.2724
_cell_angle_gamma 68.3932
_space_group_name_H-M_alt 'P 1'
_space_group_name_Hall 'P 1'
loop_
    _symmetry_equiv_pos_as_xyz
    x,y,z
loop_
    _atom_site_label
    _atom_site_type_symbol
    _atom_site_fract_x
    _atom_site_fract_y
    _atom_site_fract_z
    _atom_site_occupancy
    Er1      Er       0.04343    0.96215    0.10455    1.000
    Er2      Er       0.03785    0.95657    0.39545    1.000
    Er3      Er       0.95657    0.03785    0.89545    1.000
    Er4      Er       0.96215    0.04343    0.60455    1.000
    H1       H        0.07750    0.65430    0.09330    1.000
    H2       H        0.06860    0.50700    0.09130    1.000
    H3       H        0.95330    0.61710    0.90410    1.000
    H4       H        0.97360    0.76080    0.90220    1.000
    H5       H        0.29290    0.97010    0.00500    1.000
    H6       H        0.45410    0.95610    0.97240    1.000
    H7       H        0.44060    0.97880    0.75720    1.000
    H8       H        0.28260    0.98740    0.78890    1.000
    H9       H        0.76590    0.89210    0.90640    1.000
    H10      H        0.61300    0.88440    0.93620    1.000
    H11      H        0.55500    0.04520    0.73530    1.000
    H12      H        0.71100    0.04860    0.70530    1.000
    H13      H        0.34570    0.92250    0.40670    1.000
    H14      H        0.49300    0.93140    0.40870    1.000
    H15      H        0.38290    0.04670    0.59590    1.000
    H16      H        0.23920    0.02640    0.59780    1.000
    H17      H        0.02990    0.70710    0.49500    1.000
    H18      H        0.04390    0.54590    0.52760    1.000
    H19      H        0.02120    0.55940    0.74280    1.000
    H20      H        0.01260    0.71740    0.71110    1.000
    H21      H        0.10790    0.23410    0.59360    1.000
    H22      H        0.11560    0.38700    0.56380    1.000
    H23      H        0.95480    0.44500    0.76470    1.000
    H24      H        0.95140    0.28900    0.79470    1.000
    H25      H        0.92250    0.34570    0.90670    1.000
    H26      H        0.93140    0.49300    0.90870    1.000
    H27      H        0.04670    0.38290    0.09590    1.000
    H28      H        0.02640    0.23920    0.09780    1.000
    H29      H        0.70710    0.02990    0.99500    1.000
    H30      H        0.54590    0.04390    0.02760    1.000
    H31      H        0.55940    0.02120    0.24280    1.000
    H32      H        0.71740    0.01260    0.21110    1.000
    H33      H        0.23410    0.10790    0.09360    1.000
    H34      H        0.38700    0.11560    0.06380    1.000
    H35      H        0.44500    0.95480    0.26470    1.000
    H36      H        0.28900    0.95140    0.29470    1.000
    H37      H        0.65430    0.07750    0.59330    1.000
    H38      H        0.50700    0.06860    0.59130    1.000
    H39      H        0.61710    0.95330    0.40410    1.000
    H40      H        0.76080    0.97360    0.40220    1.000
    H41      H        0.97010    0.29290    0.50500    1.000
    H42      H        0.95610    0.45410    0.47240    1.000
    H43      H        0.97880    0.44060    0.25720    1.000
    H44      H        0.98740    0.28260    0.28890    1.000
    H45      H        0.89210    0.76590    0.40640    1.000
    H46      H        0.88440    0.61300    0.43620    1.000
    H47      H        0.04520    0.55500    0.23530    1.000
    H48      H        0.04860    0.71100    0.20530    1.000
    C1       C        0.03100    0.82000    0.99970    1.000
    C2       C        0.02500    0.72400    0.99880    1.000
    C3       C        0.05310    0.64710    0.05440    1.000
    C4       C        0.04610    0.55850    0.05410    1.000
    C5       C        0.00600    0.54620    0.99930    1.000
    C6       C        0.97910    0.62350    0.94250    1.000
    C7       C        0.99020    0.71080    0.94190    1.000
    C8       C        0.16700    0.99200    0.92080    1.000
    C9       C        0.27030    0.98170    0.90030    1.000
    C10      C        0.32220    0.97180    0.95480    1.000
    C11      C        0.41940    0.96440    0.93480    1.000
    C12      C        0.46470    0.96910    0.86030    1.000
    C13      C        0.41160    0.97720    0.80750    1.000
    C14      C        0.31620    0.98280    0.82630    1.000
    C15      C        0.85140    0.98340    0.78510    1.000
    C16      C        0.75370    0.97410    0.80320    1.000
    C17      C        0.72360    0.92320    0.87230    1.000
    C18      C        0.63150    0.91910    0.89020    1.000
    C19      C        0.56630    0.96550    0.84100    1.000
    C20      C        0.59680    0.01480    0.76990    1.000
    C21      C        0.69060    0.01720    0.75230    1.000
    C22      C        0.18000    0.96900    0.50030    1.000
    C23      C        0.27600    0.97500    0.50120    1.000
    C24      C        0.35290    0.94690    0.44560    1.000
    C25      C        0.44150    0.95390    0.44590    1.000
    C26      C        0.45380    0.99400    0.50070    1.000
    C27      C        0.37650    0.02090    0.55750    1.000
    C28      C        0.28920    0.00980    0.55810    1.000
    C29      C        0.00800    0.83300    0.57920    1.000
    C30      C        0.01830    0.72970    0.59970    1.000
    C31      C        0.02820    0.67780    0.54520    1.000
    C32      C        0.03560    0.58060    0.56520    1.000
    C33      C        0.03090    0.53530    0.63970    1.000
    C34      C        0.02280    0.58840    0.69250    1.000
    C35      C        0.01720    0.68380    0.67370    1.000
    C36      C        0.01660    0.14860    0.71490    1.000
    C37      C        0.02590    0.24630    0.69680    1.000
    C38      C        0.07680    0.27640    0.62770    1.000
    C39      C        0.08090    0.36850    0.60980    1.000
    C40      C        0.03450    0.43370    0.65900    1.000
    C41      C        0.98520    0.40320    0.73010    1.000
    C42      C        0.98280    0.30940    0.74770    1.000
    C43      C        0.96900    0.18000    0.00030    1.000
    C44      C        0.97500    0.27600    0.00120    1.000
    C45      C        0.94690    0.35290    0.94560    1.000
    C46      C        0.95390    0.44150    0.94590    1.000
    C47      C        0.99400    0.45380    0.00070    1.000
    C48      C        0.02090    0.37650    0.05750    1.000
    C49      C        0.00980    0.28920    0.05810    1.000
    C50      C        0.83300    0.00800    0.07920    1.000
    C51      C        0.72970    0.01830    0.09970    1.000
    C52      C        0.67780    0.02820    0.04520    1.000
    C53      C        0.58060    0.03560    0.06520    1.000
    C54      C        0.53530    0.03090    0.13970    1.000
    C55      C        0.58840    0.02280    0.19250    1.000
    C56      C        0.68380    0.01720    0.17370    1.000
    C57      C        0.14860    0.01660    0.21490    1.000
    C58      C        0.24630    0.02590    0.19680    1.000
    C59      C        0.27640    0.07680    0.12770    1.000
    C60      C        0.36850    0.08090    0.10980    1.000
    C61      C        0.43370    0.03450    0.15900    1.000
    C62      C        0.40320    0.98520    0.23010    1.000
    C63      C        0.30940    0.98280    0.24770    1.000
    C64      C        0.82000    0.03100    0.49970    1.000
    C65      C        0.72400    0.02500    0.49880    1.000
    C66      C        0.64710    0.05310    0.55440    1.000
    C67      C        0.55850    0.04610    0.55410    1.000
    C68      C        0.54620    0.00600    0.49930    1.000
    C69      C        0.62350    0.97910    0.44250    1.000
    C70      C        0.71080    0.99020    0.44190    1.000
    C71      C        0.99200    0.16700    0.42080    1.000
    C72      C        0.98170    0.27030    0.40030    1.000
    C73      C        0.97180    0.32220    0.45480    1.000
    C74      C        0.96440    0.41940    0.43480    1.000
    C75      C        0.96910    0.46470    0.36030    1.000
    C76      C        0.97720    0.41160    0.30750    1.000
    C77      C        0.98280    0.31620    0.32630    1.000
    C78      C        0.98340    0.85140    0.28510    1.000
    C79      C        0.97410    0.75370    0.30320    1.000
    C80      C        0.92320    0.72360    0.37230    1.000
    C81      C        0.91910    0.63150    0.39020    1.000
    C82      C        0.96550    0.56630    0.34100    1.000
    C83      C        0.01480    0.59680    0.26990    1.000
    C84      C        0.01720    0.69060    0.25230    1.000
    O1       O        0.04280    0.83360    0.06040    1.000
    O2       O        0.97590    0.12090    0.05960    1.000
    O3       O        0.12910    0.98710    0.98920    1.000
    O4       O        0.12140    0.00980    0.86860    1.000
    O5       O        0.90032    0.95792    0.83790    1.000
    O6       O        0.87850    0.01730    0.71900    1.000
    O7       O        0.16640    0.95720    0.43960    1.000
    O8       O        0.87910    0.02410    0.44040    1.000
    O9       O        0.01290    0.87090    0.51080    1.000
    O10      O        0.99020    0.87860    0.63140    1.000
    O11      O        0.04208    0.09968    0.66210    1.000
    O12      O        0.98270    0.12150    0.78100    1.000
    O13      O        0.95720    0.16640    0.93960    1.000
    O14      O        0.02410    0.87910    0.94040    1.000
    O15      O        0.87090    0.01290    0.01080    1.000
    O16      O        0.87860    0.99020    0.13140    1.000
    O17      O        0.09968    0.04208    0.16210    1.000
    O18      O        0.12150    0.98270    0.28100    1.000
    O19      O        0.83360    0.04280    0.56040    1.000
    O20      O        0.12090    0.97590    0.55960    1.000
    O21      O        0.98710    0.12910    0.48920    1.000
    O22      O        0.00980    0.12140    0.36860    1.000
    O23      O        0.95792    0.90032    0.33790    1.000
    O24      O        0.01730    0.87850    0.21900    1.000
