data_functionalizedCrystal
_audit_creation_method	'EQeq! by Chris Wilmer'
_symmetry_space_group_name_H-M	'P1'
_symmetry_Int_Tables_number	1
_symmetry_cell_setting	triclinic
loop_
_symmetry_equiv_pos_as_xyz
  x,y,z
_cell_length_a	19.4499
_cell_length_b	10.8839
_cell_length_c	27.7796
_cell_angle_alpha	90
_cell_angle_beta	104.467
_cell_angle_gamma	90
loop_
_atom_site_label
_atom_site_type_symbol
_atom_site_fract_x
_atom_site_fract_y
_atom_site_fract_z
_atom_site_charge
Mof_O 	O 	0.45826	0.4531	0.06063	-0.562
Mof_O 	O 	0.41617	0.63151	0.97766	-0.485
Mof_O 	O 	0.43049	0.622	0.45937	-0.432
Mof_C 	C 	0.4154	0.4793	0.08502	0.816
Mof_Co	Co	0.40132	0.72571	0.04219	1.189
Mof_C 	C 	0.40848	0.733	0.95382	0.373
Mof_C 	C 	0.4099	0.395	0.12655	-1.435
Mof_O 	O 	0.37535	0.5743	0.07676	-0.674
Mof_O 	O 	0.40209	0.8298	0.97679	-0.367
Mof_O 	O 	0.49513	0.7374	0.42085	-0.448
Mof_O 	O 	0.38488	0.1462	0.59029	-0.435
Mof_O 	O 	0.27973	0.2708	0.51378	-0.465
Mof_C 	C 	0.4033	0.7344	0.89977	-0.214
Mof_H 	H 	0.3619	0.3666	0.1213	0.474
Mof_H 	H 	0.4234	0.4385	0.1576	0.464
Mof_H 	H 	0.441	0.326	0.1274	0.474
Mof_Co	Co	0.27081	0.62442	0.08154	1.183
Mof_C 	C 	0.39228	0.6263	0.8722	0.175
Mof_C 	C 	0.40805	0.8448	0.87561	0.172
Mof_O 	O 	0.15996	0.6696	0.0774	-0.523
Mof_O 	O 	0.25729	0.4862	0.12523	-0.463
Mof_O 	O 	0.30269	0.2271	0.62445	-0.449
Mof_O 	O 	0.21639	0.4385	0.50721	-0.498
Mof_H 	H 	0.3899	0.5518	0.8881	-0.016
Mof_C 	C 	0.38487	0.6284	0.82172	-0.312
Mof_C 	C 	0.40187	0.8471	0.82499	-0.315
Mof_H 	H 	0.4154	0.9177	0.8937	-0.007
Mof_Co	Co	0.11185	0.53395	0.02687	1.165
Mof_C 	C 	0.12623	0.7611	0.09085	0.398
Mof_C 	C 	0.20236	0.4197	0.11794	0.408
Mof_H 	H 	0.3767	0.5558	0.8035	0.144
Mof_C 	C 	0.38953	0.7386	0.79793	0.313
Mof_H 	H 	0.406	0.921	0.8091	0.14
Mof_O 	O 	0.16114	0.3986	0.07616	-0.42
Mof_O 	O 	0.08019	0.4106	0.97006	-0.413
Mof_O 	O 	0.97217	0.4896	0.94002	-0.453
Mof_C 	C 	0.14516	0.7928	0.14494	-0.23
Mof_O 	O 	0.07937	0.8192	0.06174	-0.29
Mof_C 	C 	0.18444	0.3656	0.16271	-0.232
Mof_O 	O 	0.38429	0.7319	0.74776	-0.338
Mof_C 	C 	0.02433	0.4268	0.93576	0.416
Mof_C 	C 	0.11612	0.8953	0.16188	0.2
Mof_C 	C 	0.19001	0.7175	0.17921	0.205
Mof_C 	C 	0.12305	0.2961	0.1578	0.191
Mof_C 	C 	0.22455	0.3919	0.21002	0.199
Mof_C 	C 	0.3745	0.8386	0.71908	0.326
Mof_C 	C 	0.02095	0.3712	0.88618	-0.22
Mof_H 	H 	0.0854	0.9457	0.1392	-0.016
Mof_C 	C 	0.13209	0.9239	0.21198	-0.314
Mof_C 	C 	0.20583	0.7443	0.22939	-0.328
Mof_H 	H 	0.2096	0.6482	0.1683	-0.035
Mof_H 	H 	0.0959	0.276	0.1262	-0.013
Mof_C 	C 	0.10188	0.2565	0.19911	-0.314
Mof_C 	C 	0.20456	0.3527	0.25196	-0.331
Mof_H 	H 	0.2661	0.4372	0.2138	-0.025
Mof_C 	C 	0.42649	0.8675	0.69543	-0.334
Mof_C 	C 	0.3133	0.9081	0.71181	-0.324
Mof_C 	C 	0.97434	0.4198	0.84427	0.174
Mof_C 	C 	0.06123	0.2701	0.88125	0.198
Mof_H 	H 	0.113	0.9937	0.223	0.166
Mof_C 	C 	0.17668	0.8474	0.2452	0.337
Mof_H 	H 	0.2358	0.6933	0.2522	0.15
Mof_H 	H 	0.0605	0.2107	0.1954	0.161
Mof_C 	C 	0.1429	0.2855	0.24614	0.331
Mof_H 	H 	0.2323	0.3713	0.2835	0.152
Mof_H 	H 	0.4678	0.8209	0.7011	0.147
Mof_C 	C 	0.41695	0.9663	0.66315	0.19
Mof_H 	H 	0.2782	0.8876	0.7278	0.154
Mof_C 	C 	0.30497	0.0088	0.68045	0.193
Mof_H 	H 	0.9464	0.4872	0.8475	-0.018
Mof_C 	C 	0.96897	0.3688	0.79759	-0.33
Mof_C 	C 	0.05432	0.215	0.83565	-0.321
Mof_H 	H 	0.0935	0.2387	0.909	-0.012
Mof_O 	O 	0.18907	0.8784	0.295	-0.333
Mof_O 	O 	0.11829	0.2406	0.28489	-0.325
Mof_C 	C 	0.35639	0.0389	0.65606	-0.229
Mof_H 	H 	0.4512	0.9843	0.6461	-0.022
Mof_H 	H 	0.2642	0.0567	0.6758	-0.018
Mof_H 	H 	0.9395	0.4039	0.7694	0.151
Mof_C 	C 	0.00819	0.2651	0.7939	0.345
Mof_H 	H 	0.0803	0.1448	0.8329	0.174
Mof_C 	C 	0.25001	0.829	0.32668	0.346
Mof_C 	C 	0.15326	0.2727	0.33343	0.332
Mof_C 	C 	0.34705	0.1462	0.62091	0.428
Mof_C 	C 	0.24436	0.7383	0.35949	-0.339
Mof_C 	C 	0.3146	0.8736	0.32428	-0.347
Mof_C 	C 	0.1978	0.1892	0.36194	-0.32
Mof_C 	C 	0.138	0.3833	0.35291	-0.319
Mof_C 	C 	0.3059	0.6941	0.39168	0.212
Mof_H 	H 	0.2002	0.7068	0.3602	0.161
Mof_C 	C 	0.37532	0.8294	0.35641	0.22
Mof_H 	H 	0.3177	0.9337	0.3011	0.157
Mof_C 	C 	0.22733	0.215	0.41184	0.193
Mof_H 	H 	0.2084	0.1159	0.3481	0.164
Mof_C 	C 	0.1669	0.4082	0.40254	0.187
Mof_H 	H 	0.1085	0.4402	0.3328	0.151
Mof_C 	C 	0.37144	0.7411	0.39076	-0.249
Mof_H 	H 	0.3029	0.6321	0.4141	-0.022
Mof_H 	H 	0.4194	0.8598	0.3548	-0.03
Mof_C 	C 	0.21118	0.3241	0.43268	-0.238
Mof_H 	H 	0.2581	0.1589	0.4314	-0.012
Mof_H 	H 	0.1567	0.4823	0.4159	-0.026
Mof_C 	C 	0.43789	0.6955	0.42644	0.442
Mof_C 	C 	0.23751	0.3466	0.48695	0.387
Mof_O 	O 	0.54174	0.4531	0.43937	-0.559
Mof_O 	O 	0.58383	0.63151	0.52234	-0.496
Mof_O 	O 	0.56951	0.622	0.04063	-0.438
Mof_C 	C 	0.5846	0.4793	0.41498	0.818
Mof_Co	Co	0.59868	0.72571	0.45781	1.194
Mof_C 	C 	0.59152	0.733	0.54618	0.376
Mof_C 	C 	0.5901	0.395	0.37345	-1.436
Mof_O 	O 	0.62465	0.5743	0.42324	-0.672
Mof_O 	O 	0.59791	0.8298	0.52321	-0.377
Mof_O 	O 	0.50487	0.7374	0.07915	-0.451
Mof_O 	O 	0.61512	0.1462	0.90971	-0.433
Mof_O 	O 	0.72027	0.2708	0.98622	-0.438
Mof_C 	C 	0.5967	0.7344	0.60023	-0.218
Mof_H 	H 	0.6381	0.3666	0.3787	0.476
Mof_H 	H 	0.5766	0.4385	0.3424	0.464
Mof_H 	H 	0.559	0.326	0.3726	0.475
Mof_Co	Co	0.72919	0.62442	0.41846	1.183
Mof_C 	C 	0.60772	0.6263	0.6278	0.177
Mof_C 	C 	0.59195	0.8448	0.62439	0.175
Mof_O 	O 	0.84004	0.6696	0.4226	-0.522
Mof_O 	O 	0.74271	0.4862	0.37477	-0.462
Mof_O 	O 	0.69731	0.2271	0.87555	-0.449
Mof_O 	O 	0.78361	0.4385	0.99279	-0.471
Mof_H 	H 	0.6101	0.5518	0.6119	-0.017
Mof_C 	C 	0.61513	0.6284	0.67828	-0.314
Mof_C 	C 	0.59813	0.8471	0.67501	-0.317
Mof_H 	H 	0.5846	0.9177	0.6063	-0.01
Mof_Co	Co	0.88815	0.53395	0.47313	1.168
Mof_C 	C 	0.87377	0.7611	0.40915	0.398
Mof_C 	C 	0.79764	0.4197	0.38206	0.407
Mof_H 	H 	0.6233	0.5558	0.6965	0.144
Mof_C 	C 	0.61047	0.7386	0.70207	0.314
Mof_H 	H 	0.594	0.921	0.6909	0.14
Mof_O 	O 	0.83886	0.3986	0.42384	-0.417
Mof_O 	O 	0.91981	0.4106	0.52994	-0.421
Mof_O 	O 	0.02783	0.4896	0.55998	-0.434
Mof_C 	C 	0.85484	0.7928	0.35506	-0.232
Mof_O 	O 	0.92063	0.8192	0.43826	-0.294
Mof_C 	C 	0.81556	0.3656	0.33729	-0.23
Mof_O 	O 	0.61571	0.7319	0.75224	-0.339
Mof_C 	C 	0.97567	0.4268	0.56424	0.391
Mof_C 	C 	0.88388	0.8953	0.33812	0.199
Mof_C 	C 	0.80999	0.7175	0.32079	0.205
Mof_C 	C 	0.87695	0.2961	0.3422	0.188
Mof_C 	C 	0.77545	0.3919	0.28998	0.197
Mof_C 	C 	0.6255	0.8386	0.78092	0.325
Mof_C 	C 	0.97905	0.3712	0.61382	-0.236
Mof_H 	H 	0.9146	0.9457	0.3608	-0.019
Mof_C 	C 	0.86791	0.9239	0.28802	-0.317
Mof_C 	C 	0.79417	0.7443	0.27061	-0.329
Mof_H 	H 	0.7904	0.6482	0.3317	-0.035
Mof_H 	H 	0.9041	0.276	0.3738	-0.014
Mof_C 	C 	0.89812	0.2565	0.30089	-0.313
Mof_C 	C 	0.79544	0.3527	0.24804	-0.33
Mof_H 	H 	0.7339	0.4372	0.2862	-0.024
Mof_C 	C 	0.57351	0.8675	0.80457	-0.333
Mof_C 	C 	0.6867	0.9081	0.78819	-0.324
Mof_C 	C 	0.02566	0.4198	0.65573	0.189
Mof_C 	C 	0.93877	0.2701	0.61875	0.19
Mof_H 	H 	0.887	0.9937	0.277	0.164
Mof_C 	C 	0.82332	0.8474	0.2548	0.338
Mof_H 	H 	0.7642	0.6933	0.2478	0.15
Mof_H 	H 	0.9395	0.2107	0.3046	0.156
Mof_C 	C 	0.8571	0.2855	0.25386	0.329
Mof_H 	H 	0.7677	0.3713	0.2165	0.152
Mof_H 	H 	0.5322	0.8209	0.7989	0.147
Mof_C 	C 	0.58305	0.9663	0.83685	0.19
Mof_H 	H 	0.7218	0.8876	0.7722	0.154
Mof_C 	C 	0.69503	0.0088	0.81955	0.193
Mof_H 	H 	0.0536	0.4872	0.6525	-0.019
Mof_C 	C 	0.03103	0.3688	0.70241	-0.294
Mof_C 	C 	0.94568	0.215	0.66435	-0.308
Mof_H 	H 	0.9065	0.2387	0.591	-0.014
Mof_O 	O 	0.81093	0.8784	0.205	-0.335
Mof_O 	O 	0.88171	0.2406	0.21511	-0.326
Mof_C 	C 	0.64361	0.0389	0.84394	-0.228
Mof_H 	H 	0.5488	0.9843	0.8539	-0.021
Mof_H 	H 	0.7358	0.0567	0.8242	-0.017
Mof_H 	H 	0.0605	0.4039	0.7306	0.142
Mof_C 	C 	0.99181	0.2651	0.7061	0.303
Mof_H 	H 	0.9197	0.1448	0.6671	0.166
Mof_C 	C 	0.74999	0.829	0.17332	0.347
Mof_C 	C 	0.84674	0.2727	0.16657	0.322
Mof_C 	C 	0.65295	0.1462	0.87909	0.428
Mof_C 	C 	0.75564	0.7383	0.14051	-0.341
Mof_C 	C 	0.6854	0.8736	0.17572	-0.349
Mof_C 	C 	0.8022	0.1892	0.13806	-0.309
Mof_C 	C 	0.862	0.3833	0.14709	-0.308
Mof_C 	C 	0.6941	0.6941	0.10832	0.212
Mof_H 	H 	0.7998	0.7068	0.1398	0.161
Mof_C 	C 	0.62468	0.8294	0.14359	0.221
Mof_H 	H 	0.6823	0.9337	0.1989	0.157
Mof_C 	C 	0.77267	0.215	0.08816	0.177
Mof_H 	H 	0.7916	0.1159	0.1519	0.16
Mof_C 	C 	0.8331	0.4082	0.09746	0.168
Mof_H 	H 	0.8915	0.4402	0.1672	0.144
Mof_C 	C 	0.62856	0.7411	0.10924	-0.252
Mof_H 	H 	0.6971	0.6321	0.0859	-0.024
Mof_H 	H 	0.5806	0.8598	0.1452	-0.031
Mof_C 	C 	0.78882	0.3241	0.06732	-0.219
Mof_H 	H 	0.7419	0.1589	0.0686	-0.01
Mof_H 	H 	0.8433	0.4823	0.0841	-0.022
Mof_C 	C 	0.56211	0.6955	0.07356	0.442
Mof_C 	C 	0.76249	0.3466	0.01305	0.336
Mof_O 	O 	0.54174	0.5469	0.93937	-0.552
Mof_O 	O 	0.58383	0.36849	0.02234	-0.505
Mof_O 	O 	0.56951	0.378	0.54063	-0.432
Mof_C 	C 	0.5846	0.5207	0.91498	0.818
Mof_Co	Co	0.59868	0.27429	0.95781	1.199
Mof_C 	C 	0.59152	0.267	0.04618	0.378
Mof_C 	C 	0.5901	0.605	0.87345	-1.436
Mof_O 	O 	0.62465	0.4257	0.92324	-0.67
Mof_O 	O 	0.59791	0.1702	0.02321	-0.387
Mof_O 	O 	0.50487	0.2626	0.57915	-0.448
Mof_O 	O 	0.61512	0.8538	0.40971	-0.435
Mof_O 	O 	0.72027	0.7292	0.48622	-0.466
Mof_C 	C 	0.5967	0.2656	0.10023	-0.22
Mof_H 	H 	0.6381	0.6334	0.8787	0.477
Mof_H 	H 	0.5766	0.5615	0.8424	0.464
Mof_H 	H 	0.559	0.674	0.8726	0.476
Mof_Co	Co	0.72919	0.37558	0.91846	1.183
Mof_C 	C 	0.60772	0.3737	0.1278	0.179
Mof_C 	C 	0.59195	0.1552	0.12439	0.176
Mof_O 	O 	0.84004	0.3304	0.9226	-0.521
Mof_O 	O 	0.74271	0.5138	0.87477	-0.462
Mof_O 	O 	0.69731	0.7729	0.37555	-0.449
Mof_O 	O 	0.78361	0.5615	0.49279	-0.499
Mof_H 	H 	0.6101	0.4482	0.1119	-0.018
Mof_C 	C 	0.61513	0.3716	0.17828	-0.315
Mof_C 	C 	0.59813	0.1529	0.17501	-0.318
Mof_H 	H 	0.5846	0.0823	0.1063	-0.012
Mof_Co	Co	0.88815	0.46605	0.97313	1.173
Mof_C 	C 	0.87377	0.2389	0.90915	0.398
Mof_C 	C 	0.79764	0.5803	0.88206	0.406
Mof_H 	H 	0.6233	0.4442	0.1965	0.145
Mof_C 	C 	0.61047	0.2614	0.20207	0.316
Mof_H 	H 	0.594	0.079	0.1909	0.141
Mof_O 	O 	0.83886	0.6014	0.92384	-0.414
Mof_O 	O 	0.91981	0.5894	0.02994	-0.431
Mof_O 	O 	0.02783	0.5104	0.05998	-0.439
Mof_C 	C 	0.85484	0.2072	0.85506	-0.231
Mof_O 	O 	0.92063	0.1808	0.93826	-0.289
Mof_C 	C 	0.81556	0.6344	0.83729	-0.229
Mof_O 	O 	0.61571	0.2681	0.25224	-0.339
Mof_C 	C 	0.97567	0.5732	0.06424	0.393
Mof_C 	C 	0.88388	0.1047	0.83812	0.198
Mof_C 	C 	0.80999	0.2825	0.82079	0.204
Mof_C 	C 	0.87695	0.7039	0.8422	0.187
Mof_C 	C 	0.77545	0.6081	0.78998	0.197
Mof_C 	C 	0.6255	0.1614	0.28092	0.326
Mof_C 	C 	0.97905	0.6288	0.11382	-0.239
Mof_H 	H 	0.9146	0.0543	0.8608	-0.017
Mof_C 	C 	0.86791	0.0761	0.78802	-0.316
Mof_C 	C 	0.79417	0.2557	0.77061	-0.328
Mof_H 	H 	0.7904	0.3518	0.8317	-0.035
Mof_H 	H 	0.9041	0.724	0.8738	-0.012
Mof_C 	C 	0.89812	0.7435	0.80089	-0.312
Mof_C 	C 	0.79544	0.6473	0.74804	-0.33
Mof_H 	H 	0.7339	0.5628	0.7862	-0.024
Mof_C 	C 	0.57351	0.1325	0.30457	-0.334
Mof_C 	C 	0.6867	0.0919	0.28819	-0.325
Mof_C 	C 	0.02566	0.5802	0.15573	0.191
Mof_C 	C 	0.93877	0.7299	0.11875	0.193
Mof_H 	H 	0.887	0.0063	0.777	0.164
Mof_C 	C 	0.82332	0.1526	0.7548	0.337
Mof_H 	H 	0.7642	0.3067	0.7478	0.149
Mof_H 	H 	0.9395	0.7893	0.8046	0.156
Mof_C 	C 	0.8571	0.7145	0.75386	0.329
Mof_H 	H 	0.7677	0.6287	0.7165	0.152
Mof_H 	H 	0.5322	0.1791	0.2989	0.147
Mof_C 	C 	0.58305	0.0337	0.33685	0.19
Mof_H 	H 	0.7218	0.1124	0.2722	0.154
Mof_C 	C 	0.69503	0.9912	0.31955	0.194
Mof_H 	H 	0.0536	0.5128	0.1525	-0.02
Mof_C 	C 	0.03103	0.6312	0.20241	-0.296
Mof_C 	C 	0.94568	0.785	0.16435	-0.31
Mof_H 	H 	0.9065	0.7613	0.091	-0.017
Mof_O 	O 	0.81093	0.1216	0.705	-0.334
Mof_O 	O 	0.88171	0.7594	0.71511	-0.328
Mof_C 	C 	0.64361	0.9611	0.34394	-0.229
Mof_H 	H 	0.5488	0.0157	0.3539	-0.022
Mof_H 	H 	0.7358	0.9433	0.3242	-0.018
Mof_H 	H 	0.0605	0.5961	0.2306	0.143
Mof_C 	C 	0.99181	0.7349	0.2061	0.305
Mof_H 	H 	0.9197	0.8552	0.1671	0.166
Mof_C 	C 	0.74999	0.171	0.67332	0.346
Mof_C 	C 	0.84674	0.7273	0.66657	0.329
Mof_C 	C 	0.65295	0.8538	0.37909	0.428
Mof_C 	C 	0.75564	0.2617	0.64051	-0.339
Mof_C 	C 	0.6854	0.1264	0.67572	-0.347
Mof_C 	C 	0.8022	0.8108	0.63806	-0.319
Mof_C 	C 	0.862	0.6167	0.64709	-0.318
Mof_C 	C 	0.6941	0.3059	0.60832	0.211
Mof_H 	H 	0.7998	0.2932	0.6398	0.161
Mof_C 	C 	0.62468	0.1706	0.64359	0.22
Mof_H 	H 	0.6823	0.0663	0.6989	0.157
Mof_C 	C 	0.77267	0.785	0.58816	0.192
Mof_H 	H 	0.7916	0.8841	0.6519	0.164
Mof_C 	C 	0.8331	0.5918	0.59746	0.184
Mof_H 	H 	0.8915	0.5598	0.6672	0.147
Mof_C 	C 	0.62856	0.2589	0.60924	-0.249
Mof_H 	H 	0.6971	0.3679	0.5859	-0.022
Mof_H 	H 	0.5806	0.1402	0.6452	-0.03
Mof_C 	C 	0.78882	0.6759	0.56732	-0.237
Mof_H 	H 	0.7419	0.8411	0.5686	-0.012
Mof_H 	H 	0.8433	0.5177	0.5841	-0.025
Mof_C 	C 	0.56211	0.3045	0.57356	0.442
Mof_C 	C 	0.76249	0.6534	0.51305	0.387
Mof_O 	O 	0.45826	0.5469	0.56063	-0.559
Mof_O 	O 	0.41617	0.36849	0.47766	-0.496
Mof_O 	O 	0.43049	0.378	0.95937	-0.423
Mof_C 	C 	0.4154	0.5207	0.58502	0.818
Mof_Co	Co	0.40132	0.27429	0.54219	1.194
Mof_C 	C 	0.40848	0.267	0.45382	0.376
Mof_C 	C 	0.4099	0.605	0.62655	-1.436
Mof_O 	O 	0.37535	0.4257	0.57676	-0.672
Mof_O 	O 	0.40209	0.1702	0.47679	-0.377
Mof_O 	O 	0.49513	0.2626	0.92085	-0.444
Mof_O 	O 	0.38488	0.8538	0.09029	-0.437
Mof_O 	O 	0.27973	0.7292	0.01378	-0.492
Mof_C 	C 	0.4033	0.2656	0.39977	-0.218
Mof_H 	H 	0.3619	0.6334	0.6213	0.476
Mof_H 	H 	0.4234	0.5615	0.6576	0.464
Mof_H 	H 	0.441	0.674	0.6274	0.475
Mof_Co	Co	0.27081	0.37558	0.58154	1.183
Mof_C 	C 	0.39228	0.3737	0.3722	0.177
Mof_C 	C 	0.40805	0.1552	0.37561	0.175
Mof_O 	O 	0.15996	0.3304	0.5774	-0.521
Mof_O 	O 	0.25729	0.5138	0.62523	-0.462
Mof_O 	O 	0.30269	0.7729	0.12445	-0.45
Mof_O 	O 	0.21639	0.5615	0.00721	-0.525
Mof_H 	H 	0.3899	0.4482	0.3881	-0.017
Mof_C 	C 	0.38487	0.3716	0.32172	-0.314
Mof_C 	C 	0.40187	0.1529	0.32499	-0.317
Mof_H 	H 	0.4154	0.0823	0.3937	-0.01
Mof_Co	Co	0.11185	0.46605	0.52687	1.17
Mof_C 	C 	0.12623	0.2389	0.59085	0.398
Mof_C 	C 	0.20236	0.5803	0.61794	0.407
Mof_H 	H 	0.3767	0.4442	0.3035	0.145
Mof_C 	C 	0.38953	0.2614	0.29793	0.315
Mof_H 	H 	0.406	0.079	0.3091	0.14
Mof_O 	O 	0.16114	0.6014	0.57616	-0.416
Mof_O 	O 	0.08019	0.5894	0.47006	-0.424
Mof_O 	O 	0.97217	0.5104	0.44002	-0.458
Mof_C 	C 	0.14516	0.2072	0.64494	-0.229
Mof_O 	O 	0.07937	0.1808	0.56174	-0.285
Mof_C 	C 	0.18444	0.6344	0.66271	-0.231
Mof_O 	O 	0.38429	0.2681	0.24776	-0.339
Mof_C 	C 	0.02433	0.5732	0.43576	0.418
Mof_C 	C 	0.11612	0.1047	0.66188	0.199
Mof_C 	C 	0.19001	0.2825	0.67921	0.204
Mof_C 	C 	0.12305	0.7039	0.6578	0.19
Mof_C 	C 	0.22455	0.6081	0.71002	0.198
Mof_C 	C 	0.3745	0.1614	0.21908	0.326
Mof_C 	C 	0.02095	0.6288	0.38618	-0.223
Mof_H 	H 	0.0854	0.0543	0.6392	-0.014
Mof_C 	C 	0.13209	0.0761	0.71198	-0.313
Mof_C 	C 	0.20583	0.2557	0.72939	-0.327
Mof_H 	H 	0.2096	0.3518	0.6683	-0.035
Mof_H 	H 	0.0959	0.724	0.6262	-0.011
Mof_C 	C 	0.10188	0.7435	0.69911	-0.314
Mof_C 	C 	0.20456	0.6473	0.75196	-0.331
Mof_H 	H 	0.2661	0.5628	0.7138	-0.025
Mof_C 	C 	0.42649	0.1325	0.19543	-0.334
Mof_C 	C 	0.3133	0.0919	0.21181	-0.326
Mof_C 	C 	0.97434	0.5802	0.34427	0.177
Mof_C 	C 	0.06123	0.7299	0.38125	0.201
Mof_H 	H 	0.113	0.0063	0.723	0.166
Mof_C 	C 	0.17668	0.1526	0.7452	0.337
Mof_H 	H 	0.2358	0.3067	0.7522	0.149
Mof_H 	H 	0.0605	0.7893	0.6954	0.162
Mof_C 	C 	0.1429	0.7145	0.74614	0.332
Mof_H 	H 	0.2323	0.6287	0.7835	0.152
Mof_H 	H 	0.4678	0.1791	0.2011	0.147
Mof_C 	C 	0.41695	0.0337	0.16315	0.19
Mof_H 	H 	0.2782	0.1124	0.2278	0.154
Mof_C 	C 	0.30497	0.9912	0.18045	0.194
Mof_H 	H 	0.9464	0.5128	0.3475	-0.019
Mof_C 	C 	0.96897	0.6312	0.29759	-0.332
Mof_C 	C 	0.05432	0.785	0.33565	-0.324
Mof_H 	H 	0.0935	0.7613	0.409	-0.015
Mof_O 	O 	0.18907	0.1216	0.795	-0.333
Mof_O 	O 	0.11829	0.7594	0.78489	-0.326
Mof_C 	C 	0.35639	0.9611	0.15606	-0.23
Mof_H 	H 	0.4512	0.0157	0.1461	-0.022
Mof_H 	H 	0.2642	0.9433	0.1758	-0.019
Mof_H 	H 	0.9395	0.5961	0.2694	0.151
Mof_C 	C 	0.00819	0.7349	0.2939	0.347
Mof_H 	H 	0.0803	0.8552	0.3329	0.174
Mof_C 	C 	0.25001	0.171	0.82668	0.345
Mof_C 	C 	0.15326	0.7273	0.83343	0.34
Mof_C 	C 	0.34705	0.8538	0.12091	0.429
Mof_C 	C 	0.24436	0.2617	0.85949	-0.337
Mof_C 	C 	0.3146	0.1264	0.82428	-0.346
Mof_C 	C 	0.1978	0.8108	0.86194	-0.329
Mof_C 	C 	0.138	0.6167	0.85291	-0.329
Mof_C 	C 	0.3059	0.3059	0.89168	0.21
Mof_H 	H 	0.2002	0.2932	0.8602	0.161
Mof_C 	C 	0.37532	0.1706	0.85641	0.218
Mof_H 	H 	0.3177	0.0663	0.8011	0.156
Mof_C 	C 	0.22733	0.785	0.91184	0.209
Mof_H 	H 	0.2084	0.8841	0.8481	0.168
Mof_C 	C 	0.1669	0.5918	0.90254	0.202
Mof_H 	H 	0.1085	0.5598	0.8328	0.155
Mof_C 	C 	0.37144	0.2589	0.89076	-0.246
Mof_H 	H 	0.3029	0.3679	0.9141	-0.019
Mof_H 	H 	0.4194	0.1402	0.8548	-0.03
Mof_C 	C 	0.21118	0.6759	0.93268	-0.256
Mof_H 	H 	0.2581	0.8411	0.9314	-0.014
Mof_H 	H 	0.1567	0.5177	0.9159	-0.029
Mof_C 	C 	0.43789	0.3045	0.92644	0.44
Mof_C 	C 	0.23751	0.6534	0.98695	0.438
Mof_Co	Co	0.5	0.5	-0	1.207
Mof_Co	Co	0.5	0.5	0.5	1.216
Mof_O 	O 	5.01972e-33	0.2015	0.75	-0.309
Mof_O 	O 	1.67324e-33	0.7985	0.25	-0.309
_end
