data_functionalizedCrystal
_audit_creation_method	'EQeq! by Chris Wilmer'
_symmetry_space_group_name_H-M	'P1'
_symmetry_Int_Tables_number	1
_symmetry_cell_setting	triclinic
loop_
_symmetry_equiv_pos_as_xyz
  x,y,z
_cell_length_a	6.7427
_cell_length_b	18.653
_cell_length_c	8.546
_cell_angle_alpha	90
_cell_angle_beta	90
_cell_angle_gamma	90
loop_
_atom_site_label
_atom_site_type_symbol
_atom_site_fract_x
_atom_site_fract_y
_atom_site_fract_z
_atom_site_charge
Mof_O 	O 	0.8371	0.59332	0.2285	-0.37
Mof_O 	O 	0.8228	0.81717	0.9844	-0.464
Mof_O 	O 	0.6818	0.74296	0.153	-0.584
Mof_O 	O 	0.5121	0.54923	0.4321	-0.692
Mof_C 	C 	0.7669	0.7576	0.0268	0.664
Mof_H 	H 	0.79	0.7197	0.9585	-0.168
Mof_O 	O 	0.3371	0.09332	0.2285	-0.527
Mof_O 	O 	0.3228	0.31717	0.9844	-0.596
Mof_O 	O 	0.1818	0.24296	0.153	-0.616
Mof_O 	O 	0.0121	0.04923	0.4321	-0.912
Mof_C 	C 	0.2669	0.2576	0.0268	0.667
Mof_H 	H 	0.29	0.2197	0.9585	-0.226
Mof_O 	O 	0.1629	0.40668	0.7285	-0.526
Mof_O 	O 	0.1772	0.18283	0.4844	-0.584
Mof_O 	O 	0.3182	0.25704	0.653	-0.646
Mof_O 	O 	0.4879	0.45077	0.9321	-0.686
Mof_C 	C 	0.2331	0.2424	0.5268	0.721
Mof_H 	H 	0.21	0.2803	0.4585	-0.26
Mof_O 	O 	0.6629	0.90668	0.7285	-0.439
Mof_O 	O 	0.6772	0.68283	0.4844	-0.563
Mof_O 	O 	0.8182	0.75704	0.653	-0.488
Mof_O 	O 	0.9879	0.95077	0.9321	-0.137
Mof_C 	C 	0.7331	0.7424	0.5268	0.706
Mof_H 	H 	0.71	0.7803	0.4585	-0.193
Mof_O 	O 	0.1629	0.59332	0.2715	-0.527
Mof_O 	O 	0.1772	0.81717	0.5156	-0.576
Mof_O 	O 	0.3182	0.74296	0.347	-0.642
Mof_O 	O 	0.4879	0.54923	0.0679	-0.698
Mof_C 	C 	0.2331	0.7576	0.4732	0.719
Mof_H 	H 	0.21	0.7197	0.5415	-0.258
Mof_O 	O 	0.6629	0.09332	0.2715	-0.468
Mof_O 	O 	0.6772	0.31717	0.5156	-0.565
Mof_O 	O 	0.8182	0.24296	0.347	-0.489
Mof_O 	O 	0.9879	0.04923	0.0679	-0.208
Mof_C 	C 	0.7331	0.2576	0.4732	0.707
Mof_H 	H 	0.71	0.2197	0.5415	-0.198
Mof_O 	O 	0.8371	0.40668	0.7715	-0.367
Mof_O 	O 	0.8228	0.18283	0.0156	-0.521
Mof_O 	O 	0.6818	0.25704	0.847	-0.614
Mof_O 	O 	0.5121	0.45077	0.5679	-0.693
Mof_C 	C 	0.7669	0.2424	0.9732	0.772
Mof_H 	H 	0.79	0.2803	0.0415	-0.222
Mof_O 	O 	0.3371	0.90668	0.7715	-0.496
Mof_O 	O 	0.3228	0.68283	0.0156	-0.644
Mof_O 	O 	0.1818	0.75704	0.847	-0.64
Mof_O 	O 	0.0121	0.95077	0.5679	-0.856
Mof_C 	C 	0.2669	0.7424	0.9732	0.773
Mof_H 	H 	0.29	0.7803	0.0415	-0.273
Mof_Eu	Eu	0.5	0.6425	0.25	2.908
Mof_Eu	Eu	-4.68341e-33	0.1425	0.25	2.319
Mof_Eu	Eu	0.5	0.3575	0.75	2.913
Mof_Eu	Eu	-3.16646e-32	0.8575	0.75	2.33
Mof_C 	C 	-1.9362e-32	0.6239	0.25	0.382
Mof_H 	H 	-7.61913e-33	0.6738	0.25	-0.196
Mof_C 	C 	0.5	0.1239	0.25	0.622
Mof_H 	H 	0.5	0.1738	0.25	-0.199
Mof_C 	C 	-1.99217e-32	0.3761	0.75	0.385
Mof_H 	H 	-8.17877e-33	0.3262	0.75	-0.195
Mof_C 	C 	0.5	0.8761	0.75	0.621
Mof_H 	H 	0.5	0.8262	0.75	-0.195
Mof_C 	C 	0.4282	0.5	0.5	0.92
Mof_H 	H 	0.2903	0.5	0.5	-0.296
Mof_C 	C 	0.9282	0	0.5	1.399
Mof_H 	H 	0.7903	0	0.5	-0.405
Mof_C 	C 	0.5718	0.5	-0	0.879
Mof_H 	H 	0.7097	0.5	-0	-0.235
Mof_C 	C 	0.0718	0	-0	-0.08
Mof_H 	H 	0.2097	0	-0	0.026
_end
