data_functionalizedCrystal
_audit_creation_method	'EQeq! by Chris Wilmer'
_symmetry_space_group_name_H-M	'P1'
_symmetry_Int_Tables_number	1
_symmetry_cell_setting	triclinic
loop_
_symmetry_equiv_pos_as_xyz
  x,y,z
_cell_length_a	30.4128
_cell_length_b	30.4128
_cell_length_c	30.4128
_cell_angle_alpha	90
_cell_angle_beta	90
_cell_angle_gamma	90
loop_
_atom_site_label
_atom_site_type_symbol
_atom_site_fract_x
_atom_site_fract_y
_atom_site_fract_z
_atom_site_charge
Mof_O 	O 	0.2275	0.2914	0.4549	-0.388
Mof_O 	O 	0.2801	0.3433	0.4553	-0.398
Mof_O 	O 	0.0839	0.4153	0.3378	-0.191
Mof_C 	C 	0.0396	0.3526	0.3298	-0.028
Mof_C 	C 	0.2446	0.3266	0.4414	0.329
Mof_C 	C 	0.2206	0.3513	0.407	-0.016
Mof_C 	C 	0.179	0.3384	0.3939	-0.121
Mof_H 	H 	0.1653	0.3148	0.4077	0.109
Mof_C 	C 	0.0828	0.3752	0.338	0.184
Mof_O 	O 	0.7275	0.7914	0.9549	-0.372
Mof_O 	O 	0.7801	0.8433	0.9553	-0.38
Mof_O 	O 	0.5839	0.9153	0.8378	-0.178
Mof_C 	C 	0.5396	0.8526	0.8298	-0.035
Mof_C 	C 	0.7446	0.8266	0.9414	0.324
Mof_C 	C 	0.7206	0.8513	0.907	-0.005
Mof_C 	C 	0.679	0.8384	0.8939	-0.127
Mof_H 	H 	0.6653	0.8148	0.9077	0.114
Mof_C 	C 	0.5828	0.8752	0.838	0.188
Mof_O 	O 	0.7725	0.7086	0.4549	-0.387
Mof_O 	O 	0.7199	0.6567	0.4553	-0.398
Mof_O 	O 	0.9161	0.5847	0.3378	-0.178
Mof_C 	C 	0.9604	0.6474	0.3298	-0.013
Mof_C 	C 	0.7554	0.6734	0.4414	0.33
Mof_C 	C 	0.7794	0.6487	0.407	-0.014
Mof_C 	C 	0.821	0.6616	0.3939	-0.121
Mof_H 	H 	0.8347	0.6852	0.4077	0.111
Mof_C 	C 	0.9172	0.6248	0.338	0.184
Mof_O 	O 	0.2725	0.2086	0.9549	-0.372
Mof_O 	O 	0.2199	0.1567	0.9553	-0.385
Mof_O 	O 	0.4161	0.0847	0.8378	-0.192
Mof_C 	C 	0.4604	0.1474	0.8298	-0.037
Mof_C 	C 	0.2554	0.1734	0.9414	0.328
Mof_C 	C 	0.2794	0.1487	0.907	-0.011
Mof_C 	C 	0.321	0.1616	0.8939	-0.122
Mof_H 	H 	0.3347	0.1852	0.9077	0.113
Mof_C 	C 	0.4172	0.1248	0.838	0.191
Mof_O 	O 	0.7725	0.2914	0.5451	-0.386
Mof_O 	O 	0.7199	0.3433	0.5447	-0.397
Mof_O 	O 	0.9161	0.4153	0.6622	-0.177
Mof_C 	C 	0.9604	0.3526	0.6702	-0.013
Mof_C 	C 	0.7554	0.3266	0.5586	0.33
Mof_C 	C 	0.7794	0.3513	0.593	-0.014
Mof_C 	C 	0.821	0.3384	0.6061	-0.121
Mof_H 	H 	0.8347	0.3148	0.5923	0.111
Mof_C 	C 	0.9172	0.3752	0.662	0.184
Mof_O 	O 	0.2725	0.7914	0.0451	-0.392
Mof_O 	O 	0.2199	0.8433	0.0447	-0.403
Mof_O 	O 	0.4161	0.9153	0.1622	-0.181
Mof_C 	C 	0.4604	0.8526	0.1702	-0.037
Mof_C 	C 	0.2554	0.8266	0.0586	0.33
Mof_C 	C 	0.2794	0.8513	0.093	-0.016
Mof_C 	C 	0.321	0.8384	0.1061	-0.121
Mof_H 	H 	0.3347	0.8148	0.0923	0.108
Mof_C 	C 	0.4172	0.8752	0.162	0.189
Mof_O 	O 	0.2275	0.7086	0.5451	-0.387
Mof_O 	O 	0.2801	0.6567	0.5447	-0.397
Mof_O 	O 	0.0839	0.5847	0.6622	-0.19
Mof_C 	C 	0.0396	0.6474	0.6702	-0.027
Mof_C 	C 	0.2446	0.6734	0.5586	0.33
Mof_C 	C 	0.2206	0.6487	0.593	-0.015
Mof_C 	C 	0.179	0.6616	0.6061	-0.12
Mof_H 	H 	0.1653	0.6852	0.5923	0.109
Mof_C 	C 	0.0828	0.6248	0.662	0.185
Mof_O 	O 	0.7275	0.2086	0.0451	-0.393
Mof_O 	O 	0.7801	0.1567	0.0447	-0.406
Mof_O 	O 	0.5839	0.0847	0.1622	-0.196
Mof_C 	C 	0.5396	0.1474	0.1702	-0.039
Mof_C 	C 	0.7446	0.1734	0.0586	0.33
Mof_C 	C 	0.7206	0.1487	0.093	-0.021
Mof_C 	C 	0.679	0.1616	0.1061	-0.119
Mof_H 	H 	0.6653	0.1852	0.0923	0.107
Mof_C 	C 	0.5828	0.1248	0.162	0.191
Mof_O 	O 	0.4549	0.2275	0.2914	-0.387
Mof_O 	O 	0.4553	0.2801	0.3433	-0.397
Mof_O 	O 	0.3378	0.0839	0.4153	-0.19
Mof_C 	C 	0.3298	0.0396	0.3526	-0.027
Mof_C 	C 	0.4414	0.2446	0.3266	0.33
Mof_C 	C 	0.407	0.2206	0.3513	-0.015
Mof_C 	C 	0.3939	0.179	0.3384	-0.12
Mof_H 	H 	0.4077	0.1653	0.3148	0.11
Mof_C 	C 	0.338	0.0828	0.3752	0.185
Mof_O 	O 	0.9549	0.7275	0.7914	-0.371
Mof_O 	O 	0.9553	0.7801	0.8433	-0.379
Mof_O 	O 	0.8378	0.5839	0.9153	-0.177
Mof_C 	C 	0.8298	0.5396	0.8526	-0.034
Mof_C 	C 	0.9414	0.7446	0.8266	0.325
Mof_C 	C 	0.907	0.7206	0.8513	-0.004
Mof_C 	C 	0.8939	0.679	0.8384	-0.126
Mof_H 	H 	0.9077	0.6653	0.8148	0.115
Mof_C 	C 	0.838	0.5828	0.8752	0.189
Mof_O 	O 	0.4549	0.7725	0.7086	-0.386
Mof_O 	O 	0.4553	0.7199	0.6567	-0.397
Mof_O 	O 	0.3378	0.9161	0.5847	-0.177
Mof_C 	C 	0.3298	0.9604	0.6474	-0.013
Mof_C 	C 	0.4414	0.7554	0.6734	0.33
Mof_C 	C 	0.407	0.7794	0.6487	-0.014
Mof_C 	C 	0.3939	0.821	0.6616	-0.121
Mof_H 	H 	0.4077	0.8347	0.6852	0.111
Mof_C 	C 	0.338	0.9172	0.6248	0.184
Mof_O 	O 	0.9549	0.2725	0.2086	-0.372
Mof_O 	O 	0.9553	0.2199	0.1567	-0.385
Mof_O 	O 	0.8378	0.4161	0.0847	-0.192
Mof_C 	C 	0.8298	0.4604	0.1474	-0.037
Mof_C 	C 	0.9414	0.2554	0.1734	0.328
Mof_C 	C 	0.907	0.2794	0.1487	-0.011
Mof_C 	C 	0.8939	0.321	0.1616	-0.122
Mof_H 	H 	0.9077	0.3347	0.1852	0.113
Mof_C 	C 	0.838	0.4172	0.1248	0.191
Mof_O 	O 	0.5451	0.7725	0.2914	-0.386
Mof_O 	O 	0.5447	0.7199	0.3433	-0.397
Mof_O 	O 	0.6622	0.9161	0.4153	-0.177
Mof_C 	C 	0.6702	0.9604	0.3526	-0.013
Mof_C 	C 	0.5586	0.7554	0.3266	0.33
Mof_C 	C 	0.593	0.7794	0.3513	-0.014
Mof_C 	C 	0.6061	0.821	0.3384	-0.121
Mof_H 	H 	0.5923	0.8347	0.3148	0.111
Mof_C 	C 	0.662	0.9172	0.3752	0.184
Mof_O 	O 	0.0451	0.2725	0.7914	-0.392
Mof_O 	O 	0.0447	0.2199	0.8433	-0.403
Mof_O 	O 	0.1622	0.4161	0.9153	-0.181
Mof_C 	C 	0.1702	0.4604	0.8526	-0.037
Mof_C 	C 	0.0586	0.2554	0.8266	0.33
Mof_C 	C 	0.093	0.2794	0.8513	-0.016
Mof_C 	C 	0.1061	0.321	0.8384	-0.121
Mof_H 	H 	0.0923	0.3347	0.8148	0.108
Mof_C 	C 	0.162	0.4172	0.8752	0.189
Mof_O 	O 	0.5451	0.2275	0.7086	-0.387
Mof_O 	O 	0.5447	0.2801	0.6567	-0.397
Mof_O 	O 	0.6622	0.0839	0.5847	-0.19
Mof_C 	C 	0.6702	0.0396	0.6474	-0.027
Mof_C 	C 	0.5586	0.2446	0.6734	0.33
Mof_C 	C 	0.593	0.2206	0.6487	-0.015
Mof_C 	C 	0.6061	0.179	0.6616	-0.12
Mof_H 	H 	0.5923	0.1653	0.6852	0.109
Mof_C 	C 	0.662	0.0828	0.6248	0.185
Mof_O 	O 	0.0451	0.7275	0.2086	-0.393
Mof_O 	O 	0.0447	0.7801	0.1567	-0.406
Mof_O 	O 	0.1622	0.5839	0.0847	-0.196
Mof_C 	C 	0.1702	0.5396	0.1474	-0.039
Mof_C 	C 	0.0586	0.7446	0.1734	0.33
Mof_C 	C 	0.093	0.7206	0.1487	-0.021
Mof_C 	C 	0.1061	0.679	0.1616	-0.119
Mof_H 	H 	0.0923	0.6653	0.1852	0.107
Mof_C 	C 	0.162	0.5828	0.1248	0.191
Mof_O 	O 	0.2914	0.4549	0.2275	-0.387
Mof_O 	O 	0.3433	0.4553	0.2801	-0.397
Mof_O 	O 	0.4153	0.3378	0.0839	-0.19
Mof_C 	C 	0.3526	0.3298	0.0396	-0.027
Mof_C 	C 	0.3266	0.4414	0.2446	0.33
Mof_C 	C 	0.3513	0.407	0.2206	-0.015
Mof_C 	C 	0.3384	0.3939	0.179	-0.12
Mof_H 	H 	0.3148	0.4077	0.1653	0.11
Mof_C 	C 	0.3752	0.338	0.0828	0.185
Mof_O 	O 	0.7914	0.9549	0.7275	-0.371
Mof_O 	O 	0.8433	0.9553	0.7801	-0.379
Mof_O 	O 	0.9153	0.8378	0.5839	-0.177
Mof_C 	C 	0.8526	0.8298	0.5396	-0.034
Mof_C 	C 	0.8266	0.9414	0.7446	0.325
Mof_C 	C 	0.8513	0.907	0.7206	-0.004
Mof_C 	C 	0.8384	0.8939	0.679	-0.126
Mof_H 	H 	0.8148	0.9077	0.6653	0.115
Mof_C 	C 	0.8752	0.838	0.5828	0.189
Mof_O 	O 	0.7086	0.4549	0.7725	-0.386
Mof_O 	O 	0.6567	0.4553	0.7199	-0.397
Mof_O 	O 	0.5847	0.3378	0.9161	-0.177
Mof_C 	C 	0.6474	0.3298	0.9604	-0.013
Mof_C 	C 	0.6734	0.4414	0.7554	0.33
Mof_C 	C 	0.6487	0.407	0.7794	-0.014
Mof_C 	C 	0.6616	0.3939	0.821	-0.121
Mof_H 	H 	0.6852	0.4077	0.8347	0.111
Mof_C 	C 	0.6248	0.338	0.9172	0.184
Mof_O 	O 	0.2086	0.9549	0.2725	-0.372
Mof_O 	O 	0.1567	0.9553	0.2199	-0.385
Mof_O 	O 	0.0847	0.8378	0.4161	-0.192
Mof_C 	C 	0.1474	0.8298	0.4604	-0.037
Mof_C 	C 	0.1734	0.9414	0.2554	0.328
Mof_C 	C 	0.1487	0.907	0.2794	-0.011
Mof_C 	C 	0.1616	0.8939	0.321	-0.122
Mof_H 	H 	0.1852	0.9077	0.3347	0.113
Mof_C 	C 	0.1248	0.838	0.4172	0.191
Mof_O 	O 	0.2914	0.5451	0.7725	-0.386
Mof_O 	O 	0.3433	0.5447	0.7199	-0.397
Mof_O 	O 	0.4153	0.6622	0.9161	-0.177
Mof_C 	C 	0.3526	0.6702	0.9604	-0.013
Mof_C 	C 	0.3266	0.5586	0.7554	0.33
Mof_C 	C 	0.3513	0.593	0.7794	-0.014
Mof_C 	C 	0.3384	0.6061	0.821	-0.121
Mof_H 	H 	0.3148	0.5923	0.8347	0.111
Mof_C 	C 	0.3752	0.662	0.9172	0.184
Mof_O 	O 	0.7914	0.0451	0.2725	-0.392
Mof_O 	O 	0.8433	0.0447	0.2199	-0.403
Mof_O 	O 	0.9153	0.1622	0.4161	-0.181
Mof_C 	C 	0.8526	0.1702	0.4604	-0.037
Mof_C 	C 	0.8266	0.0586	0.2554	0.33
Mof_C 	C 	0.8513	0.093	0.2794	-0.016
Mof_C 	C 	0.8384	0.1061	0.321	-0.121
Mof_H 	H 	0.8148	0.0923	0.3347	0.108
Mof_C 	C 	0.8752	0.162	0.4172	0.189
Mof_O 	O 	0.7086	0.5451	0.2275	-0.387
Mof_O 	O 	0.6567	0.5447	0.2801	-0.397
Mof_O 	O 	0.5847	0.6622	0.0839	-0.19
Mof_C 	C 	0.6474	0.6702	0.0396	-0.027
Mof_C 	C 	0.6734	0.5586	0.2446	0.33
Mof_C 	C 	0.6487	0.593	0.2206	-0.015
Mof_C 	C 	0.6616	0.6061	0.179	-0.12
Mof_H 	H 	0.6852	0.5923	0.1653	0.109
Mof_C 	C 	0.6248	0.662	0.0828	0.185
Mof_O 	O 	0.2086	0.0451	0.7275	-0.393
Mof_O 	O 	0.1567	0.0447	0.7801	-0.406
Mof_O 	O 	0.0847	0.1622	0.5839	-0.196
Mof_C 	C 	0.1474	0.1702	0.5396	-0.039
Mof_C 	C 	0.1734	0.0586	0.7446	0.33
Mof_C 	C 	0.1487	0.093	0.7206	-0.021
Mof_C 	C 	0.1616	0.1061	0.679	-0.119
Mof_H 	H 	0.1852	0.0923	0.6653	0.107
Mof_C 	C 	0.1248	0.162	0.5828	0.191
Mof_O 	O 	0.2914	0.2275	0.5451	-0.387
Mof_O 	O 	0.3433	0.2801	0.5447	-0.397
Mof_O 	O 	0.4153	0.0839	0.6622	-0.19
Mof_C 	C 	0.3526	0.0396	0.6702	-0.027
Mof_C 	C 	0.3266	0.2446	0.5586	0.33
Mof_C 	C 	0.3513	0.2206	0.593	-0.015
Mof_C 	C 	0.3384	0.179	0.6061	-0.12
Mof_H 	H 	0.3148	0.1653	0.5923	0.11
Mof_C 	C 	0.3752	0.0828	0.662	0.185
Mof_O 	O 	0.7914	0.7275	0.0451	-0.392
Mof_O 	O 	0.8433	0.7801	0.0447	-0.401
Mof_O 	O 	0.9153	0.5839	0.1622	-0.181
Mof_C 	C 	0.8526	0.5396	0.1702	-0.037
Mof_C 	C 	0.8266	0.7446	0.0586	0.329
Mof_C 	C 	0.8513	0.7206	0.093	-0.015
Mof_C 	C 	0.8384	0.679	0.1061	-0.122
Mof_H 	H 	0.8148	0.6653	0.0923	0.109
Mof_C 	C 	0.8752	0.5828	0.162	0.189
Mof_O 	O 	0.7086	0.7725	0.5451	-0.386
Mof_O 	O 	0.6567	0.7199	0.5447	-0.397
Mof_O 	O 	0.5847	0.9161	0.6622	-0.177
Mof_C 	C 	0.6474	0.9604	0.6702	-0.013
Mof_C 	C 	0.6734	0.7554	0.5586	0.33
Mof_C 	C 	0.6487	0.7794	0.593	-0.014
Mof_C 	C 	0.6616	0.821	0.6061	-0.121
Mof_H 	H 	0.6852	0.8347	0.5923	0.111
Mof_C 	C 	0.6248	0.9172	0.662	0.184
Mof_O 	O 	0.2086	0.2725	0.0451	-0.393
Mof_O 	O 	0.1567	0.2199	0.0447	-0.408
Mof_O 	O 	0.0847	0.4161	0.1622	-0.196
Mof_C 	C 	0.1474	0.4604	0.1702	-0.039
Mof_C 	C 	0.1734	0.2554	0.0586	0.331
Mof_C 	C 	0.1487	0.2794	0.093	-0.022
Mof_C 	C 	0.1616	0.321	0.1061	-0.118
Mof_H 	H 	0.1852	0.3347	0.0923	0.107
Mof_C 	C 	0.1248	0.4172	0.162	0.191
Mof_O 	O 	0.2914	0.7725	0.4549	-0.386
Mof_O 	O 	0.3433	0.7199	0.4553	-0.397
Mof_O 	O 	0.4153	0.9161	0.3378	-0.177
Mof_C 	C 	0.3526	0.9604	0.3298	-0.013
Mof_C 	C 	0.3266	0.7554	0.4414	0.33
Mof_C 	C 	0.3513	0.7794	0.407	-0.014
Mof_C 	C 	0.3384	0.821	0.3939	-0.121
Mof_H 	H 	0.3148	0.8347	0.4077	0.111
Mof_C 	C 	0.3752	0.9172	0.338	0.184
Mof_O 	O 	0.7914	0.2725	0.9549	-0.372
Mof_O 	O 	0.8433	0.2199	0.9553	-0.381
Mof_O 	O 	0.9153	0.4161	0.8378	-0.177
Mof_C 	C 	0.8526	0.4604	0.8298	-0.034
Mof_C 	C 	0.8266	0.2554	0.9414	0.326
Mof_C 	C 	0.8513	0.2794	0.907	-0.005
Mof_C 	C 	0.8384	0.321	0.8939	-0.125
Mof_H 	H 	0.8148	0.3347	0.9077	0.115
Mof_C 	C 	0.8752	0.4172	0.838	0.189
Mof_O 	O 	0.7086	0.2275	0.4549	-0.387
Mof_O 	O 	0.6567	0.2801	0.4553	-0.397
Mof_O 	O 	0.5847	0.0839	0.3378	-0.19
Mof_C 	C 	0.6474	0.0396	0.3298	-0.027
Mof_C 	C 	0.6734	0.2446	0.4414	0.33
Mof_C 	C 	0.6487	0.2206	0.407	-0.015
Mof_C 	C 	0.6616	0.179	0.3939	-0.12
Mof_H 	H 	0.6852	0.1653	0.4077	0.11
Mof_C 	C 	0.6248	0.0828	0.338	0.185
Mof_O 	O 	0.2086	0.7275	0.9549	-0.372
Mof_O 	O 	0.1567	0.7801	0.9553	-0.383
Mof_O 	O 	0.0847	0.5839	0.8378	-0.192
Mof_C 	C 	0.1474	0.5396	0.8298	-0.037
Mof_C 	C 	0.1734	0.7446	0.9414	0.327
Mof_C 	C 	0.1487	0.7206	0.907	-0.01
Mof_C 	C 	0.1616	0.679	0.8939	-0.123
Mof_H 	H 	0.1852	0.6653	0.9077	0.113
Mof_C 	C 	0.1248	0.5828	0.838	0.191
Mof_O 	O 	0.2275	0.4549	0.7086	-0.387
Mof_O 	O 	0.2801	0.4553	0.6567	-0.397
Mof_O 	O 	0.0839	0.3378	0.5847	-0.19
Mof_C 	C 	0.0396	0.3298	0.6474	-0.027
Mof_C 	C 	0.2446	0.4414	0.6734	0.33
Mof_C 	C 	0.2206	0.407	0.6487	-0.015
Mof_C 	C 	0.179	0.3939	0.6616	-0.12
Mof_H 	H 	0.1653	0.4077	0.6852	0.11
Mof_C 	C 	0.0828	0.338	0.6248	0.185
Mof_O 	O 	0.7275	0.9549	0.2086	-0.372
Mof_O 	O 	0.7801	0.9553	0.1567	-0.383
Mof_O 	O 	0.5839	0.8378	0.0847	-0.192
Mof_C 	C 	0.5396	0.8298	0.1474	-0.037
Mof_C 	C 	0.7446	0.9414	0.1734	0.327
Mof_C 	C 	0.7206	0.907	0.1487	-0.01
Mof_C 	C 	0.679	0.8939	0.1616	-0.123
Mof_H 	H 	0.6653	0.9077	0.1852	0.113
Mof_C 	C 	0.5828	0.838	0.1248	0.191
Mof_O 	O 	0.7725	0.4549	0.2914	-0.386
Mof_O 	O 	0.7199	0.4553	0.3433	-0.397
Mof_O 	O 	0.9161	0.3378	0.4153	-0.177
Mof_C 	C 	0.9604	0.3298	0.3526	-0.013
Mof_C 	C 	0.7554	0.4414	0.3266	0.33
Mof_C 	C 	0.7794	0.407	0.3513	-0.014
Mof_C 	C 	0.821	0.3939	0.3384	-0.121
Mof_H 	H 	0.8347	0.4077	0.3148	0.111
Mof_C 	C 	0.9172	0.338	0.3752	0.184
Mof_O 	O 	0.2725	0.9549	0.7914	-0.372
Mof_O 	O 	0.2199	0.9553	0.8433	-0.381
Mof_O 	O 	0.4161	0.8378	0.9153	-0.177
Mof_C 	C 	0.4604	0.8298	0.8526	-0.034
Mof_C 	C 	0.2554	0.9414	0.8266	0.326
Mof_C 	C 	0.2794	0.907	0.8513	-0.005
Mof_C 	C 	0.321	0.8939	0.8384	-0.125
Mof_H 	H 	0.3347	0.9077	0.8148	0.115
Mof_C 	C 	0.4172	0.838	0.8752	0.189
Mof_O 	O 	0.7725	0.5451	0.7086	-0.386
Mof_O 	O 	0.7199	0.5447	0.6567	-0.397
Mof_O 	O 	0.9161	0.6622	0.5847	-0.177
Mof_C 	C 	0.9604	0.6702	0.6474	-0.013
Mof_C 	C 	0.7554	0.5586	0.6734	0.33
Mof_C 	C 	0.7794	0.593	0.6487	-0.014
Mof_C 	C 	0.821	0.6061	0.6616	-0.121
Mof_H 	H 	0.8347	0.5923	0.6852	0.111
Mof_C 	C 	0.9172	0.662	0.6248	0.184
Mof_O 	O 	0.2725	0.0451	0.2086	-0.393
Mof_O 	O 	0.2199	0.0447	0.1567	-0.408
Mof_O 	O 	0.4161	0.1622	0.0847	-0.196
Mof_C 	C 	0.4604	0.1702	0.1474	-0.039
Mof_C 	C 	0.2554	0.0586	0.1734	0.331
Mof_C 	C 	0.2794	0.093	0.1487	-0.022
Mof_C 	C 	0.321	0.1061	0.1616	-0.118
Mof_H 	H 	0.3347	0.0923	0.1852	0.107
Mof_C 	C 	0.4172	0.162	0.1248	0.191
Mof_O 	O 	0.2275	0.5451	0.2914	-0.387
Mof_O 	O 	0.2801	0.5447	0.3433	-0.397
Mof_O 	O 	0.0839	0.6622	0.4153	-0.19
Mof_C 	C 	0.0396	0.6702	0.3526	-0.027
Mof_C 	C 	0.2446	0.5586	0.3266	0.33
Mof_C 	C 	0.2206	0.593	0.3513	-0.015
Mof_C 	C 	0.179	0.6061	0.3384	-0.12
Mof_H 	H 	0.1653	0.5923	0.3148	0.11
Mof_C 	C 	0.0828	0.662	0.3752	0.185
Mof_O 	O 	0.7275	0.0451	0.7914	-0.392
Mof_O 	O 	0.7801	0.0447	0.8433	-0.401
Mof_O 	O 	0.5839	0.1622	0.9153	-0.181
Mof_C 	C 	0.5396	0.1702	0.8526	-0.037
Mof_C 	C 	0.7446	0.0586	0.8266	0.329
Mof_C 	C 	0.7206	0.093	0.8513	-0.015
Mof_C 	C 	0.679	0.1061	0.8384	-0.122
Mof_H 	H 	0.6653	0.0923	0.8148	0.109
Mof_C 	C 	0.5828	0.162	0.8752	0.189
Mof_O 	O 	0.4549	0.2914	0.7725	-0.386
Mof_O 	O 	0.4553	0.3433	0.7199	-0.397
Mof_O 	O 	0.3378	0.4153	0.9161	-0.177
Mof_C 	C 	0.3298	0.3526	0.9604	-0.013
Mof_C 	C 	0.4414	0.3266	0.7554	0.33
Mof_C 	C 	0.407	0.3513	0.7794	-0.014
Mof_C 	C 	0.3939	0.3384	0.821	-0.121
Mof_H 	H 	0.4077	0.3148	0.8347	0.111
Mof_C 	C 	0.338	0.3752	0.9172	0.184
Mof_O 	O 	0.9549	0.7914	0.2725	-0.372
Mof_O 	O 	0.9553	0.8433	0.2199	-0.381
Mof_O 	O 	0.8378	0.9153	0.4161	-0.177
Mof_C 	C 	0.8298	0.8526	0.4604	-0.034
Mof_C 	C 	0.9414	0.8266	0.2554	0.326
Mof_C 	C 	0.907	0.8513	0.2794	-0.005
Mof_C 	C 	0.8939	0.8384	0.321	-0.125
Mof_H 	H 	0.9077	0.8148	0.3347	0.115
Mof_C 	C 	0.838	0.8752	0.4172	0.189
Mof_O 	O 	0.4549	0.7086	0.2275	-0.387
Mof_O 	O 	0.4553	0.6567	0.2801	-0.397
Mof_O 	O 	0.3378	0.5847	0.0839	-0.19
Mof_C 	C 	0.3298	0.6474	0.0396	-0.027
Mof_C 	C 	0.4414	0.6734	0.2446	0.33
Mof_C 	C 	0.407	0.6487	0.2206	-0.015
Mof_C 	C 	0.3939	0.6616	0.179	-0.12
Mof_H 	H 	0.4077	0.6852	0.1653	0.11
Mof_C 	C 	0.338	0.6248	0.0828	0.185
Mof_O 	O 	0.9549	0.2086	0.7275	-0.372
Mof_O 	O 	0.9553	0.1567	0.7801	-0.383
Mof_O 	O 	0.8378	0.0847	0.5839	-0.192
Mof_C 	C 	0.8298	0.1474	0.5396	-0.037
Mof_C 	C 	0.9414	0.1734	0.7446	0.327
Mof_C 	C 	0.907	0.1487	0.7206	-0.01
Mof_C 	C 	0.8939	0.1616	0.679	-0.123
Mof_H 	H 	0.9077	0.1852	0.6653	0.113
Mof_C 	C 	0.838	0.1248	0.5828	0.191
Mof_O 	O 	0.5451	0.2914	0.2275	-0.387
Mof_O 	O 	0.5447	0.3433	0.2801	-0.397
Mof_O 	O 	0.6622	0.4153	0.0839	-0.19
Mof_C 	C 	0.6702	0.3526	0.0396	-0.027
Mof_C 	C 	0.5586	0.3266	0.2446	0.33
Mof_C 	C 	0.593	0.3513	0.2206	-0.015
Mof_C 	C 	0.6061	0.3384	0.179	-0.12
Mof_H 	H 	0.5923	0.3148	0.1653	0.11
Mof_C 	C 	0.662	0.3752	0.0828	0.185
Mof_O 	O 	0.0451	0.7914	0.7275	-0.392
Mof_O 	O 	0.0447	0.8433	0.7801	-0.401
Mof_O 	O 	0.1622	0.9153	0.5839	-0.181
Mof_C 	C 	0.1702	0.8526	0.5396	-0.037
Mof_C 	C 	0.0586	0.8266	0.7446	0.329
Mof_C 	C 	0.093	0.8513	0.7206	-0.015
Mof_C 	C 	0.1061	0.8384	0.679	-0.122
Mof_H 	H 	0.0923	0.8148	0.6653	0.109
Mof_C 	C 	0.162	0.8752	0.5828	0.189
Mof_O 	O 	0.5451	0.7086	0.7725	-0.386
Mof_O 	O 	0.5447	0.6567	0.7199	-0.397
Mof_O 	O 	0.6622	0.5847	0.9161	-0.177
Mof_C 	C 	0.6702	0.6474	0.9604	-0.013
Mof_C 	C 	0.5586	0.6734	0.7554	0.33
Mof_C 	C 	0.593	0.6487	0.7794	-0.014
Mof_C 	C 	0.6061	0.6616	0.821	-0.121
Mof_H 	H 	0.5923	0.6852	0.8347	0.111
Mof_C 	C 	0.662	0.6248	0.9172	0.184
Mof_O 	O 	0.0451	0.2086	0.2725	-0.393
Mof_O 	O 	0.0447	0.1567	0.2199	-0.408
Mof_O 	O 	0.1622	0.0847	0.4161	-0.196
Mof_C 	C 	0.1702	0.1474	0.4604	-0.039
Mof_C 	C 	0.0586	0.1734	0.2554	0.331
Mof_C 	C 	0.093	0.1487	0.2794	-0.022
Mof_C 	C 	0.1061	0.1616	0.321	-0.118
Mof_H 	H 	0.0923	0.1852	0.3347	0.107
Mof_C 	C 	0.162	0.1248	0.4172	0.191
Mof_O 	O 	0.7725	0.7086	0.5451	-0.386
Mof_O 	O 	0.7199	0.6567	0.5447	-0.397
Mof_O 	O 	0.9161	0.5847	0.6622	-0.177
Mof_C 	C 	0.9604	0.6474	0.6702	-0.013
Mof_C 	C 	0.7554	0.6734	0.5586	0.33
Mof_C 	C 	0.7794	0.6487	0.593	-0.014
Mof_C 	C 	0.821	0.6616	0.6061	-0.121
Mof_H 	H 	0.8347	0.6852	0.5923	0.111
Mof_C 	C 	0.9172	0.6248	0.662	0.184
Mof_O 	O 	0.2725	0.2086	0.0451	-0.393
Mof_O 	O 	0.2199	0.1567	0.0447	-0.408
Mof_O 	O 	0.4161	0.0847	0.1622	-0.196
Mof_C 	C 	0.4604	0.1474	0.1702	-0.039
Mof_C 	C 	0.2554	0.1734	0.0586	0.331
Mof_C 	C 	0.2794	0.1487	0.093	-0.022
Mof_C 	C 	0.321	0.1616	0.1061	-0.118
Mof_H 	H 	0.3347	0.1852	0.0923	0.107
Mof_C 	C 	0.4172	0.1248	0.162	0.191
Mof_O 	O 	0.2275	0.2914	0.5451	-0.387
Mof_O 	O 	0.2801	0.3433	0.5447	-0.397
Mof_O 	O 	0.0839	0.4153	0.6622	-0.19
Mof_C 	C 	0.0396	0.3526	0.6702	-0.027
Mof_C 	C 	0.2446	0.3266	0.5586	0.33
Mof_C 	C 	0.2206	0.3513	0.593	-0.015
Mof_C 	C 	0.179	0.3384	0.6061	-0.12
Mof_H 	H 	0.1653	0.3148	0.5923	0.11
Mof_C 	C 	0.0828	0.3752	0.662	0.185
Mof_O 	O 	0.7275	0.7914	0.0451	-0.392
Mof_O 	O 	0.7801	0.8433	0.0447	-0.401
Mof_O 	O 	0.5839	0.9153	0.1622	-0.181
Mof_C 	C 	0.5396	0.8526	0.1702	-0.037
Mof_C 	C 	0.7446	0.8266	0.0586	0.329
Mof_C 	C 	0.7206	0.8513	0.093	-0.015
Mof_C 	C 	0.679	0.8384	0.1061	-0.122
Mof_H 	H 	0.6653	0.8148	0.0923	0.109
Mof_C 	C 	0.5828	0.8752	0.162	0.189
Mof_O 	O 	0.2275	0.7086	0.4549	-0.387
Mof_O 	O 	0.2801	0.6567	0.4553	-0.397
Mof_O 	O 	0.0839	0.5847	0.3378	-0.19
Mof_C 	C 	0.0396	0.6474	0.3298	-0.027
Mof_C 	C 	0.2446	0.6734	0.4414	0.33
Mof_C 	C 	0.2206	0.6487	0.407	-0.015
Mof_C 	C 	0.179	0.6616	0.3939	-0.12
Mof_H 	H 	0.1653	0.6852	0.4077	0.11
Mof_C 	C 	0.0828	0.6248	0.338	0.185
Mof_O 	O 	0.7275	0.2086	0.9549	-0.372
Mof_O 	O 	0.7801	0.1567	0.9553	-0.383
Mof_O 	O 	0.5839	0.0847	0.8378	-0.192
Mof_C 	C 	0.5396	0.1474	0.8298	-0.037
Mof_C 	C 	0.7446	0.1734	0.9414	0.327
Mof_C 	C 	0.7206	0.1487	0.907	-0.01
Mof_C 	C 	0.679	0.1616	0.8939	-0.123
Mof_H 	H 	0.6653	0.1852	0.9077	0.113
Mof_C 	C 	0.5828	0.1248	0.838	0.191
Mof_O 	O 	0.7725	0.2914	0.4549	-0.386
Mof_O 	O 	0.7199	0.3433	0.4553	-0.397
Mof_O 	O 	0.9161	0.4153	0.3378	-0.177
Mof_C 	C 	0.9604	0.3526	0.3298	-0.013
Mof_C 	C 	0.7554	0.3266	0.4414	0.33
Mof_C 	C 	0.7794	0.3513	0.407	-0.014
Mof_C 	C 	0.821	0.3384	0.3939	-0.121
Mof_H 	H 	0.8347	0.3148	0.4077	0.111
Mof_C 	C 	0.9172	0.3752	0.338	0.184
Mof_O 	O 	0.2725	0.7914	0.9549	-0.372
Mof_O 	O 	0.2199	0.8433	0.9553	-0.381
Mof_O 	O 	0.4161	0.9153	0.8378	-0.177
Mof_C 	C 	0.4604	0.8526	0.8298	-0.034
Mof_C 	C 	0.2554	0.8266	0.9414	0.326
Mof_C 	C 	0.2794	0.8513	0.907	-0.005
Mof_C 	C 	0.321	0.8384	0.8939	-0.125
Mof_H 	H 	0.3347	0.8148	0.9077	0.115
Mof_C 	C 	0.4172	0.8752	0.838	0.189
Mof_O 	O 	0.5451	0.7725	0.7086	-0.386
Mof_O 	O 	0.5447	0.7199	0.6567	-0.397
Mof_O 	O 	0.6622	0.9161	0.5847	-0.177
Mof_C 	C 	0.6702	0.9604	0.6474	-0.013
Mof_C 	C 	0.5586	0.7554	0.6734	0.33
Mof_C 	C 	0.593	0.7794	0.6487	-0.014
Mof_C 	C 	0.6061	0.821	0.6616	-0.121
Mof_H 	H 	0.5923	0.8347	0.6852	0.111
Mof_C 	C 	0.662	0.9172	0.6248	0.184
Mof_O 	O 	0.0451	0.2725	0.2086	-0.393
Mof_O 	O 	0.0447	0.2199	0.1567	-0.408
Mof_O 	O 	0.1622	0.4161	0.0847	-0.196
Mof_C 	C 	0.1702	0.4604	0.1474	-0.039
Mof_C 	C 	0.0586	0.2554	0.1734	0.331
Mof_C 	C 	0.093	0.2794	0.1487	-0.022
Mof_C 	C 	0.1061	0.321	0.1616	-0.118
Mof_H 	H 	0.0923	0.3347	0.1852	0.107
Mof_C 	C 	0.162	0.4172	0.1248	0.191
Mof_O 	O 	0.5451	0.2275	0.2914	-0.387
Mof_O 	O 	0.5447	0.2801	0.3433	-0.397
Mof_O 	O 	0.6622	0.0839	0.4153	-0.19
Mof_C 	C 	0.6702	0.0396	0.3526	-0.027
Mof_C 	C 	0.5586	0.2446	0.3266	0.33
Mof_C 	C 	0.593	0.2206	0.3513	-0.015
Mof_C 	C 	0.6061	0.179	0.3384	-0.12
Mof_H 	H 	0.5923	0.1653	0.3148	0.11
Mof_C 	C 	0.662	0.0828	0.3752	0.185
Mof_O 	O 	0.0451	0.7275	0.7914	-0.392
Mof_O 	O 	0.0447	0.7801	0.8433	-0.401
Mof_O 	O 	0.1622	0.5839	0.9153	-0.181
Mof_C 	C 	0.1702	0.5396	0.8526	-0.037
Mof_C 	C 	0.0586	0.7446	0.8266	0.329
Mof_C 	C 	0.093	0.7206	0.8513	-0.015
Mof_C 	C 	0.1061	0.679	0.8384	-0.122
Mof_H 	H 	0.0923	0.6653	0.8148	0.109
Mof_C 	C 	0.162	0.5828	0.8752	0.189
Mof_O 	O 	0.4549	0.2275	0.7086	-0.387
Mof_O 	O 	0.4553	0.2801	0.6567	-0.397
Mof_O 	O 	0.3378	0.0839	0.5847	-0.19
Mof_C 	C 	0.3298	0.0396	0.6474	-0.027
Mof_C 	C 	0.4414	0.2446	0.6734	0.33
Mof_C 	C 	0.407	0.2206	0.6487	-0.015
Mof_C 	C 	0.3939	0.179	0.6616	-0.12
Mof_H 	H 	0.4077	0.1653	0.6852	0.11
Mof_C 	C 	0.338	0.0828	0.6248	0.185
Mof_O 	O 	0.9549	0.7275	0.2086	-0.372
Mof_O 	O 	0.9553	0.7801	0.1567	-0.383
Mof_O 	O 	0.8378	0.5839	0.0847	-0.192
Mof_C 	C 	0.8298	0.5396	0.1474	-0.037
Mof_C 	C 	0.9414	0.7446	0.1734	0.327
Mof_C 	C 	0.907	0.7206	0.1487	-0.01
Mof_C 	C 	0.8939	0.679	0.1616	-0.123
Mof_H 	H 	0.9077	0.6653	0.1852	0.113
Mof_C 	C 	0.838	0.5828	0.1248	0.191
Mof_O 	O 	0.4549	0.7725	0.2914	-0.386
Mof_O 	O 	0.4553	0.7199	0.3433	-0.397
Mof_O 	O 	0.3378	0.9161	0.4153	-0.177
Mof_C 	C 	0.3298	0.9604	0.3526	-0.013
Mof_C 	C 	0.4414	0.7554	0.3266	0.33
Mof_C 	C 	0.407	0.7794	0.3513	-0.014
Mof_C 	C 	0.3939	0.821	0.3384	-0.121
Mof_H 	H 	0.4077	0.8347	0.3148	0.111
Mof_C 	C 	0.338	0.9172	0.3752	0.184
Mof_O 	O 	0.9549	0.2725	0.7914	-0.372
Mof_O 	O 	0.9553	0.2199	0.8433	-0.381
Mof_O 	O 	0.8378	0.4161	0.9153	-0.177
Mof_C 	C 	0.8298	0.4604	0.8526	-0.034
Mof_C 	C 	0.9414	0.2554	0.8266	0.326
Mof_C 	C 	0.907	0.2794	0.8513	-0.005
Mof_C 	C 	0.8939	0.321	0.8384	-0.125
Mof_H 	H 	0.9077	0.3347	0.8148	0.115
Mof_C 	C 	0.838	0.4172	0.8752	0.189
Mof_O 	O 	0.7086	0.5451	0.7725	-0.386
Mof_O 	O 	0.6567	0.5447	0.7199	-0.397
Mof_O 	O 	0.5847	0.6622	0.9161	-0.177
Mof_C 	C 	0.6474	0.6702	0.9604	-0.013
Mof_C 	C 	0.6734	0.5586	0.7554	0.33
Mof_C 	C 	0.6487	0.593	0.7794	-0.014
Mof_C 	C 	0.6616	0.6061	0.821	-0.121
Mof_H 	H 	0.6852	0.5923	0.8347	0.111
Mof_C 	C 	0.6248	0.662	0.9172	0.184
Mof_O 	O 	0.2086	0.0451	0.2725	-0.393
Mof_O 	O 	0.1567	0.0447	0.2199	-0.408
Mof_O 	O 	0.0847	0.1622	0.4161	-0.196
Mof_C 	C 	0.1474	0.1702	0.4604	-0.039
Mof_C 	C 	0.1734	0.0586	0.2554	0.331
Mof_C 	C 	0.1487	0.093	0.2794	-0.022
Mof_C 	C 	0.1616	0.1061	0.321	-0.118
Mof_H 	H 	0.1852	0.0923	0.3347	0.107
Mof_C 	C 	0.1248	0.162	0.4172	0.191
Mof_O 	O 	0.2914	0.5451	0.2275	-0.387
Mof_O 	O 	0.3433	0.5447	0.2801	-0.397
Mof_O 	O 	0.4153	0.6622	0.0839	-0.19
Mof_C 	C 	0.3526	0.6702	0.0396	-0.027
Mof_C 	C 	0.3266	0.5586	0.2446	0.33
Mof_C 	C 	0.3513	0.593	0.2206	-0.015
Mof_C 	C 	0.3384	0.6061	0.179	-0.12
Mof_H 	H 	0.3148	0.5923	0.1653	0.11
Mof_C 	C 	0.3752	0.662	0.0828	0.185
Mof_O 	O 	0.7914	0.0451	0.7275	-0.392
Mof_O 	O 	0.8433	0.0447	0.7801	-0.401
Mof_O 	O 	0.9153	0.1622	0.5839	-0.181
Mof_C 	C 	0.8526	0.1702	0.5396	-0.037
Mof_C 	C 	0.8266	0.0586	0.7446	0.329
Mof_C 	C 	0.8513	0.093	0.7206	-0.015
Mof_C 	C 	0.8384	0.1061	0.679	-0.122
Mof_H 	H 	0.8148	0.0923	0.6653	0.109
Mof_C 	C 	0.8752	0.162	0.5828	0.189
Mof_O 	O 	0.7086	0.4549	0.2275	-0.387
Mof_O 	O 	0.6567	0.4553	0.2801	-0.397
Mof_O 	O 	0.5847	0.3378	0.0839	-0.19
Mof_C 	C 	0.6474	0.3298	0.0396	-0.027
Mof_C 	C 	0.6734	0.4414	0.2446	0.33
Mof_C 	C 	0.6487	0.407	0.2206	-0.015
Mof_C 	C 	0.6616	0.3939	0.179	-0.12
Mof_H 	H 	0.6852	0.4077	0.1653	0.11
Mof_C 	C 	0.6248	0.338	0.0828	0.185
Mof_O 	O 	0.2086	0.9549	0.7275	-0.372
Mof_O 	O 	0.1567	0.9553	0.7801	-0.383
Mof_O 	O 	0.0847	0.8378	0.5839	-0.192
Mof_C 	C 	0.1474	0.8298	0.5396	-0.037
Mof_C 	C 	0.1734	0.9414	0.7446	0.327
Mof_C 	C 	0.1487	0.907	0.7206	-0.01
Mof_C 	C 	0.1616	0.8939	0.679	-0.123
Mof_H 	H 	0.1852	0.9077	0.6653	0.113
Mof_C 	C 	0.1248	0.838	0.5828	0.191
Mof_O 	O 	0.2914	0.4549	0.7725	-0.386
Mof_O 	O 	0.3433	0.4553	0.7199	-0.397
Mof_O 	O 	0.4153	0.3378	0.9161	-0.177
Mof_C 	C 	0.3526	0.3298	0.9604	-0.013
Mof_C 	C 	0.3266	0.4414	0.7554	0.33
Mof_C 	C 	0.3513	0.407	0.7794	-0.014
Mof_C 	C 	0.3384	0.3939	0.821	-0.121
Mof_H 	H 	0.3148	0.4077	0.8347	0.111
Mof_C 	C 	0.3752	0.338	0.9172	0.184
Mof_O 	O 	0.7914	0.9549	0.2725	-0.372
Mof_O 	O 	0.8433	0.9553	0.2199	-0.381
Mof_O 	O 	0.9153	0.8378	0.4161	-0.177
Mof_C 	C 	0.8526	0.8298	0.4604	-0.034
Mof_C 	C 	0.8266	0.9414	0.2554	0.326
Mof_C 	C 	0.8513	0.907	0.2794	-0.005
Mof_C 	C 	0.8384	0.8939	0.321	-0.125
Mof_H 	H 	0.8148	0.9077	0.3347	0.115
Mof_C 	C 	0.8752	0.838	0.4172	0.189
Mof_O 	O 	0.7086	0.7725	0.4549	-0.386
Mof_O 	O 	0.6567	0.7199	0.4553	-0.397
Mof_O 	O 	0.5847	0.9161	0.3378	-0.177
Mof_C 	C 	0.6474	0.9604	0.3298	-0.013
Mof_C 	C 	0.6734	0.7554	0.4414	0.33
Mof_C 	C 	0.6487	0.7794	0.407	-0.014
Mof_C 	C 	0.6616	0.821	0.3939	-0.121
Mof_H 	H 	0.6852	0.8347	0.4077	0.111
Mof_C 	C 	0.6248	0.9172	0.338	0.184
Mof_O 	O 	0.2086	0.2725	0.9549	-0.372
Mof_O 	O 	0.1567	0.2199	0.9553	-0.385
Mof_O 	O 	0.0847	0.4161	0.8378	-0.192
Mof_C 	C 	0.1474	0.4604	0.8298	-0.037
Mof_C 	C 	0.1734	0.2554	0.9414	0.328
Mof_C 	C 	0.1487	0.2794	0.907	-0.011
Mof_C 	C 	0.1616	0.321	0.8939	-0.122
Mof_H 	H 	0.1852	0.3347	0.9077	0.113
Mof_C 	C 	0.1248	0.4172	0.838	0.191
Mof_O 	O 	0.2914	0.2275	0.4549	-0.387
Mof_O 	O 	0.3433	0.2801	0.4553	-0.397
Mof_O 	O 	0.4153	0.0839	0.3378	-0.19
Mof_C 	C 	0.3526	0.0396	0.3298	-0.027
Mof_C 	C 	0.3266	0.2446	0.4414	0.33
Mof_C 	C 	0.3513	0.2206	0.407	-0.015
Mof_C 	C 	0.3384	0.179	0.3939	-0.12
Mof_H 	H 	0.3148	0.1653	0.4077	0.11
Mof_C 	C 	0.3752	0.0828	0.338	0.185
Mof_O 	O 	0.7914	0.7275	0.9549	-0.371
Mof_O 	O 	0.8433	0.7801	0.9553	-0.379
Mof_O 	O 	0.9153	0.5839	0.8378	-0.177
Mof_C 	C 	0.8526	0.5396	0.8298	-0.034
Mof_C 	C 	0.8266	0.7446	0.9414	0.325
Mof_C 	C 	0.8513	0.7206	0.907	-0.004
Mof_C 	C 	0.8384	0.679	0.8939	-0.126
Mof_H 	H 	0.8148	0.6653	0.9077	0.115
Mof_C 	C 	0.8752	0.5828	0.838	0.189
Mof_O 	O 	0.7086	0.2275	0.5451	-0.387
Mof_O 	O 	0.6567	0.2801	0.5447	-0.397
Mof_O 	O 	0.5847	0.0839	0.6622	-0.19
Mof_C 	C 	0.6474	0.0396	0.6702	-0.027
Mof_C 	C 	0.6734	0.2446	0.5586	0.33
Mof_C 	C 	0.6487	0.2206	0.593	-0.015
Mof_C 	C 	0.6616	0.179	0.6061	-0.12
Mof_H 	H 	0.6852	0.1653	0.5923	0.109
Mof_C 	C 	0.6248	0.0828	0.662	0.185
Mof_O 	O 	0.2086	0.7275	0.0451	-0.393
Mof_O 	O 	0.1567	0.7801	0.0447	-0.406
Mof_O 	O 	0.0847	0.5839	0.1622	-0.196
Mof_C 	C 	0.1474	0.5396	0.1702	-0.039
Mof_C 	C 	0.1734	0.7446	0.0586	0.33
Mof_C 	C 	0.1487	0.7206	0.093	-0.021
Mof_C 	C 	0.1616	0.679	0.1061	-0.119
Mof_H 	H 	0.1852	0.6653	0.0923	0.107
Mof_C 	C 	0.1248	0.5828	0.162	0.191
Mof_O 	O 	0.2914	0.7725	0.5451	-0.386
Mof_O 	O 	0.3433	0.7199	0.5447	-0.397
Mof_O 	O 	0.4153	0.9161	0.6622	-0.177
Mof_C 	C 	0.3526	0.9604	0.6702	-0.013
Mof_C 	C 	0.3266	0.7554	0.5586	0.33
Mof_C 	C 	0.3513	0.7794	0.593	-0.014
Mof_C 	C 	0.3384	0.821	0.6061	-0.121
Mof_H 	H 	0.3148	0.8347	0.5923	0.111
Mof_C 	C 	0.3752	0.9172	0.662	0.184
Mof_O 	O 	0.7914	0.2725	0.0451	-0.392
Mof_O 	O 	0.8433	0.2199	0.0447	-0.403
Mof_O 	O 	0.9153	0.4161	0.1622	-0.181
Mof_C 	C 	0.8526	0.4604	0.1702	-0.037
Mof_C 	C 	0.8266	0.2554	0.0586	0.33
Mof_C 	C 	0.8513	0.2794	0.093	-0.016
Mof_C 	C 	0.8384	0.321	0.1061	-0.121
Mof_H 	H 	0.8148	0.3347	0.0923	0.108
Mof_C 	C 	0.8752	0.4172	0.162	0.189
Mof_O 	O 	0.7725	0.5451	0.2914	-0.386
Mof_O 	O 	0.7199	0.5447	0.3433	-0.397
Mof_O 	O 	0.9161	0.6622	0.4153	-0.177
Mof_C 	C 	0.9604	0.6702	0.3526	-0.013
Mof_C 	C 	0.7554	0.5586	0.3266	0.33
Mof_C 	C 	0.7794	0.593	0.3513	-0.014
Mof_C 	C 	0.821	0.6061	0.3384	-0.121
Mof_H 	H 	0.8347	0.5923	0.3148	0.111
Mof_C 	C 	0.9172	0.662	0.3752	0.184
Mof_O 	O 	0.2725	0.0451	0.7914	-0.392
Mof_O 	O 	0.2199	0.0447	0.8433	-0.403
Mof_O 	O 	0.4161	0.1622	0.9153	-0.181
Mof_C 	C 	0.4604	0.1702	0.8526	-0.037
Mof_C 	C 	0.2554	0.0586	0.8266	0.33
Mof_C 	C 	0.2794	0.093	0.8513	-0.016
Mof_C 	C 	0.321	0.1061	0.8384	-0.121
Mof_H 	H 	0.3347	0.0923	0.8148	0.108
Mof_C 	C 	0.4172	0.162	0.8752	0.189
Mof_O 	O 	0.2275	0.5451	0.7086	-0.387
Mof_O 	O 	0.2801	0.5447	0.6567	-0.397
Mof_O 	O 	0.0839	0.6622	0.5847	-0.19
Mof_C 	C 	0.0396	0.6702	0.6474	-0.027
Mof_C 	C 	0.2446	0.5586	0.6734	0.33
Mof_C 	C 	0.2206	0.593	0.6487	-0.015
Mof_C 	C 	0.179	0.6061	0.6616	-0.12
Mof_H 	H 	0.1653	0.5923	0.6852	0.109
Mof_C 	C 	0.0828	0.662	0.6248	0.185
Mof_O 	O 	0.7275	0.0451	0.2086	-0.393
Mof_O 	O 	0.7801	0.0447	0.1567	-0.406
Mof_O 	O 	0.5839	0.1622	0.0847	-0.196
Mof_C 	C 	0.5396	0.1702	0.1474	-0.039
Mof_C 	C 	0.7446	0.0586	0.1734	0.33
Mof_C 	C 	0.7206	0.093	0.1487	-0.021
Mof_C 	C 	0.679	0.1061	0.1616	-0.119
Mof_H 	H 	0.6653	0.0923	0.1852	0.107
Mof_C 	C 	0.5828	0.162	0.1248	0.191
Mof_O 	O 	0.2275	0.4549	0.2914	-0.387
Mof_O 	O 	0.2801	0.4553	0.3433	-0.397
Mof_O 	O 	0.0839	0.3378	0.4153	-0.19
Mof_C 	C 	0.0396	0.3298	0.3526	-0.027
Mof_C 	C 	0.2446	0.4414	0.3266	0.33
Mof_C 	C 	0.2206	0.407	0.3513	-0.015
Mof_C 	C 	0.179	0.3939	0.3384	-0.12
Mof_H 	H 	0.1653	0.4077	0.3148	0.11
Mof_C 	C 	0.0828	0.338	0.3752	0.185
Mof_O 	O 	0.7275	0.9549	0.7914	-0.371
Mof_O 	O 	0.7801	0.9553	0.8433	-0.379
Mof_O 	O 	0.5839	0.8378	0.9153	-0.177
Mof_C 	C 	0.5396	0.8298	0.8526	-0.034
Mof_C 	C 	0.7446	0.9414	0.8266	0.325
Mof_C 	C 	0.7206	0.907	0.8513	-0.004
Mof_C 	C 	0.679	0.8939	0.8384	-0.126
Mof_H 	H 	0.6653	0.9077	0.8148	0.115
Mof_C 	C 	0.5828	0.838	0.8752	0.189
Mof_O 	O 	0.7725	0.4549	0.7086	-0.386
Mof_O 	O 	0.7199	0.4553	0.6567	-0.397
Mof_O 	O 	0.9161	0.3378	0.5847	-0.177
Mof_C 	C 	0.9604	0.3298	0.6474	-0.013
Mof_C 	C 	0.7554	0.4414	0.6734	0.33
Mof_C 	C 	0.7794	0.407	0.6487	-0.014
Mof_C 	C 	0.821	0.3939	0.6616	-0.121
Mof_H 	H 	0.8347	0.4077	0.6852	0.111
Mof_C 	C 	0.9172	0.338	0.6248	0.184
Mof_O 	O 	0.2725	0.9549	0.2086	-0.372
Mof_O 	O 	0.2199	0.9553	0.1567	-0.385
Mof_O 	O 	0.4161	0.8378	0.0847	-0.192
Mof_C 	C 	0.4604	0.8298	0.1474	-0.037
Mof_C 	C 	0.2554	0.9414	0.1734	0.328
Mof_C 	C 	0.2794	0.907	0.1487	-0.011
Mof_C 	C 	0.321	0.8939	0.1616	-0.122
Mof_H 	H 	0.3347	0.9077	0.1852	0.113
Mof_C 	C 	0.4172	0.838	0.1248	0.191
Mof_O 	O 	0.5451	0.7086	0.2275	-0.387
Mof_O 	O 	0.5447	0.6567	0.2801	-0.397
Mof_O 	O 	0.6622	0.5847	0.0839	-0.19
Mof_C 	C 	0.6702	0.6474	0.0396	-0.027
Mof_C 	C 	0.5586	0.6734	0.2446	0.33
Mof_C 	C 	0.593	0.6487	0.2206	-0.015
Mof_C 	C 	0.6061	0.6616	0.179	-0.12
Mof_H 	H 	0.5923	0.6852	0.1653	0.109
Mof_C 	C 	0.662	0.6248	0.0828	0.185
Mof_O 	O 	0.0451	0.2086	0.7275	-0.393
Mof_O 	O 	0.0447	0.1567	0.7801	-0.406
Mof_O 	O 	0.1622	0.0847	0.5839	-0.196
Mof_C 	C 	0.1702	0.1474	0.5396	-0.039
Mof_C 	C 	0.0586	0.1734	0.7446	0.33
Mof_C 	C 	0.093	0.1487	0.7206	-0.021
Mof_C 	C 	0.1061	0.1616	0.679	-0.119
Mof_H 	H 	0.0923	0.1852	0.6653	0.107
Mof_C 	C 	0.162	0.1248	0.5828	0.191
Mof_O 	O 	0.5451	0.2914	0.7725	-0.386
Mof_O 	O 	0.5447	0.3433	0.7199	-0.397
Mof_O 	O 	0.6622	0.4153	0.9161	-0.177
Mof_C 	C 	0.6702	0.3526	0.9604	-0.013
Mof_C 	C 	0.5586	0.3266	0.7554	0.33
Mof_C 	C 	0.593	0.3513	0.7794	-0.014
Mof_C 	C 	0.6061	0.3384	0.821	-0.121
Mof_H 	H 	0.5923	0.3148	0.8347	0.111
Mof_C 	C 	0.662	0.3752	0.9172	0.184
Mof_O 	O 	0.0451	0.7914	0.2725	-0.392
Mof_O 	O 	0.0447	0.8433	0.2199	-0.403
Mof_O 	O 	0.1622	0.9153	0.4161	-0.181
Mof_C 	C 	0.1702	0.8526	0.4604	-0.037
Mof_C 	C 	0.0586	0.8266	0.2554	0.33
Mof_C 	C 	0.093	0.8513	0.2794	-0.016
Mof_C 	C 	0.1061	0.8384	0.321	-0.121
Mof_H 	H 	0.0923	0.8148	0.3347	0.108
Mof_C 	C 	0.162	0.8752	0.4172	0.189
Mof_O 	O 	0.4549	0.7086	0.7725	-0.386
Mof_O 	O 	0.4553	0.6567	0.7199	-0.397
Mof_O 	O 	0.3378	0.5847	0.9161	-0.177
Mof_C 	C 	0.3298	0.6474	0.9604	-0.013
Mof_C 	C 	0.4414	0.6734	0.7554	0.33
Mof_C 	C 	0.407	0.6487	0.7794	-0.014
Mof_C 	C 	0.3939	0.6616	0.821	-0.121
Mof_H 	H 	0.4077	0.6852	0.8347	0.111
Mof_C 	C 	0.338	0.6248	0.9172	0.184
Mof_O 	O 	0.9549	0.2086	0.2725	-0.372
Mof_O 	O 	0.9553	0.1567	0.2199	-0.385
Mof_O 	O 	0.8378	0.0847	0.4161	-0.192
Mof_C 	C 	0.8298	0.1474	0.4604	-0.037
Mof_C 	C 	0.9414	0.1734	0.2554	0.328
Mof_C 	C 	0.907	0.1487	0.2794	-0.011
Mof_C 	C 	0.8939	0.1616	0.321	-0.122
Mof_H 	H 	0.9077	0.1852	0.3347	0.113
Mof_C 	C 	0.838	0.1248	0.4172	0.191
Mof_O 	O 	0.4549	0.2914	0.2275	-0.387
Mof_O 	O 	0.4553	0.3433	0.2801	-0.397
Mof_O 	O 	0.3378	0.4153	0.0839	-0.19
Mof_C 	C 	0.3298	0.3526	0.0396	-0.027
Mof_C 	C 	0.4414	0.3266	0.2446	0.33
Mof_C 	C 	0.407	0.3513	0.2206	-0.015
Mof_C 	C 	0.3939	0.3384	0.179	-0.12
Mof_H 	H 	0.4077	0.3148	0.1653	0.11
Mof_C 	C 	0.338	0.3752	0.0828	0.185
Mof_O 	O 	0.9549	0.7914	0.7275	-0.371
Mof_O 	O 	0.9553	0.8433	0.7801	-0.379
Mof_O 	O 	0.8378	0.9153	0.5839	-0.177
Mof_C 	C 	0.8298	0.8526	0.5396	-0.034
Mof_C 	C 	0.9414	0.8266	0.7446	0.325
Mof_C 	C 	0.907	0.8513	0.7206	-0.004
Mof_C 	C 	0.8939	0.8384	0.679	-0.126
Mof_H 	H 	0.9077	0.8148	0.6653	0.115
Mof_C 	C 	0.838	0.8752	0.5828	0.189
Mof_Cu	Cu	6.88615e-34	0.18366	0.18366	0.896
Mof_Cu	Cu	2.71398e-33	0.24516	0.24516	0.909
Mof_N 	N 	1.10607e-33	0.295	0.295	-0.204
Mof_Cu	Cu	0.5	0.68366	0.68366	0.911
Mof_Cu	Cu	0.5	0.74516	0.74516	0.922
Mof_N 	N 	0.5	0.795	0.795	-0.186
Mof_Cu	Cu	1.50469e-32	0.81634	0.18366	0.897
Mof_Cu	Cu	1.34827e-32	0.75484	0.24516	0.909
Mof_N 	N 	1.18748e-32	0.705	0.295	-0.204
Mof_Cu	Cu	0.5	0.31634	0.68366	0.911
Mof_Cu	Cu	0.5	0.25484	0.74516	0.922
Mof_N 	N 	0.5	0.205	0.795	-0.187
Mof_Cu	Cu	1.7419e-32	0.18366	0.81634	0.897
Mof_Cu	Cu	1.00093e-32	0.24516	0.75484	0.909
Mof_N 	N 	9.82245e-33	0.295	0.705	-0.204
Mof_Cu	Cu	0.5	0.68366	0.31634	0.911
Mof_Cu	Cu	0.5	0.74516	0.25484	0.922
Mof_N 	N 	0.5	0.795	0.205	-0.187
Mof_Cu	Cu	1.7419e-32	0.81634	0.81634	0.899
Mof_Cu	Cu	1.71884e-32	0.75484	0.75484	0.909
Mof_N 	N 	1.70016e-32	0.705	0.705	-0.205
Mof_Cu	Cu	0.5	0.31634	0.31634	0.911
Mof_Cu	Cu	0.5	0.25484	0.25484	0.922
Mof_N 	N 	0.5	0.205	0.205	-0.188
Mof_Cu	Cu	0.18366	0	0.18366	0.896
Mof_Cu	Cu	0.24516	1.79478e-33	0.24516	0.909
Mof_N 	N 	0.295	0	0.295	-0.204
Mof_Cu	Cu	0.68366	0.5	0.68366	0.911
Mof_Cu	Cu	0.74516	0.5	0.74516	0.922
Mof_N 	N 	0.795	0.5	0.795	-0.186
Mof_Cu	Cu	0.18366	7.17912e-33	0.81634	0.897
Mof_Cu	Cu	0.24516	7.17912e-33	0.75484	0.909
Mof_N 	N 	0.295	7.17912e-33	0.705	-0.204
Mof_Cu	Cu	0.68366	0.5	0.31634	0.911
Mof_Cu	Cu	0.74516	0.5	0.25484	0.922
Mof_N 	N 	0.795	0.5	0.205	-0.187
Mof_Cu	Cu	0.81634	0	0.18366	0.897
Mof_Cu	Cu	0.75484	1.79478e-33	0.24516	0.909
Mof_N 	N 	0.705	0	0.295	-0.204
Mof_Cu	Cu	0.31634	0.5	0.68366	0.911
Mof_Cu	Cu	0.25484	0.5	0.74516	0.922
Mof_N 	N 	0.205	0.5	0.795	-0.187
Mof_Cu	Cu	0.81634	7.17912e-33	0.81634	0.899
Mof_Cu	Cu	0.75484	7.17912e-33	0.75484	0.909
Mof_N 	N 	0.705	7.17912e-33	0.705	-0.205
Mof_Cu	Cu	0.31634	0.5	0.31634	0.911
Mof_Cu	Cu	0.25484	0.5	0.25484	0.922
Mof_N 	N 	0.205	0.5	0.205	-0.188
Mof_Cu	Cu	0.18366	0.18366	-0	0.896
Mof_Cu	Cu	0.24516	0.24516	-0	0.909
Mof_N 	N 	0.295	0.295	-0	-0.204
Mof_Cu	Cu	0.68366	0.68366	0.5	0.911
Mof_Cu	Cu	0.74516	0.74516	0.5	0.922
Mof_N 	N 	0.795	0.795	0.5	-0.186
Mof_Cu	Cu	0.81634	0.18366	-0	0.897
Mof_Cu	Cu	0.75484	0.24516	-0	0.909
Mof_N 	N 	0.705	0.295	-0	-0.204
Mof_Cu	Cu	0.31634	0.68366	0.5	0.911
Mof_Cu	Cu	0.25484	0.74516	0.5	0.922
Mof_N 	N 	0.205	0.795	0.5	-0.187
Mof_Cu	Cu	0.18366	0.81634	-0	0.897
Mof_Cu	Cu	0.24516	0.75484	-0	0.909
Mof_N 	N 	0.295	0.705	-0	-0.204
Mof_Cu	Cu	0.68366	0.31634	0.5	0.911
Mof_Cu	Cu	0.74516	0.25484	0.5	0.922
Mof_N 	N 	0.795	0.205	0.5	-0.187
Mof_Cu	Cu	0.81634	0.81634	-0	0.899
Mof_Cu	Cu	0.75484	0.75484	-0	0.909
Mof_N 	N 	0.705	0.705	-0	-0.205
Mof_Cu	Cu	0.31634	0.31634	0.5	0.911
Mof_Cu	Cu	0.25484	0.25484	0.5	0.922
Mof_N 	N 	0.205	0.205	0.5	-0.188
Mof_N 	N 	0.1149	0.3477	0.3477	-0.263
Mof_H 	H 	0.1155	0.3268	0.3268	0.125
Mof_C 	C 	0.037	0.3094	0.3094	0.064
Mof_H 	H 	0.065	0.2999	0.2999	0.011
Mof_C 	C 	0.2424	0.3845	0.3845	-0.033
Mof_H 	H 	0.2713	0.3916	0.3916	0.075
Mof_C 	C 	0.1578	0.3605	0.3605	0.167
Mof_N 	N 	0.6149	0.8477	0.8477	-0.265
Mof_H 	H 	0.6155	0.8268	0.8268	0.126
Mof_C 	C 	0.537	0.8094	0.8094	0.073
Mof_H 	H 	0.565	0.7999	0.7999	0.009
Mof_C 	C 	0.7424	0.8845	0.8845	-0.04
Mof_H 	H 	0.7713	0.8916	0.8916	0.082
Mof_C 	C 	0.6578	0.8605	0.8605	0.175
Mof_N 	N 	0.8851	0.6523	0.3477	-0.263
Mof_H 	H 	0.8845	0.6732	0.3268	0.125
Mof_C 	C 	0.963	0.6906	0.3094	0.097
Mof_H 	H 	0.935	0.7001	0.2999	0.003
Mof_C 	C 	0.7576	0.6155	0.3845	-0.034
Mof_H 	H 	0.7287	0.6084	0.3916	0.075
Mof_C 	C 	0.8422	0.6395	0.3605	0.169
Mof_N 	N 	0.3851	0.1523	0.8477	-0.266
Mof_H 	H 	0.3845	0.1732	0.8268	0.126
Mof_C 	C 	0.463	0.1906	0.8094	0.074
Mof_H 	H 	0.435	0.2001	0.7999	0.008
Mof_C 	C 	0.2576	0.1155	0.8845	-0.034
Mof_H 	H 	0.2287	0.1084	0.8916	0.075
Mof_C 	C 	0.3422	0.1395	0.8605	0.169
Mof_N 	N 	0.8851	0.3477	0.6523	-0.263
Mof_H 	H 	0.8845	0.3268	0.6732	0.125
Mof_C 	C 	0.963	0.3094	0.6906	0.097
Mof_H 	H 	0.935	0.2999	0.7001	0.003
Mof_C 	C 	0.7576	0.3845	0.6155	-0.034
Mof_H 	H 	0.7287	0.3916	0.6084	0.075
Mof_C 	C 	0.8422	0.3605	0.6395	0.169
Mof_N 	N 	0.3851	0.8477	0.1523	-0.266
Mof_H 	H 	0.3845	0.8268	0.1732	0.126
Mof_C 	C 	0.463	0.8094	0.1906	0.074
Mof_H 	H 	0.435	0.7999	0.2001	0.008
Mof_C 	C 	0.2576	0.8845	0.1155	-0.034
Mof_H 	H 	0.2287	0.8916	0.1084	0.075
Mof_C 	C 	0.3422	0.8605	0.1395	0.169
Mof_N 	N 	0.1149	0.6523	0.6523	-0.263
Mof_H 	H 	0.1155	0.6732	0.6732	0.125
Mof_C 	C 	0.037	0.6906	0.6906	0.064
Mof_H 	H 	0.065	0.7001	0.7001	0.01
Mof_C 	C 	0.2424	0.6155	0.6155	-0.033
Mof_H 	H 	0.2713	0.6084	0.6084	0.075
Mof_C 	C 	0.1578	0.6395	0.6395	0.167
Mof_N 	N 	0.6149	0.1523	0.1523	-0.266
Mof_H 	H 	0.6155	0.1732	0.1732	0.126
Mof_C 	C 	0.537	0.1906	0.1906	0.076
Mof_H 	H 	0.565	0.2001	0.2001	0.007
Mof_C 	C 	0.7424	0.1155	0.1155	-0.031
Mof_H 	H 	0.7713	0.1084	0.1084	0.071
Mof_C 	C 	0.6578	0.1395	0.1395	0.165
Mof_N 	N 	0.3477	0.1149	0.3477	-0.263
Mof_H 	H 	0.3268	0.1155	0.3268	0.125
Mof_C 	C 	0.3094	0.037	0.3094	0.064
Mof_H 	H 	0.2999	0.065	0.2999	0.011
Mof_C 	C 	0.3845	0.2424	0.3845	-0.033
Mof_H 	H 	0.3916	0.2713	0.3916	0.075
Mof_C 	C 	0.3605	0.1578	0.3605	0.167
Mof_N 	N 	0.8477	0.6149	0.8477	-0.265
Mof_H 	H 	0.8268	0.6155	0.8268	0.126
Mof_C 	C 	0.8094	0.537	0.8094	0.073
Mof_H 	H 	0.7999	0.565	0.7999	0.009
Mof_C 	C 	0.8845	0.7424	0.8845	-0.04
Mof_H 	H 	0.8916	0.7713	0.8916	0.082
Mof_C 	C 	0.8605	0.6578	0.8605	0.175
Mof_N 	N 	0.3477	0.8851	0.6523	-0.263
Mof_H 	H 	0.3268	0.8845	0.6732	0.125
Mof_C 	C 	0.3094	0.963	0.6906	0.097
Mof_H 	H 	0.2999	0.935	0.7001	0.003
Mof_C 	C 	0.3845	0.7576	0.6155	-0.034
Mof_H 	H 	0.3916	0.7287	0.6084	0.075
Mof_C 	C 	0.3605	0.8422	0.6395	0.169
Mof_N 	N 	0.8477	0.3851	0.1523	-0.266
Mof_H 	H 	0.8268	0.3845	0.1732	0.126
Mof_C 	C 	0.8094	0.463	0.1906	0.074
Mof_H 	H 	0.7999	0.435	0.2001	0.008
Mof_C 	C 	0.8845	0.2576	0.1155	-0.034
Mof_H 	H 	0.8916	0.2287	0.1084	0.075
Mof_C 	C 	0.8605	0.3422	0.1395	0.169
Mof_N 	N 	0.6523	0.8851	0.3477	-0.263
Mof_H 	H 	0.6732	0.8845	0.3268	0.125
Mof_C 	C 	0.6906	0.963	0.3094	0.097
Mof_H 	H 	0.7001	0.935	0.2999	0.003
Mof_C 	C 	0.6155	0.7576	0.3845	-0.034
Mof_H 	H 	0.6084	0.7287	0.3916	0.075
Mof_C 	C 	0.6395	0.8422	0.3605	0.169
Mof_N 	N 	0.1523	0.3851	0.8477	-0.266
Mof_H 	H 	0.1732	0.3845	0.8268	0.126
Mof_C 	C 	0.1906	0.463	0.8094	0.074
Mof_H 	H 	0.2001	0.435	0.7999	0.008
Mof_C 	C 	0.1155	0.2576	0.8845	-0.034
Mof_H 	H 	0.1084	0.2287	0.8916	0.075
Mof_C 	C 	0.1395	0.3422	0.8605	0.169
Mof_N 	N 	0.6523	0.1149	0.6523	-0.263
Mof_H 	H 	0.6732	0.1155	0.6732	0.125
Mof_C 	C 	0.6906	0.037	0.6906	0.064
Mof_H 	H 	0.7001	0.065	0.7001	0.01
Mof_C 	C 	0.6155	0.2424	0.6155	-0.033
Mof_H 	H 	0.6084	0.2713	0.6084	0.075
Mof_C 	C 	0.6395	0.1578	0.6395	0.167
Mof_N 	N 	0.1523	0.6149	0.1523	-0.266
Mof_H 	H 	0.1732	0.6155	0.1732	0.126
Mof_C 	C 	0.1906	0.537	0.1906	0.076
Mof_H 	H 	0.2001	0.565	0.2001	0.007
Mof_C 	C 	0.1155	0.7424	0.1155	-0.031
Mof_H 	H 	0.1084	0.7713	0.1084	0.071
Mof_C 	C 	0.1395	0.6578	0.1395	0.165
Mof_N 	N 	0.3477	0.3477	0.1149	-0.263
Mof_H 	H 	0.3268	0.3268	0.1155	0.125
Mof_C 	C 	0.3094	0.3094	0.037	0.064
Mof_H 	H 	0.2999	0.2999	0.065	0.011
Mof_C 	C 	0.3845	0.3845	0.2424	-0.033
Mof_H 	H 	0.3916	0.3916	0.2713	0.075
Mof_C 	C 	0.3605	0.3605	0.1578	0.167
Mof_N 	N 	0.8477	0.8477	0.6149	-0.265
Mof_H 	H 	0.8268	0.8268	0.6155	0.126
Mof_C 	C 	0.8094	0.8094	0.537	0.073
Mof_H 	H 	0.7999	0.7999	0.565	0.009
Mof_C 	C 	0.8845	0.8845	0.7424	-0.04
Mof_H 	H 	0.8916	0.8916	0.7713	0.082
Mof_C 	C 	0.8605	0.8605	0.6578	0.175
Mof_N 	N 	0.6523	0.3477	0.8851	-0.263
Mof_H 	H 	0.6732	0.3268	0.8845	0.125
Mof_C 	C 	0.6906	0.3094	0.963	0.097
Mof_H 	H 	0.7001	0.2999	0.935	0.003
Mof_C 	C 	0.6155	0.3845	0.7576	-0.034
Mof_H 	H 	0.6084	0.3916	0.7287	0.075
Mof_C 	C 	0.6395	0.3605	0.8422	0.169
Mof_N 	N 	0.1523	0.8477	0.3851	-0.266
Mof_H 	H 	0.1732	0.8268	0.3845	0.126
Mof_C 	C 	0.1906	0.8094	0.463	0.074
Mof_H 	H 	0.2001	0.7999	0.435	0.008
Mof_C 	C 	0.1155	0.8845	0.2576	-0.034
Mof_H 	H 	0.1084	0.8916	0.2287	0.075
Mof_C 	C 	0.1395	0.8605	0.3422	0.169
Mof_N 	N 	0.3477	0.6523	0.8851	-0.263
Mof_H 	H 	0.3268	0.6732	0.8845	0.125
Mof_C 	C 	0.3094	0.6906	0.963	0.097
Mof_H 	H 	0.2999	0.7001	0.935	0.003
Mof_C 	C 	0.3845	0.6155	0.7576	-0.034
Mof_H 	H 	0.3916	0.6084	0.7287	0.075
Mof_C 	C 	0.3605	0.6395	0.8422	0.169
Mof_N 	N 	0.8477	0.1523	0.3851	-0.266
Mof_H 	H 	0.8268	0.1732	0.3845	0.126
Mof_C 	C 	0.8094	0.1906	0.463	0.074
Mof_H 	H 	0.7999	0.2001	0.435	0.008
Mof_C 	C 	0.8845	0.1155	0.2576	-0.034
Mof_H 	H 	0.8916	0.1084	0.2287	0.075
Mof_C 	C 	0.8605	0.1395	0.3422	0.169
Mof_N 	N 	0.6523	0.6523	0.1149	-0.263
Mof_H 	H 	0.6732	0.6732	0.1155	0.125
Mof_C 	C 	0.6906	0.6906	0.037	0.064
Mof_H 	H 	0.7001	0.7001	0.065	0.01
Mof_C 	C 	0.6155	0.6155	0.2424	-0.033
Mof_H 	H 	0.6084	0.6084	0.2713	0.075
Mof_C 	C 	0.6395	0.6395	0.1578	0.167
Mof_N 	N 	0.1523	0.1523	0.6149	-0.266
Mof_H 	H 	0.1732	0.1732	0.6155	0.126
Mof_C 	C 	0.1906	0.1906	0.537	0.076
Mof_H 	H 	0.2001	0.2001	0.565	0.007
Mof_C 	C 	0.1155	0.1155	0.7424	-0.031
Mof_H 	H 	0.1084	0.1084	0.7713	0.071
Mof_C 	C 	0.1395	0.1395	0.6578	0.165
Mof_N 	N 	0.3477	0.1149	0.6523	-0.263
Mof_H 	H 	0.3268	0.1155	0.6732	0.125
Mof_C 	C 	0.3094	0.037	0.6906	0.064
Mof_H 	H 	0.2999	0.065	0.7001	0.01
Mof_C 	C 	0.3845	0.2424	0.6155	-0.033
Mof_H 	H 	0.3916	0.2713	0.6084	0.075
Mof_C 	C 	0.3605	0.1578	0.6395	0.167
Mof_N 	N 	0.8477	0.6149	0.1523	-0.266
Mof_H 	H 	0.8268	0.6155	0.1732	0.126
Mof_C 	C 	0.8094	0.537	0.1906	0.074
Mof_H 	H 	0.7999	0.565	0.2001	0.008
Mof_C 	C 	0.8845	0.7424	0.1155	-0.036
Mof_H 	H 	0.8916	0.7713	0.1084	0.077
Mof_C 	C 	0.8605	0.6578	0.1395	0.17
Mof_N 	N 	0.6523	0.8851	0.6523	-0.263
Mof_H 	H 	0.6732	0.8845	0.6732	0.125
Mof_C 	C 	0.6906	0.963	0.6906	0.097
Mof_H 	H 	0.7001	0.935	0.7001	0.003
Mof_C 	C 	0.6155	0.7576	0.6155	-0.034
Mof_H 	H 	0.6084	0.7287	0.6084	0.075
Mof_C 	C 	0.6395	0.8422	0.6395	0.169
Mof_N 	N 	0.1523	0.3851	0.1523	-0.266
Mof_H 	H 	0.1732	0.3845	0.1732	0.126
Mof_C 	C 	0.1906	0.463	0.1906	0.076
Mof_H 	H 	0.2001	0.435	0.2001	0.007
Mof_C 	C 	0.1155	0.2576	0.1155	-0.03
Mof_H 	H 	0.1084	0.2287	0.1084	0.069
Mof_C 	C 	0.1395	0.3422	0.1395	0.164
Mof_N 	N 	0.3477	0.8851	0.3477	-0.263
Mof_H 	H 	0.3268	0.8845	0.3268	0.126
Mof_C 	C 	0.3094	0.963	0.3094	0.097
Mof_H 	H 	0.2999	0.935	0.2999	0.003
Mof_C 	C 	0.3845	0.7576	0.3845	-0.034
Mof_H 	H 	0.3916	0.7287	0.3916	0.075
Mof_C 	C 	0.3605	0.8422	0.3605	0.169
Mof_N 	N 	0.8477	0.3851	0.8477	-0.265
Mof_H 	H 	0.8268	0.3845	0.8268	0.126
Mof_C 	C 	0.8094	0.463	0.8094	0.073
Mof_H 	H 	0.7999	0.435	0.7999	0.009
Mof_C 	C 	0.8845	0.2576	0.8845	-0.039
Mof_H 	H 	0.8916	0.2287	0.8916	0.081
Mof_C 	C 	0.8605	0.3422	0.8605	0.174
Mof_N 	N 	0.6523	0.1149	0.3477	-0.263
Mof_H 	H 	0.6732	0.1155	0.3268	0.125
Mof_C 	C 	0.6906	0.037	0.3094	0.064
Mof_H 	H 	0.7001	0.065	0.2999	0.01
Mof_C 	C 	0.6155	0.2424	0.3845	-0.033
Mof_H 	H 	0.6084	0.2713	0.3916	0.075
Mof_C 	C 	0.6395	0.1578	0.3605	0.167
Mof_N 	N 	0.1523	0.6149	0.8477	-0.266
Mof_H 	H 	0.1732	0.6155	0.8268	0.126
Mof_C 	C 	0.1906	0.537	0.8094	0.074
Mof_H 	H 	0.2001	0.565	0.7999	0.008
Mof_C 	C 	0.1155	0.7424	0.8845	-0.036
Mof_H 	H 	0.1084	0.7713	0.8916	0.077
Mof_C 	C 	0.1395	0.6578	0.8605	0.17
Mof_N 	N 	0.1149	0.3477	0.6523	-0.263
Mof_H 	H 	0.1155	0.3268	0.6732	0.125
Mof_C 	C 	0.037	0.3094	0.6906	0.064
Mof_H 	H 	0.065	0.2999	0.7001	0.01
Mof_C 	C 	0.2424	0.3845	0.6155	-0.033
Mof_H 	H 	0.2713	0.3916	0.6084	0.075
Mof_C 	C 	0.1578	0.3605	0.6395	0.167
Mof_N 	N 	0.6149	0.8477	0.1523	-0.266
Mof_H 	H 	0.6155	0.8268	0.1732	0.126
Mof_C 	C 	0.537	0.8094	0.1906	0.074
Mof_H 	H 	0.565	0.7999	0.2001	0.008
Mof_C 	C 	0.7424	0.8845	0.1155	-0.036
Mof_H 	H 	0.7713	0.8916	0.1084	0.077
Mof_C 	C 	0.6578	0.8605	0.1395	0.17
Mof_N 	N 	0.8851	0.3477	0.3477	-0.263
Mof_H 	H 	0.8845	0.3268	0.3268	0.126
Mof_C 	C 	0.963	0.3094	0.3094	0.097
Mof_H 	H 	0.935	0.2999	0.2999	0.003
Mof_C 	C 	0.7576	0.3845	0.3845	-0.034
Mof_H 	H 	0.7287	0.3916	0.3916	0.075
Mof_C 	C 	0.8422	0.3605	0.3605	0.169
Mof_N 	N 	0.3851	0.8477	0.8477	-0.265
Mof_H 	H 	0.3845	0.8268	0.8268	0.126
Mof_C 	C 	0.463	0.8094	0.8094	0.073
Mof_H 	H 	0.435	0.7999	0.7999	0.009
Mof_C 	C 	0.2576	0.8845	0.8845	-0.039
Mof_H 	H 	0.2287	0.8916	0.8916	0.081
Mof_C 	C 	0.3422	0.8605	0.8605	0.174
Mof_N 	N 	0.8851	0.6523	0.6523	-0.263
Mof_H 	H 	0.8845	0.6732	0.6732	0.125
Mof_C 	C 	0.963	0.6906	0.6906	0.097
Mof_H 	H 	0.935	0.7001	0.7001	0.003
Mof_C 	C 	0.7576	0.6155	0.6155	-0.034
Mof_H 	H 	0.7287	0.6084	0.6084	0.075
Mof_C 	C 	0.8422	0.6395	0.6395	0.169
Mof_N 	N 	0.3851	0.1523	0.1523	-0.266
Mof_H 	H 	0.3845	0.1732	0.1732	0.126
Mof_C 	C 	0.463	0.1906	0.1906	0.076
Mof_H 	H 	0.435	0.2001	0.2001	0.007
Mof_C 	C 	0.2576	0.1155	0.1155	-0.03
Mof_H 	H 	0.2287	0.1084	0.1084	0.069
Mof_C 	C 	0.3422	0.1395	0.1395	0.164
Mof_N 	N 	0.1149	0.6523	0.3477	-0.263
Mof_H 	H 	0.1155	0.6732	0.3268	0.125
Mof_C 	C 	0.037	0.6906	0.3094	0.064
Mof_H 	H 	0.065	0.7001	0.2999	0.01
Mof_C 	C 	0.2424	0.6155	0.3845	-0.033
Mof_H 	H 	0.2713	0.6084	0.3916	0.075
Mof_C 	C 	0.1578	0.6395	0.3605	0.167
Mof_N 	N 	0.6149	0.1523	0.8477	-0.266
Mof_H 	H 	0.6155	0.1732	0.8268	0.126
Mof_C 	C 	0.537	0.1906	0.8094	0.074
Mof_H 	H 	0.565	0.2001	0.7999	0.008
Mof_C 	C 	0.7424	0.1155	0.8845	-0.036
Mof_H 	H 	0.7713	0.1084	0.8916	0.077
Mof_C 	C 	0.6578	0.1395	0.8605	0.17
Mof_N 	N 	0.3477	0.3477	0.8851	-0.263
Mof_H 	H 	0.3268	0.3268	0.8845	0.126
Mof_C 	C 	0.3094	0.3094	0.963	0.097
Mof_H 	H 	0.2999	0.2999	0.935	0.003
Mof_C 	C 	0.3845	0.3845	0.7576	-0.034
Mof_H 	H 	0.3916	0.3916	0.7287	0.075
Mof_C 	C 	0.3605	0.3605	0.8422	0.169
Mof_N 	N 	0.8477	0.8477	0.3851	-0.265
Mof_H 	H 	0.8268	0.8268	0.3845	0.126
Mof_C 	C 	0.8094	0.8094	0.463	0.073
Mof_H 	H 	0.7999	0.7999	0.435	0.009
Mof_C 	C 	0.8845	0.8845	0.2576	-0.039
Mof_H 	H 	0.8916	0.8916	0.2287	0.081
Mof_C 	C 	0.8605	0.8605	0.3422	0.174
Mof_N 	N 	0.3477	0.6523	0.1149	-0.263
Mof_H 	H 	0.3268	0.6732	0.1155	0.125
Mof_C 	C 	0.3094	0.6906	0.037	0.064
Mof_H 	H 	0.2999	0.7001	0.065	0.01
Mof_C 	C 	0.3845	0.6155	0.2424	-0.033
Mof_H 	H 	0.3916	0.6084	0.2713	0.075
Mof_C 	C 	0.3605	0.6395	0.1578	0.167
Mof_N 	N 	0.8477	0.1523	0.6149	-0.266
Mof_H 	H 	0.8268	0.1732	0.6155	0.126
Mof_C 	C 	0.8094	0.1906	0.537	0.074
Mof_H 	H 	0.7999	0.2001	0.565	0.008
Mof_C 	C 	0.8845	0.1155	0.7424	-0.036
Mof_H 	H 	0.8916	0.1084	0.7713	0.077
Mof_C 	C 	0.8605	0.1395	0.6578	0.17
Mof_N 	N 	0.6523	0.3477	0.1149	-0.263
Mof_H 	H 	0.6732	0.3268	0.1155	0.125
Mof_C 	C 	0.6906	0.3094	0.037	0.064
Mof_H 	H 	0.7001	0.2999	0.065	0.01
Mof_C 	C 	0.6155	0.3845	0.2424	-0.033
Mof_H 	H 	0.6084	0.3916	0.2713	0.075
Mof_C 	C 	0.6395	0.3605	0.1578	0.167
Mof_N 	N 	0.1523	0.8477	0.6149	-0.266
Mof_H 	H 	0.1732	0.8268	0.6155	0.126
Mof_C 	C 	0.1906	0.8094	0.537	0.074
Mof_H 	H 	0.2001	0.7999	0.565	0.008
Mof_C 	C 	0.1155	0.8845	0.7424	-0.036
Mof_H 	H 	0.1084	0.8916	0.7713	0.077
Mof_C 	C 	0.1395	0.8605	0.6578	0.17
Mof_N 	N 	0.6523	0.6523	0.8851	-0.263
Mof_H 	H 	0.6732	0.6732	0.8845	0.125
Mof_C 	C 	0.6906	0.6906	0.963	0.097
Mof_H 	H 	0.7001	0.7001	0.935	0.003
Mof_C 	C 	0.6155	0.6155	0.7576	-0.034
Mof_H 	H 	0.6084	0.6084	0.7287	0.075
Mof_C 	C 	0.6395	0.6395	0.8422	0.169
Mof_N 	N 	0.1523	0.1523	0.3851	-0.266
Mof_H 	H 	0.1732	0.1732	0.3845	0.126
Mof_C 	C 	0.1906	0.1906	0.463	0.076
Mof_H 	H 	0.2001	0.2001	0.435	0.007
Mof_C 	C 	0.1155	0.1155	0.2576	-0.03
Mof_H 	H 	0.1084	0.1084	0.2287	0.069
Mof_C 	C 	0.1395	0.1395	0.3422	0.164
Mof_H 	H 	4.92922e-33	0.389	0.3573	0.091
Mof_C 	C 	8.45467e-33	0.3714	0.3402	-0.072
Mof_H 	H 	0.5	0.889	0.8573	0.084
Mof_C 	C 	0.5	0.8714	0.8402	-0.032
Mof_H 	H 	4.92922e-33	0.611	0.3573	0.091
Mof_C 	C 	-2.31401e-33	0.6286	0.3402	-0.072
Mof_H 	H 	0.5	0.111	0.8573	0.08
Mof_C 	C 	0.5	0.1286	0.8402	-0.034
Mof_H 	H 	-4.76938e-33	0.389	0.6427	0.091
Mof_C 	C 	2.47385e-33	0.3714	0.6598	-0.072
Mof_H 	H 	0.5	0.889	0.1427	0.077
Mof_C 	C 	0.5	0.8714	0.1598	-0.024
Mof_H 	H 	2.40974e-33	0.611	0.6427	0.091
Mof_C 	C 	-4.70527e-33	0.6286	0.6598	-0.072
Mof_H 	H 	0.5	0.111	0.1427	0.073
Mof_C 	C 	0.5	0.1286	0.1598	-0.026
Mof_H 	H 	0.3573	3.58956e-33	0.389	0.091
Mof_C 	C 	0.3402	3.58956e-33	0.3714	-0.072
Mof_H 	H 	0.8573	0.5	0.889	0.084
Mof_C 	C 	0.8402	0.5	0.8714	-0.032
Mof_H 	H 	0.3573	0	0.611	0.091
Mof_C 	C 	0.3402	0	0.6286	-0.072
Mof_H 	H 	0.8573	0.5	0.111	0.08
Mof_C 	C 	0.8402	0.5	0.1286	-0.034
Mof_H 	H 	0.6427	3.58956e-33	0.389	0.091
Mof_C 	C 	0.6598	3.58956e-33	0.3714	-0.072
Mof_H 	H 	0.1427	0.5	0.889	0.077
Mof_C 	C 	0.1598	0.5	0.8714	-0.024
Mof_H 	H 	0.6427	0	0.611	0.091
Mof_C 	C 	0.6598	0	0.6286	-0.072
Mof_H 	H 	0.1427	0.5	0.111	0.073
Mof_C 	C 	0.1598	0.5	0.1286	-0.026
Mof_H 	H 	0.389	0.3573	-0	0.091
Mof_C 	C 	0.3714	0.3402	-0	-0.072
Mof_H 	H 	0.889	0.8573	0.5	0.084
Mof_C 	C 	0.8714	0.8402	0.5	-0.032
Mof_H 	H 	0.611	0.3573	-0	0.091
Mof_C 	C 	0.6286	0.3402	-0	-0.072
Mof_H 	H 	0.111	0.8573	0.5	0.08
Mof_C 	C 	0.1286	0.8402	0.5	-0.034
Mof_H 	H 	0.389	0.6427	-0	0.091
Mof_C 	C 	0.3714	0.6598	-0	-0.072
Mof_H 	H 	0.889	0.1427	0.5	0.077
Mof_C 	C 	0.8714	0.1598	0.5	-0.024
Mof_H 	H 	0.611	0.6427	-0	0.091
Mof_C 	C 	0.6286	0.6598	-0	-0.072
Mof_H 	H 	0.111	0.1427	0.5	0.073
Mof_C 	C 	0.1286	0.1598	0.5	-0.026
Mof_H 	H 	0.389	0	0.6427	0.091
Mof_C 	C 	0.3714	0	0.6598	-0.072
Mof_H 	H 	0.889	0.5	0.1427	0.077
Mof_C 	C 	0.8714	0.5	0.1598	-0.024
Mof_H 	H 	0.611	0	0.6427	0.091
Mof_C 	C 	0.6286	0	0.6598	-0.072
Mof_H 	H 	0.111	0.5	0.1427	0.073
Mof_C 	C 	0.1286	0.5	0.1598	-0.026
Mof_H 	H 	0.389	0	0.3573	0.091
Mof_C 	C 	0.3714	0	0.3402	-0.072
Mof_H 	H 	0.889	0.5	0.8573	0.084
Mof_C 	C 	0.8714	0.5	0.8402	-0.032
Mof_H 	H 	0.611	0	0.3573	0.091
Mof_C 	C 	0.6286	0	0.3402	-0.072
Mof_H 	H 	0.111	0.5	0.8573	0.08
Mof_C 	C 	0.1286	0.5	0.8402	-0.034
Mof_H 	H 	2.29088e-33	0.3573	0.611	0.091
Mof_C 	C 	-4.82225e-33	0.3402	0.6286	-0.072
Mof_H 	H 	0.5	0.8573	0.111	0.08
Mof_C 	C 	0.5	0.8402	0.1286	-0.034
Mof_H 	H 	5.04808e-33	0.3573	0.389	0.091
Mof_C 	C 	8.57165e-33	0.3402	0.3714	-0.072
Mof_H 	H 	0.5	0.8573	0.889	0.084
Mof_C 	C 	0.5	0.8402	0.8714	-0.032
Mof_H 	H 	2.29088e-33	0.6427	0.611	0.091
Mof_C 	C 	-4.82225e-33	0.6598	0.6286	-0.072
Mof_H 	H 	0.5	0.1427	0.111	0.073
Mof_C 	C 	0.5	0.1598	0.1286	-0.026
Mof_H 	H 	1.45852e-33	0.6427	0.389	0.091
Mof_C 	C 	4.98209e-33	0.6598	0.3714	-0.072
Mof_H 	H 	0.5	0.1427	0.889	0.077
Mof_C 	C 	0.5	0.1598	0.8714	-0.024
Mof_H 	H 	0.3573	0.389	-0	0.091
Mof_C 	C 	0.3402	0.3714	-0	-0.072
Mof_H 	H 	0.8573	0.889	0.5	0.084
Mof_C 	C 	0.8402	0.8714	0.5	-0.032
Mof_H 	H 	0.3573	0.611	-0	0.091
Mof_C 	C 	0.3402	0.6286	-0	-0.072
Mof_H 	H 	0.8573	0.111	0.5	0.08
Mof_C 	C 	0.8402	0.1286	0.5	-0.034
Mof_H 	H 	0.6427	0.389	-0	0.091
Mof_C 	C 	0.6598	0.3714	-0	-0.072
Mof_H 	H 	0.1427	0.889	0.5	0.077
Mof_C 	C 	0.1598	0.8714	0.5	-0.024
Mof_H 	H 	0.6427	0.611	-0	0.091
Mof_C 	C 	0.6598	0.6286	-0	-0.072
Mof_H 	H 	0.1427	0.111	0.5	0.073
Mof_C 	C 	0.1598	0.1286	0.5	-0.026
_end
