data_functionalizedCrystal
_audit_creation_method	'EQeq! by Chris Wilmer'
_symmetry_space_group_name_H-M	'P1'
_symmetry_Int_Tables_number	1
_symmetry_cell_setting	triclinic
loop_
_symmetry_equiv_pos_as_xyz
  x,y,z
_cell_length_a	6.682
_cell_length_b	11.0483
_cell_length_c	17.638
_cell_angle_alpha	107.833
_cell_angle_beta	90
_cell_angle_gamma	90
loop_
_atom_site_label
_atom_site_type_symbol
_atom_site_fract_x
_atom_site_fract_y
_atom_site_fract_z
_atom_site_charge
Mof_Cd	Cd	0.99647	0.53468	0.40973	0.456
Mof_Cd	Cd	0.50353	0.53468	0.90973	0.456
Mof_Cd	Cd	0.49647	0.46532	0.09027	0.442
Mof_Cd	Cd	0.5	0.5	0.5	0.512
Mof_Cd	Cd	-1.01825e-32	0.5	-0	0.481
Mof_Cd	Cd	0.00353	0.46532	0.59027	0.439
Mof_H 	H 	0.693	0.358	0.952	0.264
Mof_H 	H 	0.6551	0.1698	0.2948	0.045
Mof_H 	H 	0.6161	0.1498	0.4433	0.058
Mof_H 	H 	0.807	0.358	0.452	0.264
Mof_H 	H 	0.2662	0.9973	0.8166	0.04
Mof_H 	H 	0.0098	0.0616	0.4222	0.052
Mof_H 	H 	0.4902	0.0616	0.9222	0.086
Mof_H 	H 	0.9902	0.9384	0.5778	0.095
Mof_H 	H 	0.8839	0.1498	0.9433	0.035
Mof_H 	H 	0.3839	0.8502	0.5567	0.051
Mof_H 	H 	0.2338	0.9973	0.3166	0.058
Mof_H 	H 	0.5098	0.9384	0.0778	0.059
Mof_H 	H 	0.8719	0.7893	0.8032	0.075
Mof_H 	H 	0.3449	0.8302	0.7052	0.054
Mof_H 	H 	0.6281	0.7893	0.3032	0.063
Mof_H 	H 	0.1161	0.8502	0.0567	0.077
Mof_H 	H 	0.1281	0.2107	0.1968	0.058
Mof_H 	H 	0.7338	0.0027	0.1834	0.055
Mof_H 	H 	0.7662	0.0027	0.6834	0.037
Mof_H 	H 	0.8449	0.1698	0.7948	0.055
Mof_H 	H 	0.307	0.642	0.048	0.261
Mof_H 	H 	0.193	0.642	0.548	0.262
Mof_H 	H 	0.3719	0.2107	0.6968	0.071
Mof_H 	H 	0.1551	0.8302	0.2052	0.045
Mof_C 	C 	0.3823	0.2075	0.2573	-0.073
Mof_C 	C 	0.4781	0.0062	0.1224	-0.05
Mof_C 	C 	0.6676	0.7448	0.4558	0.317
Mof_C 	C 	0.4351	0.8555	0.7472	-0.04
Mof_C 	C 	0.297	0.07	0.1261	-0.001
Mof_C 	C 	0.4189	0.1225	0.5237	-0.06
Mof_C 	C 	0.6745	0.6847	0.6699	0.331
Mof_C 	C 	0.9781	0.9938	0.3776	-0.028
Mof_C 	C 	0.1121	0.9554	0.314	-0.055
Mof_C 	C 	0.1177	0.2075	0.7573	-0.057
Mof_C 	C 	0.0811	0.1225	0.0237	-0.133
Mof_C 	C 	0.1745	0.3153	0.8301	0.333
Mof_C 	C 	0.703	0.93	0.8739	0.056
Mof_C 	C 	0.3324	0.2552	0.5442	0.312
Mof_C 	C 	0.203	0.07	0.6261	0.047
Mof_C 	C 	0.2497	0.1692	0.6939	-0.06
Mof_C 	C 	0.8879	0.0446	0.686	0.01
Mof_C 	C 	0.0691	0.9109	0.0343	-0.126
Mof_C 	C 	0.9351	0.1445	0.7528	-0.033
Mof_C 	C 	0.6121	0.0446	0.186	-0.041
Mof_C 	C 	0.3255	0.3153	0.3301	0.341
Mof_C 	C 	0.5219	0.9938	0.8776	-0.095
Mof_C 	C 	0.8255	0.6847	0.1699	0.336
Mof_C 	C 	0.0219	0.0062	0.6224	-0.118
Mof_C 	C 	0.8324	0.7448	0.9558	0.293
Mof_C 	C 	0.9309	0.0891	0.9657	0.039
Mof_C 	C 	0.1676	0.2552	0.0442	0.333
Mof_C 	C 	0.7503	0.8308	0.3061	-0.038
Mof_C 	C 	0.5649	0.1445	0.2528	-0.01
Mof_C 	C 	0.5811	0.8775	0.4763	-0.072
Mof_C 	C 	0.4309	0.9109	0.5343	-0.032
Mof_C 	C 	0.2503	0.1692	0.1939	-0.028
Mof_C 	C 	0.5691	0.0891	0.4657	-0.047
Mof_C 	C 	0.9189	0.8775	0.9763	0.004
Mof_C 	C 	0.8823	0.7925	0.2427	-0.058
Mof_C 	C 	0.797	0.93	0.3739	0.01
Mof_C 	C 	0.6496	0.9669	0.4407	0.033
Mof_C 	C 	0.3504	0.0331	0.5593	0.012
Mof_C 	C 	0.8504	0.9669	0.9407	-0.023
Mof_C 	C 	0.3879	0.9554	0.814	-0.004
Mof_C 	C 	0.7497	0.8308	0.8061	-0.067
Mof_C 	C 	0.6177	0.7925	0.7427	-0.047
Mof_C 	C 	0.0649	0.8555	0.2472	-0.022
Mof_C 	C 	0.1496	0.0331	0.0593	0.071
Mof_O 	O 	0.8141	0.4316	0.47823	-0.449
Mof_O 	O 	0.4448	0.3415	0.3872	-0.301
Mof_O 	O 	0.1487	0.2673	0.53856	-0.289
Mof_O 	O 	0.5552	0.6585	0.6128	-0.298
Mof_O 	O 	0.0552	0.3415	0.8872	-0.293
Mof_O 	O 	0.4563	0.3451	0.5653	-0.279
Mof_O 	O 	0.3513	0.2673	0.03856	-0.3
Mof_O 	O 	0.1637	0.3673	0.3297	-0.311
Mof_O 	O 	0.1859	0.5684	0.52177	-0.454
Mof_O 	O 	0.9563	0.6549	0.9347	-0.261
Mof_O 	O 	0.0437	0.3451	0.0653	-0.292
Mof_O 	O 	0.3363	0.3673	0.8297	-0.303
Mof_O 	O 	0.9448	0.6585	0.1128	-0.295
Mof_O 	O 	0.6637	0.6327	0.1703	-0.305
Mof_O 	O 	0.6859	0.4316	0.97823	-0.433
Mof_O 	O 	0.8513	0.7327	0.46144	-0.287
Mof_O 	O 	0.5437	0.6549	0.4347	-0.282
Mof_O 	O 	0.3141	0.5684	0.02177	-0.46
Mof_O 	O 	0.8363	0.6327	0.6703	-0.299
Mof_O 	O 	0.6487	0.7327	0.96144	-0.275
_end
