# CIF file generated by openbabel 3.1.0, see https://openbabel.org
data_I
_chemical_name_common 'XEZPUP_clean'
_cell_length_a 9.987
_cell_length_b 11.664
_cell_length_c 22.771
_cell_angle_alpha 90
_cell_angle_beta 90
_cell_angle_gamma 100.588
_space_group_name_H-M_alt 'P 1'
_space_group_name_Hall 'P 1'
loop_
    _symmetry_equiv_pos_as_xyz
    x,y,z
loop_
    _atom_site_label
    _atom_site_type_symbol
    _atom_site_fract_x
    _atom_site_fract_y
    _atom_site_fract_z
    _atom_site_occupancy
    Mn1      Mn       0.58444    0.88356    0.94987    1.000
    Mn2      Mn       0.41556    0.61644    0.44987    1.000
    Mn3      Mn       0.41556    0.11644    0.05013    1.000
    Mn4      Mn       0.58444    0.38356    0.55013    1.000
    H1       H        0.85450    0.01390    0.00460    1.000
    H2       H        0.01060    0.18200    0.00670    1.000
    H3       H        0.79670    0.30730    0.88150    1.000
    H4       H        0.64600    0.13480    0.88380    1.000
    H5       H        0.00030    0.43450    0.91720    1.000
    H6       H        0.15040    0.34880    0.00130    1.000
    H7       H        0.34110    0.48750    0.04050    1.000
    H8       H        0.49680    0.65860    0.03320    1.000
    H9       H        0.31460    0.75110    0.89730    1.000
    H10      H        0.15290    0.58590    0.90140    1.000
    H11      H        0.01090    0.81030    0.88110    1.000
    H12      H        0.15250    0.74630    0.81430    1.000
    H13      H        0.69290    0.62930    0.79760    1.000
    H14      H        0.10950    0.49720    0.80850    1.000
    H15      H        0.25960    0.47660    0.80210    1.000
    H16      H        0.13940    0.38850    0.77390    1.000
    H17      H        0.32850    0.45720    0.69070    1.000
    H18      H        0.20590    0.69020    0.58790    1.000
    H19      H        0.06030    0.72780    0.65940    1.000
    H20      H        0.14550    0.48610    0.50460    1.000
    H21      H        0.98940    0.31800    0.50670    1.000
    H22      H        0.20330    0.19270    0.38150    1.000
    H23      H        0.35400    0.36520    0.38380    1.000
    H24      H        0.99970    0.06550    0.41720    1.000
    H25      H        0.84960    0.15120    0.50130    1.000
    H26      H        0.65890    0.01250    0.54050    1.000
    H27      H        0.50320    0.84140    0.53320    1.000
    H28      H        0.68540    0.74890    0.39730    1.000
    H29      H        0.84710    0.91410    0.40140    1.000
    H30      H        0.98910    0.68970    0.38110    1.000
    H31      H        0.84750    0.75370    0.31430    1.000
    H32      H        0.30710    0.87070    0.29760    1.000
    H33      H        0.89050    0.00280    0.30850    1.000
    H34      H        0.74040    0.02340    0.30210    1.000
    H35      H        0.86060    0.11150    0.27390    1.000
    H36      H        0.67150    0.04280    0.19070    1.000
    H37      H        0.79410    0.80980    0.08790    1.000
    H38      H        0.93970    0.77220    0.15940    1.000
    H39      H        0.14550    0.98610    0.99540    1.000
    H40      H        0.98940    0.81800    0.99330    1.000
    H41      H        0.20330    0.69270    0.11850    1.000
    H42      H        0.35400    0.86520    0.11620    1.000
    H43      H        0.99970    0.56550    0.08280    1.000
    H44      H        0.84960    0.65120    0.99870    1.000
    H45      H        0.65890    0.51250    0.95950    1.000
    H46      H        0.50320    0.34140    0.96680    1.000
    H47      H        0.68540    0.24890    0.10270    1.000
    H48      H        0.84710    0.41410    0.09860    1.000
    H49      H        0.98910    0.18970    0.11890    1.000
    H50      H        0.84750    0.25370    0.18570    1.000
    H51      H        0.30710    0.37070    0.20240    1.000
    H52      H        0.89050    0.50280    0.19150    1.000
    H53      H        0.74040    0.52340    0.19790    1.000
    H54      H        0.86060    0.61150    0.22610    1.000
    H55      H        0.67150    0.54280    0.30930    1.000
    H56      H        0.79410    0.30980    0.41210    1.000
    H57      H        0.93970    0.27220    0.34060    1.000
    H58      H        0.85450    0.51390    0.49540    1.000
    H59      H        0.01060    0.68200    0.49330    1.000
    H60      H        0.79670    0.80730    0.61850    1.000
    H61      H        0.64600    0.63480    0.61620    1.000
    H62      H        0.00030    0.93450    0.58280    1.000
    H63      H        0.15040    0.84880    0.49870    1.000
    H64      H        0.34110    0.98750    0.45950    1.000
    H65      H        0.49680    0.15860    0.46680    1.000
    H66      H        0.31460    0.25110    0.60270    1.000
    H67      H        0.15290    0.08590    0.59860    1.000
    H68      H        0.01090    0.31030    0.61890    1.000
    H69      H        0.15250    0.24630    0.68570    1.000
    H70      H        0.69290    0.12930    0.70240    1.000
    H71      H        0.10950    0.99720    0.69150    1.000
    H72      H        0.25960    0.97660    0.69790    1.000
    H73      H        0.13940    0.88850    0.72610    1.000
    H74      H        0.32850    0.95720    0.80930    1.000
    H75      H        0.20590    0.19020    0.91210    1.000
    H76      H        0.06030    0.22780    0.84060    1.000
    C1       C        0.84270    0.07390    0.97940    1.000
    C2       C        0.93670    0.17490    0.98120    1.000
    C3       C        0.92100    0.26610    0.94490    1.000
    C4       C        0.81040    0.24890    0.90740    1.000
    C5       C        0.72090    0.14430    0.90880    1.000
    C6       C        0.01930    0.37780    0.94300    1.000
    C7       C        0.13160    0.40420    0.97460    1.000
    C8       C        0.22830    0.51420    0.97060    1.000
    C9       C        0.33310    0.53960    0.01040    1.000
    C10      C        0.42720    0.64290    0.00560    1.000
    C11      C        0.32050    0.69670    0.92660    1.000
    C12      C        0.22320    0.59710    0.92870    1.000
    C13      C        0.74310    0.77870    0.88510    1.000
    C14      C        0.83750    0.73060    0.84480    1.000
    C15      C        0.97410    0.76220    0.85040    1.000
    C16      C        0.05880    0.72270    0.81020    1.000
    C17      C        0.01040    0.65010    0.76450    1.000
    C18      C        0.78650    0.65440    0.80070    1.000
    C19      C        0.87240    0.61390    0.76040    1.000
    C20      C        0.10480    0.61800    0.71950    1.000
    C21      C        0.18780    0.53650    0.72930    1.000
    C22      C        0.17280    0.46900    0.78300    1.000
    C23      C        0.27450    0.51320    0.68450    1.000
    C24      C        0.28250    0.56950    0.63220    1.000
    C25      C        0.37730    0.54420    0.58500    1.000
    C26      C        0.20180    0.65020    0.62340    1.000
    C27      C        0.11480    0.67270    0.66660    1.000
    C28      C        0.15730    0.42610    0.47940    1.000
    C29      C        0.06330    0.32510    0.48120    1.000
    C30      C        0.07900    0.23390    0.44490    1.000
    C31      C        0.18960    0.25110    0.40740    1.000
    C32      C        0.27910    0.35570    0.40880    1.000
    C33      C        0.98070    0.12220    0.44300    1.000
    C34      C        0.86840    0.09580    0.47460    1.000
    C35      C        0.77170    0.98580    0.47060    1.000
    C36      C        0.66690    0.96040    0.51040    1.000
    C37      C        0.57280    0.85710    0.50560    1.000
    C38      C        0.67950    0.80330    0.42660    1.000
    C39      C        0.77680    0.90290    0.42870    1.000
    C40      C        0.25690    0.72130    0.38510    1.000
    C41      C        0.16250    0.76940    0.34480    1.000
    C42      C        0.02590    0.73780    0.35040    1.000
    C43      C        0.94120    0.77730    0.31020    1.000
    C44      C        0.98960    0.84990    0.26450    1.000
    C45      C        0.21350    0.84560    0.30070    1.000
    C46      C        0.12760    0.88610    0.26040    1.000
    C47      C        0.89520    0.88200    0.21950    1.000
    C48      C        0.81220    0.96350    0.22930    1.000
    C49      C        0.82720    0.03100    0.28300    1.000
    C50      C        0.72550    0.98680    0.18450    1.000
    C51      C        0.71750    0.93050    0.13220    1.000
    C52      C        0.62270    0.95580    0.08500    1.000
    C53      C        0.79820    0.84980    0.12340    1.000
    C54      C        0.88520    0.82730    0.16660    1.000
    C55      C        0.15730    0.92610    0.02060    1.000
    C56      C        0.06330    0.82510    0.01880    1.000
    C57      C        0.07900    0.73390    0.05510    1.000
    C58      C        0.18960    0.75110    0.09260    1.000
    C59      C        0.27910    0.85570    0.09120    1.000
    C60      C        0.98070    0.62220    0.05700    1.000
    C61      C        0.86840    0.59580    0.02540    1.000
    C62      C        0.77170    0.48580    0.02940    1.000
    C63      C        0.66690    0.46040    0.98960    1.000
    C64      C        0.57280    0.35710    0.99440    1.000
    C65      C        0.67950    0.30330    0.07340    1.000
    C66      C        0.77680    0.40290    0.07130    1.000
    C67      C        0.25690    0.22130    0.11490    1.000
    C68      C        0.16250    0.26940    0.15520    1.000
    C69      C        0.02590    0.23780    0.14960    1.000
    C70      C        0.94120    0.27730    0.18980    1.000
    C71      C        0.98960    0.34990    0.23550    1.000
    C72      C        0.21350    0.34560    0.19930    1.000
    C73      C        0.12760    0.38610    0.23960    1.000
    C74      C        0.89520    0.38200    0.28050    1.000
    C75      C        0.81220    0.46350    0.27070    1.000
    C76      C        0.82720    0.53100    0.21700    1.000
    C77      C        0.72550    0.48680    0.31550    1.000
    C78      C        0.71750    0.43050    0.36780    1.000
    C79      C        0.62270    0.45580    0.41500    1.000
    C80      C        0.79820    0.34980    0.37660    1.000
    C81      C        0.88520    0.32730    0.33340    1.000
    C82      C        0.84270    0.57390    0.52060    1.000
    C83      C        0.93670    0.67490    0.51880    1.000
    C84      C        0.92100    0.76610    0.55510    1.000
    C85      C        0.81040    0.74890    0.59260    1.000
    C86      C        0.72090    0.64430    0.59120    1.000
    C87      C        0.01930    0.87780    0.55700    1.000
    C88      C        0.13160    0.90420    0.52540    1.000
    C89      C        0.22830    0.01420    0.52940    1.000
    C90      C        0.33310    0.03960    0.48960    1.000
    C91      C        0.42720    0.14290    0.49440    1.000
    C92      C        0.32050    0.19670    0.57340    1.000
    C93      C        0.22320    0.09710    0.57130    1.000
    C94      C        0.74310    0.27870    0.61490    1.000
    C95      C        0.83750    0.23060    0.65520    1.000
    C96      C        0.97410    0.26220    0.64960    1.000
    C97      C        0.05880    0.22270    0.68980    1.000
    C98      C        0.01040    0.15010    0.73550    1.000
    C99      C        0.78650    0.15440    0.69930    1.000
    C100     C        0.87240    0.11390    0.73960    1.000
    C101     C        0.10480    0.11800    0.78050    1.000
    C102     C        0.18780    0.03650    0.77070    1.000
    C103     C        0.17280    0.96900    0.71700    1.000
    C104     C        0.27450    0.01320    0.81550    1.000
    C105     C        0.28250    0.06950    0.86780    1.000
    C106     C        0.37730    0.04420    0.91500    1.000
    C107     C        0.20180    0.15020    0.87660    1.000
    C108     C        0.11480    0.17270    0.83340    1.000
    N1       N        0.42170    0.71830    0.96425    1.000
    N2       N        0.73490    0.05580    0.94371    1.000
    N3       N        0.57830    0.78170    0.46425    1.000
    N4       N        0.26510    0.44420    0.44371    1.000
    N5       N        0.57830    0.28170    0.03575    1.000
    N6       N        0.26510    0.94420    0.05629    1.000
    N7       N        0.42170    0.21830    0.53575    1.000
    N8       N        0.73490    0.55580    0.55629    1.000
    O1       O        0.63310    0.80110    0.86457    1.000
    O2       O        0.77380    0.79910    0.93683    1.000
    O3       O        0.43490    0.45830    0.59237    1.000
    O4       O        0.39270    0.61000    0.54080    1.000
    O5       O        0.36690    0.69890    0.36457    1.000
    O6       O        0.22620    0.70090    0.43683    1.000
    O7       O        0.56510    0.04170    0.09237    1.000
    O8       O        0.60730    0.89000    0.04080    1.000
    O9       O        0.36690    0.19890    0.13543    1.000
    O10      O        0.22620    0.20090    0.06317    1.000
    O11      O        0.56510    0.54170    0.40763    1.000
    O12      O        0.60730    0.39000    0.45920    1.000
    O13      O        0.63310    0.30110    0.63543    1.000
    O14      O        0.77380    0.29910    0.56317    1.000
    O15      O        0.43490    0.95830    0.90763    1.000
    O16      O        0.39270    0.11000    0.95920    1.000
