data_functionalizedCrystal
_audit_creation_method	'EQeq! by Chris Wilmer'
_symmetry_space_group_name_H-M	'P1'
_symmetry_Int_Tables_number	1
_symmetry_cell_setting	triclinic
loop_
_symmetry_equiv_pos_as_xyz
  x,y,z
_cell_length_a	35.1852
_cell_length_b	35.1852
_cell_length_c	21.6517
_cell_angle_alpha	90
_cell_angle_beta	90
_cell_angle_gamma	120
loop_
_atom_site_label
_atom_site_type_symbol
_atom_site_fract_x
_atom_site_fract_y
_atom_site_fract_z
_atom_site_charge
Mof_O 	O 	0.36245	0.22038	0.09608	-0.408
Mof_O 	O 	0.38888	0.23375	0.1932	-0.41
Mof_C 	C 	0.38772	0.24486	0.13854	0.367
Mof_C 	C 	0.41943	0.29156	0.12069	-0.13
Mof_C 	C 	0.44704	0.32143	0.1653	0.067
Mof_H 	H 	0.4462	0.3122	0.2063	0.021
Mof_C 	C 	0.47557	0.36455	0.14914	-0.15
Mof_H 	H 	0.4944	0.3842	0.1792	0.093
Mof_C 	C 	0.4768	0.37925	0.08933	0.114
Mof_C 	C 	0.44984	0.34894	0.04483	-0.151
Mof_H 	H 	0.4512	0.3579	0.0036	0.085
Mof_C 	C 	0.42112	0.30582	0.06132	0.072
Mof_H 	H 	0.4025	0.286	0.0313	0.023
Mof_C 	C 	0.50477	0.42611	0.07182	-0.072
Mof_C 	C 	0.48677	0.44581	0.03675	-0.039
Mof_H 	H 	0.4572	0.4289	0.0247	0.045
Mof_H 	H 	0.6115	0.434	0.0616	-0.041
Mof_H 	H 	0.6259	0.4191	0.1652	0.212
Mof_O 	O 	0.02912	0.55371	0.42941	-0.408
Mof_O 	O 	0.05555	0.56708	0.52653	-0.41
Mof_C 	C 	0.05439	0.57819	0.47187	0.367
Mof_C 	C 	0.0861	0.62489	0.45402	-0.13
Mof_C 	C 	0.11371	0.65476	0.49863	0.067
Mof_H 	H 	0.11287	0.64553	0.53963	0.021
Mof_C 	C 	0.14224	0.69788	0.48247	-0.15
Mof_H 	H 	0.16107	0.71753	0.51253	0.093
Mof_C 	C 	0.14347	0.71258	0.42266	0.114
Mof_C 	C 	0.11651	0.68227	0.37816	-0.151
Mof_H 	H 	0.11787	0.69123	0.33693	0.085
Mof_C 	C 	0.08779	0.63915	0.39465	0.072
Mof_H 	H 	0.06917	0.61933	0.36463	0.023
Mof_C 	C 	0.17144	0.75944	0.40515	-0.072
Mof_C 	C 	0.15344	0.77914	0.37008	-0.039
Mof_H 	H 	0.12387	0.76223	0.35803	0.045
Mof_H 	H 	0.27817	0.76733	0.39493	-0.041
Mof_H 	H 	0.29257	0.75243	0.49853	0.212
Mof_O 	O 	0.69578	0.88705	0.76275	-0.408
Mof_O 	O 	0.72221	0.90042	0.85987	-0.41
Mof_C 	C 	0.72105	0.91153	0.80521	0.367
Mof_C 	C 	0.75276	0.95823	0.78736	-0.129
Mof_C 	C 	0.78037	0.9881	0.83197	0.067
Mof_H 	H 	0.77953	0.97887	0.87297	0.021
Mof_C 	C 	0.8089	0.03122	0.81581	-0.149
Mof_H 	H 	0.82773	0.05087	0.84587	0.093
Mof_C 	C 	0.81013	0.04592	0.756	0.114
Mof_C 	C 	0.78317	0.01561	0.7115	-0.151
Mof_H 	H 	0.78453	0.02457	0.67027	0.085
Mof_C 	C 	0.75445	0.97249	0.72799	0.071
Mof_H 	H 	0.73583	0.95267	0.69797	0.023
Mof_C 	C 	0.8381	0.09278	0.73849	-0.072
Mof_C 	C 	0.8201	0.11248	0.70342	-0.039
Mof_H 	H 	0.79053	0.09557	0.69137	0.045
Mof_H 	H 	0.94483	0.10067	0.72827	-0.041
Mof_H 	H 	0.95923	0.08577	0.83187	0.213
Mof_O 	O 	0.77962	0.14207	0.09608	-0.408
Mof_O 	O 	0.76625	0.15513	0.1932	-0.41
Mof_C 	C 	0.75514	0.14286	0.13854	0.367
Mof_C 	C 	0.70844	0.12787	0.12069	-0.13
Mof_C 	C 	0.67857	0.12561	0.1653	0.067
Mof_H 	H 	0.6878	0.134	0.2063	0.021
Mof_C 	C 	0.63545	0.11102	0.14914	-0.15
Mof_H 	H 	0.6158	0.1102	0.1792	0.093
Mof_C 	C 	0.62075	0.09755	0.08933	0.114
Mof_C 	C 	0.65106	0.1009	0.04483	-0.151
Mof_H 	H 	0.6421	0.0933	0.0036	0.084
Mof_C 	C 	0.69418	0.1153	0.06132	0.071
Mof_H 	H 	0.714	0.1165	0.0313	0.022
Mof_C 	C 	0.57389	0.07866	0.07182	-0.073
Mof_C 	C 	0.55419	0.04096	0.03675	-0.04
Mof_H 	H 	0.5711	0.0283	0.0247	0.044
Mof_H 	H 	0.566	0.1775	0.0616	-0.042
Mof_H 	H 	0.5809	0.2068	0.1652	0.211
Mof_O 	O 	0.44629	0.4754	0.42941	-0.409
Mof_O 	O 	0.43292	0.48846	0.52653	-0.411
Mof_C 	C 	0.42181	0.47619	0.47187	0.366
Mof_C 	C 	0.37511	0.4612	0.45402	-0.131
Mof_C 	C 	0.34524	0.45894	0.49863	0.066
Mof_H 	H 	0.35447	0.46733	0.53963	0.02
Mof_C 	C 	0.30212	0.44435	0.48247	-0.151
Mof_H 	H 	0.28247	0.44353	0.51253	0.092
Mof_C 	C 	0.28742	0.43088	0.42266	0.113
Mof_C 	C 	0.31773	0.43423	0.37816	-0.152
Mof_H 	H 	0.30877	0.42663	0.33693	0.084
Mof_C 	C 	0.36085	0.44863	0.39465	0.071
Mof_H 	H 	0.38067	0.44983	0.36463	0.022
Mof_C 	C 	0.24056	0.41199	0.40515	-0.073
Mof_C 	C 	0.22086	0.37429	0.37008	-0.04
Mof_H 	H 	0.23777	0.36163	0.35803	0.044
Mof_H 	H 	0.23267	0.51083	0.39493	-0.042
Mof_H 	H 	0.24757	0.54013	0.49853	0.211
Mof_O 	O 	0.11295	0.80874	0.76275	-0.409
Mof_O 	O 	0.09958	0.8218	0.85987	-0.411
Mof_C 	C 	0.08847	0.80953	0.80521	0.366
Mof_C 	C 	0.04177	0.79454	0.78736	-0.131
Mof_C 	C 	0.0119	0.79228	0.83197	0.066
Mof_H 	H 	0.02113	0.80067	0.87297	0.02
Mof_C 	C 	0.96878	0.77769	0.81581	-0.151
Mof_H 	H 	0.94913	0.77687	0.84587	0.092
Mof_C 	C 	0.95408	0.76422	0.756	0.113
Mof_C 	C 	0.98439	0.76757	0.7115	-0.152
Mof_H 	H 	0.97543	0.75997	0.67027	0.084
Mof_C 	C 	0.02751	0.78197	0.72799	0.07
Mof_H 	H 	0.04733	0.78317	0.69797	0.022
Mof_C 	C 	0.90722	0.74533	0.73849	-0.073
Mof_C 	C 	0.88752	0.70763	0.70342	-0.04
Mof_H 	H 	0.90443	0.69497	0.69137	0.044
Mof_H 	H 	0.89933	0.84417	0.72827	-0.042
Mof_H 	H 	0.91423	0.87347	0.83187	0.211
Mof_O 	O 	0.85793	0.63755	0.09608	-0.409
Mof_O 	O 	0.84487	0.61112	0.1932	-0.411
Mof_C 	C 	0.85714	0.61228	0.13854	0.366
Mof_C 	C 	0.87213	0.58057	0.12069	-0.131
Mof_C 	C 	0.87439	0.55296	0.1653	0.066
Mof_H 	H 	0.866	0.5538	0.2063	0.02
Mof_C 	C 	0.88898	0.52443	0.14914	-0.151
Mof_H 	H 	0.8898	0.5056	0.1792	0.092
Mof_C 	C 	0.90245	0.5232	0.08933	0.113
Mof_C 	C 	0.8991	0.55016	0.04483	-0.152
Mof_H 	H 	0.9067	0.5488	0.0036	0.084
Mof_C 	C 	0.8847	0.57888	0.06132	0.071
Mof_H 	H 	0.8835	0.5975	0.0313	0.022
Mof_C 	C 	0.92134	0.49523	0.07182	-0.073
Mof_C 	C 	0.95904	0.51323	0.03675	-0.04
Mof_H 	H 	0.9717	0.5428	0.0247	0.044
Mof_H 	H 	0.8225	0.3885	0.0616	-0.042
Mof_H 	H 	0.7932	0.3741	0.1652	0.211
Mof_O 	O 	0.5246	0.97088	0.42941	-0.408
Mof_O 	O 	0.51154	0.94445	0.52653	-0.411
Mof_C 	C 	0.52381	0.94561	0.47187	0.366
Mof_C 	C 	0.5388	0.9139	0.45402	-0.131
Mof_C 	C 	0.54106	0.88629	0.49863	0.066
Mof_H 	H 	0.53267	0.88713	0.53963	0.02
Mof_C 	C 	0.55565	0.85776	0.48247	-0.151
Mof_H 	H 	0.55647	0.83893	0.51253	0.092
Mof_C 	C 	0.56912	0.85653	0.42266	0.113
Mof_C 	C 	0.56577	0.88349	0.37816	-0.152
Mof_H 	H 	0.57337	0.88213	0.33693	0.084
Mof_C 	C 	0.55137	0.91221	0.39465	0.071
Mof_H 	H 	0.55017	0.93083	0.36463	0.022
Mof_C 	C 	0.58801	0.82856	0.40515	-0.073
Mof_C 	C 	0.62571	0.84656	0.37008	-0.04
Mof_H 	H 	0.63837	0.87613	0.35803	0.044
Mof_H 	H 	0.48917	0.72183	0.39493	-0.042
Mof_H 	H 	0.45987	0.70743	0.49853	0.211
Mof_O 	O 	0.19126	0.30422	0.76275	-0.409
Mof_O 	O 	0.1782	0.27779	0.85987	-0.411
Mof_C 	C 	0.19047	0.27895	0.80521	0.366
Mof_C 	C 	0.20546	0.24724	0.78736	-0.131
Mof_C 	C 	0.20772	0.21963	0.83197	0.066
Mof_H 	H 	0.19933	0.22047	0.87297	0.02
Mof_C 	C 	0.22231	0.1911	0.81581	-0.151
Mof_H 	H 	0.22313	0.17227	0.84587	0.092
Mof_C 	C 	0.23578	0.18987	0.756	0.113
Mof_C 	C 	0.23243	0.21683	0.7115	-0.152
Mof_H 	H 	0.24003	0.21547	0.67027	0.084
Mof_C 	C 	0.21803	0.24555	0.72799	0.071
Mof_H 	H 	0.21683	0.26417	0.69797	0.022
Mof_C 	C 	0.25467	0.1619	0.73849	-0.073
Mof_C 	C 	0.29237	0.1799	0.70342	-0.04
Mof_H 	H 	0.30503	0.20947	0.69137	0.044
Mof_H 	H 	0.15583	0.05517	0.72827	-0.042
Mof_H 	H 	0.12653	0.04077	0.83187	0.211
Mof_O 	O 	0.22038	0.36245	0.90392	-0.409
Mof_O 	O 	0.23375	0.38888	0.8068	-0.411
Mof_C 	C 	0.24486	0.38772	0.86146	0.366
Mof_C 	C 	0.29156	0.41943	0.87931	-0.131
Mof_C 	C 	0.32143	0.44704	0.8347	0.066
Mof_H 	H 	0.3122	0.4462	0.7937	0.02
Mof_C 	C 	0.36455	0.47557	0.85086	-0.151
Mof_H 	H 	0.3842	0.4944	0.8208	0.092
Mof_C 	C 	0.37925	0.4768	0.91067	0.113
Mof_C 	C 	0.34894	0.44984	0.95517	-0.152
Mof_H 	H 	0.3579	0.4512	0.9964	0.084
Mof_C 	C 	0.30582	0.42112	0.93868	0.071
Mof_H 	H 	0.286	0.4025	0.9687	0.022
Mof_C 	C 	0.42611	0.50477	0.92818	-0.073
Mof_C 	C 	0.44581	0.48677	0.96325	-0.04
Mof_H 	H 	0.4289	0.4572	0.9753	0.044
Mof_H 	H 	0.434	0.6115	0.9384	-0.042
Mof_H 	H 	0.4191	0.6259	0.8348	0.211
Mof_O 	O 	0.88705	0.69578	0.23725	-0.409
Mof_O 	O 	0.90042	0.72221	0.14013	-0.411
Mof_C 	C 	0.91153	0.72105	0.19479	0.366
Mof_C 	C 	0.95823	0.75276	0.21264	-0.13
Mof_C 	C 	0.9881	0.78037	0.16803	0.066
Mof_H 	H 	0.97887	0.77953	0.12703	0.02
Mof_C 	C 	0.03122	0.8089	0.18419	-0.15
Mof_H 	H 	0.05087	0.82773	0.15413	0.092
Mof_C 	C 	0.04592	0.81013	0.244	0.113
Mof_C 	C 	0.01561	0.78317	0.2885	-0.152
Mof_H 	H 	0.02457	0.78453	0.32973	0.084
Mof_C 	C 	0.97249	0.75445	0.27201	0.07
Mof_H 	H 	0.95267	0.73583	0.30203	0.022
Mof_C 	C 	0.09278	0.8381	0.26151	-0.073
Mof_C 	C 	0.11248	0.8201	0.29658	-0.04
Mof_H 	H 	0.09557	0.79053	0.30863	0.044
Mof_H 	H 	0.10067	0.94483	0.27173	-0.042
Mof_H 	H 	0.08577	0.95923	0.16813	0.212
Mof_O 	O 	0.55371	0.02912	0.57059	-0.409
Mof_O 	O 	0.56708	0.05555	0.47347	-0.411
Mof_C 	C 	0.57819	0.05439	0.52813	0.366
Mof_C 	C 	0.62489	0.0861	0.54598	-0.131
Mof_C 	C 	0.65476	0.11371	0.50137	0.066
Mof_H 	H 	0.64553	0.11287	0.46037	0.02
Mof_C 	C 	0.69788	0.14224	0.51753	-0.151
Mof_H 	H 	0.71753	0.16107	0.48747	0.092
Mof_C 	C 	0.71258	0.14347	0.57734	0.113
Mof_C 	C 	0.68227	0.11651	0.62184	-0.152
Mof_H 	H 	0.69123	0.11787	0.66307	0.084
Mof_C 	C 	0.63915	0.08779	0.60535	0.071
Mof_H 	H 	0.61933	0.06917	0.63537	0.022
Mof_C 	C 	0.75944	0.17144	0.59485	-0.073
Mof_C 	C 	0.77914	0.15344	0.62992	-0.04
Mof_H 	H 	0.76223	0.12387	0.64197	0.044
Mof_H 	H 	0.76733	0.27817	0.60507	-0.042
Mof_H 	H 	0.75243	0.29257	0.50147	0.211
Mof_O 	O 	0.14207	0.77962	0.90392	-0.409
Mof_O 	O 	0.15513	0.76625	0.8068	-0.411
Mof_C 	C 	0.14286	0.75514	0.86146	0.366
Mof_C 	C 	0.12787	0.70844	0.87931	-0.131
Mof_C 	C 	0.12561	0.67857	0.8347	0.066
Mof_H 	H 	0.134	0.6878	0.7937	0.02
Mof_C 	C 	0.11102	0.63545	0.85086	-0.151
Mof_H 	H 	0.1102	0.6158	0.8208	0.092
Mof_C 	C 	0.09755	0.62075	0.91067	0.113
Mof_C 	C 	0.1009	0.65106	0.95517	-0.152
Mof_H 	H 	0.0933	0.6421	0.9964	0.084
Mof_C 	C 	0.1153	0.69418	0.93868	0.071
Mof_H 	H 	0.1165	0.714	0.9687	0.022
Mof_C 	C 	0.07866	0.57389	0.92818	-0.073
Mof_C 	C 	0.04096	0.55419	0.96325	-0.04
Mof_H 	H 	0.0283	0.5711	0.9753	0.044
Mof_H 	H 	0.1775	0.566	0.9384	-0.042
Mof_H 	H 	0.2068	0.5809	0.8348	0.211
Mof_O 	O 	0.80874	0.11295	0.23725	-0.409
Mof_O 	O 	0.8218	0.09958	0.14013	-0.411
Mof_C 	C 	0.80953	0.08847	0.19479	0.366
Mof_C 	C 	0.79454	0.04177	0.21264	-0.131
Mof_C 	C 	0.79228	0.0119	0.16803	0.066
Mof_H 	H 	0.80067	0.02113	0.12703	0.02
Mof_C 	C 	0.77769	0.96878	0.18419	-0.151
Mof_H 	H 	0.77687	0.94913	0.15413	0.092
Mof_C 	C 	0.76422	0.95408	0.244	0.113
Mof_C 	C 	0.76757	0.98439	0.2885	-0.152
Mof_H 	H 	0.75997	0.97543	0.32973	0.084
Mof_C 	C 	0.78197	0.02751	0.27201	0.07
Mof_H 	H 	0.78317	0.04733	0.30203	0.022
Mof_C 	C 	0.74533	0.90722	0.26151	-0.073
Mof_C 	C 	0.70763	0.88752	0.29658	-0.04
Mof_H 	H 	0.69497	0.90443	0.30863	0.044
Mof_H 	H 	0.84417	0.89933	0.27173	-0.042
Mof_H 	H 	0.87347	0.91423	0.16813	0.211
Mof_O 	O 	0.4754	0.44629	0.57059	-0.409
Mof_O 	O 	0.48846	0.43292	0.47347	-0.411
Mof_C 	C 	0.47619	0.42181	0.52813	0.366
Mof_C 	C 	0.4612	0.37511	0.54598	-0.131
Mof_C 	C 	0.45894	0.34524	0.50137	0.066
Mof_H 	H 	0.46733	0.35447	0.46037	0.02
Mof_C 	C 	0.44435	0.30212	0.51753	-0.151
Mof_H 	H 	0.44353	0.28247	0.48747	0.092
Mof_C 	C 	0.43088	0.28742	0.57734	0.113
Mof_C 	C 	0.43423	0.31773	0.62184	-0.152
Mof_H 	H 	0.42663	0.30877	0.66307	0.084
Mof_C 	C 	0.44863	0.36085	0.60535	0.071
Mof_H 	H 	0.44983	0.38067	0.63537	0.022
Mof_C 	C 	0.41199	0.24056	0.59485	-0.073
Mof_C 	C 	0.37429	0.22086	0.62992	-0.04
Mof_H 	H 	0.36163	0.23777	0.64197	0.044
Mof_H 	H 	0.51083	0.23267	0.60507	-0.042
Mof_H 	H 	0.54013	0.24757	0.50147	0.211
Mof_O 	O 	0.63755	0.85793	0.90392	-0.409
Mof_O 	O 	0.61112	0.84487	0.8068	-0.411
Mof_C 	C 	0.61228	0.85714	0.86146	0.366
Mof_C 	C 	0.58057	0.87213	0.87931	-0.131
Mof_C 	C 	0.55296	0.87439	0.8347	0.066
Mof_H 	H 	0.5538	0.866	0.7937	0.02
Mof_C 	C 	0.52443	0.88898	0.85086	-0.151
Mof_H 	H 	0.5056	0.8898	0.8208	0.092
Mof_C 	C 	0.5232	0.90245	0.91067	0.113
Mof_C 	C 	0.55016	0.8991	0.95517	-0.152
Mof_H 	H 	0.5488	0.9067	0.9964	0.084
Mof_C 	C 	0.57888	0.8847	0.93868	0.071
Mof_H 	H 	0.5975	0.8835	0.9687	0.022
Mof_C 	C 	0.49523	0.92134	0.92818	-0.073
Mof_C 	C 	0.51323	0.95904	0.96325	-0.04
Mof_H 	H 	0.5428	0.9717	0.9753	0.044
Mof_H 	H 	0.3885	0.8225	0.9384	-0.042
Mof_H 	H 	0.3741	0.7932	0.8348	0.211
Mof_O 	O 	0.30422	0.19126	0.23725	-0.409
Mof_O 	O 	0.27779	0.1782	0.14013	-0.411
Mof_C 	C 	0.27895	0.19047	0.19479	0.366
Mof_C 	C 	0.24724	0.20546	0.21264	-0.131
Mof_C 	C 	0.21963	0.20772	0.16803	0.066
Mof_H 	H 	0.22047	0.19933	0.12703	0.02
Mof_C 	C 	0.1911	0.22231	0.18419	-0.151
Mof_H 	H 	0.17227	0.22313	0.15413	0.092
Mof_C 	C 	0.18987	0.23578	0.244	0.113
Mof_C 	C 	0.21683	0.23243	0.2885	-0.152
Mof_H 	H 	0.21547	0.24003	0.32973	0.084
Mof_C 	C 	0.24555	0.21803	0.27201	0.071
Mof_H 	H 	0.26417	0.21683	0.30203	0.022
Mof_C 	C 	0.1619	0.25467	0.26151	-0.073
Mof_C 	C 	0.1799	0.29237	0.29658	-0.04
Mof_H 	H 	0.20947	0.30503	0.30863	0.044
Mof_H 	H 	0.05517	0.15583	0.27173	-0.042
Mof_H 	H 	0.04077	0.12653	0.16813	0.211
Mof_O 	O 	0.97088	0.5246	0.57059	-0.408
Mof_O 	O 	0.94445	0.51154	0.47347	-0.411
Mof_C 	C 	0.94561	0.52381	0.52813	0.366
Mof_C 	C 	0.9139	0.5388	0.54598	-0.131
Mof_C 	C 	0.88629	0.54106	0.50137	0.066
Mof_H 	H 	0.88713	0.53267	0.46037	0.02
Mof_C 	C 	0.85776	0.55565	0.51753	-0.151
Mof_H 	H 	0.83893	0.55647	0.48747	0.092
Mof_C 	C 	0.85653	0.56912	0.57734	0.113
Mof_C 	C 	0.88349	0.56577	0.62184	-0.152
Mof_H 	H 	0.88213	0.57337	0.66307	0.084
Mof_C 	C 	0.91221	0.55137	0.60535	0.071
Mof_H 	H 	0.93083	0.55017	0.63537	0.022
Mof_C 	C 	0.82856	0.58801	0.59485	-0.073
Mof_C 	C 	0.84656	0.62571	0.62992	-0.04
Mof_H 	H 	0.87613	0.63837	0.64197	0.044
Mof_H 	H 	0.72183	0.48917	0.60507	-0.042
Mof_H 	H 	0.70743	0.45987	0.50147	0.211
Mof_O 	O 	0.63755	0.77962	0.90392	-0.409
Mof_O 	O 	0.61112	0.76625	0.8068	-0.411
Mof_C 	C 	0.61228	0.75514	0.86146	0.366
Mof_C 	C 	0.58057	0.70844	0.87931	-0.131
Mof_C 	C 	0.55296	0.67857	0.8347	0.066
Mof_H 	H 	0.5538	0.6878	0.7937	0.02
Mof_C 	C 	0.52443	0.63545	0.85086	-0.151
Mof_H 	H 	0.5056	0.6158	0.8208	0.092
Mof_C 	C 	0.5232	0.62075	0.91067	0.113
Mof_C 	C 	0.55016	0.65106	0.95517	-0.152
Mof_H 	H 	0.5488	0.6421	0.9964	0.084
Mof_C 	C 	0.57888	0.69418	0.93868	0.071
Mof_H 	H 	0.5975	0.714	0.9687	0.022
Mof_C 	C 	0.49523	0.57389	0.92818	-0.073
Mof_C 	C 	0.51323	0.55419	0.96325	-0.04
Mof_H 	H 	0.5428	0.5711	0.9753	0.044
Mof_H 	H 	0.3885	0.566	0.9384	-0.042
Mof_H 	H 	0.3741	0.5809	0.8348	0.211
Mof_O 	O 	0.30422	0.11295	0.23725	-0.409
Mof_O 	O 	0.27779	0.09958	0.14013	-0.411
Mof_C 	C 	0.27895	0.08847	0.19479	0.366
Mof_C 	C 	0.24724	0.04177	0.21264	-0.13
Mof_C 	C 	0.21963	0.0119	0.16803	0.066
Mof_H 	H 	0.22047	0.02113	0.12703	0.02
Mof_C 	C 	0.1911	0.96878	0.18419	-0.15
Mof_H 	H 	0.17227	0.94913	0.15413	0.092
Mof_C 	C 	0.18987	0.95408	0.244	0.113
Mof_C 	C 	0.21683	0.98439	0.2885	-0.152
Mof_H 	H 	0.21547	0.97543	0.32973	0.084
Mof_C 	C 	0.24555	0.02751	0.27201	0.07
Mof_H 	H 	0.26417	0.04733	0.30203	0.022
Mof_C 	C 	0.1619	0.90722	0.26151	-0.073
Mof_C 	C 	0.1799	0.88752	0.29658	-0.04
Mof_H 	H 	0.20947	0.90443	0.30863	0.044
Mof_H 	H 	0.05517	0.89933	0.27173	-0.042
Mof_H 	H 	0.04077	0.91423	0.16813	0.212
Mof_O 	O 	0.97088	0.44629	0.57059	-0.409
Mof_O 	O 	0.94445	0.43292	0.47347	-0.411
Mof_C 	C 	0.94561	0.42181	0.52813	0.366
Mof_C 	C 	0.9139	0.37511	0.54598	-0.131
Mof_C 	C 	0.88629	0.34524	0.50137	0.066
Mof_H 	H 	0.88713	0.35447	0.46037	0.02
Mof_C 	C 	0.85776	0.30212	0.51753	-0.151
Mof_H 	H 	0.83893	0.28247	0.48747	0.092
Mof_C 	C 	0.85653	0.28742	0.57734	0.113
Mof_C 	C 	0.88349	0.31773	0.62184	-0.152
Mof_H 	H 	0.88213	0.30877	0.66307	0.084
Mof_C 	C 	0.91221	0.36085	0.60535	0.071
Mof_H 	H 	0.93083	0.38067	0.63537	0.022
Mof_C 	C 	0.82856	0.24056	0.59485	-0.073
Mof_C 	C 	0.84656	0.22086	0.62992	-0.04
Mof_H 	H 	0.87613	0.23777	0.64197	0.044
Mof_H 	H 	0.72183	0.23267	0.60507	-0.042
Mof_H 	H 	0.70743	0.24757	0.50147	0.211
Mof_O 	O 	0.22038	0.85793	0.90392	-0.409
Mof_O 	O 	0.23375	0.84487	0.8068	-0.411
Mof_C 	C 	0.24486	0.85714	0.86146	0.366
Mof_C 	C 	0.29156	0.87213	0.87931	-0.131
Mof_C 	C 	0.32143	0.87439	0.8347	0.066
Mof_H 	H 	0.3122	0.866	0.7937	0.02
Mof_C 	C 	0.36455	0.88898	0.85086	-0.151
Mof_H 	H 	0.3842	0.8898	0.8208	0.092
Mof_C 	C 	0.37925	0.90245	0.91067	0.113
Mof_C 	C 	0.34894	0.8991	0.95517	-0.152
Mof_H 	H 	0.3579	0.9067	0.9964	0.084
Mof_C 	C 	0.30582	0.8847	0.93868	0.071
Mof_H 	H 	0.286	0.8835	0.9687	0.022
Mof_C 	C 	0.42611	0.92134	0.92818	-0.073
Mof_C 	C 	0.44581	0.95904	0.96325	-0.04
Mof_H 	H 	0.4289	0.9717	0.9753	0.044
Mof_H 	H 	0.434	0.8225	0.9384	-0.042
Mof_H 	H 	0.4191	0.7932	0.8348	0.211
Mof_O 	O 	0.88705	0.19126	0.23725	-0.409
Mof_O 	O 	0.90042	0.1782	0.14013	-0.411
Mof_C 	C 	0.91153	0.19047	0.19479	0.366
Mof_C 	C 	0.95823	0.20546	0.21264	-0.131
Mof_C 	C 	0.9881	0.20772	0.16803	0.066
Mof_H 	H 	0.97887	0.19933	0.12703	0.02
Mof_C 	C 	0.03122	0.22231	0.18419	-0.151
Mof_H 	H 	0.05087	0.22313	0.15413	0.092
Mof_C 	C 	0.04592	0.23578	0.244	0.113
Mof_C 	C 	0.01561	0.23243	0.2885	-0.152
Mof_H 	H 	0.02457	0.24003	0.32973	0.084
Mof_C 	C 	0.97249	0.21803	0.27201	0.07
Mof_H 	H 	0.95267	0.21683	0.30203	0.022
Mof_C 	C 	0.09278	0.25467	0.26151	-0.073
Mof_C 	C 	0.11248	0.29237	0.29658	-0.04
Mof_H 	H 	0.09557	0.30503	0.30863	0.044
Mof_H 	H 	0.10067	0.15583	0.27173	-0.042
Mof_H 	H 	0.08577	0.12653	0.16813	0.211
Mof_O 	O 	0.55371	0.5246	0.57059	-0.409
Mof_O 	O 	0.56708	0.51154	0.47347	-0.411
Mof_C 	C 	0.57819	0.52381	0.52813	0.366
Mof_C 	C 	0.62489	0.5388	0.54598	-0.131
Mof_C 	C 	0.65476	0.54106	0.50137	0.066
Mof_H 	H 	0.64553	0.53267	0.46037	0.02
Mof_C 	C 	0.69788	0.55565	0.51753	-0.151
Mof_H 	H 	0.71753	0.55647	0.48747	0.092
Mof_C 	C 	0.71258	0.56912	0.57734	0.113
Mof_C 	C 	0.68227	0.56577	0.62184	-0.152
Mof_H 	H 	0.69123	0.57337	0.66307	0.084
Mof_C 	C 	0.63915	0.55137	0.60535	0.071
Mof_H 	H 	0.61933	0.55017	0.63537	0.022
Mof_C 	C 	0.75944	0.58801	0.59485	-0.073
Mof_C 	C 	0.77914	0.62571	0.62992	-0.04
Mof_H 	H 	0.76223	0.63837	0.64197	0.044
Mof_H 	H 	0.76733	0.48917	0.60507	-0.042
Mof_H 	H 	0.75243	0.45987	0.50147	0.211
Mof_O 	O 	0.14207	0.36245	0.90392	-0.409
Mof_O 	O 	0.15513	0.38888	0.8068	-0.411
Mof_C 	C 	0.14286	0.38772	0.86146	0.366
Mof_C 	C 	0.12787	0.41943	0.87931	-0.131
Mof_C 	C 	0.12561	0.44704	0.8347	0.066
Mof_H 	H 	0.134	0.4462	0.7937	0.02
Mof_C 	C 	0.11102	0.47557	0.85086	-0.151
Mof_H 	H 	0.1102	0.4944	0.8208	0.092
Mof_C 	C 	0.09755	0.4768	0.91067	0.113
Mof_C 	C 	0.1009	0.44984	0.95517	-0.152
Mof_H 	H 	0.0933	0.4512	0.9964	0.084
Mof_C 	C 	0.1153	0.42112	0.93868	0.071
Mof_H 	H 	0.1165	0.4025	0.9687	0.022
Mof_C 	C 	0.07866	0.50477	0.92818	-0.073
Mof_C 	C 	0.04096	0.48677	0.96325	-0.04
Mof_H 	H 	0.0283	0.4572	0.9753	0.044
Mof_H 	H 	0.1775	0.6115	0.9384	-0.042
Mof_H 	H 	0.2068	0.6259	0.8348	0.211
Mof_O 	O 	0.80874	0.69578	0.23725	-0.409
Mof_O 	O 	0.8218	0.72221	0.14013	-0.411
Mof_C 	C 	0.80953	0.72105	0.19479	0.366
Mof_C 	C 	0.79454	0.75276	0.21264	-0.131
Mof_C 	C 	0.79228	0.78037	0.16803	0.066
Mof_H 	H 	0.80067	0.77953	0.12703	0.02
Mof_C 	C 	0.77769	0.8089	0.18419	-0.151
Mof_H 	H 	0.77687	0.82773	0.15413	0.092
Mof_C 	C 	0.76422	0.81013	0.244	0.113
Mof_C 	C 	0.76757	0.78317	0.2885	-0.152
Mof_H 	H 	0.75997	0.78453	0.32973	0.084
Mof_C 	C 	0.78197	0.75445	0.27201	0.071
Mof_H 	H 	0.78317	0.73583	0.30203	0.022
Mof_C 	C 	0.74533	0.8381	0.26151	-0.073
Mof_C 	C 	0.70763	0.8201	0.29658	-0.04
Mof_H 	H 	0.69497	0.79053	0.30863	0.044
Mof_H 	H 	0.84417	0.94483	0.27173	-0.042
Mof_H 	H 	0.87347	0.95923	0.16813	0.211
Mof_O 	O 	0.4754	0.02912	0.57059	-0.408
Mof_O 	O 	0.48846	0.05555	0.47347	-0.411
Mof_C 	C 	0.47619	0.05439	0.52813	0.366
Mof_C 	C 	0.4612	0.0861	0.54598	-0.131
Mof_C 	C 	0.45894	0.11371	0.50137	0.066
Mof_H 	H 	0.46733	0.11287	0.46037	0.02
Mof_C 	C 	0.44435	0.14224	0.51753	-0.151
Mof_H 	H 	0.44353	0.16107	0.48747	0.092
Mof_C 	C 	0.43088	0.14347	0.57734	0.113
Mof_C 	C 	0.43423	0.11651	0.62184	-0.152
Mof_H 	H 	0.42663	0.11787	0.66307	0.084
Mof_C 	C 	0.44863	0.08779	0.60535	0.071
Mof_H 	H 	0.44983	0.06917	0.63537	0.022
Mof_C 	C 	0.41199	0.17144	0.59485	-0.073
Mof_C 	C 	0.37429	0.15344	0.62992	-0.04
Mof_H 	H 	0.36163	0.12387	0.64197	0.044
Mof_H 	H 	0.51083	0.27817	0.60507	-0.042
Mof_H 	H 	0.54013	0.29257	0.50147	0.211
Mof_O 	O 	0.77962	0.63755	0.09608	-0.409
Mof_O 	O 	0.76625	0.61112	0.1932	-0.411
Mof_C 	C 	0.75514	0.61228	0.13854	0.366
Mof_C 	C 	0.70844	0.58057	0.12069	-0.131
Mof_C 	C 	0.67857	0.55296	0.1653	0.066
Mof_H 	H 	0.6878	0.5538	0.2063	0.02
Mof_C 	C 	0.63545	0.52443	0.14914	-0.151
Mof_H 	H 	0.6158	0.5056	0.1792	0.092
Mof_C 	C 	0.62075	0.5232	0.08933	0.113
Mof_C 	C 	0.65106	0.55016	0.04483	-0.152
Mof_H 	H 	0.6421	0.5488	0.0036	0.084
Mof_C 	C 	0.69418	0.57888	0.06132	0.071
Mof_H 	H 	0.714	0.5975	0.0313	0.022
Mof_C 	C 	0.57389	0.49523	0.07182	-0.073
Mof_C 	C 	0.55419	0.51323	0.03675	-0.04
Mof_H 	H 	0.5711	0.5428	0.0247	0.044
Mof_H 	H 	0.566	0.3885	0.0616	-0.042
Mof_H 	H 	0.5809	0.3741	0.1652	0.211
Mof_O 	O 	0.44629	0.97088	0.42941	-0.409
Mof_O 	O 	0.43292	0.94445	0.52653	-0.411
Mof_C 	C 	0.42181	0.94561	0.47187	0.366
Mof_C 	C 	0.37511	0.9139	0.45402	-0.131
Mof_C 	C 	0.34524	0.88629	0.49863	0.066
Mof_H 	H 	0.35447	0.88713	0.53963	0.02
Mof_C 	C 	0.30212	0.85776	0.48247	-0.151
Mof_H 	H 	0.28247	0.83893	0.51253	0.092
Mof_C 	C 	0.28742	0.85653	0.42266	0.113
Mof_C 	C 	0.31773	0.88349	0.37816	-0.152
Mof_H 	H 	0.30877	0.88213	0.33693	0.084
Mof_C 	C 	0.36085	0.91221	0.39465	0.071
Mof_H 	H 	0.38067	0.93083	0.36463	0.022
Mof_C 	C 	0.24056	0.82856	0.40515	-0.073
Mof_C 	C 	0.22086	0.84656	0.37008	-0.04
Mof_H 	H 	0.23777	0.87613	0.35803	0.044
Mof_H 	H 	0.23267	0.72183	0.39493	-0.042
Mof_H 	H 	0.24757	0.70743	0.49853	0.211
Mof_O 	O 	0.11295	0.30422	0.76275	-0.409
Mof_O 	O 	0.09958	0.27779	0.85987	-0.411
Mof_C 	C 	0.08847	0.27895	0.80521	0.366
Mof_C 	C 	0.04177	0.24724	0.78736	-0.13
Mof_C 	C 	0.0119	0.21963	0.83197	0.066
Mof_H 	H 	0.02113	0.22047	0.87297	0.02
Mof_C 	C 	0.96878	0.1911	0.81581	-0.15
Mof_H 	H 	0.94913	0.17227	0.84587	0.092
Mof_C 	C 	0.95408	0.18987	0.756	0.113
Mof_C 	C 	0.98439	0.21683	0.7115	-0.152
Mof_H 	H 	0.97543	0.21547	0.67027	0.084
Mof_C 	C 	0.02751	0.24555	0.72799	0.07
Mof_H 	H 	0.04733	0.26417	0.69797	0.022
Mof_C 	C 	0.90722	0.1619	0.73849	-0.073
Mof_C 	C 	0.88752	0.1799	0.70342	-0.04
Mof_H 	H 	0.90443	0.20947	0.69137	0.044
Mof_H 	H 	0.89933	0.05517	0.72827	-0.042
Mof_H 	H 	0.91423	0.04077	0.83187	0.212
Mof_O 	O 	0.85793	0.22038	0.09608	-0.409
Mof_O 	O 	0.84487	0.23375	0.1932	-0.411
Mof_C 	C 	0.85714	0.24486	0.13854	0.366
Mof_C 	C 	0.87213	0.29156	0.12069	-0.131
Mof_C 	C 	0.87439	0.32143	0.1653	0.066
Mof_H 	H 	0.866	0.3122	0.2063	0.02
Mof_C 	C 	0.88898	0.36455	0.14914	-0.151
Mof_H 	H 	0.8898	0.3842	0.1792	0.092
Mof_C 	C 	0.90245	0.37925	0.08933	0.113
Mof_C 	C 	0.8991	0.34894	0.04483	-0.152
Mof_H 	H 	0.9067	0.3579	0.0036	0.084
Mof_C 	C 	0.8847	0.30582	0.06132	0.071
Mof_H 	H 	0.8835	0.286	0.0313	0.022
Mof_C 	C 	0.92134	0.42611	0.07182	-0.073
Mof_C 	C 	0.95904	0.44581	0.03675	-0.04
Mof_H 	H 	0.9717	0.4289	0.0247	0.044
Mof_H 	H 	0.8225	0.434	0.0616	-0.042
Mof_H 	H 	0.7932	0.4191	0.1652	0.211
Mof_O 	O 	0.5246	0.55371	0.42941	-0.409
Mof_O 	O 	0.51154	0.56708	0.52653	-0.411
Mof_C 	C 	0.52381	0.57819	0.47187	0.366
Mof_C 	C 	0.5388	0.62489	0.45402	-0.131
Mof_C 	C 	0.54106	0.65476	0.49863	0.066
Mof_H 	H 	0.53267	0.64553	0.53963	0.02
Mof_C 	C 	0.55565	0.69788	0.48247	-0.151
Mof_H 	H 	0.55647	0.71753	0.51253	0.092
Mof_C 	C 	0.56912	0.71258	0.42266	0.113
Mof_C 	C 	0.56577	0.68227	0.37816	-0.152
Mof_H 	H 	0.57337	0.69123	0.33693	0.084
Mof_C 	C 	0.55137	0.63915	0.39465	0.071
Mof_H 	H 	0.55017	0.61933	0.36463	0.022
Mof_C 	C 	0.58801	0.75944	0.40515	-0.073
Mof_C 	C 	0.62571	0.77914	0.37008	-0.04
Mof_H 	H 	0.63837	0.76223	0.35803	0.044
Mof_H 	H 	0.48917	0.76733	0.39493	-0.042
Mof_H 	H 	0.45987	0.75243	0.49853	0.211
Mof_O 	O 	0.19126	0.88705	0.76275	-0.409
Mof_O 	O 	0.1782	0.90042	0.85987	-0.411
Mof_C 	C 	0.19047	0.91153	0.80521	0.366
Mof_C 	C 	0.20546	0.95823	0.78736	-0.131
Mof_C 	C 	0.20772	0.9881	0.83197	0.066
Mof_H 	H 	0.19933	0.97887	0.87297	0.02
Mof_C 	C 	0.22231	0.03122	0.81581	-0.151
Mof_H 	H 	0.22313	0.05087	0.84587	0.092
Mof_C 	C 	0.23578	0.04592	0.756	0.113
Mof_C 	C 	0.23243	0.01561	0.7115	-0.152
Mof_H 	H 	0.24003	0.02457	0.67027	0.084
Mof_C 	C 	0.21803	0.97249	0.72799	0.07
Mof_H 	H 	0.21683	0.95267	0.69797	0.022
Mof_C 	C 	0.25467	0.09278	0.73849	-0.073
Mof_C 	C 	0.29237	0.11248	0.70342	-0.04
Mof_H 	H 	0.30503	0.09557	0.69137	0.044
Mof_H 	H 	0.15583	0.10067	0.72827	-0.042
Mof_H 	H 	0.12653	0.08577	0.83187	0.211
Mof_O 	O 	0.36245	0.14207	0.09608	-0.409
Mof_O 	O 	0.38888	0.15513	0.1932	-0.411
Mof_C 	C 	0.38772	0.14286	0.13854	0.366
Mof_C 	C 	0.41943	0.12787	0.12069	-0.131
Mof_C 	C 	0.44704	0.12561	0.1653	0.066
Mof_H 	H 	0.4462	0.134	0.2063	0.02
Mof_C 	C 	0.47557	0.11102	0.14914	-0.151
Mof_H 	H 	0.4944	0.1102	0.1792	0.092
Mof_C 	C 	0.4768	0.09755	0.08933	0.113
Mof_C 	C 	0.44984	0.1009	0.04483	-0.152
Mof_H 	H 	0.4512	0.0933	0.0036	0.084
Mof_C 	C 	0.42112	0.1153	0.06132	0.071
Mof_H 	H 	0.4025	0.1165	0.0313	0.022
Mof_C 	C 	0.50477	0.07866	0.07182	-0.073
Mof_C 	C 	0.48677	0.04096	0.03675	-0.04
Mof_H 	H 	0.4572	0.0283	0.0247	0.044
Mof_H 	H 	0.6115	0.1775	0.0616	-0.042
Mof_H 	H 	0.6259	0.2068	0.1652	0.211
Mof_O 	O 	0.02912	0.4754	0.42941	-0.408
Mof_O 	O 	0.05555	0.48846	0.52653	-0.411
Mof_C 	C 	0.05439	0.47619	0.47187	0.366
Mof_C 	C 	0.0861	0.4612	0.45402	-0.131
Mof_C 	C 	0.11371	0.45894	0.49863	0.066
Mof_H 	H 	0.11287	0.46733	0.53963	0.02
Mof_C 	C 	0.14224	0.44435	0.48247	-0.151
Mof_H 	H 	0.16107	0.44353	0.51253	0.092
Mof_C 	C 	0.14347	0.43088	0.42266	0.113
Mof_C 	C 	0.11651	0.43423	0.37816	-0.152
Mof_H 	H 	0.11787	0.42663	0.33693	0.084
Mof_C 	C 	0.08779	0.44863	0.39465	0.071
Mof_H 	H 	0.06917	0.44983	0.36463	0.022
Mof_C 	C 	0.17144	0.41199	0.40515	-0.073
Mof_C 	C 	0.15344	0.37429	0.37008	-0.04
Mof_H 	H 	0.12387	0.36163	0.35803	0.044
Mof_H 	H 	0.27817	0.51083	0.39493	-0.042
Mof_H 	H 	0.29257	0.54013	0.49853	0.211
Mof_O 	O 	0.69578	0.80874	0.76275	-0.409
Mof_O 	O 	0.72221	0.8218	0.85987	-0.411
Mof_C 	C 	0.72105	0.80953	0.80521	0.366
Mof_C 	C 	0.75276	0.79454	0.78736	-0.131
Mof_C 	C 	0.78037	0.79228	0.83197	0.066
Mof_H 	H 	0.77953	0.80067	0.87297	0.02
Mof_C 	C 	0.8089	0.77769	0.81581	-0.151
Mof_H 	H 	0.82773	0.77687	0.84587	0.092
Mof_C 	C 	0.81013	0.76422	0.756	0.113
Mof_C 	C 	0.78317	0.76757	0.7115	-0.152
Mof_H 	H 	0.78453	0.75997	0.67027	0.084
Mof_C 	C 	0.75445	0.78197	0.72799	0.071
Mof_H 	H 	0.73583	0.78317	0.69797	0.022
Mof_C 	C 	0.8381	0.74533	0.73849	-0.073
Mof_C 	C 	0.8201	0.70763	0.70342	-0.04
Mof_H 	H 	0.79053	0.69497	0.69137	0.044
Mof_H 	H 	0.94483	0.84417	0.72827	-0.042
Mof_H 	H 	0.95923	0.87347	0.83187	0.211
Mof_Cu	Cu	0.31794	0.15897	0.10958	0.904
Mof_Cu	Cu	0.98461	0.4923	0.44291	0.904
Mof_Cu	Cu	0.65127	0.82564	0.77625	0.904
Mof_Cu	Cu	0.84103	0.15897	0.10958	0.904
Mof_Cu	Cu	0.5077	0.4923	0.44291	0.904
Mof_Cu	Cu	0.17436	0.82564	0.77625	0.904
Mof_Cu	Cu	0.84103	0.68206	0.10958	0.904
Mof_Cu	Cu	0.5077	0.01539	0.44291	0.904
Mof_Cu	Cu	0.17436	0.34873	0.77625	0.904
Mof_Cu	Cu	0.15897	0.31794	0.89042	0.904
Mof_Cu	Cu	0.82564	0.65127	0.22375	0.904
Mof_Cu	Cu	0.4923	0.98461	0.55709	0.904
Mof_Cu	Cu	0.15897	0.84103	0.89042	0.904
Mof_Cu	Cu	0.82564	0.17436	0.22375	0.904
Mof_Cu	Cu	0.4923	0.5077	0.55709	0.904
Mof_Cu	Cu	0.68206	0.84103	0.89042	0.904
Mof_Cu	Cu	0.34873	0.17436	0.22375	0.904
Mof_Cu	Cu	0.01539	0.5077	0.55709	0.904
Mof_O 	O 	0.56771	0.43229	0.12526	-0.258
Mof_C 	C 	0.51022	0.48978	0.01824	0.004
Mof_C 	C 	0.5488	0.4512	0.08914	0.143
Mof_C 	C 	0.5877	0.4123	0.0875	0.256
Mof_C 	C 	0.60525	0.39475	0.1398	-0.611
Mof_H 	H 	0.6198	0.3802	0.1217	0.198
Mof_O 	O 	0.23438	0.76562	0.45859	-0.258
Mof_C 	C 	0.17689	0.82311	0.35157	0.004
Mof_C 	C 	0.21547	0.78453	0.42247	0.143
Mof_C 	C 	0.25437	0.74563	0.42083	0.256
Mof_C 	C 	0.27192	0.72808	0.47313	-0.611
Mof_H 	H 	0.28647	0.71353	0.45503	0.198
Mof_O 	O 	0.90104	0.09896	0.79193	-0.258
Mof_C 	C 	0.84355	0.15645	0.68491	0.004
Mof_C 	C 	0.88213	0.11787	0.75581	0.143
Mof_C 	C 	0.92103	0.07897	0.75417	0.256
Mof_C 	C 	0.93858	0.06142	0.80647	-0.611
Mof_H 	H 	0.95313	0.04687	0.78837	0.198
Mof_O 	O 	0.56771	0.13542	0.12526	-0.258
Mof_C 	C 	0.51022	0.02044	0.01824	0.004
Mof_C 	C 	0.5488	0.0976	0.08914	0.143
Mof_C 	C 	0.5877	0.1754	0.0875	0.256
Mof_C 	C 	0.60525	0.2105	0.1398	-0.611
Mof_H 	H 	0.6198	0.2396	0.1217	0.198
Mof_O 	O 	0.23438	0.46875	0.45859	-0.258
Mof_C 	C 	0.17689	0.35377	0.35157	0.004
Mof_C 	C 	0.21547	0.43093	0.42247	0.143
Mof_C 	C 	0.25437	0.50873	0.42083	0.256
Mof_C 	C 	0.27192	0.54383	0.47313	-0.611
Mof_H 	H 	0.28647	0.57293	0.45503	0.198
Mof_O 	O 	0.90104	0.80209	0.79193	-0.258
Mof_C 	C 	0.84355	0.68711	0.68491	0.004
Mof_C 	C 	0.88213	0.76427	0.75581	0.143
Mof_C 	C 	0.92103	0.84207	0.75417	0.256
Mof_C 	C 	0.93858	0.87717	0.80647	-0.611
Mof_H 	H 	0.95313	0.90627	0.78837	0.198
Mof_O 	O 	0.86458	0.43229	0.12526	-0.258
Mof_C 	C 	0.97956	0.48978	0.01824	0.004
Mof_C 	C 	0.9024	0.4512	0.08914	0.143
Mof_C 	C 	0.8246	0.4123	0.0875	0.256
Mof_C 	C 	0.7895	0.39475	0.1398	-0.611
Mof_H 	H 	0.7604	0.3802	0.1217	0.198
Mof_O 	O 	0.53125	0.76562	0.45859	-0.258
Mof_C 	C 	0.64623	0.82311	0.35157	0.004
Mof_C 	C 	0.56907	0.78453	0.42247	0.143
Mof_C 	C 	0.49127	0.74563	0.42083	0.256
Mof_C 	C 	0.45617	0.72808	0.47313	-0.611
Mof_H 	H 	0.42707	0.71353	0.45503	0.198
Mof_O 	O 	0.19791	0.09896	0.79193	-0.258
Mof_C 	C 	0.31289	0.15645	0.68491	0.004
Mof_C 	C 	0.23573	0.11787	0.75581	0.143
Mof_C 	C 	0.15793	0.07897	0.75417	0.256
Mof_C 	C 	0.12283	0.06142	0.80647	-0.611
Mof_H 	H 	0.09373	0.04687	0.78837	0.198
Mof_O 	O 	0.43229	0.56771	0.87474	-0.258
Mof_C 	C 	0.48978	0.51022	0.98176	0.004
Mof_C 	C 	0.4512	0.5488	0.91086	0.143
Mof_C 	C 	0.4123	0.5877	0.9125	0.256
Mof_C 	C 	0.39475	0.60525	0.8602	-0.611
Mof_H 	H 	0.3802	0.6198	0.8783	0.198
Mof_O 	O 	0.09896	0.90104	0.20807	-0.258
Mof_C 	C 	0.15645	0.84355	0.31509	0.004
Mof_C 	C 	0.11787	0.88213	0.24419	0.143
Mof_C 	C 	0.07897	0.92103	0.24583	0.256
Mof_C 	C 	0.06142	0.93858	0.19353	-0.611
Mof_H 	H 	0.04687	0.95313	0.21163	0.198
Mof_O 	O 	0.76562	0.23438	0.54141	-0.258
Mof_C 	C 	0.82311	0.17689	0.64843	0.004
Mof_C 	C 	0.78453	0.21547	0.57753	0.143
Mof_C 	C 	0.74563	0.25437	0.57917	0.256
Mof_C 	C 	0.72808	0.27192	0.52687	-0.611
Mof_H 	H 	0.71353	0.28647	0.54497	0.198
Mof_O 	O 	0.13542	0.56771	0.87474	-0.258
Mof_C 	C 	0.02044	0.51022	0.98176	0.004
Mof_C 	C 	0.0976	0.5488	0.91086	0.143
Mof_C 	C 	0.1754	0.5877	0.9125	0.256
Mof_C 	C 	0.2105	0.60525	0.8602	-0.611
Mof_H 	H 	0.2396	0.6198	0.8783	0.198
Mof_O 	O 	0.80209	0.90104	0.20807	-0.258
Mof_C 	C 	0.68711	0.84355	0.31509	0.004
Mof_C 	C 	0.76427	0.88213	0.24419	0.143
Mof_C 	C 	0.84207	0.92103	0.24583	0.256
Mof_C 	C 	0.87717	0.93858	0.19353	-0.611
Mof_H 	H 	0.90627	0.95313	0.21163	0.198
Mof_O 	O 	0.46875	0.23438	0.54141	-0.258
Mof_C 	C 	0.35377	0.17689	0.64843	0.004
Mof_C 	C 	0.43093	0.21547	0.57753	0.143
Mof_C 	C 	0.50873	0.25437	0.57917	0.256
Mof_C 	C 	0.54383	0.27192	0.52687	-0.611
Mof_H 	H 	0.57293	0.28647	0.54497	0.198
Mof_O 	O 	0.43229	0.86458	0.87474	-0.258
Mof_C 	C 	0.48978	0.97956	0.98176	0.004
Mof_C 	C 	0.4512	0.9024	0.91086	0.143
Mof_C 	C 	0.4123	0.8246	0.9125	0.256
Mof_C 	C 	0.39475	0.7895	0.8602	-0.611
Mof_H 	H 	0.3802	0.7604	0.8783	0.198
Mof_O 	O 	0.09896	0.19791	0.20807	-0.258
Mof_C 	C 	0.15645	0.31289	0.31509	0.004
Mof_C 	C 	0.11787	0.23573	0.24419	0.143
Mof_C 	C 	0.07897	0.15793	0.24583	0.256
Mof_C 	C 	0.06142	0.12283	0.19353	-0.611
Mof_H 	H 	0.04687	0.09373	0.21163	0.198
Mof_O 	O 	0.76562	0.53125	0.54141	-0.258
Mof_C 	C 	0.82311	0.64623	0.64843	0.004
Mof_C 	C 	0.78453	0.56907	0.57753	0.143
Mof_C 	C 	0.74563	0.49127	0.57917	0.256
Mof_C 	C 	0.72808	0.45617	0.52687	-0.611
Mof_H 	H 	0.71353	0.42707	0.54497	0.198
_end
