# CIF file generated by openbabel 3.1.0, see https://openbabel.org
data_I
_chemical_name_common 'image0'
_cell_length_a 14.694
_cell_length_b 14.694
_cell_length_c 8.936
_cell_angle_alpha 90
_cell_angle_beta 90
_cell_angle_gamma 90
_space_group_name_H-M_alt 'P 1'
_space_group_name_Hall 'P 1'
loop_
    _symmetry_equiv_pos_as_xyz
    x,y,z
loop_
    _atom_site_label
    _atom_site_type_symbol
    _atom_site_fract_x
    _atom_site_fract_y
    _atom_site_fract_z
    _atom_site_occupancy
    Zn1      Zn       0.50143    0.13221    0.23267    1.000
    Zn2      Zn       0.13043    0.00891    0.04894    1.000
    P1       P        0.35150    0.99990    0.09260    1.000
    P2       P        0.48860    0.35490    0.19150    1.000
    O1       O        0.39540    0.08630    0.10400    1.000
    O2       O        0.35650    0.94890    0.93200    1.000
    O3       O        0.39000    0.92300    0.20000    1.000
    O4       O        0.24820    0.00950    0.13820    1.000
    O5       O        0.50340    0.25650    0.14990    1.000
    O6       O        0.57990    0.40390    0.18840    1.000
    O7       O        0.44610    0.36240    0.34450    1.000
    O8       O        0.42240    0.38940    0.07210    1.000
    O9       O        0.39550    0.07580    0.21000    1.000
    O10      O        0.36570    0.04990    0.93500    1.000
    O11      O        0.38660    0.91240    0.12600    1.000
    Zn3      Zn       0.49857    0.86779    0.23267    1.000
    Zn4      Zn       0.86957    0.99109    0.04894    1.000
    P3       P        0.64850    0.00010    0.09260    1.000
    P4       P        0.51140    0.64510    0.19150    1.000
    O12      O        0.60460    0.91370    0.10400    1.000
    O13      O        0.64350    0.05110    0.93200    1.000
    O14      O        0.61000    0.07700    0.20000    1.000
    O15      O        0.75180    0.99050    0.13820    1.000
    O16      O        0.49660    0.74350    0.14990    1.000
    O17      O        0.42010    0.59610    0.18840    1.000
    O18      O        0.55390    0.63760    0.34450    1.000
    O19      O        0.57760    0.61060    0.07210    1.000
    O20      O        0.60450    0.92420    0.21000    1.000
    O21      O        0.63430    0.95010    0.93500    1.000
    O22      O        0.61340    0.08760    0.12600    1.000
    Zn5      Zn       0.86779    0.50143    0.73267    1.000
    Zn6      Zn       0.99109    0.13043    0.54894    1.000
    P5       P        0.00010    0.35150    0.59260    1.000
    P6       P        0.64510    0.48860    0.69150    1.000
    O23      O        0.91370    0.39540    0.60400    1.000
    O24      O        0.05110    0.35650    0.43200    1.000
    O25      O        0.07700    0.39000    0.70000    1.000
    O26      O        0.99050    0.24820    0.63820    1.000
    O27      O        0.74350    0.50340    0.64990    1.000
    O28      O        0.59610    0.57990    0.68840    1.000
    O29      O        0.63760    0.44610    0.84450    1.000
    O30      O        0.61060    0.42240    0.57210    1.000
    O31      O        0.92420    0.39550    0.71000    1.000
    O32      O        0.95010    0.36570    0.43500    1.000
    O33      O        0.08760    0.38660    0.62600    1.000
    Zn7      Zn       0.13221    0.49857    0.73267    1.000
    Zn8      Zn       0.00891    0.86957    0.54894    1.000
    P7       P        0.99990    0.64850    0.59260    1.000
    P8       P        0.35490    0.51140    0.69150    1.000
    O34      O        0.08630    0.60460    0.60400    1.000
    O35      O        0.94890    0.64350    0.43200    1.000
    O36      O        0.92300    0.61000    0.70000    1.000
    O37      O        0.00950    0.75180    0.63820    1.000
    O38      O        0.25650    0.49660    0.64990    1.000
    O39      O        0.40390    0.42010    0.68840    1.000
    O40      O        0.36240    0.55390    0.84450    1.000
    O41      O        0.38940    0.57760    0.57210    1.000
    O42      O        0.07580    0.60450    0.71000    1.000
    O43      O        0.04990    0.63430    0.43500    1.000
    O44      O        0.91240    0.61340    0.62600    1.000
    Zn9      Zn       0.00143    0.36779    0.23267    1.000
    Zn10     Zn       0.63043    0.49109    0.04894    1.000
    P9       P        0.85150    0.50010    0.09260    1.000
    P10      P        0.98860    0.14510    0.19150    1.000
    O45      O        0.89540    0.41370    0.10400    1.000
    O46      O        0.85650    0.55110    0.93200    1.000
    O47      O        0.89000    0.57700    0.20000    1.000
    O48      O        0.74820    0.49050    0.13820    1.000
    O49      O        0.00340    0.24350    0.14990    1.000
    O50      O        0.07990    0.09610    0.18840    1.000
    O51      O        0.94610    0.13760    0.34450    1.000
    O52      O        0.92240    0.11060    0.07210    1.000
    O53      O        0.89550    0.42420    0.21000    1.000
    O54      O        0.86570    0.45010    0.93500    1.000
    O55      O        0.88660    0.58760    0.12600    1.000
    Zn11     Zn       0.99857    0.63221    0.23267    1.000
    Zn12     Zn       0.36957    0.50891    0.04894    1.000
    P11      P        0.14850    0.49990    0.09260    1.000
    P12      P        0.01140    0.85490    0.19150    1.000
    O56      O        0.10460    0.58630    0.10400    1.000
    O57      O        0.14350    0.44890    0.93200    1.000
    O58      O        0.11000    0.42300    0.20000    1.000
    O59      O        0.25180    0.50950    0.13820    1.000
    O60      O        0.99660    0.75650    0.14990    1.000
    O61      O        0.92010    0.90390    0.18840    1.000
    O62      O        0.05390    0.86240    0.34450    1.000
    O63      O        0.07760    0.88940    0.07210    1.000
    O64      O        0.10450    0.57580    0.21000    1.000
    O65      O        0.13430    0.54990    0.93500    1.000
    O66      O        0.11340    0.41240    0.12600    1.000
    Zn13     Zn       0.36779    0.99857    0.73267    1.000
    Zn14     Zn       0.49109    0.36957    0.54894    1.000
    P13      P        0.50010    0.14850    0.59260    1.000
    P14      P        0.14510    0.01140    0.69150    1.000
    O67      O        0.41370    0.10460    0.60400    1.000
    O68      O        0.55110    0.14350    0.43200    1.000
    O69      O        0.57700    0.11000    0.70000    1.000
    O70      O        0.49050    0.25180    0.63820    1.000
    O71      O        0.24350    0.99660    0.64990    1.000
    O72      O        0.09610    0.92010    0.68840    1.000
    O73      O        0.13760    0.05390    0.84450    1.000
    O74      O        0.11060    0.07760    0.57210    1.000
    O75      O        0.42420    0.10450    0.71000    1.000
    O76      O        0.45010    0.13430    0.43500    1.000
    O77      O        0.58760    0.11340    0.62600    1.000
    Zn15     Zn       0.63221    0.00143    0.73267    1.000
    Zn16     Zn       0.50891    0.63043    0.54894    1.000
    P15      P        0.49990    0.85150    0.59260    1.000
    P16      P        0.85490    0.98860    0.69150    1.000
    O78      O        0.58630    0.89540    0.60400    1.000
    O79      O        0.44890    0.85650    0.43200    1.000
    O80      O        0.42300    0.89000    0.70000    1.000
    O81      O        0.50950    0.74820    0.63820    1.000
    O82      O        0.75650    0.00340    0.64990    1.000
    O83      O        0.90390    0.07990    0.68840    1.000
    O84      O        0.86240    0.94610    0.84450    1.000
    O85      O        0.88940    0.92240    0.57210    1.000
    O86      O        0.57580    0.89550    0.71000    1.000
    O87      O        0.54990    0.86570    0.43500    1.000
    O88      O        0.41240    0.88660    0.62600    1.000
