data_functionalizedCrystal
_audit_creation_method	'EQeq! by Chris Wilmer'
_symmetry_space_group_name_H-M	'P1'
_symmetry_Int_Tables_number	1
_symmetry_cell_setting	triclinic
loop_
_symmetry_equiv_pos_as_xyz
  x,y,z
_cell_length_a	17.525
_cell_length_b	6.7216
_cell_length_c	11.893
_cell_angle_alpha	90
_cell_angle_beta	90
_cell_angle_gamma	90
loop_
_atom_site_label
_atom_site_type_symbol
_atom_site_fract_x
_atom_site_fract_y
_atom_site_fract_z
_atom_site_charge
Mof_O 	O 	0.42665	0.4177	0.8834	-0.56
Mof_O 	O 	0.08859	0.4179	0.5904	-0.761
Mof_C 	C 	0.294	0.429	0.7599	-0.027
Mof_H 	H 	0.3172	0.5487	0.7793	0.092
Mof_C 	C 	0.2258	0.4289	0.7019	0.022
Mof_H 	H 	0.2028	0.5486	0.6821	0.058
Mof_O 	O 	0.07335	0.5823	0.3834	-0.821
Mof_O 	O 	0.41141	0.5821	0.0904	-0.776
Mof_C 	C 	0.206	0.571	0.2599	0.016
Mof_H 	H 	0.1828	0.4513	0.2793	-0.004
Mof_C 	C 	0.2742	0.5711	0.2019	-0.017
Mof_H 	H 	0.2972	0.4514	0.1821	0.013
Mof_O 	O 	0.57335	0.9177	0.1166	-0.594
Mof_O 	O 	0.91141	0.9179	0.4096	-0.457
Mof_C 	C 	0.706	0.929	0.2401	0.192
Mof_H 	H 	0.6828	0.0487	0.2207	-0.135
Mof_C 	C 	0.7742	0.9289	0.2981	0.157
Mof_H 	H 	0.7972	0.0486	0.3179	-0.104
Mof_O 	O 	0.92665	0.0823	0.6166	-0.526
Mof_O 	O 	0.58859	0.0821	0.9096	-0.523
Mof_C 	C 	0.794	0.071	0.7401	-0.168
Mof_H 	H 	0.8172	0.9513	0.7207	0.235
Mof_C 	C 	0.7258	0.0711	0.7981	-0.149
Mof_H 	H 	0.7028	0.9514	0.8179	0.225
Mof_O 	O 	0.57335	0.5823	0.1166	-0.764
Mof_O 	O 	0.91141	0.5821	0.4096	-0.622
Mof_C 	C 	0.706	0.571	0.2401	0.021
Mof_H 	H 	0.6828	0.4513	0.2207	0.011
Mof_C 	C 	0.7742	0.5711	0.2981	-0.008
Mof_H 	H 	0.7972	0.4514	0.3179	0.039
Mof_O 	O 	0.92665	0.4177	0.6166	-0.554
Mof_O 	O 	0.58859	0.4179	0.9096	-0.554
Mof_C 	C 	0.794	0.429	0.7401	-0.004
Mof_H 	H 	0.8172	0.5487	0.7207	0.099
Mof_C 	C 	0.7258	0.4289	0.7981	0.015
Mof_H 	H 	0.7028	0.5486	0.8179	0.09
Mof_O 	O 	0.42665	0.0823	0.8834	-0.53
Mof_O 	O 	0.08859	0.0821	0.5904	-0.733
Mof_C 	C 	0.294	0.071	0.7599	-0.193
Mof_H 	H 	0.3172	0.9513	0.7793	0.231
Mof_C 	C 	0.2258	0.0711	0.7019	-0.15
Mof_H 	H 	0.2028	0.9514	0.6821	0.202
Mof_O 	O 	0.07335	0.9177	0.3834	-0.651
Mof_O 	O 	0.41141	0.9179	0.0904	-0.604
Mof_C 	C 	0.206	0.929	0.2599	0.19
Mof_H 	H 	0.1828	0.0487	0.2793	-0.152
Mof_C 	C 	0.2742	0.9289	0.2019	0.157
Mof_H 	H 	0.2972	0.0486	0.1821	-0.136
Mof_Ga	Ga	0.5	0.5	-0	2.506
Mof_Ga	Ga	-3.2325e-33	0.5	0.5	2.627
Mof_Ga	Ga	0.5	0	-0	1.868
Mof_Ga	Ga	1.27223e-33	0	0.5	1.997
Mof_O 	O 	0.49394	0.25	0.0732	-0.973
Mof_C 	C 	0.4	0.25	0.8573	0.52
Mof_C 	C 	0.3279	0.25	0.7893	-0.022
Mof_C 	C 	0.1915	0.25	0.6731	-0.094
Mof_C 	C 	0.1165	0.25	0.6133	0.546
Mof_O 	O 	0.00606	0.75	0.5732	-0.956
Mof_C 	C 	0.1	0.75	0.3573	0.6
Mof_C 	C 	0.1721	0.75	0.2893	-0.235
Mof_C 	C 	0.3085	0.75	0.1731	-0.203
Mof_C 	C 	0.3835	0.75	0.1133	0.559
Mof_O 	O 	0.50606	0.75	0.9268	-0.599
Mof_C 	C 	0.6	0.75	0.1427	0.562
Mof_C 	C 	0.6721	0.75	0.2107	-0.209
Mof_C 	C 	0.8085	0.75	0.3269	-0.16
Mof_C 	C 	0.8835	0.75	0.3867	0.578
Mof_O 	O 	0.99394	0.25	0.4268	-0.696
Mof_C 	C 	0.9	0.25	0.6427	0.518
Mof_C 	C 	0.8279	0.25	0.7107	-0.017
Mof_C 	C 	0.6915	0.25	0.8269	-0.036
Mof_C 	C 	0.6165	0.25	0.8867	0.531
_end
