# CIF file generated by openbabel 3.1.0, see https://openbabel.org
data_I
_chemical_name_common 'image0'
_cell_length_a 10.852
_cell_length_b 10.9126
_cell_length_c 11.1478
_cell_angle_alpha 84.499
_cell_angle_beta 88.211
_cell_angle_gamma 66.36
_space_group_name_H-M_alt 'P 1'
_space_group_name_Hall 'P 1'
loop_
    _symmetry_equiv_pos_as_xyz
    x,y,z
loop_
    _atom_site_label
    _atom_site_type_symbol
    _atom_site_fract_x
    _atom_site_fract_y
    _atom_site_fract_z
    _atom_site_occupancy
    Co1      Co       0.09510    0.89330    0.25220    1.000
    Co2      Co       0.96770    0.86770    0.00120    1.000
    Co3      Co       0.84980    0.01410    0.48490    1.000
    N1       N        0.79900    0.94320    0.33190    1.000
    N2       N        0.87900    0.94140    0.23820    1.000
    N3       N        0.83100    0.91440    0.13980    1.000
    N4       N        0.07610    0.17660    0.16350    1.000
    N5       N        0.08980    0.08710    0.25810    1.000
    N6       N        0.10700    0.12890    0.36180    1.000
    C1       C        0.69500    0.91650    0.29360    1.000
    C2       C        0.71500    0.89830    0.17080    1.000
    C3       C        0.62400    0.87200    0.10460    1.000
    H1       H        0.63540    0.86290    0.02250    1.000
    C4       C        0.51500    0.86000    0.16460    1.000
    H2       H        0.45410    0.83970    0.12290    1.000
    C5       C        0.49700    0.87800    0.28630    1.000
    C6       C        0.58500    0.90820    0.35430    1.000
    H3       H        0.57080    0.92170    0.43560    1.000
    C7       C        0.38100    0.86700    0.34360    1.000
    C8       C        0.08500    0.28440    0.20930    1.000
    C9       C        0.10450    0.25450    0.33300    1.000
    C10      C        0.11800    0.34330    0.40780    1.000
    H4       H        0.13070    0.32200    0.49050    1.000
    C11      C        0.11100    0.46580    0.35260    1.000
    H5       H        0.11910    0.52800    0.39970    1.000
    C12      C        0.09200    0.49740    0.22970    1.000
    C13      C        0.07800    0.40810    0.15530    1.000
    H6       H        0.06560    0.42990    0.07270    1.000
    C14      C        0.08500    0.63130    0.17640    1.000
    O1       O        0.09690    0.92710    0.06710    1.000
    H7       H        0.19300    0.87320    0.07280    1.000
    O2       O        0.05700    0.89600    0.42880    1.000
    H8       H        0.05580    0.82220    0.48020    1.000
    O3       O        0.35000    0.90450    0.45040    1.000
    O4       O        0.30500    0.82300    0.28450    1.000
    O5       O        0.04300    0.67280    0.06830    1.000
    O6       O        0.11400    0.69850    0.24840    1.000
    Co4      Co       0.90490    0.10670    0.74780    1.000
    Co5      Co       0.03230    0.13230    0.99880    1.000
    Co6      Co       0.15020    0.98590    0.51510    1.000
    N7       N        0.20100    0.05680    0.66810    1.000
    N8       N        0.12100    0.05860    0.76180    1.000
    N9       N        0.16900    0.08560    0.86020    1.000
    N10      N        0.92390    0.82340    0.83650    1.000
    N11      N        0.91020    0.91290    0.74190    1.000
    N12      N        0.89300    0.87110    0.63820    1.000
    C15      C        0.30500    0.08350    0.70640    1.000
    C16      C        0.28500    0.10170    0.82920    1.000
    C17      C        0.37600    0.12800    0.89540    1.000
    H9       H        0.36460    0.13710    0.97750    1.000
    C18      C        0.48500    0.14000    0.83540    1.000
    H10      H        0.54590    0.16030    0.87710    1.000
    C19      C        0.50300    0.12200    0.71370    1.000
    C20      C        0.41500    0.09180    0.64570    1.000
    H11      H        0.42920    0.07830    0.56440    1.000
    C21      C        0.61900    0.13300    0.65640    1.000
    C22      C        0.91500    0.71560    0.79070    1.000
    C23      C        0.89550    0.74550    0.66700    1.000
    C24      C        0.88200    0.65670    0.59220    1.000
    H12      H        0.86930    0.67800    0.50950    1.000
    C25      C        0.88900    0.53420    0.64740    1.000
    H13      H        0.88090    0.47200    0.60030    1.000
    C26      C        0.90800    0.50260    0.77030    1.000
    C27      C        0.92200    0.59190    0.84470    1.000
    H14      H        0.93440    0.57010    0.92730    1.000
    C28      C        0.91500    0.36870    0.82360    1.000
    O7       O        0.90310    0.07290    0.93290    1.000
    H15      H        0.80700    0.12680    0.92720    1.000
    O8       O        0.94300    0.10400    0.57120    1.000
    H16      H        0.94420    0.17780    0.51980    1.000
    O9       O        0.65000    0.09550    0.54960    1.000
    O10      O        0.69500    0.17700    0.71550    1.000
    O11      O        0.95700    0.32720    0.93170    1.000
    O12      O        0.88600    0.30150    0.75160    1.000
