data_functionalizedCrystal
_audit_creation_method	'EQeq! by Chris Wilmer'
_symmetry_space_group_name_H-M	'P1'
_symmetry_Int_Tables_number	1
_symmetry_cell_setting	triclinic
loop_
_symmetry_equiv_pos_as_xyz
  x,y,z
_cell_length_a	8.8545
_cell_length_b	10.672
_cell_length_c	15.389
_cell_angle_alpha	76.4
_cell_angle_beta	78.58
_cell_angle_gamma	79.92
loop_
_atom_site_label
_atom_site_type_symbol
_atom_site_fract_x
_atom_site_fract_y
_atom_site_fract_z
_atom_site_charge
Mof_Ni	Ni	0.80774	0.92526	0.62692	1.104
Mof_C 	C 	0.8243	0.8513	0.456	-0.004
Mof_C 	C 	0.8126	0.8706	0.357	-0.082
Mof_H 	H 	0.8692	0.9417	0.3233	0.082
Mof_H 	H 	0.864	0.7927	0.3358	0.069
Mof_N 	N 	0.6537	0.8987	0.3356	-0.106
Mof_C 	C 	0.5394	0.9896	0.3604	0.095
Mof_H 	H 	0.5492	0.0478	0.3948	0.041
Mof_N 	N 	0.412	0.9864	0.3302	-0.217
Mof_C 	C 	0.4458	0.8871	0.285	0.02
Mof_H 	H 	0.377	0.8611	0.2564	0.024
Mof_C 	C 	0.5955	0.8317	0.2882	-0.015
Mof_H 	H 	0.6474	0.7618	0.2629	0.043
Mof_P 	P 	0.71541	0.72695	0.53786	0.427
Mof_O 	O 	0.7722	0.5971	0.5154	-0.358
Mof_O 	O 	0.7269	0.75	0.6294	-0.354
Mof_O 	O 	0.5375	0.7616	0.5283	-0.406
Mof_H 	H 	0.5277	0.763	0.4762	0.264
Mof_P 	P 	0.03409	0.81387	0.47125	0.389
Mof_O 	O 	0.091	0.6712	0.4736	-0.372
Mof_O 	O 	0.0327	0.8541	0.5608	-0.391
Mof_O 	O 	0.1172	0.9003	0.3911	-0.392
Mof_O 	O 	0.7654	0.9712	0.488	-0.44
Mof_H 	H 	0.8285	0.0259	0.4727	0.239
Mof_N 	N 	0.9959	0.5285	0.3592	-0.217
Mof_C 	C 	0.8796	0.4953	0.3307	0.149
Mof_H 	H 	0.8111	0.4449	0.3723	-0.001
Mof_C 	C 	0.8564	0.5324	0.2422	-0.252
Mof_H 	H 	0.769	0.5122	0.2262	0.126
Mof_C 	C 	0.9573	0.597	0.1788	0.232
Mof_C 	C 	0.0871	0.6265	0.2072	-0.257
Mof_H 	H 	0.1622	0.6696	0.1654	0.116
Mof_C 	C 	0.1005	0.5906	0.2974	0.105
Mof_H 	H 	0.1857	0.6104	0.316	0.003
Mof_C 	C 	0.9305	0.6401	0.0824	-0.205
Mof_H 	H 	0.8792	0.5839	0.0645	0.099
Mof_C 	C 	0.9614	0.7315	0.0242	0.054
Mof_H 	H 	0.021	0.7843	0.0394	-0.016
Mof_C 	C 	0.923	0.7746	0.9351	0.08
Mof_C 	C 	0.9204	0.899	0.8905	-0.14
Mof_H 	H 	0.9391	0.9593	0.9206	0.083
Mof_C 	C 	0.8924	0.942	0.8049	0.077
Mof_H 	H 	0.8938	0.0295	0.778	0.006
Mof_C 	C 	0.8441	0.742	0.8018	0.092
Mof_H 	H 	0.8093	0.6858	0.7745	0.01
Mof_C 	C 	0.8757	0.6966	0.8917	-0.14
Mof_H 	H 	0.8635	0.6114	0.9211	0.087
Mof_N 	N 	0.8617	0.8588	0.7562	-0.229
Mof_Ni	Ni	0.19226	0.07474	0.37308	1.095
Mof_C 	C 	0.1757	0.1487	0.544	-0.046
Mof_C 	C 	0.1874	0.1294	0.643	-0.05
Mof_H 	H 	0.1308	0.0583	0.6767	0.052
Mof_H 	H 	0.136	0.2073	0.6642	0.043
Mof_N 	N 	0.3463	0.1013	0.6644	-0.11
Mof_C 	C 	0.4606	0.0104	0.6396	0.087
Mof_H 	H 	0.4508	0.9522	0.6052	0.045
Mof_N 	N 	0.588	0.0136	0.6698	-0.217
Mof_C 	C 	0.5542	0.1129	0.715	0.018
Mof_H 	H 	0.623	0.1389	0.7436	0.026
Mof_C 	C 	0.4045	0.1683	0.7118	-0.014
Mof_H 	H 	0.3526	0.2382	0.7371	0.041
Mof_P 	P 	0.28459	0.27305	0.46214	0.427
Mof_O 	O 	0.2278	0.4029	0.4846	-0.371
Mof_O 	O 	0.2731	0.25	0.3706	-0.364
Mof_O 	O 	0.4625	0.2384	0.4717	-0.405
Mof_H 	H 	0.4723	0.237	0.5238	0.264
Mof_P 	P 	0.96591	0.18613	0.52875	0.427
Mof_O 	O 	0.909	0.3288	0.5264	-0.357
Mof_O 	O 	0.9673	0.1459	0.4392	-0.365
Mof_O 	O 	0.8828	0.0997	0.6089	-0.381
Mof_O 	O 	0.2346	0.0288	0.512	-0.439
Mof_H 	H 	0.1715	0.9741	0.5273	0.233
Mof_N 	N 	0.0041	0.4715	0.6408	-0.232
Mof_C 	C 	0.1204	0.5047	0.6693	0.056
Mof_H 	H 	0.1889	0.5551	0.6277	0.027
Mof_C 	C 	0.1436	0.4676	0.7578	-0.104
Mof_H 	H 	0.231	0.4878	0.7738	0.071
Mof_C 	C 	0.0427	0.403	0.8212	-0.012
Mof_C 	C 	0.9129	0.3735	0.7928	-0.077
Mof_H 	H 	0.8378	0.3304	0.8346	0.061
Mof_C 	C 	0.8995	0.4094	0.7026	0.092
Mof_H 	H 	0.8143	0.3896	0.684	0.014
Mof_C 	C 	0.0695	0.3599	0.9176	0.088
Mof_H 	H 	0.1208	0.4161	0.9355	0.002
Mof_C 	C 	0.0386	0.2685	0.9758	-0.305
Mof_H 	H 	0.979	0.2157	0.9606	0.158
Mof_C 	C 	0.077	0.2254	0.0649	0.24
Mof_C 	C 	0.0796	0.101	0.1095	-0.268
Mof_H 	H 	0.0609	0.0407	0.0794	0.105
Mof_C 	C 	0.1076	0.058	0.1951	0.125
Mof_H 	H 	0.1062	0.9705	0.222	-0.02
Mof_C 	C 	0.1559	0.258	0.1982	0.137
Mof_H 	H 	0.1907	0.3142	0.2255	-0.015
Mof_C 	C 	0.1243	0.3034	0.1083	-0.258
Mof_H 	H 	0.1365	0.3886	0.0789	0.115
Mof_N 	N 	0.1383	0.1412	0.2438	-0.257
Mof_Ni	Ni	5.17595e-17	0.5	0.5	1.096
_end
