data_functionalizedCrystal
_audit_creation_method	'EQeq! by Chris Wilmer'
_symmetry_space_group_name_H-M	'P1'
_symmetry_Int_Tables_number	1
_symmetry_cell_setting	triclinic
loop_
_symmetry_equiv_pos_as_xyz
  x,y,z
_cell_length_a	10.7666
_cell_length_b	16.462
_cell_length_c	17.912
_cell_angle_alpha	90
_cell_angle_beta	91.098
_cell_angle_gamma	90
loop_
_atom_site_label
_atom_site_type_symbol
_atom_site_fract_x
_atom_site_fract_y
_atom_site_fract_z
_atom_site_charge
Mof_Zn	Zn	0.07851	0.55672	0.91113	1.236
Mof_Zn	Zn	0.61572	0.54334	0.91616	1.235
Mof_P 	P 	0.85449	0.43135	0.9145	0.453
Mof_P 	P 	0.15533	0.95375	0.59053	0.451
Mof_O 	O 	0.7143	0.44564	0.91528	-0.444
Mof_O 	O 	0.9225	0.5058	0.8881	-0.471
Mof_O 	O 	0.9031	0.3983	0.98881	-0.449
Mof_O 	O 	0.8595	0.1391	0.64621	-0.425
Mof_O 	O 	0.9143	0.0686	0.7453	-0.298
Mof_O 	O 	0.9539	0.7102	0.8692	-0.287
Mof_O 	O 	0.1189	0.641	0.83677	-0.422
Mof_O 	O 	0.0635	0.02364	0.59699	-0.438
Mof_O 	O 	0.288	0.9797	0.603	-0.441
Mof_O 	O 	0.1356	0.90749	0.51658	-0.427
Mof_C 	C 	0.8739	0.3483	0.8498	-0.045
Mof_C 	C 	0.9653	0.2894	0.8631	-0.022
Mof_H 	H 	0.0232	0.2969	0.9016	0.051
Mof_C 	C 	0.9704	0.2204	0.8196	-0.019
Mof_H 	H 	0.0291	0.1805	0.8304	0.054
Mof_C 	C 	0.8877	0.2106	0.7596	-0.053
Mof_C 	C 	0.8005	0.2704	0.7439	-0.024
Mof_H 	H 	0.7472	0.2655	0.7027	0.07
Mof_C 	C 	0.7934	0.3381	0.7905	-0.018
Mof_H 	H 	0.7325	0.3771	0.7812	0.05
Mof_C 	C 	0.8889	0.133	0.7156	0.334
Mof_C 	C 	0.1244	0.88	0.6628	-0.046
Mof_C 	C 	0.0431	0.8967	0.7198	-0.03
Mof_H 	H 	0.0039	0.947	0.7215	0.054
Mof_C 	C 	0.0195	0.8397	0.7739	-0.028
Mof_H 	H 	0.9641	0.8518	0.8115	0.064
Mof_C 	C 	0.0774	0.7644	0.7731	-0.053
Mof_C 	C 	0.1615	0.7488	0.7181	-0.02
Mof_H 	H 	0.2046	0.6998	0.7185	0.059
Mof_C 	C 	0.1829	0.8049	0.662	-0.023
Mof_H 	H 	0.2367	0.7921	0.6237	0.053
Mof_C 	C 	0.0461	0.7018	0.8313	0.323
Mof_Zn	Zn	0.42149	0.05672	0.58887	1.236
Mof_Zn	Zn	0.88428	0.04334	0.58384	1.233
Mof_P 	P 	0.64551	0.93135	0.5855	0.451
Mof_P 	P 	0.34467	0.45375	0.90947	0.451
Mof_O 	O 	0.7857	0.94564	0.58472	-0.444
Mof_O 	O 	0.5775	0.0058	0.6119	-0.474
Mof_O 	O 	0.5969	0.8983	0.51119	-0.45
Mof_O 	O 	0.6405	0.6391	0.85379	-0.425
Mof_O 	O 	0.5857	0.5686	0.7547	-0.299
Mof_O 	O 	0.5461	0.2102	0.6308	-0.293
Mof_O 	O 	0.3811	0.141	0.66323	-0.423
Mof_O 	O 	0.4365	0.52364	0.90301	-0.441
Mof_O 	O 	0.212	0.4797	0.897	-0.441
Mof_O 	O 	0.3644	0.40749	0.98342	-0.427
Mof_C 	C 	0.6261	0.8483	0.6502	-0.043
Mof_C 	C 	0.5347	0.7894	0.6369	-0.028
Mof_H 	H 	0.4768	0.7969	0.5984	0.054
Mof_C 	C 	0.5296	0.7204	0.6804	-0.017
Mof_H 	H 	0.4709	0.6805	0.6696	0.054
Mof_C 	C 	0.6123	0.7106	0.7404	-0.054
Mof_C 	C 	0.6995	0.7704	0.7561	-0.022
Mof_H 	H 	0.7528	0.7655	0.7973	0.07
Mof_C 	C 	0.7066	0.8381	0.7095	-0.02
Mof_H 	H 	0.7675	0.8771	0.7188	0.051
Mof_C 	C 	0.6111	0.633	0.7844	0.335
Mof_C 	C 	0.3756	0.38	0.8372	-0.04
Mof_C 	C 	0.4569	0.3967	0.7802	-0.041
Mof_H 	H 	0.4961	0.447	0.7785	0.059
Mof_C 	C 	0.4805	0.3397	0.7261	-0.008
Mof_H 	H 	0.5359	0.3518	0.6885	0.054
Mof_C 	C 	0.4226	0.2644	0.7269	-0.063
Mof_C 	C 	0.3385	0.2488	0.7819	-0.012
Mof_H 	H 	0.2954	0.1998	0.7815	0.057
Mof_C 	C 	0.3171	0.3049	0.838	-0.029
Mof_H 	H 	0.2633	0.2921	0.8763	0.055
Mof_C 	C 	0.4539	0.2018	0.6687	0.333
Mof_Zn	Zn	0.92149	0.44328	0.08887	1.235
Mof_Zn	Zn	0.38428	0.45666	0.08384	1.234
Mof_P 	P 	0.14551	0.56865	0.0855	0.452
Mof_P 	P 	0.84467	0.04625	0.40947	0.45
Mof_O 	O 	0.2857	0.55436	0.08472	-0.445
Mof_O 	O 	0.0775	0.4942	0.1119	-0.472
Mof_O 	O 	0.0969	0.6017	0.01119	-0.449
Mof_O 	O 	0.1405	0.8609	0.35379	-0.425
Mof_O 	O 	0.0857	0.9314	0.2547	-0.298
Mof_O 	O 	0.0461	0.2898	0.1308	-0.287
Mof_O 	O 	0.8811	0.359	0.16323	-0.422
Mof_O 	O 	0.9365	0.97636	0.40301	-0.438
Mof_O 	O 	0.712	0.0203	0.397	-0.441
Mof_O 	O 	0.8644	0.09251	0.48342	-0.427
Mof_C 	C 	0.1261	0.6517	0.1502	-0.045
Mof_C 	C 	0.0347	0.7106	0.1369	-0.022
Mof_H 	H 	0.9768	0.7031	0.0984	0.051
Mof_C 	C 	0.0296	0.7796	0.1804	-0.019
Mof_H 	H 	0.9709	0.8195	0.1696	0.054
Mof_C 	C 	0.1123	0.7894	0.2404	-0.053
Mof_C 	C 	0.1995	0.7296	0.2561	-0.024
Mof_H 	H 	0.2528	0.7345	0.2973	0.07
Mof_C 	C 	0.2066	0.6619	0.2095	-0.018
Mof_H 	H 	0.2675	0.6229	0.2188	0.05
Mof_C 	C 	0.1111	0.867	0.2844	0.334
Mof_C 	C 	0.8756	0.12	0.3372	-0.046
Mof_C 	C 	0.9569	0.1033	0.2802	-0.03
Mof_H 	H 	0.9961	0.053	0.2785	0.054
Mof_C 	C 	0.9805	0.1603	0.2261	-0.028
Mof_H 	H 	0.0359	0.1482	0.1885	0.064
Mof_C 	C 	0.9226	0.2356	0.2269	-0.053
Mof_C 	C 	0.8385	0.2512	0.2819	-0.02
Mof_H 	H 	0.7954	0.3002	0.2815	0.059
Mof_C 	C 	0.8171	0.1951	0.338	-0.023
Mof_H 	H 	0.7633	0.2079	0.3763	0.053
Mof_C 	C 	0.9539	0.2982	0.1687	0.323
Mof_Zn	Zn	0.57851	0.94328	0.41113	1.236
Mof_Zn	Zn	0.11572	0.95666	0.41616	1.233
Mof_P 	P 	0.35449	0.06865	0.4145	0.451
Mof_P 	P 	0.65533	0.54625	0.09053	0.451
Mof_O 	O 	0.2143	0.05436	0.41528	-0.444
Mof_O 	O 	0.4225	0.9942	0.3881	-0.474
Mof_O 	O 	0.4031	0.1017	0.48881	-0.45
Mof_O 	O 	0.3595	0.3609	0.14621	-0.425
Mof_O 	O 	0.4143	0.4314	0.2453	-0.299
Mof_O 	O 	0.4539	0.7898	0.3692	-0.293
Mof_O 	O 	0.6189	0.859	0.33677	-0.423
Mof_O 	O 	0.5635	0.47636	0.09699	-0.441
Mof_O 	O 	0.788	0.5203	0.103	-0.441
Mof_O 	O 	0.6356	0.59251	0.01658	-0.427
Mof_C 	C 	0.3739	0.1517	0.3498	-0.043
Mof_C 	C 	0.4653	0.2106	0.3631	-0.028
Mof_H 	H 	0.5232	0.2031	0.4016	0.054
Mof_C 	C 	0.4704	0.2796	0.3196	-0.017
Mof_H 	H 	0.5291	0.3195	0.3304	0.054
Mof_C 	C 	0.3877	0.2894	0.2596	-0.054
Mof_C 	C 	0.3005	0.2296	0.2439	-0.022
Mof_H 	H 	0.2472	0.2345	0.2027	0.07
Mof_C 	C 	0.2934	0.1619	0.2905	-0.02
Mof_H 	H 	0.2325	0.1229	0.2812	0.051
Mof_C 	C 	0.3889	0.367	0.2156	0.335
Mof_C 	C 	0.6244	0.62	0.1628	-0.04
Mof_C 	C 	0.5431	0.6033	0.2198	-0.041
Mof_H 	H 	0.5039	0.553	0.2215	0.059
Mof_C 	C 	0.5195	0.6603	0.2739	-0.008
Mof_H 	H 	0.4641	0.6482	0.3115	0.054
Mof_C 	C 	0.5774	0.7356	0.2731	-0.063
Mof_C 	C 	0.6615	0.7512	0.2181	-0.012
Mof_H 	H 	0.7046	0.8002	0.2185	0.057
Mof_C 	C 	0.6829	0.6951	0.162	-0.029
Mof_H 	H 	0.7367	0.7079	0.1237	0.055
Mof_C 	C 	0.5461	0.7982	0.3313	0.333
_end
