# CIF file generated by openbabel 3.1.0, see https://openbabel.org
data_I
_chemical_name_common 'image0'
_cell_length_a 28.471
_cell_length_b 28.471
_cell_length_c 28.471
_cell_angle_alpha 90
_cell_angle_beta 90
_cell_angle_gamma 90
_space_group_name_H-M_alt 'P 1'
_space_group_name_Hall 'P 1'
loop_
    _symmetry_equiv_pos_as_xyz
    x,y,z
loop_
    _atom_site_label
    _atom_site_type_symbol
    _atom_site_fract_x
    _atom_site_fract_y
    _atom_site_fract_z
    _atom_site_occupancy
    Ni1      Ni       0.34730    0.61890    0.89900    1.000
    O1       O        0.39070    0.58840    0.94530    1.000
    O2       O        0.45700    0.62960    0.94730    1.000
    C1       C        0.42980    0.59800    0.96270    1.000
    C2       C        0.44420    0.56940    0.00350    1.000
    C3       C        0.48370    0.58160    0.03010    1.000
    O3       O        0.36480    0.57730    0.84180    1.000
    O4       O        0.40380    0.65860    0.87400    1.000
    C4       C        0.41020    0.58790    0.82560    1.000
    C5       C        0.42060    0.64170    0.83030    1.000
    C6       C        0.42070    0.56520    0.78270    1.000
    C7       C        0.46680    0.65760    0.82130    1.000
    N1       N        0.33310    0.66520    0.95440    1.000
    C8       C        0.32960    0.65180    0.99830    1.000
    C9       C        0.31770    0.68570    0.03430    1.000
    C10      C        0.30990    0.73200    0.02570    1.000
    C11      C        0.31420    0.74440    0.98570    1.000
    C12      C        0.32510    0.71800    0.94900    1.000
    N2       N        0.33180    0.68300    0.95200    1.000
    C13      C        0.32390    0.66920    0.99660    1.000
    C14      C        0.31300    0.70730    0.02940    1.000
    C15      C        0.30820    0.74950    0.01710    1.000
    C16      C        0.31770    0.75750    0.96900    1.000
    C17      C        0.32990    0.72010    0.93540    1.000
    H1       H        0.49800    0.61000    0.02000    1.000
    H2       H        0.43100    0.57300    0.84800    1.000
    H3       H        0.42200    0.60300    0.79600    1.000
    H4       H        0.44500    0.59200    0.84400    1.000
    H5       H        0.41200    0.53300    0.78500    1.000
    H6       H        0.45400    0.56800    0.77600    1.000
    H7       H        0.40300    0.58000    0.75800    1.000
    H8       H        0.40100    0.65700    0.80700    1.000
    H9       H        0.41300    0.57900    0.79300    1.000
    H10      H        0.43300    0.57000    0.84300    1.000
    H11      H        0.46800    0.69100    0.82600    1.000
    H12      H        0.47500    0.65000    0.79000    1.000
    H13      H        0.48800    0.64300    0.84300    1.000
    H14      H        0.33500    0.62000    0.00700    1.000
    H15      H        0.31500    0.67500    0.06600    1.000
    H16      H        0.30100    0.75400    0.05000    1.000
    H17      H        0.30900    0.77700    0.98000    1.000
    H18      H        0.32800    0.73200    0.91900    1.000
    H19      H        0.32500    0.63700    0.00600    1.000
    H20      H        0.30900    0.70000    0.06200    1.000
    H21      H        0.29900    0.77400    0.03800    1.000
    H22      H        0.31600    0.78900    0.95800    1.000
    H23      H        0.33600    0.72600    0.90300    1.000
    Ni2      Ni       0.15270    0.38110    0.39900    1.000
    O5       O        0.10930    0.41160    0.44530    1.000
    O6       O        0.04300    0.37040    0.44730    1.000
    C18      C        0.07020    0.40200    0.46270    1.000
    C19      C        0.05580    0.43060    0.50350    1.000
    C20      C        0.01630    0.41840    0.53010    1.000
    O7       O        0.13520    0.42270    0.34180    1.000
    O8       O        0.09620    0.34140    0.37400    1.000
    C21      C        0.08980    0.41210    0.32560    1.000
    C22      C        0.07940    0.35830    0.33030    1.000
    C23      C        0.07930    0.43480    0.28270    1.000
    C24      C        0.03320    0.34240    0.32130    1.000
    N3       N        0.16690    0.33480    0.45440    1.000
    C25      C        0.17040    0.34820    0.49830    1.000
    C26      C        0.18230    0.31430    0.53430    1.000
    C27      C        0.19010    0.26800    0.52570    1.000
    C28      C        0.18580    0.25560    0.48570    1.000
    C29      C        0.17490    0.28200    0.44900    1.000
    N4       N        0.16820    0.31700    0.45200    1.000
    C30      C        0.17610    0.33080    0.49660    1.000
    C31      C        0.18700    0.29270    0.52940    1.000
    C32      C        0.19180    0.25050    0.51710    1.000
    C33      C        0.18230    0.24250    0.46900    1.000
    C34      C        0.17010    0.27990    0.43540    1.000
    H24      H        0.00200    0.39000    0.52000    1.000
    H25      H        0.06900    0.42700    0.34800    1.000
    H26      H        0.07800    0.39700    0.29600    1.000
    H27      H        0.05500    0.40800    0.34400    1.000
    H28      H        0.08800    0.46700    0.28500    1.000
    H29      H        0.04600    0.43200    0.27600    1.000
    H30      H        0.09700    0.42000    0.25800    1.000
    H31      H        0.09900    0.34300    0.30700    1.000
    H32      H        0.08700    0.42100    0.29300    1.000
    H33      H        0.06700    0.43000    0.34300    1.000
    H34      H        0.03200    0.30900    0.32600    1.000
    H35      H        0.02500    0.35000    0.29000    1.000
    H36      H        0.01200    0.35700    0.34300    1.000
    H37      H        0.16500    0.38000    0.50700    1.000
    H38      H        0.18500    0.32500    0.56600    1.000
    H39      H        0.19900    0.24600    0.55000    1.000
    H40      H        0.19100    0.22300    0.48000    1.000
    H41      H        0.17200    0.26800    0.41900    1.000
    H42      H        0.17500    0.36300    0.50600    1.000
    H43      H        0.19100    0.30000    0.56200    1.000
    H44      H        0.20100    0.22600    0.53800    1.000
    H45      H        0.18400    0.21100    0.45800    1.000
    H46      H        0.16400    0.27400    0.40300    1.000
    Ni3      Ni       0.65270    0.11890    0.60100    1.000
    O9       O        0.60930    0.08840    0.55470    1.000
    O10      O        0.54300    0.12960    0.55270    1.000
    C35      C        0.57020    0.09800    0.53730    1.000
    C36      C        0.55580    0.06940    0.49650    1.000
    C37      C        0.51630    0.08160    0.46990    1.000
    O11      O        0.63520    0.07730    0.65820    1.000
    O12      O        0.59620    0.15860    0.62600    1.000
    C38      C        0.58980    0.08790    0.67440    1.000
    C39      C        0.57940    0.14170    0.66970    1.000
    C40      C        0.57930    0.06520    0.71730    1.000
    C41      C        0.53320    0.15760    0.67870    1.000
    N5       N        0.66690    0.16520    0.54560    1.000
    C42      C        0.67040    0.15180    0.50170    1.000
    C43      C        0.68230    0.18570    0.46570    1.000
    C44      C        0.69010    0.23200    0.47430    1.000
    C45      C        0.68580    0.24440    0.51430    1.000
    C46      C        0.67490    0.21800    0.55100    1.000
    N6       N        0.66820    0.18300    0.54800    1.000
    C47      C        0.67610    0.16920    0.50340    1.000
    C48      C        0.68700    0.20730    0.47060    1.000
    C49      C        0.69180    0.24950    0.48290    1.000
    C50      C        0.68230    0.25750    0.53100    1.000
    C51      C        0.67010    0.22010    0.56460    1.000
    H47      H        0.50200    0.11000    0.48000    1.000
    H48      H        0.56900    0.07300    0.65200    1.000
    H49      H        0.57800    0.10300    0.70400    1.000
    H50      H        0.55500    0.09200    0.65600    1.000
    H51      H        0.58800    0.03300    0.71500    1.000
    H52      H        0.54600    0.06800    0.72400    1.000
    H53      H        0.59700    0.08000    0.74200    1.000
    H54      H        0.59900    0.15700    0.69300    1.000
    H55      H        0.58700    0.07900    0.70700    1.000
    H56      H        0.56700    0.07000    0.65700    1.000
    H57      H        0.53200    0.19100    0.67400    1.000
    H58      H        0.52500    0.15000    0.71000    1.000
    H59      H        0.51200    0.14300    0.65700    1.000
    H60      H        0.66500    0.12000    0.49300    1.000
    H61      H        0.68500    0.17500    0.43400    1.000
    H62      H        0.69900    0.25400    0.45000    1.000
    H63      H        0.69100    0.27700    0.52000    1.000
    H64      H        0.67200    0.23200    0.58100    1.000
    H65      H        0.67500    0.13700    0.49400    1.000
    H66      H        0.69100    0.20000    0.43800    1.000
    H67      H        0.70100    0.27400    0.46200    1.000
    H68      H        0.68400    0.28900    0.54200    1.000
    H69      H        0.66400    0.22600    0.59700    1.000
    Ni4      Ni       0.84730    0.88110    0.10100    1.000
    O13      O        0.89070    0.91160    0.05470    1.000
    O14      O        0.95700    0.87040    0.05270    1.000
    C52      C        0.92980    0.90200    0.03730    1.000
    C53      C        0.94420    0.93060    0.99650    1.000
    C54      C        0.98370    0.91840    0.96990    1.000
    O15      O        0.86480    0.92270    0.15820    1.000
    O16      O        0.90380    0.84140    0.12600    1.000
    C55      C        0.91020    0.91210    0.17440    1.000
    C56      C        0.92060    0.85830    0.16970    1.000
    C57      C        0.92070    0.93480    0.21730    1.000
    C58      C        0.96680    0.84240    0.17870    1.000
    N7       N        0.83310    0.83480    0.04560    1.000
    C59      C        0.82960    0.84820    0.00170    1.000
    C60      C        0.81770    0.81430    0.96570    1.000
    C61      C        0.80990    0.76800    0.97430    1.000
    C62      C        0.81420    0.75560    0.01430    1.000
    C63      C        0.82510    0.78200    0.05100    1.000
    N8       N        0.83180    0.81700    0.04800    1.000
    C64      C        0.82390    0.83080    0.00340    1.000
    C65      C        0.81300    0.79270    0.97060    1.000
    C66      C        0.80820    0.75050    0.98290    1.000
    C67      C        0.81770    0.74250    0.03100    1.000
    C68      C        0.82990    0.77990    0.06460    1.000
    H70      H        0.99800    0.89000    0.98000    1.000
    H71      H        0.93100    0.92700    0.15200    1.000
    H72      H        0.92200    0.89700    0.20400    1.000
    H73      H        0.94500    0.90800    0.15600    1.000
    H74      H        0.91200    0.96700    0.21500    1.000
    H75      H        0.95400    0.93200    0.22400    1.000
    H76      H        0.90300    0.92000    0.24200    1.000
    H77      H        0.90100    0.84300    0.19300    1.000
    H78      H        0.91300    0.92100    0.20700    1.000
    H79      H        0.93300    0.93000    0.15700    1.000
    H80      H        0.96800    0.80900    0.17400    1.000
    H81      H        0.97500    0.85000    0.21000    1.000
    H82      H        0.98800    0.85700    0.15700    1.000
    H83      H        0.83500    0.88000    0.99300    1.000
    H84      H        0.81500    0.82500    0.93400    1.000
    H85      H        0.80100    0.74600    0.95000    1.000
    H86      H        0.80900    0.72300    0.02000    1.000
    H87      H        0.82800    0.76800    0.08100    1.000
    H88      H        0.82500    0.86300    0.99400    1.000
    H89      H        0.80900    0.80000    0.93800    1.000
    H90      H        0.79900    0.72600    0.96200    1.000
    H91      H        0.81600    0.71100    0.04200    1.000
    H92      H        0.83600    0.77400    0.09700    1.000
    Ni5      Ni       0.89900    0.34730    0.61890    1.000
    O17      O        0.94530    0.39070    0.58840    1.000
    O18      O        0.94730    0.45700    0.62960    1.000
    C69      C        0.96270    0.42980    0.59800    1.000
    C70      C        0.00350    0.44420    0.56940    1.000
    C71      C        0.03010    0.48370    0.58160    1.000
    O19      O        0.84180    0.36480    0.57730    1.000
    O20      O        0.87400    0.40380    0.65860    1.000
    C72      C        0.82560    0.41020    0.58790    1.000
    C73      C        0.83030    0.42060    0.64170    1.000
    C74      C        0.78270    0.42070    0.56520    1.000
    C75      C        0.82130    0.46680    0.65760    1.000
    N9       N        0.95440    0.33310    0.66520    1.000
    C76      C        0.99830    0.32960    0.65180    1.000
    C77      C        0.03430    0.31770    0.68570    1.000
    C78      C        0.02570    0.30990    0.73200    1.000
    C79      C        0.98570    0.31420    0.74440    1.000
    C80      C        0.94900    0.32510    0.71800    1.000
    N10      N        0.95200    0.33180    0.68300    1.000
    C81      C        0.99660    0.32390    0.66920    1.000
    C82      C        0.02940    0.31300    0.70730    1.000
    C83      C        0.01710    0.30820    0.74950    1.000
    C84      C        0.96900    0.31770    0.75750    1.000
    C85      C        0.93540    0.32990    0.72010    1.000
    H93      H        0.02000    0.49800    0.61000    1.000
    H94      H        0.84800    0.43100    0.57300    1.000
    H95      H        0.79600    0.42200    0.60300    1.000
    H96      H        0.84400    0.44500    0.59200    1.000
    H97      H        0.78500    0.41200    0.53300    1.000
    H98      H        0.77600    0.45400    0.56800    1.000
    H99      H        0.75800    0.40300    0.58000    1.000
    H100     H        0.80700    0.40100    0.65700    1.000
    H101     H        0.79300    0.41300    0.57900    1.000
    H102     H        0.84300    0.43300    0.57000    1.000
    H103     H        0.82600    0.46800    0.69100    1.000
    H104     H        0.79000    0.47500    0.65000    1.000
    H105     H        0.84300    0.48800    0.64300    1.000
    H106     H        0.00700    0.33500    0.62000    1.000
    H107     H        0.06600    0.31500    0.67500    1.000
    H108     H        0.05000    0.30100    0.75400    1.000
    H109     H        0.98000    0.30900    0.77700    1.000
    H110     H        0.91900    0.32800    0.73200    1.000
    H111     H        0.00600    0.32500    0.63700    1.000
    H112     H        0.06200    0.30900    0.70000    1.000
    H113     H        0.03800    0.29900    0.77400    1.000
    H114     H        0.95800    0.31600    0.78900    1.000
    H115     H        0.90300    0.33600    0.72600    1.000
    Ni6      Ni       0.39900    0.15270    0.38110    1.000
    O21      O        0.44530    0.10930    0.41160    1.000
    O22      O        0.44730    0.04300    0.37040    1.000
    C86      C        0.46270    0.07020    0.40200    1.000
    C87      C        0.50350    0.05580    0.43060    1.000
    C88      C        0.53010    0.01630    0.41840    1.000
    O23      O        0.34180    0.13520    0.42270    1.000
    O24      O        0.37400    0.09620    0.34140    1.000
    C89      C        0.32560    0.08980    0.41210    1.000
    C90      C        0.33030    0.07940    0.35830    1.000
    C91      C        0.28270    0.07930    0.43480    1.000
    C92      C        0.32130    0.03320    0.34240    1.000
    N11      N        0.45440    0.16690    0.33480    1.000
    C93      C        0.49830    0.17040    0.34820    1.000
    C94      C        0.53430    0.18230    0.31430    1.000
    C95      C        0.52570    0.19010    0.26800    1.000
    C96      C        0.48570    0.18580    0.25560    1.000
    C97      C        0.44900    0.17490    0.28200    1.000
    N12      N        0.45200    0.16820    0.31700    1.000
    C98      C        0.49660    0.17610    0.33080    1.000
    C99      C        0.52940    0.18700    0.29270    1.000
    C100     C        0.51710    0.19180    0.25050    1.000
    C101     C        0.46900    0.18230    0.24250    1.000
    C102     C        0.43540    0.17010    0.27990    1.000
    H116     H        0.52000    0.00200    0.39000    1.000
    H117     H        0.34800    0.06900    0.42700    1.000
    H118     H        0.29600    0.07800    0.39700    1.000
    H119     H        0.34400    0.05500    0.40800    1.000
    H120     H        0.28500    0.08800    0.46700    1.000
    H121     H        0.27600    0.04600    0.43200    1.000
    H122     H        0.25800    0.09700    0.42000    1.000
    H123     H        0.30700    0.09900    0.34300    1.000
    H124     H        0.29300    0.08700    0.42100    1.000
    H125     H        0.34300    0.06700    0.43000    1.000
    H126     H        0.32600    0.03200    0.30900    1.000
    H127     H        0.29000    0.02500    0.35000    1.000
    H128     H        0.34300    0.01200    0.35700    1.000
    H129     H        0.50700    0.16500    0.38000    1.000
    H130     H        0.56600    0.18500    0.32500    1.000
    H131     H        0.55000    0.19900    0.24600    1.000
    H132     H        0.48000    0.19100    0.22300    1.000
    H133     H        0.41900    0.17200    0.26800    1.000
    H134     H        0.50600    0.17500    0.36300    1.000
    H135     H        0.56200    0.19100    0.30000    1.000
    H136     H        0.53800    0.20100    0.22600    1.000
    H137     H        0.45800    0.18400    0.21100    1.000
    H138     H        0.40300    0.16400    0.27400    1.000
    Ni7      Ni       0.60100    0.65270    0.11890    1.000
    O25      O        0.55470    0.60930    0.08840    1.000
    O26      O        0.55270    0.54300    0.12960    1.000
    C103     C        0.53730    0.57020    0.09800    1.000
    C104     C        0.49650    0.55580    0.06940    1.000
    C105     C        0.46990    0.51630    0.08160    1.000
    O27      O        0.65820    0.63520    0.07730    1.000
    O28      O        0.62600    0.59620    0.15860    1.000
    C106     C        0.67440    0.58980    0.08790    1.000
    C107     C        0.66970    0.57940    0.14170    1.000
    C108     C        0.71730    0.57930    0.06520    1.000
    C109     C        0.67870    0.53320    0.15760    1.000
    N13      N        0.54560    0.66690    0.16520    1.000
    C110     C        0.50170    0.67040    0.15180    1.000
    C111     C        0.46570    0.68230    0.18570    1.000
    C112     C        0.47430    0.69010    0.23200    1.000
    C113     C        0.51430    0.68580    0.24440    1.000
    C114     C        0.55100    0.67490    0.21800    1.000
    N14      N        0.54800    0.66820    0.18300    1.000
    C115     C        0.50340    0.67610    0.16920    1.000
    C116     C        0.47060    0.68700    0.20730    1.000
    C117     C        0.48290    0.69180    0.24950    1.000
    C118     C        0.53100    0.68230    0.25750    1.000
    C119     C        0.56460    0.67010    0.22010    1.000
    H139     H        0.48000    0.50200    0.11000    1.000
    H140     H        0.65200    0.56900    0.07300    1.000
    H141     H        0.70400    0.57800    0.10300    1.000
    H142     H        0.65600    0.55500    0.09200    1.000
    H143     H        0.71500    0.58800    0.03300    1.000
    H144     H        0.72400    0.54600    0.06800    1.000
    H145     H        0.74200    0.59700    0.08000    1.000
    H146     H        0.69300    0.59900    0.15700    1.000
    H147     H        0.70700    0.58700    0.07900    1.000
    H148     H        0.65700    0.56700    0.07000    1.000
    H149     H        0.67400    0.53200    0.19100    1.000
    H150     H        0.71000    0.52500    0.15000    1.000
    H151     H        0.65700    0.51200    0.14300    1.000
    H152     H        0.49300    0.66500    0.12000    1.000
    H153     H        0.43400    0.68500    0.17500    1.000
    H154     H        0.45000    0.69900    0.25400    1.000
    H155     H        0.52000    0.69100    0.27700    1.000
    H156     H        0.58100    0.67200    0.23200    1.000
    H157     H        0.49400    0.67500    0.13700    1.000
    H158     H        0.43800    0.69100    0.20000    1.000
    H159     H        0.46200    0.70100    0.27400    1.000
    H160     H        0.54200    0.68400    0.28900    1.000
    H161     H        0.59700    0.66400    0.22600    1.000
    Ni8      Ni       0.10100    0.84730    0.88110    1.000
    O29      O        0.05470    0.89070    0.91160    1.000
    O30      O        0.05270    0.95700    0.87040    1.000
    C120     C        0.03730    0.92980    0.90200    1.000
    C121     C        0.99650    0.94420    0.93060    1.000
    C122     C        0.96990    0.98370    0.91840    1.000
    O31      O        0.15820    0.86480    0.92270    1.000
    O32      O        0.12600    0.90380    0.84140    1.000
    C123     C        0.17440    0.91020    0.91210    1.000
    C124     C        0.16970    0.92060    0.85830    1.000
    C125     C        0.21730    0.92070    0.93480    1.000
    C126     C        0.17870    0.96680    0.84240    1.000
    N15      N        0.04560    0.83310    0.83480    1.000
    C127     C        0.00170    0.82960    0.84820    1.000
    C128     C        0.96570    0.81770    0.81430    1.000
    C129     C        0.97430    0.80990    0.76800    1.000
    C130     C        0.01430    0.81420    0.75560    1.000
    C131     C        0.05100    0.82510    0.78200    1.000
    N16      N        0.04800    0.83180    0.81700    1.000
    C132     C        0.00340    0.82390    0.83080    1.000
    C133     C        0.97060    0.81300    0.79270    1.000
    C134     C        0.98290    0.80820    0.75050    1.000
    C135     C        0.03100    0.81770    0.74250    1.000
    C136     C        0.06460    0.82990    0.77990    1.000
    H162     H        0.98000    0.99800    0.89000    1.000
    H163     H        0.15200    0.93100    0.92700    1.000
    H164     H        0.20400    0.92200    0.89700    1.000
    H165     H        0.15600    0.94500    0.90800    1.000
    H166     H        0.21500    0.91200    0.96700    1.000
    H167     H        0.22400    0.95400    0.93200    1.000
    H168     H        0.24200    0.90300    0.92000    1.000
    H169     H        0.19300    0.90100    0.84300    1.000
    H170     H        0.20700    0.91300    0.92100    1.000
    H171     H        0.15700    0.93300    0.93000    1.000
    H172     H        0.17400    0.96800    0.80900    1.000
    H173     H        0.21000    0.97500    0.85000    1.000
    H174     H        0.15700    0.98800    0.85700    1.000
    H175     H        0.99300    0.83500    0.88000    1.000
    H176     H        0.93400    0.81500    0.82500    1.000
    H177     H        0.95000    0.80100    0.74600    1.000
    H178     H        0.02000    0.80900    0.72300    1.000
    H179     H        0.08100    0.82800    0.76800    1.000
    H180     H        0.99400    0.82500    0.86300    1.000
    H181     H        0.93800    0.80900    0.80000    1.000
    H182     H        0.96200    0.79900    0.72600    1.000
    H183     H        0.04200    0.81600    0.71100    1.000
    H184     H        0.09700    0.83600    0.77400    1.000
    Ni9      Ni       0.61890    0.89900    0.34730    1.000
    O33      O        0.58840    0.94530    0.39070    1.000
    O34      O        0.62960    0.94730    0.45700    1.000
    C137     C        0.59800    0.96270    0.42980    1.000
    C138     C        0.56940    0.00350    0.44420    1.000
    C139     C        0.58160    0.03010    0.48370    1.000
    O35      O        0.57730    0.84180    0.36480    1.000
    O36      O        0.65860    0.87400    0.40380    1.000
    C140     C        0.58790    0.82560    0.41020    1.000
    C141     C        0.64170    0.83030    0.42060    1.000
    C142     C        0.56520    0.78270    0.42070    1.000
    C143     C        0.65760    0.82130    0.46680    1.000
    N17      N        0.66520    0.95440    0.33310    1.000
    C144     C        0.65180    0.99830    0.32960    1.000
    C145     C        0.68570    0.03430    0.31770    1.000
    C146     C        0.73200    0.02570    0.30990    1.000
    C147     C        0.74440    0.98570    0.31420    1.000
    C148     C        0.71800    0.94900    0.32510    1.000
    N18      N        0.68300    0.95200    0.33180    1.000
    C149     C        0.66920    0.99660    0.32390    1.000
    C150     C        0.70730    0.02940    0.31300    1.000
    C151     C        0.74950    0.01710    0.30820    1.000
    C152     C        0.75750    0.96900    0.31770    1.000
    C153     C        0.72010    0.93540    0.32990    1.000
    H185     H        0.61000    0.02000    0.49800    1.000
    H186     H        0.57300    0.84800    0.43100    1.000
    H187     H        0.60300    0.79600    0.42200    1.000
    H188     H        0.59200    0.84400    0.44500    1.000
    H189     H        0.53300    0.78500    0.41200    1.000
    H190     H        0.56800    0.77600    0.45400    1.000
    H191     H        0.58000    0.75800    0.40300    1.000
    H192     H        0.65700    0.80700    0.40100    1.000
    H193     H        0.57900    0.79300    0.41300    1.000
    H194     H        0.57000    0.84300    0.43300    1.000
    H195     H        0.69100    0.82600    0.46800    1.000
    H196     H        0.65000    0.79000    0.47500    1.000
    H197     H        0.64300    0.84300    0.48800    1.000
    H198     H        0.62000    0.00700    0.33500    1.000
    H199     H        0.67500    0.06600    0.31500    1.000
    H200     H        0.75400    0.05000    0.30100    1.000
    H201     H        0.77700    0.98000    0.30900    1.000
    H202     H        0.73200    0.91900    0.32800    1.000
    H203     H        0.63700    0.00600    0.32500    1.000
    H204     H        0.70000    0.06200    0.30900    1.000
    H205     H        0.77400    0.03800    0.29900    1.000
    H206     H        0.78900    0.95800    0.31600    1.000
    H207     H        0.72600    0.90300    0.33600    1.000
    Ni10     Ni       0.38110    0.39900    0.15270    1.000
    O37      O        0.41160    0.44530    0.10930    1.000
    O38      O        0.37040    0.44730    0.04300    1.000
    C154     C        0.40200    0.46270    0.07020    1.000
    C155     C        0.43060    0.50350    0.05580    1.000
    C156     C        0.41840    0.53010    0.01630    1.000
    O39      O        0.42270    0.34180    0.13520    1.000
    O40      O        0.34140    0.37400    0.09620    1.000
    C157     C        0.41210    0.32560    0.08980    1.000
    C158     C        0.35830    0.33030    0.07940    1.000
    C159     C        0.43480    0.28270    0.07930    1.000
    C160     C        0.34240    0.32130    0.03320    1.000
    N19      N        0.33480    0.45440    0.16690    1.000
    C161     C        0.34820    0.49830    0.17040    1.000
    C162     C        0.31430    0.53430    0.18230    1.000
    C163     C        0.26800    0.52570    0.19010    1.000
    C164     C        0.25560    0.48570    0.18580    1.000
    C165     C        0.28200    0.44900    0.17490    1.000
    N20      N        0.31700    0.45200    0.16820    1.000
    C166     C        0.33080    0.49660    0.17610    1.000
    C167     C        0.29270    0.52940    0.18700    1.000
    C168     C        0.25050    0.51710    0.19180    1.000
    C169     C        0.24250    0.46900    0.18230    1.000
    C170     C        0.27990    0.43540    0.17010    1.000
    H208     H        0.39000    0.52000    0.00200    1.000
    H209     H        0.42700    0.34800    0.06900    1.000
    H210     H        0.39700    0.29600    0.07800    1.000
    H211     H        0.40800    0.34400    0.05500    1.000
    H212     H        0.46700    0.28500    0.08800    1.000
    H213     H        0.43200    0.27600    0.04600    1.000
    H214     H        0.42000    0.25800    0.09700    1.000
    H215     H        0.34300    0.30700    0.09900    1.000
    H216     H        0.42100    0.29300    0.08700    1.000
    H217     H        0.43000    0.34300    0.06700    1.000
    H218     H        0.30900    0.32600    0.03200    1.000
    H219     H        0.35000    0.29000    0.02500    1.000
    H220     H        0.35700    0.34300    0.01200    1.000
    H221     H        0.38000    0.50700    0.16500    1.000
    H222     H        0.32500    0.56600    0.18500    1.000
    H223     H        0.24600    0.55000    0.19900    1.000
    H224     H        0.22300    0.48000    0.19100    1.000
    H225     H        0.26800    0.41900    0.17200    1.000
    H226     H        0.36300    0.50600    0.17500    1.000
    H227     H        0.30000    0.56200    0.19100    1.000
    H228     H        0.22600    0.53800    0.20100    1.000
    H229     H        0.21100    0.45800    0.18400    1.000
    H230     H        0.27400    0.40300    0.16400    1.000
    Ni11     Ni       0.11890    0.60100    0.65270    1.000
    O41      O        0.08840    0.55470    0.60930    1.000
    O42      O        0.12960    0.55270    0.54300    1.000
    C171     C        0.09800    0.53730    0.57020    1.000
    C172     C        0.06940    0.49650    0.55580    1.000
    C173     C        0.08160    0.46990    0.51630    1.000
    O43      O        0.07730    0.65820    0.63520    1.000
    O44      O        0.15860    0.62600    0.59620    1.000
    C174     C        0.08790    0.67440    0.58980    1.000
    C175     C        0.14170    0.66970    0.57940    1.000
    C176     C        0.06520    0.71730    0.57930    1.000
    C177     C        0.15760    0.67870    0.53320    1.000
    N21      N        0.16520    0.54560    0.66690    1.000
    C178     C        0.15180    0.50170    0.67040    1.000
    C179     C        0.18570    0.46570    0.68230    1.000
    C180     C        0.23200    0.47430    0.69010    1.000
    C181     C        0.24440    0.51430    0.68580    1.000
    C182     C        0.21800    0.55100    0.67490    1.000
    N22      N        0.18300    0.54800    0.66820    1.000
    C183     C        0.16920    0.50340    0.67610    1.000
    C184     C        0.20730    0.47060    0.68700    1.000
    C185     C        0.24950    0.48290    0.69180    1.000
    C186     C        0.25750    0.53100    0.68230    1.000
    C187     C        0.22010    0.56460    0.67010    1.000
    H231     H        0.11000    0.48000    0.50200    1.000
    H232     H        0.07300    0.65200    0.56900    1.000
    H233     H        0.10300    0.70400    0.57800    1.000
    H234     H        0.09200    0.65600    0.55500    1.000
    H235     H        0.03300    0.71500    0.58800    1.000
    H236     H        0.06800    0.72400    0.54600    1.000
    H237     H        0.08000    0.74200    0.59700    1.000
    H238     H        0.15700    0.69300    0.59900    1.000
    H239     H        0.07900    0.70700    0.58700    1.000
    H240     H        0.07000    0.65700    0.56700    1.000
    H241     H        0.19100    0.67400    0.53200    1.000
    H242     H        0.15000    0.71000    0.52500    1.000
    H243     H        0.14300    0.65700    0.51200    1.000
    H244     H        0.12000    0.49300    0.66500    1.000
    H245     H        0.17500    0.43400    0.68500    1.000
    H246     H        0.25400    0.45000    0.69900    1.000
    H247     H        0.27700    0.52000    0.69100    1.000
    H248     H        0.23200    0.58100    0.67200    1.000
    H249     H        0.13700    0.49400    0.67500    1.000
    H250     H        0.20000    0.43800    0.69100    1.000
    H251     H        0.27400    0.46200    0.70100    1.000
    H252     H        0.28900    0.54200    0.68400    1.000
    H253     H        0.22600    0.59700    0.66400    1.000
    Ni12     Ni       0.88110    0.10100    0.84730    1.000
    O45      O        0.91160    0.05470    0.89070    1.000
    O46      O        0.87040    0.05270    0.95700    1.000
    C188     C        0.90200    0.03730    0.92980    1.000
    C189     C        0.93060    0.99650    0.94420    1.000
    C190     C        0.91840    0.96990    0.98370    1.000
    O47      O        0.92270    0.15820    0.86480    1.000
    O48      O        0.84140    0.12600    0.90380    1.000
    C191     C        0.91210    0.17440    0.91020    1.000
    C192     C        0.85830    0.16970    0.92060    1.000
    C193     C        0.93480    0.21730    0.92070    1.000
    C194     C        0.84240    0.17870    0.96680    1.000
    N23      N        0.83480    0.04560    0.83310    1.000
    C195     C        0.84820    0.00170    0.82960    1.000
    C196     C        0.81430    0.96570    0.81770    1.000
    C197     C        0.76800    0.97430    0.80990    1.000
    C198     C        0.75560    0.01430    0.81420    1.000
    C199     C        0.78200    0.05100    0.82510    1.000
    N24      N        0.81700    0.04800    0.83180    1.000
    C200     C        0.83080    0.00340    0.82390    1.000
    C201     C        0.79270    0.97060    0.81300    1.000
    C202     C        0.75050    0.98290    0.80820    1.000
    C203     C        0.74250    0.03100    0.81770    1.000
    C204     C        0.77990    0.06460    0.82990    1.000
    H254     H        0.89000    0.98000    0.99800    1.000
    H255     H        0.92700    0.15200    0.93100    1.000
    H256     H        0.89700    0.20400    0.92200    1.000
    H257     H        0.90800    0.15600    0.94500    1.000
    H258     H        0.96700    0.21500    0.91200    1.000
    H259     H        0.93200    0.22400    0.95400    1.000
    H260     H        0.92000    0.24200    0.90300    1.000
    H261     H        0.84300    0.19300    0.90100    1.000
    H262     H        0.92100    0.20700    0.91300    1.000
    H263     H        0.93000    0.15700    0.93300    1.000
    H264     H        0.80900    0.17400    0.96800    1.000
    H265     H        0.85000    0.21000    0.97500    1.000
    H266     H        0.85700    0.15700    0.98800    1.000
    H267     H        0.88000    0.99300    0.83500    1.000
    H268     H        0.82500    0.93400    0.81500    1.000
    H269     H        0.74600    0.95000    0.80100    1.000
    H270     H        0.72300    0.02000    0.80900    1.000
    H271     H        0.76800    0.08100    0.82800    1.000
    H272     H        0.86300    0.99400    0.82500    1.000
    H273     H        0.80000    0.93800    0.80900    1.000
    H274     H        0.72600    0.96200    0.79900    1.000
    H275     H        0.71100    0.04200    0.81600    1.000
    H276     H        0.77400    0.09700    0.83600    1.000
    Ni13     Ni       0.86890    0.09730    0.85100    1.000
    O49      O        0.83840    0.14070    0.80470    1.000
    O50      O        0.87960    0.20700    0.80270    1.000
    C205     C        0.84800    0.17980    0.78730    1.000
    C206     C        0.81940    0.19420    0.74650    1.000
    C207     C        0.83160    0.23370    0.71990    1.000
    O51      O        0.82730    0.11480    0.90820    1.000
    O52      O        0.90860    0.15380    0.87600    1.000
    C208     C        0.83790    0.16020    0.92440    1.000
    C209     C        0.89170    0.17060    0.91970    1.000
    C210     C        0.81520    0.17070    0.96730    1.000
    C211     C        0.90760    0.21680    0.92870    1.000
    N25      N        0.91520    0.08310    0.79560    1.000
    C212     C        0.90180    0.07960    0.75170    1.000
    C213     C        0.93570    0.06770    0.71570    1.000
    C214     C        0.98200    0.05990    0.72430    1.000
    C215     C        0.99440    0.06420    0.76430    1.000
    C216     C        0.96800    0.07510    0.80100    1.000
    N26      N        0.93300    0.08180    0.79800    1.000
    C217     C        0.91920    0.07390    0.75340    1.000
    C218     C        0.95730    0.06300    0.72060    1.000
    C219     C        0.99950    0.05820    0.73290    1.000
    C220     C        0.00750    0.06770    0.78100    1.000
    C221     C        0.97010    0.07990    0.81460    1.000
    H277     H        0.86000    0.24800    0.73000    1.000
    H278     H        0.82300    0.18100    0.90200    1.000
    H279     H        0.85300    0.17200    0.95400    1.000
    H280     H        0.84200    0.19500    0.90600    1.000
    H281     H        0.78300    0.16200    0.96500    1.000
    H282     H        0.81800    0.20400    0.97400    1.000
    H283     H        0.83000    0.15300    0.99200    1.000
    H284     H        0.90700    0.15100    0.94300    1.000
    H285     H        0.82900    0.16300    0.95700    1.000
    H286     H        0.82000    0.18300    0.90700    1.000
    H287     H        0.94100    0.21800    0.92400    1.000
    H288     H        0.90000    0.22500    0.96000    1.000
    H289     H        0.89300    0.23800    0.90700    1.000
    H290     H        0.87000    0.08500    0.74300    1.000
    H291     H        0.92500    0.06500    0.68400    1.000
    H292     H        0.00400    0.05100    0.70000    1.000
    H293     H        0.02700    0.05900    0.77000    1.000
    H294     H        0.98200    0.07800    0.83100    1.000
    H295     H        0.88700    0.07500    0.74400    1.000
    H296     H        0.95000    0.05900    0.68800    1.000
    H297     H        0.02400    0.04900    0.71200    1.000
    H298     H        0.03900    0.06600    0.79200    1.000
    H299     H        0.97600    0.08600    0.84700    1.000
    Ni14     Ni       0.63110    0.90270    0.35100    1.000
    O53      O        0.66160    0.85930    0.30470    1.000
    O54      O        0.62040    0.79300    0.30270    1.000
    C222     C        0.65200    0.82020    0.28730    1.000
    C223     C        0.68060    0.80580    0.24650    1.000
    C224     C        0.66840    0.76630    0.21990    1.000
    O55      O        0.67270    0.88520    0.40820    1.000
    O56      O        0.59140    0.84620    0.37600    1.000
    C225     C        0.66210    0.83980    0.42440    1.000
    C226     C        0.60830    0.82940    0.41970    1.000
    C227     C        0.68480    0.82930    0.46730    1.000
    C228     C        0.59240    0.78320    0.42870    1.000
    N27      N        0.58480    0.91690    0.29560    1.000
    C229     C        0.59820    0.92040    0.25170    1.000
    C230     C        0.56430    0.93230    0.21570    1.000
    C231     C        0.51800    0.94010    0.22430    1.000
    C232     C        0.50560    0.93580    0.26430    1.000
    C233     C        0.53200    0.92490    0.30100    1.000
    N28      N        0.56700    0.91820    0.29800    1.000
    C234     C        0.58080    0.92610    0.25340    1.000
    C235     C        0.54270    0.93700    0.22060    1.000
    C236     C        0.50050    0.94180    0.23290    1.000
    C237     C        0.49250    0.93230    0.28100    1.000
    C238     C        0.52990    0.92010    0.31460    1.000
    H300     H        0.64000    0.75200    0.23000    1.000
    H301     H        0.67700    0.81900    0.40200    1.000
    H302     H        0.64700    0.82800    0.45400    1.000
    H303     H        0.65800    0.80500    0.40600    1.000
    H304     H        0.71700    0.83800    0.46500    1.000
    H305     H        0.68200    0.79600    0.47400    1.000
    H306     H        0.67000    0.84700    0.49200    1.000
    H307     H        0.59300    0.84900    0.44300    1.000
    H308     H        0.67100    0.83700    0.45700    1.000
    H309     H        0.68000    0.81700    0.40700    1.000
    H310     H        0.55900    0.78200    0.42400    1.000
    H311     H        0.60000    0.77500    0.46000    1.000
    H312     H        0.60700    0.76200    0.40700    1.000
    H313     H        0.63000    0.91500    0.24300    1.000
    H314     H        0.57500    0.93500    0.18400    1.000
    H315     H        0.49600    0.94900    0.20000    1.000
    H316     H        0.47300    0.94100    0.27000    1.000
    H317     H        0.51800    0.92200    0.33100    1.000
    H318     H        0.61300    0.92500    0.24400    1.000
    H319     H        0.55000    0.94100    0.18800    1.000
    H320     H        0.47600    0.95100    0.21200    1.000
    H321     H        0.46100    0.93400    0.29200    1.000
    H322     H        0.52400    0.91400    0.34700    1.000
    Ni15     Ni       0.36890    0.40270    0.14900    1.000
    O57      O        0.33840    0.35930    0.19530    1.000
    O58      O        0.37960    0.29300    0.19730    1.000
    C239     C        0.34800    0.32020    0.21270    1.000
    C240     C        0.31940    0.30580    0.25350    1.000
    C241     C        0.33160    0.26630    0.28010    1.000
    O59      O        0.32730    0.38520    0.09180    1.000
    O60      O        0.40860    0.34620    0.12400    1.000
    C242     C        0.33790    0.33980    0.07560    1.000
    C243     C        0.39170    0.32940    0.08030    1.000
    C244     C        0.31520    0.32930    0.03270    1.000
    C245     C        0.40760    0.28320    0.07130    1.000
    N29      N        0.41520    0.41690    0.20440    1.000
    C246     C        0.40180    0.42040    0.24830    1.000
    C247     C        0.43570    0.43230    0.28430    1.000
    C248     C        0.48200    0.44010    0.27570    1.000
    C249     C        0.49440    0.43580    0.23570    1.000
    C250     C        0.46800    0.42490    0.19900    1.000
    N30      N        0.43300    0.41820    0.20200    1.000
    C251     C        0.41920    0.42610    0.24660    1.000
    C252     C        0.45730    0.43700    0.27940    1.000
    C253     C        0.49950    0.44180    0.26710    1.000
    C254     C        0.50750    0.43230    0.21900    1.000
    C255     C        0.47010    0.42010    0.18540    1.000
    H323     H        0.36000    0.25200    0.27000    1.000
    H324     H        0.32300    0.31900    0.09800    1.000
    H325     H        0.35300    0.32800    0.04600    1.000
    H326     H        0.34200    0.30500    0.09400    1.000
    H327     H        0.28300    0.33800    0.03500    1.000
    H328     H        0.31800    0.29600    0.02600    1.000
    H329     H        0.33000    0.34700    0.00800    1.000
    H330     H        0.40700    0.34900    0.05700    1.000
    H331     H        0.32900    0.33700    0.04300    1.000
    H332     H        0.32000    0.31700    0.09300    1.000
    H333     H        0.44100    0.28200    0.07600    1.000
    H334     H        0.40000    0.27500    0.04000    1.000
    H335     H        0.39300    0.26200    0.09300    1.000
    H336     H        0.37000    0.41500    0.25700    1.000
    H337     H        0.42500    0.43500    0.31600    1.000
    H338     H        0.50400    0.44900    0.30000    1.000
    H339     H        0.52700    0.44100    0.23000    1.000
    H340     H        0.48200    0.42200    0.16900    1.000
    H341     H        0.38700    0.42500    0.25600    1.000
    H342     H        0.45000    0.44100    0.31200    1.000
    H343     H        0.52400    0.45100    0.28800    1.000
    H344     H        0.53900    0.43400    0.20800    1.000
    H345     H        0.47600    0.41400    0.15300    1.000
    Ni16     Ni       0.13110    0.59730    0.64900    1.000
    O61      O        0.16160    0.64070    0.69530    1.000
    O62      O        0.12040    0.70700    0.69730    1.000
    C256     C        0.15200    0.67980    0.71270    1.000
    C257     C        0.18060    0.69420    0.75350    1.000
    C258     C        0.16840    0.73370    0.78010    1.000
    O63      O        0.17270    0.61480    0.59180    1.000
    O64      O        0.09140    0.65380    0.62400    1.000
    C259     C        0.16210    0.66020    0.57560    1.000
    C260     C        0.10830    0.67060    0.58030    1.000
    C261     C        0.18480    0.67070    0.53270    1.000
    C262     C        0.09240    0.71680    0.57130    1.000
    N31      N        0.08480    0.58310    0.70440    1.000
    C263     C        0.09820    0.57960    0.74830    1.000
    C264     C        0.06430    0.56770    0.78430    1.000
    C265     C        0.01800    0.55990    0.77570    1.000
    C266     C        0.00560    0.56420    0.73570    1.000
    C267     C        0.03200    0.57510    0.69900    1.000
    N32      N        0.06700    0.58180    0.70200    1.000
    C268     C        0.08080    0.57390    0.74660    1.000
    C269     C        0.04270    0.56300    0.77940    1.000
    C270     C        0.00050    0.55820    0.76710    1.000
    C271     C        0.99250    0.56770    0.71900    1.000
    C272     C        0.02990    0.57990    0.68540    1.000
    H346     H        0.14000    0.74800    0.77000    1.000
    H347     H        0.17700    0.68100    0.59800    1.000
    H348     H        0.14700    0.67200    0.54600    1.000
    H349     H        0.15800    0.69500    0.59400    1.000
    H350     H        0.21700    0.66200    0.53500    1.000
    H351     H        0.18200    0.70400    0.52600    1.000
    H352     H        0.17000    0.65300    0.50800    1.000
    H353     H        0.09300    0.65100    0.55700    1.000
    H354     H        0.17100    0.66300    0.54300    1.000
    H355     H        0.18000    0.68300    0.59300    1.000
    H356     H        0.05900    0.71800    0.57600    1.000
    H357     H        0.10000    0.72500    0.54000    1.000
    H358     H        0.10700    0.73800    0.59300    1.000
    H359     H        0.13000    0.58500    0.75700    1.000
    H360     H        0.07500    0.56500    0.81600    1.000
    H361     H        0.99600    0.55100    0.80000    1.000
    H362     H        0.97300    0.55900    0.73000    1.000
    H363     H        0.01800    0.57800    0.66900    1.000
    H364     H        0.11300    0.57500    0.75600    1.000
    H365     H        0.05000    0.55900    0.81200    1.000
    H366     H        0.97600    0.54900    0.78800    1.000
    H367     H        0.96100    0.56600    0.70800    1.000
    H368     H        0.02400    0.58600    0.65300    1.000
    Ni17     Ni       0.59730    0.64900    0.13110    1.000
    O65      O        0.64070    0.69530    0.16160    1.000
    O66      O        0.70700    0.69730    0.12040    1.000
    C273     C        0.67980    0.71270    0.15200    1.000
    C274     C        0.69420    0.75350    0.18060    1.000
    C275     C        0.73370    0.78010    0.16840    1.000
    O67      O        0.61480    0.59180    0.17270    1.000
    O68      O        0.65380    0.62400    0.09140    1.000
    C276     C        0.66020    0.57560    0.16210    1.000
    C277     C        0.67060    0.58030    0.10830    1.000
    C278     C        0.67070    0.53270    0.18480    1.000
    C279     C        0.71680    0.57130    0.09240    1.000
    N33      N        0.58310    0.70440    0.08480    1.000
    C280     C        0.57960    0.74830    0.09820    1.000
    C281     C        0.56770    0.78430    0.06430    1.000
    C282     C        0.55990    0.77570    0.01800    1.000
    C283     C        0.56420    0.73570    0.00560    1.000
    C284     C        0.57510    0.69900    0.03200    1.000
    N34      N        0.58180    0.70200    0.06700    1.000
    C285     C        0.57390    0.74660    0.08080    1.000
    C286     C        0.56300    0.77940    0.04270    1.000
    C287     C        0.55820    0.76710    0.00050    1.000
    C288     C        0.56770    0.71900    0.99250    1.000
    C289     C        0.57990    0.68540    0.02990    1.000
    H369     H        0.74800    0.77000    0.14000    1.000
    H370     H        0.68100    0.59800    0.17700    1.000
    H371     H        0.67200    0.54600    0.14700    1.000
    H372     H        0.69500    0.59400    0.15800    1.000
    H373     H        0.66200    0.53500    0.21700    1.000
    H374     H        0.70400    0.52600    0.18200    1.000
    H375     H        0.65300    0.50800    0.17000    1.000
    H376     H        0.65100    0.55700    0.09300    1.000
    H377     H        0.66300    0.54300    0.17100    1.000
    H378     H        0.68300    0.59300    0.18000    1.000
    H379     H        0.71800    0.57600    0.05900    1.000
    H380     H        0.72500    0.54000    0.10000    1.000
    H381     H        0.73800    0.59300    0.10700    1.000
    H382     H        0.58500    0.75700    0.13000    1.000
    H383     H        0.56500    0.81600    0.07500    1.000
    H384     H        0.55100    0.80000    0.99600    1.000
    H385     H        0.55900    0.73000    0.97300    1.000
    H386     H        0.57800    0.66900    0.01800    1.000
    H387     H        0.57500    0.75600    0.11300    1.000
    H388     H        0.55900    0.81200    0.05000    1.000
    H389     H        0.54900    0.78800    0.97600    1.000
    H390     H        0.56600    0.70800    0.96100    1.000
    H391     H        0.58600    0.65300    0.02400    1.000
    Ni18     Ni       0.40270    0.14900    0.36890    1.000
    O69      O        0.35930    0.19530    0.33840    1.000
    O70      O        0.29300    0.19730    0.37960    1.000
    C290     C        0.32020    0.21270    0.34800    1.000
    C291     C        0.30580    0.25350    0.31940    1.000
    C292     C        0.26630    0.28010    0.33160    1.000
    O71      O        0.38520    0.09180    0.32730    1.000
    O72      O        0.34620    0.12400    0.40860    1.000
    C293     C        0.33980    0.07560    0.33790    1.000
    C294     C        0.32940    0.08030    0.39170    1.000
    C295     C        0.32930    0.03270    0.31520    1.000
    C296     C        0.28320    0.07130    0.40760    1.000
    N35      N        0.41690    0.20440    0.41520    1.000
    C297     C        0.42040    0.24830    0.40180    1.000
    C298     C        0.43230    0.28430    0.43570    1.000
    C299     C        0.44010    0.27570    0.48200    1.000
    C300     C        0.43580    0.23570    0.49440    1.000
    C301     C        0.42490    0.19900    0.46800    1.000
    N36      N        0.41820    0.20200    0.43300    1.000
    C302     C        0.42610    0.24660    0.41920    1.000
    C303     C        0.43700    0.27940    0.45730    1.000
    C304     C        0.44180    0.26710    0.49950    1.000
    C305     C        0.43230    0.21900    0.50750    1.000
    C306     C        0.42010    0.18540    0.47010    1.000
    H392     H        0.25200    0.27000    0.36000    1.000
    H393     H        0.31900    0.09800    0.32300    1.000
    H394     H        0.32800    0.04600    0.35300    1.000
    H395     H        0.30500    0.09400    0.34200    1.000
    H396     H        0.33800    0.03500    0.28300    1.000
    H397     H        0.29600    0.02600    0.31800    1.000
    H398     H        0.34700    0.00800    0.33000    1.000
    H399     H        0.34900    0.05700    0.40700    1.000
    H400     H        0.33700    0.04300    0.32900    1.000
    H401     H        0.31700    0.09300    0.32000    1.000
    H402     H        0.28200    0.07600    0.44100    1.000
    H403     H        0.27500    0.04000    0.40000    1.000
    H404     H        0.26200    0.09300    0.39300    1.000
    H405     H        0.41500    0.25700    0.37000    1.000
    H406     H        0.43500    0.31600    0.42500    1.000
    H407     H        0.44900    0.30000    0.50400    1.000
    H408     H        0.44100    0.23000    0.52700    1.000
    H409     H        0.42200    0.16900    0.48200    1.000
    H410     H        0.42500    0.25600    0.38700    1.000
    H411     H        0.44100    0.31200    0.45000    1.000
    H412     H        0.45100    0.28800    0.52400    1.000
    H413     H        0.43400    0.20800    0.53900    1.000
    H414     H        0.41400    0.15300    0.47600    1.000
    Ni19     Ni       0.90270    0.35100    0.63110    1.000
    O73      O        0.85930    0.30470    0.66160    1.000
    O74      O        0.79300    0.30270    0.62040    1.000
    C307     C        0.82020    0.28730    0.65200    1.000
    C308     C        0.80580    0.24650    0.68060    1.000
    C309     C        0.76630    0.21990    0.66840    1.000
    O75      O        0.88520    0.40820    0.67270    1.000
    O76      O        0.84620    0.37600    0.59140    1.000
    C310     C        0.83980    0.42440    0.66210    1.000
    C311     C        0.82940    0.41970    0.60830    1.000
    C312     C        0.82930    0.46730    0.68480    1.000
    C313     C        0.78320    0.42870    0.59240    1.000
    N37      N        0.91690    0.29560    0.58480    1.000
    C314     C        0.92040    0.25170    0.59820    1.000
    C315     C        0.93230    0.21570    0.56430    1.000
    C316     C        0.94010    0.22430    0.51800    1.000
    C317     C        0.93580    0.26430    0.50560    1.000
    C318     C        0.92490    0.30100    0.53200    1.000
    N38      N        0.91820    0.29800    0.56700    1.000
    C319     C        0.92610    0.25340    0.58080    1.000
    C320     C        0.93700    0.22060    0.54270    1.000
    C321     C        0.94180    0.23290    0.50050    1.000
    C322     C        0.93230    0.28100    0.49250    1.000
    C323     C        0.92010    0.31460    0.52990    1.000
    H415     H        0.75200    0.23000    0.64000    1.000
    H416     H        0.81900    0.40200    0.67700    1.000
    H417     H        0.82800    0.45400    0.64700    1.000
    H418     H        0.80500    0.40600    0.65800    1.000
    H419     H        0.83800    0.46500    0.71700    1.000
    H420     H        0.79600    0.47400    0.68200    1.000
    H421     H        0.84700    0.49200    0.67000    1.000
    H422     H        0.84900    0.44300    0.59300    1.000
    H423     H        0.83700    0.45700    0.67100    1.000
    H424     H        0.81700    0.40700    0.68000    1.000
    H425     H        0.78200    0.42400    0.55900    1.000
    H426     H        0.77500    0.46000    0.60000    1.000
    H427     H        0.76200    0.40700    0.60700    1.000
    H428     H        0.91500    0.24300    0.63000    1.000
    H429     H        0.93500    0.18400    0.57500    1.000
    H430     H        0.94900    0.20000    0.49600    1.000
    H431     H        0.94100    0.27000    0.47300    1.000
    H432     H        0.92200    0.33100    0.51800    1.000
    H433     H        0.92500    0.24400    0.61300    1.000
    H434     H        0.94100    0.18800    0.55000    1.000
    H435     H        0.95100    0.21200    0.47600    1.000
    H436     H        0.93400    0.29200    0.46100    1.000
    H437     H        0.91400    0.34700    0.52400    1.000
    Ni20     Ni       0.09730    0.85100    0.86890    1.000
    O77      O        0.14070    0.80470    0.83840    1.000
    O78      O        0.20700    0.80270    0.87960    1.000
    C324     C        0.17980    0.78730    0.84800    1.000
    C325     C        0.19420    0.74650    0.81940    1.000
    C326     C        0.23370    0.71990    0.83160    1.000
    O79      O        0.11480    0.90820    0.82730    1.000
    O80      O        0.15380    0.87600    0.90860    1.000
    C327     C        0.16020    0.92440    0.83790    1.000
    C328     C        0.17060    0.91970    0.89170    1.000
    C329     C        0.17070    0.96730    0.81520    1.000
    C330     C        0.21680    0.92870    0.90760    1.000
    N39      N        0.08310    0.79560    0.91520    1.000
    C331     C        0.07960    0.75170    0.90180    1.000
    C332     C        0.06770    0.71570    0.93570    1.000
    C333     C        0.05990    0.72430    0.98200    1.000
    C334     C        0.06420    0.76430    0.99440    1.000
    C335     C        0.07510    0.80100    0.96800    1.000
    N40      N        0.08180    0.79800    0.93300    1.000
    C336     C        0.07390    0.75340    0.91920    1.000
    C337     C        0.06300    0.72060    0.95730    1.000
    C338     C        0.05820    0.73290    0.99950    1.000
    C339     C        0.06770    0.78100    0.00750    1.000
    C340     C        0.07990    0.81460    0.97010    1.000
    H438     H        0.24800    0.73000    0.86000    1.000
    H439     H        0.18100    0.90200    0.82300    1.000
    H440     H        0.17200    0.95400    0.85300    1.000
    H441     H        0.19500    0.90600    0.84200    1.000
    H442     H        0.16200    0.96500    0.78300    1.000
    H443     H        0.20400    0.97400    0.81800    1.000
    H444     H        0.15300    0.99200    0.83000    1.000
    H445     H        0.15100    0.94300    0.90700    1.000
    H446     H        0.16300    0.95700    0.82900    1.000
    H447     H        0.18300    0.90700    0.82000    1.000
    H448     H        0.21800    0.92400    0.94100    1.000
    H449     H        0.22500    0.96000    0.90000    1.000
    H450     H        0.23800    0.90700    0.89300    1.000
    H451     H        0.08500    0.74300    0.87000    1.000
    H452     H        0.06500    0.68400    0.92500    1.000
    H453     H        0.05100    0.70000    0.00400    1.000
    H454     H        0.05900    0.77000    0.02700    1.000
    H455     H        0.07800    0.83100    0.98200    1.000
    H456     H        0.07500    0.74400    0.88700    1.000
    H457     H        0.05900    0.68800    0.95000    1.000
    H458     H        0.04900    0.71200    0.02400    1.000
    H459     H        0.06600    0.79200    0.03900    1.000
    H460     H        0.08600    0.84700    0.97600    1.000
    Ni21     Ni       0.14900    0.36890    0.40270    1.000
    O81      O        0.19530    0.33840    0.35930    1.000
    O82      O        0.19730    0.37960    0.29300    1.000
    C341     C        0.21270    0.34800    0.32020    1.000
    C342     C        0.25350    0.31940    0.30580    1.000
    C343     C        0.28010    0.33160    0.26630    1.000
    O83      O        0.09180    0.32730    0.38520    1.000
    O84      O        0.12400    0.40860    0.34620    1.000
    C344     C        0.07560    0.33790    0.33980    1.000
    C345     C        0.08030    0.39170    0.32940    1.000
    C346     C        0.03270    0.31520    0.32930    1.000
    C347     C        0.07130    0.40760    0.28320    1.000
    N41      N        0.20440    0.41520    0.41690    1.000
    C348     C        0.24830    0.40180    0.42040    1.000
    C349     C        0.28430    0.43570    0.43230    1.000
    C350     C        0.27570    0.48200    0.44010    1.000
    C351     C        0.23570    0.49440    0.43580    1.000
    C352     C        0.19900    0.46800    0.42490    1.000
    N42      N        0.20200    0.43300    0.41820    1.000
    C353     C        0.24660    0.41920    0.42610    1.000
    C354     C        0.27940    0.45730    0.43700    1.000
    C355     C        0.26710    0.49950    0.44180    1.000
    C356     C        0.21900    0.50750    0.43230    1.000
    C357     C        0.18540    0.47010    0.42010    1.000
    H461     H        0.27000    0.36000    0.25200    1.000
    H462     H        0.09800    0.32300    0.31900    1.000
    H463     H        0.04600    0.35300    0.32800    1.000
    H464     H        0.09400    0.34200    0.30500    1.000
    H465     H        0.03500    0.28300    0.33800    1.000
    H466     H        0.02600    0.31800    0.29600    1.000
    H467     H        0.00800    0.33000    0.34700    1.000
    H468     H        0.05700    0.40700    0.34900    1.000
    H469     H        0.04300    0.32900    0.33700    1.000
    H470     H        0.09300    0.32000    0.31700    1.000
    H471     H        0.07600    0.44100    0.28200    1.000
    H472     H        0.04000    0.40000    0.27500    1.000
    H473     H        0.09300    0.39300    0.26200    1.000
    H474     H        0.25700    0.37000    0.41500    1.000
    H475     H        0.31600    0.42500    0.43500    1.000
    H476     H        0.30000    0.50400    0.44900    1.000
    H477     H        0.23000    0.52700    0.44100    1.000
    H478     H        0.16900    0.48200    0.42200    1.000
    H479     H        0.25600    0.38700    0.42500    1.000
    H480     H        0.31200    0.45000    0.44100    1.000
    H481     H        0.28800    0.52400    0.45100    1.000
    H482     H        0.20800    0.53900    0.43400    1.000
    H483     H        0.15300    0.47600    0.41400    1.000
    Ni22     Ni       0.64900    0.13110    0.59730    1.000
    O85      O        0.69530    0.16160    0.64070    1.000
    O86      O        0.69730    0.12040    0.70700    1.000
    C358     C        0.71270    0.15200    0.67980    1.000
    C359     C        0.75350    0.18060    0.69420    1.000
    C360     C        0.78010    0.16840    0.73370    1.000
    O87      O        0.59180    0.17270    0.61480    1.000
    O88      O        0.62400    0.09140    0.65380    1.000
    C361     C        0.57560    0.16210    0.66020    1.000
    C362     C        0.58030    0.10830    0.67060    1.000
    C363     C        0.53270    0.18480    0.67070    1.000
    C364     C        0.57130    0.09240    0.71680    1.000
    N43      N        0.70440    0.08480    0.58310    1.000
    C365     C        0.74830    0.09820    0.57960    1.000
    C366     C        0.78430    0.06430    0.56770    1.000
    C367     C        0.77570    0.01800    0.55990    1.000
    C368     C        0.73570    0.00560    0.56420    1.000
    C369     C        0.69900    0.03200    0.57510    1.000
    N44      N        0.70200    0.06700    0.58180    1.000
    C370     C        0.74660    0.08080    0.57390    1.000
    C371     C        0.77940    0.04270    0.56300    1.000
    C372     C        0.76710    0.00050    0.55820    1.000
    C373     C        0.71900    0.99250    0.56770    1.000
    C374     C        0.68540    0.02990    0.57990    1.000
    H484     H        0.77000    0.14000    0.74800    1.000
    H485     H        0.59800    0.17700    0.68100    1.000
    H486     H        0.54600    0.14700    0.67200    1.000
    H487     H        0.59400    0.15800    0.69500    1.000
    H488     H        0.53500    0.21700    0.66200    1.000
    H489     H        0.52600    0.18200    0.70400    1.000
    H490     H        0.50800    0.17000    0.65300    1.000
    H491     H        0.55700    0.09300    0.65100    1.000
    H492     H        0.54300    0.17100    0.66300    1.000
    H493     H        0.59300    0.18000    0.68300    1.000
    H494     H        0.57600    0.05900    0.71800    1.000
    H495     H        0.54000    0.10000    0.72500    1.000
    H496     H        0.59300    0.10700    0.73800    1.000
    H497     H        0.75700    0.13000    0.58500    1.000
    H498     H        0.81600    0.07500    0.56500    1.000
    H499     H        0.80000    0.99600    0.55100    1.000
    H500     H        0.73000    0.97300    0.55900    1.000
    H501     H        0.66900    0.01800    0.57800    1.000
    H502     H        0.75600    0.11300    0.57500    1.000
    H503     H        0.81200    0.05000    0.55900    1.000
    H504     H        0.78800    0.97600    0.54900    1.000
    H505     H        0.70800    0.96100    0.56600    1.000
    H506     H        0.65300    0.02400    0.58600    1.000
    Ni23     Ni       0.85100    0.86890    0.09730    1.000
    O89      O        0.80470    0.83840    0.14070    1.000
    O90      O        0.80270    0.87960    0.20700    1.000
    C375     C        0.78730    0.84800    0.17980    1.000
    C376     C        0.74650    0.81940    0.19420    1.000
    C377     C        0.71990    0.83160    0.23370    1.000
    O91      O        0.90820    0.82730    0.11480    1.000
    O92      O        0.87600    0.90860    0.15380    1.000
    C378     C        0.92440    0.83790    0.16020    1.000
    C379     C        0.91970    0.89170    0.17060    1.000
    C380     C        0.96730    0.81520    0.17070    1.000
    C381     C        0.92870    0.90760    0.21680    1.000
    N45      N        0.79560    0.91520    0.08310    1.000
    C382     C        0.75170    0.90180    0.07960    1.000
    C383     C        0.71570    0.93570    0.06770    1.000
    C384     C        0.72430    0.98200    0.05990    1.000
    C385     C        0.76430    0.99440    0.06420    1.000
    C386     C        0.80100    0.96800    0.07510    1.000
    N46      N        0.79800    0.93300    0.08180    1.000
    C387     C        0.75340    0.91920    0.07390    1.000
    C388     C        0.72060    0.95730    0.06300    1.000
    C389     C        0.73290    0.99950    0.05820    1.000
    C390     C        0.78100    0.00750    0.06770    1.000
    C391     C        0.81460    0.97010    0.07990    1.000
    H507     H        0.73000    0.86000    0.24800    1.000
    H508     H        0.90200    0.82300    0.18100    1.000
    H509     H        0.95400    0.85300    0.17200    1.000
    H510     H        0.90600    0.84200    0.19500    1.000
    H511     H        0.96500    0.78300    0.16200    1.000
    H512     H        0.97400    0.81800    0.20400    1.000
    H513     H        0.99200    0.83000    0.15300    1.000
    H514     H        0.94300    0.90700    0.15100    1.000
    H515     H        0.95700    0.82900    0.16300    1.000
    H516     H        0.90700    0.82000    0.18300    1.000
    H517     H        0.92400    0.94100    0.21800    1.000
    H518     H        0.96000    0.90000    0.22500    1.000
    H519     H        0.90700    0.89300    0.23800    1.000
    H520     H        0.74300    0.87000    0.08500    1.000
    H521     H        0.68400    0.92500    0.06500    1.000
    H522     H        0.70000    0.00400    0.05100    1.000
    H523     H        0.77000    0.02700    0.05900    1.000
    H524     H        0.83100    0.98200    0.07800    1.000
    H525     H        0.74400    0.88700    0.07500    1.000
    H526     H        0.68800    0.95000    0.05900    1.000
    H527     H        0.71200    0.02400    0.04900    1.000
    H528     H        0.79200    0.03900    0.06600    1.000
    H529     H        0.84700    0.97600    0.08600    1.000
    Ni24     Ni       0.35100    0.63110    0.90270    1.000
    O93      O        0.30470    0.66160    0.85930    1.000
    O94      O        0.30270    0.62040    0.79300    1.000
    C392     C        0.28730    0.65200    0.82020    1.000
    C393     C        0.24650    0.68060    0.80580    1.000
    C394     C        0.21990    0.66840    0.76630    1.000
    O95      O        0.40820    0.67270    0.88520    1.000
    O96      O        0.37600    0.59140    0.84620    1.000
    C395     C        0.42440    0.66210    0.83980    1.000
    C396     C        0.41970    0.60830    0.82940    1.000
    C397     C        0.46730    0.68480    0.82930    1.000
    C398     C        0.42870    0.59240    0.78320    1.000
    N47      N        0.29560    0.58480    0.91690    1.000
    C399     C        0.25170    0.59820    0.92040    1.000
    C400     C        0.21570    0.56430    0.93230    1.000
    C401     C        0.22430    0.51800    0.94010    1.000
    C402     C        0.26430    0.50560    0.93580    1.000
    C403     C        0.30100    0.53200    0.92490    1.000
    N48      N        0.29800    0.56700    0.91820    1.000
    C404     C        0.25340    0.58080    0.92610    1.000
    C405     C        0.22060    0.54270    0.93700    1.000
    C406     C        0.23290    0.50050    0.94180    1.000
    C407     C        0.28100    0.49250    0.93230    1.000
    C408     C        0.31460    0.52990    0.92010    1.000
    H530     H        0.23000    0.64000    0.75200    1.000
    H531     H        0.40200    0.67700    0.81900    1.000
    H532     H        0.45400    0.64700    0.82800    1.000
    H533     H        0.40600    0.65800    0.80500    1.000
    H534     H        0.46500    0.71700    0.83800    1.000
    H535     H        0.47400    0.68200    0.79600    1.000
    H536     H        0.49200    0.67000    0.84700    1.000
    H537     H        0.44300    0.59300    0.84900    1.000
    H538     H        0.45700    0.67100    0.83700    1.000
    H539     H        0.40700    0.68000    0.81700    1.000
    H540     H        0.42400    0.55900    0.78200    1.000
    H541     H        0.46000    0.60000    0.77500    1.000
    H542     H        0.40700    0.60700    0.76200    1.000
    H543     H        0.24300    0.63000    0.91500    1.000
    H544     H        0.18400    0.57500    0.93500    1.000
    H545     H        0.20000    0.49600    0.94900    1.000
    H546     H        0.27000    0.47300    0.94100    1.000
    H547     H        0.33100    0.51800    0.92200    1.000
    H548     H        0.24400    0.61300    0.92500    1.000
    H549     H        0.18800    0.55000    0.94100    1.000
    H550     H        0.21200    0.47600    0.95100    1.000
    H551     H        0.29200    0.46100    0.93400    1.000
    H552     H        0.34700    0.52400    0.91400    1.000
    Ni25     Ni       0.84730    0.11890    0.39900    1.000
    O97      O        0.89070    0.08840    0.44530    1.000
    O98      O        0.95700    0.12960    0.44730    1.000
    C409     C        0.92980    0.09800    0.46270    1.000
    C410     C        0.94420    0.06940    0.50350    1.000
    C411     C        0.98370    0.08160    0.53010    1.000
    O99      O        0.86480    0.07730    0.34180    1.000
    O100     O        0.90380    0.15860    0.37400    1.000
    C412     C        0.91020    0.08790    0.32560    1.000
    C413     C        0.92060    0.14170    0.33030    1.000
    C414     C        0.92070    0.06520    0.28270    1.000
    C415     C        0.96680    0.15760    0.32130    1.000
    N49      N        0.83310    0.16520    0.45440    1.000
    C416     C        0.82960    0.15180    0.49830    1.000
    C417     C        0.81770    0.18570    0.53430    1.000
    C418     C        0.80990    0.23200    0.52570    1.000
    C419     C        0.81420    0.24440    0.48570    1.000
    C420     C        0.82510    0.21800    0.44900    1.000
    N50      N        0.83180    0.18300    0.45200    1.000
    C421     C        0.82390    0.16920    0.49660    1.000
    C422     C        0.81300    0.20730    0.52940    1.000
    C423     C        0.80820    0.24950    0.51710    1.000
    C424     C        0.81770    0.25750    0.46900    1.000
    C425     C        0.82990    0.22010    0.43540    1.000
    H553     H        0.99800    0.11000    0.52000    1.000
    H554     H        0.93100    0.07300    0.34800    1.000
    H555     H        0.92200    0.10300    0.29600    1.000
    H556     H        0.94500    0.09200    0.34400    1.000
    H557     H        0.91200    0.03300    0.28500    1.000
    H558     H        0.95400    0.06800    0.27600    1.000
    H559     H        0.90300    0.08000    0.25800    1.000
    H560     H        0.90100    0.15700    0.30700    1.000
    H561     H        0.91300    0.07900    0.29300    1.000
    H562     H        0.93300    0.07000    0.34300    1.000
    H563     H        0.96800    0.19100    0.32600    1.000
    H564     H        0.97500    0.15000    0.29000    1.000
    H565     H        0.98800    0.14300    0.34300    1.000
    H566     H        0.83500    0.12000    0.50700    1.000
    H567     H        0.81500    0.17500    0.56600    1.000
    H568     H        0.80100    0.25400    0.55000    1.000
    H569     H        0.80900    0.27700    0.48000    1.000
    H570     H        0.82800    0.23200    0.41900    1.000
    H571     H        0.82500    0.13700    0.50600    1.000
    H572     H        0.80900    0.20000    0.56200    1.000
    H573     H        0.79900    0.27400    0.53800    1.000
    H574     H        0.81600    0.28900    0.45800    1.000
    H575     H        0.83600    0.22600    0.40300    1.000
    Ni26     Ni       0.65270    0.88110    0.89900    1.000
    O101     O        0.60930    0.91160    0.94530    1.000
    O102     O        0.54300    0.87040    0.94730    1.000
    C426     C        0.57020    0.90200    0.96270    1.000
    C427     C        0.55580    0.93060    0.00350    1.000
    C428     C        0.51630    0.91840    0.03010    1.000
    O103     O        0.63520    0.92270    0.84180    1.000
    O104     O        0.59620    0.84140    0.87400    1.000
    C429     C        0.58980    0.91210    0.82560    1.000
    C430     C        0.57940    0.85830    0.83030    1.000
    C431     C        0.57930    0.93480    0.78270    1.000
    C432     C        0.53320    0.84240    0.82130    1.000
    N51      N        0.66690    0.83480    0.95440    1.000
    C433     C        0.67040    0.84820    0.99830    1.000
    C434     C        0.68230    0.81430    0.03430    1.000
    C435     C        0.69010    0.76800    0.02570    1.000
    C436     C        0.68580    0.75560    0.98570    1.000
    C437     C        0.67490    0.78200    0.94900    1.000
    N52      N        0.66820    0.81700    0.95200    1.000
    C438     C        0.67610    0.83080    0.99660    1.000
    C439     C        0.68700    0.79270    0.02940    1.000
    C440     C        0.69180    0.75050    0.01710    1.000
    C441     C        0.68230    0.74250    0.96900    1.000
    C442     C        0.67010    0.77990    0.93540    1.000
    H576     H        0.50200    0.89000    0.02000    1.000
    H577     H        0.56900    0.92700    0.84800    1.000
    H578     H        0.57800    0.89700    0.79600    1.000
    H579     H        0.55500    0.90800    0.84400    1.000
    H580     H        0.58800    0.96700    0.78500    1.000
    H581     H        0.54600    0.93200    0.77600    1.000
    H582     H        0.59700    0.92000    0.75800    1.000
    H583     H        0.59900    0.84300    0.80700    1.000
    H584     H        0.58700    0.92100    0.79300    1.000
    H585     H        0.56700    0.93000    0.84300    1.000
    H586     H        0.53200    0.80900    0.82600    1.000
    H587     H        0.52500    0.85000    0.79000    1.000
    H588     H        0.51200    0.85700    0.84300    1.000
    H589     H        0.66500    0.88000    0.00700    1.000
    H590     H        0.68500    0.82500    0.06600    1.000
    H591     H        0.69900    0.74600    0.05000    1.000
    H592     H        0.69100    0.72300    0.98000    1.000
    H593     H        0.67200    0.76800    0.91900    1.000
    H594     H        0.67500    0.86300    0.00600    1.000
    H595     H        0.69100    0.80000    0.06200    1.000
    H596     H        0.70100    0.72600    0.03800    1.000
    H597     H        0.68400    0.71100    0.95800    1.000
    H598     H        0.66400    0.77400    0.90300    1.000
    Ni27     Ni       0.15270    0.61890    0.10100    1.000
    O105     O        0.10930    0.58840    0.05470    1.000
    O106     O        0.04300    0.62960    0.05270    1.000
    C443     C        0.07020    0.59800    0.03730    1.000
    C444     C        0.05580    0.56940    0.99650    1.000
    C445     C        0.01630    0.58160    0.96990    1.000
    O107     O        0.13520    0.57730    0.15820    1.000
    O108     O        0.09620    0.65860    0.12600    1.000
    C446     C        0.08980    0.58790    0.17440    1.000
    C447     C        0.07940    0.64170    0.16970    1.000
    C448     C        0.07930    0.56520    0.21730    1.000
    C449     C        0.03320    0.65760    0.17870    1.000
    N53      N        0.16690    0.66520    0.04560    1.000
    C450     C        0.17040    0.65180    0.00170    1.000
    C451     C        0.18230    0.68570    0.96570    1.000
    C452     C        0.19010    0.73200    0.97430    1.000
    C453     C        0.18580    0.74440    0.01430    1.000
    C454     C        0.17490    0.71800    0.05100    1.000
    N54      N        0.16820    0.68300    0.04800    1.000
    C455     C        0.17610    0.66920    0.00340    1.000
    C456     C        0.18700    0.70730    0.97060    1.000
    C457     C        0.19180    0.74950    0.98290    1.000
    C458     C        0.18230    0.75750    0.03100    1.000
    C459     C        0.17010    0.72010    0.06460    1.000
    H599     H        0.00200    0.61000    0.98000    1.000
    H600     H        0.06900    0.57300    0.15200    1.000
    H601     H        0.07800    0.60300    0.20400    1.000
    H602     H        0.05500    0.59200    0.15600    1.000
    H603     H        0.08800    0.53300    0.21500    1.000
    H604     H        0.04600    0.56800    0.22400    1.000
    H605     H        0.09700    0.58000    0.24200    1.000
    H606     H        0.09900    0.65700    0.19300    1.000
    H607     H        0.08700    0.57900    0.20700    1.000
    H608     H        0.06700    0.57000    0.15700    1.000
    H609     H        0.03200    0.69100    0.17400    1.000
    H610     H        0.02500    0.65000    0.21000    1.000
    H611     H        0.01200    0.64300    0.15700    1.000
    H612     H        0.16500    0.62000    0.99300    1.000
    H613     H        0.18500    0.67500    0.93400    1.000
    H614     H        0.19900    0.75400    0.95000    1.000
    H615     H        0.19100    0.77700    0.02000    1.000
    H616     H        0.17200    0.73200    0.08100    1.000
    H617     H        0.17500    0.63700    0.99400    1.000
    H618     H        0.19100    0.70000    0.93800    1.000
    H619     H        0.20100    0.77400    0.96200    1.000
    H620     H        0.18400    0.78900    0.04200    1.000
    H621     H        0.16400    0.72600    0.09700    1.000
    Ni28     Ni       0.34730    0.38110    0.60100    1.000
    O109     O        0.39070    0.41160    0.55470    1.000
    O110     O        0.45700    0.37040    0.55270    1.000
    C460     C        0.42980    0.40200    0.53730    1.000
    C461     C        0.44420    0.43060    0.49650    1.000
    C462     C        0.48370    0.41840    0.46990    1.000
    O111     O        0.36480    0.42270    0.65820    1.000
    O112     O        0.40380    0.34140    0.62600    1.000
    C463     C        0.41020    0.41210    0.67440    1.000
    C464     C        0.42060    0.35830    0.66970    1.000
    C465     C        0.42070    0.43480    0.71730    1.000
    C466     C        0.46680    0.34240    0.67870    1.000
    N55      N        0.33310    0.33480    0.54560    1.000
    C467     C        0.32960    0.34820    0.50170    1.000
    C468     C        0.31770    0.31430    0.46570    1.000
    C469     C        0.30990    0.26800    0.47430    1.000
    C470     C        0.31420    0.25560    0.51430    1.000
    C471     C        0.32510    0.28200    0.55100    1.000
    N56      N        0.33180    0.31700    0.54800    1.000
    C472     C        0.32390    0.33080    0.50340    1.000
    C473     C        0.31300    0.29270    0.47060    1.000
    C474     C        0.30820    0.25050    0.48290    1.000
    C475     C        0.31770    0.24250    0.53100    1.000
    C476     C        0.32990    0.27990    0.56460    1.000
    H622     H        0.49800    0.39000    0.48000    1.000
    H623     H        0.43100    0.42700    0.65200    1.000
    H624     H        0.42200    0.39700    0.70400    1.000
    H625     H        0.44500    0.40800    0.65600    1.000
    H626     H        0.41200    0.46700    0.71500    1.000
    H627     H        0.45400    0.43200    0.72400    1.000
    H628     H        0.40300    0.42000    0.74200    1.000
    H629     H        0.40100    0.34300    0.69300    1.000
    H630     H        0.41300    0.42100    0.70700    1.000
    H631     H        0.43300    0.43000    0.65700    1.000
    H632     H        0.46800    0.30900    0.67400    1.000
    H633     H        0.47500    0.35000    0.71000    1.000
    H634     H        0.48800    0.35700    0.65700    1.000
    H635     H        0.33500    0.38000    0.49300    1.000
    H636     H        0.31500    0.32500    0.43400    1.000
    H637     H        0.30100    0.24600    0.45000    1.000
    H638     H        0.30900    0.22300    0.52000    1.000
    H639     H        0.32800    0.26800    0.58100    1.000
    H640     H        0.32500    0.36300    0.49400    1.000
    H641     H        0.30900    0.30000    0.43800    1.000
    H642     H        0.29900    0.22600    0.46200    1.000
    H643     H        0.31600    0.21100    0.54200    1.000
    H644     H        0.33600    0.27400    0.59700    1.000
    Ni29     Ni       0.39900    0.84730    0.11890    1.000
    O113     O        0.44530    0.89070    0.08840    1.000
    O114     O        0.44730    0.95700    0.12960    1.000
    C477     C        0.46270    0.92980    0.09800    1.000
    C478     C        0.50350    0.94420    0.06940    1.000
    C479     C        0.53010    0.98370    0.08160    1.000
    O115     O        0.34180    0.86480    0.07730    1.000
    O116     O        0.37400    0.90380    0.15860    1.000
    C480     C        0.32560    0.91020    0.08790    1.000
    C481     C        0.33030    0.92060    0.14170    1.000
    C482     C        0.28270    0.92070    0.06520    1.000
    C483     C        0.32130    0.96680    0.15760    1.000
    N57      N        0.45440    0.83310    0.16520    1.000
    C484     C        0.49830    0.82960    0.15180    1.000
    C485     C        0.53430    0.81770    0.18570    1.000
    C486     C        0.52570    0.80990    0.23200    1.000
    C487     C        0.48570    0.81420    0.24440    1.000
    C488     C        0.44900    0.82510    0.21800    1.000
    N58      N        0.45200    0.83180    0.18300    1.000
    C489     C        0.49660    0.82390    0.16920    1.000
    C490     C        0.52940    0.81300    0.20730    1.000
    C491     C        0.51710    0.80820    0.24950    1.000
    C492     C        0.46900    0.81770    0.25750    1.000
    C493     C        0.43540    0.82990    0.22010    1.000
    H645     H        0.52000    0.99800    0.11000    1.000
    H646     H        0.34800    0.93100    0.07300    1.000
    H647     H        0.29600    0.92200    0.10300    1.000
    H648     H        0.34400    0.94500    0.09200    1.000
    H649     H        0.28500    0.91200    0.03300    1.000
    H650     H        0.27600    0.95400    0.06800    1.000
    H651     H        0.25800    0.90300    0.08000    1.000
    H652     H        0.30700    0.90100    0.15700    1.000
    H653     H        0.29300    0.91300    0.07900    1.000
    H654     H        0.34300    0.93300    0.07000    1.000
    H655     H        0.32600    0.96800    0.19100    1.000
    H656     H        0.29000    0.97500    0.15000    1.000
    H657     H        0.34300    0.98800    0.14300    1.000
    H658     H        0.50700    0.83500    0.12000    1.000
    H659     H        0.56600    0.81500    0.17500    1.000
    H660     H        0.55000    0.80100    0.25400    1.000
    H661     H        0.48000    0.80900    0.27700    1.000
    H662     H        0.41900    0.82800    0.23200    1.000
    H663     H        0.50600    0.82500    0.13700    1.000
    H664     H        0.56200    0.80900    0.20000    1.000
    H665     H        0.53800    0.79900    0.27400    1.000
    H666     H        0.45800    0.81600    0.28900    1.000
    H667     H        0.40300    0.83600    0.22600    1.000
    Ni30     Ni       0.89900    0.65270    0.88110    1.000
    O117     O        0.94530    0.60930    0.91160    1.000
    O118     O        0.94730    0.54300    0.87040    1.000
    C494     C        0.96270    0.57020    0.90200    1.000
    C495     C        0.00350    0.55580    0.93060    1.000
    C496     C        0.03010    0.51630    0.91840    1.000
    O119     O        0.84180    0.63520    0.92270    1.000
    O120     O        0.87400    0.59620    0.84140    1.000
    C497     C        0.82560    0.58980    0.91210    1.000
    C498     C        0.83030    0.57940    0.85830    1.000
    C499     C        0.78270    0.57930    0.93480    1.000
    C500     C        0.82130    0.53320    0.84240    1.000
    N59      N        0.95440    0.66690    0.83480    1.000
    C501     C        0.99830    0.67040    0.84820    1.000
    C502     C        0.03430    0.68230    0.81430    1.000
    C503     C        0.02570    0.69010    0.76800    1.000
    C504     C        0.98570    0.68580    0.75560    1.000
    C505     C        0.94900    0.67490    0.78200    1.000
    N60      N        0.95200    0.66820    0.81700    1.000
    C506     C        0.99660    0.67610    0.83080    1.000
    C507     C        0.02940    0.68700    0.79270    1.000
    C508     C        0.01710    0.69180    0.75050    1.000
    C509     C        0.96900    0.68230    0.74250    1.000
    C510     C        0.93540    0.67010    0.77990    1.000
    H668     H        0.02000    0.50200    0.89000    1.000
    H669     H        0.84800    0.56900    0.92700    1.000
    H670     H        0.79600    0.57800    0.89700    1.000
    H671     H        0.84400    0.55500    0.90800    1.000
    H672     H        0.78500    0.58800    0.96700    1.000
    H673     H        0.77600    0.54600    0.93200    1.000
    H674     H        0.75800    0.59700    0.92000    1.000
    H675     H        0.80700    0.59900    0.84300    1.000
    H676     H        0.79300    0.58700    0.92100    1.000
    H677     H        0.84300    0.56700    0.93000    1.000
    H678     H        0.82600    0.53200    0.80900    1.000
    H679     H        0.79000    0.52500    0.85000    1.000
    H680     H        0.84300    0.51200    0.85700    1.000
    H681     H        0.00700    0.66500    0.88000    1.000
    H682     H        0.06600    0.68500    0.82500    1.000
    H683     H        0.05000    0.69900    0.74600    1.000
    H684     H        0.98000    0.69100    0.72300    1.000
    H685     H        0.91900    0.67200    0.76800    1.000
    H686     H        0.00600    0.67500    0.86300    1.000
    H687     H        0.06200    0.69100    0.80000    1.000
    H688     H        0.03800    0.70100    0.72600    1.000
    H689     H        0.95800    0.68400    0.71100    1.000
    H690     H        0.90300    0.66400    0.77400    1.000
    Ni31     Ni       0.10100    0.15270    0.61890    1.000
    O121     O        0.05470    0.10930    0.58840    1.000
    O122     O        0.05270    0.04300    0.62960    1.000
    C511     C        0.03730    0.07020    0.59800    1.000
    C512     C        0.99650    0.05580    0.56940    1.000
    C513     C        0.96990    0.01630    0.58160    1.000
    O123     O        0.15820    0.13520    0.57730    1.000
    O124     O        0.12600    0.09620    0.65860    1.000
    C514     C        0.17440    0.08980    0.58790    1.000
    C515     C        0.16970    0.07940    0.64170    1.000
    C516     C        0.21730    0.07930    0.56520    1.000
    C517     C        0.17870    0.03320    0.65760    1.000
    N61      N        0.04560    0.16690    0.66520    1.000
    C518     C        0.00170    0.17040    0.65180    1.000
    C519     C        0.96570    0.18230    0.68570    1.000
    C520     C        0.97430    0.19010    0.73200    1.000
    C521     C        0.01430    0.18580    0.74440    1.000
    C522     C        0.05100    0.17490    0.71800    1.000
    N62      N        0.04800    0.16820    0.68300    1.000
    C523     C        0.00340    0.17610    0.66920    1.000
    C524     C        0.97060    0.18700    0.70730    1.000
    C525     C        0.98290    0.19180    0.74950    1.000
    C526     C        0.03100    0.18230    0.75750    1.000
    C527     C        0.06460    0.17010    0.72010    1.000
    H691     H        0.98000    0.00200    0.61000    1.000
    H692     H        0.15200    0.06900    0.57300    1.000
    H693     H        0.20400    0.07800    0.60300    1.000
    H694     H        0.15600    0.05500    0.59200    1.000
    H695     H        0.21500    0.08800    0.53300    1.000
    H696     H        0.22400    0.04600    0.56800    1.000
    H697     H        0.24200    0.09700    0.58000    1.000
    H698     H        0.19300    0.09900    0.65700    1.000
    H699     H        0.20700    0.08700    0.57900    1.000
    H700     H        0.15700    0.06700    0.57000    1.000
    H701     H        0.17400    0.03200    0.69100    1.000
    H702     H        0.21000    0.02500    0.65000    1.000
    H703     H        0.15700    0.01200    0.64300    1.000
    H704     H        0.99300    0.16500    0.62000    1.000
    H705     H        0.93400    0.18500    0.67500    1.000
    H706     H        0.95000    0.19900    0.75400    1.000
    H707     H        0.02000    0.19100    0.77700    1.000
    H708     H        0.08100    0.17200    0.73200    1.000
    H709     H        0.99400    0.17500    0.63700    1.000
    H710     H        0.93800    0.19100    0.70000    1.000
    H711     H        0.96200    0.20100    0.77400    1.000
    H712     H        0.04200    0.18400    0.78900    1.000
    H713     H        0.09700    0.16400    0.72600    1.000
    Ni32     Ni       0.60100    0.34730    0.38110    1.000
    O125     O        0.55470    0.39070    0.41160    1.000
    O126     O        0.55270    0.45700    0.37040    1.000
    C528     C        0.53730    0.42980    0.40200    1.000
    C529     C        0.49650    0.44420    0.43060    1.000
    C530     C        0.46990    0.48370    0.41840    1.000
    O127     O        0.65820    0.36480    0.42270    1.000
    O128     O        0.62600    0.40380    0.34140    1.000
    C531     C        0.67440    0.41020    0.41210    1.000
    C532     C        0.66970    0.42060    0.35830    1.000
    C533     C        0.71730    0.42070    0.43480    1.000
    C534     C        0.67870    0.46680    0.34240    1.000
    N63      N        0.54560    0.33310    0.33480    1.000
    C535     C        0.50170    0.32960    0.34820    1.000
    C536     C        0.46570    0.31770    0.31430    1.000
    C537     C        0.47430    0.30990    0.26800    1.000
    C538     C        0.51430    0.31420    0.25560    1.000
    C539     C        0.55100    0.32510    0.28200    1.000
    N64      N        0.54800    0.33180    0.31700    1.000
    C540     C        0.50340    0.32390    0.33080    1.000
    C541     C        0.47060    0.31300    0.29270    1.000
    C542     C        0.48290    0.30820    0.25050    1.000
    C543     C        0.53100    0.31770    0.24250    1.000
    C544     C        0.56460    0.32990    0.27990    1.000
    H714     H        0.48000    0.49800    0.39000    1.000
    H715     H        0.65200    0.43100    0.42700    1.000
    H716     H        0.70400    0.42200    0.39700    1.000
    H717     H        0.65600    0.44500    0.40800    1.000
    H718     H        0.71500    0.41200    0.46700    1.000
    H719     H        0.72400    0.45400    0.43200    1.000
    H720     H        0.74200    0.40300    0.42000    1.000
    H721     H        0.69300    0.40100    0.34300    1.000
    H722     H        0.70700    0.41300    0.42100    1.000
    H723     H        0.65700    0.43300    0.43000    1.000
    H724     H        0.67400    0.46800    0.30900    1.000
    H725     H        0.71000    0.47500    0.35000    1.000
    H726     H        0.65700    0.48800    0.35700    1.000
    H727     H        0.49300    0.33500    0.38000    1.000
    H728     H        0.43400    0.31500    0.32500    1.000
    H729     H        0.45000    0.30100    0.24600    1.000
    H730     H        0.52000    0.30900    0.22300    1.000
    H731     H        0.58100    0.32800    0.26800    1.000
    H732     H        0.49400    0.32500    0.36300    1.000
    H733     H        0.43800    0.30900    0.30000    1.000
    H734     H        0.46200    0.29900    0.22600    1.000
    H735     H        0.54200    0.31600    0.21100    1.000
    H736     H        0.59700    0.33600    0.27400    1.000
    Ni33     Ni       0.11890    0.39900    0.84730    1.000
    O129     O        0.08840    0.44530    0.89070    1.000
    O130     O        0.12960    0.44730    0.95700    1.000
    C545     C        0.09800    0.46270    0.92980    1.000
    C546     C        0.06940    0.50350    0.94420    1.000
    C547     C        0.08160    0.53010    0.98370    1.000
    O131     O        0.07730    0.34180    0.86480    1.000
    O132     O        0.15860    0.37400    0.90380    1.000
    C548     C        0.08790    0.32560    0.91020    1.000
    C549     C        0.14170    0.33030    0.92060    1.000
    C550     C        0.06520    0.28270    0.92070    1.000
    C551     C        0.15760    0.32130    0.96680    1.000
    N65      N        0.16520    0.45440    0.83310    1.000
    C552     C        0.15180    0.49830    0.82960    1.000
    C553     C        0.18570    0.53430    0.81770    1.000
    C554     C        0.23200    0.52570    0.80990    1.000
    C555     C        0.24440    0.48570    0.81420    1.000
    C556     C        0.21800    0.44900    0.82510    1.000
    N66      N        0.18300    0.45200    0.83180    1.000
    C557     C        0.16920    0.49660    0.82390    1.000
    C558     C        0.20730    0.52940    0.81300    1.000
    C559     C        0.24950    0.51710    0.80820    1.000
    C560     C        0.25750    0.46900    0.81770    1.000
    C561     C        0.22010    0.43540    0.82990    1.000
    H737     H        0.11000    0.52000    0.99800    1.000
    H738     H        0.07300    0.34800    0.93100    1.000
    H739     H        0.10300    0.29600    0.92200    1.000
    H740     H        0.09200    0.34400    0.94500    1.000
    H741     H        0.03300    0.28500    0.91200    1.000
    H742     H        0.06800    0.27600    0.95400    1.000
    H743     H        0.08000    0.25800    0.90300    1.000
    H744     H        0.15700    0.30700    0.90100    1.000
    H745     H        0.07900    0.29300    0.91300    1.000
    H746     H        0.07000    0.34300    0.93300    1.000
    H747     H        0.19100    0.32600    0.96800    1.000
    H748     H        0.15000    0.29000    0.97500    1.000
    H749     H        0.14300    0.34300    0.98800    1.000
    H750     H        0.12000    0.50700    0.83500    1.000
    H751     H        0.17500    0.56600    0.81500    1.000
    H752     H        0.25400    0.55000    0.80100    1.000
    H753     H        0.27700    0.48000    0.80900    1.000
    H754     H        0.23200    0.41900    0.82800    1.000
    H755     H        0.13700    0.50600    0.82500    1.000
    H756     H        0.20000    0.56200    0.80900    1.000
    H757     H        0.27400    0.53800    0.79900    1.000
    H758     H        0.28900    0.45800    0.81600    1.000
    H759     H        0.22600    0.40300    0.83600    1.000
    Ni34     Ni       0.88110    0.89900    0.65270    1.000
    O133     O        0.91160    0.94530    0.60930    1.000
    O134     O        0.87040    0.94730    0.54300    1.000
    C562     C        0.90200    0.96270    0.57020    1.000
    C563     C        0.93060    0.00350    0.55580    1.000
    C564     C        0.91840    0.03010    0.51630    1.000
    O135     O        0.92270    0.84180    0.63520    1.000
    O136     O        0.84140    0.87400    0.59620    1.000
    C565     C        0.91210    0.82560    0.58980    1.000
    C566     C        0.85830    0.83030    0.57940    1.000
    C567     C        0.93480    0.78270    0.57930    1.000
    C568     C        0.84240    0.82130    0.53320    1.000
    N67      N        0.83480    0.95440    0.66690    1.000
    C569     C        0.84820    0.99830    0.67040    1.000
    C570     C        0.81430    0.03430    0.68230    1.000
    C571     C        0.76800    0.02570    0.69010    1.000
    C572     C        0.75560    0.98570    0.68580    1.000
    C573     C        0.78200    0.94900    0.67490    1.000
    N68      N        0.81700    0.95200    0.66820    1.000
    C574     C        0.83080    0.99660    0.67610    1.000
    C575     C        0.79270    0.02940    0.68700    1.000
    C576     C        0.75050    0.01710    0.69180    1.000
    C577     C        0.74250    0.96900    0.68230    1.000
    C578     C        0.77990    0.93540    0.67010    1.000
    H760     H        0.89000    0.02000    0.50200    1.000
    H761     H        0.92700    0.84800    0.56900    1.000
    H762     H        0.89700    0.79600    0.57800    1.000
    H763     H        0.90800    0.84400    0.55500    1.000
    H764     H        0.96700    0.78500    0.58800    1.000
    H765     H        0.93200    0.77600    0.54600    1.000
    H766     H        0.92000    0.75800    0.59700    1.000
    H767     H        0.84300    0.80700    0.59900    1.000
    H768     H        0.92100    0.79300    0.58700    1.000
    H769     H        0.93000    0.84300    0.56700    1.000
    H770     H        0.80900    0.82600    0.53200    1.000
    H771     H        0.85000    0.79000    0.52500    1.000
    H772     H        0.85700    0.84300    0.51200    1.000
    H773     H        0.88000    0.00700    0.66500    1.000
    H774     H        0.82500    0.06600    0.68500    1.000
    H775     H        0.74600    0.05000    0.69900    1.000
    H776     H        0.72300    0.98000    0.69100    1.000
    H777     H        0.76800    0.91900    0.67200    1.000
    H778     H        0.86300    0.00600    0.67500    1.000
    H779     H        0.80000    0.06200    0.69100    1.000
    H780     H        0.72600    0.03800    0.70100    1.000
    H781     H        0.71100    0.95800    0.68400    1.000
    H782     H        0.77400    0.90300    0.66400    1.000
    Ni35     Ni       0.61890    0.10100    0.15270    1.000
    O137     O        0.58840    0.05470    0.10930    1.000
    O138     O        0.62960    0.05270    0.04300    1.000
    C579     C        0.59800    0.03730    0.07020    1.000
    C580     C        0.56940    0.99650    0.05580    1.000
    C581     C        0.58160    0.96990    0.01630    1.000
    O139     O        0.57730    0.15820    0.13520    1.000
    O140     O        0.65860    0.12600    0.09620    1.000
    C582     C        0.58790    0.17440    0.08980    1.000
    C583     C        0.64170    0.16970    0.07940    1.000
    C584     C        0.56520    0.21730    0.07930    1.000
    C585     C        0.65760    0.17870    0.03320    1.000
    N69      N        0.66520    0.04560    0.16690    1.000
    C586     C        0.65180    0.00170    0.17040    1.000
    C587     C        0.68570    0.96570    0.18230    1.000
    C588     C        0.73200    0.97430    0.19010    1.000
    C589     C        0.74440    0.01430    0.18580    1.000
    C590     C        0.71800    0.05100    0.17490    1.000
    N70      N        0.68300    0.04800    0.16820    1.000
    C591     C        0.66920    0.00340    0.17610    1.000
    C592     C        0.70730    0.97060    0.18700    1.000
    C593     C        0.74950    0.98290    0.19180    1.000
    C594     C        0.75750    0.03100    0.18230    1.000
    C595     C        0.72010    0.06460    0.17010    1.000
    H783     H        0.61000    0.98000    0.00200    1.000
    H784     H        0.57300    0.15200    0.06900    1.000
    H785     H        0.60300    0.20400    0.07800    1.000
    H786     H        0.59200    0.15600    0.05500    1.000
    H787     H        0.53300    0.21500    0.08800    1.000
    H788     H        0.56800    0.22400    0.04600    1.000
    H789     H        0.58000    0.24200    0.09700    1.000
    H790     H        0.65700    0.19300    0.09900    1.000
    H791     H        0.57900    0.20700    0.08700    1.000
    H792     H        0.57000    0.15700    0.06700    1.000
    H793     H        0.69100    0.17400    0.03200    1.000
    H794     H        0.65000    0.21000    0.02500    1.000
    H795     H        0.64300    0.15700    0.01200    1.000
    H796     H        0.62000    0.99300    0.16500    1.000
    H797     H        0.67500    0.93400    0.18500    1.000
    H798     H        0.75400    0.95000    0.19900    1.000
    H799     H        0.77700    0.02000    0.19100    1.000
    H800     H        0.73200    0.08100    0.17200    1.000
    H801     H        0.63700    0.99400    0.17500    1.000
    H802     H        0.70000    0.93800    0.19100    1.000
    H803     H        0.77400    0.96200    0.20100    1.000
    H804     H        0.78900    0.04200    0.18400    1.000
    H805     H        0.72600    0.09700    0.16400    1.000
    Ni36     Ni       0.38110    0.60100    0.34730    1.000
    O141     O        0.41160    0.55470    0.39070    1.000
    O142     O        0.37040    0.55270    0.45700    1.000
    C596     C        0.40200    0.53730    0.42980    1.000
    C597     C        0.43060    0.49650    0.44420    1.000
    C598     C        0.41840    0.46990    0.48370    1.000
    O143     O        0.42270    0.65820    0.36480    1.000
    O144     O        0.34140    0.62600    0.40380    1.000
    C599     C        0.41210    0.67440    0.41020    1.000
    C600     C        0.35830    0.66970    0.42060    1.000
    C601     C        0.43480    0.71730    0.42070    1.000
    C602     C        0.34240    0.67870    0.46680    1.000
    N71      N        0.33480    0.54560    0.33310    1.000
    C603     C        0.34820    0.50170    0.32960    1.000
    C604     C        0.31430    0.46570    0.31770    1.000
    C605     C        0.26800    0.47430    0.30990    1.000
    C606     C        0.25560    0.51430    0.31420    1.000
    C607     C        0.28200    0.55100    0.32510    1.000
    N72      N        0.31700    0.54800    0.33180    1.000
    C608     C        0.33080    0.50340    0.32390    1.000
    C609     C        0.29270    0.47060    0.31300    1.000
    C610     C        0.25050    0.48290    0.30820    1.000
    C611     C        0.24250    0.53100    0.31770    1.000
    C612     C        0.27990    0.56460    0.32990    1.000
    H806     H        0.39000    0.48000    0.49800    1.000
    H807     H        0.42700    0.65200    0.43100    1.000
    H808     H        0.39700    0.70400    0.42200    1.000
    H809     H        0.40800    0.65600    0.44500    1.000
    H810     H        0.46700    0.71500    0.41200    1.000
    H811     H        0.43200    0.72400    0.45400    1.000
    H812     H        0.42000    0.74200    0.40300    1.000
    H813     H        0.34300    0.69300    0.40100    1.000
    H814     H        0.42100    0.70700    0.41300    1.000
    H815     H        0.43000    0.65700    0.43300    1.000
    H816     H        0.30900    0.67400    0.46800    1.000
    H817     H        0.35000    0.71000    0.47500    1.000
    H818     H        0.35700    0.65700    0.48800    1.000
    H819     H        0.38000    0.49300    0.33500    1.000
    H820     H        0.32500    0.43400    0.31500    1.000
    H821     H        0.24600    0.45000    0.30100    1.000
    H822     H        0.22300    0.52000    0.30900    1.000
    H823     H        0.26800    0.58100    0.32800    1.000
    H824     H        0.36300    0.49400    0.32500    1.000
    H825     H        0.30000    0.43800    0.30900    1.000
    H826     H        0.22600    0.46200    0.29900    1.000
    H827     H        0.21100    0.54200    0.31600    1.000
    H828     H        0.27400    0.59700    0.33600    1.000
    Ni37     Ni       0.36890    0.59730    0.35100    1.000
    O145     O        0.33840    0.64070    0.30470    1.000
    O146     O        0.37960    0.70700    0.30270    1.000
    C613     C        0.34800    0.67980    0.28730    1.000
    C614     C        0.31940    0.69420    0.24650    1.000
    C615     C        0.33160    0.73370    0.21990    1.000
    O147     O        0.32730    0.61480    0.40820    1.000
    O148     O        0.40860    0.65380    0.37600    1.000
    C616     C        0.33790    0.66020    0.42440    1.000
    C617     C        0.39170    0.67060    0.41970    1.000
    C618     C        0.31520    0.67070    0.46730    1.000
    C619     C        0.40760    0.71680    0.42870    1.000
    N73      N        0.41520    0.58310    0.29560    1.000
    C620     C        0.40180    0.57960    0.25170    1.000
    C621     C        0.43570    0.56770    0.21570    1.000
    C622     C        0.48200    0.55990    0.22430    1.000
    C623     C        0.49440    0.56420    0.26430    1.000
    C624     C        0.46800    0.57510    0.30100    1.000
    N74      N        0.43300    0.58180    0.29800    1.000
    C625     C        0.41920    0.57390    0.25340    1.000
    C626     C        0.45730    0.56300    0.22060    1.000
    C627     C        0.49950    0.55820    0.23290    1.000
    C628     C        0.50750    0.56770    0.28100    1.000
    C629     C        0.47010    0.57990    0.31460    1.000
    H829     H        0.36000    0.74800    0.23000    1.000
    H830     H        0.32300    0.68100    0.40200    1.000
    H831     H        0.35300    0.67200    0.45400    1.000
    H832     H        0.34200    0.69500    0.40600    1.000
    H833     H        0.28300    0.66200    0.46500    1.000
    H834     H        0.31800    0.70400    0.47400    1.000
    H835     H        0.33000    0.65300    0.49200    1.000
    H836     H        0.40700    0.65100    0.44300    1.000
    H837     H        0.32900    0.66300    0.45700    1.000
    H838     H        0.32000    0.68300    0.40700    1.000
    H839     H        0.44100    0.71800    0.42400    1.000
    H840     H        0.40000    0.72500    0.46000    1.000
    H841     H        0.39300    0.73800    0.40700    1.000
    H842     H        0.37000    0.58500    0.24300    1.000
    H843     H        0.42500    0.56500    0.18400    1.000
    H844     H        0.50400    0.55100    0.20000    1.000
    H845     H        0.52700    0.55900    0.27000    1.000
    H846     H        0.48200    0.57800    0.33100    1.000
    H847     H        0.38700    0.57500    0.24400    1.000
    H848     H        0.45000    0.55900    0.18800    1.000
    H849     H        0.52400    0.54900    0.21200    1.000
    H850     H        0.53900    0.56600    0.29200    1.000
    H851     H        0.47600    0.58600    0.34700    1.000
    Ni38     Ni       0.13110    0.40270    0.85100    1.000
    O149     O        0.16160    0.35930    0.80470    1.000
    O150     O        0.12040    0.29300    0.80270    1.000
    C630     C        0.15200    0.32020    0.78730    1.000
    C631     C        0.18060    0.30580    0.74650    1.000
    C632     C        0.16840    0.26630    0.71990    1.000
    O151     O        0.17270    0.38520    0.90820    1.000
    O152     O        0.09140    0.34620    0.87600    1.000
    C633     C        0.16210    0.33980    0.92440    1.000
    C634     C        0.10830    0.32940    0.91970    1.000
    C635     C        0.18480    0.32930    0.96730    1.000
    C636     C        0.09240    0.28320    0.92870    1.000
    N75      N        0.08480    0.41690    0.79560    1.000
    C637     C        0.09820    0.42040    0.75170    1.000
    C638     C        0.06430    0.43230    0.71570    1.000
    C639     C        0.01800    0.44010    0.72430    1.000
    C640     C        0.00560    0.43580    0.76430    1.000
    C641     C        0.03200    0.42490    0.80100    1.000
    N76      N        0.06700    0.41820    0.79800    1.000
    C642     C        0.08080    0.42610    0.75340    1.000
    C643     C        0.04270    0.43700    0.72060    1.000
    C644     C        0.00050    0.44180    0.73290    1.000
    C645     C        0.99250    0.43230    0.78100    1.000
    C646     C        0.02990    0.42010    0.81460    1.000
    H852     H        0.14000    0.25200    0.73000    1.000
    H853     H        0.17700    0.31900    0.90200    1.000
    H854     H        0.14700    0.32800    0.95400    1.000
    H855     H        0.15800    0.30500    0.90600    1.000
    H856     H        0.21700    0.33800    0.96500    1.000
    H857     H        0.18200    0.29600    0.97400    1.000
    H858     H        0.17000    0.34700    0.99200    1.000
    H859     H        0.09300    0.34900    0.94300    1.000
    H860     H        0.17100    0.33700    0.95700    1.000
    H861     H        0.18000    0.31700    0.90700    1.000
    H862     H        0.05900    0.28200    0.92400    1.000
    H863     H        0.10000    0.27500    0.96000    1.000
    H864     H        0.10700    0.26200    0.90700    1.000
    H865     H        0.13000    0.41500    0.74300    1.000
    H866     H        0.07500    0.43500    0.68400    1.000
    H867     H        0.99600    0.44900    0.70000    1.000
    H868     H        0.97300    0.44100    0.77000    1.000
    H869     H        0.01800    0.42200    0.83100    1.000
    H870     H        0.11300    0.42500    0.74400    1.000
    H871     H        0.05000    0.44100    0.68800    1.000
    H872     H        0.97600    0.45100    0.71200    1.000
    H873     H        0.96100    0.43400    0.79200    1.000
    H874     H        0.02400    0.41400    0.84700    1.000
    Ni39     Ni       0.86890    0.90270    0.64900    1.000
    O153     O        0.83840    0.85930    0.69530    1.000
    O154     O        0.87960    0.79300    0.69730    1.000
    C647     C        0.84800    0.82020    0.71270    1.000
    C648     C        0.81940    0.80580    0.75350    1.000
    C649     C        0.83160    0.76630    0.78010    1.000
    O155     O        0.82730    0.88520    0.59180    1.000
    O156     O        0.90860    0.84620    0.62400    1.000
    C650     C        0.83790    0.83980    0.57560    1.000
    C651     C        0.89170    0.82940    0.58030    1.000
    C652     C        0.81520    0.82930    0.53270    1.000
    C653     C        0.90760    0.78320    0.57130    1.000
    N77      N        0.91520    0.91690    0.70440    1.000
    C654     C        0.90180    0.92040    0.74830    1.000
    C655     C        0.93570    0.93230    0.78430    1.000
    C656     C        0.98200    0.94010    0.77570    1.000
    C657     C        0.99440    0.93580    0.73570    1.000
    C658     C        0.96800    0.92490    0.69900    1.000
    N78      N        0.93300    0.91820    0.70200    1.000
    C659     C        0.91920    0.92610    0.74660    1.000
    C660     C        0.95730    0.93700    0.77940    1.000
    C661     C        0.99950    0.94180    0.76710    1.000
    C662     C        0.00750    0.93230    0.71900    1.000
    C663     C        0.97010    0.92010    0.68540    1.000
    H875     H        0.86000    0.75200    0.77000    1.000
    H876     H        0.82300    0.81900    0.59800    1.000
    H877     H        0.85300    0.82800    0.54600    1.000
    H878     H        0.84200    0.80500    0.59400    1.000
    H879     H        0.78300    0.83800    0.53500    1.000
    H880     H        0.81800    0.79600    0.52600    1.000
    H881     H        0.83000    0.84700    0.50800    1.000
    H882     H        0.90700    0.84900    0.55700    1.000
    H883     H        0.82900    0.83700    0.54300    1.000
    H884     H        0.82000    0.81700    0.59300    1.000
    H885     H        0.94100    0.78200    0.57600    1.000
    H886     H        0.90000    0.77500    0.54000    1.000
    H887     H        0.89300    0.76200    0.59300    1.000
    H888     H        0.87000    0.91500    0.75700    1.000
    H889     H        0.92500    0.93500    0.81600    1.000
    H890     H        0.00400    0.94900    0.80000    1.000
    H891     H        0.02700    0.94100    0.73000    1.000
    H892     H        0.98200    0.92200    0.66900    1.000
    H893     H        0.88700    0.92500    0.75600    1.000
    H894     H        0.95000    0.94100    0.81200    1.000
    H895     H        0.02400    0.95100    0.78800    1.000
    H896     H        0.03900    0.93400    0.70800    1.000
    H897     H        0.97600    0.91400    0.65300    1.000
    Ni40     Ni       0.63110    0.09730    0.14900    1.000
    O157     O        0.66160    0.14070    0.19530    1.000
    O158     O        0.62040    0.20700    0.19730    1.000
    C664     C        0.65200    0.17980    0.21270    1.000
    C665     C        0.68060    0.19420    0.25350    1.000
    C666     C        0.66840    0.23370    0.28010    1.000
    O159     O        0.67270    0.11480    0.09180    1.000
    O160     O        0.59140    0.15380    0.12400    1.000
    C667     C        0.66210    0.16020    0.07560    1.000
    C668     C        0.60830    0.17060    0.08030    1.000
    C669     C        0.68480    0.17070    0.03270    1.000
    C670     C        0.59240    0.21680    0.07130    1.000
    N79      N        0.58480    0.08310    0.20440    1.000
    C671     C        0.59820    0.07960    0.24830    1.000
    C672     C        0.56430    0.06770    0.28430    1.000
    C673     C        0.51800    0.05990    0.27570    1.000
    C674     C        0.50560    0.06420    0.23570    1.000
    C675     C        0.53200    0.07510    0.19900    1.000
    N80      N        0.56700    0.08180    0.20200    1.000
    C676     C        0.58080    0.07390    0.24660    1.000
    C677     C        0.54270    0.06300    0.27940    1.000
    C678     C        0.50050    0.05820    0.26710    1.000
    C679     C        0.49250    0.06770    0.21900    1.000
    C680     C        0.52990    0.07990    0.18540    1.000
    H898     H        0.64000    0.24800    0.27000    1.000
    H899     H        0.67700    0.18100    0.09800    1.000
    H900     H        0.64700    0.17200    0.04600    1.000
    H901     H        0.65800    0.19500    0.09400    1.000
    H902     H        0.71700    0.16200    0.03500    1.000
    H903     H        0.68200    0.20400    0.02600    1.000
    H904     H        0.67000    0.15300    0.00800    1.000
    H905     H        0.59300    0.15100    0.05700    1.000
    H906     H        0.67100    0.16300    0.04300    1.000
    H907     H        0.68000    0.18300    0.09300    1.000
    H908     H        0.55900    0.21800    0.07600    1.000
    H909     H        0.60000    0.22500    0.04000    1.000
    H910     H        0.60700    0.23800    0.09300    1.000
    H911     H        0.63000    0.08500    0.25700    1.000
    H912     H        0.57500    0.06500    0.31600    1.000
    H913     H        0.49600    0.05100    0.30000    1.000
    H914     H        0.47300    0.05900    0.23000    1.000
    H915     H        0.51800    0.07800    0.16900    1.000
    H916     H        0.61300    0.07500    0.25600    1.000
    H917     H        0.55000    0.05900    0.31200    1.000
    H918     H        0.47600    0.04900    0.28800    1.000
    H919     H        0.46100    0.06600    0.20800    1.000
    H920     H        0.52400    0.08600    0.15300    1.000
    Ni41     Ni       0.09730    0.14900    0.63110    1.000
    O161     O        0.14070    0.19530    0.66160    1.000
    O162     O        0.20700    0.19730    0.62040    1.000
    C681     C        0.17980    0.21270    0.65200    1.000
    C682     C        0.19420    0.25350    0.68060    1.000
    C683     C        0.23370    0.28010    0.66840    1.000
    O163     O        0.11480    0.09180    0.67270    1.000
    O164     O        0.15380    0.12400    0.59140    1.000
    C684     C        0.16020    0.07560    0.66210    1.000
    C685     C        0.17060    0.08030    0.60830    1.000
    C686     C        0.17070    0.03270    0.68480    1.000
    C687     C        0.21680    0.07130    0.59240    1.000
    N81      N        0.08310    0.20440    0.58480    1.000
    C688     C        0.07960    0.24830    0.59820    1.000
    C689     C        0.06770    0.28430    0.56430    1.000
    C690     C        0.05990    0.27570    0.51800    1.000
    C691     C        0.06420    0.23570    0.50560    1.000
    C692     C        0.07510    0.19900    0.53200    1.000
    N82      N        0.08180    0.20200    0.56700    1.000
    C693     C        0.07390    0.24660    0.58080    1.000
    C694     C        0.06300    0.27940    0.54270    1.000
    C695     C        0.05820    0.26710    0.50050    1.000
    C696     C        0.06770    0.21900    0.49250    1.000
    C697     C        0.07990    0.18540    0.52990    1.000
    H921     H        0.24800    0.27000    0.64000    1.000
    H922     H        0.18100    0.09800    0.67700    1.000
    H923     H        0.17200    0.04600    0.64700    1.000
    H924     H        0.19500    0.09400    0.65800    1.000
    H925     H        0.16200    0.03500    0.71700    1.000
    H926     H        0.20400    0.02600    0.68200    1.000
    H927     H        0.15300    0.00800    0.67000    1.000
    H928     H        0.15100    0.05700    0.59300    1.000
    H929     H        0.16300    0.04300    0.67100    1.000
    H930     H        0.18300    0.09300    0.68000    1.000
    H931     H        0.21800    0.07600    0.55900    1.000
    H932     H        0.22500    0.04000    0.60000    1.000
    H933     H        0.23800    0.09300    0.60700    1.000
    H934     H        0.08500    0.25700    0.63000    1.000
    H935     H        0.06500    0.31600    0.57500    1.000
    H936     H        0.05100    0.30000    0.49600    1.000
    H937     H        0.05900    0.23000    0.47300    1.000
    H938     H        0.07800    0.16900    0.51800    1.000
    H939     H        0.07500    0.25600    0.61300    1.000
    H940     H        0.05900    0.31200    0.55000    1.000
    H941     H        0.04900    0.28800    0.47600    1.000
    H942     H        0.06600    0.20800    0.46100    1.000
    H943     H        0.08600    0.15300    0.52400    1.000
    Ni42     Ni       0.90270    0.64900    0.86890    1.000
    O165     O        0.85930    0.69530    0.83840    1.000
    O166     O        0.79300    0.69730    0.87960    1.000
    C698     C        0.82020    0.71270    0.84800    1.000
    C699     C        0.80580    0.75350    0.81940    1.000
    C700     C        0.76630    0.78010    0.83160    1.000
    O167     O        0.88520    0.59180    0.82730    1.000
    O168     O        0.84620    0.62400    0.90860    1.000
    C701     C        0.83980    0.57560    0.83790    1.000
    C702     C        0.82940    0.58030    0.89170    1.000
    C703     C        0.82930    0.53270    0.81520    1.000
    C704     C        0.78320    0.57130    0.90760    1.000
    N83      N        0.91690    0.70440    0.91520    1.000
    C705     C        0.92040    0.74830    0.90180    1.000
    C706     C        0.93230    0.78430    0.93570    1.000
    C707     C        0.94010    0.77570    0.98200    1.000
    C708     C        0.93580    0.73570    0.99440    1.000
    C709     C        0.92490    0.69900    0.96800    1.000
    N84      N        0.91820    0.70200    0.93300    1.000
    C710     C        0.92610    0.74660    0.91920    1.000
    C711     C        0.93700    0.77940    0.95730    1.000
    C712     C        0.94180    0.76710    0.99950    1.000
    C713     C        0.93230    0.71900    0.00750    1.000
    C714     C        0.92010    0.68540    0.97010    1.000
    H944     H        0.75200    0.77000    0.86000    1.000
    H945     H        0.81900    0.59800    0.82300    1.000
    H946     H        0.82800    0.54600    0.85300    1.000
    H947     H        0.80500    0.59400    0.84200    1.000
    H948     H        0.83800    0.53500    0.78300    1.000
    H949     H        0.79600    0.52600    0.81800    1.000
    H950     H        0.84700    0.50800    0.83000    1.000
    H951     H        0.84900    0.55700    0.90700    1.000
    H952     H        0.83700    0.54300    0.82900    1.000
    H953     H        0.81700    0.59300    0.82000    1.000
    H954     H        0.78200    0.57600    0.94100    1.000
    H955     H        0.77500    0.54000    0.90000    1.000
    H956     H        0.76200    0.59300    0.89300    1.000
    H957     H        0.91500    0.75700    0.87000    1.000
    H958     H        0.93500    0.81600    0.92500    1.000
    H959     H        0.94900    0.80000    0.00400    1.000
    H960     H        0.94100    0.73000    0.02700    1.000
    H961     H        0.92200    0.66900    0.98200    1.000
    H962     H        0.92500    0.75600    0.88700    1.000
    H963     H        0.94100    0.81200    0.95000    1.000
    H964     H        0.95100    0.78800    0.02400    1.000
    H965     H        0.93400    0.70800    0.03900    1.000
    H966     H        0.91400    0.65300    0.97600    1.000
    Ni43     Ni       0.40270    0.85100    0.13110    1.000
    O169     O        0.35930    0.80470    0.16160    1.000
    O170     O        0.29300    0.80270    0.12040    1.000
    C715     C        0.32020    0.78730    0.15200    1.000
    C716     C        0.30580    0.74650    0.18060    1.000
    C717     C        0.26630    0.71990    0.16840    1.000
    O171     O        0.38520    0.90820    0.17270    1.000
    O172     O        0.34620    0.87600    0.09140    1.000
    C718     C        0.33980    0.92440    0.16210    1.000
    C719     C        0.32940    0.91970    0.10830    1.000
    C720     C        0.32930    0.96730    0.18480    1.000
    C721     C        0.28320    0.92870    0.09240    1.000
    N85      N        0.41690    0.79560    0.08480    1.000
    C722     C        0.42040    0.75170    0.09820    1.000
    C723     C        0.43230    0.71570    0.06430    1.000
    C724     C        0.44010    0.72430    0.01800    1.000
    C725     C        0.43580    0.76430    0.00560    1.000
    C726     C        0.42490    0.80100    0.03200    1.000
    N86      N        0.41820    0.79800    0.06700    1.000
    C727     C        0.42610    0.75340    0.08080    1.000
    C728     C        0.43700    0.72060    0.04270    1.000
    C729     C        0.44180    0.73290    0.00050    1.000
    C730     C        0.43230    0.78100    0.99250    1.000
    C731     C        0.42010    0.81460    0.02990    1.000
    H967     H        0.25200    0.73000    0.14000    1.000
    H968     H        0.31900    0.90200    0.17700    1.000
    H969     H        0.32800    0.95400    0.14700    1.000
    H970     H        0.30500    0.90600    0.15800    1.000
    H971     H        0.33800    0.96500    0.21700    1.000
    H972     H        0.29600    0.97400    0.18200    1.000
    H973     H        0.34700    0.99200    0.17000    1.000
    H974     H        0.34900    0.94300    0.09300    1.000
    H975     H        0.33700    0.95700    0.17100    1.000
    H976     H        0.31700    0.90700    0.18000    1.000
    H977     H        0.28200    0.92400    0.05900    1.000
    H978     H        0.27500    0.96000    0.10000    1.000
    H979     H        0.26200    0.90700    0.10700    1.000
    H980     H        0.41500    0.74300    0.13000    1.000
    H981     H        0.43500    0.68400    0.07500    1.000
    H982     H        0.44900    0.70000    0.99600    1.000
    H983     H        0.44100    0.77000    0.97300    1.000
    H984     H        0.42200    0.83100    0.01800    1.000
    H985     H        0.42500    0.74400    0.11300    1.000
    H986     H        0.44100    0.68800    0.05000    1.000
    H987     H        0.45100    0.71200    0.97600    1.000
    H988     H        0.43400    0.79200    0.96100    1.000
    H989     H        0.41400    0.84700    0.02400    1.000
    Ni44     Ni       0.59730    0.35100    0.36890    1.000
    O173     O        0.64070    0.30470    0.33840    1.000
    O174     O        0.70700    0.30270    0.37960    1.000
    C732     C        0.67980    0.28730    0.34800    1.000
    C733     C        0.69420    0.24650    0.31940    1.000
    C734     C        0.73370    0.21990    0.33160    1.000
    O175     O        0.61480    0.40820    0.32730    1.000
    O176     O        0.65380    0.37600    0.40860    1.000
    C735     C        0.66020    0.42440    0.33790    1.000
    C736     C        0.67060    0.41970    0.39170    1.000
    C737     C        0.67070    0.46730    0.31520    1.000
    C738     C        0.71680    0.42870    0.40760    1.000
    N87      N        0.58310    0.29560    0.41520    1.000
    C739     C        0.57960    0.25170    0.40180    1.000
    C740     C        0.56770    0.21570    0.43570    1.000
    C741     C        0.55990    0.22430    0.48200    1.000
    C742     C        0.56420    0.26430    0.49440    1.000
    C743     C        0.57510    0.30100    0.46800    1.000
    N88      N        0.58180    0.29800    0.43300    1.000
    C744     C        0.57390    0.25340    0.41920    1.000
    C745     C        0.56300    0.22060    0.45730    1.000
    C746     C        0.55820    0.23290    0.49950    1.000
    C747     C        0.56770    0.28100    0.50750    1.000
    C748     C        0.57990    0.31460    0.47010    1.000
    H990     H        0.74800    0.23000    0.36000    1.000
    H991     H        0.68100    0.40200    0.32300    1.000
    H992     H        0.67200    0.45400    0.35300    1.000
    H993     H        0.69500    0.40600    0.34200    1.000
    H994     H        0.66200    0.46500    0.28300    1.000
    H995     H        0.70400    0.47400    0.31800    1.000
    H996     H        0.65300    0.49200    0.33000    1.000
    H997     H        0.65100    0.44300    0.40700    1.000
    H998     H        0.66300    0.45700    0.32900    1.000
    H999     H        0.68300    0.40700    0.32000    1.000
    H1000    H        0.71800    0.42400    0.44100    1.000
    H1001    H        0.72500    0.46000    0.40000    1.000
    H1002    H        0.73800    0.40700    0.39300    1.000
    H1003    H        0.58500    0.24300    0.37000    1.000
    H1004    H        0.56500    0.18400    0.42500    1.000
    H1005    H        0.55100    0.20000    0.50400    1.000
    H1006    H        0.55900    0.27000    0.52700    1.000
    H1007    H        0.57800    0.33100    0.48200    1.000
    H1008    H        0.57500    0.24400    0.38700    1.000
    H1009    H        0.55900    0.18800    0.45000    1.000
    H1010    H        0.54900    0.21200    0.52400    1.000
    H1011    H        0.56600    0.29200    0.53900    1.000
    H1012    H        0.58600    0.34700    0.47600    1.000
    Ni45     Ni       0.64900    0.86890    0.90270    1.000
    O177     O        0.69530    0.83840    0.85930    1.000
    O178     O        0.69730    0.87960    0.79300    1.000
    C749     C        0.71270    0.84800    0.82020    1.000
    C750     C        0.75350    0.81940    0.80580    1.000
    C751     C        0.78010    0.83160    0.76630    1.000
    O179     O        0.59180    0.82730    0.88520    1.000
    O180     O        0.62400    0.90860    0.84620    1.000
    C752     C        0.57560    0.83790    0.83980    1.000
    C753     C        0.58030    0.89170    0.82940    1.000
    C754     C        0.53270    0.81520    0.82930    1.000
    C755     C        0.57130    0.90760    0.78320    1.000
    N89      N        0.70440    0.91520    0.91690    1.000
    C756     C        0.74830    0.90180    0.92040    1.000
    C757     C        0.78430    0.93570    0.93230    1.000
    C758     C        0.77570    0.98200    0.94010    1.000
    C759     C        0.73570    0.99440    0.93580    1.000
    C760     C        0.69900    0.96800    0.92490    1.000
    N90      N        0.70200    0.93300    0.91820    1.000
    C761     C        0.74660    0.91920    0.92610    1.000
    C762     C        0.77940    0.95730    0.93700    1.000
    C763     C        0.76710    0.99950    0.94180    1.000
    C764     C        0.71900    0.00750    0.93230    1.000
    C765     C        0.68540    0.97010    0.92010    1.000
    H1013    H        0.77000    0.86000    0.75200    1.000
    H1014    H        0.59800    0.82300    0.81900    1.000
    H1015    H        0.54600    0.85300    0.82800    1.000
    H1016    H        0.59400    0.84200    0.80500    1.000
    H1017    H        0.53500    0.78300    0.83800    1.000
    H1018    H        0.52600    0.81800    0.79600    1.000
    H1019    H        0.50800    0.83000    0.84700    1.000
    H1020    H        0.55700    0.90700    0.84900    1.000
    H1021    H        0.54300    0.82900    0.83700    1.000
    H1022    H        0.59300    0.82000    0.81700    1.000
    H1023    H        0.57600    0.94100    0.78200    1.000
    H1024    H        0.54000    0.90000    0.77500    1.000
    H1025    H        0.59300    0.89300    0.76200    1.000
    H1026    H        0.75700    0.87000    0.91500    1.000
    H1027    H        0.81600    0.92500    0.93500    1.000
    H1028    H        0.80000    0.00400    0.94900    1.000
    H1029    H        0.73000    0.02700    0.94100    1.000
    H1030    H        0.66900    0.98200    0.92200    1.000
    H1031    H        0.75600    0.88700    0.92500    1.000
    H1032    H        0.81200    0.95000    0.94100    1.000
    H1033    H        0.78800    0.02400    0.95100    1.000
    H1034    H        0.70800    0.03900    0.93400    1.000
    H1035    H        0.65300    0.97600    0.91400    1.000
    Ni46     Ni       0.14900    0.63110    0.09730    1.000
    O181     O        0.19530    0.66160    0.14070    1.000
    O182     O        0.19730    0.62040    0.20700    1.000
    C766     C        0.21270    0.65200    0.17980    1.000
    C767     C        0.25350    0.68060    0.19420    1.000
    C768     C        0.28010    0.66840    0.23370    1.000
    O183     O        0.09180    0.67270    0.11480    1.000
    O184     O        0.12400    0.59140    0.15380    1.000
    C769     C        0.07560    0.66210    0.16020    1.000
    C770     C        0.08030    0.60830    0.17060    1.000
    C771     C        0.03270    0.68480    0.17070    1.000
    C772     C        0.07130    0.59240    0.21680    1.000
    N91      N        0.20440    0.58480    0.08310    1.000
    C773     C        0.24830    0.59820    0.07960    1.000
    C774     C        0.28430    0.56430    0.06770    1.000
    C775     C        0.27570    0.51800    0.05990    1.000
    C776     C        0.23570    0.50560    0.06420    1.000
    C777     C        0.19900    0.53200    0.07510    1.000
    N92      N        0.20200    0.56700    0.08180    1.000
    C778     C        0.24660    0.58080    0.07390    1.000
    C779     C        0.27940    0.54270    0.06300    1.000
    C780     C        0.26710    0.50050    0.05820    1.000
    C781     C        0.21900    0.49250    0.06770    1.000
    C782     C        0.18540    0.52990    0.07990    1.000
    H1036    H        0.27000    0.64000    0.24800    1.000
    H1037    H        0.09800    0.67700    0.18100    1.000
    H1038    H        0.04600    0.64700    0.17200    1.000
    H1039    H        0.09400    0.65800    0.19500    1.000
    H1040    H        0.03500    0.71700    0.16200    1.000
    H1041    H        0.02600    0.68200    0.20400    1.000
    H1042    H        0.00800    0.67000    0.15300    1.000
    H1043    H        0.05700    0.59300    0.15100    1.000
    H1044    H        0.04300    0.67100    0.16300    1.000
    H1045    H        0.09300    0.68000    0.18300    1.000
    H1046    H        0.07600    0.55900    0.21800    1.000
    H1047    H        0.04000    0.60000    0.22500    1.000
    H1048    H        0.09300    0.60700    0.23800    1.000
    H1049    H        0.25700    0.63000    0.08500    1.000
    H1050    H        0.31600    0.57500    0.06500    1.000
    H1051    H        0.30000    0.49600    0.05100    1.000
    H1052    H        0.23000    0.47300    0.05900    1.000
    H1053    H        0.16900    0.51800    0.07800    1.000
    H1054    H        0.25600    0.61300    0.07500    1.000
    H1055    H        0.31200    0.55000    0.05900    1.000
    H1056    H        0.28800    0.47600    0.04900    1.000
    H1057    H        0.20800    0.46100    0.06600    1.000
    H1058    H        0.15300    0.52400    0.08600    1.000
    Ni47     Ni       0.35100    0.36890    0.59730    1.000
    O185     O        0.30470    0.33840    0.64070    1.000
    O186     O        0.30270    0.37960    0.70700    1.000
    C783     C        0.28730    0.34800    0.67980    1.000
    C784     C        0.24650    0.31940    0.69420    1.000
    C785     C        0.21990    0.33160    0.73370    1.000
    O187     O        0.40820    0.32730    0.61480    1.000
    O188     O        0.37600    0.40860    0.65380    1.000
    C786     C        0.42440    0.33790    0.66020    1.000
    C787     C        0.41970    0.39170    0.67060    1.000
    C788     C        0.46730    0.31520    0.67070    1.000
    C789     C        0.42870    0.40760    0.71680    1.000
    N93      N        0.29560    0.41520    0.58310    1.000
    C790     C        0.25170    0.40180    0.57960    1.000
    C791     C        0.21570    0.43570    0.56770    1.000
    C792     C        0.22430    0.48200    0.55990    1.000
    C793     C        0.26430    0.49440    0.56420    1.000
    C794     C        0.30100    0.46800    0.57510    1.000
    N94      N        0.29800    0.43300    0.58180    1.000
    C795     C        0.25340    0.41920    0.57390    1.000
    C796     C        0.22060    0.45730    0.56300    1.000
    C797     C        0.23290    0.49950    0.55820    1.000
    C798     C        0.28100    0.50750    0.56770    1.000
    C799     C        0.31460    0.47010    0.57990    1.000
    H1059    H        0.23000    0.36000    0.74800    1.000
    H1060    H        0.40200    0.32300    0.68100    1.000
    H1061    H        0.45400    0.35300    0.67200    1.000
    H1062    H        0.40600    0.34200    0.69500    1.000
    H1063    H        0.46500    0.28300    0.66200    1.000
    H1064    H        0.47400    0.31800    0.70400    1.000
    H1065    H        0.49200    0.33000    0.65300    1.000
    H1066    H        0.44300    0.40700    0.65100    1.000
    H1067    H        0.45700    0.32900    0.66300    1.000
    H1068    H        0.40700    0.32000    0.68300    1.000
    H1069    H        0.42400    0.44100    0.71800    1.000
    H1070    H        0.46000    0.40000    0.72500    1.000
    H1071    H        0.40700    0.39300    0.73800    1.000
    H1072    H        0.24300    0.37000    0.58500    1.000
    H1073    H        0.18400    0.42500    0.56500    1.000
    H1074    H        0.20000    0.50400    0.55100    1.000
    H1075    H        0.27000    0.52700    0.55900    1.000
    H1076    H        0.33100    0.48200    0.57800    1.000
    H1077    H        0.24400    0.38700    0.57500    1.000
    H1078    H        0.18800    0.45000    0.55900    1.000
    H1079    H        0.21200    0.52400    0.54900    1.000
    H1080    H        0.29200    0.53900    0.56600    1.000
    H1081    H        0.34700    0.47600    0.58600    1.000
    Ni48     Ni       0.85100    0.13110    0.40270    1.000
    O189     O        0.80470    0.16160    0.35930    1.000
    O190     O        0.80270    0.12040    0.29300    1.000
    C800     C        0.78730    0.15200    0.32020    1.000
    C801     C        0.74650    0.18060    0.30580    1.000
    C802     C        0.71990    0.16840    0.26630    1.000
    O191     O        0.90820    0.17270    0.38520    1.000
    O192     O        0.87600    0.09140    0.34620    1.000
    C803     C        0.92440    0.16210    0.33980    1.000
    C804     C        0.91970    0.10830    0.32940    1.000
    C805     C        0.96730    0.18480    0.32930    1.000
    C806     C        0.92870    0.09240    0.28320    1.000
    N95      N        0.79560    0.08480    0.41690    1.000
    C807     C        0.75170    0.09820    0.42040    1.000
    C808     C        0.71570    0.06430    0.43230    1.000
    C809     C        0.72430    0.01800    0.44010    1.000
    C810     C        0.76430    0.00560    0.43580    1.000
    C811     C        0.80100    0.03200    0.42490    1.000
    N96      N        0.79800    0.06700    0.41820    1.000
    C812     C        0.75340    0.08080    0.42610    1.000
    C813     C        0.72060    0.04270    0.43700    1.000
    C814     C        0.73290    0.00050    0.44180    1.000
    C815     C        0.78100    0.99250    0.43230    1.000
    C816     C        0.81460    0.02990    0.42010    1.000
    H1082    H        0.73000    0.14000    0.25200    1.000
    H1083    H        0.90200    0.17700    0.31900    1.000
    H1084    H        0.95400    0.14700    0.32800    1.000
    H1085    H        0.90600    0.15800    0.30500    1.000
    H1086    H        0.96500    0.21700    0.33800    1.000
    H1087    H        0.97400    0.18200    0.29600    1.000
    H1088    H        0.99200    0.17000    0.34700    1.000
    H1089    H        0.94300    0.09300    0.34900    1.000
    H1090    H        0.95700    0.17100    0.33700    1.000
    H1091    H        0.90700    0.18000    0.31700    1.000
    H1092    H        0.92400    0.05900    0.28200    1.000
    H1093    H        0.96000    0.10000    0.27500    1.000
    H1094    H        0.90700    0.10700    0.26200    1.000
    H1095    H        0.74300    0.13000    0.41500    1.000
    H1096    H        0.68400    0.07500    0.43500    1.000
    H1097    H        0.70000    0.99600    0.44900    1.000
    H1098    H        0.77000    0.97300    0.44100    1.000
    H1099    H        0.83100    0.01800    0.42200    1.000
    H1100    H        0.74400    0.11300    0.42500    1.000
    H1101    H        0.68800    0.05000    0.44100    1.000
    H1102    H        0.71200    0.97600    0.45100    1.000
    H1103    H        0.79200    0.96100    0.43400    1.000
    H1104    H        0.84700    0.02400    0.41400    1.000
