# CIF file generated by openbabel 3.1.0, see https://openbabel.org
data_I
_chemical_name_common 'image0'
_cell_length_a 9.417
_cell_length_b 9.754
_cell_length_c 11.002
_cell_angle_alpha 80.51
_cell_angle_beta 71.64
_cell_angle_gamma 61.68
_space_group_name_H-M_alt 'P 1'
_space_group_name_Hall 'P 1'
loop_
    _symmetry_equiv_pos_as_xyz
    x,y,z
loop_
    _atom_site_label
    _atom_site_type_symbol
    _atom_site_fract_x
    _atom_site_fract_y
    _atom_site_fract_z
    _atom_site_occupancy
    P1       P        0.62890    0.26130    0.28490    1.000
    P2       P        0.01000    0.59700    0.17350    1.000
    P3       P        0.12280    0.11920    0.41850    1.000
    O1       O        0.13850    0.54790    0.24990    1.000
    O2       O        0.18980    0.22600    0.32900    1.000
    O3       O        0.45930    0.31970    0.25720    1.000
    O4       O        0.59480    0.28760    0.42500    1.000
    O5       O        0.24970    0.95160    0.37900    1.000
    O6       O        0.95110    0.15590    0.40480    1.000
    O7       O        0.71750    0.35260    0.20030    1.000
    O8       O        0.90640    0.50430    0.21650    1.000
    O9       O        0.10790    0.56510    0.03200    1.000
    O10      O        0.10800    0.14770    0.55630    1.000
    O11      O        0.73370    0.08970    0.25340    1.000
    O12      O        0.88810    0.77110    0.19560    1.000
    Sn1      Sn       0.22400    0.39590    0.39730    1.000
    Sn2      Sn       0.71080    0.27520    0.55940    1.000
    Sn3      Sn       0.97210    0.29920    0.12840    1.000
    Sn4      Sn       0.97190    0.91330    0.25300    1.000
    P4       P        0.37110    0.73870    0.71510    1.000
    P5       P        0.99000    0.40300    0.82650    1.000
    P6       P        0.87720    0.88080    0.58150    1.000
    O13      O        0.86150    0.45210    0.75010    1.000
    O14      O        0.81020    0.77400    0.67100    1.000
    O15      O        0.54070    0.68030    0.74280    1.000
    O16      O        0.40520    0.71240    0.57500    1.000
    O17      O        0.75030    0.04840    0.62100    1.000
    O18      O        0.04890    0.84410    0.59520    1.000
    O19      O        0.28250    0.64740    0.79970    1.000
    O20      O        0.09360    0.49570    0.78350    1.000
    O21      O        0.89210    0.43490    0.96800    1.000
    O22      O        0.89200    0.85230    0.44370    1.000
    O23      O        0.26630    0.91030    0.74660    1.000
    O24      O        0.11190    0.22890    0.80440    1.000
    Sn5      Sn       0.77600    0.60410    0.60270    1.000
    Sn6      Sn       0.28920    0.72480    0.44060    1.000
    Sn7      Sn       0.02790    0.70080    0.87160    1.000
    Sn8      Sn       0.02810    0.08670    0.74700    1.000
