data_functionalizedCrystal
_audit_creation_method	'EQeq! by Chris Wilmer'
_symmetry_space_group_name_H-M	'P1'
_symmetry_Int_Tables_number	1
_symmetry_cell_setting	triclinic
loop_
_symmetry_equiv_pos_as_xyz
  x,y,z
_cell_length_a	13.527
_cell_length_b	25.847
_cell_length_c	26.657
_cell_angle_alpha	98.87
_cell_angle_beta	103.892
_cell_angle_gamma	103.725
loop_
_atom_site_label
_atom_site_type_symbol
_atom_site_fract_x
_atom_site_fract_y
_atom_site_fract_z
_atom_site_charge
Mof_Ti	Ti	0.51685	0.1214	0.54975	1.532
Mof_Ti	Ti	0.10039	0.08117	0.08526	1.684
Mof_Ti	Ti	0.66289	0.07559	0.49156	1.611
Mof_Ti	Ti	0.36642	0.0351	0.45032	1.501
Mof_Ti	Ti	0.38313	0.42596	0.42986	1.582
Mof_Ti	Ti	0.8465	0.96794	0.03029	1.512
Mof_Ti	Ti	0.36135	0.55552	0.5033	1.591
Mof_Ti	Ti	0.05295	0.96374	0.10856	1.536
Mof_Ti	Ti	0.29231	0.43833	0.52559	1.451
Mof_Ti	Ti	0.49027	0.47251	0.08136	1.518
Mof_Ti	Ti	0.501	0.40325	0.94933	1.538
Mof_Ti	Ti	0.69082	0.45797	0.05249	1.532
Mof_Cu	Cu	0.67207	0.24126	0.29369	0.723
Mof_Cu	Cu	0.68309	0.24288	0.1962	0.725
Mof_Cu	Cu	0.81434	0.20075	0.2552	0.721
Mof_Cu	Cu	0.84358	0.30495	0.28391	0.716
Mof_I 	I 	0.87094	0.24791	0.35772	-0.665
Mof_I 	I 	0.65473	0.32939	0.25621	-0.659
Mof_I 	I 	0.59984	0.14957	0.22026	-0.75
Mof_I 	I 	0.88592	0.26364	0.19449	-0.641
Mof_P 	P 	0.2896	0.42046	0.97746	0.566
Mof_P 	P 	0.508	0.98275	0.3886	0.569
Mof_P 	P 	0.4619	0.5444	0.40421	0.577
Mof_P 	P 	0.8885	0.08585	0.00107	0.583
Mof_C 	C 	0.9377	0.4183	0.2847	-0.003
Mof_H 	H 	0.8895	0.4077	0.2501	-0.018
Mof_C 	C 	0.9989	0.4716	0.3031	-0.03
Mof_H 	H 	0.9929	0.4963	0.2804	0.005
Mof_C 	C 	0.0725	0.4519	0.3808	-0.115
Mof_C 	C 	0.8571	0.0484	0.2747	-0.03
Mof_H 	H 	0.8365	0.0249	0.2968	0.015
Mof_C 	C 	0.0122	0.399	0.3621	0.034
Mof_H 	H 	0.0193	0.3738	0.3842	-0.015
Mof_C 	C 	0.1547	0.4711	0.4343	0.431
Mof_C 	C 	0.4204	0.5663	0.3443	-0.18
Mof_C 	C 	0.4864	0.5823	0.3154	0.093
Mof_H 	H 	0.558	0.5815	0.3273	-0.045
Mof_C 	C 	0.455	0.5996	0.2698	-0.219
Mof_H 	H 	0.5055	0.6133	0.252	0.045
Mof_C 	C 	0.355	0.597	0.2511	0.111
Mof_H 	H 	0.3327	0.6076	0.2186	-0.067
Mof_C 	C 	0.285	0.5806	0.2748	-0.191
Mof_H 	H 	0.2124	0.5787	0.2595	0.056
Mof_C 	C 	0.3156	0.5648	0.3252	0.064
Mof_H 	H 	0.2657	0.5541	0.3441	0
Mof_C 	C 	0.2818	0.5425	0.6013	0.822
Mof_H 	H 	0.3138	0.5825	0.6049	-0.238
Mof_C 	C 	0.3447	0.5291	0.6501	-1.053
Mof_H 	H 	0.3211	0.4897	0.6477	0.282
Mof_H 	H 	0.3334	0.5487	0.6817	0.309
Mof_H 	H 	0.4205	0.5401	0.6524	0.322
Mof_C 	C 	0.1676	0.5352	0.5923	-1.107
Mof_H 	H 	0.1299	0.4961	0.5832	0.303
Mof_H 	H 	0.1414	0.5519	0.5631	0.319
Mof_H 	H 	0.1551	0.5528	0.6246	0.331
Mof_C 	C 	0.2932	0.3236	0.4685	1.348
Mof_H 	H 	0.321	0.3139	0.4378	-0.388
Mof_C 	C 	0.3571	0.3073	0.5086	-1.805
Mof_H 	H 	0.3657	0.3307	0.5429	0.507
Mof_H 	H 	0.4268	0.3107	0.5026	0.538
Mof_H 	H 	0.3237	0.2692	0.5084	0.493
Mof_C 	C 	0.1765	0.2958	0.4457	-1.528
Mof_H 	H 	0.1604	0.2591	0.4529	0.421
Mof_H 	H 	0.156	0.2929	0.4073	0.447
Mof_H 	H 	0.1367	0.3171	0.462	0.426
Mof_C 	C 	0.602	0.2866	0.1044	0.047
Mof_H 	H 	0.6593	0.3179	0.1236	-0.017
Mof_C 	C 	0.5352	0.2888	0.0569	-0.092
Mof_C 	C 	0.4462	0.2023	0.0479	-0.008
Mof_H 	H 	0.3908	0.1704	0.028	0.004
Mof_C 	C 	0.5089	0.1994	0.095	0.001
Mof_H 	H 	0.4953	0.1665	0.1072	-0.007
Mof_C 	C 	0.5567	0.3411	0.0366	0.424
Mof_C 	C 	0.1666	0.3678	0.965	-0.133
Mof_C 	C 	0.0884	0.3544	0.9167	0.014
Mof_H 	H 	0.0982	0.3741	0.8901	-0.008
Mof_C 	C 	0.996	0.3123	0.9072	-0.117
Mof_H 	H 	0.9426	0.3032	0.8742	0.017
Mof_C 	C 	0.9816	0.2835	0.9461	-0.012
Mof_H 	H 	0.9184	0.2547	0.9397	0.007
Mof_C 	C 	0.0597	0.2969	0.9945	-0.112
Mof_H 	H 	0.0499	0.2772	0.021	0.054
Mof_C 	C 	0.1522	0.339	0.0039	0.023
Mof_H 	H 	0.2056	0.3481	0.037	0.006
Mof_C 	C 	0.713	0.511	0.1668	1.416
Mof_H 	H 	0.7856	0.5215	0.1619	-0.405
Mof_C 	C 	0.702	0.5623	0.1869	-1.821
Mof_H 	H 	0.694	0.5637	0.2226	0.496
Mof_H 	H 	0.6392	0.5679	0.1637	0.507
Mof_H 	H 	0.7654	0.5911	0.1884	0.527
Mof_C 	C 	0.7229	0.4707	0.2001	-1.674
Mof_H 	H 	0.7817	0.4877	0.2325	0.482
Mof_H 	H 	0.7367	0.4393	0.1804	0.492
Mof_H 	H 	0.6566	0.4586	0.2094	0.46
Mof_C 	C 	0.738	0.4105	0.9513	1.506
Mof_C 	C 	0.763	0.4414	0.9206	-2.45
Mof_H 	H 	0.8241	0.4727	0.9409	0.661
Mof_H 	H 	0.7029	0.4545	0.9052	0.693
Mof_H 	H 	0.7822	0.4207	0.8921	0.665
Mof_C 	C 	0.744	0.355	0.9476	-1.903
Mof_H 	H 	0.7692	0.3441	0.9173	0.524
Mof_H 	H 	0.6729	0.3304	0.9428	0.523
Mof_H 	H 	0.7928	0.3527	0.9803	0.525
Mof_C 	C 	0.8351	0.0973	0.2789	0.008
Mof_H 	H 	0.7964	0.1061	0.3027	-0.006
Mof_C 	C 	0.9183	0.1188	0.2175	0.032
Mof_H 	H 	0.9416	0.1433	0.1967	0.001
Mof_C 	C 	0.9394	0.0683	0.2128	-0.105
Mof_C 	C 	0.9945	0.0528	0.1725	0.419
Mof_C 	C 	0.8155	0.1359	0.9987	-0.206
Mof_C 	C 	0.7558	0.1394	0.9517	0.108
Mof_H 	H 	0.7528	0.1154	0.9203	-0.079
Mof_C 	C 	0.6975	0.178	0.9481	-0.205
Mof_H 	H 	0.6549	0.1798	0.9149	0.057
Mof_C 	C 	0.7037	0.2119	0.9931	0.099
Mof_H 	H 	0.6644	0.2379	0.9916	-0.031
Mof_C 	C 	0.764	0.2096	0.0391	-0.194
Mof_H 	H 	0.7675	0.234	0.0705	0.086
Mof_C 	C 	0.8214	0.1717	0.0418	0.112
Mof_H 	H 	0.866	0.1713	0.0752	-0.007
Mof_C 	C 	0.2827	0.0451	0.1518	3.423
Mof_H 	H 	0.3031	0.0822	0.1441	-0.882
Mof_C 	C 	0.3002	0.0639	0.2084	-3.724
Mof_H 	H 	0.2913	0.0324	0.2249	1.016
Mof_H 	H 	0.2487	0.0835	0.214	1.075
Mof_H 	H 	0.3724	0.0884	0.2243	1.096
Mof_C 	C 	0.3428	0.024	0.1272	-4.626
Mof_H 	H 	0.4174	0.0453	0.1432	1.352
Mof_H 	H 	0.3211	0.025	0.0896	1.345
Mof_H 	H 	0.3344	0.9861	0.1305	1.278
Mof_C 	C 	0.8485	0.8654	0.0785	0.885
Mof_H 	H 	0.916	0.861	0.1004	-0.222
Mof_C 	C 	0.807	0.8671	0.1234	-1.193
Mof_H 	H 	0.7395	0.8385	0.1143	0.333
Mof_H 	H 	0.7956	0.9029	0.1331	0.332
Mof_H 	H 	0.858	0.8612	0.1534	0.338
Mof_C 	C 	0.844	0.8254	0.0399	-0.775
Mof_H 	H 	0.8451	0.793	0.0546	0.248
Mof_H 	H 	0.907	0.8362	0.0275	0.256
Mof_C 	C 	0.542	0.2773	0.3609	-0.022
Mof_H 	H 	0.5353	0.303	0.3393	0.01
Mof_C 	C 	0.5029	0.2801	0.4038	-0.017
Mof_H 	H 	0.4702	0.3079	0.4113	0.012
Mof_C 	C 	0.5577	0.2066	0.4233	-0.117
Mof_C 	C 	0.5978	0.2042	0.3812	0.047
Mof_H 	H 	0.6325	0.1769	0.3747	-0.008
Mof_C 	C 	0.5691	0.1676	0.4594	0.439
Mof_C 	C 	0.543	0.0115	0.2964	0.115
Mof_H 	H 	0.5568	0.0485	0.314	-0.032
Mof_C 	C 	0.5497	0.9998	0.2462	-0.254
Mof_H 	H 	0.5679	0.029	0.2293	0.078
Mof_C 	C 	0.5321	0.9497	0.2201	0.112
Mof_H 	H 	0.5426	0.9434	0.186	-0.058
Mof_C 	C 	0.499	0.9075	0.2414	-0.215
Mof_H 	H 	0.4775	0.871	0.2209	0.056
Mof_C 	C 	0.4978	0.918	0.2947	0.087
Mof_H 	H 	0.4837	0.8887	0.3119	-0.046
Mof_C 	C 	0.2754	0.1024	0.5267	1.319
Mof_H 	H 	0.31	0.1194	0.5652	-0.368
Mof_C 	C 	0.2528	0.1502	0.5084	-1.54
Mof_H 	H 	0.2284	0.1417	0.4696	0.403
Mof_H 	H 	0.3174	0.1811	0.521	0.419
Mof_H 	H 	0.1972	0.1598	0.5225	0.409
Mof_C 	C 	0.2013	0.0565	0.5308	-1.723
Mof_H 	H 	0.148	0.0681	0.5454	0.469
Mof_H 	H 	0.2376	0.0369	0.5544	0.502
Mof_H 	H 	0.1662	0.0323	0.4957	0.45
Mof_C 	C 	0.7623	0.1599	0.5987	1.739
Mof_H 	H 	0.8147	0.1428	0.5874	-0.496
Mof_C 	C 	0.8036	0.215	0.5921	-2.008
Mof_H 	H 	0.75	0.2346	0.5922	0.547
Mof_H 	H 	0.8208	0.2131	0.5583	0.571
Mof_H 	H 	0.868	0.2343	0.6212	0.549
Mof_C 	C 	0.768	0.1448	0.6467	-2.233
Mof_H 	H 	0.6986	0.1386	0.6532	0.625
Mof_H 	H 	0.8207	0.174	0.6752	0.606
Mof_H 	H 	0.7899	0.1111	0.6456	0.637
Mof_C 	C 	0.5166	0.9709	0.3218	-0.204
Mof_N 	N 	0.588	0.2418	0.1238	-0.227
Mof_N 	N 	0.5908	0.2382	0.3484	-0.231
Mof_N 	N 	0.943	0.3812	0.3133	-0.236
Mof_N 	N 	0.8653	0.133	0.2513	-0.23
Mof_N 	N 	0.509	0.2451	0.4352	-0.113
Mof_N 	N 	0.457	0.2468	0.0273	-0.094
Mof_N 	N 	0.9084	0.0322	0.2391	-0.105
Mof_N 	N 	0.067	0.49	0.3519	-0.097
Mof_O 	O 	0.3651	0.0912	0.5124	-0.863
Mof_O 	O 	0.3729	0.4793	0.4845	-0.777
Mof_O 	O 	0.3085	0.9747	0.4684	-0.788
Mof_O 	O 	0.5247	0.171	0.4952	-0.543
Mof_O 	O 	0.9899	0.009	0.0631	-0.771
Mof_O 	O 	0.5121	0.0637	0.4901	-0.773
Mof_O 	O 	0.6688	0.1292	0.5574	-0.941
Mof_O 	O 	0.8355	0.929	0.9686	-0.791
Mof_O 	O 	0.4145	0.0051	0.3908	-0.549
Mof_O 	O 	0.9041	0.9202	0.077	-0.765
Mof_O 	O 	0.1589	0.4358	0.4627	-0.517
Mof_O 	O 	0.9923	0.1105	0.0446	-0.527
Mof_O 	O 	0.1704	0.0311	0.1231	-1.253
Mof_O 	O 	0.0273	0.0885	0.1495	-0.512
Mof_O 	O 	0.6265	0.1377	0.4513	-0.51
Mof_O 	O 	0.6124	0.0241	0.4226	-0.539
Mof_O 	O 	0.4146	0.4829	0.3908	-0.547
Mof_O 	O 	0.3124	0.3815	0.4749	-0.868
Mof_O 	O 	0.004	0.0048	0.167	-0.536
Mof_O 	O 	0.3003	0.5153	0.5532	-0.733
Mof_O 	O 	0.8202	0.0346	0.0111	-0.574
Mof_O 	O 	0.5388	0.4498	0.023	-0.767
Mof_O 	O 	0.582	0.5606	0.4197	-0.544
Mof_O 	O 	0.4913	0.5863	0.5548	-0.769
Mof_O 	O 	0.4913	0.927	0.4029	-0.556
Mof_O 	O 	0.4199	0.5722	0.4456	-0.54
Mof_O 	O 	0.3524	0.3973	0.9447	-0.531
Mof_O 	O 	0.4964	0.3399	0.9927	-0.505
Mof_O 	O 	0.9045	0.074	0.9464	-0.57
Mof_O 	O 	0.2134	0.518	0.4453	-0.518
Mof_O 	O 	0.2592	0.469	0.958	-0.538
Mof_O 	O 	0.4851	0.5408	0.0865	-0.812
Mof_O 	O 	0.3452	0.4347	0.0361	-0.547
Mof_O 	O 	0.6491	0.4857	0.1141	-0.893
Mof_O 	O 	0.6358	0.3794	0.0659	-0.527
Mof_O 	O 	0.6633	0.4211	0.978	-0.931
Mof_Ti	Ti	0.48315	0.8786	0.45025	1.531
Mof_Ti	Ti	0.89961	0.91883	0.91474	1.683
Mof_Ti	Ti	0.33711	0.92441	0.50844	1.61
Mof_Ti	Ti	0.63358	0.9649	0.54968	1.5
Mof_Ti	Ti	0.61687	0.57404	0.57014	1.581
Mof_Ti	Ti	0.1535	0.03206	0.96971	1.511
Mof_Ti	Ti	0.63865	0.44448	0.4967	1.59
Mof_Ti	Ti	0.94705	0.03626	0.89144	1.535
Mof_Ti	Ti	0.70769	0.56167	0.47441	1.451
Mof_Ti	Ti	0.50973	0.52749	0.91864	1.518
Mof_Ti	Ti	0.499	0.59675	0.05067	1.538
Mof_Ti	Ti	0.30918	0.54203	0.94751	1.532
Mof_Cu	Cu	0.32793	0.75874	0.70631	0.723
Mof_Cu	Cu	0.31691	0.75712	0.8038	0.725
Mof_Cu	Cu	0.18566	0.79925	0.7448	0.721
Mof_Cu	Cu	0.15642	0.69505	0.71609	0.716
Mof_I 	I 	0.12906	0.75209	0.64228	-0.665
Mof_I 	I 	0.34527	0.67061	0.74379	-0.659
Mof_I 	I 	0.40016	0.85043	0.77974	-0.75
Mof_I 	I 	0.11408	0.73636	0.80551	-0.641
Mof_P 	P 	0.7104	0.57954	0.02254	0.566
Mof_P 	P 	0.492	0.01725	0.6114	0.569
Mof_P 	P 	0.5381	0.4556	0.59579	0.577
Mof_P 	P 	0.1115	0.91415	0.99893	0.583
Mof_C 	C 	0.0623	0.5817	0.7153	-0.003
Mof_H 	H 	0.1105	0.5923	0.7499	-0.018
Mof_C 	C 	0.0011	0.5284	0.6969	-0.03
Mof_H 	H 	0.0071	0.5037	0.7196	0.005
Mof_C 	C 	0.9275	0.5481	0.6192	-0.115
Mof_C 	C 	0.1429	0.9516	0.7253	-0.03
Mof_H 	H 	0.1635	0.9751	0.7032	0.015
Mof_C 	C 	0.9878	0.601	0.6379	0.034
Mof_H 	H 	0.9807	0.6262	0.6158	-0.015
Mof_C 	C 	0.8453	0.5289	0.5657	0.431
Mof_C 	C 	0.5796	0.4337	0.6557	-0.18
Mof_C 	C 	0.5136	0.4177	0.6846	0.093
Mof_H 	H 	0.442	0.4185	0.6727	-0.045
Mof_C 	C 	0.545	0.4004	0.7302	-0.219
Mof_H 	H 	0.4945	0.3867	0.748	0.045
Mof_C 	C 	0.645	0.403	0.7489	0.111
Mof_H 	H 	0.6673	0.3924	0.7814	-0.067
Mof_C 	C 	0.715	0.4194	0.7252	-0.191
Mof_H 	H 	0.7876	0.4213	0.7405	0.056
Mof_C 	C 	0.6844	0.4352	0.6748	0.064
Mof_H 	H 	0.7343	0.4459	0.6559	0
Mof_C 	C 	0.7182	0.4575	0.3987	0.822
Mof_H 	H 	0.6862	0.4175	0.3951	-0.238
Mof_C 	C 	0.6553	0.4709	0.3499	-1.053
Mof_H 	H 	0.6789	0.5103	0.3523	0.282
Mof_H 	H 	0.6666	0.4513	0.3183	0.309
Mof_H 	H 	0.5795	0.4599	0.3476	0.322
Mof_C 	C 	0.8324	0.4648	0.4077	-1.107
Mof_H 	H 	0.8701	0.5039	0.4168	0.303
Mof_H 	H 	0.8586	0.4481	0.4369	0.319
Mof_H 	H 	0.8449	0.4472	0.3754	0.331
Mof_C 	C 	0.7068	0.6764	0.5315	1.348
Mof_H 	H 	0.679	0.6861	0.5622	-0.388
Mof_C 	C 	0.6429	0.6927	0.4914	-1.805
Mof_H 	H 	0.6343	0.6693	0.4571	0.507
Mof_H 	H 	0.5732	0.6893	0.4974	0.538
Mof_H 	H 	0.6763	0.7308	0.4916	0.493
Mof_C 	C 	0.8235	0.7042	0.5543	-1.528
Mof_H 	H 	0.8396	0.7409	0.5471	0.421
Mof_H 	H 	0.844	0.7071	0.5927	0.447
Mof_H 	H 	0.8633	0.6829	0.538	0.426
Mof_C 	C 	0.398	0.7134	0.8956	0.047
Mof_H 	H 	0.3407	0.6821	0.8764	-0.017
Mof_C 	C 	0.4648	0.7112	0.9431	-0.092
Mof_C 	C 	0.5538	0.7977	0.9521	-0.008
Mof_H 	H 	0.6092	0.8296	0.972	0.004
Mof_C 	C 	0.4911	0.8006	0.905	0.001
Mof_H 	H 	0.5047	0.8335	0.8928	-0.007
Mof_C 	C 	0.4433	0.6589	0.9634	0.424
Mof_C 	C 	0.8334	0.6322	0.035	-0.133
Mof_C 	C 	0.9116	0.6456	0.0833	0.014
Mof_H 	H 	0.9018	0.6259	0.1099	-0.008
Mof_C 	C 	0.004	0.6877	0.0928	-0.117
Mof_H 	H 	0.0574	0.6968	0.1258	0.017
Mof_C 	C 	0.0184	0.7165	0.0539	-0.012
Mof_H 	H 	0.0816	0.7453	0.0603	0.007
Mof_C 	C 	0.9403	0.7031	0.0055	-0.112
Mof_H 	H 	0.9501	0.7228	0.979	0.054
Mof_C 	C 	0.8478	0.661	0.9961	0.023
Mof_H 	H 	0.7944	0.6519	0.963	0.006
Mof_C 	C 	0.287	0.489	0.8332	1.416
Mof_H 	H 	0.2144	0.4785	0.8381	-0.405
Mof_C 	C 	0.298	0.4377	0.8131	-1.821
Mof_H 	H 	0.306	0.4363	0.7774	0.496
Mof_H 	H 	0.3608	0.4321	0.8363	0.507
Mof_H 	H 	0.2346	0.4089	0.8116	0.527
Mof_C 	C 	0.2771	0.5293	0.7999	-1.674
Mof_H 	H 	0.2183	0.5123	0.7675	0.482
Mof_H 	H 	0.2633	0.5607	0.8196	0.492
Mof_H 	H 	0.3434	0.5414	0.7906	0.46
Mof_C 	C 	0.262	0.5895	0.0487	1.506
Mof_C 	C 	0.237	0.5586	0.0794	-2.45
Mof_H 	H 	0.1759	0.5273	0.0591	0.661
Mof_H 	H 	0.2971	0.5455	0.0948	0.693
Mof_H 	H 	0.2178	0.5793	0.1079	0.665
Mof_C 	C 	0.256	0.645	0.0524	-1.903
Mof_H 	H 	0.2308	0.6559	0.0827	0.524
Mof_H 	H 	0.3271	0.6696	0.0572	0.523
Mof_H 	H 	0.2072	0.6473	0.0197	0.525
Mof_C 	C 	0.1649	0.9027	0.7211	0.008
Mof_H 	H 	0.2036	0.8939	0.6973	-0.006
Mof_C 	C 	0.0817	0.8812	0.7825	0.032
Mof_H 	H 	0.0584	0.8567	0.8033	0.001
Mof_C 	C 	0.0606	0.9317	0.7872	-0.105
Mof_C 	C 	0.0055	0.9472	0.8275	0.419
Mof_C 	C 	0.1845	0.8641	0.0013	-0.206
Mof_C 	C 	0.2442	0.8606	0.0483	0.108
Mof_H 	H 	0.2472	0.8846	0.0797	-0.079
Mof_C 	C 	0.3025	0.822	0.0519	-0.205
Mof_H 	H 	0.3451	0.8202	0.0851	0.057
Mof_C 	C 	0.2963	0.7881	0.0069	0.099
Mof_H 	H 	0.3356	0.7621	0.0084	-0.031
Mof_C 	C 	0.236	0.7904	0.9609	-0.194
Mof_H 	H 	0.2325	0.766	0.9295	0.086
Mof_C 	C 	0.1786	0.8283	0.9582	0.112
Mof_H 	H 	0.134	0.8287	0.9248	-0.007
Mof_C 	C 	0.7173	0.9549	0.8482	3.423
Mof_H 	H 	0.6969	0.9178	0.8559	-0.882
Mof_C 	C 	0.6998	0.9361	0.7916	-3.724
Mof_H 	H 	0.7087	0.9676	0.7751	1.016
Mof_H 	H 	0.7513	0.9165	0.786	1.075
Mof_H 	H 	0.6276	0.9116	0.7757	1.096
Mof_C 	C 	0.6572	0.976	0.8728	-4.626
Mof_H 	H 	0.5826	0.9547	0.8568	1.352
Mof_H 	H 	0.6789	0.975	0.9104	1.345
Mof_H 	H 	0.6656	0.0139	0.8695	1.278
Mof_C 	C 	0.1515	0.1346	0.9215	0.885
Mof_H 	H 	0.084	0.139	0.8996	-0.222
Mof_C 	C 	0.193	0.1329	0.8766	-1.193
Mof_H 	H 	0.2605	0.1615	0.8857	0.333
Mof_H 	H 	0.2044	0.0971	0.8669	0.332
Mof_H 	H 	0.142	0.1388	0.8466	0.338
Mof_C 	C 	0.156	0.1746	0.9601	-0.775
Mof_H 	H 	0.1549	0.207	0.9454	0.248
Mof_H 	H 	0.093	0.1638	0.9725	0.256
Mof_C 	C 	0.458	0.7227	0.6391	-0.022
Mof_H 	H 	0.4647	0.697	0.6607	0.01
Mof_C 	C 	0.4971	0.7199	0.5962	-0.017
Mof_H 	H 	0.5298	0.6921	0.5887	0.012
Mof_C 	C 	0.4423	0.7934	0.5767	-0.117
Mof_C 	C 	0.4022	0.7958	0.6188	0.047
Mof_H 	H 	0.3675	0.8231	0.6253	-0.008
Mof_C 	C 	0.4309	0.8324	0.5406	0.439
Mof_C 	C 	0.457	0.9885	0.7036	0.115
Mof_H 	H 	0.4432	0.9515	0.686	-0.032
Mof_C 	C 	0.4503	0.0002	0.7538	-0.254
Mof_H 	H 	0.4321	0.971	0.7707	0.078
Mof_C 	C 	0.4679	0.0503	0.7799	0.112
Mof_H 	H 	0.4574	0.0566	0.814	-0.058
Mof_C 	C 	0.501	0.0925	0.7586	-0.215
Mof_H 	H 	0.5225	0.129	0.7791	0.056
Mof_C 	C 	0.5022	0.082	0.7053	0.087
Mof_H 	H 	0.5163	0.1113	0.6881	-0.046
Mof_C 	C 	0.7246	0.8976	0.4733	1.319
Mof_H 	H 	0.69	0.8806	0.4348	-0.368
Mof_C 	C 	0.7472	0.8498	0.4916	-1.54
Mof_H 	H 	0.7716	0.8583	0.5304	0.403
Mof_H 	H 	0.6826	0.8189	0.479	0.419
Mof_H 	H 	0.8028	0.8402	0.4775	0.409
Mof_C 	C 	0.7987	0.9435	0.4692	-1.723
Mof_H 	H 	0.852	0.9319	0.4546	0.469
Mof_H 	H 	0.7624	0.9631	0.4456	0.502
Mof_H 	H 	0.8338	0.9677	0.5043	0.45
Mof_C 	C 	0.2377	0.8401	0.4013	1.739
Mof_H 	H 	0.1853	0.8572	0.4126	-0.496
Mof_C 	C 	0.1964	0.785	0.4079	-2.008
Mof_H 	H 	0.25	0.7654	0.4078	0.547
Mof_H 	H 	0.1792	0.7869	0.4417	0.571
Mof_H 	H 	0.132	0.7657	0.3788	0.549
Mof_C 	C 	0.232	0.8552	0.3533	-2.233
Mof_H 	H 	0.3014	0.8614	0.3468	0.625
Mof_H 	H 	0.1793	0.826	0.3248	0.606
Mof_H 	H 	0.2101	0.8889	0.3544	0.637
Mof_C 	C 	0.4834	0.0291	0.6782	-0.204
Mof_N 	N 	0.412	0.7582	0.8762	-0.227
Mof_N 	N 	0.4092	0.7618	0.6516	-0.231
Mof_N 	N 	0.057	0.6188	0.6867	-0.236
Mof_N 	N 	0.1347	0.867	0.7487	-0.23
Mof_N 	N 	0.491	0.7549	0.5648	-0.113
Mof_N 	N 	0.543	0.7532	0.9727	-0.094
Mof_N 	N 	0.0916	0.9678	0.7609	-0.105
Mof_N 	N 	0.933	0.51	0.6481	-0.097
Mof_O 	O 	0.6349	0.9088	0.4876	-0.863
Mof_O 	O 	0.6271	0.5207	0.5155	-0.777
Mof_O 	O 	0.6915	0.0253	0.5316	-0.788
Mof_O 	O 	0.4753	0.829	0.5048	-0.543
Mof_O 	O 	0.0101	0.991	0.9369	-0.771
Mof_O 	O 	0.4879	0.9363	0.5099	-0.773
Mof_O 	O 	0.3312	0.8708	0.4426	-0.941
Mof_O 	O 	0.1645	0.071	0.0314	-0.791
Mof_O 	O 	0.5855	0.9949	0.6092	-0.549
Mof_O 	O 	0.0959	0.0798	0.923	-0.765
Mof_O 	O 	0.8411	0.5642	0.5373	-0.517
Mof_O 	O 	0.0077	0.8895	0.9554	-0.527
Mof_O 	O 	0.8296	0.9689	0.8769	-1.253
Mof_O 	O 	0.9727	0.9115	0.8505	-0.512
Mof_O 	O 	0.3735	0.8623	0.5487	-0.51
Mof_O 	O 	0.3876	0.9759	0.5774	-0.539
Mof_O 	O 	0.5854	0.5171	0.6092	-0.547
Mof_O 	O 	0.6876	0.6185	0.5251	-0.868
Mof_O 	O 	0.996	0.9952	0.833	-0.536
Mof_O 	O 	0.6997	0.4847	0.4468	-0.733
Mof_O 	O 	0.1798	0.9654	0.9889	-0.574
Mof_O 	O 	0.4612	0.5502	0.977	-0.767
Mof_O 	O 	0.418	0.4394	0.5803	-0.544
Mof_O 	O 	0.5087	0.4137	0.4452	-0.769
Mof_O 	O 	0.5087	0.073	0.5971	-0.556
Mof_O 	O 	0.5801	0.4278	0.5544	-0.54
Mof_O 	O 	0.6476	0.6027	0.0553	-0.531
Mof_O 	O 	0.5036	0.6601	0.0073	-0.505
Mof_O 	O 	0.0955	0.926	0.0536	-0.57
Mof_O 	O 	0.7866	0.482	0.5547	-0.518
Mof_O 	O 	0.7408	0.531	0.042	-0.538
Mof_O 	O 	0.5149	0.4592	0.9135	-0.812
Mof_O 	O 	0.6548	0.5653	0.9639	-0.547
Mof_O 	O 	0.3509	0.5143	0.8859	-0.893
Mof_O 	O 	0.3642	0.6206	0.9341	-0.527
Mof_O 	O 	0.3367	0.5789	0.022	-0.931
_end
