data_functionalizedCrystal
_audit_creation_method	'EQeq! by Chris Wilmer'
_symmetry_space_group_name_H-M	'P1'
_symmetry_Int_Tables_number	1
_symmetry_cell_setting	triclinic
loop_
_symmetry_equiv_pos_as_xyz
  x,y,z
_cell_length_a	10.0389
_cell_length_b	17.7423
_cell_length_c	19.7457
_cell_angle_alpha	90
_cell_angle_beta	90
_cell_angle_gamma	90
loop_
_atom_site_label
_atom_site_type_symbol
_atom_site_fract_x
_atom_site_fract_y
_atom_site_fract_z
_atom_site_charge
Mof_Tb	Tb	0.03138	0.75	0.25	2.086
Mof_Tb	Tb	0.46862	0.25	0.75	2.092
Mof_Tb	Tb	0.96862	0.25	0.75	2.086
Mof_Tb	Tb	0.53138	0.75	0.25	2.092
Mof_H 	H 	0.1242	0.8632	0.4587	-0.02
Mof_H 	H 	0.1708	0.8854	0.5719	0.097
Mof_H 	H 	0.4722	0.7539	0.4416	-0.021
Mof_H 	H 	0.5132	0.7741	0.5551	0.103
Mof_H 	H 	0.3637	0.8403	0.6197	-0.018
Mof_H 	H 	0.9484	0.5623	0.3145	-0.005
Mof_H 	H 	0.1943	0.5616	0.5094	0.068
Mof_H 	H 	0.2626	0.6295	0.4173	0.01
Mof_H 	H 	0.874	0.4954	0.4067	0.068
Mof_H 	H 	0.1242	0.6368	0.0413	-0.019
Mof_H 	H 	0.1708	0.6146	0.9281	0.097
Mof_H 	H 	0.4722	0.7461	0.0584	-0.02
Mof_H 	H 	0.5132	0.7259	0.9449	0.102
Mof_H 	H 	0.3637	0.6597	0.8803	-0.017
Mof_H 	H 	0.9484	0.9377	0.1855	-0.003
Mof_H 	H 	0.1943	0.9384	0.9906	0.068
Mof_H 	H 	0.2626	0.8705	0.0827	0.011
Mof_H 	H 	0.874	0.0046	0.0933	0.062
Mof_H 	H 	0.3758	0.1368	0.9587	-0.02
Mof_H 	H 	0.3292	0.1146	0.0719	0.099
Mof_H 	H 	0.0278	0.2461	0.9416	-0.021
Mof_H 	H 	0.9868	0.2259	0.0551	0.103
Mof_H 	H 	0.1363	0.1597	0.1197	-0.019
Mof_H 	H 	0.5516	0.4377	0.8145	-0.005
Mof_H 	H 	0.3057	0.4384	0.0094	0.067
Mof_H 	H 	0.2374	0.3705	0.9173	0.011
Mof_H 	H 	0.626	0.5046	0.9067	0.067
Mof_H 	H 	0.3758	0.3632	0.5413	-0.018
Mof_H 	H 	0.3292	0.3854	0.4281	0.096
Mof_H 	H 	0.0278	0.2539	0.5584	-0.018
Mof_H 	H 	0.9868	0.2741	0.4449	0.099
Mof_H 	H 	0.1363	0.3403	0.3803	-0.016
Mof_H 	H 	0.5516	0.0623	0.6855	-0.006
Mof_H 	H 	0.3057	0.0616	0.4906	0.068
Mof_H 	H 	0.2374	0.1295	0.5827	0.011
Mof_H 	H 	0.626	0.9954	0.5933	0.069
Mof_H 	H 	0.8758	0.1368	0.5413	-0.02
Mof_H 	H 	0.8292	0.1146	0.4281	0.097
Mof_H 	H 	0.5278	0.2461	0.5584	-0.021
Mof_H 	H 	0.4868	0.2259	0.4449	0.103
Mof_H 	H 	0.6363	0.1597	0.3803	-0.018
Mof_H 	H 	0.0516	0.4377	0.6855	-0.005
Mof_H 	H 	0.8057	0.4384	0.4906	0.068
Mof_H 	H 	0.7374	0.3705	0.5827	0.01
Mof_H 	H 	0.126	0.5046	0.5933	0.068
Mof_H 	H 	0.8758	0.3632	0.9587	-0.019
Mof_H 	H 	0.8292	0.3854	0.0719	0.097
Mof_H 	H 	0.5278	0.2539	0.9416	-0.02
Mof_H 	H 	0.4868	0.2741	0.0551	0.102
Mof_H 	H 	0.6363	0.3403	0.1197	-0.017
Mof_H 	H 	0.0516	0.0623	0.8145	-0.003
Mof_H 	H 	0.8057	0.0616	0.0094	0.068
Mof_H 	H 	0.7374	0.1295	0.9173	0.011
Mof_H 	H 	0.126	0.9954	0.9067	0.062
Mof_H 	H 	0.6242	0.8632	0.0413	-0.02
Mof_H 	H 	0.6708	0.8854	0.9281	0.099
Mof_H 	H 	0.9722	0.7539	0.0584	-0.021
Mof_H 	H 	0.0132	0.7741	0.9449	0.103
Mof_H 	H 	0.8637	0.8403	0.8803	-0.019
Mof_H 	H 	0.4484	0.5623	0.1855	-0.005
Mof_H 	H 	0.6943	0.5616	0.9906	0.067
Mof_H 	H 	0.7626	0.6295	0.0827	0.011
Mof_H 	H 	0.374	0.4954	0.0933	0.067
Mof_H 	H 	0.6242	0.6368	0.4587	-0.018
Mof_H 	H 	0.6708	0.6146	0.5719	0.096
Mof_H 	H 	0.9722	0.7461	0.4416	-0.018
Mof_H 	H 	0.0132	0.7259	0.5551	0.099
Mof_H 	H 	0.8637	0.6597	0.6197	-0.016
Mof_H 	H 	0.4484	0.9377	0.3145	-0.006
Mof_H 	H 	0.6943	0.9384	0.5094	0.068
Mof_H 	H 	0.7626	0.8705	0.4173	0.011
Mof_H 	H 	0.374	0.0046	0.4067	0.069
Mof_C 	C 	0.272	0.7955	0.36341	0.554
Mof_C 	C 	0.2952	0.80712	0.43804	-0.246
Mof_C 	C 	0.2034	0.84591	0.47759	0.142
Mof_C 	C 	0.231	0.85855	0.54547	-0.207
Mof_C 	C 	0.4108	0.78033	0.46765	0.155
Mof_C 	C 	0.4356	0.79257	0.53558	-0.214
Mof_C 	C 	0.3463	0.83176	0.57407	0.127
Mof_C 	C 	0.9967	0.56318	0.35472	0.064
Mof_C 	C 	0.1418	0.56198	0.47062	-0.123
Mof_C 	C 	0.0242	0.52136	0.4701	0.051
Mof_C 	C 	0.183	0.60273	0.41548	0.059
Mof_C 	C 	0.9529	0.52255	0.4099	-0.122
Mof_C 	C 	0.272	0.7045	0.13659	0.554
Mof_C 	C 	0.2952	0.69288	0.06196	-0.244
Mof_C 	C 	0.2034	0.65409	0.02241	0.139
Mof_C 	C 	0.231	0.64145	0.95453	-0.204
Mof_C 	C 	0.4108	0.71967	0.03235	0.153
Mof_C 	C 	0.4356	0.70743	0.96442	-0.211
Mof_C 	C 	0.3463	0.66824	0.92593	0.124
Mof_C 	C 	0.9967	0.93682	0.14528	0.062
Mof_C 	C 	0.1418	0.93802	0.02938	-0.122
Mof_C 	C 	0.0242	0.97864	0.0299	0.045
Mof_C 	C 	0.183	0.89727	0.08452	0.057
Mof_C 	C 	0.9529	0.97745	0.0901	-0.11
Mof_C 	C 	0.228	0.2045	0.86341	0.555
Mof_C 	C 	0.2048	0.19288	0.93804	-0.247
Mof_C 	C 	0.2966	0.15409	0.97759	0.145
Mof_C 	C 	0.269	0.14145	0.04547	-0.21
Mof_C 	C 	0.0892	0.21967	0.96765	0.158
Mof_C 	C 	0.0644	0.20743	0.03558	-0.216
Mof_C 	C 	0.1537	0.16824	0.07407	0.129
Mof_C 	C 	0.5033	0.43682	0.85472	0.062
Mof_C 	C 	0.3582	0.43802	0.97062	-0.121
Mof_C 	C 	0.4758	0.47864	0.9701	0.051
Mof_C 	C 	0.317	0.39727	0.91548	0.058
Mof_C 	C 	0.5471	0.47745	0.9099	-0.122
Mof_C 	C 	0.228	0.2955	0.63659	0.553
Mof_C 	C 	0.2048	0.30712	0.56196	-0.242
Mof_C 	C 	0.2966	0.34591	0.52241	0.138
Mof_C 	C 	0.269	0.35855	0.45453	-0.202
Mof_C 	C 	0.0892	0.28033	0.53235	0.15
Mof_C 	C 	0.0644	0.29257	0.46442	-0.205
Mof_C 	C 	0.1537	0.33176	0.42593	0.12
Mof_C 	C 	0.5033	0.06318	0.64528	0.064
Mof_C 	C 	0.3582	0.06198	0.52938	-0.123
Mof_C 	C 	0.4758	0.02136	0.5299	0.052
Mof_C 	C 	0.317	0.10273	0.58452	0.059
Mof_C 	C 	0.5471	0.02255	0.5901	-0.124
Mof_C 	C 	0.728	0.2045	0.63659	0.554
Mof_C 	C 	0.7048	0.19288	0.56196	-0.246
Mof_C 	C 	0.7966	0.15409	0.52241	0.142
Mof_C 	C 	0.769	0.14145	0.45453	-0.207
Mof_C 	C 	0.5892	0.21967	0.53235	0.155
Mof_C 	C 	0.5644	0.20743	0.46442	-0.214
Mof_C 	C 	0.6537	0.16824	0.42593	0.127
Mof_C 	C 	0.0033	0.43682	0.64528	0.064
Mof_C 	C 	0.8582	0.43802	0.52938	-0.123
Mof_C 	C 	0.9758	0.47864	0.5299	0.051
Mof_C 	C 	0.817	0.39727	0.58452	0.059
Mof_C 	C 	0.0471	0.47745	0.5901	-0.122
Mof_C 	C 	0.728	0.2955	0.86341	0.554
Mof_C 	C 	0.7048	0.30712	0.93804	-0.244
Mof_C 	C 	0.7966	0.34591	0.97759	0.139
Mof_C 	C 	0.769	0.35855	0.04547	-0.204
Mof_C 	C 	0.5892	0.28033	0.96765	0.153
Mof_C 	C 	0.5644	0.29257	0.03558	-0.211
Mof_C 	C 	0.6537	0.33176	0.07407	0.124
Mof_C 	C 	0.0033	0.06318	0.85472	0.062
Mof_C 	C 	0.8582	0.06198	0.97062	-0.122
Mof_C 	C 	0.9758	0.02136	0.9701	0.045
Mof_C 	C 	0.817	0.10273	0.91548	0.057
Mof_C 	C 	0.0471	0.02255	0.9099	-0.11
Mof_C 	C 	0.772	0.7955	0.13659	0.555
Mof_C 	C 	0.7952	0.80712	0.06196	-0.247
Mof_C 	C 	0.7034	0.84591	0.02241	0.145
Mof_C 	C 	0.731	0.85855	0.95453	-0.21
Mof_C 	C 	0.9108	0.78033	0.03235	0.158
Mof_C 	C 	0.9356	0.79257	0.96442	-0.216
Mof_C 	C 	0.8463	0.83176	0.92593	0.129
Mof_C 	C 	0.4967	0.56318	0.14528	0.062
Mof_C 	C 	0.6418	0.56198	0.02938	-0.121
Mof_C 	C 	0.5242	0.52136	0.0299	0.051
Mof_C 	C 	0.683	0.60273	0.08452	0.058
Mof_C 	C 	0.4529	0.52255	0.0901	-0.122
Mof_C 	C 	0.772	0.7045	0.36341	0.553
Mof_C 	C 	0.7952	0.69288	0.43804	-0.242
Mof_C 	C 	0.7034	0.65409	0.47759	0.138
Mof_C 	C 	0.731	0.64145	0.54547	-0.202
Mof_C 	C 	0.9108	0.71967	0.46765	0.15
Mof_C 	C 	0.9356	0.70743	0.53558	-0.205
Mof_C 	C 	0.8463	0.66824	0.57407	0.12
Mof_C 	C 	0.4967	0.93682	0.35472	0.064
Mof_C 	C 	0.6418	0.93802	0.47062	-0.123
Mof_C 	C 	0.5242	0.97864	0.4701	0.052
Mof_C 	C 	0.683	0.89727	0.41548	0.059
Mof_C 	C 	0.4529	0.97745	0.4099	-0.124
Mof_N 	N 	0.10885	0.60402	0.35889	-0.075
Mof_N 	N 	0.10885	0.89598	0.14111	-0.076
Mof_N 	N 	0.39115	0.39598	0.85889	-0.074
Mof_N 	N 	0.39115	0.10402	0.64111	-0.075
Mof_N 	N 	0.89115	0.39598	0.64111	-0.075
Mof_N 	N 	0.89115	0.10402	0.85889	-0.076
Mof_N 	N 	0.60885	0.60402	0.14111	-0.074
Mof_N 	N 	0.60885	0.89598	0.35889	-0.075
Mof_O 	O 	0.37315	0.78027	0.32859	-0.602
Mof_O 	O 	0.15641	0.80171	0.3401	-0.558
Mof_O 	O 	0.14915	0.6446	0.30523	-0.334
Mof_O 	O 	0.37315	0.71973	0.17141	-0.602
Mof_O 	O 	0.15641	0.69829	0.1599	-0.558
Mof_O 	O 	0.14915	0.8554	0.19477	-0.335
Mof_O 	O 	0.12685	0.21973	0.82859	-0.6
Mof_O 	O 	0.34359	0.19829	0.8401	-0.558
Mof_O 	O 	0.35085	0.3554	0.80523	-0.334
Mof_O 	O 	0.12685	0.28027	0.67141	-0.6
Mof_O 	O 	0.34359	0.30171	0.6599	-0.558
Mof_O 	O 	0.35085	0.1446	0.69477	-0.334
Mof_O 	O 	0.62685	0.21973	0.67141	-0.602
Mof_O 	O 	0.84359	0.19829	0.6599	-0.558
Mof_O 	O 	0.85085	0.3554	0.69477	-0.334
Mof_O 	O 	0.62685	0.28027	0.82859	-0.602
Mof_O 	O 	0.84359	0.30171	0.8401	-0.558
Mof_O 	O 	0.85085	0.1446	0.80523	-0.335
Mof_O 	O 	0.87315	0.78027	0.17141	-0.6
Mof_O 	O 	0.65641	0.80171	0.1599	-0.558
Mof_O 	O 	0.64915	0.6446	0.19477	-0.334
Mof_O 	O 	0.87315	0.71973	0.32859	-0.6
Mof_O 	O 	0.65641	0.69829	0.3401	-0.558
Mof_O 	O 	0.64915	0.8554	0.30523	-0.334
_end
