# CIF file generated by openbabel 3.1.0, see https://openbabel.org
data_I
_chemical_name_common 'image0'
_cell_length_a 13.5329
_cell_length_b 13.5329
_cell_length_c 8.0816
_cell_angle_alpha 90
_cell_angle_beta 90
_cell_angle_gamma 120
_space_group_name_H-M_alt 'P 1'
_space_group_name_Hall 'P 1'
loop_
    _symmetry_equiv_pos_as_xyz
    x,y,z
loop_
    _atom_site_label
    _atom_site_type_symbol
    _atom_site_fract_x
    _atom_site_fract_y
    _atom_site_fract_z
    _atom_site_occupancy
    Mn1      Mn       0.30086    0.33799    0.54514    1.000
    O1       O        0.22937    0.18133    0.40590    1.000
    C1       C        0.53474    0.32295    0.54790    1.000
    C2       C        0.35360    0.55970    0.77670    1.000
    O2       O        0.24559    0.05855    0.24630    1.000
    C3       C        0.26710    0.15810    0.28000    1.000
    N1       N        0.34670    0.20900    0.00070    1.000
    H1       H        0.41110    0.25700    0.94600    1.000
    H2       H        0.28650    0.19910    0.94050    1.000
    C4       C        0.34550    0.25520    0.16380    1.000
    H3       H        0.42290    0.28740    0.20840    1.000
    N2       N        0.36580    0.42797    0.30390    1.000
    H4       H        0.34820    0.48380    0.29620    1.000
    H5       H        0.44240    0.46110    0.30290    1.000
    C5       C        0.31960    0.35310    0.15740    1.000
    H6       H        0.35290    0.39770    0.05790    1.000
    H7       H        0.23770    0.32200    0.15230    1.000
    N3       N        0.45560    0.32180    0.60250    1.000
    N4       N        0.36740    0.49980    0.69220    1.000
    Mn2      Mn       0.66201    0.96287    0.54514    1.000
    O3       O        0.81867    0.04804    0.40590    1.000
    C6       C        0.67705    0.21179    0.54790    1.000
    C7       C        0.44030    0.79390    0.77670    1.000
    O4       O        0.94145    0.18704    0.24630    1.000
    C8       C        0.84190    0.10900    0.28000    1.000
    N5       N        0.79100    0.13770    0.00070    1.000
    H8       H        0.74300    0.15410    0.94600    1.000
    H9       H        0.80090    0.08740    0.94050    1.000
    C9       C        0.74480    0.09030    0.16380    1.000
    H10      H        0.71260    0.13550    0.20840    1.000
    N6       N        0.57203    0.93783    0.30390    1.000
    H11      H        0.51620    0.86440    0.29620    1.000
    H12      H        0.53890    0.98130    0.30290    1.000
    C10      C        0.64690    0.96650    0.15740    1.000
    H13      H        0.60230    0.95520    0.05790    1.000
    H14      H        0.67800    0.91570    0.15230    1.000
    N7       N        0.67820    0.13380    0.60250    1.000
    N8       N        0.50020    0.86760    0.69220    1.000
    Mn3      Mn       0.03713    0.69914    0.54514    1.000
    O5       O        0.95196    0.77063    0.40590    1.000
    C11      C        0.78821    0.46526    0.54790    1.000
    C12      C        0.20610    0.64640    0.77670    1.000
    O6       O        0.81296    0.75441    0.24630    1.000
    C13      C        0.89100    0.73290    0.28000    1.000
    N9       N        0.86230    0.65330    0.00070    1.000
    H15      H        0.84590    0.58890    0.94600    1.000
    H16      H        0.91260    0.71350    0.94050    1.000
    C14      C        0.90970    0.65450    0.16380    1.000
    H17      H        0.86450    0.57710    0.20840    1.000
    N10      N        0.06217    0.63420    0.30390    1.000
    H18      H        0.13560    0.65180    0.29620    1.000
    H19      H        0.01870    0.55760    0.30290    1.000
    C15      C        0.03350    0.68040    0.15740    1.000
    H20      H        0.04480    0.64710    0.05790    1.000
    H21      H        0.08430    0.76230    0.15230    1.000
    N11      N        0.86620    0.54440    0.60250    1.000
    N12      N        0.13240    0.63260    0.69220    1.000
    Mn4      Mn       0.69914    0.66201    0.04514    1.000
    O7       O        0.77063    0.81867    0.90590    1.000
    C16      C        0.46526    0.67705    0.04790    1.000
    C17      C        0.64640    0.44030    0.27670    1.000
    O8       O        0.75441    0.94145    0.74630    1.000
    C18      C        0.73290    0.84190    0.78000    1.000
    N13      N        0.65330    0.79100    0.50070    1.000
    H22      H        0.58890    0.74300    0.44600    1.000
    H23      H        0.71350    0.80090    0.44050    1.000
    C19      C        0.65450    0.74480    0.66380    1.000
    H24      H        0.57710    0.71260    0.70840    1.000
    N14      N        0.63420    0.57203    0.80390    1.000
    H25      H        0.65180    0.51620    0.79620    1.000
    H26      H        0.55760    0.53890    0.80290    1.000
    C20      C        0.68040    0.64690    0.65740    1.000
    H27      H        0.64710    0.60230    0.55790    1.000
    H28      H        0.76230    0.67800    0.65230    1.000
    N15      N        0.54440    0.67820    0.10250    1.000
    N16      N        0.63260    0.50020    0.19220    1.000
    Mn5      Mn       0.33799    0.03713    0.04514    1.000
    O9       O        0.18133    0.95196    0.90590    1.000
    C21      C        0.32295    0.78821    0.04790    1.000
    C22      C        0.55970    0.20610    0.27670    1.000
    O10      O        0.05855    0.81296    0.74630    1.000
    C23      C        0.15810    0.89100    0.78000    1.000
    N17      N        0.20900    0.86230    0.50070    1.000
    H29      H        0.25700    0.84590    0.44600    1.000
    H30      H        0.19910    0.91260    0.44050    1.000
    C24      C        0.25520    0.90970    0.66380    1.000
    H31      H        0.28740    0.86450    0.70840    1.000
    N18      N        0.42797    0.06217    0.80390    1.000
    H32      H        0.48380    0.13560    0.79620    1.000
    H33      H        0.46110    0.01870    0.80290    1.000
    C25      C        0.35310    0.03350    0.65740    1.000
    H34      H        0.39770    0.04480    0.55790    1.000
    H35      H        0.32200    0.08430    0.65230    1.000
    N19      N        0.32180    0.86620    0.10250    1.000
    N20      N        0.49980    0.13240    0.19220    1.000
    Mn6      Mn       0.96287    0.30086    0.04514    1.000
    O11      O        0.04804    0.22937    0.90590    1.000
    C26      C        0.21179    0.53474    0.04790    1.000
    C27      C        0.79390    0.35360    0.27670    1.000
    O12      O        0.18704    0.24559    0.74630    1.000
    C28      C        0.10900    0.26710    0.78000    1.000
    N21      N        0.13770    0.34670    0.50070    1.000
    H36      H        0.15410    0.41110    0.44600    1.000
    H37      H        0.08740    0.28650    0.44050    1.000
    C29      C        0.09030    0.34550    0.66380    1.000
    H38      H        0.13550    0.42290    0.70840    1.000
    N22      N        0.93783    0.36580    0.80390    1.000
    H39      H        0.86440    0.34820    0.79620    1.000
    H40      H        0.98130    0.44240    0.80290    1.000
    C30      C        0.96650    0.31960    0.65740    1.000
    H41      H        0.95520    0.35290    0.55790    1.000
    H42      H        0.91570    0.23770    0.65230    1.000
    N23      N        0.13380    0.45560    0.10250    1.000
    N24      N        0.86760    0.36740    0.19220    1.000
    Mn7      Mn       0.33333    0.66667    0.92237    1.000
    Mn8      Mn       0.66667    0.33333    0.42237    1.000
