# CIF file generated by openbabel 3.1.0, see https://openbabel.org
data_I
_chemical_name_common 'CUMDIY_clean'
_cell_length_a 5.763
_cell_length_b 10.213
_cell_length_c 11.649
_cell_angle_alpha 84.242
_cell_angle_beta 89.051
_cell_angle_gamma 82.876
_space_group_name_H-M_alt 'P 1'
_space_group_name_Hall 'P 1'
loop_
    _symmetry_equiv_pos_as_xyz
    x,y,z
loop_
    _atom_site_label
    _atom_site_type_symbol
    _atom_site_fract_x
    _atom_site_fract_y
    _atom_site_fract_z
    _atom_site_occupancy
    La1      La       0.21771    0.14523    0.47195    1.000
    La2      La       0.78229    0.85477    0.52805    1.000
    P1       P        0.72080    0.17009    0.66127    1.000
    P2       P        0.67020    0.16013    0.30946    1.000
    P3       P        0.27920    0.82991    0.33873    1.000
    P4       P        0.32980    0.83987    0.69054    1.000
    H1       H        0.51150    0.98280    0.15970    1.000
    H2       H        0.02330    0.27220    0.72760    1.000
    H3       H        0.79440    0.37220    0.71810    1.000
    H4       H        0.67920    0.39000    0.47900    1.000
    H5       H        0.69490    0.51030    0.55110    1.000
    H6       H        0.04670    0.53050    0.65330    1.000
    H7       H        0.26710    0.42440    0.64640    1.000
    H8       H        0.90520    0.03230    0.19020    1.000
    H9       H        0.81450    0.16850    0.12310    1.000
    H10      H        0.82560    0.98430    0.97940    1.000
    H11      H        0.82820    0.86890    0.07920    1.000
    H12      H        0.35140    0.19010    0.08550    1.000
    H13      H        0.53270    0.18340    0.98350    1.000
    H14      H        0.48850    0.01720    0.84030    1.000
    H15      H        0.97670    0.72780    0.27240    1.000
    H16      H        0.20560    0.62780    0.28190    1.000
    H17      H        0.32080    0.61000    0.52100    1.000
    H18      H        0.30510    0.48970    0.44890    1.000
    H19      H        0.95330    0.46950    0.34670    1.000
    H20      H        0.73290    0.57560    0.35360    1.000
    H21      H        0.09480    0.96770    0.80980    1.000
    H22      H        0.18550    0.83150    0.87690    1.000
    H23      H        0.17440    0.01570    0.02060    1.000
    H24      H        0.17180    0.13110    0.92080    1.000
    H25      H        0.64860    0.80990    0.91450    1.000
    H26      H        0.46730    0.81660    0.01650    1.000
    C1       C        0.89080    0.30610    0.67830    1.000
    C2       C        0.78320    0.45020    0.50240    1.000
    C3       C        0.13340    0.47080    0.60370    1.000
    C4       C        0.76680    0.09550    0.17410    1.000
    C5       C        0.72750    0.93610    0.03250    1.000
    C6       C        0.44030    0.13100    0.03620    1.000
    C7       C        0.10920    0.69390    0.32170    1.000
    C8       C        0.21680    0.54980    0.49760    1.000
    C9       C        0.86660    0.52920    0.39630    1.000
    C10      C        0.23320    0.90450    0.82590    1.000
    C11      C        0.27250    0.06390    0.96750    1.000
    C12      C        0.55970    0.86900    0.96380    1.000
    N1       N        0.97970    0.37250    0.57000    1.000
    N2       N        0.59930    0.02900    0.10850    1.000
    N3       N        0.02030    0.62750    0.43000    1.000
    N4       N        0.40070    0.97100    0.89150    1.000
    O1       O        0.49590    0.22250    0.59710    1.000
    O2       O        0.88370    0.07290    0.59330    1.000
    O3       O        0.68600    0.10970    0.78510    1.000
    O4       O        0.88710    0.21860    0.34240    1.000
    O5       O        0.44470    0.25780    0.29840    1.000
    O6       O        0.60740    0.04180    0.39170    1.000
    O7       O        0.50410    0.77750    0.40290    1.000
    O8       O        0.11630    0.92710    0.40670    1.000
    O9       O        0.31400    0.89030    0.21490    1.000
    O10      O        0.11290    0.78140    0.65760    1.000
    O11      O        0.55530    0.74220    0.70160    1.000
    O12      O        0.39260    0.95820    0.60830    1.000
