# CIF file generated by openbabel 3.1.0, see https://openbabel.org
data_I
_chemical_name_common 'image0'
_cell_length_a 25.807
_cell_length_b 29.405
_cell_length_c 19.637
_cell_angle_alpha 90
_cell_angle_beta 90
_cell_angle_gamma 90
_space_group_name_H-M_alt 'P 1'
_space_group_name_Hall 'P 1'
loop_
    _symmetry_equiv_pos_as_xyz
    x,y,z
loop_
    _atom_site_label
    _atom_site_type_symbol
    _atom_site_fract_x
    _atom_site_fract_y
    _atom_site_fract_z
    _atom_site_occupancy
    Zn1      Zn       0.82821    0.45123    0.33573    1.000
    Zn2      Zn       0.68566    0.43537    0.08614    1.000
    Zn3      Zn       0.74542    0.50338    0.96705    1.000
    C1       C        0.89670    0.65180    0.19770    1.000
    C2       C        0.81780    0.54900    0.36950    1.000
    C3       C        0.85670    0.60290    0.28910    1.000
    H1       H        0.85520    0.57950    0.25720    1.000
    C4       C        0.83840    0.59580    0.35390    1.000
    C5       C        0.83780    0.63060    0.40150    1.000
    C6       C        0.81930    0.62420    0.47390    1.000
    C7       C        0.86910    0.41200    0.13880    1.000
    C8       C        0.85420    0.44190    0.19890    1.000
    C9       C        0.90280    0.35590    0.03220    1.000
    C10      C        0.90850    0.37900    0.14940    1.000
    H2       H        0.92330    0.37590    0.19240    1.000
    C11      C        0.86490    0.38860    0.02240    1.000
    H3       H        0.85120    0.39250    0.97900    1.000
    C12      C        0.84660    0.41580    0.07540    1.000
    C13      C        0.91660    0.32660    0.97250    1.000
    C14      C        0.85850    0.67230    0.38360    1.000
    H4       H        0.85810    0.69620    0.41450    1.000
    C15      C        0.87770    0.64560    0.27090    1.000
    C16      C        0.87980    0.67840    0.31950    1.000
    C17      C        0.79870    0.44390    0.06020    1.000
    C18      C        0.92500    0.35140    0.09650    1.000
    C19      C        0.96800    0.31910    0.11310    1.000
    C20      C        0.91350    0.71930    0.30460    1.000
    O1       O        0.76050    0.43520    0.09700    1.000
    O2       O        0.80140    0.47000    0.01250    1.000
    O3       O        0.92660    0.28590    0.98220    1.000
    O4       O        0.91470    0.34700    0.91620    1.000
    O5       O        0.84160    0.59320    0.50640    1.000
    O6       O        0.78390    0.64850    0.49550    1.000
    O7       O        0.78060    0.54550    0.41080    1.000
    O8       O        0.83910    0.51600    0.33920    1.000
    O9       O        0.89390    0.68780    0.17310    1.000
    O10      O        0.86090    0.42490    0.25670    1.000
    O11      O        0.00730    0.32080    0.07380    1.000
    O12      O        0.96320    0.29530    0.16370    1.000
    O13      O        0.90390    0.75340    0.32660    1.000
    O14      O        0.95410    0.71340    0.26950    1.000
    O15      O        0.83860    0.48060    0.18630    1.000
    O16      O        0.91460    0.62040    0.16790    1.000
    Zn4      Zn       0.82821    0.95123    0.83573    1.000
    Zn5      Zn       0.68566    0.93537    0.58614    1.000
    Zn6      Zn       0.74542    0.00338    0.46705    1.000
    C21      C        0.89670    0.15180    0.69770    1.000
    C22      C        0.81780    0.04900    0.86950    1.000
    C23      C        0.85670    0.10290    0.78910    1.000
    H5       H        0.85520    0.07950    0.75720    1.000
    C24      C        0.83840    0.09580    0.85390    1.000
    C25      C        0.83780    0.13060    0.90150    1.000
    C26      C        0.81930    0.12420    0.97390    1.000
    C27      C        0.86910    0.91200    0.63880    1.000
    C28      C        0.85420    0.94190    0.69890    1.000
    C29      C        0.90280    0.85590    0.53220    1.000
    C30      C        0.90850    0.87900    0.64940    1.000
    H6       H        0.92330    0.87590    0.69240    1.000
    C31      C        0.86490    0.88860    0.52240    1.000
    H7       H        0.85120    0.89250    0.47900    1.000
    C32      C        0.84660    0.91580    0.57540    1.000
    C33      C        0.91660    0.82660    0.47250    1.000
    C34      C        0.85850    0.17230    0.88360    1.000
    H8       H        0.85810    0.19620    0.91450    1.000
    C35      C        0.87770    0.14560    0.77090    1.000
    C36      C        0.87980    0.17840    0.81950    1.000
    C37      C        0.79870    0.94390    0.56020    1.000
    C38      C        0.92500    0.85140    0.59650    1.000
    C39      C        0.96800    0.81910    0.61310    1.000
    C40      C        0.91350    0.21930    0.80460    1.000
    O17      O        0.76050    0.93520    0.59700    1.000
    O18      O        0.80140    0.97000    0.51250    1.000
    O19      O        0.92660    0.78590    0.48220    1.000
    O20      O        0.91470    0.84700    0.41620    1.000
    O21      O        0.84160    0.09320    0.00640    1.000
    O22      O        0.78390    0.14850    0.99550    1.000
    O23      O        0.78060    0.04550    0.91080    1.000
    O24      O        0.83910    0.01600    0.83920    1.000
    O25      O        0.89390    0.18780    0.67310    1.000
    O26      O        0.86090    0.92490    0.75670    1.000
    O27      O        0.00730    0.82080    0.57380    1.000
    O28      O        0.96320    0.79530    0.66370    1.000
    O29      O        0.90390    0.25340    0.82660    1.000
    O30      O        0.95410    0.21340    0.76950    1.000
    O31      O        0.83860    0.98060    0.68630    1.000
    O32      O        0.91460    0.12040    0.66790    1.000
    Zn7      Zn       0.32821    0.45123    0.83573    1.000
    Zn8      Zn       0.18566    0.43537    0.58614    1.000
    Zn9      Zn       0.24542    0.50338    0.46705    1.000
    C41      C        0.39670    0.65180    0.69770    1.000
    C42      C        0.31780    0.54900    0.86950    1.000
    C43      C        0.35670    0.60290    0.78910    1.000
    H9       H        0.35520    0.57950    0.75720    1.000
    C44      C        0.33840    0.59580    0.85390    1.000
    C45      C        0.33780    0.63060    0.90150    1.000
    C46      C        0.31930    0.62420    0.97390    1.000
    C47      C        0.36910    0.41200    0.63880    1.000
    C48      C        0.35420    0.44190    0.69890    1.000
    C49      C        0.40280    0.35590    0.53220    1.000
    C50      C        0.40850    0.37900    0.64940    1.000
    H10      H        0.42330    0.37590    0.69240    1.000
    C51      C        0.36490    0.38860    0.52240    1.000
    H11      H        0.35120    0.39250    0.47900    1.000
    C52      C        0.34660    0.41580    0.57540    1.000
    C53      C        0.41660    0.32660    0.47250    1.000
    C54      C        0.35850    0.67230    0.88360    1.000
    H12      H        0.35810    0.69620    0.91450    1.000
    C55      C        0.37770    0.64560    0.77090    1.000
    C56      C        0.37980    0.67840    0.81950    1.000
    C57      C        0.29870    0.44390    0.56020    1.000
    C58      C        0.42500    0.35140    0.59650    1.000
    C59      C        0.46800    0.31910    0.61310    1.000
    C60      C        0.41350    0.71930    0.80460    1.000
    O33      O        0.26050    0.43520    0.59700    1.000
    O34      O        0.30140    0.47000    0.51250    1.000
    O35      O        0.42660    0.28590    0.48220    1.000
    O36      O        0.41470    0.34700    0.41620    1.000
    O37      O        0.34160    0.59320    0.00640    1.000
    O38      O        0.28390    0.64850    0.99550    1.000
    O39      O        0.28060    0.54550    0.91080    1.000
    O40      O        0.33910    0.51600    0.83920    1.000
    O41      O        0.39390    0.68780    0.67310    1.000
    O42      O        0.36090    0.42490    0.75670    1.000
    O43      O        0.50730    0.32080    0.57380    1.000
    O44      O        0.46320    0.29530    0.66370    1.000
    O45      O        0.40390    0.75340    0.82660    1.000
    O46      O        0.45410    0.71340    0.76950    1.000
    O47      O        0.33860    0.48060    0.68630    1.000
    O48      O        0.41460    0.62040    0.66790    1.000
    Zn10     Zn       0.32821    0.95123    0.33573    1.000
    Zn11     Zn       0.18566    0.93537    0.08614    1.000
    Zn12     Zn       0.24542    0.00338    0.96705    1.000
    C61      C        0.39670    0.15180    0.19770    1.000
    C62      C        0.31780    0.04900    0.36950    1.000
    C63      C        0.35670    0.10290    0.28910    1.000
    H13      H        0.35520    0.07950    0.25720    1.000
    C64      C        0.33840    0.09580    0.35390    1.000
    C65      C        0.33780    0.13060    0.40150    1.000
    C66      C        0.31930    0.12420    0.47390    1.000
    C67      C        0.36910    0.91200    0.13880    1.000
    C68      C        0.35420    0.94190    0.19890    1.000
    C69      C        0.40280    0.85590    0.03220    1.000
    C70      C        0.40850    0.87900    0.14940    1.000
    H14      H        0.42330    0.87590    0.19240    1.000
    C71      C        0.36490    0.88860    0.02240    1.000
    H15      H        0.35120    0.89250    0.97900    1.000
    C72      C        0.34660    0.91580    0.07540    1.000
    C73      C        0.41660    0.82660    0.97250    1.000
    C74      C        0.35850    0.17230    0.38360    1.000
    H16      H        0.35810    0.19620    0.41450    1.000
    C75      C        0.37770    0.14560    0.27090    1.000
    C76      C        0.37980    0.17840    0.31950    1.000
    C77      C        0.29870    0.94390    0.06020    1.000
    C78      C        0.42500    0.85140    0.09650    1.000
    C79      C        0.46800    0.81910    0.11310    1.000
    C80      C        0.41350    0.21930    0.30460    1.000
    O49      O        0.26050    0.93520    0.09700    1.000
    O50      O        0.30140    0.97000    0.01250    1.000
    O51      O        0.42660    0.78590    0.98220    1.000
    O52      O        0.41470    0.84700    0.91620    1.000
    O53      O        0.34160    0.09320    0.50640    1.000
    O54      O        0.28390    0.14850    0.49550    1.000
    O55      O        0.28060    0.04550    0.41080    1.000
    O56      O        0.33910    0.01600    0.33920    1.000
    O57      O        0.39390    0.18780    0.17310    1.000
    O58      O        0.36090    0.92490    0.25670    1.000
    O59      O        0.50730    0.82080    0.07380    1.000
    O60      O        0.46320    0.79530    0.16370    1.000
    O61      O        0.40390    0.25340    0.32660    1.000
    O62      O        0.45410    0.21340    0.26950    1.000
    O63      O        0.33860    0.98060    0.18630    1.000
    O64      O        0.41460    0.12040    0.16790    1.000
    Zn13     Zn       0.17179    0.54877    0.33573    1.000
    Zn14     Zn       0.31434    0.56463    0.08614    1.000
    Zn15     Zn       0.25458    0.49662    0.96705    1.000
    C81      C        0.10330    0.34820    0.19770    1.000
    C82      C        0.18220    0.45100    0.36950    1.000
    C83      C        0.14330    0.39710    0.28910    1.000
    H17      H        0.14480    0.42050    0.25720    1.000
    C84      C        0.16160    0.40420    0.35390    1.000
    C85      C        0.16220    0.36940    0.40150    1.000
    C86      C        0.18070    0.37580    0.47390    1.000
    C87      C        0.13090    0.58800    0.13880    1.000
    C88      C        0.14580    0.55810    0.19890    1.000
    C89      C        0.09720    0.64410    0.03220    1.000
    C90      C        0.09150    0.62100    0.14940    1.000
    H18      H        0.07670    0.62410    0.19240    1.000
    C91      C        0.13510    0.61140    0.02240    1.000
    H19      H        0.14880    0.60750    0.97900    1.000
    C92      C        0.15340    0.58420    0.07540    1.000
    C93      C        0.08340    0.67340    0.97250    1.000
    C94      C        0.14150    0.32770    0.38360    1.000
    H20      H        0.14190    0.30380    0.41450    1.000
    C95      C        0.12230    0.35440    0.27090    1.000
    C96      C        0.12020    0.32160    0.31950    1.000
    C97      C        0.20130    0.55610    0.06020    1.000
    C98      C        0.07500    0.64860    0.09650    1.000
    C99      C        0.03200    0.68090    0.11310    1.000
    C100     C        0.08650    0.28070    0.30460    1.000
    O65      O        0.23950    0.56480    0.09700    1.000
    O66      O        0.19860    0.53000    0.01250    1.000
    O67      O        0.07340    0.71410    0.98220    1.000
    O68      O        0.08530    0.65300    0.91620    1.000
    O69      O        0.15840    0.40680    0.50640    1.000
    O70      O        0.21610    0.35150    0.49550    1.000
    O71      O        0.21940    0.45450    0.41080    1.000
    O72      O        0.16090    0.48400    0.33920    1.000
    O73      O        0.10610    0.31220    0.17310    1.000
    O74      O        0.13910    0.57510    0.25670    1.000
    O75      O        0.99270    0.67920    0.07380    1.000
    O76      O        0.03680    0.70470    0.16370    1.000
    O77      O        0.09610    0.24660    0.32660    1.000
    O78      O        0.04590    0.28660    0.26950    1.000
    O79      O        0.16140    0.51940    0.18630    1.000
    O80      O        0.08540    0.37960    0.16790    1.000
    Zn16     Zn       0.17179    0.04877    0.83573    1.000
    Zn17     Zn       0.31434    0.06463    0.58614    1.000
    Zn18     Zn       0.25458    0.99662    0.46705    1.000
    C101     C        0.10330    0.84820    0.69770    1.000
    C102     C        0.18220    0.95100    0.86950    1.000
    C103     C        0.14330    0.89710    0.78910    1.000
    H21      H        0.14480    0.92050    0.75720    1.000
    C104     C        0.16160    0.90420    0.85390    1.000
    C105     C        0.16220    0.86940    0.90150    1.000
    C106     C        0.18070    0.87580    0.97390    1.000
    C107     C        0.13090    0.08800    0.63880    1.000
    C108     C        0.14580    0.05810    0.69890    1.000
    C109     C        0.09720    0.14410    0.53220    1.000
    C110     C        0.09150    0.12100    0.64940    1.000
    H22      H        0.07670    0.12410    0.69240    1.000
    C111     C        0.13510    0.11140    0.52240    1.000
    H23      H        0.14880    0.10750    0.47900    1.000
    C112     C        0.15340    0.08420    0.57540    1.000
    C113     C        0.08340    0.17340    0.47250    1.000
    C114     C        0.14150    0.82770    0.88360    1.000
    H24      H        0.14190    0.80380    0.91450    1.000
    C115     C        0.12230    0.85440    0.77090    1.000
    C116     C        0.12020    0.82160    0.81950    1.000
    C117     C        0.20130    0.05610    0.56020    1.000
    C118     C        0.07500    0.14860    0.59650    1.000
    C119     C        0.03200    0.18090    0.61310    1.000
    C120     C        0.08650    0.78070    0.80460    1.000
    O81      O        0.23950    0.06480    0.59700    1.000
    O82      O        0.19860    0.03000    0.51250    1.000
    O83      O        0.07340    0.21410    0.48220    1.000
    O84      O        0.08530    0.15300    0.41620    1.000
    O85      O        0.15840    0.90680    0.00640    1.000
    O86      O        0.21610    0.85150    0.99550    1.000
    O87      O        0.21940    0.95450    0.91080    1.000
    O88      O        0.16090    0.98400    0.83920    1.000
    O89      O        0.10610    0.81220    0.67310    1.000
    O90      O        0.13910    0.07510    0.75670    1.000
    O91      O        0.99270    0.17920    0.57380    1.000
    O92      O        0.03680    0.20470    0.66370    1.000
    O93      O        0.09610    0.74660    0.82660    1.000
    O94      O        0.04590    0.78660    0.76950    1.000
    O95      O        0.16140    0.01940    0.68630    1.000
    O96      O        0.08540    0.87960    0.66790    1.000
    Zn19     Zn       0.67179    0.54877    0.83573    1.000
    Zn20     Zn       0.81434    0.56463    0.58614    1.000
    Zn21     Zn       0.75458    0.49662    0.46705    1.000
    C121     C        0.60330    0.34820    0.69770    1.000
    C122     C        0.68220    0.45100    0.86950    1.000
    C123     C        0.64330    0.39710    0.78910    1.000
    H25      H        0.64480    0.42050    0.75720    1.000
    C124     C        0.66160    0.40420    0.85390    1.000
    C125     C        0.66220    0.36940    0.90150    1.000
    C126     C        0.68070    0.37580    0.97390    1.000
    C127     C        0.63090    0.58800    0.63880    1.000
    C128     C        0.64580    0.55810    0.69890    1.000
    C129     C        0.59720    0.64410    0.53220    1.000
    C130     C        0.59150    0.62100    0.64940    1.000
    H26      H        0.57670    0.62410    0.69240    1.000
    C131     C        0.63510    0.61140    0.52240    1.000
    H27      H        0.64880    0.60750    0.47900    1.000
    C132     C        0.65340    0.58420    0.57540    1.000
    C133     C        0.58340    0.67340    0.47250    1.000
    C134     C        0.64150    0.32770    0.88360    1.000
    H28      H        0.64190    0.30380    0.91450    1.000
    C135     C        0.62230    0.35440    0.77090    1.000
    C136     C        0.62020    0.32160    0.81950    1.000
    C137     C        0.70130    0.55610    0.56020    1.000
    C138     C        0.57500    0.64860    0.59650    1.000
    C139     C        0.53200    0.68090    0.61310    1.000
    C140     C        0.58650    0.28070    0.80460    1.000
    O97      O        0.73950    0.56480    0.59700    1.000
    O98      O        0.69860    0.53000    0.51250    1.000
    O99      O        0.57340    0.71410    0.48220    1.000
    O100     O        0.58530    0.65300    0.41620    1.000
    O101     O        0.65840    0.40680    0.00640    1.000
    O102     O        0.71610    0.35150    0.99550    1.000
    O103     O        0.71940    0.45450    0.91080    1.000
    O104     O        0.66090    0.48400    0.83920    1.000
    O105     O        0.60610    0.31220    0.67310    1.000
    O106     O        0.63910    0.57510    0.75670    1.000
    O107     O        0.49270    0.67920    0.57380    1.000
    O108     O        0.53680    0.70470    0.66370    1.000
    O109     O        0.59610    0.24660    0.82660    1.000
    O110     O        0.54590    0.28660    0.76950    1.000
    O111     O        0.66140    0.51940    0.68630    1.000
    O112     O        0.58540    0.37960    0.66790    1.000
    Zn22     Zn       0.67179    0.04877    0.33573    1.000
    Zn23     Zn       0.81434    0.06463    0.08614    1.000
    Zn24     Zn       0.75458    0.99662    0.96705    1.000
    C141     C        0.60330    0.84820    0.19770    1.000
    C142     C        0.68220    0.95100    0.36950    1.000
    C143     C        0.64330    0.89710    0.28910    1.000
    H29      H        0.64480    0.92050    0.25720    1.000
    C144     C        0.66160    0.90420    0.35390    1.000
    C145     C        0.66220    0.86940    0.40150    1.000
    C146     C        0.68070    0.87580    0.47390    1.000
    C147     C        0.63090    0.08800    0.13880    1.000
    C148     C        0.64580    0.05810    0.19890    1.000
    C149     C        0.59720    0.14410    0.03220    1.000
    C150     C        0.59150    0.12100    0.14940    1.000
    H30      H        0.57670    0.12410    0.19240    1.000
    C151     C        0.63510    0.11140    0.02240    1.000
    H31      H        0.64880    0.10750    0.97900    1.000
    C152     C        0.65340    0.08420    0.07540    1.000
    C153     C        0.58340    0.17340    0.97250    1.000
    C154     C        0.64150    0.82770    0.38360    1.000
    H32      H        0.64190    0.80380    0.41450    1.000
    C155     C        0.62230    0.85440    0.27090    1.000
    C156     C        0.62020    0.82160    0.31950    1.000
    C157     C        0.70130    0.05610    0.06020    1.000
    C158     C        0.57500    0.14860    0.09650    1.000
    C159     C        0.53200    0.18090    0.11310    1.000
    C160     C        0.58650    0.78070    0.30460    1.000
    O113     O        0.73950    0.06480    0.09700    1.000
    O114     O        0.69860    0.03000    0.01250    1.000
    O115     O        0.57340    0.21410    0.98220    1.000
    O116     O        0.58530    0.15300    0.91620    1.000
    O117     O        0.65840    0.90680    0.50640    1.000
    O118     O        0.71610    0.85150    0.49550    1.000
    O119     O        0.71940    0.95450    0.41080    1.000
    O120     O        0.66090    0.98400    0.33920    1.000
    O121     O        0.60610    0.81220    0.17310    1.000
    O122     O        0.63910    0.07510    0.25670    1.000
    O123     O        0.49270    0.17920    0.07380    1.000
    O124     O        0.53680    0.20470    0.16370    1.000
    O125     O        0.59610    0.74660    0.32660    1.000
    O126     O        0.54590    0.78660    0.26950    1.000
    O127     O        0.66140    0.01940    0.18630    1.000
    O128     O        0.58540    0.87960    0.16790    1.000
    Zn25     Zn       0.07821    0.79877    0.58573    1.000
    Zn26     Zn       0.93566    0.81463    0.33614    1.000
    Zn27     Zn       0.99542    0.74662    0.21705    1.000
    C161     C        0.14670    0.59820    0.44770    1.000
    C162     C        0.06780    0.70100    0.61950    1.000
    C163     C        0.10670    0.64710    0.53910    1.000
    H33      H        0.10520    0.67050    0.50720    1.000
    C164     C        0.08840    0.65420    0.60390    1.000
    C165     C        0.08780    0.61940    0.65150    1.000
    C166     C        0.06930    0.62580    0.72390    1.000
    C167     C        0.11910    0.83800    0.38880    1.000
    C168     C        0.10420    0.80810    0.44890    1.000
    C169     C        0.15280    0.89410    0.28220    1.000
    C170     C        0.15850    0.87100    0.39940    1.000
    H34      H        0.17330    0.87410    0.44240    1.000
    C171     C        0.11490    0.86140    0.27240    1.000
    H35      H        0.10120    0.85750    0.22900    1.000
    C172     C        0.09660    0.83420    0.32540    1.000
    C173     C        0.16660    0.92340    0.22250    1.000
    C174     C        0.10850    0.57770    0.63360    1.000
    H36      H        0.10810    0.55380    0.66450    1.000
    C175     C        0.12770    0.60440    0.52090    1.000
    C176     C        0.12980    0.57160    0.56950    1.000
    C177     C        0.04870    0.80610    0.31020    1.000
    C178     C        0.17500    0.89860    0.34650    1.000
    C179     C        0.21800    0.93090    0.36310    1.000
    C180     C        0.16350    0.53070    0.55460    1.000
    O129     O        0.01050    0.81480    0.34700    1.000
    O130     O        0.05140    0.78000    0.26250    1.000
    O131     O        0.17660    0.96410    0.23220    1.000
    O132     O        0.16470    0.90300    0.16620    1.000
    O133     O        0.09160    0.65680    0.75640    1.000
    O134     O        0.03390    0.60150    0.74550    1.000
    O135     O        0.03060    0.70450    0.66080    1.000
    O136     O        0.08910    0.73400    0.58920    1.000
    O137     O        0.14390    0.56220    0.42310    1.000
    O138     O        0.11090    0.82510    0.50670    1.000
    O139     O        0.25730    0.92920    0.32380    1.000
    O140     O        0.21320    0.95470    0.41370    1.000
    O141     O        0.15390    0.49660    0.57660    1.000
    O142     O        0.20410    0.53660    0.51950    1.000
    O143     O        0.08860    0.76940    0.43630    1.000
    O144     O        0.16460    0.62960    0.41790    1.000
    Zn28     Zn       0.07821    0.29877    0.08573    1.000
    Zn29     Zn       0.93566    0.31463    0.83614    1.000
    Zn30     Zn       0.99542    0.24662    0.71705    1.000
    C181     C        0.14670    0.09820    0.94770    1.000
    C182     C        0.06780    0.20100    0.11950    1.000
    C183     C        0.10670    0.14710    0.03910    1.000
    H37      H        0.10520    0.17050    0.00720    1.000
    C184     C        0.08840    0.15420    0.10390    1.000
    C185     C        0.08780    0.11940    0.15150    1.000
    C186     C        0.06930    0.12580    0.22390    1.000
    C187     C        0.11910    0.33800    0.88880    1.000
    C188     C        0.10420    0.30810    0.94890    1.000
    C189     C        0.15280    0.39410    0.78220    1.000
    C190     C        0.15850    0.37100    0.89940    1.000
    H38      H        0.17330    0.37410    0.94240    1.000
    C191     C        0.11490    0.36140    0.77240    1.000
    H39      H        0.10120    0.35750    0.72900    1.000
    C192     C        0.09660    0.33420    0.82540    1.000
    C193     C        0.16660    0.42340    0.72250    1.000
    C194     C        0.10850    0.07770    0.13360    1.000
    H40      H        0.10810    0.05380    0.16450    1.000
    C195     C        0.12770    0.10440    0.02090    1.000
    C196     C        0.12980    0.07160    0.06950    1.000
    C197     C        0.04870    0.30610    0.81020    1.000
    C198     C        0.17500    0.39860    0.84650    1.000
    C199     C        0.21800    0.43090    0.86310    1.000
    C200     C        0.16350    0.03070    0.05460    1.000
    O145     O        0.01050    0.31480    0.84700    1.000
    O146     O        0.05140    0.28000    0.76250    1.000
    O147     O        0.17660    0.46410    0.73220    1.000
    O148     O        0.16470    0.40300    0.66620    1.000
    O149     O        0.09160    0.15680    0.25640    1.000
    O150     O        0.03390    0.10150    0.24550    1.000
    O151     O        0.03060    0.20450    0.16080    1.000
    O152     O        0.08910    0.23400    0.08920    1.000
    O153     O        0.14390    0.06220    0.92310    1.000
    O154     O        0.11090    0.32510    0.00670    1.000
    O155     O        0.25730    0.42920    0.82380    1.000
    O156     O        0.21320    0.45470    0.91370    1.000
    O157     O        0.15390    0.99660    0.07660    1.000
    O158     O        0.20410    0.03660    0.01950    1.000
    O159     O        0.08860    0.26940    0.93630    1.000
    O160     O        0.16460    0.12960    0.91790    1.000
    Zn31     Zn       0.57821    0.79877    0.08573    1.000
    Zn32     Zn       0.43566    0.81463    0.83614    1.000
    Zn33     Zn       0.49542    0.74662    0.71705    1.000
    C201     C        0.64670    0.59820    0.94770    1.000
    C202     C        0.56780    0.70100    0.11950    1.000
    C203     C        0.60670    0.64710    0.03910    1.000
    H41      H        0.60520    0.67050    0.00720    1.000
    C204     C        0.58840    0.65420    0.10390    1.000
    C205     C        0.58780    0.61940    0.15150    1.000
    C206     C        0.56930    0.62580    0.22390    1.000
    C207     C        0.61910    0.83800    0.88880    1.000
    C208     C        0.60420    0.80810    0.94890    1.000
    C209     C        0.65280    0.89410    0.78220    1.000
    C210     C        0.65850    0.87100    0.89940    1.000
    H42      H        0.67330    0.87410    0.94240    1.000
    C211     C        0.61490    0.86140    0.77240    1.000
    H43      H        0.60120    0.85750    0.72900    1.000
    C212     C        0.59660    0.83420    0.82540    1.000
    C213     C        0.66660    0.92340    0.72250    1.000
    C214     C        0.60850    0.57770    0.13360    1.000
    H44      H        0.60810    0.55380    0.16450    1.000
    C215     C        0.62770    0.60440    0.02090    1.000
    C216     C        0.62980    0.57160    0.06950    1.000
    C217     C        0.54870    0.80610    0.81020    1.000
    C218     C        0.67500    0.89860    0.84650    1.000
    C219     C        0.71800    0.93090    0.86310    1.000
    C220     C        0.66350    0.53070    0.05460    1.000
    O161     O        0.51050    0.81480    0.84700    1.000
    O162     O        0.55140    0.78000    0.76250    1.000
    O163     O        0.67660    0.96410    0.73220    1.000
    O164     O        0.66470    0.90300    0.66620    1.000
    O165     O        0.59160    0.65680    0.25640    1.000
    O166     O        0.53390    0.60150    0.24550    1.000
    O167     O        0.53060    0.70450    0.16080    1.000
    O168     O        0.58910    0.73400    0.08920    1.000
    O169     O        0.64390    0.56220    0.92310    1.000
    O170     O        0.61090    0.82510    0.00670    1.000
    O171     O        0.75730    0.92920    0.82380    1.000
    O172     O        0.71320    0.95470    0.91370    1.000
    O173     O        0.65390    0.49660    0.07660    1.000
    O174     O        0.70410    0.53660    0.01950    1.000
    O175     O        0.58860    0.76940    0.93630    1.000
    O176     O        0.66460    0.62960    0.91790    1.000
    Zn34     Zn       0.57821    0.29877    0.58573    1.000
    Zn35     Zn       0.43566    0.31463    0.33614    1.000
    Zn36     Zn       0.49542    0.24662    0.21705    1.000
    C221     C        0.64670    0.09820    0.44770    1.000
    C222     C        0.56780    0.20100    0.61950    1.000
    C223     C        0.60670    0.14710    0.53910    1.000
    H45      H        0.60520    0.17050    0.50720    1.000
    C224     C        0.58840    0.15420    0.60390    1.000
    C225     C        0.58780    0.11940    0.65150    1.000
    C226     C        0.56930    0.12580    0.72390    1.000
    C227     C        0.61910    0.33800    0.38880    1.000
    C228     C        0.60420    0.30810    0.44890    1.000
    C229     C        0.65280    0.39410    0.28220    1.000
    C230     C        0.65850    0.37100    0.39940    1.000
    H46      H        0.67330    0.37410    0.44240    1.000
    C231     C        0.61490    0.36140    0.27240    1.000
    H47      H        0.60120    0.35750    0.22900    1.000
    C232     C        0.59660    0.33420    0.32540    1.000
    C233     C        0.66660    0.42340    0.22250    1.000
    C234     C        0.60850    0.07770    0.63360    1.000
    H48      H        0.60810    0.05380    0.66450    1.000
    C235     C        0.62770    0.10440    0.52090    1.000
    C236     C        0.62980    0.07160    0.56950    1.000
    C237     C        0.54870    0.30610    0.31020    1.000
    C238     C        0.67500    0.39860    0.34650    1.000
    C239     C        0.71800    0.43090    0.36310    1.000
    C240     C        0.66350    0.03070    0.55460    1.000
    O177     O        0.51050    0.31480    0.34700    1.000
    O178     O        0.55140    0.28000    0.26250    1.000
    O179     O        0.67660    0.46410    0.23220    1.000
    O180     O        0.66470    0.40300    0.16620    1.000
    O181     O        0.59160    0.15680    0.75640    1.000
    O182     O        0.53390    0.10150    0.74550    1.000
    O183     O        0.53060    0.20450    0.66080    1.000
    O184     O        0.58910    0.23400    0.58920    1.000
    O185     O        0.64390    0.06220    0.42310    1.000
    O186     O        0.61090    0.32510    0.50670    1.000
    O187     O        0.75730    0.42920    0.32380    1.000
    O188     O        0.71320    0.45470    0.41370    1.000
    O189     O        0.65390    0.99660    0.57660    1.000
    O190     O        0.70410    0.03660    0.51950    1.000
    O191     O        0.58860    0.26940    0.43630    1.000
    O192     O        0.66460    0.12960    0.41790    1.000
    Zn37     Zn       0.42179    0.70123    0.58573    1.000
    Zn38     Zn       0.56434    0.68537    0.33614    1.000
    Zn39     Zn       0.50458    0.75338    0.21705    1.000
    C241     C        0.35330    0.90180    0.44770    1.000
    C242     C        0.43220    0.79900    0.61950    1.000
    C243     C        0.39330    0.85290    0.53910    1.000
    H49      H        0.39480    0.82950    0.50720    1.000
    C244     C        0.41160    0.84580    0.60390    1.000
    C245     C        0.41220    0.88060    0.65150    1.000
    C246     C        0.43070    0.87420    0.72390    1.000
    C247     C        0.38090    0.66200    0.38880    1.000
    C248     C        0.39580    0.69190    0.44890    1.000
    C249     C        0.34720    0.60590    0.28220    1.000
    C250     C        0.34150    0.62900    0.39940    1.000
    H50      H        0.32670    0.62590    0.44240    1.000
    C251     C        0.38510    0.63860    0.27240    1.000
    H51      H        0.39880    0.64250    0.22900    1.000
    C252     C        0.40340    0.66580    0.32540    1.000
    C253     C        0.33340    0.57660    0.22250    1.000
    C254     C        0.39150    0.92230    0.63360    1.000
    H52      H        0.39190    0.94620    0.66450    1.000
    C255     C        0.37230    0.89560    0.52090    1.000
    C256     C        0.37020    0.92840    0.56950    1.000
    C257     C        0.45130    0.69390    0.31020    1.000
    C258     C        0.32500    0.60140    0.34650    1.000
    C259     C        0.28200    0.56910    0.36310    1.000
    C260     C        0.33650    0.96930    0.55460    1.000
    O193     O        0.48950    0.68520    0.34700    1.000
    O194     O        0.44860    0.72000    0.26250    1.000
    O195     O        0.32340    0.53590    0.23220    1.000
    O196     O        0.33530    0.59700    0.16620    1.000
    O197     O        0.40840    0.84320    0.75640    1.000
    O198     O        0.46610    0.89850    0.74550    1.000
    O199     O        0.46940    0.79550    0.66080    1.000
    O200     O        0.41090    0.76600    0.58920    1.000
    O201     O        0.35610    0.93780    0.42310    1.000
    O202     O        0.38910    0.67490    0.50670    1.000
    O203     O        0.24270    0.57080    0.32380    1.000
    O204     O        0.28680    0.54530    0.41370    1.000
    O205     O        0.34610    0.00340    0.57660    1.000
    O206     O        0.29590    0.96340    0.51950    1.000
    O207     O        0.41140    0.73060    0.43630    1.000
    O208     O        0.33540    0.87040    0.41790    1.000
    Zn40     Zn       0.42179    0.20123    0.08573    1.000
    Zn41     Zn       0.56434    0.18537    0.83614    1.000
    Zn42     Zn       0.50458    0.25338    0.71705    1.000
    C261     C        0.35330    0.40180    0.94770    1.000
    C262     C        0.43220    0.29900    0.11950    1.000
    C263     C        0.39330    0.35290    0.03910    1.000
    H53      H        0.39480    0.32950    0.00720    1.000
    C264     C        0.41160    0.34580    0.10390    1.000
    C265     C        0.41220    0.38060    0.15150    1.000
    C266     C        0.43070    0.37420    0.22390    1.000
    C267     C        0.38090    0.16200    0.88880    1.000
    C268     C        0.39580    0.19190    0.94890    1.000
    C269     C        0.34720    0.10590    0.78220    1.000
    C270     C        0.34150    0.12900    0.89940    1.000
    H54      H        0.32670    0.12590    0.94240    1.000
    C271     C        0.38510    0.13860    0.77240    1.000
    H55      H        0.39880    0.14250    0.72900    1.000
    C272     C        0.40340    0.16580    0.82540    1.000
    C273     C        0.33340    0.07660    0.72250    1.000
    C274     C        0.39150    0.42230    0.13360    1.000
    H56      H        0.39190    0.44620    0.16450    1.000
    C275     C        0.37230    0.39560    0.02090    1.000
    C276     C        0.37020    0.42840    0.06950    1.000
    C277     C        0.45130    0.19390    0.81020    1.000
    C278     C        0.32500    0.10140    0.84650    1.000
    C279     C        0.28200    0.06910    0.86310    1.000
    C280     C        0.33650    0.46930    0.05460    1.000
    O209     O        0.48950    0.18520    0.84700    1.000
    O210     O        0.44860    0.22000    0.76250    1.000
    O211     O        0.32340    0.03590    0.73220    1.000
    O212     O        0.33530    0.09700    0.66620    1.000
    O213     O        0.40840    0.34320    0.25640    1.000
    O214     O        0.46610    0.39850    0.24550    1.000
    O215     O        0.46940    0.29550    0.16080    1.000
    O216     O        0.41090    0.26600    0.08920    1.000
    O217     O        0.35610    0.43780    0.92310    1.000
    O218     O        0.38910    0.17490    0.00670    1.000
    O219     O        0.24270    0.07080    0.82380    1.000
    O220     O        0.28680    0.04530    0.91370    1.000
    O221     O        0.34610    0.50340    0.07660    1.000
    O222     O        0.29590    0.46340    0.01950    1.000
    O223     O        0.41140    0.23060    0.93630    1.000
    O224     O        0.33540    0.37040    0.91790    1.000
    Zn43     Zn       0.92179    0.70123    0.08573    1.000
    Zn44     Zn       0.06434    0.68537    0.83614    1.000
    Zn45     Zn       0.00458    0.75338    0.71705    1.000
    C281     C        0.85330    0.90180    0.94770    1.000
    C282     C        0.93220    0.79900    0.11950    1.000
    C283     C        0.89330    0.85290    0.03910    1.000
    H57      H        0.89480    0.82950    0.00720    1.000
    C284     C        0.91160    0.84580    0.10390    1.000
    C285     C        0.91220    0.88060    0.15150    1.000
    C286     C        0.93070    0.87420    0.22390    1.000
    C287     C        0.88090    0.66200    0.88880    1.000
    C288     C        0.89580    0.69190    0.94890    1.000
    C289     C        0.84720    0.60590    0.78220    1.000
    C290     C        0.84150    0.62900    0.89940    1.000
    H58      H        0.82670    0.62590    0.94240    1.000
    C291     C        0.88510    0.63860    0.77240    1.000
    H59      H        0.89880    0.64250    0.72900    1.000
    C292     C        0.90340    0.66580    0.82540    1.000
    C293     C        0.83340    0.57660    0.72250    1.000
    C294     C        0.89150    0.92230    0.13360    1.000
    H60      H        0.89190    0.94620    0.16450    1.000
    C295     C        0.87230    0.89560    0.02090    1.000
    C296     C        0.87020    0.92840    0.06950    1.000
    C297     C        0.95130    0.69390    0.81020    1.000
    C298     C        0.82500    0.60140    0.84650    1.000
    C299     C        0.78200    0.56910    0.86310    1.000
    C300     C        0.83650    0.96930    0.05460    1.000
    O225     O        0.98950    0.68520    0.84700    1.000
    O226     O        0.94860    0.72000    0.76250    1.000
    O227     O        0.82340    0.53590    0.73220    1.000
    O228     O        0.83530    0.59700    0.66620    1.000
    O229     O        0.90840    0.84320    0.25640    1.000
    O230     O        0.96610    0.89850    0.24550    1.000
    O231     O        0.96940    0.79550    0.16080    1.000
    O232     O        0.91090    0.76600    0.08920    1.000
    O233     O        0.85610    0.93780    0.92310    1.000
    O234     O        0.88910    0.67490    0.00670    1.000
    O235     O        0.74270    0.57080    0.82380    1.000
    O236     O        0.78680    0.54530    0.91370    1.000
    O237     O        0.84610    0.00340    0.07660    1.000
    O238     O        0.79590    0.96340    0.01950    1.000
    O239     O        0.91140    0.73060    0.93630    1.000
    O240     O        0.83540    0.87040    0.91790    1.000
    Zn46     Zn       0.92179    0.20123    0.58573    1.000
    Zn47     Zn       0.06434    0.18537    0.33614    1.000
    Zn48     Zn       0.00458    0.25338    0.21705    1.000
    C301     C        0.85330    0.40180    0.44770    1.000
    C302     C        0.93220    0.29900    0.61950    1.000
    C303     C        0.89330    0.35290    0.53910    1.000
    H61      H        0.89480    0.32950    0.50720    1.000
    C304     C        0.91160    0.34580    0.60390    1.000
    C305     C        0.91220    0.38060    0.65150    1.000
    C306     C        0.93070    0.37420    0.72390    1.000
    C307     C        0.88090    0.16200    0.38880    1.000
    C308     C        0.89580    0.19190    0.44890    1.000
    C309     C        0.84720    0.10590    0.28220    1.000
    C310     C        0.84150    0.12900    0.39940    1.000
    H62      H        0.82670    0.12590    0.44240    1.000
    C311     C        0.88510    0.13860    0.27240    1.000
    H63      H        0.89880    0.14250    0.22900    1.000
    C312     C        0.90340    0.16580    0.32540    1.000
    C313     C        0.83340    0.07660    0.22250    1.000
    C314     C        0.89150    0.42230    0.63360    1.000
    H64      H        0.89190    0.44620    0.66450    1.000
    C315     C        0.87230    0.39560    0.52090    1.000
    C316     C        0.87020    0.42840    0.56950    1.000
    C317     C        0.95130    0.19390    0.31020    1.000
    C318     C        0.82500    0.10140    0.34650    1.000
    C319     C        0.78200    0.06910    0.36310    1.000
    C320     C        0.83650    0.46930    0.55460    1.000
    O241     O        0.98950    0.18520    0.34700    1.000
    O242     O        0.94860    0.22000    0.26250    1.000
    O243     O        0.82340    0.03590    0.23220    1.000
    O244     O        0.83530    0.09700    0.16620    1.000
    O245     O        0.90840    0.34320    0.75640    1.000
    O246     O        0.96610    0.39850    0.74550    1.000
    O247     O        0.96940    0.29550    0.66080    1.000
    O248     O        0.91090    0.26600    0.58920    1.000
    O249     O        0.85610    0.43780    0.42310    1.000
    O250     O        0.88910    0.17490    0.50670    1.000
    O251     O        0.74270    0.07080    0.32380    1.000
    O252     O        0.78680    0.04530    0.41370    1.000
    O253     O        0.84610    0.50340    0.57660    1.000
    O254     O        0.79590    0.46340    0.51950    1.000
    O255     O        0.91140    0.23060    0.43630    1.000
    O256     O        0.83540    0.37040    0.41790    1.000
