data_functionalizedCrystal
_audit_creation_method	'EQeq! by Chris Wilmer'
_symmetry_space_group_name_H-M	'P1'
_symmetry_Int_Tables_number	1
_symmetry_cell_setting	triclinic
loop_
_symmetry_equiv_pos_as_xyz
  x,y,z
_cell_length_a	52.9345
_cell_length_b	52.9345
_cell_length_c	52.9345
_cell_angle_alpha	90
_cell_angle_beta	90
_cell_angle_gamma	90
loop_
_atom_site_label
_atom_site_type_symbol
_atom_site_fract_x
_atom_site_fract_y
_atom_site_fract_z
_atom_site_charge
Mof_Zn	Zn	0.7282	0.2718	0.2282	1.11
Mof_Zn	Zn	0.2718	0.7282	0.2282	1.11
Mof_Zn	Zn	0.2718	0.2718	0.7718	1.11
Mof_Zn	Zn	0.7282	0.7282	0.7718	1.11
Mof_Zn	Zn	0.2282	0.7282	0.2718	1.11
Mof_Zn	Zn	0.2282	0.2282	0.7718	1.11
Mof_Zn	Zn	0.2282	0.2718	0.7282	1.11
Mof_Zn	Zn	0.2282	0.7718	0.2282	1.11
Mof_Zn	Zn	0.7718	0.2718	0.2718	1.11
Mof_Zn	Zn	0.7718	0.7718	0.7718	1.11
Mof_Zn	Zn	0.7718	0.7282	0.7282	1.11
Mof_Zn	Zn	0.7718	0.2282	0.2282	1.11
Mof_Zn	Zn	0.2718	0.2282	0.7282	1.11
Mof_Zn	Zn	0.7282	0.2282	0.2718	1.11
Mof_Zn	Zn	0.2718	0.7718	0.2718	1.11
Mof_Zn	Zn	0.7282	0.7718	0.7282	1.11
Mof_Zn	Zn	0.2718	0.7282	0.7718	1.11
Mof_Zn	Zn	0.7282	0.2718	0.7718	1.11
Mof_Zn	Zn	0.2718	0.2718	0.2282	1.11
Mof_Zn	Zn	0.7282	0.7282	0.2282	1.11
Mof_Zn	Zn	0.7282	0.2282	0.7282	1.11
Mof_Zn	Zn	0.2718	0.2282	0.2718	1.11
Mof_Zn	Zn	0.2718	0.7718	0.7282	1.11
Mof_Zn	Zn	0.7282	0.7718	0.2718	1.11
Mof_Zn	Zn	0.2282	0.2718	0.2718	1.11
Mof_Zn	Zn	0.2282	0.7718	0.7718	1.11
Mof_Zn	Zn	0.2282	0.7282	0.7282	1.11
Mof_Zn	Zn	0.2282	0.2282	0.2282	1.11
Mof_Zn	Zn	0.7718	0.2718	0.7282	1.11
Mof_Zn	Zn	0.7718	0.7718	0.2282	1.11
Mof_Zn	Zn	0.7718	0.7282	0.2718	1.11
Mof_Zn	Zn	0.7718	0.2282	0.7718	1.11
Mof_O 	O 	0.69	0.2675	0.2325	-0.493
Mof_C 	C 	0.6419	0.2662	0.2338	0.191
Mof_H 	H 	0.6506	0.277	0.223	-0.004
Mof_C 	C 	0.6155	0.2662	0.2338	-0.237
Mof_H 	H 	0.6066	0.2769	0.2231	0.115
Mof_O 	O 	0.19	0.2675	0.7325	-0.493
Mof_C 	C 	0.1419	0.2662	0.7338	0.191
Mof_H 	H 	0.1506	0.277	0.723	-0.004
Mof_C 	C 	0.1155	0.2662	0.7338	-0.237
Mof_H 	H 	0.1066	0.2769	0.7231	0.115
Mof_O 	O 	0.31	0.7325	0.2325	-0.493
Mof_C 	C 	0.3581	0.7338	0.2338	0.191
Mof_H 	H 	0.3494	0.723	0.223	-0.004
Mof_C 	C 	0.3845	0.7338	0.2338	-0.237
Mof_H 	H 	0.3934	0.7231	0.2231	0.115
Mof_O 	O 	0.81	0.7325	0.7325	-0.493
Mof_C 	C 	0.8581	0.7338	0.7338	0.191
Mof_H 	H 	0.8494	0.723	0.723	-0.004
Mof_C 	C 	0.8845	0.7338	0.7338	-0.237
Mof_H 	H 	0.8934	0.7231	0.7231	0.115
Mof_O 	O 	0.81	0.2325	0.2325	-0.493
Mof_C 	C 	0.8581	0.2338	0.2338	0.191
Mof_H 	H 	0.8494	0.223	0.223	-0.004
Mof_C 	C 	0.8845	0.2338	0.2338	-0.237
Mof_H 	H 	0.8934	0.2231	0.2231	0.115
Mof_O 	O 	0.31	0.2675	0.7675	-0.493
Mof_C 	C 	0.3581	0.2662	0.7662	0.191
Mof_H 	H 	0.3494	0.277	0.777	-0.004
Mof_C 	C 	0.3845	0.2662	0.7662	-0.237
Mof_H 	H 	0.3934	0.2769	0.7769	0.115
Mof_O 	O 	0.81	0.2675	0.2675	-0.493
Mof_C 	C 	0.8581	0.2662	0.2662	0.191
Mof_H 	H 	0.8494	0.277	0.277	-0.004
Mof_C 	C 	0.8845	0.2662	0.2662	-0.237
Mof_H 	H 	0.8934	0.2769	0.2769	0.115
Mof_O 	O 	0.69	0.7325	0.7675	-0.493
Mof_C 	C 	0.6419	0.7338	0.7662	0.191
Mof_H 	H 	0.6506	0.723	0.777	-0.004
Mof_C 	C 	0.6155	0.7338	0.7662	-0.237
Mof_H 	H 	0.6066	0.7231	0.7769	0.115
Mof_O 	O 	0.69	0.2325	0.2675	-0.493
Mof_C 	C 	0.6419	0.2338	0.2662	0.191
Mof_H 	H 	0.6506	0.223	0.277	-0.004
Mof_C 	C 	0.6155	0.2338	0.2662	-0.237
Mof_H 	H 	0.6066	0.2231	0.2769	0.115
Mof_O 	O 	0.19	0.7325	0.2675	-0.493
Mof_C 	C 	0.1419	0.7338	0.2662	0.191
Mof_H 	H 	0.1506	0.723	0.277	-0.004
Mof_C 	C 	0.1155	0.7338	0.2662	-0.236
Mof_H 	H 	0.1066	0.7231	0.2769	0.116
Mof_O 	O 	0.2325	0.69	0.2675	-0.492
Mof_C 	C 	0.2338	0.6419	0.2662	0.192
Mof_H 	H 	0.223	0.6506	0.277	-0.003
Mof_C 	C 	0.2338	0.6155	0.2662	-0.236
Mof_H 	H 	0.2231	0.6066	0.2769	0.116
Mof_O 	O 	0.2325	0.19	0.7675	-0.492
Mof_C 	C 	0.2338	0.1419	0.7662	0.192
Mof_H 	H 	0.223	0.1506	0.777	-0.003
Mof_C 	C 	0.2338	0.1155	0.7662	-0.236
Mof_H 	H 	0.2231	0.1066	0.7769	0.116
Mof_O 	O 	0.2325	0.31	0.7325	-0.492
Mof_C 	C 	0.2338	0.3581	0.7338	0.192
Mof_H 	H 	0.223	0.3494	0.723	-0.003
Mof_C 	C 	0.2338	0.3845	0.7338	-0.236
Mof_H 	H 	0.2231	0.3934	0.7231	0.116
Mof_O 	O 	0.2325	0.81	0.2325	-0.492
Mof_C 	C 	0.2338	0.8581	0.2338	0.192
Mof_H 	H 	0.223	0.8494	0.223	-0.003
Mof_C 	C 	0.2338	0.8845	0.2338	-0.236
Mof_H 	H 	0.2231	0.8934	0.2231	0.116
Mof_O 	O 	0.7675	0.31	0.2675	-0.492
Mof_C 	C 	0.7662	0.3581	0.2662	0.192
Mof_H 	H 	0.777	0.3494	0.277	-0.003
Mof_C 	C 	0.7662	0.3845	0.2662	-0.236
Mof_H 	H 	0.7769	0.3934	0.2769	0.116
Mof_O 	O 	0.7675	0.81	0.7675	-0.492
Mof_C 	C 	0.7662	0.8581	0.7662	0.192
Mof_H 	H 	0.777	0.8494	0.777	-0.003
Mof_C 	C 	0.7662	0.8845	0.7662	-0.236
Mof_H 	H 	0.7769	0.8934	0.7769	0.116
Mof_O 	O 	0.2675	0.81	0.2675	-0.492
Mof_C 	C 	0.2662	0.8581	0.2662	0.192
Mof_H 	H 	0.277	0.8494	0.277	-0.003
Mof_C 	C 	0.2662	0.8845	0.2662	-0.236
Mof_H 	H 	0.2769	0.8934	0.2769	0.116
Mof_O 	O 	0.7675	0.69	0.7325	-0.492
Mof_C 	C 	0.7662	0.6419	0.7338	0.192
Mof_H 	H 	0.777	0.6506	0.723	-0.003
Mof_C 	C 	0.7662	0.6155	0.7338	-0.236
Mof_H 	H 	0.7769	0.6066	0.7231	0.116
Mof_O 	O 	0.7675	0.19	0.2325	-0.492
Mof_C 	C 	0.7662	0.1419	0.2338	0.192
Mof_H 	H 	0.777	0.1506	0.223	-0.003
Mof_C 	C 	0.7662	0.1155	0.2338	-0.236
Mof_H 	H 	0.7769	0.1066	0.2231	0.116
Mof_O 	O 	0.2675	0.69	0.2325	-0.492
Mof_C 	C 	0.2662	0.6419	0.2338	0.192
Mof_H 	H 	0.277	0.6506	0.223	-0.003
Mof_C 	C 	0.2662	0.6155	0.2338	-0.236
Mof_H 	H 	0.2769	0.6066	0.2231	0.116
Mof_O 	O 	0.2675	0.2325	0.69	-0.492
Mof_C 	C 	0.2662	0.2338	0.6419	0.192
Mof_H 	H 	0.277	0.223	0.6506	-0.003
Mof_C 	C 	0.2662	0.2338	0.6155	-0.236
Mof_H 	H 	0.2769	0.2231	0.6066	0.116
Mof_O 	O 	0.2675	0.7325	0.19	-0.492
Mof_C 	C 	0.2662	0.7338	0.1419	0.192
Mof_H 	H 	0.277	0.723	0.1506	-0.003
Mof_C 	C 	0.2662	0.7338	0.1155	-0.236
Mof_H 	H 	0.2769	0.7231	0.1066	0.116
Mof_O 	O 	0.7325	0.2325	0.31	-0.492
Mof_C 	C 	0.7338	0.2338	0.3581	0.192
Mof_H 	H 	0.723	0.223	0.3494	-0.003
Mof_C 	C 	0.7338	0.2338	0.3845	-0.236
Mof_H 	H 	0.7231	0.2231	0.3934	0.116
Mof_O 	O 	0.7325	0.7325	0.81	-0.492
Mof_C 	C 	0.7338	0.7338	0.8581	0.192
Mof_H 	H 	0.723	0.723	0.8494	-0.003
Mof_C 	C 	0.7338	0.7338	0.8845	-0.236
Mof_H 	H 	0.7231	0.7231	0.8934	0.116
Mof_O 	O 	0.2325	0.2325	0.81	-0.492
Mof_C 	C 	0.2338	0.2338	0.8581	0.192
Mof_H 	H 	0.223	0.223	0.8494	-0.003
Mof_C 	C 	0.2338	0.2338	0.8845	-0.236
Mof_H 	H 	0.2231	0.2231	0.8934	0.116
Mof_O 	O 	0.2675	0.7675	0.31	-0.492
Mof_C 	C 	0.2662	0.7662	0.3581	0.192
Mof_H 	H 	0.277	0.777	0.3494	-0.003
Mof_C 	C 	0.2662	0.7662	0.3845	-0.236
Mof_H 	H 	0.2769	0.7769	0.3934	0.116
Mof_O 	O 	0.2675	0.2675	0.81	-0.492
Mof_C 	C 	0.2662	0.2662	0.8581	0.192
Mof_H 	H 	0.277	0.277	0.8494	-0.003
Mof_C 	C 	0.2662	0.2662	0.8845	-0.236
Mof_H 	H 	0.2769	0.2769	0.8934	0.116
Mof_O 	O 	0.7325	0.7675	0.69	-0.492
Mof_C 	C 	0.7338	0.7662	0.6419	0.192
Mof_H 	H 	0.723	0.777	0.6506	-0.003
Mof_C 	C 	0.7338	0.7662	0.6155	-0.236
Mof_H 	H 	0.7231	0.7769	0.6066	0.116
Mof_O 	O 	0.7325	0.2675	0.19	-0.492
Mof_C 	C 	0.7338	0.2662	0.1419	0.192
Mof_H 	H 	0.723	0.277	0.1506	-0.003
Mof_C 	C 	0.7338	0.2662	0.1155	-0.236
Mof_H 	H 	0.7231	0.2769	0.1066	0.116
Mof_O 	O 	0.2325	0.2675	0.69	-0.492
Mof_C 	C 	0.2338	0.2662	0.6419	0.192
Mof_H 	H 	0.223	0.277	0.6506	-0.003
Mof_C 	C 	0.2338	0.2662	0.6155	-0.236
Mof_H 	H 	0.2231	0.2769	0.6066	0.116
Mof_O 	O 	0.2675	0.69	0.7675	-0.492
Mof_C 	C 	0.2662	0.6419	0.7662	0.192
Mof_H 	H 	0.277	0.6506	0.777	-0.003
Mof_C 	C 	0.2662	0.6155	0.7662	-0.236
Mof_H 	H 	0.2769	0.6066	0.7769	0.116
Mof_O 	O 	0.2675	0.19	0.2675	-0.492
Mof_C 	C 	0.2662	0.1419	0.2662	0.192
Mof_H 	H 	0.277	0.1506	0.277	-0.003
Mof_C 	C 	0.2662	0.1155	0.2662	-0.236
Mof_H 	H 	0.2769	0.1066	0.2769	0.116
Mof_O 	O 	0.7325	0.31	0.7675	-0.492
Mof_C 	C 	0.7338	0.3581	0.7662	0.192
Mof_H 	H 	0.723	0.3494	0.777	-0.003
Mof_C 	C 	0.7338	0.3845	0.7662	-0.236
Mof_H 	H 	0.7231	0.3934	0.7769	0.116
Mof_O 	O 	0.7325	0.81	0.2675	-0.492
Mof_C 	C 	0.7338	0.8581	0.2662	0.192
Mof_H 	H 	0.723	0.8494	0.277	-0.003
Mof_C 	C 	0.7338	0.8845	0.2662	-0.236
Mof_H 	H 	0.7231	0.8934	0.2769	0.116
Mof_O 	O 	0.2325	0.31	0.2675	-0.492
Mof_C 	C 	0.2338	0.3581	0.2662	0.192
Mof_H 	H 	0.223	0.3494	0.277	-0.003
Mof_C 	C 	0.2338	0.3845	0.2662	-0.236
Mof_H 	H 	0.2231	0.3934	0.2769	0.116
Mof_O 	O 	0.2675	0.31	0.2325	-0.492
Mof_C 	C 	0.2662	0.3581	0.2338	0.192
Mof_H 	H 	0.277	0.3494	0.223	-0.003
Mof_C 	C 	0.2662	0.3845	0.2338	-0.236
Mof_H 	H 	0.2769	0.3934	0.2231	0.116
Mof_O 	O 	0.2675	0.81	0.7325	-0.492
Mof_C 	C 	0.2662	0.8581	0.7338	0.192
Mof_H 	H 	0.277	0.8494	0.723	-0.003
Mof_C 	C 	0.2662	0.8845	0.7338	-0.236
Mof_H 	H 	0.2769	0.8934	0.7231	0.116
Mof_O 	O 	0.7325	0.69	0.2325	-0.492
Mof_C 	C 	0.7338	0.6419	0.2338	0.192
Mof_H 	H 	0.723	0.6506	0.223	-0.003
Mof_C 	C 	0.7338	0.6155	0.2338	-0.236
Mof_H 	H 	0.7231	0.6066	0.2231	0.116
Mof_O 	O 	0.7325	0.19	0.7325	-0.492
Mof_C 	C 	0.7338	0.1419	0.7338	0.192
Mof_H 	H 	0.723	0.1506	0.723	-0.003
Mof_C 	C 	0.7338	0.1155	0.7338	-0.236
Mof_H 	H 	0.7231	0.1066	0.7231	0.116
Mof_O 	O 	0.2325	0.19	0.2325	-0.492
Mof_C 	C 	0.2338	0.1419	0.2338	0.192
Mof_H 	H 	0.223	0.1506	0.223	-0.003
Mof_C 	C 	0.2338	0.1155	0.2338	-0.236
Mof_H 	H 	0.2231	0.1066	0.2231	0.116
Mof_O 	O 	0.69	0.2325	0.7325	-0.492
Mof_C 	C 	0.6419	0.2338	0.7338	0.192
Mof_H 	H 	0.6506	0.223	0.723	-0.003
Mof_C 	C 	0.6155	0.2338	0.7338	-0.236
Mof_H 	H 	0.6066	0.2231	0.7231	0.116
Mof_O 	O 	0.19	0.2325	0.2325	-0.492
Mof_C 	C 	0.1419	0.2338	0.2338	0.192
Mof_H 	H 	0.1506	0.223	0.223	-0.003
Mof_C 	C 	0.1155	0.2338	0.2338	-0.236
Mof_H 	H 	0.1066	0.2231	0.2231	0.116
Mof_O 	O 	0.31	0.2325	0.2675	-0.492
Mof_C 	C 	0.3581	0.2338	0.2662	0.192
Mof_H 	H 	0.3494	0.223	0.277	-0.003
Mof_C 	C 	0.3845	0.2338	0.2662	-0.236
Mof_H 	H 	0.3934	0.2231	0.2769	0.116
Mof_O 	O 	0.81	0.2325	0.7675	-0.492
Mof_C 	C 	0.8581	0.2338	0.7662	0.192
Mof_H 	H 	0.8494	0.223	0.777	-0.003
Mof_C 	C 	0.8845	0.2338	0.7662	-0.236
Mof_H 	H 	0.8934	0.2231	0.7769	0.116
Mof_O 	O 	0.31	0.7675	0.7325	-0.492
Mof_C 	C 	0.3581	0.7662	0.7338	0.192
Mof_H 	H 	0.3494	0.777	0.723	-0.003
Mof_C 	C 	0.3845	0.7662	0.7338	-0.236
Mof_H 	H 	0.3934	0.7769	0.7231	0.116
Mof_O 	O 	0.31	0.2675	0.2325	-0.492
Mof_C 	C 	0.3581	0.2662	0.2338	0.192
Mof_H 	H 	0.3494	0.277	0.223	-0.003
Mof_C 	C 	0.3845	0.2662	0.2338	-0.236
Mof_H 	H 	0.3934	0.2769	0.2231	0.116
Mof_O 	O 	0.81	0.7675	0.2325	-0.492
Mof_C 	C 	0.8581	0.7662	0.2338	0.192
Mof_H 	H 	0.8494	0.777	0.223	-0.003
Mof_C 	C 	0.8845	0.7662	0.2338	-0.236
Mof_H 	H 	0.8934	0.7769	0.2231	0.116
Mof_O 	O 	0.69	0.7675	0.2675	-0.492
Mof_C 	C 	0.6419	0.7662	0.2662	0.192
Mof_H 	H 	0.6506	0.777	0.277	-0.003
Mof_C 	C 	0.6155	0.7662	0.2662	-0.236
Mof_H 	H 	0.6066	0.7769	0.2769	0.116
Mof_O 	O 	0.19	0.7675	0.7675	-0.492
Mof_C 	C 	0.1419	0.7662	0.7662	0.192
Mof_H 	H 	0.1506	0.777	0.777	-0.003
Mof_C 	C 	0.1155	0.7662	0.7662	-0.236
Mof_H 	H 	0.1066	0.7769	0.7769	0.116
Mof_O 	O 	0.19	0.2675	0.2675	-0.492
Mof_C 	C 	0.1419	0.2662	0.2662	0.192
Mof_H 	H 	0.1506	0.277	0.277	-0.003
Mof_C 	C 	0.1155	0.2662	0.2662	-0.236
Mof_H 	H 	0.1066	0.2769	0.2769	0.116
Mof_O 	O 	0.2325	0.2675	0.31	-0.492
Mof_C 	C 	0.2338	0.2662	0.3581	0.192
Mof_H 	H 	0.223	0.277	0.3494	-0.003
Mof_C 	C 	0.2338	0.2662	0.3845	-0.236
Mof_H 	H 	0.2231	0.2769	0.3934	0.116
Mof_O 	O 	0.2325	0.7675	0.81	-0.492
Mof_C 	C 	0.2338	0.7662	0.8581	0.192
Mof_H 	H 	0.223	0.777	0.8494	-0.003
Mof_C 	C 	0.2338	0.7662	0.8845	-0.236
Mof_H 	H 	0.2231	0.7769	0.8934	0.116
Mof_O 	O 	0.2325	0.7325	0.69	-0.492
Mof_C 	C 	0.2338	0.7338	0.6419	0.192
Mof_H 	H 	0.223	0.723	0.6506	-0.003
Mof_C 	C 	0.2338	0.7338	0.6155	-0.236
Mof_H 	H 	0.2231	0.7231	0.6066	0.116
Mof_O 	O 	0.2325	0.2325	0.19	-0.492
Mof_C 	C 	0.2338	0.2338	0.1419	0.192
Mof_H 	H 	0.223	0.223	0.1506	-0.003
Mof_C 	C 	0.2338	0.2338	0.1155	-0.236
Mof_H 	H 	0.2231	0.2231	0.1066	0.116
Mof_O 	O 	0.7675	0.2675	0.69	-0.492
Mof_C 	C 	0.7662	0.2662	0.6419	0.192
Mof_H 	H 	0.777	0.277	0.6506	-0.003
Mof_C 	C 	0.7662	0.2662	0.6155	-0.236
Mof_H 	H 	0.7769	0.2769	0.6066	0.116
Mof_O 	O 	0.7675	0.7675	0.19	-0.492
Mof_C 	C 	0.7662	0.7662	0.1419	0.192
Mof_H 	H 	0.777	0.777	0.1506	-0.003
Mof_C 	C 	0.7662	0.7662	0.1155	-0.236
Mof_H 	H 	0.7769	0.7769	0.1066	0.116
Mof_O 	O 	0.2675	0.2675	0.19	-0.492
Mof_C 	C 	0.2662	0.2662	0.1419	0.192
Mof_H 	H 	0.277	0.277	0.1506	-0.003
Mof_C 	C 	0.2662	0.2662	0.1155	-0.236
Mof_H 	H 	0.2769	0.2769	0.1066	0.116
Mof_O 	O 	0.7675	0.7325	0.31	-0.492
Mof_C 	C 	0.7662	0.7338	0.3581	0.192
Mof_H 	H 	0.777	0.723	0.3494	-0.003
Mof_C 	C 	0.7662	0.7338	0.3845	-0.236
Mof_H 	H 	0.7769	0.7231	0.3934	0.116
Mof_O 	O 	0.7675	0.2325	0.81	-0.492
Mof_C 	C 	0.7662	0.2338	0.8581	0.192
Mof_H 	H 	0.777	0.223	0.8494	-0.003
Mof_C 	C 	0.7662	0.2338	0.8845	-0.236
Mof_H 	H 	0.7769	0.2231	0.8934	0.116
Mof_O 	O 	0.2675	0.2325	0.31	-0.492
Mof_C 	C 	0.2662	0.2338	0.3581	0.192
Mof_H 	H 	0.277	0.223	0.3494	-0.003
Mof_C 	C 	0.2662	0.2338	0.3845	-0.236
Mof_H 	H 	0.2769	0.2231	0.3934	0.116
Mof_O 	O 	0.31	0.7325	0.7675	-0.492
Mof_C 	C 	0.3581	0.7338	0.7662	0.192
Mof_H 	H 	0.3494	0.723	0.777	-0.003
Mof_C 	C 	0.3845	0.7338	0.7662	-0.236
Mof_H 	H 	0.3934	0.7231	0.7769	0.116
Mof_O 	O 	0.81	0.7325	0.2675	-0.492
Mof_C 	C 	0.8581	0.7338	0.2662	0.192
Mof_H 	H 	0.8494	0.723	0.277	-0.003
Mof_C 	C 	0.8845	0.7338	0.2662	-0.236
Mof_H 	H 	0.8934	0.7231	0.2769	0.116
Mof_O 	O 	0.69	0.2675	0.7675	-0.492
Mof_C 	C 	0.6419	0.2662	0.7662	0.192
Mof_H 	H 	0.6506	0.277	0.777	-0.003
Mof_C 	C 	0.6155	0.2662	0.7662	-0.236
Mof_H 	H 	0.6066	0.2769	0.7769	0.116
Mof_O 	O 	0.69	0.7325	0.2325	-0.492
Mof_C 	C 	0.6419	0.7338	0.2338	0.192
Mof_H 	H 	0.6506	0.723	0.223	-0.003
Mof_C 	C 	0.6155	0.7338	0.2338	-0.236
Mof_H 	H 	0.6066	0.7231	0.2231	0.116
Mof_O 	O 	0.19	0.7325	0.7325	-0.492
Mof_C 	C 	0.1419	0.7338	0.7338	0.192
Mof_H 	H 	0.1506	0.723	0.723	-0.003
Mof_C 	C 	0.1155	0.7338	0.7338	-0.236
Mof_H 	H 	0.1066	0.7231	0.7231	0.116
Mof_O 	O 	0.81	0.2675	0.7325	-0.492
Mof_C 	C 	0.8581	0.2662	0.7338	0.192
Mof_H 	H 	0.8494	0.277	0.723	-0.003
Mof_C 	C 	0.8845	0.2662	0.7338	-0.236
Mof_H 	H 	0.8934	0.2769	0.7231	0.116
Mof_O 	O 	0.7675	0.31	0.7325	-0.492
Mof_C 	C 	0.7662	0.3581	0.7338	0.192
Mof_H 	H 	0.777	0.3494	0.723	-0.003
Mof_C 	C 	0.7662	0.3845	0.7338	-0.236
Mof_H 	H 	0.7769	0.3934	0.7231	0.116
Mof_O 	O 	0.7675	0.81	0.2325	-0.492
Mof_C 	C 	0.7662	0.8581	0.2338	0.192
Mof_H 	H 	0.777	0.8494	0.223	-0.003
Mof_C 	C 	0.7662	0.8845	0.2338	-0.236
Mof_H 	H 	0.7769	0.8934	0.2231	0.116
Mof_O 	O 	0.7675	0.69	0.2675	-0.492
Mof_C 	C 	0.7662	0.6419	0.2662	0.192
Mof_H 	H 	0.777	0.6506	0.277	-0.003
Mof_C 	C 	0.7662	0.6155	0.2662	-0.236
Mof_H 	H 	0.7769	0.6066	0.2769	0.116
Mof_O 	O 	0.7675	0.19	0.7675	-0.492
Mof_C 	C 	0.7662	0.1419	0.7662	0.192
Mof_H 	H 	0.777	0.1506	0.777	-0.003
Mof_C 	C 	0.7662	0.1155	0.7662	-0.236
Mof_H 	H 	0.7769	0.1066	0.7769	0.116
Mof_O 	O 	0.2325	0.69	0.7325	-0.492
Mof_C 	C 	0.2338	0.6419	0.7338	0.192
Mof_H 	H 	0.223	0.6506	0.723	-0.003
Mof_C 	C 	0.2338	0.6155	0.7338	-0.236
Mof_H 	H 	0.2231	0.6066	0.7231	0.116
Mof_O 	O 	0.2325	0.81	0.7675	-0.492
Mof_C 	C 	0.2338	0.8581	0.7662	0.192
Mof_H 	H 	0.223	0.8494	0.777	-0.003
Mof_C 	C 	0.2338	0.8845	0.7662	-0.236
Mof_H 	H 	0.2231	0.8934	0.7769	0.116
Mof_O 	O 	0.7325	0.7675	0.31	-0.492
Mof_C 	C 	0.7338	0.7662	0.3581	0.192
Mof_H 	H 	0.723	0.777	0.3494	-0.003
Mof_C 	C 	0.7338	0.7662	0.3845	-0.236
Mof_H 	H 	0.7231	0.7769	0.3934	0.116
Mof_O 	O 	0.7325	0.2675	0.81	-0.492
Mof_C 	C 	0.7338	0.2662	0.8581	0.192
Mof_H 	H 	0.723	0.277	0.8494	-0.003
Mof_C 	C 	0.7338	0.2662	0.8845	-0.236
Mof_H 	H 	0.7231	0.2769	0.8934	0.116
Mof_O 	O 	0.2675	0.7675	0.69	-0.492
Mof_C 	C 	0.2662	0.7662	0.6419	0.192
Mof_H 	H 	0.277	0.777	0.6506	-0.003
Mof_C 	C 	0.2662	0.7662	0.6155	-0.236
Mof_H 	H 	0.2769	0.7769	0.6066	0.116
Mof_O 	O 	0.7325	0.2325	0.69	-0.492
Mof_C 	C 	0.7338	0.2338	0.6419	0.192
Mof_H 	H 	0.723	0.223	0.6506	-0.003
Mof_C 	C 	0.7338	0.2338	0.6155	-0.236
Mof_H 	H 	0.7231	0.2231	0.6066	0.116
Mof_O 	O 	0.7325	0.7325	0.19	-0.492
Mof_C 	C 	0.7338	0.7338	0.1419	0.192
Mof_H 	H 	0.723	0.723	0.1506	-0.003
Mof_C 	C 	0.7338	0.7338	0.1155	-0.236
Mof_H 	H 	0.7231	0.7231	0.1066	0.116
Mof_O 	O 	0.2675	0.7325	0.81	-0.492
Mof_C 	C 	0.2662	0.7338	0.8581	0.192
Mof_H 	H 	0.277	0.723	0.8494	-0.003
Mof_C 	C 	0.2662	0.7338	0.8845	-0.236
Mof_H 	H 	0.2769	0.7231	0.8934	0.116
Mof_O 	O 	0.7325	0.31	0.2325	-0.492
Mof_C 	C 	0.7338	0.3581	0.2338	0.192
Mof_H 	H 	0.723	0.3494	0.223	-0.003
Mof_C 	C 	0.7338	0.3845	0.2338	-0.236
Mof_H 	H 	0.7231	0.3934	0.2231	0.116
Mof_O 	O 	0.7325	0.81	0.7325	-0.492
Mof_C 	C 	0.7338	0.8581	0.7338	0.192
Mof_H 	H 	0.723	0.8494	0.723	-0.003
Mof_C 	C 	0.7338	0.8845	0.7338	-0.236
Mof_H 	H 	0.7231	0.8934	0.7231	0.116
Mof_O 	O 	0.2675	0.19	0.7325	-0.492
Mof_C 	C 	0.2662	0.1419	0.7338	0.192
Mof_H 	H 	0.277	0.1506	0.723	-0.003
Mof_C 	C 	0.2662	0.1155	0.7338	-0.236
Mof_H 	H 	0.2769	0.1066	0.7231	0.116
Mof_O 	O 	0.7325	0.69	0.7675	-0.492
Mof_C 	C 	0.7338	0.6419	0.7662	0.192
Mof_H 	H 	0.723	0.6506	0.777	-0.003
Mof_C 	C 	0.7338	0.6155	0.7662	-0.236
Mof_H 	H 	0.7231	0.6066	0.7769	0.116
Mof_O 	O 	0.7325	0.19	0.2675	-0.492
Mof_C 	C 	0.7338	0.1419	0.2662	0.192
Mof_H 	H 	0.723	0.1506	0.277	-0.003
Mof_C 	C 	0.7338	0.1155	0.2662	-0.236
Mof_H 	H 	0.7231	0.1066	0.2769	0.116
Mof_O 	O 	0.2675	0.31	0.7675	-0.492
Mof_C 	C 	0.2662	0.3581	0.7662	0.192
Mof_H 	H 	0.277	0.3494	0.777	-0.003
Mof_C 	C 	0.2662	0.3845	0.7662	-0.236
Mof_H 	H 	0.2769	0.3934	0.7769	0.116
Mof_O 	O 	0.31	0.7675	0.2675	-0.492
Mof_C 	C 	0.3581	0.7662	0.2662	0.192
Mof_H 	H 	0.3494	0.777	0.277	-0.003
Mof_C 	C 	0.3845	0.7662	0.2662	-0.236
Mof_H 	H 	0.3934	0.7769	0.2769	0.116
Mof_O 	O 	0.81	0.7675	0.7675	-0.492
Mof_C 	C 	0.8581	0.7662	0.7662	0.192
Mof_H 	H 	0.8494	0.777	0.777	-0.003
Mof_C 	C 	0.8845	0.7662	0.7662	-0.236
Mof_H 	H 	0.8934	0.7769	0.7769	0.116
Mof_O 	O 	0.69	0.7675	0.7325	-0.492
Mof_C 	C 	0.6419	0.7662	0.7338	0.192
Mof_H 	H 	0.6506	0.777	0.723	-0.003
Mof_C 	C 	0.6155	0.7662	0.7338	-0.236
Mof_H 	H 	0.6066	0.7769	0.7231	0.116
Mof_O 	O 	0.19	0.7675	0.2325	-0.492
Mof_C 	C 	0.1419	0.7662	0.2338	0.192
Mof_H 	H 	0.1506	0.777	0.223	-0.003
Mof_C 	C 	0.1155	0.7662	0.2338	-0.236
Mof_H 	H 	0.1066	0.7769	0.2231	0.116
Mof_O 	O 	0.19	0.2325	0.7675	-0.492
Mof_C 	C 	0.1419	0.2338	0.7662	0.192
Mof_H 	H 	0.1506	0.223	0.777	-0.003
Mof_C 	C 	0.1155	0.2338	0.7662	-0.236
Mof_H 	H 	0.1066	0.2231	0.7769	0.116
Mof_O 	O 	0.31	0.2325	0.7325	-0.492
Mof_C 	C 	0.3581	0.2338	0.7338	0.192
Mof_H 	H 	0.3494	0.223	0.723	-0.003
Mof_C 	C 	0.3845	0.2338	0.7338	-0.236
Mof_H 	H 	0.3934	0.2231	0.7231	0.116
Mof_O 	O 	0.7675	0.7325	0.69	-0.492
Mof_C 	C 	0.7662	0.7338	0.6419	0.192
Mof_H 	H 	0.777	0.723	0.6506	-0.003
Mof_C 	C 	0.7662	0.7338	0.6155	-0.236
Mof_H 	H 	0.7769	0.7231	0.6066	0.116
Mof_O 	O 	0.7675	0.2325	0.19	-0.492
Mof_C 	C 	0.7662	0.2338	0.1419	0.192
Mof_H 	H 	0.777	0.223	0.1506	-0.003
Mof_C 	C 	0.7662	0.2338	0.1155	-0.236
Mof_H 	H 	0.7769	0.2231	0.1066	0.116
Mof_O 	O 	0.7675	0.2675	0.31	-0.492
Mof_C 	C 	0.7662	0.2662	0.3581	0.192
Mof_H 	H 	0.777	0.277	0.3494	-0.003
Mof_C 	C 	0.7662	0.2662	0.3845	-0.236
Mof_H 	H 	0.7769	0.2769	0.3934	0.116
Mof_O 	O 	0.7675	0.7675	0.81	-0.492
Mof_C 	C 	0.7662	0.7662	0.8581	0.192
Mof_H 	H 	0.777	0.777	0.8494	-0.003
Mof_C 	C 	0.7662	0.7662	0.8845	-0.236
Mof_H 	H 	0.7769	0.7769	0.8934	0.116
Mof_O 	O 	0.2325	0.7325	0.31	-0.492
Mof_C 	C 	0.2338	0.7338	0.3581	0.192
Mof_H 	H 	0.223	0.723	0.3494	-0.003
Mof_C 	C 	0.2338	0.7338	0.3845	-0.236
Mof_H 	H 	0.2231	0.7231	0.3934	0.116
Mof_O 	O 	0.2325	0.7675	0.19	-0.492
Mof_C 	C 	0.2338	0.7662	0.1419	0.192
Mof_H 	H 	0.223	0.777	0.1506	-0.003
Mof_C 	C 	0.2338	0.7662	0.1155	-0.236
Mof_H 	H 	0.2231	0.7769	0.1066	0.116
Mof_Zn	Zn	0.72884	0.22884	0.22884	1.132
Mof_Zn	Zn	0.72884	0.72884	0.72884	1.132
Mof_Zn	Zn	0.27116	0.77116	0.22884	1.132
Mof_Zn	Zn	0.27116	0.27116	0.72884	1.132
Mof_Zn	Zn	0.77116	0.77116	0.72884	1.132
Mof_Zn	Zn	0.27116	0.22884	0.77116	1.132
Mof_Zn	Zn	0.27116	0.72884	0.27116	1.132
Mof_Zn	Zn	0.77116	0.72884	0.77116	1.132
Mof_Zn	Zn	0.72884	0.77116	0.77116	1.132
Mof_Zn	Zn	0.72884	0.27116	0.27116	1.132
Mof_Zn	Zn	0.22884	0.72884	0.22884	1.132
Mof_Zn	Zn	0.22884	0.27116	0.77116	1.132
Mof_Zn	Zn	0.77116	0.27116	0.22884	1.132
Mof_Zn	Zn	0.22884	0.22884	0.72884	1.132
Mof_Zn	Zn	0.77116	0.22884	0.27116	1.132
Mof_Zn	Zn	0.22884	0.77116	0.27116	1.132
Mof_Zn	Zn	0.22884	0.72884	0.77116	1.132
Mof_Zn	Zn	0.72884	0.72884	0.27116	1.132
Mof_Zn	Zn	0.77116	0.27116	0.77116	1.132
Mof_Zn	Zn	0.22884	0.27116	0.22884	1.132
Mof_Zn	Zn	0.22884	0.77116	0.72884	1.132
Mof_Zn	Zn	0.72884	0.77116	0.22884	1.132
Mof_Zn	Zn	0.77116	0.72884	0.22884	1.132
Mof_Zn	Zn	0.72884	0.22884	0.77116	1.132
Mof_Zn	Zn	0.27116	0.22884	0.22884	1.132
Mof_Zn	Zn	0.27116	0.72884	0.72884	1.132
Mof_Zn	Zn	0.77116	0.22884	0.72884	1.132
Mof_Zn	Zn	0.27116	0.77116	0.77116	1.132
Mof_Zn	Zn	0.27116	0.27116	0.27116	1.132
Mof_Zn	Zn	0.72884	0.27116	0.72884	1.132
Mof_Zn	Zn	0.22884	0.22884	0.27116	1.132
Mof_Zn	Zn	0.77116	0.77116	0.27116	1.132
Mof_O 	O 	0.6938	0.2354	0.2354	-0.683
Mof_C 	C 	0.5135	0.23365	0.23365	-0.047
Mof_H 	H 	0.5225	0.2229	0.2229	0.047
Mof_C 	C 	0.6153	0.234	0.234	-0.248
Mof_H 	H 	0.6063	0.2233	0.2233	0.119
Mof_C 	C 	0.6421	0.234	0.234	0.207
Mof_H 	H 	0.6509	0.2233	0.2233	-0.012
Mof_O 	O 	0.6938	0.7354	0.7354	-0.683
Mof_C 	C 	0.5135	0.73365	0.73365	-0.047
Mof_H 	H 	0.5225	0.7229	0.7229	0.047
Mof_C 	C 	0.6153	0.734	0.734	-0.248
Mof_H 	H 	0.6063	0.7233	0.7233	0.119
Mof_C 	C 	0.6421	0.734	0.734	0.207
Mof_H 	H 	0.6509	0.7233	0.7233	-0.012
Mof_O 	O 	0.1938	0.2354	0.7354	-0.683
Mof_C 	C 	0.0135	0.23365	0.73365	-0.047
Mof_H 	H 	0.0225	0.2229	0.7229	0.047
Mof_C 	C 	0.1153	0.234	0.734	-0.248
Mof_H 	H 	0.1063	0.2233	0.7233	0.119
Mof_C 	C 	0.1421	0.234	0.734	0.207
Mof_H 	H 	0.1509	0.2233	0.7233	-0.012
Mof_O 	O 	0.1938	0.7354	0.2354	-0.683
Mof_C 	C 	0.0135	0.73365	0.23365	-0.047
Mof_H 	H 	0.0225	0.7229	0.2229	0.047
Mof_C 	C 	0.1153	0.734	0.234	-0.248
Mof_H 	H 	0.1063	0.7233	0.2233	0.119
Mof_C 	C 	0.1421	0.734	0.234	0.207
Mof_H 	H 	0.1509	0.7233	0.2233	-0.012
Mof_O 	O 	0.3062	0.7646	0.2354	-0.683
Mof_C 	C 	0.4865	0.76635	0.23365	-0.047
Mof_H 	H 	0.4775	0.7771	0.2229	0.047
Mof_C 	C 	0.3847	0.766	0.234	-0.248
Mof_H 	H 	0.3937	0.7767	0.2233	0.119
Mof_C 	C 	0.3579	0.766	0.234	0.207
Mof_H 	H 	0.3491	0.7767	0.2233	-0.012
Mof_O 	O 	0.3062	0.2646	0.7354	-0.683
Mof_C 	C 	0.4865	0.26635	0.73365	-0.047
Mof_H 	H 	0.4775	0.2771	0.7229	0.047
Mof_C 	C 	0.3847	0.266	0.734	-0.248
Mof_H 	H 	0.3937	0.2767	0.7233	0.119
Mof_C 	C 	0.3579	0.266	0.734	0.207
Mof_H 	H 	0.3491	0.2767	0.7233	-0.012
Mof_O 	O 	0.8062	0.7646	0.7354	-0.683
Mof_C 	C 	0.9865	0.76635	0.73365	-0.047
Mof_H 	H 	0.9775	0.7771	0.7229	0.047
Mof_C 	C 	0.8847	0.766	0.734	-0.248
Mof_H 	H 	0.8937	0.7767	0.7233	0.119
Mof_C 	C 	0.8579	0.766	0.734	0.207
Mof_H 	H 	0.8491	0.7767	0.7233	-0.012
Mof_O 	O 	0.8062	0.2646	0.2354	-0.683
Mof_C 	C 	0.9865	0.26635	0.23365	-0.047
Mof_H 	H 	0.9775	0.2771	0.2229	0.047
Mof_C 	C 	0.8847	0.266	0.234	-0.248
Mof_H 	H 	0.8937	0.2767	0.2233	0.119
Mof_C 	C 	0.8579	0.266	0.234	0.207
Mof_H 	H 	0.8491	0.2767	0.2233	-0.012
Mof_O 	O 	0.3062	0.2354	0.7646	-0.683
Mof_C 	C 	0.4865	0.23365	0.76635	-0.047
Mof_H 	H 	0.4775	0.2229	0.7771	0.047
Mof_C 	C 	0.3847	0.234	0.766	-0.248
Mof_H 	H 	0.3937	0.2233	0.7767	0.119
Mof_C 	C 	0.3579	0.234	0.766	0.207
Mof_H 	H 	0.3491	0.2233	0.7767	-0.012
Mof_O 	O 	0.3062	0.7354	0.2646	-0.683
Mof_C 	C 	0.4865	0.73365	0.26635	-0.047
Mof_H 	H 	0.4775	0.7229	0.2771	0.047
Mof_C 	C 	0.3847	0.734	0.266	-0.248
Mof_H 	H 	0.3937	0.7233	0.2767	0.119
Mof_C 	C 	0.3579	0.734	0.266	0.207
Mof_H 	H 	0.3491	0.7233	0.2767	-0.012
Mof_O 	O 	0.8062	0.2354	0.2646	-0.683
Mof_C 	C 	0.9865	0.23365	0.26635	-0.047
Mof_H 	H 	0.9775	0.2229	0.2771	0.047
Mof_C 	C 	0.8847	0.234	0.266	-0.248
Mof_H 	H 	0.8937	0.2233	0.2767	0.119
Mof_C 	C 	0.8579	0.234	0.266	0.207
Mof_H 	H 	0.8491	0.2233	0.2767	-0.012
Mof_O 	O 	0.8062	0.7354	0.7646	-0.683
Mof_C 	C 	0.9865	0.73365	0.76635	-0.047
Mof_H 	H 	0.9775	0.7229	0.7771	0.047
Mof_C 	C 	0.8847	0.734	0.766	-0.248
Mof_H 	H 	0.8937	0.7233	0.7767	0.119
Mof_C 	C 	0.8579	0.734	0.766	0.207
Mof_H 	H 	0.8491	0.7233	0.7767	-0.012
Mof_O 	O 	0.6938	0.7646	0.7646	-0.683
Mof_C 	C 	0.5135	0.76635	0.76635	-0.047
Mof_H 	H 	0.5225	0.7771	0.7771	0.047
Mof_C 	C 	0.6153	0.766	0.766	-0.248
Mof_H 	H 	0.6063	0.7767	0.7767	0.119
Mof_C 	C 	0.6421	0.766	0.766	0.207
Mof_H 	H 	0.6509	0.7767	0.7767	-0.012
Mof_O 	O 	0.6938	0.2646	0.2646	-0.683
Mof_C 	C 	0.5135	0.26635	0.26635	-0.047
Mof_H 	H 	0.5225	0.2771	0.2771	0.047
Mof_C 	C 	0.6153	0.266	0.266	-0.248
Mof_H 	H 	0.6063	0.2767	0.2767	0.119
Mof_C 	C 	0.6421	0.266	0.266	0.207
Mof_H 	H 	0.6509	0.2767	0.2767	-0.012
Mof_O 	O 	0.1938	0.7646	0.2646	-0.683
Mof_C 	C 	0.0135	0.76635	0.26635	-0.047
Mof_H 	H 	0.0225	0.7771	0.2771	0.047
Mof_C 	C 	0.1153	0.766	0.266	-0.248
Mof_H 	H 	0.1063	0.7767	0.2767	0.119
Mof_C 	C 	0.1421	0.766	0.266	0.207
Mof_H 	H 	0.1509	0.7767	0.2767	-0.012
Mof_O 	O 	0.1938	0.2646	0.7646	-0.683
Mof_C 	C 	0.0135	0.26635	0.76635	-0.047
Mof_H 	H 	0.0225	0.2771	0.7771	0.047
Mof_C 	C 	0.1153	0.266	0.766	-0.248
Mof_H 	H 	0.1063	0.2767	0.7767	0.119
Mof_C 	C 	0.1421	0.266	0.766	0.207
Mof_H 	H 	0.1509	0.2767	0.7767	-0.012
Mof_O 	O 	0.2354	0.6938	0.2354	-0.683
Mof_C 	C 	0.23365	0.5135	0.23365	-0.047
Mof_H 	H 	0.2229	0.5225	0.2229	0.047
Mof_C 	C 	0.234	0.6153	0.234	-0.248
Mof_H 	H 	0.2233	0.6063	0.2233	0.119
Mof_C 	C 	0.234	0.6421	0.234	0.207
Mof_H 	H 	0.2233	0.6509	0.2233	-0.012
Mof_O 	O 	0.2354	0.1938	0.7354	-0.683
Mof_C 	C 	0.23365	0.0135	0.73365	-0.047
Mof_H 	H 	0.2229	0.0225	0.7229	0.047
Mof_C 	C 	0.234	0.1153	0.734	-0.248
Mof_H 	H 	0.2233	0.1063	0.7233	0.119
Mof_C 	C 	0.234	0.1421	0.734	0.207
Mof_H 	H 	0.2233	0.1509	0.7233	-0.012
Mof_O 	O 	0.7354	0.6938	0.7354	-0.683
Mof_C 	C 	0.73365	0.5135	0.73365	-0.047
Mof_H 	H 	0.7229	0.5225	0.7229	0.047
Mof_C 	C 	0.734	0.6153	0.734	-0.248
Mof_H 	H 	0.7233	0.6063	0.7233	0.119
Mof_C 	C 	0.734	0.6421	0.734	0.207
Mof_H 	H 	0.7233	0.6509	0.7233	-0.012
Mof_O 	O 	0.7354	0.1938	0.2354	-0.683
Mof_C 	C 	0.73365	0.0135	0.23365	-0.047
Mof_H 	H 	0.7229	0.0225	0.2229	0.047
Mof_C 	C 	0.734	0.1153	0.234	-0.248
Mof_H 	H 	0.7233	0.1063	0.2233	0.119
Mof_C 	C 	0.734	0.1421	0.234	0.207
Mof_H 	H 	0.7233	0.1509	0.2233	-0.012
Mof_O 	O 	0.2354	0.3062	0.7646	-0.683
Mof_C 	C 	0.23365	0.4865	0.76635	-0.047
Mof_H 	H 	0.2229	0.4775	0.7771	0.047
Mof_C 	C 	0.234	0.3847	0.766	-0.248
Mof_H 	H 	0.2233	0.3937	0.7767	0.119
Mof_C 	C 	0.234	0.3579	0.766	0.207
Mof_H 	H 	0.2233	0.3491	0.7767	-0.012
Mof_O 	O 	0.2354	0.8062	0.2646	-0.683
Mof_C 	C 	0.23365	0.9865	0.26635	-0.047
Mof_H 	H 	0.2229	0.9775	0.2771	0.047
Mof_C 	C 	0.234	0.8847	0.266	-0.248
Mof_H 	H 	0.2233	0.8937	0.2767	0.119
Mof_C 	C 	0.234	0.8579	0.266	0.207
Mof_H 	H 	0.2233	0.8491	0.2767	-0.012
Mof_O 	O 	0.7354	0.3062	0.2646	-0.683
Mof_C 	C 	0.73365	0.4865	0.26635	-0.047
Mof_H 	H 	0.7229	0.4775	0.2771	0.047
Mof_C 	C 	0.734	0.3847	0.266	-0.248
Mof_H 	H 	0.7233	0.3937	0.2767	0.119
Mof_C 	C 	0.734	0.3579	0.266	0.207
Mof_H 	H 	0.7233	0.3491	0.2767	-0.012
Mof_O 	O 	0.7354	0.8062	0.7646	-0.683
Mof_C 	C 	0.73365	0.9865	0.76635	-0.047
Mof_H 	H 	0.7229	0.9775	0.7771	0.047
Mof_C 	C 	0.734	0.8847	0.766	-0.248
Mof_H 	H 	0.7233	0.8937	0.7767	0.119
Mof_C 	C 	0.734	0.8579	0.766	0.207
Mof_H 	H 	0.7233	0.8491	0.7767	-0.012
Mof_O 	O 	0.7646	0.3062	0.2354	-0.683
Mof_C 	C 	0.76635	0.4865	0.23365	-0.047
Mof_H 	H 	0.7771	0.4775	0.2229	0.047
Mof_C 	C 	0.766	0.3847	0.234	-0.248
Mof_H 	H 	0.7767	0.3937	0.2233	0.119
Mof_C 	C 	0.766	0.3579	0.234	0.207
Mof_H 	H 	0.7767	0.3491	0.2233	-0.012
Mof_O 	O 	0.7646	0.8062	0.7354	-0.683
Mof_C 	C 	0.76635	0.9865	0.73365	-0.047
Mof_H 	H 	0.7771	0.9775	0.7229	0.047
Mof_C 	C 	0.766	0.8847	0.734	-0.248
Mof_H 	H 	0.7767	0.8937	0.7233	0.119
Mof_C 	C 	0.766	0.8579	0.734	0.207
Mof_H 	H 	0.7767	0.8491	0.7233	-0.012
Mof_O 	O 	0.2646	0.3062	0.7354	-0.683
Mof_C 	C 	0.26635	0.4865	0.73365	-0.047
Mof_H 	H 	0.2771	0.4775	0.7229	0.047
Mof_C 	C 	0.266	0.3847	0.734	-0.248
Mof_H 	H 	0.2767	0.3937	0.7233	0.119
Mof_C 	C 	0.266	0.3579	0.734	0.207
Mof_H 	H 	0.2767	0.3491	0.7233	-0.012
Mof_O 	O 	0.2646	0.8062	0.2354	-0.683
Mof_C 	C 	0.26635	0.9865	0.23365	-0.047
Mof_H 	H 	0.2771	0.9775	0.2229	0.047
Mof_C 	C 	0.266	0.8847	0.234	-0.248
Mof_H 	H 	0.2767	0.8937	0.2233	0.119
Mof_C 	C 	0.266	0.8579	0.234	0.207
Mof_H 	H 	0.2767	0.8491	0.2233	-0.012
Mof_O 	O 	0.7646	0.6938	0.7646	-0.683
Mof_C 	C 	0.76635	0.5135	0.76635	-0.047
Mof_H 	H 	0.7771	0.5225	0.7771	0.047
Mof_C 	C 	0.766	0.6153	0.766	-0.248
Mof_H 	H 	0.7767	0.6063	0.7767	0.119
Mof_C 	C 	0.766	0.6421	0.766	0.207
Mof_H 	H 	0.7767	0.6509	0.7767	-0.012
Mof_O 	O 	0.7646	0.1938	0.2646	-0.683
Mof_C 	C 	0.76635	0.0135	0.26635	-0.047
Mof_H 	H 	0.7771	0.0225	0.2771	0.047
Mof_C 	C 	0.766	0.1153	0.266	-0.248
Mof_H 	H 	0.7767	0.1063	0.2767	0.119
Mof_C 	C 	0.766	0.1421	0.266	0.207
Mof_H 	H 	0.7767	0.1509	0.2767	-0.012
Mof_O 	O 	0.2646	0.6938	0.2646	-0.683
Mof_C 	C 	0.26635	0.5135	0.26635	-0.047
Mof_H 	H 	0.2771	0.5225	0.2771	0.047
Mof_C 	C 	0.266	0.6153	0.266	-0.248
Mof_H 	H 	0.2767	0.6063	0.2767	0.119
Mof_C 	C 	0.266	0.6421	0.266	0.207
Mof_H 	H 	0.2767	0.6509	0.2767	-0.012
Mof_O 	O 	0.2646	0.1938	0.7646	-0.683
Mof_C 	C 	0.26635	0.0135	0.76635	-0.047
Mof_H 	H 	0.2771	0.0225	0.7771	0.047
Mof_C 	C 	0.266	0.1153	0.766	-0.248
Mof_H 	H 	0.2767	0.1063	0.7767	0.119
Mof_C 	C 	0.266	0.1421	0.766	0.207
Mof_H 	H 	0.2767	0.1509	0.7767	-0.012
Mof_O 	O 	0.2354	0.2354	0.6938	-0.683
Mof_C 	C 	0.23365	0.23365	0.5135	-0.047
Mof_H 	H 	0.2229	0.2229	0.5225	0.047
Mof_C 	C 	0.234	0.234	0.6153	-0.248
Mof_H 	H 	0.2233	0.2233	0.6063	0.119
Mof_C 	C 	0.234	0.234	0.6421	0.207
Mof_H 	H 	0.2233	0.2233	0.6509	-0.012
Mof_O 	O 	0.2354	0.7354	0.1938	-0.683
Mof_C 	C 	0.23365	0.73365	0.0135	-0.047
Mof_H 	H 	0.2229	0.7229	0.0225	0.047
Mof_C 	C 	0.234	0.734	0.1153	-0.248
Mof_H 	H 	0.2233	0.7233	0.1063	0.119
Mof_C 	C 	0.234	0.734	0.1421	0.207
Mof_H 	H 	0.2233	0.7233	0.1509	-0.012
Mof_O 	O 	0.7354	0.2354	0.1938	-0.683
Mof_C 	C 	0.73365	0.23365	0.0135	-0.047
Mof_H 	H 	0.7229	0.2229	0.0225	0.047
Mof_C 	C 	0.734	0.234	0.1153	-0.248
Mof_H 	H 	0.7233	0.2233	0.1063	0.119
Mof_C 	C 	0.734	0.234	0.1421	0.207
Mof_H 	H 	0.7233	0.2233	0.1509	-0.012
Mof_O 	O 	0.7354	0.7354	0.6938	-0.683
Mof_C 	C 	0.73365	0.73365	0.5135	-0.047
Mof_H 	H 	0.7229	0.7229	0.5225	0.047
Mof_C 	C 	0.734	0.734	0.6153	-0.248
Mof_H 	H 	0.7233	0.7233	0.6063	0.119
Mof_C 	C 	0.734	0.734	0.6421	0.207
Mof_H 	H 	0.7233	0.7233	0.6509	-0.012
Mof_O 	O 	0.7646	0.2354	0.3062	-0.683
Mof_C 	C 	0.76635	0.23365	0.4865	-0.047
Mof_H 	H 	0.7771	0.2229	0.4775	0.047
Mof_C 	C 	0.766	0.234	0.3847	-0.248
Mof_H 	H 	0.7767	0.2233	0.3937	0.119
Mof_C 	C 	0.766	0.234	0.3579	0.207
Mof_H 	H 	0.7767	0.2233	0.3491	-0.012
Mof_O 	O 	0.7646	0.7354	0.8062	-0.683
Mof_C 	C 	0.76635	0.73365	0.9865	-0.047
Mof_H 	H 	0.7771	0.7229	0.9775	0.047
Mof_C 	C 	0.766	0.734	0.8847	-0.248
Mof_H 	H 	0.7767	0.7233	0.8937	0.119
Mof_C 	C 	0.766	0.734	0.8579	0.207
Mof_H 	H 	0.7767	0.7233	0.8491	-0.012
Mof_O 	O 	0.2646	0.2354	0.8062	-0.683
Mof_C 	C 	0.26635	0.23365	0.9865	-0.047
Mof_H 	H 	0.2771	0.2229	0.9775	0.047
Mof_C 	C 	0.266	0.234	0.8847	-0.248
Mof_H 	H 	0.2767	0.2233	0.8937	0.119
Mof_C 	C 	0.266	0.234	0.8579	0.207
Mof_H 	H 	0.2767	0.2233	0.8491	-0.012
Mof_O 	O 	0.2646	0.7354	0.3062	-0.683
Mof_C 	C 	0.26635	0.73365	0.4865	-0.047
Mof_H 	H 	0.2771	0.7229	0.4775	0.047
Mof_C 	C 	0.266	0.734	0.3847	-0.248
Mof_H 	H 	0.2767	0.7233	0.3937	0.119
Mof_C 	C 	0.266	0.734	0.3579	0.207
Mof_H 	H 	0.2767	0.7233	0.3491	-0.012
Mof_O 	O 	0.2354	0.7646	0.3062	-0.683
Mof_C 	C 	0.23365	0.76635	0.4865	-0.047
Mof_H 	H 	0.2229	0.7771	0.4775	0.047
Mof_C 	C 	0.234	0.766	0.3847	-0.248
Mof_H 	H 	0.2233	0.7767	0.3937	0.119
Mof_C 	C 	0.234	0.766	0.3579	0.207
Mof_H 	H 	0.2233	0.7767	0.3491	-0.012
Mof_O 	O 	0.2354	0.2646	0.8062	-0.683
Mof_C 	C 	0.23365	0.26635	0.9865	-0.047
Mof_H 	H 	0.2229	0.2771	0.9775	0.047
Mof_C 	C 	0.234	0.266	0.8847	-0.248
Mof_H 	H 	0.2233	0.2767	0.8937	0.119
Mof_C 	C 	0.234	0.266	0.8579	0.207
Mof_H 	H 	0.2233	0.2767	0.8491	-0.012
Mof_O 	O 	0.7354	0.7646	0.8062	-0.683
Mof_C 	C 	0.73365	0.76635	0.9865	-0.047
Mof_H 	H 	0.7229	0.7771	0.9775	0.047
Mof_C 	C 	0.734	0.766	0.8847	-0.248
Mof_H 	H 	0.7233	0.7767	0.8937	0.119
Mof_C 	C 	0.734	0.766	0.8579	0.207
Mof_H 	H 	0.7233	0.7767	0.8491	-0.012
Mof_O 	O 	0.7354	0.2646	0.3062	-0.683
Mof_C 	C 	0.73365	0.26635	0.4865	-0.047
Mof_H 	H 	0.7229	0.2771	0.4775	0.047
Mof_C 	C 	0.734	0.266	0.3847	-0.248
Mof_H 	H 	0.7233	0.2767	0.3937	0.119
Mof_C 	C 	0.734	0.266	0.3579	0.207
Mof_H 	H 	0.7233	0.2767	0.3491	-0.012
Mof_O 	O 	0.7646	0.7646	0.6938	-0.683
Mof_C 	C 	0.76635	0.76635	0.5135	-0.047
Mof_H 	H 	0.7771	0.7771	0.5225	0.047
Mof_C 	C 	0.766	0.766	0.6153	-0.248
Mof_H 	H 	0.7767	0.7767	0.6063	0.119
Mof_C 	C 	0.766	0.766	0.6421	0.207
Mof_H 	H 	0.7767	0.7767	0.6509	-0.012
Mof_O 	O 	0.7646	0.2646	0.1938	-0.683
Mof_C 	C 	0.76635	0.26635	0.0135	-0.047
Mof_H 	H 	0.7771	0.2771	0.0225	0.047
Mof_C 	C 	0.766	0.266	0.1153	-0.248
Mof_H 	H 	0.7767	0.2767	0.1063	0.119
Mof_C 	C 	0.766	0.266	0.1421	0.207
Mof_H 	H 	0.7767	0.2767	0.1509	-0.012
Mof_O 	O 	0.2646	0.7646	0.1938	-0.683
Mof_C 	C 	0.26635	0.76635	0.0135	-0.047
Mof_H 	H 	0.2771	0.7771	0.0225	0.047
Mof_C 	C 	0.266	0.766	0.1153	-0.248
Mof_H 	H 	0.2767	0.7767	0.1063	0.119
Mof_C 	C 	0.266	0.766	0.1421	0.207
Mof_H 	H 	0.2767	0.7767	0.1509	-0.012
Mof_O 	O 	0.2646	0.2646	0.6938	-0.683
Mof_C 	C 	0.26635	0.26635	0.5135	-0.047
Mof_H 	H 	0.2771	0.2771	0.5225	0.047
Mof_C 	C 	0.266	0.266	0.6153	-0.248
Mof_H 	H 	0.2767	0.2767	0.6063	0.119
Mof_C 	C 	0.266	0.266	0.6421	0.207
Mof_H 	H 	0.2767	0.2767	0.6509	-0.012
Mof_O 	O 	0.2354	0.6938	0.7646	-0.683
Mof_C 	C 	0.23365	0.5135	0.76635	-0.047
Mof_H 	H 	0.2229	0.5225	0.7771	0.047
Mof_C 	C 	0.234	0.6153	0.766	-0.248
Mof_H 	H 	0.2233	0.6063	0.7767	0.119
Mof_C 	C 	0.234	0.6421	0.766	0.207
Mof_H 	H 	0.2233	0.6509	0.7767	-0.012
Mof_O 	O 	0.2354	0.1938	0.2646	-0.683
Mof_C 	C 	0.23365	0.0135	0.26635	-0.047
Mof_H 	H 	0.2229	0.0225	0.2771	0.047
Mof_C 	C 	0.234	0.1153	0.266	-0.248
Mof_H 	H 	0.2233	0.1063	0.2767	0.119
Mof_C 	C 	0.234	0.1421	0.266	0.207
Mof_H 	H 	0.2233	0.1509	0.2767	-0.012
Mof_O 	O 	0.7354	0.6938	0.2646	-0.683
Mof_C 	C 	0.73365	0.5135	0.26635	-0.047
Mof_H 	H 	0.7229	0.5225	0.2771	0.047
Mof_C 	C 	0.734	0.6153	0.266	-0.248
Mof_H 	H 	0.7233	0.6063	0.2767	0.119
Mof_C 	C 	0.734	0.6421	0.266	0.207
Mof_H 	H 	0.7233	0.6509	0.2767	-0.012
Mof_O 	O 	0.7354	0.1938	0.7646	-0.683
Mof_C 	C 	0.73365	0.0135	0.76635	-0.047
Mof_H 	H 	0.7229	0.0225	0.7771	0.047
Mof_C 	C 	0.734	0.1153	0.766	-0.248
Mof_H 	H 	0.7233	0.1063	0.7767	0.119
Mof_C 	C 	0.734	0.1421	0.766	0.207
Mof_H 	H 	0.7233	0.1509	0.7767	-0.012
Mof_O 	O 	0.7646	0.3062	0.7646	-0.683
Mof_C 	C 	0.76635	0.4865	0.76635	-0.047
Mof_H 	H 	0.7771	0.4775	0.7771	0.047
Mof_C 	C 	0.766	0.3847	0.766	-0.248
Mof_H 	H 	0.7767	0.3937	0.7767	0.119
Mof_C 	C 	0.766	0.3579	0.766	0.207
Mof_H 	H 	0.7767	0.3491	0.7767	-0.012
Mof_O 	O 	0.7646	0.8062	0.2646	-0.683
Mof_C 	C 	0.76635	0.9865	0.26635	-0.047
Mof_H 	H 	0.7771	0.9775	0.2771	0.047
Mof_C 	C 	0.766	0.8847	0.266	-0.248
Mof_H 	H 	0.7767	0.8937	0.2767	0.119
Mof_C 	C 	0.766	0.8579	0.266	0.207
Mof_H 	H 	0.7767	0.8491	0.2767	-0.012
Mof_O 	O 	0.2646	0.3062	0.2646	-0.683
Mof_C 	C 	0.26635	0.4865	0.26635	-0.047
Mof_H 	H 	0.2771	0.4775	0.2771	0.047
Mof_C 	C 	0.266	0.3847	0.266	-0.248
Mof_H 	H 	0.2767	0.3937	0.2767	0.119
Mof_C 	C 	0.266	0.3579	0.266	0.207
Mof_H 	H 	0.2767	0.3491	0.2767	-0.012
Mof_O 	O 	0.2646	0.8062	0.7646	-0.683
Mof_C 	C 	0.26635	0.9865	0.76635	-0.047
Mof_H 	H 	0.2771	0.9775	0.7771	0.047
Mof_C 	C 	0.266	0.8847	0.766	-0.248
Mof_H 	H 	0.2767	0.8937	0.7767	0.119
Mof_C 	C 	0.266	0.8579	0.766	0.207
Mof_H 	H 	0.2767	0.8491	0.7767	-0.012
Mof_O 	O 	0.2354	0.3062	0.2354	-0.683
Mof_C 	C 	0.23365	0.4865	0.23365	-0.047
Mof_H 	H 	0.2229	0.4775	0.2229	0.047
Mof_C 	C 	0.234	0.3847	0.234	-0.248
Mof_H 	H 	0.2233	0.3937	0.2233	0.119
Mof_C 	C 	0.234	0.3579	0.234	0.207
Mof_H 	H 	0.2233	0.3491	0.2233	-0.012
Mof_O 	O 	0.2354	0.8062	0.7354	-0.683
Mof_C 	C 	0.23365	0.9865	0.73365	-0.047
Mof_H 	H 	0.2229	0.9775	0.7229	0.047
Mof_C 	C 	0.234	0.8847	0.734	-0.248
Mof_H 	H 	0.2233	0.8937	0.7233	0.119
Mof_C 	C 	0.234	0.8579	0.734	0.207
Mof_H 	H 	0.2233	0.8491	0.7233	-0.012
Mof_O 	O 	0.7354	0.3062	0.7354	-0.683
Mof_C 	C 	0.73365	0.4865	0.73365	-0.047
Mof_H 	H 	0.7229	0.4775	0.7229	0.047
Mof_C 	C 	0.734	0.3847	0.734	-0.248
Mof_H 	H 	0.7233	0.3937	0.7233	0.119
Mof_C 	C 	0.734	0.3579	0.734	0.207
Mof_H 	H 	0.7233	0.3491	0.7233	-0.012
Mof_O 	O 	0.7354	0.8062	0.2354	-0.683
Mof_C 	C 	0.73365	0.9865	0.23365	-0.047
Mof_H 	H 	0.7229	0.9775	0.2229	0.047
Mof_C 	C 	0.734	0.8847	0.234	-0.248
Mof_H 	H 	0.7233	0.8937	0.2233	0.119
Mof_C 	C 	0.734	0.8579	0.234	0.207
Mof_H 	H 	0.7233	0.8491	0.2233	-0.012
Mof_O 	O 	0.7646	0.6938	0.2354	-0.683
Mof_C 	C 	0.76635	0.5135	0.23365	-0.047
Mof_H 	H 	0.7771	0.5225	0.2229	0.047
Mof_C 	C 	0.766	0.6153	0.234	-0.248
Mof_H 	H 	0.7767	0.6063	0.2233	0.119
Mof_C 	C 	0.766	0.6421	0.234	0.207
Mof_H 	H 	0.7767	0.6509	0.2233	-0.012
Mof_O 	O 	0.7646	0.1938	0.7354	-0.683
Mof_C 	C 	0.76635	0.0135	0.73365	-0.047
Mof_H 	H 	0.7771	0.0225	0.7229	0.047
Mof_C 	C 	0.766	0.1153	0.734	-0.248
Mof_H 	H 	0.7767	0.1063	0.7233	0.119
Mof_C 	C 	0.766	0.1421	0.734	0.207
Mof_H 	H 	0.7767	0.1509	0.7233	-0.012
Mof_O 	O 	0.2646	0.6938	0.7354	-0.683
Mof_C 	C 	0.26635	0.5135	0.73365	-0.047
Mof_H 	H 	0.2771	0.5225	0.7229	0.047
Mof_C 	C 	0.266	0.6153	0.734	-0.248
Mof_H 	H 	0.2767	0.6063	0.7233	0.119
Mof_C 	C 	0.266	0.6421	0.734	0.207
Mof_H 	H 	0.2767	0.6509	0.7233	-0.012
Mof_O 	O 	0.2646	0.1938	0.2354	-0.683
Mof_C 	C 	0.26635	0.0135	0.23365	-0.047
Mof_H 	H 	0.2771	0.0225	0.2229	0.047
Mof_C 	C 	0.266	0.1153	0.234	-0.248
Mof_H 	H 	0.2767	0.1063	0.2233	0.119
Mof_C 	C 	0.266	0.1421	0.234	0.207
Mof_H 	H 	0.2767	0.1509	0.2233	-0.012
Mof_O 	O 	0.6938	0.2354	0.7646	-0.683
Mof_C 	C 	0.5135	0.23365	0.76635	-0.047
Mof_H 	H 	0.5225	0.2229	0.7771	0.047
Mof_C 	C 	0.6153	0.234	0.766	-0.248
Mof_H 	H 	0.6063	0.2233	0.7767	0.119
Mof_C 	C 	0.6421	0.234	0.766	0.207
Mof_H 	H 	0.6509	0.2233	0.7767	-0.012
Mof_O 	O 	0.6938	0.7354	0.2646	-0.683
Mof_C 	C 	0.5135	0.73365	0.26635	-0.047
Mof_H 	H 	0.5225	0.7229	0.2771	0.047
Mof_C 	C 	0.6153	0.734	0.266	-0.248
Mof_H 	H 	0.6063	0.7233	0.2767	0.119
Mof_C 	C 	0.6421	0.734	0.266	0.207
Mof_H 	H 	0.6509	0.7233	0.2767	-0.012
Mof_O 	O 	0.1938	0.2354	0.2646	-0.683
Mof_C 	C 	0.0135	0.23365	0.26635	-0.047
Mof_H 	H 	0.0225	0.2229	0.2771	0.047
Mof_C 	C 	0.1153	0.234	0.266	-0.248
Mof_H 	H 	0.1063	0.2233	0.2767	0.119
Mof_C 	C 	0.1421	0.234	0.266	0.207
Mof_H 	H 	0.1509	0.2233	0.2767	-0.012
Mof_O 	O 	0.1938	0.7354	0.7646	-0.683
Mof_C 	C 	0.0135	0.73365	0.76635	-0.047
Mof_H 	H 	0.0225	0.7229	0.7771	0.047
Mof_C 	C 	0.1153	0.734	0.766	-0.248
Mof_H 	H 	0.1063	0.7233	0.7767	0.119
Mof_C 	C 	0.1421	0.734	0.766	0.207
Mof_H 	H 	0.1509	0.7233	0.7767	-0.012
Mof_O 	O 	0.3062	0.2354	0.2354	-0.683
Mof_C 	C 	0.4865	0.23365	0.23365	-0.047
Mof_H 	H 	0.4775	0.2229	0.2229	0.047
Mof_C 	C 	0.3847	0.234	0.234	-0.248
Mof_H 	H 	0.3937	0.2233	0.2233	0.119
Mof_C 	C 	0.3579	0.234	0.234	0.207
Mof_H 	H 	0.3491	0.2233	0.2233	-0.012
Mof_O 	O 	0.3062	0.7354	0.7354	-0.683
Mof_C 	C 	0.4865	0.73365	0.73365	-0.047
Mof_H 	H 	0.4775	0.7229	0.7229	0.047
Mof_C 	C 	0.3847	0.734	0.734	-0.248
Mof_H 	H 	0.3937	0.7233	0.7233	0.119
Mof_C 	C 	0.3579	0.734	0.734	0.207
Mof_H 	H 	0.3491	0.7233	0.7233	-0.012
Mof_O 	O 	0.8062	0.2354	0.7354	-0.683
Mof_C 	C 	0.9865	0.23365	0.73365	-0.047
Mof_H 	H 	0.9775	0.2229	0.7229	0.047
Mof_C 	C 	0.8847	0.234	0.734	-0.248
Mof_H 	H 	0.8937	0.2233	0.7233	0.119
Mof_C 	C 	0.8579	0.234	0.734	0.207
Mof_H 	H 	0.8491	0.2233	0.7233	-0.012
Mof_O 	O 	0.8062	0.7354	0.2354	-0.683
Mof_C 	C 	0.9865	0.73365	0.23365	-0.047
Mof_H 	H 	0.9775	0.7229	0.2229	0.047
Mof_C 	C 	0.8847	0.734	0.234	-0.248
Mof_H 	H 	0.8937	0.7233	0.2233	0.119
Mof_C 	C 	0.8579	0.734	0.234	0.207
Mof_H 	H 	0.8491	0.7233	0.2233	-0.012
Mof_O 	O 	0.3062	0.7646	0.7646	-0.683
Mof_C 	C 	0.4865	0.76635	0.76635	-0.047
Mof_H 	H 	0.4775	0.7771	0.7771	0.047
Mof_C 	C 	0.3847	0.766	0.766	-0.248
Mof_H 	H 	0.3937	0.7767	0.7767	0.119
Mof_C 	C 	0.3579	0.766	0.766	0.207
Mof_H 	H 	0.3491	0.7767	0.7767	-0.012
Mof_O 	O 	0.3062	0.2646	0.2646	-0.683
Mof_C 	C 	0.4865	0.26635	0.26635	-0.047
Mof_H 	H 	0.4775	0.2771	0.2771	0.047
Mof_C 	C 	0.3847	0.266	0.266	-0.248
Mof_H 	H 	0.3937	0.2767	0.2767	0.119
Mof_C 	C 	0.3579	0.266	0.266	0.207
Mof_H 	H 	0.3491	0.2767	0.2767	-0.012
Mof_O 	O 	0.8062	0.7646	0.2646	-0.683
Mof_C 	C 	0.9865	0.76635	0.26635	-0.047
Mof_H 	H 	0.9775	0.7771	0.2771	0.047
Mof_C 	C 	0.8847	0.766	0.266	-0.248
Mof_H 	H 	0.8937	0.7767	0.2767	0.119
Mof_C 	C 	0.8579	0.766	0.266	0.207
Mof_H 	H 	0.8491	0.7767	0.2767	-0.012
Mof_O 	O 	0.8062	0.2646	0.7646	-0.683
Mof_C 	C 	0.9865	0.26635	0.76635	-0.047
Mof_H 	H 	0.9775	0.2771	0.7771	0.047
Mof_C 	C 	0.8847	0.266	0.766	-0.248
Mof_H 	H 	0.8937	0.2767	0.7767	0.119
Mof_C 	C 	0.8579	0.266	0.766	0.207
Mof_H 	H 	0.8491	0.2767	0.7767	-0.012
Mof_O 	O 	0.6938	0.7646	0.2354	-0.683
Mof_C 	C 	0.5135	0.76635	0.23365	-0.047
Mof_H 	H 	0.5225	0.7771	0.2229	0.047
Mof_C 	C 	0.6153	0.766	0.234	-0.248
Mof_H 	H 	0.6063	0.7767	0.2233	0.119
Mof_C 	C 	0.6421	0.766	0.234	0.207
Mof_H 	H 	0.6509	0.7767	0.2233	-0.012
Mof_O 	O 	0.6938	0.2646	0.7354	-0.683
Mof_C 	C 	0.5135	0.26635	0.73365	-0.047
Mof_H 	H 	0.5225	0.2771	0.7229	0.047
Mof_C 	C 	0.6153	0.266	0.734	-0.248
Mof_H 	H 	0.6063	0.2767	0.7233	0.119
Mof_C 	C 	0.6421	0.266	0.734	0.207
Mof_H 	H 	0.6509	0.2767	0.7233	-0.012
Mof_O 	O 	0.1938	0.7646	0.7354	-0.683
Mof_C 	C 	0.0135	0.76635	0.73365	-0.047
Mof_H 	H 	0.0225	0.7771	0.7229	0.047
Mof_C 	C 	0.1153	0.766	0.734	-0.248
Mof_H 	H 	0.1063	0.7767	0.7233	0.119
Mof_C 	C 	0.1421	0.766	0.734	0.207
Mof_H 	H 	0.1509	0.7767	0.7233	-0.012
Mof_O 	O 	0.1938	0.2646	0.2354	-0.683
Mof_C 	C 	0.0135	0.26635	0.23365	-0.047
Mof_H 	H 	0.0225	0.2771	0.2229	0.047
Mof_C 	C 	0.1153	0.266	0.234	-0.248
Mof_H 	H 	0.1063	0.2767	0.2233	0.119
Mof_C 	C 	0.1421	0.266	0.234	0.207
Mof_H 	H 	0.1509	0.2767	0.2233	-0.012
Mof_O 	O 	0.2354	0.2354	0.3062	-0.683
Mof_C 	C 	0.23365	0.23365	0.4865	-0.047
Mof_H 	H 	0.2229	0.2229	0.4775	0.047
Mof_C 	C 	0.234	0.234	0.3847	-0.248
Mof_H 	H 	0.2233	0.2233	0.3937	0.119
Mof_C 	C 	0.234	0.234	0.3579	0.207
Mof_H 	H 	0.2233	0.2233	0.3491	-0.012
Mof_O 	O 	0.2354	0.7354	0.8062	-0.683
Mof_C 	C 	0.23365	0.73365	0.9865	-0.047
Mof_H 	H 	0.2229	0.7229	0.9775	0.047
Mof_C 	C 	0.234	0.734	0.8847	-0.248
Mof_H 	H 	0.2233	0.7233	0.8937	0.119
Mof_C 	C 	0.234	0.734	0.8579	0.207
Mof_H 	H 	0.2233	0.7233	0.8491	-0.012
Mof_O 	O 	0.7354	0.2354	0.8062	-0.683
Mof_C 	C 	0.73365	0.23365	0.9865	-0.047
Mof_H 	H 	0.7229	0.2229	0.9775	0.047
Mof_C 	C 	0.734	0.234	0.8847	-0.248
Mof_H 	H 	0.7233	0.2233	0.8937	0.119
Mof_C 	C 	0.734	0.234	0.8579	0.207
Mof_H 	H 	0.7233	0.2233	0.8491	-0.012
Mof_O 	O 	0.7354	0.7354	0.3062	-0.683
Mof_C 	C 	0.73365	0.73365	0.4865	-0.047
Mof_H 	H 	0.7229	0.7229	0.4775	0.047
Mof_C 	C 	0.734	0.734	0.3847	-0.248
Mof_H 	H 	0.7233	0.7233	0.3937	0.119
Mof_C 	C 	0.734	0.734	0.3579	0.207
Mof_H 	H 	0.7233	0.7233	0.3491	-0.012
Mof_O 	O 	0.2354	0.7646	0.6938	-0.683
Mof_C 	C 	0.23365	0.76635	0.5135	-0.047
Mof_H 	H 	0.2229	0.7771	0.5225	0.047
Mof_C 	C 	0.234	0.766	0.6153	-0.248
Mof_H 	H 	0.2233	0.7767	0.6063	0.119
Mof_C 	C 	0.234	0.766	0.6421	0.207
Mof_H 	H 	0.2233	0.7767	0.6509	-0.012
Mof_O 	O 	0.2354	0.2646	0.1938	-0.683
Mof_C 	C 	0.23365	0.26635	0.0135	-0.047
Mof_H 	H 	0.2229	0.2771	0.0225	0.047
Mof_C 	C 	0.234	0.266	0.1153	-0.248
Mof_H 	H 	0.2233	0.2767	0.1063	0.119
Mof_C 	C 	0.234	0.266	0.1421	0.207
Mof_H 	H 	0.2233	0.2767	0.1509	-0.012
Mof_O 	O 	0.7354	0.7646	0.1938	-0.683
Mof_C 	C 	0.73365	0.76635	0.0135	-0.047
Mof_H 	H 	0.7229	0.7771	0.0225	0.047
Mof_C 	C 	0.734	0.766	0.1153	-0.248
Mof_H 	H 	0.7233	0.7767	0.1063	0.119
Mof_C 	C 	0.734	0.766	0.1421	0.207
Mof_H 	H 	0.7233	0.7767	0.1509	-0.012
Mof_O 	O 	0.7354	0.2646	0.6938	-0.683
Mof_C 	C 	0.73365	0.26635	0.5135	-0.047
Mof_H 	H 	0.7229	0.2771	0.5225	0.047
Mof_C 	C 	0.734	0.266	0.6153	-0.248
Mof_H 	H 	0.7233	0.2767	0.6063	0.119
Mof_C 	C 	0.734	0.266	0.6421	0.207
Mof_H 	H 	0.7233	0.2767	0.6509	-0.012
Mof_O 	O 	0.7646	0.2354	0.6938	-0.683
Mof_C 	C 	0.76635	0.23365	0.5135	-0.047
Mof_H 	H 	0.7771	0.2229	0.5225	0.047
Mof_C 	C 	0.766	0.234	0.6153	-0.248
Mof_H 	H 	0.7767	0.2233	0.6063	0.119
Mof_C 	C 	0.766	0.234	0.6421	0.207
Mof_H 	H 	0.7767	0.2233	0.6509	-0.012
Mof_O 	O 	0.7646	0.7354	0.1938	-0.683
Mof_C 	C 	0.76635	0.73365	0.0135	-0.047
Mof_H 	H 	0.7771	0.7229	0.0225	0.047
Mof_C 	C 	0.766	0.734	0.1153	-0.248
Mof_H 	H 	0.7767	0.7233	0.1063	0.119
Mof_C 	C 	0.766	0.734	0.1421	0.207
Mof_H 	H 	0.7767	0.7233	0.1509	-0.012
Mof_O 	O 	0.2646	0.2354	0.1938	-0.683
Mof_C 	C 	0.26635	0.23365	0.0135	-0.047
Mof_H 	H 	0.2771	0.2229	0.0225	0.047
Mof_C 	C 	0.266	0.234	0.1153	-0.248
Mof_H 	H 	0.2767	0.2233	0.1063	0.119
Mof_C 	C 	0.266	0.234	0.1421	0.207
Mof_H 	H 	0.2767	0.2233	0.1509	-0.012
Mof_O 	O 	0.2646	0.7354	0.6938	-0.683
Mof_C 	C 	0.26635	0.73365	0.5135	-0.047
Mof_H 	H 	0.2771	0.7229	0.5225	0.047
Mof_C 	C 	0.266	0.734	0.6153	-0.248
Mof_H 	H 	0.2767	0.7233	0.6063	0.119
Mof_C 	C 	0.266	0.734	0.6421	0.207
Mof_H 	H 	0.2767	0.7233	0.6509	-0.012
Mof_O 	O 	0.7646	0.7646	0.3062	-0.683
Mof_C 	C 	0.76635	0.76635	0.4865	-0.047
Mof_H 	H 	0.7771	0.7771	0.4775	0.047
Mof_C 	C 	0.766	0.766	0.3847	-0.248
Mof_H 	H 	0.7767	0.7767	0.3937	0.119
Mof_C 	C 	0.766	0.766	0.3579	0.207
Mof_H 	H 	0.7767	0.7767	0.3491	-0.012
Mof_O 	O 	0.7646	0.2646	0.8062	-0.683
Mof_C 	C 	0.76635	0.26635	0.9865	-0.047
Mof_H 	H 	0.7771	0.2771	0.9775	0.047
Mof_C 	C 	0.766	0.266	0.8847	-0.248
Mof_H 	H 	0.7767	0.2767	0.8937	0.119
Mof_C 	C 	0.766	0.266	0.8579	0.207
Mof_H 	H 	0.7767	0.2767	0.8491	-0.012
Mof_O 	O 	0.2646	0.7646	0.8062	-0.683
Mof_C 	C 	0.26635	0.76635	0.9865	-0.047
Mof_H 	H 	0.2771	0.7771	0.9775	0.047
Mof_C 	C 	0.266	0.766	0.8847	-0.248
Mof_H 	H 	0.2767	0.7767	0.8937	0.119
Mof_C 	C 	0.266	0.766	0.8579	0.207
Mof_H 	H 	0.2767	0.7767	0.8491	-0.012
Mof_O 	O 	0.2646	0.2646	0.3062	-0.683
Mof_C 	C 	0.26635	0.26635	0.4865	-0.047
Mof_H 	H 	0.2771	0.2771	0.4775	0.047
Mof_C 	C 	0.266	0.266	0.3847	-0.248
Mof_H 	H 	0.2767	0.2767	0.3937	0.119
Mof_C 	C 	0.266	0.266	0.3579	0.207
Mof_H 	H 	0.2767	0.2767	0.3491	-0.012
Mof_O 	O 	0.75	0.25	0.25	-1.552
Mof_O 	O 	0.25	0.75	0.25	-1.552
Mof_O 	O 	0.25	0.25	0.75	-1.552
Mof_O 	O 	0.75	0.75	0.75	-1.552
Mof_O 	O 	0.25	0.75	0.75	-1.552
Mof_O 	O 	0.75	0.25	0.75	-1.552
Mof_O 	O 	0.25	0.25	0.25	-1.552
Mof_O 	O 	0.75	0.75	0.25	-1.552
Mof_C 	C 	0.6838	0.25	0.25	1.068
Mof_C 	C 	0.6551	0.25	0.25	-0.473
Mof_C 	C 	0.6028	0.25	0.25	0.366
Mof_C 	C 	0.5757	0.25	0.25	-0.182
Mof_C 	C 	0.5544	0.25	0.25	0.076
Mof_C 	C 	0.5263	0.25	0.25	-0.01
Mof_C 	C 	0.1838	0.25	0.75	1.068
Mof_C 	C 	0.1551	0.25	0.75	-0.473
Mof_C 	C 	0.1028	0.25	0.75	0.366
Mof_C 	C 	0.0757	0.25	0.75	-0.182
Mof_C 	C 	0.0544	0.25	0.75	0.076
Mof_C 	C 	0.0263	0.25	0.75	-0.01
Mof_C 	C 	0.3162	0.75	0.25	1.068
Mof_C 	C 	0.3449	0.75	0.25	-0.473
Mof_C 	C 	0.3972	0.75	0.25	0.366
Mof_C 	C 	0.4243	0.75	0.25	-0.182
Mof_C 	C 	0.4456	0.75	0.25	0.076
Mof_C 	C 	0.4737	0.75	0.25	-0.01
Mof_C 	C 	0.8162	0.75	0.75	1.068
Mof_C 	C 	0.8449	0.75	0.75	-0.473
Mof_C 	C 	0.8972	0.75	0.75	0.366
Mof_C 	C 	0.9243	0.75	0.75	-0.182
Mof_C 	C 	0.9456	0.75	0.75	0.076
Mof_C 	C 	0.9737	0.75	0.75	-0.01
Mof_C 	C 	0.8162	0.25	0.25	1.068
Mof_C 	C 	0.8449	0.25	0.25	-0.473
Mof_C 	C 	0.8972	0.25	0.25	0.366
Mof_C 	C 	0.9243	0.25	0.25	-0.182
Mof_C 	C 	0.9456	0.25	0.25	0.076
Mof_C 	C 	0.9737	0.25	0.25	-0.01
Mof_C 	C 	0.3162	0.25	0.75	1.068
Mof_C 	C 	0.3449	0.25	0.75	-0.473
Mof_C 	C 	0.3972	0.25	0.75	0.366
Mof_C 	C 	0.4243	0.25	0.75	-0.182
Mof_C 	C 	0.4456	0.25	0.75	0.076
Mof_C 	C 	0.4737	0.25	0.75	-0.01
Mof_C 	C 	0.6838	0.75	0.75	1.068
Mof_C 	C 	0.6551	0.75	0.75	-0.473
Mof_C 	C 	0.6028	0.75	0.75	0.366
Mof_C 	C 	0.5757	0.75	0.75	-0.182
Mof_C 	C 	0.5544	0.75	0.75	0.076
Mof_C 	C 	0.5263	0.75	0.75	-0.01
Mof_C 	C 	0.1838	0.75	0.25	1.068
Mof_C 	C 	0.1551	0.75	0.25	-0.473
Mof_C 	C 	0.1028	0.75	0.25	0.366
Mof_C 	C 	0.0757	0.75	0.25	-0.182
Mof_C 	C 	0.0544	0.75	0.25	0.076
Mof_C 	C 	0.0263	0.75	0.25	-0.01
Mof_C 	C 	0.25	0.6838	0.25	1.068
Mof_C 	C 	0.25	0.6551	0.25	-0.473
Mof_C 	C 	0.25	0.6028	0.25	0.366
Mof_C 	C 	0.25	0.5757	0.25	-0.182
Mof_C 	C 	0.25	0.5544	0.25	0.076
Mof_C 	C 	0.25	0.5263	0.25	-0.01
Mof_C 	C 	0.25	0.1838	0.75	1.068
Mof_C 	C 	0.25	0.1551	0.75	-0.473
Mof_C 	C 	0.25	0.1028	0.75	0.366
Mof_C 	C 	0.25	0.0757	0.75	-0.182
Mof_C 	C 	0.25	0.0544	0.75	0.076
Mof_C 	C 	0.25	0.0263	0.75	-0.01
Mof_C 	C 	0.25	0.3162	0.75	1.068
Mof_C 	C 	0.25	0.3449	0.75	-0.473
Mof_C 	C 	0.25	0.3972	0.75	0.366
Mof_C 	C 	0.25	0.4243	0.75	-0.182
Mof_C 	C 	0.25	0.4456	0.75	0.076
Mof_C 	C 	0.25	0.4737	0.75	-0.01
Mof_C 	C 	0.25	0.8162	0.25	1.068
Mof_C 	C 	0.25	0.8449	0.25	-0.473
Mof_C 	C 	0.25	0.8972	0.25	0.366
Mof_C 	C 	0.25	0.9243	0.25	-0.182
Mof_C 	C 	0.25	0.9456	0.25	0.076
Mof_C 	C 	0.25	0.9737	0.25	-0.01
Mof_C 	C 	0.75	0.3162	0.25	1.068
Mof_C 	C 	0.75	0.3449	0.25	-0.473
Mof_C 	C 	0.75	0.3972	0.25	0.366
Mof_C 	C 	0.75	0.4243	0.25	-0.182
Mof_C 	C 	0.75	0.4456	0.25	0.076
Mof_C 	C 	0.75	0.4737	0.25	-0.01
Mof_C 	C 	0.75	0.8162	0.75	1.068
Mof_C 	C 	0.75	0.8449	0.75	-0.473
Mof_C 	C 	0.75	0.8972	0.75	0.366
Mof_C 	C 	0.75	0.9243	0.75	-0.182
Mof_C 	C 	0.75	0.9456	0.75	0.076
Mof_C 	C 	0.75	0.9737	0.75	-0.01
Mof_C 	C 	0.75	0.6838	0.75	1.068
Mof_C 	C 	0.75	0.6551	0.75	-0.473
Mof_C 	C 	0.75	0.6028	0.75	0.366
Mof_C 	C 	0.75	0.5757	0.75	-0.182
Mof_C 	C 	0.75	0.5544	0.75	0.076
Mof_C 	C 	0.75	0.5263	0.75	-0.01
Mof_C 	C 	0.75	0.1838	0.25	1.068
Mof_C 	C 	0.75	0.1551	0.25	-0.473
Mof_C 	C 	0.75	0.1028	0.25	0.366
Mof_C 	C 	0.75	0.0757	0.25	-0.182
Mof_C 	C 	0.75	0.0544	0.25	0.076
Mof_C 	C 	0.75	0.0263	0.25	-0.01
Mof_C 	C 	0.25	0.25	0.6838	1.068
Mof_C 	C 	0.25	0.25	0.6551	-0.473
Mof_C 	C 	0.25	0.25	0.6028	0.366
Mof_C 	C 	0.25	0.25	0.5757	-0.182
Mof_C 	C 	0.25	0.25	0.5544	0.076
Mof_C 	C 	0.25	0.25	0.5263	-0.01
Mof_C 	C 	0.25	0.75	0.1838	1.068
Mof_C 	C 	0.25	0.75	0.1551	-0.473
Mof_C 	C 	0.25	0.75	0.1028	0.366
Mof_C 	C 	0.25	0.75	0.0757	-0.182
Mof_C 	C 	0.25	0.75	0.0544	0.076
Mof_C 	C 	0.25	0.75	0.0263	-0.01
Mof_C 	C 	0.75	0.25	0.3162	1.068
Mof_C 	C 	0.75	0.25	0.3449	-0.473
Mof_C 	C 	0.75	0.25	0.3972	0.366
Mof_C 	C 	0.75	0.25	0.4243	-0.182
Mof_C 	C 	0.75	0.25	0.4456	0.076
Mof_C 	C 	0.75	0.25	0.4737	-0.01
Mof_C 	C 	0.75	0.75	0.8162	1.068
Mof_C 	C 	0.75	0.75	0.8449	-0.473
Mof_C 	C 	0.75	0.75	0.8972	0.366
Mof_C 	C 	0.75	0.75	0.9243	-0.182
Mof_C 	C 	0.75	0.75	0.9456	0.076
Mof_C 	C 	0.75	0.75	0.9737	-0.01
Mof_C 	C 	0.25	0.25	0.8162	1.068
Mof_C 	C 	0.25	0.25	0.8449	-0.473
Mof_C 	C 	0.25	0.25	0.8972	0.366
Mof_C 	C 	0.25	0.25	0.9243	-0.182
Mof_C 	C 	0.25	0.25	0.9456	0.076
Mof_C 	C 	0.25	0.25	0.9737	-0.01
Mof_C 	C 	0.25	0.75	0.3162	1.068
Mof_C 	C 	0.25	0.75	0.3449	-0.473
Mof_C 	C 	0.25	0.75	0.3972	0.366
Mof_C 	C 	0.25	0.75	0.4243	-0.182
Mof_C 	C 	0.25	0.75	0.4456	0.076
Mof_C 	C 	0.25	0.75	0.4737	-0.01
Mof_C 	C 	0.75	0.75	0.6838	1.068
Mof_C 	C 	0.75	0.75	0.6551	-0.473
Mof_C 	C 	0.75	0.75	0.6028	0.366
Mof_C 	C 	0.75	0.75	0.5757	-0.182
Mof_C 	C 	0.75	0.75	0.5544	0.076
Mof_C 	C 	0.75	0.75	0.5263	-0.01
Mof_C 	C 	0.75	0.25	0.1838	1.068
Mof_C 	C 	0.75	0.25	0.1551	-0.473
Mof_C 	C 	0.75	0.25	0.1028	0.366
Mof_C 	C 	0.75	0.25	0.0757	-0.182
Mof_C 	C 	0.75	0.25	0.0544	0.076
Mof_C 	C 	0.75	0.25	0.0263	-0.01
Mof_C 	C 	0.25	0.6838	0.75	1.068
Mof_C 	C 	0.25	0.6551	0.75	-0.473
Mof_C 	C 	0.25	0.6028	0.75	0.366
Mof_C 	C 	0.25	0.5757	0.75	-0.182
Mof_C 	C 	0.25	0.5544	0.75	0.076
Mof_C 	C 	0.25	0.5263	0.75	-0.01
Mof_C 	C 	0.25	0.1838	0.25	1.068
Mof_C 	C 	0.25	0.1551	0.25	-0.473
Mof_C 	C 	0.25	0.1028	0.25	0.366
Mof_C 	C 	0.25	0.0757	0.25	-0.182
Mof_C 	C 	0.25	0.0544	0.25	0.076
Mof_C 	C 	0.25	0.0263	0.25	-0.01
Mof_C 	C 	0.75	0.3162	0.75	1.068
Mof_C 	C 	0.75	0.3449	0.75	-0.473
Mof_C 	C 	0.75	0.3972	0.75	0.366
Mof_C 	C 	0.75	0.4243	0.75	-0.182
Mof_C 	C 	0.75	0.4456	0.75	0.076
Mof_C 	C 	0.75	0.4737	0.75	-0.01
Mof_C 	C 	0.75	0.8162	0.25	1.068
Mof_C 	C 	0.75	0.8449	0.25	-0.473
Mof_C 	C 	0.75	0.8972	0.25	0.366
Mof_C 	C 	0.75	0.9243	0.25	-0.182
Mof_C 	C 	0.75	0.9456	0.25	0.076
Mof_C 	C 	0.75	0.9737	0.25	-0.01
Mof_C 	C 	0.25	0.3162	0.25	1.068
Mof_C 	C 	0.25	0.3449	0.25	-0.473
Mof_C 	C 	0.25	0.3972	0.25	0.366
Mof_C 	C 	0.25	0.4243	0.25	-0.182
Mof_C 	C 	0.25	0.4456	0.25	0.076
Mof_C 	C 	0.25	0.4737	0.25	-0.01
Mof_C 	C 	0.25	0.8162	0.75	1.068
Mof_C 	C 	0.25	0.8449	0.75	-0.473
Mof_C 	C 	0.25	0.8972	0.75	0.366
Mof_C 	C 	0.25	0.9243	0.75	-0.182
Mof_C 	C 	0.25	0.9456	0.75	0.076
Mof_C 	C 	0.25	0.9737	0.75	-0.01
Mof_C 	C 	0.75	0.6838	0.25	1.068
Mof_C 	C 	0.75	0.6551	0.25	-0.473
Mof_C 	C 	0.75	0.6028	0.25	0.366
Mof_C 	C 	0.75	0.5757	0.25	-0.182
Mof_C 	C 	0.75	0.5544	0.25	0.076
Mof_C 	C 	0.75	0.5263	0.25	-0.01
Mof_C 	C 	0.75	0.1838	0.75	1.068
Mof_C 	C 	0.75	0.1551	0.75	-0.473
Mof_C 	C 	0.75	0.1028	0.75	0.366
Mof_C 	C 	0.75	0.0757	0.75	-0.182
Mof_C 	C 	0.75	0.0544	0.75	0.076
Mof_C 	C 	0.75	0.0263	0.75	-0.01
Mof_C 	C 	0.6838	0.25	0.75	1.068
Mof_C 	C 	0.6551	0.25	0.75	-0.473
Mof_C 	C 	0.6028	0.25	0.75	0.366
Mof_C 	C 	0.5757	0.25	0.75	-0.182
Mof_C 	C 	0.5544	0.25	0.75	0.076
Mof_C 	C 	0.5263	0.25	0.75	-0.01
Mof_C 	C 	0.1838	0.25	0.25	1.068
Mof_C 	C 	0.1551	0.25	0.25	-0.473
Mof_C 	C 	0.1028	0.25	0.25	0.366
Mof_C 	C 	0.0757	0.25	0.25	-0.182
Mof_C 	C 	0.0544	0.25	0.25	0.076
Mof_C 	C 	0.0263	0.25	0.25	-0.01
Mof_C 	C 	0.3162	0.25	0.25	1.068
Mof_C 	C 	0.3449	0.25	0.25	-0.473
Mof_C 	C 	0.3972	0.25	0.25	0.366
Mof_C 	C 	0.4243	0.25	0.25	-0.182
Mof_C 	C 	0.4456	0.25	0.25	0.076
Mof_C 	C 	0.4737	0.25	0.25	-0.01
Mof_C 	C 	0.8162	0.25	0.75	1.068
Mof_C 	C 	0.8449	0.25	0.75	-0.473
Mof_C 	C 	0.8972	0.25	0.75	0.366
Mof_C 	C 	0.9243	0.25	0.75	-0.182
Mof_C 	C 	0.9456	0.25	0.75	0.076
Mof_C 	C 	0.9737	0.25	0.75	-0.01
Mof_C 	C 	0.3162	0.75	0.75	1.068
Mof_C 	C 	0.3449	0.75	0.75	-0.473
Mof_C 	C 	0.3972	0.75	0.75	0.366
Mof_C 	C 	0.4243	0.75	0.75	-0.182
Mof_C 	C 	0.4456	0.75	0.75	0.076
Mof_C 	C 	0.4737	0.75	0.75	-0.01
Mof_C 	C 	0.8162	0.75	0.25	1.068
Mof_C 	C 	0.8449	0.75	0.25	-0.473
Mof_C 	C 	0.8972	0.75	0.25	0.366
Mof_C 	C 	0.9243	0.75	0.25	-0.182
Mof_C 	C 	0.9456	0.75	0.25	0.076
Mof_C 	C 	0.9737	0.75	0.25	-0.01
Mof_C 	C 	0.6838	0.75	0.25	1.068
Mof_C 	C 	0.6551	0.75	0.25	-0.473
Mof_C 	C 	0.6028	0.75	0.25	0.366
Mof_C 	C 	0.5757	0.75	0.25	-0.182
Mof_C 	C 	0.5544	0.75	0.25	0.076
Mof_C 	C 	0.5263	0.75	0.25	-0.01
Mof_C 	C 	0.1838	0.75	0.75	1.068
Mof_C 	C 	0.1551	0.75	0.75	-0.473
Mof_C 	C 	0.1028	0.75	0.75	0.366
Mof_C 	C 	0.0757	0.75	0.75	-0.182
Mof_C 	C 	0.0544	0.75	0.75	0.076
Mof_C 	C 	0.0263	0.75	0.75	-0.01
Mof_C 	C 	0.25	0.25	0.3162	1.068
Mof_C 	C 	0.25	0.25	0.3449	-0.473
Mof_C 	C 	0.25	0.25	0.3972	0.366
Mof_C 	C 	0.25	0.25	0.4243	-0.182
Mof_C 	C 	0.25	0.25	0.4456	0.076
Mof_C 	C 	0.25	0.25	0.4737	-0.01
Mof_C 	C 	0.25	0.75	0.8162	1.068
Mof_C 	C 	0.25	0.75	0.8449	-0.473
Mof_C 	C 	0.25	0.75	0.8972	0.366
Mof_C 	C 	0.25	0.75	0.9243	-0.182
Mof_C 	C 	0.25	0.75	0.9456	0.076
Mof_C 	C 	0.25	0.75	0.9737	-0.01
Mof_C 	C 	0.25	0.75	0.6838	1.068
Mof_C 	C 	0.25	0.75	0.6551	-0.473
Mof_C 	C 	0.25	0.75	0.6028	0.366
Mof_C 	C 	0.25	0.75	0.5757	-0.182
Mof_C 	C 	0.25	0.75	0.5544	0.076
Mof_C 	C 	0.25	0.75	0.5263	-0.01
Mof_C 	C 	0.25	0.25	0.1838	1.068
Mof_C 	C 	0.25	0.25	0.1551	-0.473
Mof_C 	C 	0.25	0.25	0.1028	0.366
Mof_C 	C 	0.25	0.25	0.0757	-0.182
Mof_C 	C 	0.25	0.25	0.0544	0.076
Mof_C 	C 	0.25	0.25	0.0263	-0.01
Mof_C 	C 	0.75	0.25	0.6838	1.068
Mof_C 	C 	0.75	0.25	0.6551	-0.473
Mof_C 	C 	0.75	0.25	0.6028	0.366
Mof_C 	C 	0.75	0.25	0.5757	-0.182
Mof_C 	C 	0.75	0.25	0.5544	0.076
Mof_C 	C 	0.75	0.25	0.5263	-0.01
Mof_C 	C 	0.75	0.75	0.1838	1.068
Mof_C 	C 	0.75	0.75	0.1551	-0.473
Mof_C 	C 	0.75	0.75	0.1028	0.366
Mof_C 	C 	0.75	0.75	0.0757	-0.182
Mof_C 	C 	0.75	0.75	0.0544	0.076
Mof_C 	C 	0.75	0.75	0.0263	-0.01
Mof_C 	C 	0.75	0.75	0.3162	1.068
Mof_C 	C 	0.75	0.75	0.3449	-0.473
Mof_C 	C 	0.75	0.75	0.3972	0.366
Mof_C 	C 	0.75	0.75	0.4243	-0.182
Mof_C 	C 	0.75	0.75	0.4456	0.076
Mof_C 	C 	0.75	0.75	0.4737	-0.01
Mof_C 	C 	0.75	0.25	0.8162	1.068
Mof_C 	C 	0.75	0.25	0.8449	-0.473
Mof_C 	C 	0.75	0.25	0.8972	0.366
Mof_C 	C 	0.75	0.25	0.9243	-0.182
Mof_C 	C 	0.75	0.25	0.9456	0.076
Mof_C 	C 	0.75	0.25	0.9737	-0.01
_end
