data_functionalizedCrystal
_audit_creation_method	'EQeq! by Chris Wilmer'
_symmetry_space_group_name_H-M	'P1'
_symmetry_Int_Tables_number	1
_symmetry_cell_setting	triclinic
loop_
_symmetry_equiv_pos_as_xyz
  x,y,z
_cell_length_a	21.781
_cell_length_b	21.781
_cell_length_c	16.101
_cell_angle_alpha	90
_cell_angle_beta	90
_cell_angle_gamma	90
loop_
_atom_site_label
_atom_site_type_symbol
_atom_site_fract_x
_atom_site_fract_y
_atom_site_fract_z
_atom_site_charge
Mof_Er	Er	0.88335	0.4162	0.12396	1.464
Mof_O 	O 	0.777	0.4268	0.1527	-0.464
Mof_O 	O 	0.7451	0.3891	0.2745	-0.479
Mof_O 	O 	0.4757	0.414	0.3026	-0.5
Mof_O 	O 	0.5593	0.3738	0.3616	-0.476
Mof_N 	N 	0.6315	0.4185	0.2478	-0.174
Mof_C 	C 	0.6716	0.4367	0.1901	-0.068
Mof_C 	C 	0.6539	0.47	0.122	-0.004
Mof_H 	H 	0.6824	0.4812	0.0818	0.024
Mof_C 	C 	0.5925	0.4869	0.1141	-0.085
Mof_H 	H 	0.5795	0.5108	0.0696	0.042
Mof_C 	C 	0.5515	0.4674	0.1737	0.005
Mof_H 	H 	0.5102	0.4778	0.1698	0.012
Mof_C 	C 	0.5724	0.4319	0.2396	-0.083
Mof_C 	C 	0.7371	0.4162	0.2057	0.387
Mof_C 	C 	0.5322	0.4052	0.3058	0.392
Mof_Er	Er	0.38335	0.9162	0.62396	1.465
Mof_O 	O 	0.277	0.9268	0.6527	-0.463
Mof_O 	O 	0.2451	0.8891	0.7745	-0.478
Mof_O 	O 	0.9757	0.914	0.8026	-0.499
Mof_O 	O 	0.0593	0.8738	0.8616	-0.475
Mof_N 	N 	0.1315	0.9185	0.7478	-0.173
Mof_C 	C 	0.1716	0.9367	0.6901	-0.067
Mof_C 	C 	0.1539	0.97	0.622	-0.004
Mof_H 	H 	0.1824	0.9812	0.5818	0.024
Mof_C 	C 	0.0925	0.9869	0.6141	-0.084
Mof_H 	H 	0.0795	0.0108	0.5696	0.042
Mof_C 	C 	0.0515	0.9674	0.6737	0.004
Mof_H 	H 	0.0102	0.9778	0.6698	0.012
Mof_C 	C 	0.0724	0.9319	0.7396	-0.083
Mof_C 	C 	0.2371	0.9162	0.7057	0.387
Mof_C 	C 	0.0322	0.9052	0.8058	0.392
Mof_Er	Er	0.61665	0.5838	0.62396	1.465
Mof_O 	O 	0.723	0.5732	0.6527	-0.463
Mof_O 	O 	0.7549	0.6109	0.7745	-0.478
Mof_O 	O 	0.0243	0.586	0.8026	-0.499
Mof_O 	O 	0.9407	0.6262	0.8616	-0.475
Mof_N 	N 	0.8685	0.5815	0.7478	-0.173
Mof_C 	C 	0.8284	0.5633	0.6901	-0.067
Mof_C 	C 	0.8461	0.53	0.622	-0.003
Mof_H 	H 	0.8176	0.5188	0.5818	0.024
Mof_C 	C 	0.9075	0.5131	0.6141	-0.085
Mof_H 	H 	0.9205	0.4892	0.5696	0.042
Mof_C 	C 	0.9485	0.5326	0.6737	0.005
Mof_H 	H 	0.9898	0.5222	0.6698	0.011
Mof_C 	C 	0.9276	0.5681	0.7396	-0.083
Mof_C 	C 	0.7629	0.5838	0.7057	0.387
Mof_C 	C 	0.9678	0.5948	0.8058	0.392
Mof_Er	Er	0.11665	0.0838	0.12396	1.465
Mof_O 	O 	0.223	0.0732	0.1527	-0.463
Mof_O 	O 	0.2549	0.1109	0.2745	-0.478
Mof_O 	O 	0.5243	0.086	0.3026	-0.499
Mof_O 	O 	0.4407	0.1262	0.3616	-0.475
Mof_N 	N 	0.3685	0.0815	0.2478	-0.174
Mof_C 	C 	0.3284	0.0633	0.1901	-0.066
Mof_C 	C 	0.3461	0.03	0.122	-0.004
Mof_H 	H 	0.3176	0.0188	0.0818	0.024
Mof_C 	C 	0.4075	0.0131	0.1141	-0.083
Mof_H 	H 	0.4205	0.9892	0.0696	0.042
Mof_C 	C 	0.4485	0.0326	0.1737	0.004
Mof_H 	H 	0.4898	0.0222	0.1698	0.012
Mof_C 	C 	0.4276	0.0681	0.2396	-0.082
Mof_C 	C 	0.2629	0.0838	0.2057	0.387
Mof_C 	C 	0.4678	0.0948	0.3058	0.392
Mof_Er	Er	0.3338	0.13335	0.37396	1.465
Mof_O 	O 	0.3232	0.027	0.4027	-0.463
Mof_O 	O 	0.3609	0.9951	0.5245	-0.478
Mof_O 	O 	0.336	0.7257	0.5526	-0.499
Mof_O 	O 	0.3762	0.8093	0.6116	-0.475
Mof_N 	N 	0.3315	0.8815	0.4978	-0.173
Mof_C 	C 	0.3133	0.9216	0.4401	-0.067
Mof_C 	C 	0.28	0.9039	0.372	-0.003
Mof_H 	H 	0.2688	0.9324	0.3318	0.024
Mof_C 	C 	0.2631	0.8425	0.3641	-0.085
Mof_H 	H 	0.2392	0.8295	0.3196	0.042
Mof_C 	C 	0.2826	0.8015	0.4237	0.005
Mof_H 	H 	0.2722	0.7602	0.4198	0.012
Mof_C 	C 	0.3181	0.8224	0.4896	-0.083
Mof_C 	C 	0.3338	0.9871	0.4557	0.387
Mof_C 	C 	0.3448	0.7822	0.5558	0.392
Mof_Er	Er	0.8338	0.63335	0.87396	1.465
Mof_O 	O 	0.8232	0.527	0.9027	-0.463
Mof_O 	O 	0.8609	0.4951	0.0245	-0.478
Mof_O 	O 	0.836	0.2257	0.0526	-0.499
Mof_O 	O 	0.8762	0.3093	0.1116	-0.475
Mof_N 	N 	0.8315	0.3815	0.9978	-0.173
Mof_C 	C 	0.8133	0.4216	0.9401	-0.067
Mof_C 	C 	0.78	0.4039	0.872	-0.003
Mof_H 	H 	0.7688	0.4324	0.8318	0.024
Mof_C 	C 	0.7631	0.3425	0.8641	-0.085
Mof_H 	H 	0.7392	0.3295	0.8196	0.043
Mof_C 	C 	0.7826	0.3015	0.9237	0.005
Mof_H 	H 	0.7722	0.2602	0.9198	0.011
Mof_C 	C 	0.8181	0.3224	0.9896	-0.083
Mof_C 	C 	0.8338	0.4871	0.9557	0.387
Mof_C 	C 	0.8448	0.2822	0.0558	0.392
Mof_Er	Er	0.1662	0.86665	0.87396	1.465
Mof_O 	O 	0.1768	0.973	0.9027	-0.463
Mof_O 	O 	0.1391	0.0049	0.0245	-0.478
Mof_O 	O 	0.164	0.2743	0.0526	-0.499
Mof_O 	O 	0.1238	0.1907	0.1116	-0.475
Mof_N 	N 	0.1685	0.1185	0.9978	-0.174
Mof_C 	C 	0.1867	0.0784	0.9401	-0.067
Mof_C 	C 	0.22	0.0961	0.872	-0.003
Mof_H 	H 	0.2312	0.0676	0.8318	0.024
Mof_C 	C 	0.2369	0.1575	0.8641	-0.085
Mof_H 	H 	0.2608	0.1705	0.8196	0.042
Mof_C 	C 	0.2174	0.1985	0.9237	0.005
Mof_H 	H 	0.2278	0.2398	0.9198	0.011
Mof_C 	C 	0.1819	0.1776	0.9896	-0.083
Mof_C 	C 	0.1662	0.0129	0.9557	0.386
Mof_C 	C 	0.1552	0.2178	0.0558	0.392
Mof_Er	Er	0.6662	0.36665	0.37396	1.465
Mof_O 	O 	0.6768	0.473	0.4027	-0.463
Mof_O 	O 	0.6391	0.5049	0.5245	-0.478
Mof_O 	O 	0.664	0.7743	0.5526	-0.499
Mof_O 	O 	0.6238	0.6907	0.6116	-0.475
Mof_N 	N 	0.6685	0.6185	0.4978	-0.173
Mof_C 	C 	0.6867	0.5784	0.4401	-0.067
Mof_C 	C 	0.72	0.5961	0.372	-0.003
Mof_H 	H 	0.7312	0.5676	0.3318	0.024
Mof_C 	C 	0.7369	0.6575	0.3641	-0.085
Mof_H 	H 	0.7608	0.6705	0.3196	0.042
Mof_C 	C 	0.7174	0.6985	0.4237	0.005
Mof_H 	H 	0.7278	0.7398	0.4198	0.012
Mof_C 	C 	0.6819	0.6776	0.4896	-0.083
Mof_C 	C 	0.6662	0.5129	0.4557	0.387
Mof_C 	C 	0.6552	0.7178	0.5558	0.392
Mof_Er	Er	0.11665	0.5838	0.87604	1.465
Mof_O 	O 	0.223	0.5732	0.8473	-0.463
Mof_O 	O 	0.2549	0.6109	0.7255	-0.478
Mof_O 	O 	0.5243	0.586	0.6974	-0.499
Mof_O 	O 	0.4407	0.6262	0.6384	-0.475
Mof_N 	N 	0.3685	0.5815	0.7522	-0.173
Mof_C 	C 	0.3284	0.5633	0.8099	-0.067
Mof_C 	C 	0.3461	0.53	0.878	-0.003
Mof_H 	H 	0.3176	0.5188	0.9182	0.024
Mof_C 	C 	0.4075	0.5131	0.8859	-0.085
Mof_H 	H 	0.4205	0.4892	0.9304	0.042
Mof_C 	C 	0.4485	0.5326	0.8263	0.005
Mof_H 	H 	0.4898	0.5222	0.8302	0.012
Mof_C 	C 	0.4276	0.5681	0.7604	-0.083
Mof_C 	C 	0.2629	0.5838	0.7943	0.387
Mof_C 	C 	0.4678	0.5948	0.6942	0.392
Mof_Er	Er	0.61665	0.0838	0.37604	1.465
Mof_O 	O 	0.723	0.0732	0.3473	-0.463
Mof_O 	O 	0.7549	0.1109	0.2255	-0.478
Mof_O 	O 	0.0243	0.086	0.1974	-0.499
Mof_O 	O 	0.9407	0.1262	0.1384	-0.475
Mof_N 	N 	0.8685	0.0815	0.2522	-0.173
Mof_C 	C 	0.8284	0.0633	0.3099	-0.067
Mof_C 	C 	0.8461	0.03	0.378	-0.004
Mof_H 	H 	0.8176	0.0188	0.4182	0.024
Mof_C 	C 	0.9075	0.0131	0.3859	-0.084
Mof_H 	H 	0.9205	0.9892	0.4304	0.042
Mof_C 	C 	0.9485	0.0326	0.3263	0.004
Mof_H 	H 	0.9898	0.0222	0.3302	0.012
Mof_C 	C 	0.9276	0.0681	0.2604	-0.083
Mof_C 	C 	0.7629	0.0838	0.2943	0.387
Mof_C 	C 	0.9678	0.0948	0.1942	0.392
Mof_Er	Er	0.38335	0.4162	0.37604	1.465
Mof_O 	O 	0.277	0.4268	0.3473	-0.463
Mof_O 	O 	0.2451	0.3891	0.2255	-0.478
Mof_O 	O 	0.9757	0.414	0.1974	-0.499
Mof_O 	O 	0.0593	0.3738	0.1384	-0.475
Mof_N 	N 	0.1315	0.4185	0.2522	-0.173
Mof_C 	C 	0.1716	0.4367	0.3099	-0.067
Mof_C 	C 	0.1539	0.47	0.378	-0.003
Mof_H 	H 	0.1824	0.4812	0.4182	0.024
Mof_C 	C 	0.0925	0.4869	0.3859	-0.085
Mof_H 	H 	0.0795	0.5108	0.4304	0.042
Mof_C 	C 	0.0515	0.4674	0.3263	0.005
Mof_H 	H 	0.0102	0.4778	0.3302	0.011
Mof_C 	C 	0.0724	0.4319	0.2604	-0.083
Mof_C 	C 	0.2371	0.4162	0.2943	0.387
Mof_C 	C 	0.0322	0.4052	0.1942	0.392
Mof_Er	Er	0.88335	0.9162	0.87604	1.465
Mof_O 	O 	0.777	0.9268	0.8473	-0.463
Mof_O 	O 	0.7451	0.8891	0.7255	-0.478
Mof_O 	O 	0.4757	0.914	0.6974	-0.499
Mof_O 	O 	0.5593	0.8738	0.6384	-0.475
Mof_N 	N 	0.6315	0.9185	0.7522	-0.174
Mof_C 	C 	0.6716	0.9367	0.8099	-0.066
Mof_C 	C 	0.6539	0.97	0.878	-0.004
Mof_H 	H 	0.6824	0.9812	0.9182	0.024
Mof_C 	C 	0.5925	0.9869	0.8859	-0.083
Mof_H 	H 	0.5795	0.0108	0.9304	0.042
Mof_C 	C 	0.5515	0.9674	0.8263	0.004
Mof_H 	H 	0.5102	0.9778	0.8302	0.012
Mof_C 	C 	0.5724	0.9319	0.7604	-0.082
Mof_C 	C 	0.7371	0.9162	0.7943	0.387
Mof_C 	C 	0.5322	0.9052	0.6942	0.392
Mof_Er	Er	0.6662	0.86665	0.62604	1.465
Mof_O 	O 	0.6768	0.973	0.5973	-0.463
Mof_O 	O 	0.6391	0.0049	0.4755	-0.478
Mof_O 	O 	0.664	0.2743	0.4474	-0.499
Mof_O 	O 	0.6238	0.1907	0.3884	-0.475
Mof_N 	N 	0.6685	0.1185	0.5022	-0.173
Mof_C 	C 	0.6867	0.0784	0.5599	-0.067
Mof_C 	C 	0.72	0.0961	0.628	-0.003
Mof_H 	H 	0.7312	0.0676	0.6682	0.024
Mof_C 	C 	0.7369	0.1575	0.6359	-0.085
Mof_H 	H 	0.7608	0.1705	0.6804	0.042
Mof_C 	C 	0.7174	0.1985	0.5763	0.005
Mof_H 	H 	0.7278	0.2398	0.5802	0.012
Mof_C 	C 	0.6819	0.1776	0.5104	-0.083
Mof_C 	C 	0.6662	0.0129	0.5443	0.387
Mof_C 	C 	0.6552	0.2178	0.4442	0.392
Mof_Er	Er	0.1662	0.36665	0.12604	1.465
Mof_O 	O 	0.1768	0.473	0.0973	-0.463
Mof_O 	O 	0.1391	0.5049	0.9755	-0.478
Mof_O 	O 	0.164	0.7743	0.9474	-0.499
Mof_O 	O 	0.1238	0.6907	0.8884	-0.475
Mof_N 	N 	0.1685	0.6185	0.0022	-0.173
Mof_C 	C 	0.1867	0.5784	0.0599	-0.067
Mof_C 	C 	0.22	0.5961	0.128	-0.003
Mof_H 	H 	0.2312	0.5676	0.1682	0.024
Mof_C 	C 	0.2369	0.6575	0.1359	-0.085
Mof_H 	H 	0.2608	0.6705	0.1804	0.043
Mof_C 	C 	0.2174	0.6985	0.0763	0.005
Mof_H 	H 	0.2278	0.7398	0.0802	0.011
Mof_C 	C 	0.1819	0.6776	0.0104	-0.083
Mof_C 	C 	0.1662	0.5129	0.0443	0.387
Mof_C 	C 	0.1552	0.7178	0.9442	0.392
Mof_Er	Er	0.8338	0.13335	0.12604	1.465
Mof_O 	O 	0.8232	0.027	0.0973	-0.463
Mof_O 	O 	0.8609	0.9951	0.9755	-0.478
Mof_O 	O 	0.836	0.7257	0.9474	-0.499
Mof_O 	O 	0.8762	0.8093	0.8884	-0.475
Mof_N 	N 	0.8315	0.8815	0.0022	-0.174
Mof_C 	C 	0.8133	0.9216	0.0599	-0.067
Mof_C 	C 	0.78	0.9039	0.128	-0.003
Mof_H 	H 	0.7688	0.9324	0.1682	0.024
Mof_C 	C 	0.7631	0.8425	0.1359	-0.085
Mof_H 	H 	0.7392	0.8295	0.1804	0.042
Mof_C 	C 	0.7826	0.8015	0.0763	0.005
Mof_H 	H 	0.7722	0.7602	0.0802	0.011
Mof_C 	C 	0.8181	0.8224	0.0104	-0.083
Mof_C 	C 	0.8338	0.9871	0.0443	0.386
Mof_C 	C 	0.8448	0.7822	0.9442	0.392
Mof_Er	Er	0.3338	0.63335	0.62604	1.465
Mof_O 	O 	0.3232	0.527	0.5973	-0.463
Mof_O 	O 	0.3609	0.4951	0.4755	-0.478
Mof_O 	O 	0.336	0.2257	0.4474	-0.499
Mof_O 	O 	0.3762	0.3093	0.3884	-0.475
Mof_N 	N 	0.3315	0.3815	0.5022	-0.173
Mof_C 	C 	0.3133	0.4216	0.5599	-0.067
Mof_C 	C 	0.28	0.4039	0.628	-0.003
Mof_H 	H 	0.2688	0.4324	0.6682	0.024
Mof_C 	C 	0.2631	0.3425	0.6359	-0.085
Mof_H 	H 	0.2392	0.3295	0.6804	0.042
Mof_C 	C 	0.2826	0.3015	0.5763	0.005
Mof_H 	H 	0.2722	0.2602	0.5802	0.012
Mof_C 	C 	0.3181	0.3224	0.5104	-0.083
Mof_C 	C 	0.3338	0.4871	0.5443	0.387
Mof_C 	C 	0.3448	0.2822	0.4442	0.392
_end
