# CIF file generated by openbabel 3.1.0, see https://openbabel.org
data_I
_chemical_name_common 'KIPZEQ_clean'
_cell_length_a 10.975
_cell_length_b 12.139
_cell_length_c 13.728
_cell_angle_alpha 67.25
_cell_angle_beta 80.94
_cell_angle_gamma 70.26
_space_group_name_H-M_alt 'P 1'
_space_group_name_Hall 'P 1'
loop_
    _symmetry_equiv_pos_as_xyz
    x,y,z
loop_
    _atom_site_label
    _atom_site_type_symbol
    _atom_site_fract_x
    _atom_site_fract_y
    _atom_site_fract_z
    _atom_site_occupancy
    Co1      Co       0.04300    0.40582    0.81500    1.000
    Co2      Co       0.13202    0.67145    0.81249    1.000
    Co3      Co       0.95700    0.59418    0.18500    1.000
    Co4      Co       0.86798    0.32855    0.18751    1.000
    Co5      Co       0.00000    0.50000    0.00000    1.000
    H1       H        0.20750    0.46460    0.85740    1.000
    H2       H        0.86550    0.71680    0.51530    1.000
    H3       H        0.94700    0.90020    0.52020    1.000
    H4       H        0.78960    0.82720    0.35010    1.000
    H5       H        0.72860    0.96800    0.18060    1.000
    H6       H        0.76750    0.15300    0.11410    1.000
    H7       H        0.91530    0.08560    0.37820    1.000
    H8       H        0.60420    0.42860    0.92260    1.000
    H9       H        0.73370    0.56020    0.75590    1.000
    H10      H        0.63130    0.59430    0.58330    1.000
    H11      H        0.44370    0.64570    0.49980    1.000
    H12      H        0.24780    0.67730    0.58670    1.000
    H13      H        0.42010    0.58000    0.84690    1.000
    H14      H        0.15150    0.07700    0.19270    1.000
    H15      H        0.13580    0.00250    0.03310    1.000
    H16      H        0.23750    0.85690    0.29950    1.000
    H17      H        0.21540    0.66960    0.41660    1.000
    H18      H        0.09990    0.57060    0.37460    1.000
    H19      H        0.05320    0.82440    0.09010    1.000
    H20      H        0.79250    0.53540    0.14260    1.000
    H21      H        0.13450    0.28320    0.48470    1.000
    H22      H        0.05300    0.09980    0.47980    1.000
    H23      H        0.21040    0.17280    0.64990    1.000
    H24      H        0.27140    0.03200    0.81940    1.000
    H25      H        0.23250    0.84700    0.88590    1.000
    H26      H        0.08470    0.91440    0.62180    1.000
    H27      H        0.39580    0.57140    0.07740    1.000
    H28      H        0.26630    0.43980    0.24410    1.000
    H29      H        0.36870    0.40570    0.41670    1.000
    H30      H        0.55630    0.35430    0.50020    1.000
    H31      H        0.75220    0.32270    0.41330    1.000
    H32      H        0.57990    0.42000    0.15310    1.000
    H33      H        0.84850    0.92300    0.80730    1.000
    H34      H        0.86420    0.99750    0.96690    1.000
    H35      H        0.76250    0.14310    0.70050    1.000
    H36      H        0.78460    0.33040    0.58340    1.000
    H37      H        0.90010    0.42940    0.62540    1.000
    H38      H        0.94680    0.17560    0.90990    1.000
    C1       C        0.97110    0.67240    0.64650    1.000
    C2       C        0.90890    0.75170    0.54270    1.000
    C3       C        0.91050    0.86440    0.48810    1.000
    C4       C        0.86260    0.94330    0.38240    1.000
    C5       C        0.80420    0.90480    0.32330    1.000
    C6       C        0.76940    0.98910    0.22230    1.000
    C7       C        0.79270    0.10050    0.18250    1.000
    C8       C        0.88000    0.05960    0.33670    1.000
    C9       C        0.78210    0.43150    0.95560    1.000
    C10      C        0.67140    0.46210    0.89050    1.000
    C11      C        0.66250    0.53410    0.78960    1.000
    C12      C        0.54770    0.57590    0.72680    1.000
    C13      C        0.55270    0.60040    0.62100    1.000
    C14      C        0.44020    0.63400    0.57110    1.000
    C15      C        0.32260    0.65070    0.62390    1.000
    C16      C        0.42450    0.59400    0.77500    1.000
    C17      C        0.09760    0.22220    0.04830    1.000
    C18      C        0.13160    0.09080    0.12470    1.000
    C19      C        0.13560    0.99210    0.10380    1.000
    C20      C        0.13980    0.86850    0.18160    1.000
    C21      C        0.19240    0.81600    0.28060    1.000
    C22      C        0.17850    0.70480    0.35070    1.000
    C23      C        0.11110    0.64480    0.32490    1.000
    C24      C        0.08040    0.79660    0.15880    1.000
    C25      C        0.02890    0.32760    0.35350    1.000
    C26      C        0.09110    0.24830    0.45730    1.000
    C27      C        0.08950    0.13560    0.51190    1.000
    C28      C        0.13740    0.05670    0.61760    1.000
    C29      C        0.19580    0.09520    0.67670    1.000
    C30      C        0.23060    0.01090    0.77770    1.000
    C31      C        0.20730    0.89950    0.81750    1.000
    C32      C        0.12000    0.94040    0.66330    1.000
    C33      C        0.21790    0.56850    0.04440    1.000
    C34      C        0.32860    0.53790    0.10950    1.000
    C35      C        0.33750    0.46590    0.21040    1.000
    C36      C        0.45230    0.42410    0.27320    1.000
    C37      C        0.44730    0.39960    0.37900    1.000
    C38      C        0.55980    0.36600    0.42890    1.000
    C39      C        0.67740    0.34930    0.37610    1.000
    C40      C        0.57550    0.40600    0.22500    1.000
    C41      C        0.90240    0.77780    0.95170    1.000
    C42      C        0.86840    0.90920    0.87530    1.000
    C43      C        0.86440    0.00790    0.89620    1.000
    C44      C        0.86020    0.13150    0.81840    1.000
    C45      C        0.80760    0.18400    0.71940    1.000
    C46      C        0.82150    0.29520    0.64930    1.000
    C47      C        0.88890    0.35520    0.67510    1.000
    C48      C        0.91960    0.20340    0.84120    1.000
    N1       N        0.85040    0.14000    0.23660    1.000
    N2       N        0.31220    0.62940    0.72900    1.000
    N3       N        0.05940    0.69120    0.22760    1.000
    N4       N        0.14960    0.86000    0.76340    1.000
    N5       N        0.68780    0.37060    0.27100    1.000
    N6       N        0.94060    0.30880    0.77240    1.000
    O1       O        0.02740    0.72360    0.68280    1.000
    O2       O        0.96520    0.56450    0.68910    1.000
    O3       O        0.77320    0.36460    0.05160    1.000
    O4       O        0.87450    0.47400    0.91240    1.000
    O5       O        0.11140    0.23840    0.95080    1.000
    O6       O        0.05530    0.30560    0.08850    1.000
    O7       O        0.12820    0.48970    0.87550    1.000
    O8       O        0.97260    0.27640    0.31720    1.000
    O9       O        0.03480    0.43550    0.31090    1.000
    O10      O        0.22680    0.63540    0.94840    1.000
    O11      O        0.12550    0.52600    0.08760    1.000
    O12      O        0.88860    0.76160    0.04920    1.000
    O13      O        0.94470    0.69440    0.91150    1.000
    O14      O        0.87180    0.51030    0.12450    1.000
