data_functionalizedCrystal
_audit_creation_method	'EQeq! by Chris Wilmer'
_symmetry_space_group_name_H-M	'P1'
_symmetry_Int_Tables_number	1
_symmetry_cell_setting	triclinic
loop_
_symmetry_equiv_pos_as_xyz
  x,y,z
_cell_length_a	18.5977
_cell_length_b	18.5977
_cell_length_c	18.5977
_cell_angle_alpha	60
_cell_angle_beta	60
_cell_angle_gamma	60
loop_
_atom_site_label
_atom_site_type_symbol
_atom_site_fract_x
_atom_site_fract_y
_atom_site_fract_z
_atom_site_charge
Mof_Cu	Cu	-1.24973e-17	0	0.43116	0.683
Mof_Cu	Cu	-0	0.43116	-0	0.683
Mof_Cu	Cu	0.43116	0	-0	0.683
Mof_Cu	Cu	0.43116	0.56884	-0	0.8
Mof_Cu	Cu	0.43116	0	0.56884	0.8
Mof_Cu	Cu	-0	0	0.56884	0.696
Mof_Cu	Cu	-0	0.56884	-0	0.695
Mof_Cu	Cu	-0	0.43116	0.56884	0.799
Mof_Cu	Cu	0.56884	0.43116	-0	0.799
Mof_Cu	Cu	0.56884	0	0.43116	0.799
Mof_Cu	Cu	0.56884	0	-0	0.695
Mof_Cu	Cu	-1.24973e-17	0.56884	0.43116	0.799
Mof_H 	H 	0.7285	0.0303	0.5127	0.03
Mof_H 	H 	0.0303	0.7285	0.7285	0.056
Mof_H 	H 	0.4873	0.2715	0.9697	0.077
Mof_H 	H 	0.9697	0.4873	0.2715	0.077
Mof_H 	H 	0.7285	0.5127	0.0303	0.03
Mof_H 	H 	0.2715	0.9697	0.2715	0.054
Mof_H 	H 	0.2715	0.9697	0.4873	0.077
Mof_H 	H 	0.4873	0.9697	0.2715	0.077
Mof_H 	H 	0.9697	0.2715	0.2715	0.054
Mof_H 	H 	0.9697	0.2715	0.4873	0.077
Mof_H 	H 	0.2715	0.4873	0.2715	0.006
Mof_H 	H 	0.2715	0.2715	0.4873	0.006
Mof_H 	H 	0.7285	0.0303	0.7285	0.056
Mof_H 	H 	0.5127	0.7285	0.0303	0.03
Mof_H 	H 	0.4873	0.2715	0.2715	0.006
Mof_H 	H 	0.0303	0.7285	0.5127	0.03
Mof_H 	H 	0.5127	0.7285	0.7285	0.095
Mof_H 	H 	0.7285	0.7285	0.0303	0.056
Mof_H 	H 	0.5127	0.0303	0.7285	0.03
Mof_H 	H 	0.7285	0.7285	0.5127	0.095
Mof_H 	H 	0.2715	0.2715	0.9697	0.054
Mof_H 	H 	0.0303	0.5127	0.7285	0.03
Mof_H 	H 	0.7285	0.5127	0.7285	0.095
Mof_H 	H 	0.2715	0.4873	0.9697	0.077
Mof_C 	C 	0.57057	0.02981	0.69981	0.056
Mof_C 	C 	0.2568	0.9706	0.3863	-0.078
Mof_C 	C 	0.0236	0.5691	0.8382	0.351
Mof_C 	C 	0.69981	0.69981	0.57057	0.019
Mof_C 	C 	0.69981	0.02981	0.57057	0.056
Mof_C 	C 	0.8382	0.5691	0.0236	0.351
Mof_C 	C 	0.02981	0.57057	0.69981	0.056
Mof_C 	C 	0.4309	0.1618	0.9764	0.347
Mof_C 	C 	0.7432	0.0294	0.6137	-0.111
Mof_C 	C 	0.5691	0.0236	0.8382	0.351
Mof_C 	C 	0.9706	0.2568	0.3863	-0.078
Mof_C 	C 	0.4309	0.1618	0.4309	0.375
Mof_C 	C 	0.6137	0.7432	0.0294	-0.111
Mof_C 	C 	0.5691	0.8382	0.0236	0.351
Mof_C 	C 	0.30019	0.30019	0.97019	0.036
Mof_C 	C 	0.9764	0.4309	0.1618	0.347
Mof_C 	C 	0.6137	0.0294	0.7432	-0.111
Mof_C 	C 	0.97019	0.30019	0.42943	0.033
Mof_C 	C 	0.7432	0.6137	0.0294	-0.111
Mof_C 	C 	0.1618	0.4309	0.9764	0.347
Mof_C 	C 	0.1618	0.4309	0.4309	0.375
Mof_C 	C 	0.69981	0.57057	0.02981	0.056
Mof_C 	C 	0.6137	0.6137	0.7432	-0.034
Mof_C 	C 	0.1618	0.9764	0.4309	0.347
Mof_C 	C 	0.57057	0.69981	0.02981	0.056
Mof_C 	C 	0.2568	0.3863	0.9706	-0.078
Mof_C 	C 	0.97019	0.42943	0.30019	0.033
Mof_C 	C 	0.6137	0.7432	0.6137	-0.034
Mof_C 	C 	0.02981	0.69981	0.57057	0.056
Mof_C 	C 	0.69981	0.57057	0.69981	0.019
Mof_C 	C 	0.0294	0.7432	0.6137	-0.111
Mof_C 	C 	0.3863	0.2568	0.9706	-0.078
Mof_C 	C 	0.97019	0.30019	0.30019	0.036
Mof_C 	C 	0.3863	0.9706	0.3863	-0.06
Mof_C 	C 	0.69981	0.02981	0.69981	0.05
Mof_C 	C 	0.0236	0.5691	0.5691	0.369
Mof_C 	C 	0.0236	0.8382	0.5691	0.351
Mof_C 	C 	0.8382	0.5691	0.5691	0.343
Mof_C 	C 	0.30019	0.97019	0.30019	0.036
Mof_C 	C 	0.6137	0.6137	0.0294	-0.136
Mof_C 	C 	0.0294	0.6137	0.6137	-0.136
Mof_C 	C 	0.4309	0.4309	0.1618	0.375
Mof_C 	C 	0.3863	0.3863	0.9706	-0.06
Mof_C 	C 	0.3863	0.3863	0.2568	-0.172
Mof_C 	C 	0.02981	0.69981	0.69981	0.05
Mof_C 	C 	0.4309	0.4309	0.9764	0.347
Mof_C 	C 	0.5691	0.5691	0.8382	0.343
Mof_C 	C 	0.42943	0.97019	0.30019	0.033
Mof_C 	C 	0.8382	0.0236	0.5691	0.351
Mof_C 	C 	0.3863	0.9706	0.2568	-0.078
Mof_C 	C 	0.5691	0.0236	0.5691	0.369
Mof_C 	C 	0.9764	0.1618	0.4309	0.347
Mof_C 	C 	0.30019	0.42943	0.97019	0.033
Mof_C 	C 	0.30019	0.97019	0.42943	0.033
Mof_C 	C 	0.5691	0.5691	0.0236	0.369
Mof_C 	C 	0.4309	0.9764	0.4309	0.347
Mof_C 	C 	0.42943	0.30019	0.97019	0.033
Mof_C 	C 	0.5691	0.8382	0.5691	0.343
Mof_C 	C 	0.7432	0.6137	0.6137	-0.034
Mof_C 	C 	0.0294	0.6137	0.7432	-0.111
Mof_C 	C 	0.30019	0.42943	0.30019	0.081
Mof_C 	C 	0.3863	0.2568	0.3863	-0.172
Mof_C 	C 	0.9706	0.3863	0.2568	-0.078
Mof_C 	C 	0.69981	0.69981	0.02981	0.05
Mof_C 	C 	0.9764	0.4309	0.4309	0.347
Mof_C 	C 	0.42943	0.30019	0.30019	0.081
Mof_C 	C 	0.57057	0.69981	0.69981	0.019
Mof_C 	C 	0.4309	0.9764	0.1618	0.347
Mof_C 	C 	0.30019	0.30019	0.42943	0.081
Mof_C 	C 	0.9706	0.3863	0.3863	-0.06
Mof_C 	C 	0.6137	0.0294	0.6137	-0.136
Mof_C 	C 	0.2568	0.3863	0.3863	-0.172
Mof_O 	O 	0.50774	0.97904	0.38758	-0.292
Mof_O 	O 	0.02096	0.49226	0.61242	-0.462
Mof_O 	O 	0.02096	0.61242	0.87436	-0.345
Mof_O 	O 	0.87436	0.49226	0.02096	-0.365
Mof_O 	O 	0.87436	0.61242	0.02096	-0.345
Mof_O 	O 	0.97904	0.50774	0.38758	-0.292
Mof_O 	O 	0.49226	0.61242	0.02096	-0.462
Mof_O 	O 	0.12564	0.97904	0.50774	-0.333
Mof_O 	O 	0.12564	0.38758	0.97904	-0.353
Mof_O 	O 	0.38758	0.12564	0.97904	-0.353
Mof_O 	O 	0.50774	0.97904	0.12564	-0.333
Mof_O 	O 	0.49226	0.61242	0.87436	-0.284
Mof_O 	O 	0.49226	0.87436	0.61242	-0.284
Mof_O 	O 	0.38758	0.50774	0.97904	-0.292
Mof_O 	O 	0.87436	0.49226	0.61242	-0.284
Mof_O 	O 	0.50774	0.38758	0.12564	-0.474
Mof_O 	O 	0.61242	0.87436	0.49226	-0.284
Mof_O 	O 	0.38758	0.12564	0.50774	-0.474
Mof_O 	O 	0.97904	0.38758	0.12564	-0.353
Mof_O 	O 	0.61242	0.49226	0.87436	-0.284
Mof_O 	O 	0.02096	0.87436	0.61242	-0.345
Mof_O 	O 	0.97904	0.38758	0.50774	-0.292
Mof_O 	O 	0.61242	0.49226	0.02096	-0.462
Mof_O 	O 	0.87436	0.02096	0.49226	-0.365
Mof_O 	O 	0.12564	0.50774	0.38758	-0.474
Mof_O 	O 	0.38758	0.97904	0.12564	-0.353
Mof_O 	O 	0.61242	0.87436	0.02096	-0.345
Mof_O 	O 	0.02096	0.49226	0.87436	-0.365
Mof_O 	O 	0.50774	0.12564	0.38758	-0.474
Mof_O 	O 	0.49226	0.02096	0.87436	-0.365
Mof_O 	O 	0.97904	0.50774	0.12564	-0.333
Mof_O 	O 	0.12564	0.97904	0.38758	-0.353
Mof_O 	O 	0.38758	0.97904	0.50774	-0.292
Mof_O 	O 	0.38758	0.50774	0.12564	-0.474
Mof_O 	O 	0.02096	0.87436	0.49226	-0.365
Mof_O 	O 	0.12564	0.38758	0.50774	-0.474
Mof_O 	O 	0.61242	0.02096	0.87436	-0.345
Mof_O 	O 	0.50774	0.38758	0.97904	-0.292
Mof_O 	O 	0.50774	0.12564	0.97904	-0.333
Mof_O 	O 	0.61242	0.02096	0.49226	-0.462
Mof_O 	O 	0.49226	0.87436	0.02096	-0.365
Mof_O 	O 	0.12564	0.50774	0.97904	-0.333
Mof_O 	O 	0.87436	0.02096	0.61242	-0.345
Mof_O 	O 	0.97904	0.12564	0.38758	-0.353
Mof_O 	O 	0.49226	0.02096	0.61242	-0.462
Mof_O 	O 	0.87436	0.61242	0.49226	-0.284
Mof_O 	O 	0.97904	0.12564	0.50774	-0.333
Mof_O 	O 	0.02096	0.61242	0.49226	-0.462
_end
