# CIF file generated by openbabel 3.1.0, see https://openbabel.org
data_I
_chemical_name_common 'image0'
_cell_length_a 10.97
_cell_length_b 23.744
_cell_length_c 15.906
_cell_angle_alpha 90
_cell_angle_beta 90
_cell_angle_gamma 90
_space_group_name_H-M_alt 'P 1'
_space_group_name_Hall 'P 1'
loop_
    _symmetry_equiv_pos_as_xyz
    x,y,z
loop_
    _atom_site_label
    _atom_site_type_symbol
    _atom_site_fract_x
    _atom_site_fract_y
    _atom_site_fract_z
    _atom_site_occupancy
    C1       C        0.10170    0.33310    0.34810    1.000
    N1       N        0.15590    0.30700    0.39390    1.000
    C2       C        0.74910    0.10640    0.61480    1.000
    N2       N        0.18440    0.38720    0.16730    1.000
    C3       C        0.60170    0.83310    0.34810    1.000
    N3       N        0.65590    0.80700    0.39390    1.000
    C4       C        0.24910    0.60640    0.61480    1.000
    N4       N        0.68440    0.88720    0.16730    1.000
    C5       C        0.89830    0.66690    0.34810    1.000
    N5       N        0.84410    0.69300    0.39390    1.000
    C6       C        0.25090    0.89360    0.61480    1.000
    N6       N        0.81560    0.61280    0.16730    1.000
    C7       C        0.39830    0.16690    0.34810    1.000
    N7       N        0.34410    0.19300    0.39390    1.000
    C8       C        0.75090    0.39360    0.61480    1.000
    N8       N        0.31560    0.11280    0.16730    1.000
    C9       C        0.89830    0.33310    0.15190    1.000
    N9       N        0.84410    0.30700    0.10610    1.000
    C10      C        0.25090    0.10640    0.88520    1.000
    N10      N        0.81560    0.38720    0.33270    1.000
    C11      C        0.39830    0.83310    0.15190    1.000
    N11      N        0.34410    0.80700    0.10610    1.000
    C12      C        0.75090    0.60640    0.88520    1.000
    N12      N        0.31560    0.88720    0.33270    1.000
    C13      C        0.10170    0.66690    0.15190    1.000
    N13      N        0.15590    0.69300    0.10610    1.000
    C14      C        0.74910    0.89360    0.88520    1.000
    N14      N        0.18440    0.61280    0.33270    1.000
    C15      C        0.60170    0.16690    0.15190    1.000
    N15      N        0.65590    0.19300    0.10610    1.000
    C16      C        0.24910    0.39360    0.88520    1.000
    N16      N        0.68440    0.11280    0.33270    1.000
    C17      C        0.89830    0.66690    0.65190    1.000
    N17      N        0.84410    0.69300    0.60610    1.000
    C18      C        0.25090    0.89360    0.38520    1.000
    N18      N        0.81560    0.61280    0.83270    1.000
    C19      C        0.39830    0.16690    0.65190    1.000
    N19      N        0.34410    0.19300    0.60610    1.000
    C20      C        0.75090    0.39360    0.38520    1.000
    N20      N        0.31560    0.11280    0.83270    1.000
    C21      C        0.10170    0.33310    0.65190    1.000
    N21      N        0.15590    0.30700    0.60610    1.000
    C22      C        0.74910    0.10640    0.38520    1.000
    N22      N        0.18440    0.38720    0.83270    1.000
    C23      C        0.60170    0.83310    0.65190    1.000
    N23      N        0.65590    0.80700    0.60610    1.000
    C24      C        0.24910    0.60640    0.38520    1.000
    N24      N        0.68440    0.88720    0.83270    1.000
    C25      C        0.10170    0.66690    0.84810    1.000
    N25      N        0.15590    0.69300    0.89390    1.000
    C26      C        0.74910    0.89360    0.11480    1.000
    N26      N        0.18440    0.61280    0.66730    1.000
    C27      C        0.60170    0.16690    0.84810    1.000
    N27      N        0.65590    0.19300    0.89390    1.000
    C28      C        0.24910    0.39360    0.11480    1.000
    N28      N        0.68440    0.11280    0.66730    1.000
    C29      C        0.89830    0.33310    0.84810    1.000
    N29      N        0.84410    0.30700    0.89390    1.000
    C30      C        0.25090    0.10640    0.11480    1.000
    N30      N        0.81560    0.38720    0.66730    1.000
    C31      C        0.39830    0.83310    0.84810    1.000
    N31      N        0.34410    0.80700    0.89390    1.000
    C32      C        0.75090    0.60640    0.11480    1.000
    N32      N        0.31560    0.88720    0.66730    1.000
    Cd1      Cd       0.25000    0.25000    0.50000    1.000
    Cd2      Cd       0.75000    0.75000    0.50000    1.000
    Cd3      Cd       0.75000    0.25000    0.00000    1.000
    Cd4      Cd       0.25000    0.75000    0.00000    1.000
    Cd5      Cd       0.00000    0.38180    0.25000    1.000
    C33      C        0.00000    0.47660    0.25000    1.000
    Cd6      Cd       0.50000    0.88180    0.25000    1.000
    C34      C        0.50000    0.97660    0.25000    1.000
    Cd7      Cd       0.00000    0.61820    0.25000    1.000
    C35      C        0.00000    0.52340    0.25000    1.000
    Cd8      Cd       0.50000    0.11820    0.25000    1.000
    C36      C        0.50000    0.02340    0.25000    1.000
    Cd9      Cd       0.00000    0.61820    0.75000    1.000
    C37      C        0.00000    0.52340    0.75000    1.000
    Cd10     Cd       0.50000    0.11820    0.75000    1.000
    C38      C        0.50000    0.02340    0.75000    1.000
    Cd11     Cd       0.00000    0.38180    0.75000    1.000
    C39      C        0.00000    0.47660    0.75000    1.000
    Cd12     Cd       0.50000    0.88180    0.75000    1.000
    C40      C        0.50000    0.97660    0.75000    1.000
    Cd13     Cd       0.86020    0.09851    0.50000    1.000
    C41      C        0.01140    0.16150    0.50000    1.000
    N33      N        0.08710    0.19290    0.50000    1.000
    C42      C        0.96950    0.02040    0.50000    1.000
    Cd14     Cd       0.36020    0.59851    0.50000    1.000
    C43      C        0.51140    0.66150    0.50000    1.000
    N34      N        0.58710    0.69290    0.50000    1.000
    C44      C        0.46950    0.52040    0.50000    1.000
    Cd15     Cd       0.13980    0.90149    0.50000    1.000
    C45      C        0.98860    0.83850    0.50000    1.000
    N35      N        0.91290    0.80710    0.50000    1.000
    C46      C        0.03050    0.97960    0.50000    1.000
    Cd16     Cd       0.63980    0.40149    0.50000    1.000
    C47      C        0.48860    0.33850    0.50000    1.000
    N36      N        0.41290    0.30710    0.50000    1.000
    C48      C        0.53050    0.47960    0.50000    1.000
    Cd17     Cd       0.13980    0.09851    0.00000    1.000
    C49      C        0.98860    0.16150    0.00000    1.000
    N37      N        0.91290    0.19290    0.00000    1.000
    C50      C        0.03050    0.02040    0.00000    1.000
    Cd18     Cd       0.63980    0.59851    0.00000    1.000
    C51      C        0.48860    0.66150    0.00000    1.000
    N38      N        0.41290    0.69290    0.00000    1.000
    C52      C        0.53050    0.52040    0.00000    1.000
    Cd19     Cd       0.86020    0.90149    0.00000    1.000
    C53      C        0.01140    0.83850    0.00000    1.000
    N39      N        0.08710    0.80710    0.00000    1.000
    C54      C        0.96950    0.97960    0.00000    1.000
    Cd20     Cd       0.36020    0.40149    0.00000    1.000
    C55      C        0.51140    0.33850    0.00000    1.000
    N40      N        0.58710    0.30710    0.00000    1.000
    C56      C        0.46950    0.47960    0.00000    1.000
