# CIF file generated by openbabel 3.1.0, see https://openbabel.org
data_I
_chemical_name_common 'image0'
_cell_length_a 9.515
_cell_length_b 12.297
_cell_length_c 9.461
_cell_angle_alpha 91.03
_cell_angle_beta 98.658
_cell_angle_gamma 93.714
_space_group_name_H-M_alt 'P 1'
_space_group_name_Hall 'P 1'
loop_
    _symmetry_equiv_pos_as_xyz
    x,y,z
loop_
    _atom_site_label
    _atom_site_type_symbol
    _atom_site_fract_x
    _atom_site_fract_y
    _atom_site_fract_z
    _atom_site_occupancy
    Zn1      Zn       0.31430    0.44883    0.09360    1.000
    Zn2      Zn       0.90450    0.03307    0.67850    1.000
    Zn3      Zn       0.59740    0.14753    0.10440    1.000
    Zn4      Zn       0.09900    0.64878    0.58580    1.000
    P1       P        0.66190    0.40230    0.16190    1.000
    P2       P        0.83880    0.08800    0.35370    1.000
    P3       P        0.69890    0.96980    0.88950    1.000
    P4       P        0.11420    0.52600    0.29420    1.000
    O1       O        0.50870    0.42850    0.15460    1.000
    O2       O        0.26730    0.52530    0.26280    1.000
    O3       O        0.74520    0.49220    0.09090    1.000
    O4       O        0.72970    0.97480    0.73640    1.000
    O5       O        0.92760    0.04250    0.24390    1.000
    O6       O        0.84010    0.00600    0.47570    1.000
    O7       O        0.63160    0.06980    0.93290    1.000
    O8       O        0.68400    0.09180    0.28280    1.000
    O9       O        0.60920    0.86420    0.90750    1.000
    O10      O        0.67650    0.29470    0.08350    1.000
    O11      O        0.09800    0.62960    0.37890    1.000
    O12      O        0.07520    0.42440    0.36880    1.000
    O13      O        0.72520    0.40020    0.31980    1.000
    O14      O        0.90950    0.19570    0.41670    1.000
    O15      O        0.02300    0.53290    0.14310    1.000
    O16      O        0.84770    0.95690    0.98430    1.000
    H1       H        0.92000    0.50700    0.14000    1.000
    H2       H        0.86000    0.99400    0.08200    1.000
    Zn5      Zn       0.68570    0.55117    0.90640    1.000
    Zn6      Zn       0.09550    0.96693    0.32150    1.000
    Zn7      Zn       0.40260    0.85247    0.89560    1.000
    Zn8      Zn       0.90100    0.35122    0.41420    1.000
    P5       P        0.33810    0.59770    0.83810    1.000
    P6       P        0.16120    0.91200    0.64630    1.000
    P7       P        0.30110    0.03020    0.11050    1.000
    P8       P        0.88580    0.47400    0.70580    1.000
    O17      O        0.49130    0.57150    0.84540    1.000
    O18      O        0.73270    0.47470    0.73720    1.000
    O19      O        0.25480    0.50780    0.90910    1.000
    O20      O        0.27030    0.02520    0.26360    1.000
    O21      O        0.07240    0.95750    0.75610    1.000
    O22      O        0.15990    0.99400    0.52430    1.000
    O23      O        0.36840    0.93020    0.06710    1.000
    O24      O        0.31600    0.90820    0.71720    1.000
    O25      O        0.39080    0.13580    0.09250    1.000
    O26      O        0.32350    0.70530    0.91650    1.000
    O27      O        0.90200    0.37040    0.62110    1.000
    O28      O        0.92480    0.57560    0.63120    1.000
    O29      O        0.27480    0.59980    0.68020    1.000
    O30      O        0.09050    0.80430    0.58330    1.000
    O31      O        0.97700    0.46710    0.85690    1.000
    O32      O        0.15230    0.04310    0.01570    1.000
    H3       H        0.08000    0.49300    0.86000    1.000
    H4       H        0.14000    0.00600    0.91800    1.000
