# CIF file generated by openbabel 3.1.0, see https://openbabel.org
data_I
_chemical_name_common 'image0'
_cell_length_a 15.6139
_cell_length_b 18.3439
_cell_length_c 34.336
_cell_angle_alpha 90
_cell_angle_beta 90
_cell_angle_gamma 90
_space_group_name_H-M_alt 'P 1'
_space_group_name_Hall 'P 1'
loop_
    _symmetry_equiv_pos_as_xyz
    x,y,z
loop_
    _atom_site_label
    _atom_site_type_symbol
    _atom_site_fract_x
    _atom_site_fract_y
    _atom_site_fract_z
    _atom_site_occupancy
    Co1      Co       0.50379    0.61040    0.48158    1.000
    N1       N        0.67600    0.55680    0.50860    1.000
    O1       O        0.83230    0.58920    0.52589    1.000
    C1       C        0.72010    0.50550    0.52759    1.000
    C2       C        0.80930    0.52720    0.53810    1.000
    O2       O        0.74070    0.34830    0.56220    1.000
    O3       O        0.60020    0.34160    0.55570    1.000
    N2       N        0.58800    0.46920    0.52115    1.000
    O4       O        0.85430    0.48730    0.55976    1.000
    C3       C        0.67000    0.37380    0.55281    1.000
    N3       N        0.59570    0.53480    0.50529    1.000
    C4       C        0.66450    0.44880    0.53534    1.000
    N4       N        0.83100    0.38020    0.68250    1.000
    C5       C        0.80930    0.38340    0.64594    1.000
    H1       H        0.75310    0.39090    0.63780    1.000
    Co2      Co       0.50379    0.11040    0.98158    1.000
    N5       N        0.67600    0.05680    0.00860    1.000
    O5       O        0.83230    0.08920    0.02589    1.000
    C6       C        0.72010    0.00550    0.02759    1.000
    C7       C        0.80930    0.02720    0.03810    1.000
    O6       O        0.74070    0.84830    0.06220    1.000
    O7       O        0.60020    0.84160    0.05570    1.000
    N6       N        0.58800    0.96920    0.02115    1.000
    O8       O        0.85430    0.98730    0.05976    1.000
    C8       C        0.67000    0.87380    0.05281    1.000
    N7       N        0.59570    0.03480    0.00529    1.000
    C9       C        0.66450    0.94880    0.03534    1.000
    N8       N        0.83100    0.88020    0.18250    1.000
    C10      C        0.80930    0.88340    0.14594    1.000
    H2       H        0.75310    0.89090    0.13780    1.000
    Co3      Co       0.00379    0.61040    0.98158    1.000
    N9       N        0.17600    0.55680    0.00860    1.000
    O9       O        0.33230    0.58920    0.02589    1.000
    C11      C        0.22010    0.50550    0.02759    1.000
    C12      C        0.30930    0.52720    0.03810    1.000
    O10      O        0.24070    0.34830    0.06220    1.000
    O11      O        0.10020    0.34160    0.05570    1.000
    N10      N        0.08800    0.46920    0.02115    1.000
    O12      O        0.35430    0.48730    0.05976    1.000
    C13      C        0.17000    0.37380    0.05281    1.000
    N11      N        0.09570    0.53480    0.00529    1.000
    C14      C        0.16450    0.44880    0.03534    1.000
    N12      N        0.33100    0.38020    0.18250    1.000
    C15      C        0.30930    0.38340    0.14594    1.000
    H3       H        0.25310    0.39090    0.13780    1.000
    Co4      Co       0.00379    0.11040    0.48158    1.000
    N13      N        0.17600    0.05680    0.50860    1.000
    O13      O        0.33230    0.08920    0.52589    1.000
    C16      C        0.22010    0.00550    0.52759    1.000
    C17      C        0.30930    0.02720    0.53810    1.000
    O14      O        0.24070    0.84830    0.56220    1.000
    O15      O        0.10020    0.84160    0.55570    1.000
    N14      N        0.08800    0.96920    0.52115    1.000
    O16      O        0.35430    0.98730    0.55976    1.000
    C18      C        0.17000    0.87380    0.55281    1.000
    N15      N        0.09570    0.03480    0.50529    1.000
    C19      C        0.16450    0.94880    0.53534    1.000
    N16      N        0.33100    0.88020    0.68250    1.000
    C20      C        0.30930    0.88340    0.64594    1.000
    H4       H        0.25310    0.89090    0.63780    1.000
    Co5      Co       0.24621    0.13960    0.48158    1.000
    N17      N        0.07400    0.19320    0.50860    1.000
    O17      O        0.91770    0.16080    0.52589    1.000
    C21      C        0.02990    0.24450    0.52759    1.000
    C22      C        0.94070    0.22280    0.53810    1.000
    O18      O        0.00930    0.40170    0.56220    1.000
    O19      O        0.14980    0.40840    0.55570    1.000
    N18      N        0.16200    0.28080    0.52115    1.000
    O20      O        0.89570    0.26270    0.55976    1.000
    C23      C        0.08000    0.37620    0.55281    1.000
    N19      N        0.15430    0.21520    0.50529    1.000
    C24      C        0.08550    0.30120    0.53534    1.000
    N20      N        0.91900    0.36980    0.68250    1.000
    C25      C        0.94070    0.36660    0.64594    1.000
    H5       H        0.99690    0.35910    0.63780    1.000
    Co6      Co       0.24621    0.63960    0.98158    1.000
    N21      N        0.07400    0.69320    0.00860    1.000
    O21      O        0.91770    0.66080    0.02589    1.000
    C26      C        0.02990    0.74450    0.02759    1.000
    C27      C        0.94070    0.72280    0.03810    1.000
    O22      O        0.00930    0.90170    0.06220    1.000
    O23      O        0.14980    0.90840    0.05570    1.000
    N22      N        0.16200    0.78080    0.02115    1.000
    O24      O        0.89570    0.76270    0.05976    1.000
    C28      C        0.08000    0.87620    0.05281    1.000
    N23      N        0.15430    0.71520    0.00529    1.000
    C29      C        0.08550    0.80120    0.03534    1.000
    N24      N        0.91900    0.86980    0.18250    1.000
    C30      C        0.94070    0.86660    0.14594    1.000
    H6       H        0.99690    0.85910    0.13780    1.000
    Co7      Co       0.74621    0.13960    0.98158    1.000
    N25      N        0.57400    0.19320    0.00860    1.000
    O25      O        0.41770    0.16080    0.02589    1.000
    C31      C        0.52990    0.24450    0.02759    1.000
    C32      C        0.44070    0.22280    0.03810    1.000
    O26      O        0.50930    0.40170    0.06220    1.000
    O27      O        0.64980    0.40840    0.05570    1.000
    N26      N        0.66200    0.28080    0.02115    1.000
    O28      O        0.39570    0.26270    0.05976    1.000
    C33      C        0.58000    0.37620    0.05281    1.000
    N27      N        0.65430    0.21520    0.00529    1.000
    C34      C        0.58550    0.30120    0.03534    1.000
    N28      N        0.41900    0.36980    0.18250    1.000
    C35      C        0.44070    0.36660    0.14594    1.000
    H7       H        0.49690    0.35910    0.13780    1.000
    Co8      Co       0.74621    0.63960    0.48158    1.000
    N29      N        0.57400    0.69320    0.50860    1.000
    O29      O        0.41770    0.66080    0.52589    1.000
    C36      C        0.52990    0.74450    0.52759    1.000
    C37      C        0.44070    0.72280    0.53810    1.000
    O30      O        0.50930    0.90170    0.56220    1.000
    O31      O        0.64980    0.90840    0.55570    1.000
    N30      N        0.66200    0.78080    0.52115    1.000
    O32      O        0.39570    0.76270    0.55976    1.000
    C38      C        0.58000    0.87620    0.55281    1.000
    N31      N        0.65430    0.71520    0.50529    1.000
    C39      C        0.58550    0.80120    0.53534    1.000
    N32      N        0.41900    0.86980    0.68250    1.000
    C40      C        0.44070    0.86660    0.64594    1.000
    H8       H        0.49690    0.85910    0.63780    1.000
    Co9      Co       0.24621    0.61040    0.26842    1.000
    N33      N        0.07400    0.55680    0.24140    1.000
    O33      O        0.91770    0.58920    0.22411    1.000
    C41      C        0.02990    0.50550    0.22241    1.000
    C42      C        0.94070    0.52720    0.21190    1.000
    O34      O        0.00930    0.34830    0.18780    1.000
    O35      O        0.14980    0.34160    0.19430    1.000
    N34      N        0.16200    0.46920    0.22885    1.000
    O36      O        0.89570    0.48730    0.19024    1.000
    C43      C        0.08000    0.37380    0.19719    1.000
    N35      N        0.15430    0.53480    0.24471    1.000
    C44      C        0.08550    0.44880    0.21466    1.000
    N36      N        0.91900    0.38020    0.06750    1.000
    C45      C        0.94070    0.38340    0.10406    1.000
    H9       H        0.99690    0.39090    0.11220    1.000
    Co10     Co       0.24621    0.11040    0.76842    1.000
    N37      N        0.07400    0.05680    0.74140    1.000
    O37      O        0.91770    0.08920    0.72411    1.000
    C46      C        0.02990    0.00550    0.72241    1.000
    C47      C        0.94070    0.02720    0.71190    1.000
    O38      O        0.00930    0.84830    0.68780    1.000
    O39      O        0.14980    0.84160    0.69430    1.000
    N38      N        0.16200    0.96920    0.72885    1.000
    O40      O        0.89570    0.98730    0.69024    1.000
    C48      C        0.08000    0.87380    0.69719    1.000
    N39      N        0.15430    0.03480    0.74471    1.000
    C49      C        0.08550    0.94880    0.71466    1.000
    N40      N        0.91900    0.88020    0.56750    1.000
    C50      C        0.94070    0.88340    0.60406    1.000
    H10      H        0.99690    0.89090    0.61220    1.000
    Co11     Co       0.74621    0.61040    0.76842    1.000
    N41      N        0.57400    0.55680    0.74140    1.000
    O41      O        0.41770    0.58920    0.72411    1.000
    C51      C        0.52990    0.50550    0.72241    1.000
    C52      C        0.44070    0.52720    0.71190    1.000
    O42      O        0.50930    0.34830    0.68780    1.000
    O43      O        0.64980    0.34160    0.69430    1.000
    N42      N        0.66200    0.46920    0.72885    1.000
    O44      O        0.39570    0.48730    0.69024    1.000
    C53      C        0.58000    0.37380    0.69719    1.000
    N43      N        0.65430    0.53480    0.74471    1.000
    C54      C        0.58550    0.44880    0.71466    1.000
    N44      N        0.41900    0.38020    0.56750    1.000
    C55      C        0.44070    0.38340    0.60406    1.000
    H11      H        0.49690    0.39090    0.61220    1.000
    Co12     Co       0.74621    0.11040    0.26842    1.000
    N45      N        0.57400    0.05680    0.24140    1.000
    O45      O        0.41770    0.08920    0.22411    1.000
    C56      C        0.52990    0.00550    0.22241    1.000
    C57      C        0.44070    0.02720    0.21190    1.000
    O46      O        0.50930    0.84830    0.18780    1.000
    O47      O        0.64980    0.84160    0.19430    1.000
    N46      N        0.66200    0.96920    0.22885    1.000
    O48      O        0.39570    0.98730    0.19024    1.000
    C58      C        0.58000    0.87380    0.19719    1.000
    N47      N        0.65430    0.03480    0.24471    1.000
    C59      C        0.58550    0.94880    0.21466    1.000
    N48      N        0.41900    0.88020    0.06750    1.000
    C60      C        0.44070    0.88340    0.10406    1.000
    H12      H        0.49690    0.89090    0.11220    1.000
    Co13     Co       0.50379    0.13960    0.26842    1.000
    N49      N        0.67600    0.19320    0.24140    1.000
    O49      O        0.83230    0.16080    0.22411    1.000
    C61      C        0.72010    0.24450    0.22241    1.000
    C62      C        0.80930    0.22280    0.21190    1.000
    O50      O        0.74070    0.40170    0.18780    1.000
    O51      O        0.60020    0.40840    0.19430    1.000
    N50      N        0.58800    0.28080    0.22885    1.000
    O52      O        0.85430    0.26270    0.19024    1.000
    C63      C        0.67000    0.37620    0.19719    1.000
    N51      N        0.59570    0.21520    0.24471    1.000
    C64      C        0.66450    0.30120    0.21466    1.000
    N52      N        0.83100    0.36980    0.06750    1.000
    C65      C        0.80930    0.36660    0.10406    1.000
    H13      H        0.75310    0.35910    0.11220    1.000
    Co14     Co       0.50379    0.63960    0.76842    1.000
    N53      N        0.67600    0.69320    0.74140    1.000
    O53      O        0.83230    0.66080    0.72411    1.000
    C66      C        0.72010    0.74450    0.72241    1.000
    C67      C        0.80930    0.72280    0.71190    1.000
    O54      O        0.74070    0.90170    0.68780    1.000
    O55      O        0.60020    0.90840    0.69430    1.000
    N54      N        0.58800    0.78080    0.72885    1.000
    O56      O        0.85430    0.76270    0.69024    1.000
    C68      C        0.67000    0.87620    0.69719    1.000
    N55      N        0.59570    0.71520    0.74471    1.000
    C69      C        0.66450    0.80120    0.71466    1.000
    N56      N        0.83100    0.86980    0.56750    1.000
    C70      C        0.80930    0.86660    0.60406    1.000
    H14      H        0.75310    0.85910    0.61220    1.000
    Co15     Co       0.00379    0.13960    0.76842    1.000
    N57      N        0.17600    0.19320    0.74140    1.000
    O57      O        0.33230    0.16080    0.72411    1.000
    C71      C        0.22010    0.24450    0.72241    1.000
    C72      C        0.30930    0.22280    0.71190    1.000
    O58      O        0.24070    0.40170    0.68780    1.000
    O59      O        0.10020    0.40840    0.69430    1.000
    N58      N        0.08800    0.28080    0.72885    1.000
    O60      O        0.35430    0.26270    0.69024    1.000
    C73      C        0.17000    0.37620    0.69719    1.000
    N59      N        0.09570    0.21520    0.74471    1.000
    C74      C        0.16450    0.30120    0.71466    1.000
    N60      N        0.33100    0.36980    0.56750    1.000
    C75      C        0.30930    0.36660    0.60406    1.000
    H15      H        0.25310    0.35910    0.61220    1.000
    Co16     Co       0.00379    0.63960    0.26842    1.000
    N61      N        0.17600    0.69320    0.24140    1.000
    O61      O        0.33230    0.66080    0.22411    1.000
    C76      C        0.22010    0.74450    0.22241    1.000
    C77      C        0.30930    0.72280    0.21190    1.000
    O62      O        0.24070    0.90170    0.18780    1.000
    O63      O        0.10020    0.90840    0.19430    1.000
    N62      N        0.08800    0.78080    0.22885    1.000
    O64      O        0.35430    0.76270    0.19024    1.000
    C78      C        0.17000    0.87620    0.19719    1.000
    N63      N        0.09570    0.71520    0.24471    1.000
    C79      C        0.16450    0.80120    0.21466    1.000
    N64      N        0.33100    0.86980    0.06750    1.000
    C80      C        0.30930    0.86660    0.10406    1.000
    H16      H        0.25310    0.85910    0.11220    1.000
    Co17     Co       0.49621    0.38960    0.51842    1.000
    N65      N        0.32400    0.44320    0.49140    1.000
    O65      O        0.16770    0.41080    0.47411    1.000
    C81      C        0.27990    0.49450    0.47241    1.000
    C82      C        0.19070    0.47280    0.46190    1.000
    O66      O        0.25930    0.65170    0.43780    1.000
    O67      O        0.39980    0.65840    0.44430    1.000
    N66      N        0.41200    0.53080    0.47885    1.000
    O68      O        0.14570    0.51270    0.44024    1.000
    C83      C        0.33000    0.62620    0.44719    1.000
    N67      N        0.40430    0.46520    0.49471    1.000
    C84      C        0.33550    0.55120    0.46466    1.000
    N68      N        0.16900    0.61980    0.31750    1.000
    C85      C        0.19070    0.61660    0.35406    1.000
    H17      H        0.24690    0.60910    0.36220    1.000
    Co18     Co       0.49621    0.88960    0.01842    1.000
    N69      N        0.32400    0.94320    0.99140    1.000
    O69      O        0.16770    0.91080    0.97411    1.000
    C86      C        0.27990    0.99450    0.97241    1.000
    C87      C        0.19070    0.97280    0.96190    1.000
    O70      O        0.25930    0.15170    0.93780    1.000
    O71      O        0.39980    0.15840    0.94430    1.000
    N70      N        0.41200    0.03080    0.97885    1.000
    O72      O        0.14570    0.01270    0.94024    1.000
    C88      C        0.33000    0.12620    0.94719    1.000
    N71      N        0.40430    0.96520    0.99471    1.000
    C89      C        0.33550    0.05120    0.96466    1.000
    N72      N        0.16900    0.11980    0.81750    1.000
    C90      C        0.19070    0.11660    0.85406    1.000
    H18      H        0.24690    0.10910    0.86220    1.000
    Co19     Co       0.99621    0.38960    0.01842    1.000
    N73      N        0.82400    0.44320    0.99140    1.000
    O73      O        0.66770    0.41080    0.97411    1.000
    C91      C        0.77990    0.49450    0.97241    1.000
    C92      C        0.69070    0.47280    0.96190    1.000
    O74      O        0.75930    0.65170    0.93780    1.000
    O75      O        0.89980    0.65840    0.94430    1.000
    N74      N        0.91200    0.53080    0.97885    1.000
    O76      O        0.64570    0.51270    0.94024    1.000
    C93      C        0.83000    0.62620    0.94719    1.000
    N75      N        0.90430    0.46520    0.99471    1.000
    C94      C        0.83550    0.55120    0.96466    1.000
    N76      N        0.66900    0.61980    0.81750    1.000
    C95      C        0.69070    0.61660    0.85406    1.000
    H19      H        0.74690    0.60910    0.86220    1.000
    Co20     Co       0.99621    0.88960    0.51842    1.000
    N77      N        0.82400    0.94320    0.49140    1.000
    O77      O        0.66770    0.91080    0.47411    1.000
    C96      C        0.77990    0.99450    0.47241    1.000
    C97      C        0.69070    0.97280    0.46190    1.000
    O78      O        0.75930    0.15170    0.43780    1.000
    O79      O        0.89980    0.15840    0.44430    1.000
    N78      N        0.91200    0.03080    0.47885    1.000
    O80      O        0.64570    0.01270    0.44024    1.000
    C98      C        0.83000    0.12620    0.44719    1.000
    N79      N        0.90430    0.96520    0.49471    1.000
    C99      C        0.83550    0.05120    0.46466    1.000
    N80      N        0.66900    0.11980    0.31750    1.000
    C100     C        0.69070    0.11660    0.35406    1.000
    H20      H        0.74690    0.10910    0.36220    1.000
    Co21     Co       0.75379    0.86040    0.51842    1.000
    N81      N        0.92600    0.80680    0.49140    1.000
    O81      O        0.08230    0.83920    0.47411    1.000
    C101     C        0.97010    0.75550    0.47241    1.000
    C102     C        0.05930    0.77720    0.46190    1.000
    O82      O        0.99070    0.59830    0.43780    1.000
    O83      O        0.85020    0.59160    0.44430    1.000
    N82      N        0.83800    0.71920    0.47885    1.000
    O84      O        0.10430    0.73730    0.44024    1.000
    C103     C        0.92000    0.62380    0.44719    1.000
    N83      N        0.84570    0.78480    0.49471    1.000
    C104     C        0.91450    0.69880    0.46466    1.000
    N84      N        0.08100    0.63020    0.31750    1.000
    C105     C        0.05930    0.63340    0.35406    1.000
    H21      H        0.00310    0.64090    0.36220    1.000
    Co22     Co       0.75379    0.36040    0.01842    1.000
    N85      N        0.92600    0.30680    0.99140    1.000
    O85      O        0.08230    0.33920    0.97411    1.000
    C106     C        0.97010    0.25550    0.97241    1.000
    C107     C        0.05930    0.27720    0.96190    1.000
    O86      O        0.99070    0.09830    0.93780    1.000
    O87      O        0.85020    0.09160    0.94430    1.000
    N86      N        0.83800    0.21920    0.97885    1.000
    O88      O        0.10430    0.23730    0.94024    1.000
    C108     C        0.92000    0.12380    0.94719    1.000
    N87      N        0.84570    0.28480    0.99471    1.000
    C109     C        0.91450    0.19880    0.96466    1.000
    N88      N        0.08100    0.13020    0.81750    1.000
    C110     C        0.05930    0.13340    0.85406    1.000
    H22      H        0.00310    0.14090    0.86220    1.000
    Co23     Co       0.25379    0.86040    0.01842    1.000
    N89      N        0.42600    0.80680    0.99140    1.000
    O89      O        0.58230    0.83920    0.97411    1.000
    C111     C        0.47010    0.75550    0.97241    1.000
    C112     C        0.55930    0.77720    0.96190    1.000
    O90      O        0.49070    0.59830    0.93780    1.000
    O91      O        0.35020    0.59160    0.94430    1.000
    N90      N        0.33800    0.71920    0.97885    1.000
    O92      O        0.60430    0.73730    0.94024    1.000
    C113     C        0.42000    0.62380    0.94719    1.000
    N91      N        0.34570    0.78480    0.99471    1.000
    C114     C        0.41450    0.69880    0.96466    1.000
    N92      N        0.58100    0.63020    0.81750    1.000
    C115     C        0.55930    0.63340    0.85406    1.000
    H23      H        0.50310    0.64090    0.86220    1.000
    Co24     Co       0.25379    0.36040    0.51842    1.000
    N93      N        0.42600    0.30680    0.49140    1.000
    O93      O        0.58230    0.33920    0.47411    1.000
    C116     C        0.47010    0.25550    0.47241    1.000
    C117     C        0.55930    0.27720    0.46190    1.000
    O94      O        0.49070    0.09830    0.43780    1.000
    O95      O        0.35020    0.09160    0.44430    1.000
    N94      N        0.33800    0.21920    0.47885    1.000
    O96      O        0.60430    0.23730    0.44024    1.000
    C118     C        0.42000    0.12380    0.44719    1.000
    N95      N        0.34570    0.28480    0.49471    1.000
    C119     C        0.41450    0.19880    0.46466    1.000
    N96      N        0.58100    0.13020    0.31750    1.000
    C120     C        0.55930    0.13340    0.35406    1.000
    H24      H        0.50310    0.14090    0.36220    1.000
    Co25     Co       0.75379    0.38960    0.73158    1.000
    N97      N        0.92600    0.44320    0.75860    1.000
    O97      O        0.08230    0.41080    0.77589    1.000
    C121     C        0.97010    0.49450    0.77759    1.000
    C122     C        0.05930    0.47280    0.78810    1.000
    O98      O        0.99070    0.65170    0.81220    1.000
    O99      O        0.85020    0.65840    0.80570    1.000
    N98      N        0.83800    0.53080    0.77115    1.000
    O100     O        0.10430    0.51270    0.80976    1.000
    C123     C        0.92000    0.62620    0.80281    1.000
    N99      N        0.84570    0.46520    0.75529    1.000
    C124     C        0.91450    0.55120    0.78534    1.000
    N100     N        0.08100    0.61980    0.93250    1.000
    C125     C        0.05930    0.61660    0.89594    1.000
    H25      H        0.00310    0.60910    0.88780    1.000
    Co26     Co       0.75379    0.88960    0.23158    1.000
    N101     N        0.92600    0.94320    0.25860    1.000
    O101     O        0.08230    0.91080    0.27589    1.000
    C126     C        0.97010    0.99450    0.27759    1.000
    C127     C        0.05930    0.97280    0.28810    1.000
    O102     O        0.99070    0.15170    0.31220    1.000
    O103     O        0.85020    0.15840    0.30570    1.000
    N102     N        0.83800    0.03080    0.27115    1.000
    O104     O        0.10430    0.01270    0.30976    1.000
    C128     C        0.92000    0.12620    0.30281    1.000
    N103     N        0.84570    0.96520    0.25529    1.000
    C129     C        0.91450    0.05120    0.28534    1.000
    N104     N        0.08100    0.11980    0.43250    1.000
    C130     C        0.05930    0.11660    0.39594    1.000
    H26      H        0.00310    0.10910    0.38780    1.000
    Co27     Co       0.25379    0.38960    0.23158    1.000
    N105     N        0.42600    0.44320    0.25860    1.000
    O105     O        0.58230    0.41080    0.27589    1.000
    C131     C        0.47010    0.49450    0.27759    1.000
    C132     C        0.55930    0.47280    0.28810    1.000
    O106     O        0.49070    0.65170    0.31220    1.000
    O107     O        0.35020    0.65840    0.30570    1.000
    N106     N        0.33800    0.53080    0.27115    1.000
    O108     O        0.60430    0.51270    0.30976    1.000
    C133     C        0.42000    0.62620    0.30281    1.000
    N107     N        0.34570    0.46520    0.25529    1.000
    C134     C        0.41450    0.55120    0.28534    1.000
    N108     N        0.58100    0.61980    0.43250    1.000
    C135     C        0.55930    0.61660    0.39594    1.000
    H27      H        0.50310    0.60910    0.38780    1.000
    Co28     Co       0.25379    0.88960    0.73158    1.000
    N109     N        0.42600    0.94320    0.75860    1.000
    O109     O        0.58230    0.91080    0.77589    1.000
    C136     C        0.47010    0.99450    0.77759    1.000
    C137     C        0.55930    0.97280    0.78810    1.000
    O110     O        0.49070    0.15170    0.81220    1.000
    O111     O        0.35020    0.15840    0.80570    1.000
    N110     N        0.33800    0.03080    0.77115    1.000
    O112     O        0.60430    0.01270    0.80976    1.000
    C138     C        0.42000    0.12620    0.80281    1.000
    N111     N        0.34570    0.96520    0.75529    1.000
    C139     C        0.41450    0.05120    0.78534    1.000
    N112     N        0.58100    0.11980    0.93250    1.000
    C140     C        0.55930    0.11660    0.89594    1.000
    H28      H        0.50310    0.10910    0.88780    1.000
    Co29     Co       0.49621    0.86040    0.73158    1.000
    N113     N        0.32400    0.80680    0.75860    1.000
    O113     O        0.16770    0.83920    0.77589    1.000
    C141     C        0.27990    0.75550    0.77759    1.000
    C142     C        0.19070    0.77720    0.78810    1.000
    O114     O        0.25930    0.59830    0.81220    1.000
    O115     O        0.39980    0.59160    0.80570    1.000
    N114     N        0.41200    0.71920    0.77115    1.000
    O116     O        0.14570    0.73730    0.80976    1.000
    C143     C        0.33000    0.62380    0.80281    1.000
    N115     N        0.40430    0.78480    0.75529    1.000
    C144     C        0.33550    0.69880    0.78534    1.000
    N116     N        0.16900    0.63020    0.93250    1.000
    C145     C        0.19070    0.63340    0.89594    1.000
    H29      H        0.24690    0.64090    0.88780    1.000
    Co30     Co       0.49621    0.36040    0.23158    1.000
    N117     N        0.32400    0.30680    0.25860    1.000
    O117     O        0.16770    0.33920    0.27589    1.000
    C146     C        0.27990    0.25550    0.27759    1.000
    C147     C        0.19070    0.27720    0.28810    1.000
    O118     O        0.25930    0.09830    0.31220    1.000
    O119     O        0.39980    0.09160    0.30570    1.000
    N118     N        0.41200    0.21920    0.27115    1.000
    O120     O        0.14570    0.23730    0.30976    1.000
    C148     C        0.33000    0.12380    0.30281    1.000
    N119     N        0.40430    0.28480    0.25529    1.000
    C149     C        0.33550    0.19880    0.28534    1.000
    N120     N        0.16900    0.13020    0.43250    1.000
    C150     C        0.19070    0.13340    0.39594    1.000
    H30      H        0.24690    0.14090    0.38780    1.000
    Co31     Co       0.99621    0.86040    0.23158    1.000
    N121     N        0.82400    0.80680    0.25860    1.000
    O121     O        0.66770    0.83920    0.27589    1.000
    C151     C        0.77990    0.75550    0.27759    1.000
    C152     C        0.69070    0.77720    0.28810    1.000
    O122     O        0.75930    0.59830    0.31220    1.000
    O123     O        0.89980    0.59160    0.30570    1.000
    N122     N        0.91200    0.71920    0.27115    1.000
    O124     O        0.64570    0.73730    0.30976    1.000
    C153     C        0.83000    0.62380    0.30281    1.000
    N123     N        0.90430    0.78480    0.25529    1.000
    C154     C        0.83550    0.69880    0.28534    1.000
    N124     N        0.66900    0.63020    0.43250    1.000
    C155     C        0.69070    0.63340    0.39594    1.000
    H31      H        0.74690    0.64090    0.38780    1.000
    Co32     Co       0.99621    0.36040    0.73158    1.000
    N125     N        0.82400    0.30680    0.75860    1.000
    O125     O        0.66770    0.33920    0.77589    1.000
    C156     C        0.77990    0.25550    0.77759    1.000
    C157     C        0.69070    0.27720    0.78810    1.000
    O126     O        0.75930    0.09830    0.81220    1.000
    O127     O        0.89980    0.09160    0.80570    1.000
    N126     N        0.91200    0.21920    0.77115    1.000
    O128     O        0.64570    0.23730    0.80976    1.000
    C158     C        0.83000    0.12380    0.80281    1.000
    N127     N        0.90430    0.28480    0.75529    1.000
    C159     C        0.83550    0.19880    0.78534    1.000
    N128     N        0.66900    0.13020    0.93250    1.000
    C160     C        0.69070    0.13340    0.89594    1.000
    H32      H        0.74690    0.14090    0.88780    1.000
    Co33     Co       0.87500    0.37500    0.56079    1.000
    N129     N        0.87500    0.37500    0.62090    1.000
    Co34     Co       0.87500    0.87500    0.06079    1.000
    N130     N        0.87500    0.87500    0.12090    1.000
    Co35     Co       0.37500    0.37500    0.06079    1.000
    N131     N        0.37500    0.37500    0.12090    1.000
    Co36     Co       0.37500    0.87500    0.56079    1.000
    N132     N        0.37500    0.87500    0.62090    1.000
    Co37     Co       0.87500    0.37500    0.18921    1.000
    N133     N        0.87500    0.37500    0.12910    1.000
    Co38     Co       0.87500    0.87500    0.68921    1.000
    N134     N        0.87500    0.87500    0.62910    1.000
    Co39     Co       0.37500    0.37500    0.68921    1.000
    N135     N        0.37500    0.37500    0.62910    1.000
    Co40     Co       0.37500    0.87500    0.18921    1.000
    N136     N        0.37500    0.87500    0.12910    1.000
    Co41     Co       0.12500    0.62500    0.43921    1.000
    N137     N        0.12500    0.62500    0.37910    1.000
    Co42     Co       0.12500    0.12500    0.93921    1.000
    N138     N        0.12500    0.12500    0.87910    1.000
    Co43     Co       0.62500    0.62500    0.93921    1.000
    N139     N        0.62500    0.62500    0.87910    1.000
    Co44     Co       0.62500    0.12500    0.43921    1.000
    N140     N        0.62500    0.12500    0.37910    1.000
    Co45     Co       0.12500    0.62500    0.81079    1.000
    N141     N        0.12500    0.62500    0.87090    1.000
    Co46     Co       0.12500    0.12500    0.31079    1.000
    N142     N        0.12500    0.12500    0.37090    1.000
    Co47     Co       0.62500    0.62500    0.31079    1.000
    N143     N        0.62500    0.62500    0.37090    1.000
    Co48     Co       0.62500    0.12500    0.81079    1.000
    N144     N        0.62500    0.12500    0.87090    1.000
