# CIF file generated by openbabel 3.1.0, see https://openbabel.org
data_I
_chemical_name_common 'image0'
_cell_length_a 10.2325
_cell_length_b 10.4579
_cell_length_c 11.665
_cell_angle_alpha 106.737
_cell_angle_beta 108.856
_cell_angle_gamma 104.541
_space_group_name_H-M_alt 'P 1'
_space_group_name_Hall 'P 1'
loop_
    _symmetry_equiv_pos_as_xyz
    x,y,z
loop_
    _atom_site_label
    _atom_site_type_symbol
    _atom_site_fract_x
    _atom_site_fract_y
    _atom_site_fract_z
    _atom_site_occupancy
    Sr1      Sr       0.36042    0.09467    0.43399    1.000
    O1       O        0.28280    0.31830    0.48940    1.000
    O2       O        0.11900    0.10840    0.44790    1.000
    O3       O        0.62270    0.33100    0.54950    1.000
    H1       H        0.64180    0.35690    0.64100    1.000
    O4       O        0.64030    0.11720    0.50040    1.000
    O5       O        0.55920    0.41110    0.87040    1.000
    O6       O        0.45640    0.20730    0.69010    1.000
    O7       O        0.39950    0.21660    0.28390    1.000
    O8       O        0.44100    0.41580    0.25200    1.000
    C1       C        0.16580    0.24240    0.49090    1.000
    C2       C        0.08330    0.32070    0.55010    1.000
    C3       C        0.93590    0.24880    0.52430    1.000
    H2       H        0.88880    0.14990    0.47400    1.000
    C4       C        0.85900    0.32510    0.57390    1.000
    C5       C        0.93130    0.47220    0.65240    1.000
    H3       H        0.87940    0.52350    0.68430    1.000
    C6       C        0.08090    0.54370    0.68360    1.000
    C7       C        0.15480    0.46630    0.62910    1.000
    H4       H        0.25350    0.51370    0.64640    1.000
    C8       C        0.69680    0.25300    0.53980    1.000
    C9       C        0.15860    0.69590    0.76430    1.000
    C10      C        0.23010    0.82130    0.82690    1.000
    C11      C        0.31220    0.97450    0.89300    1.000
    C12      C        0.37040    0.04710    0.82680    1.000
    H5       H        0.35990    0.99580    0.74250    1.000
    C13      C        0.44400    0.19610    0.88630    1.000
    C14      C        0.46200    0.27320    0.01280    1.000
    H6       H        0.51230    0.37290    0.05270    1.000
    C15      C        0.40470    0.20150    0.08000    1.000
    C16      C        0.33230    0.05270    0.02070    1.000
    H7       H        0.29660    0.00430    0.06650    1.000
    C17      C        0.48720    0.26990    0.80510    1.000
    C18      C        0.41630    0.28370    0.21450    1.000
    Sr2      Sr       0.63958    0.90533    0.56601    1.000
    O9       O        0.71720    0.68170    0.51060    1.000
    O10      O        0.88100    0.89160    0.55210    1.000
    O11      O        0.37730    0.66900    0.45050    1.000
    H8       H        0.35820    0.64310    0.35900    1.000
    O12      O        0.35970    0.88280    0.49960    1.000
    O13      O        0.44080    0.58890    0.12960    1.000
    O14      O        0.54360    0.79270    0.30990    1.000
    O15      O        0.60050    0.78340    0.71610    1.000
    O16      O        0.55900    0.58420    0.74800    1.000
    C19      C        0.83420    0.75760    0.50910    1.000
    C20      C        0.91670    0.67930    0.44990    1.000
    C21      C        0.06410    0.75120    0.47570    1.000
    H9       H        0.11120    0.85010    0.52600    1.000
    C22      C        0.14100    0.67490    0.42610    1.000
    C23      C        0.06870    0.52780    0.34760    1.000
    H10      H        0.12060    0.47650    0.31570    1.000
    C24      C        0.91910    0.45630    0.31640    1.000
    C25      C        0.84520    0.53370    0.37090    1.000
    H11      H        0.74650    0.48630    0.35360    1.000
    C26      C        0.30320    0.74700    0.46020    1.000
    C27      C        0.84140    0.30410    0.23570    1.000
    C28      C        0.76990    0.17870    0.17310    1.000
    C29      C        0.68780    0.02550    0.10700    1.000
    C30      C        0.62960    0.95290    0.17320    1.000
    H12      H        0.64010    0.00420    0.25750    1.000
    C31      C        0.55600    0.80390    0.11370    1.000
    C32      C        0.53800    0.72680    0.98720    1.000
    H13      H        0.48770    0.62710    0.94730    1.000
    C33      C        0.59530    0.79850    0.92000    1.000
    C34      C        0.66770    0.94730    0.97930    1.000
    H14      H        0.70340    0.99570    0.93350    1.000
    C35      C        0.51280    0.73010    0.19490    1.000
    C36      C        0.58370    0.71630    0.78550    1.000
    Sr3      Sr       0.50000    0.50000    0.50000    1.000
