data_functionalizedCrystal
_audit_creation_method	'EQeq! by Chris Wilmer'
_symmetry_space_group_name_H-M	'P1'
_symmetry_Int_Tables_number	1
_symmetry_cell_setting	triclinic
loop_
_symmetry_equiv_pos_as_xyz
  x,y,z
_cell_length_a	8.6027
_cell_length_b	13.2648
_cell_length_c	14.942
_cell_angle_alpha	83.5649
_cell_angle_beta	73.2695
_cell_angle_gamma	71.0787
loop_
_atom_site_label
_atom_site_type_symbol
_atom_site_fract_x
_atom_site_fract_y
_atom_site_fract_z
_atom_site_charge
Mof_Zn	Zn	0.83851	0.80234	0.9457	1.203
Mof_Zn	Zn	0.58655	0.69766	0.5543	1.192
Mof_Zn	Zn	0.16149	0.19766	0.0543	1.174
Mof_Zn	Zn	0.41345	0.30234	0.4457	1.19
Mof_Zn	Zn	-0	0	-0	1.196
Mof_Zn	Zn	-1.21925e-16	0.5	0.5	1.231
Mof_H 	H 	0.7284	0.0973	0.7259	0.091
Mof_H 	H 	0.8083	0.2304	0.6288	-0.012
Mof_H 	H 	0.2704	0.1224	0.6756	0.002
Mof_H 	H 	0.8633	0.5911	0.0273	-0.022
Mof_H 	H 	0.7252	0.4656	0.0586	0.129
Mof_H 	H 	0.4179	0.6387	0.9037	0.134
Mof_H 	H 	0.5648	0.7592	0.8772	-0.016
Mof_H 	H 	0.5516	0.4027	0.7741	0.07
Mof_H 	H 	0.6675	0.2696	0.8712	0.029
Mof_H 	H 	0.0684	0.3776	0.8244	-0.021
Mof_H 	H 	0.4817	0.9089	0.4727	0.017
Mof_H 	H 	0.2494	0.0344	0.4414	0
Mof_H 	H 	0.9603	0.8613	0.5963	0.161
Mof_H 	H 	0.2012	0.7408	0.6228	-0.022
Mof_H 	H 	0.2716	0.9027	0.2741	0.046
Mof_H 	H 	0.1917	0.7696	0.3712	0.078
Mof_H 	H 	0.7296	0.8776	0.3244	0.086
Mof_H 	H 	0.1367	0.4089	0.9727	-0.005
Mof_H 	H 	0.2748	0.5344	0.9414	0.033
Mof_H 	H 	0.5821	0.3613	0.0963	0.053
Mof_H 	H 	0.4352	0.2408	0.1228	0.018
Mof_H 	H 	0.4484	0.5973	0.2259	0.054
Mof_H 	H 	0.3325	0.7304	0.1288	0.049
Mof_H 	H 	0.9316	0.6224	0.1756	0.122
Mof_H 	H 	0.5183	0.0911	0.5273	-0.037
Mof_H 	H 	0.7506	0.9656	0.5586	0.146
Mof_H 	H 	0.0397	0.1387	0.4037	0.005
Mof_H 	H 	0.7988	0.2592	0.3772	0.032
Mof_C 	C 	0.88471	0.95128	0.8285	0.33
Mof_C 	C 	0.9477	0.03242	0.76358	0.056
Mof_C 	C 	0.83656	0.10318	0.7173	-0.157
Mof_C 	C 	0.88471	0.18259	0.65839	0.174
Mof_C 	C 	0.04587	0.19067	0.64359	-0.236
Mof_C 	C 	0.10341	0.27638	0.5804	0.353
Mof_C 	C 	0.16049	0.11816	0.68706	0.129
Mof_C 	C 	0.11222	0.03972	0.74724	-0.232
Mof_C 	C 	0.77094	0.60142	0.0031	0.108
Mof_C 	C 	0.68805	0.5256	0.0225	-0.276
Mof_C 	C 	0.5491	0.5386	0.9882	0.25
Mof_C 	C 	0.50665	0.6279	0.931	-0.233
Mof_C 	C 	0.5962	0.6999	0.9151	0.159
Mof_C 	C 	0.66449	0.54872	0.6715	0.329
Mof_C 	C 	0.7437	0.46758	0.73642	-0.028
Mof_C 	C 	0.65704	0.39682	0.7827	-0.07
Mof_C 	C 	0.72569	0.31741	0.84161	0.057
Mof_C 	C 	0.88013	0.30933	0.85641	-0.152
Mof_C 	C 	0.96019	0.22362	0.9196	0.467
Mof_C 	C 	0.96571	0.38184	0.81294	0.15
Mof_C 	C 	0.89918	0.46028	0.75276	-0.066
Mof_C 	C 	0.37546	0.89858	0.4969	0.03
Mof_C 	C 	0.23615	0.9744	0.4775	-0.011
Mof_C 	C 	0.0759	0.9614	0.5118	0.058
Mof_C 	C 	0.06555	0.8721	0.569	-0.233
Mof_C 	C 	0.2112	0.8001	0.5849	0.135
Mof_C 	C 	0.11529	0.04872	0.1715	0.302
Mof_C 	C 	0.0523	0.96758	0.23642	-0.095
Mof_C 	C 	0.16344	0.89682	0.2827	0.03
Mof_C 	C 	0.11529	0.81741	0.34161	-0.115
Mof_C 	C 	0.95413	0.80933	0.35641	0.008
Mof_C 	C 	0.89659	0.72362	0.4196	0.419
Mof_C 	C 	0.83951	0.88184	0.31294	-0.051
Mof_C 	C 	0.88778	0.96028	0.25276	0.059
Mof_C 	C 	0.22906	0.39858	0.9969	0.068
Mof_C 	C 	0.31195	0.4744	0.9775	0.007
Mof_C 	C 	0.4509	0.4614	0.0118	-0.123
Mof_C 	C 	0.49335	0.3721	0.069	-0.038
Mof_C 	C 	0.4038	0.3001	0.0849	0.026
Mof_C 	C 	0.33551	0.45128	0.3285	0.334
Mof_C 	C 	0.2563	0.53242	0.26358	-0.051
Mof_C 	C 	0.34296	0.60318	0.2173	-0.026
Mof_C 	C 	0.27431	0.68259	0.15839	-0.03
Mof_C 	C 	0.11987	0.69067	0.14359	-0.046
Mof_C 	C 	0.03981	0.77638	0.0804	0.288
Mof_C 	C 	0.03429	0.61816	0.18706	-0.103
Mof_C 	C 	0.10082	0.53972	0.24724	-0.091
Mof_C 	C 	0.62454	0.10142	0.5031	0.117
Mof_C 	C 	0.76385	0.0256	0.5225	-0.231
Mof_C 	C 	0.9241	0.0386	0.4882	0.058
Mof_C 	C 	0.93445	0.1279	0.431	-0.005
Mof_C 	C 	0.7888	0.1999	0.4151	0.033
Mof_S 	S 	0.27238	0.94884	0.7963	0.572
Mof_S 	S 	0.01752	0.55116	0.7037	0.404
Mof_S 	S 	0.72762	0.05116	0.2037	0.442
Mof_S 	S 	0.98248	0.44884	0.2963	0.615
Mof_N 	N 	0.72568	0.68936	0.95108	-0.274
Mof_N 	N 	0.36612	0.81064	0.54892	-0.276
Mof_N 	N 	0.27432	0.31064	0.04892	-0.293
Mof_N 	N 	0.63388	0.18936	0.45108	-0.277
Mof_O 	O 	0.91035	0.93723	0.91047	-0.511
Mof_O 	O 	0.81131	0.89745	0.80493	-0.347
Mof_O 	O 	0.99651	0.34768	0.5491	-0.381
Mof_O 	O 	0.25984	0.26813	0.56519	-0.48
Mof_O 	O 	0.43228	0.963	0.74244	-0.26
Mof_O 	O 	0.23237	0.98116	0.8935	-0.381
Mof_O 	O 	0.26365	0.8436	0.7889	-0.301
Mof_O 	O 	0.75805	0.56277	0.58953	-0.549
Mof_O 	O 	0.51369	0.60255	0.69507	-0.367
Mof_O 	O 	0.89329	0.15232	0.9509	-0.423
Mof_O 	O 	0.09316	0.23187	0.93481	-0.518
Mof_O 	O 	0.13772	0.537	0.75756	-0.256
Mof_O 	O 	0.10703	0.51884	0.6065	-0.396
Mof_O 	O 	0.89615	0.6564	0.7111	-0.231
Mof_O 	O 	0.08965	0.06277	0.08953	-0.612
Mof_O 	O 	0.18869	0.10255	0.19507	-0.385
Mof_O 	O 	0.00349	0.65232	0.4509	-0.487
Mof_O 	O 	0.74016	0.73187	0.43481	-0.484
Mof_O 	O 	0.56772	0.037	0.25756	-0.279
Mof_O 	O 	0.76763	0.01884	0.1065	-0.407
Mof_O 	O 	0.73635	0.1564	0.2111	-0.267
Mof_O 	O 	0.24195	0.43723	0.41047	-0.577
Mof_O 	O 	0.48631	0.39745	0.30493	-0.368
Mof_O 	O 	0.10671	0.84768	0.0491	-0.424
Mof_O 	O 	0.90684	0.76813	0.06519	-0.431
Mof_O 	O 	0.86228	0.463	0.24244	-0.28
Mof_O 	O 	0.89297	0.48116	0.3935	-0.404
Mof_O 	O 	0.10385	0.3436	0.2889	-0.348
_end
