data_functionalizedCrystal
_audit_creation_method	'EQeq! by Chris Wilmer'
_symmetry_space_group_name_H-M	'P1'
_symmetry_Int_Tables_number	1
_symmetry_cell_setting	triclinic
loop_
_symmetry_equiv_pos_as_xyz
  x,y,z
_cell_length_a	12.568
_cell_length_b	13.59
_cell_length_c	25.68
_cell_angle_alpha	80.498
_cell_angle_beta	76.872
_cell_angle_gamma	76.607
loop_
_atom_site_label
_atom_site_type_symbol
_atom_site_fract_x
_atom_site_fract_y
_atom_site_fract_z
_atom_site_charge
Mof_Zn	Zn	0.60778	0.39757	0.34702	1.171
Mof_Zn	Zn	0.6858	0.36571	0.20043	1.183
Mof_Mo	Mo	0.4383	0.23842	0.45327	1.539
Mof_Mo	Mo	0.4519	0.2013	0.58894	1.097
Mof_Mo	Mo	0.34895	0.00735	0.5163	1.549
Mof_Mo	Mo	0.52476	0.94066	0.62524	1.157
Mof_C 	C 	0.0719	0.9686	0.4532	-0.018
Mof_C 	C 	0.0487	0.0701	0.4615	-0.03
Mof_C 	C 	0.9743	0.1023	0.5079	-0.006
Mof_C 	C 	0.1499	0.9349	0.4015	0.001
Mof_H 	H 	0.157	0.9948	0.3756	0.035
Mof_H 	H 	0.2232	0.9048	0.4094	0.075
Mof_C 	C 	0.1084	0.1455	0.4232	0.041
Mof_H 	H 	0.1138	0.1996	0.4422	0.019
Mof_H 	H 	0.1833	0.1119	0.4079	0.002
Mof_C 	C 	0.9395	0.2147	0.5129	0.011
Mof_H 	H 	0.9296	0.2526	0.4783	0.039
Mof_H 	H 	0.8693	0.2285	0.5383	0.051
Mof_C 	C 	0.0259	0.8948	0.3525	0.303
Mof_C 	C 	0.9937	0.8149	0.3347	-0.288
Mof_H 	H 	0.0306	0.7475	0.3402	0.146
Mof_C 	C 	0.9002	0.8439	0.3077	0.199
Mof_H 	H 	0.8766	0.7945	0.2945	-0.05
Mof_C 	C 	0.8472	0.9413	0.3013	-0.32
Mof_H 	H 	0.7843	0.9585	0.2858	0.13
Mof_C 	C 	0.8838	0.0133	0.317	0.245
Mof_C 	C 	0.9711	0.9947	0.3437	-0.344
Mof_H 	H 	0.9922	0.0472	0.3554	0.165
Mof_C 	C 	0.8159	0.1693	0.2577	0.104
Mof_H 	H 	0.8443	0.1412	0.2255	-0
Mof_C 	C 	0.7713	0.188	0.3419	0.101
Mof_H 	H 	0.7624	0.1748	0.3792	-0.042
Mof_C 	C 	0.0972	0.2402	0.3362	0.319
Mof_C 	C 	0.0397	0.272	0.2947	-0.321
Mof_H 	H 	0.9686	0.259	0.2988	0.149
Mof_C 	C 	0.0872	0.3238	0.2462	0.201
Mof_H 	H 	0.0474	0.3448	0.2186	-0.056
Mof_C 	C 	0.1938	0.3439	0.2393	-0.288
Mof_H 	H 	0.2274	0.3764	0.2071	0.136
Mof_C 	C 	0.2475	0.3132	0.2828	0.245
Mof_C 	C 	0.2024	0.2616	0.3305	-0.352
Mof_H 	H 	0.2416	0.2414	0.3584	0.15
Mof_C 	C 	0.4387	0.3306	0.235	0.115
Mof_H 	H 	0.4346	0.3149	0.2017	0.009
Mof_C 	C 	0.3967	0.3612	0.3171	0.126
Mof_H 	H 	0.3564	0.3712	0.3516	-0.058
Mof_C 	C 	0.0039	0.3386	0.5489	0.349
Mof_C 	C 	0.8999	0.4003	0.5625	-0.383
Mof_H 	H 	0.8366	0.3802	0.5585	0.171
Mof_C 	C 	0.8898	0.4902	0.5816	0.287
Mof_H 	H 	0.819	0.5296	0.5914	-0.089
Mof_C 	C 	0.9809	0.5248	0.5871	-0.349
Mof_H 	H 	0.9732	0.5879	0.5986	0.16
Mof_C 	C 	0.0833	0.4622	0.5748	0.272
Mof_C 	C 	0.0956	0.3721	0.5556	-0.36
Mof_H 	H 	0.1666	0.3322	0.5469	0.125
Mof_C 	C 	0.2757	0.4941	0.5414	0.103
Mof_H 	H 	0.2881	0.4676	0.5089	-0.053
Mof_C 	C 	0.1996	0.5426	0.6181	0.101
Mof_H 	H 	0.1482	0.5574	0.6495	-0.022
Mof_C 	C 	0.9028	0.9742	0.9948	0.018
Mof_C 	C 	0.9454	0.9381	0.0409	0.018
Mof_C 	C 	0.0416	0.9648	0.0468	-0.008
Mof_C 	C 	0.8004	0.9404	0.9874	-0.003
Mof_H 	H 	0.779	0.9734	0.9538	0.053
Mof_H 	H 	0.8157	0.8672	0.9869	0.039
Mof_C 	C 	0.6221	0.9271	0.0378	0.116
Mof_C 	C 	0.5405	0.9422	0.084	-0.049
Mof_C 	C 	0.4445	0.903	0.0919	-0.108
Mof_C 	C 	0.4302	0.8485	0.0535	-0.024
Mof_C 	C 	0.5118	0.8333	0.0073	0.009
Mof_C 	C 	0.6078	0.8726	0.9995	-0.098
Mof_C 	C 	0.8891	0.8705	0.0862	0.02
Mof_H 	H 	0.8411	0.8374	0.0733	0.037
Mof_H 	H 	0.9442	0.8184	0.1016	0.024
Mof_C 	C 	0.7495	0.8999	0.1665	0.354
Mof_C 	C 	0.6707	0.9702	0.1959	-0.366
Mof_H 	H 	0.6721	0.0391	0.1874	0.177
Mof_C 	C 	0.5914	0.9394	0.237	0.246
Mof_H 	H 	0.5376	0.9875	0.2556	-0.1
Mof_C 	C 	0.5904	0.8337	0.2517	-0.325
Mof_H 	H 	0.538	0.8109	0.2801	0.118
Mof_C 	C 	0.6695	0.7686	0.2222	0.258
Mof_C 	C 	0.7533	0.7965	0.1805	-0.358
Mof_H 	H 	0.8089	0.7481	0.163	0.156
Mof_C 	C 	0.6907	0.5908	0.2019	0.119
Mof_H 	H 	0.7068	0.6044	0.1646	-0.036
Mof_C 	C 	0.6503	0.6098	0.2856	0.131
Mof_H 	H 	0.6298	0.6402	0.3172	-0.084
Mof_C 	C 	0.0956	0.9195	0.0983	0.066
Mof_H 	H 	0.057	0.8679	0.12	0.02
Mof_H 	H 	0.1734	0.8881	0.0872	0.019
Mof_C 	C 	0.1475	0.9708	0.1675	0.31
Mof_C 	C 	0.1626	0.0542	0.1878	-0.298
Mof_H 	H 	0.1338	0.1199	0.1736	0.144
Mof_C 	C 	0.2209	0.0393	0.2294	0.197
Mof_H 	H 	0.231	0.0951	0.243	-0.042
Mof_C 	C 	0.264	0.9411	0.2507	-0.279
Mof_H 	H 	0.303	0.9311	0.2785	0.13
Mof_C 	C 	0.2489	0.8577	0.2303	0.258
Mof_C 	C 	0.1906	0.8726	0.1888	-0.328
Mof_H 	H 	0.1805	0.8169	0.1752	0.152
Mof_N 	N 	0.8282	0.1196	0.3056	-0.189
Mof_N 	N 	0.7601	0.261	0.2612	-0.238
Mof_N 	N 	0.7328	0.2732	0.3154	-0.235
Mof_N 	N 	0.3565	0.335	0.2775	-0.189
Mof_N 	N 	0.5287	0.3517	0.2466	-0.215
Mof_N 	N 	0.5002	0.3704	0.2994	-0.247
Mof_N 	N 	0.1811	0.4972	0.578	-0.195
Mof_N 	N 	0.3491	0.5321	0.5561	-0.142
Mof_N 	N 	0.2988	0.5619	0.6057	-0.243
Mof_N 	N 	0.6725	0.6591	0.2362	-0.19
Mof_N 	N 	0.6824	0.5009	0.2292	-0.247
Mof_N 	N 	0.6619	0.5113	0.2829	-0.242
Mof_O 	O 	0.1154	0.8639	0.3773	-0.24
Mof_O 	O 	0.0452	0.1875	0.3806	-0.278
Mof_O 	O 	0.026	0.2453	0.5315	-0.275
Mof_O 	O 	0.7151	0.9687	0.0311	-0.193
Mof_O 	O 	0.8232	0.9373	0.1265	-0.242
Mof_O 	O 	0.0867	0.9958	0.1272	-0.259
Mof_O 	O 	0.5447	0.2862	0.4084	-0.681
Mof_O 	O 	0.3832	0.1777	0.40601	-0.646
Mof_O 	O 	0.482	0.2445	0.5185	-0.024
Mof_O 	O 	0.3426	0.1401	0.516	-0.681
Mof_O 	O 	0.3702	0.9784	0.4499	-0.568
Mof_O 	O 	0.4578	0.9252	0.55019	-0.689
Mof_O 	O 	0.4262	0.0734	0.6179	-0.618
Mof_N 	N 	0.2972	0.762	0.2488	-0.168
Mof_C 	C 	0.3136	0.7293	0.3023	0.056
Mof_H 	H 	0.2938	0.7695	0.3304	0.064
Mof_N 	N 	0.3655	0.6245	0.3056	-0.099
Mof_N 	N 	0.3812	0.5924	0.254	-0.2
Mof_C 	C 	0.339	0.6773	0.2189	0.099
Mof_N 	N 	0.415	0.797	0.8914	-0.047
Mof_N 	N 	0.528	0.7479	0.8758	-0.117
Mof_C 	C 	0.581	0.736	0.9205	0.159
Mof_C 	C 	0.39	0.839	0.938	-0.037
Mof_N 	N 	0.49	0.814	0.9549	1.718
Mof_O 	O 	0.5321	0.2258	0.6221	0.97
Mof_O 	O 	0.685	0.245	0.1569	0.027
Mof_N 	N 	0.413	0.605	0.2503	0.11
Mof_N 	N 	0.321	0.574	0.269	0.006
Mof_C 	C 	0.558	0.898	0.0906	-0
Mof_C 	C 	0.473	0.854	0.0947	0.112
Mof_N 	N 	0.501	0.778	0.9638	-2.022
Mof_C 	C 	0.398	0.816	0.9458	-0.141
Mof_N 	N 	0.528	0.719	0.983	0.585
Mof_N 	N 	0.418	0.744	0.907	0.019
Mof_O 	O 	0.602	0.46	0.1379	-1.065
Mof_O 	O 	0.616	0.387	0.1415	-0.11
Mof_O 	O 	0.5554	0.4652	0.0988	0.064
Mof_O 	O 	0.7568	0.2815	0.1101	-0.124
Mof_O 	O 	0.735	0.2391	0.1593	-0.294
Mof_O 	O 	0.5083	0.2295	0.516	-0.522
Mof_O 	O 	0.5726	0.2132	0.616	-1.381
Mof_O 	O 	0.5917	0.157	0.5278	-0.14
Mof_O 	O 	0.6455	0.4567	0.1306	0.809
Mof_Zn	Zn	0.39222	0.60243	0.65298	1.171
Mof_Zn	Zn	0.3142	0.63429	0.79957	1.183
Mof_Mo	Mo	0.5617	0.76158	0.54673	1.539
Mof_Mo	Mo	0.5481	0.7987	0.41106	1.097
Mof_Mo	Mo	0.65105	0.99265	0.4837	1.549
Mof_Mo	Mo	0.47524	0.05934	0.37476	1.157
Mof_C 	C 	0.9281	0.0314	0.5468	-0.018
Mof_C 	C 	0.9513	0.9299	0.5385	-0.03
Mof_C 	C 	0.0257	0.8977	0.4921	-0.006
Mof_C 	C 	0.8501	0.0651	0.5985	0.001
Mof_H 	H 	0.843	0.0052	0.6244	0.035
Mof_H 	H 	0.7768	0.0952	0.5906	0.075
Mof_C 	C 	0.8916	0.8545	0.5768	0.041
Mof_H 	H 	0.8862	0.8004	0.5578	0.019
Mof_H 	H 	0.8167	0.8881	0.5921	0.002
Mof_C 	C 	0.0605	0.7853	0.4871	0.011
Mof_H 	H 	0.0704	0.7474	0.5217	0.039
Mof_H 	H 	0.1307	0.7715	0.4617	0.051
Mof_C 	C 	0.9741	0.1052	0.6475	0.303
Mof_C 	C 	0.0063	0.1851	0.6653	-0.288
Mof_H 	H 	0.9694	0.2525	0.6598	0.146
Mof_C 	C 	0.0998	0.1561	0.6923	0.199
Mof_H 	H 	0.1234	0.2055	0.7055	-0.05
Mof_C 	C 	0.1528	0.0587	0.6987	-0.32
Mof_H 	H 	0.2157	0.0415	0.7142	0.13
Mof_C 	C 	0.1162	0.9867	0.683	0.245
Mof_C 	C 	0.0289	0.0053	0.6563	-0.344
Mof_H 	H 	0.0078	0.9528	0.6446	0.165
Mof_C 	C 	0.1841	0.8307	0.7423	0.104
Mof_H 	H 	0.1557	0.8588	0.7745	-0
Mof_C 	C 	0.2287	0.812	0.6581	0.101
Mof_H 	H 	0.2376	0.8252	0.6208	-0.042
Mof_C 	C 	0.9028	0.7598	0.6638	0.319
Mof_C 	C 	0.9603	0.728	0.7053	-0.321
Mof_H 	H 	0.0314	0.741	0.7012	0.149
Mof_C 	C 	0.9128	0.6762	0.7538	0.201
Mof_H 	H 	0.9526	0.6552	0.7814	-0.056
Mof_C 	C 	0.8062	0.6561	0.7607	-0.288
Mof_H 	H 	0.7726	0.6236	0.7929	0.136
Mof_C 	C 	0.7525	0.6868	0.7172	0.245
Mof_C 	C 	0.7976	0.7384	0.6695	-0.352
Mof_H 	H 	0.7584	0.7586	0.6416	0.15
Mof_C 	C 	0.5613	0.6694	0.765	0.115
Mof_H 	H 	0.5654	0.6851	0.7983	0.009
Mof_C 	C 	0.6033	0.6388	0.6829	0.126
Mof_H 	H 	0.6436	0.6288	0.6484	-0.058
Mof_C 	C 	0.9961	0.6614	0.4511	0.349
Mof_C 	C 	0.1001	0.5997	0.4375	-0.383
Mof_H 	H 	0.1634	0.6198	0.4415	0.171
Mof_C 	C 	0.1102	0.5098	0.4184	0.287
Mof_H 	H 	0.181	0.4704	0.4086	-0.089
Mof_C 	C 	0.0191	0.4752	0.4129	-0.349
Mof_H 	H 	0.0268	0.4121	0.4014	0.16
Mof_C 	C 	0.9167	0.5378	0.4252	0.272
Mof_C 	C 	0.9044	0.6279	0.4444	-0.36
Mof_H 	H 	0.8334	0.6678	0.4531	0.125
Mof_C 	C 	0.7243	0.5059	0.4586	0.103
Mof_H 	H 	0.7119	0.5324	0.4911	-0.053
Mof_C 	C 	0.8004	0.4574	0.3819	0.101
Mof_H 	H 	0.8518	0.4426	0.3505	-0.022
Mof_C 	C 	0.0972	0.0258	0.0052	0.018
Mof_C 	C 	0.0546	0.0619	0.9591	0.018
Mof_C 	C 	0.9584	0.0352	0.9532	-0.008
Mof_C 	C 	0.1996	0.0596	0.0126	-0.003
Mof_H 	H 	0.221	0.0266	0.0462	0.053
Mof_H 	H 	0.1843	0.1328	0.0131	0.039
Mof_C 	C 	0.3779	0.0729	0.9622	0.116
Mof_C 	C 	0.4595	0.0578	0.916	-0.049
Mof_C 	C 	0.5555	0.097	0.9081	-0.108
Mof_C 	C 	0.5698	0.1515	0.9465	-0.024
Mof_C 	C 	0.4882	0.1667	0.9927	0.009
Mof_C 	C 	0.3922	0.1274	0.0005	-0.098
Mof_C 	C 	0.1109	0.1295	0.9138	0.02
Mof_H 	H 	0.1589	0.1626	0.9267	0.037
Mof_H 	H 	0.0558	0.1816	0.8984	0.024
Mof_C 	C 	0.2505	0.1001	0.8335	0.354
Mof_C 	C 	0.3293	0.0298	0.8041	-0.366
Mof_H 	H 	0.3279	0.9609	0.8126	0.177
Mof_C 	C 	0.4086	0.0606	0.763	0.246
Mof_H 	H 	0.4624	0.0125	0.7444	-0.1
Mof_C 	C 	0.4096	0.1663	0.7483	-0.325
Mof_H 	H 	0.462	0.1891	0.7199	0.118
Mof_C 	C 	0.3305	0.2314	0.7778	0.258
Mof_C 	C 	0.2467	0.2035	0.8195	-0.358
Mof_H 	H 	0.1911	0.2519	0.837	0.156
Mof_C 	C 	0.3093	0.4092	0.7981	0.119
Mof_H 	H 	0.2932	0.3956	0.8354	-0.036
Mof_C 	C 	0.3497	0.3902	0.7144	0.131
Mof_H 	H 	0.3702	0.3598	0.6828	-0.084
Mof_C 	C 	0.9044	0.0805	0.9017	0.066
Mof_H 	H 	0.943	0.1321	0.88	0.02
Mof_H 	H 	0.8266	0.1119	0.9128	0.019
Mof_C 	C 	0.8525	0.0292	0.8325	0.31
Mof_C 	C 	0.8374	0.9458	0.8122	-0.298
Mof_H 	H 	0.8662	0.8801	0.8264	0.144
Mof_C 	C 	0.7791	0.9607	0.7706	0.197
Mof_H 	H 	0.769	0.9049	0.757	-0.042
Mof_C 	C 	0.736	0.0589	0.7493	-0.279
Mof_H 	H 	0.697	0.0689	0.7215	0.13
Mof_C 	C 	0.7511	0.1423	0.7697	0.258
Mof_C 	C 	0.8094	0.1274	0.8112	-0.328
Mof_H 	H 	0.8195	0.1831	0.8248	0.152
Mof_N 	N 	0.1718	0.8804	0.6944	-0.189
Mof_N 	N 	0.2399	0.739	0.7388	-0.238
Mof_N 	N 	0.2672	0.7268	0.6846	-0.235
Mof_N 	N 	0.6435	0.665	0.7225	-0.189
Mof_N 	N 	0.4713	0.6483	0.7534	-0.215
Mof_N 	N 	0.4998	0.6296	0.7006	-0.247
Mof_N 	N 	0.8189	0.5028	0.422	-0.195
Mof_N 	N 	0.6509	0.4679	0.4439	-0.142
Mof_N 	N 	0.7012	0.4381	0.3943	-0.243
Mof_N 	N 	0.3275	0.3409	0.7638	-0.19
Mof_N 	N 	0.3176	0.4991	0.7708	-0.247
Mof_N 	N 	0.3381	0.4887	0.7171	-0.242
Mof_O 	O 	0.8846	0.1361	0.6227	-0.24
Mof_O 	O 	0.9548	0.8125	0.6194	-0.278
Mof_O 	O 	0.974	0.7547	0.4685	-0.275
Mof_O 	O 	0.2849	0.0313	0.9689	-0.193
Mof_O 	O 	0.1768	0.0627	0.8735	-0.242
Mof_O 	O 	0.9133	0.0042	0.8728	-0.259
Mof_O 	O 	0.4553	0.7138	0.5916	-0.681
Mof_O 	O 	0.6168	0.8223	0.59399	-0.646
Mof_O 	O 	0.518	0.7555	0.4815	-0.024
Mof_O 	O 	0.6574	0.8599	0.484	-0.681
Mof_O 	O 	0.6298	0.0216	0.5501	-0.568
Mof_O 	O 	0.5422	0.0748	0.44981	-0.689
Mof_O 	O 	0.5738	0.9266	0.3821	-0.618
Mof_N 	N 	0.7028	0.238	0.7512	-0.168
Mof_C 	C 	0.6864	0.2707	0.6977	0.056
Mof_H 	H 	0.7062	0.2305	0.6696	0.064
Mof_N 	N 	0.6345	0.3755	0.6944	-0.099
Mof_N 	N 	0.6188	0.4076	0.746	-0.2
Mof_C 	C 	0.661	0.3227	0.7811	0.099
Mof_N 	N 	0.585	0.203	0.1086	-0.047
Mof_N 	N 	0.472	0.2521	0.1242	-0.117
Mof_C 	C 	0.419	0.264	0.0795	0.159
Mof_C 	C 	0.61	0.161	0.062	-0.037
Mof_N 	N 	0.51	0.186	0.0451	1.718
Mof_O 	O 	0.4679	0.7742	0.3779	0.97
Mof_O 	O 	0.315	0.755	0.8431	0.027
Mof_N 	N 	0.587	0.395	0.7497	0.11
Mof_N 	N 	0.679	0.426	0.731	0.006
Mof_C 	C 	0.442	0.102	0.9094	-0
Mof_C 	C 	0.527	0.146	0.9053	0.112
Mof_N 	N 	0.499	0.222	0.0362	-2.022
Mof_C 	C 	0.602	0.184	0.0542	-0.141
Mof_N 	N 	0.472	0.281	0.017	0.585
Mof_N 	N 	0.582	0.256	0.093	0.019
Mof_O 	O 	0.398	0.54	0.8621	-1.065
Mof_O 	O 	0.384	0.613	0.8585	-0.11
Mof_O 	O 	0.4446	0.5348	0.9012	0.064
Mof_O 	O 	0.2432	0.7185	0.8899	-0.124
Mof_O 	O 	0.265	0.7609	0.8407	-0.294
Mof_O 	O 	0.4917	0.7705	0.484	-0.522
Mof_O 	O 	0.4274	0.7868	0.384	-1.381
Mof_O 	O 	0.4083	0.843	0.4722	-0.14
Mof_O 	O 	0.3545	0.5433	0.8694	0.809
_end
