data_functionalizedCrystal
_audit_creation_method	'EQeq! by Chris Wilmer'
_symmetry_space_group_name_H-M	'P1'
_symmetry_Int_Tables_number	1
_symmetry_cell_setting	triclinic
loop_
_symmetry_equiv_pos_as_xyz
  x,y,z
_cell_length_a	12.314
_cell_length_b	14.986
_cell_length_c	26.3493
_cell_angle_alpha	90
_cell_angle_beta	99.8167
_cell_angle_gamma	90
loop_
_atom_site_label
_atom_site_type_symbol
_atom_site_fract_x
_atom_site_fract_y
_atom_site_fract_z
_atom_site_charge
Mof_Zn	Zn	0.13216	0.97707	0.13778	1.234
Mof_Zn	Zn	0.99281	0.15676	0.77602	1.176
Mof_Zn	Zn	0.36784	0.47707	0.36222	1.236
Mof_Zn	Zn	0.63216	0.52293	0.63778	1.236
Mof_Zn	Zn	0.49281	0.34324	0.27602	1.177
Mof_Zn	Zn	0.50719	0.65676	0.72398	1.177
Mof_Zn	Zn	0.86784	0.02293	0.86222	1.234
Mof_Zn	Zn	0.00719	0.84324	0.22398	1.176
Mof_H 	H 	0.2339	0.2479	0.8974	0.033
Mof_H 	H 	0.7661	0.7521	0.1026	0.033
Mof_H 	H 	0.6336	0.7787	0.9534	0.042
Mof_H 	H 	0.8911	0.9313	0.0154	0.043
Mof_H 	H 	0.7966	0.125	0.5409	0.048
Mof_H 	H 	0.7796	0.8158	0.7482	0.024
Mof_H 	H 	0.9742	0.966	0.6742	0.026
Mof_H 	H 	0.1336	0.7213	0.4534	0.041
Mof_H 	H 	0.177	0.9991	0.4113	0.05
Mof_H 	H 	0.8417	0.7382	0.6103	0.047
Mof_H 	H 	0.4424	0.2573	0.9025	0.065
Mof_H 	H 	0.3417	0.7618	0.1103	0.046
Mof_H 	H 	0.7339	0.2521	0.3974	0.033
Mof_H 	H 	0.677	0.5009	0.9113	0.047
Mof_H 	H 	0.7204	0.3158	0.7518	0.024
Mof_H 	H 	0.9424	0.2427	0.4025	0.066
Mof_H 	H 	0.3911	0.5687	0.5154	0.043
Mof_H 	H 	0.2034	0.875	0.4591	0.048
Mof_H 	H 	0.2966	0.375	0.0409	0.049
Mof_H 	H 	0.3664	0.2213	0.0466	0.042
Mof_H 	H 	0.8664	0.2787	0.5466	0.041
Mof_H 	H 	0.6583	0.2382	0.8897	0.046
Mof_H 	H 	0.823	0.0009	0.5887	0.05
Mof_H 	H 	0.2204	0.1842	0.2518	0.024
Mof_H 	H 	0.0576	0.7573	0.5975	0.066
Mof_H 	H 	0.2796	0.6842	0.2482	0.024
Mof_H 	H 	0.1089	0.0687	0.9846	0.043
Mof_H 	H 	0.0258	0.034	0.3258	0.026
Mof_H 	H 	0.4742	0.534	0.1742	0.024
Mof_H 	H 	0.7034	0.625	0.9591	0.049
Mof_H 	H 	0.1583	0.2618	0.3897	0.047
Mof_H 	H 	0.5258	0.466	0.8258	0.024
Mof_H 	H 	0.6089	0.4313	0.4846	0.043
Mof_H 	H 	0.2661	0.7479	0.6026	0.033
Mof_H 	H 	0.5576	0.7427	0.0975	0.065
Mof_H 	H 	0.323	0.4991	0.0887	0.047
Mof_C 	C 	0.10581	0.818	0.53701	0.017
Mof_C 	C 	0.27792	0.3128	0.32032	0.409
Mof_C 	C 	0.70119	0.2667	0.82109	-0.127
Mof_C 	C 	0.61882	0.4002	0.78142	-0.135
Mof_C 	C 	0.2612	0.6367	0.4757	-0.11
Mof_C 	C 	0.23553	0.2204	0.92913	0.003
Mof_C 	C 	0.39419	0.318	0.96299	0.015
Mof_C 	C 	0.13333	0.9889	0.43623	-0.064
Mof_C 	C 	0.91665	0.8556	0.63435	-0.026
Mof_C 	C 	0.20119	0.2333	0.32109	-0.127
Mof_C 	C 	0.75998	0.9064	0.92528	0.37
Mof_C 	C 	0.04939	0.0522	0.44279	0.008
Mof_C 	C 	0.18604	0.1742	0.28004	0.058
Mof_C 	C 	0.66062	0.3874	0.48122	0.053
Mof_C 	C 	0.93096	0.9154	0.67546	0.006
Mof_C 	C 	0.0281	0.1295	0.4114	0.018
Mof_C 	C 	0.5281	0.3705	0.9114	0.017
Mof_C 	C 	0.56904	0.4154	0.82454	0.005
Mof_C 	C 	0.68546	0.7956	0.98166	-0.006
Mof_C 	C 	0.5743	0.3747	0.3876	0.445
Mof_C 	C 	0.59037	0.6041	0.00587	-0.001
Mof_C 	C 	0.81454	0.2956	0.51834	-0.005
Mof_C 	C 	0.95061	0.9478	0.55721	0.008
Mof_C 	C 	0.90224	0.9649	0.76304	0.426
Mof_C 	C 	0.45061	0.5522	0.05721	-0.002
Mof_C 	C 	0.84105	0.8473	0.06615	-0.128
Mof_C 	C 	0.18599	0.7472	0.52899	-0.021
Mof_C 	C 	0.34998	0.4153	0.03448	-0.054
Mof_C 	C 	0.31401	0.2472	0.97101	-0.02
Mof_C 	C 	0.14946	0.2203	0.36306	0.002
Mof_C 	C 	0.54628	0.6916	0.07728	-0.095
Mof_C 	C 	0.88118	0.9002	0.71858	-0.136
Mof_C 	C 	0.09776	0.0351	0.23696	0.426
Mof_C 	C 	0.79881	0.7667	0.67891	-0.127
Mof_C 	C 	0.26447	0.7204	0.57087	0.004
Mof_C 	C 	0.7612	0.8633	0.9757	-0.109
Mof_C 	C 	0.83938	0.8874	0.01878	0.052
Mof_C 	C 	0.58335	0.3556	0.86565	-0.026
Mof_C 	C 	0.29881	0.7333	0.17891	-0.127
Mof_C 	C 	0.16062	0.1126	0.98122	0.052
Mof_C 	C 	0.72208	0.6872	0.67968	0.409
Mof_C 	C 	0.54939	0.4478	0.94279	-0.002
Mof_C 	C 	0.31396	0.6742	0.21996	0.057
Mof_C 	C 	0.65002	0.5847	0.96552	-0.054
Mof_C 	C 	0.18546	0.7044	0.48166	-0.005
Mof_C 	C 	0.09037	0.8959	0.50587	-0.002
Mof_C 	C 	0.35054	0.7203	0.13694	0.002
Mof_C 	C 	0.63333	0.5111	0.93623	-0.054
Mof_C 	C 	0.38118	0.5998	0.21858	-0.135
Mof_C 	C 	0.51032	0.5388	0.01602	-0.004
Mof_C 	C 	0.95372	0.1916	0.42272	-0.099
Mof_C 	C 	0.15895	0.1527	0.93385	-0.128
Mof_C 	C 	0.15002	0.9153	0.46552	-0.049
Mof_C 	C 	0.64946	0.2797	0.86306	0.002
Mof_C 	C 	0.45372	0.3084	0.92272	-0.095
Mof_C 	C 	0.68599	0.7528	0.02899	-0.02
Mof_C 	C 	0.74002	0.4064	0.57472	0.371
Mof_C 	C 	0.48968	0.4612	0.98398	-0.004
Mof_C 	C 	0.24002	0.0936	0.07472	0.37
Mof_C 	C 	0.84998	0.0847	0.53448	-0.049
Mof_C 	C 	0.41665	0.6444	0.13435	-0.026
Mof_C 	C 	0.33938	0.6126	0.51878	0.053
Mof_C 	C 	0.81401	0.2528	0.47101	-0.021
Mof_C 	C 	0.43096	0.5846	0.17546	0.005
Mof_C 	C 	0.04628	0.8084	0.57728	-0.099
Mof_C 	C 	0.81396	0.8258	0.71996	0.058
Mof_C 	C 	0.76447	0.7796	0.07087	0.003
Mof_C 	C 	0.68604	0.3258	0.78004	0.057
Mof_C 	C 	0.34105	0.6527	0.56615	-0.129
Mof_C 	C 	0.06904	0.0846	0.32454	0.006
Mof_C 	C 	0.60581	0.682	0.03701	0.015
Mof_C 	C 	0.22208	0.8128	0.17968	0.409
Mof_C 	C 	0.01032	0.9612	0.51602	-0.008
Mof_C 	C 	0.7388	0.3633	0.5243	-0.11
Mof_C 	C 	0.25998	0.5936	0.42528	0.371
Mof_C 	C 	0.89419	0.182	0.46299	0.017
Mof_C 	C 	0.9719	0.8705	0.5886	0.018
Mof_C 	C 	0.2388	0.1367	0.0243	-0.109
Mof_C 	C 	0.11882	0.0998	0.28142	-0.136
Mof_C 	C 	0.85054	0.7797	0.63694	0.002
Mof_C 	C 	0.9257	0.8747	0.1124	0.444
Mof_C 	C 	0.31454	0.2044	0.01834	-0.006
Mof_C 	C 	0.08335	0.1444	0.36565	-0.026
Mof_C 	C 	0.4719	0.6295	0.0886	0.017
Mof_C 	C 	0.77792	0.1872	0.82032	0.409
Mof_C 	C 	0.0743	0.1253	0.8876	0.444
Mof_C 	C 	0.59776	0.4649	0.73696	0.419
Mof_C 	C 	0.86667	0.0111	0.56377	-0.064
Mof_C 	C 	0.40963	0.3959	0.99413	-0.001
Mof_C 	C 	0.65895	0.3473	0.43385	-0.129
Mof_C 	C 	0.36667	0.4889	0.06377	-0.054
Mof_C 	C 	0.90963	0.1041	0.49413	-0.002
Mof_C 	C 	0.73553	0.2796	0.42913	0.004
Mof_C 	C 	0.98968	0.0388	0.48398	-0.008
Mof_C 	C 	0.40224	0.5351	0.26304	0.419
Mof_C 	C 	0.4257	0.6253	0.6124	0.445
Mof_O 	O 	0.51842	0.44108	0.39352	-0.5
Mof_O 	O 	0.14731	0.04981	0.19971	-0.491
Mof_O 	O 	0.85269	0.95019	0.80029	-0.491
Mof_O 	O 	0.06948	0.1704	0.84808	-0.537
Mof_O 	O 	0.64731	0.45019	0.69971	-0.491
Mof_O 	O 	0.83521	0.1822	0.78601	-0.519
Mof_O 	O 	0.98158	0.94108	0.10648	-0.497
Mof_O 	O 	0.96909	0.0268	0.76119	-0.54
Mof_O 	O 	0.48158	0.55892	0.60648	-0.5
Mof_O 	O 	0.77742	0.13004	0.85562	-0.484
Mof_O 	O 	0.22258	0.86996	0.14438	-0.484
Mof_O 	O 	0.66123	0.4581	0.57843	-0.453
Mof_O 	O 	0.81497	0.391	0.61087	-0.306
Mof_O 	O 	0.93052	0.8296	0.15192	-0.537
Mof_O 	O 	0.03091	0.9732	0.23881	-0.54
Mof_O 	O 	0.31497	0.109	0.11087	-0.305
Mof_O 	O 	0.27742	0.36996	0.35562	-0.482
Mof_O 	O 	0.01842	0.05892	0.89352	-0.497
Mof_O 	O 	0.43052	0.6704	0.65192	-0.539
Mof_O 	O 	0.83877	0.9581	0.92157	-0.451
Mof_O 	O 	0.16479	0.8178	0.21399	-0.519
Mof_O 	O 	0.18503	0.609	0.38913	-0.306
Mof_O 	O 	0.46909	0.4732	0.26119	-0.534
Mof_O 	O 	0.68503	0.891	0.88913	-0.305
Mof_O 	O 	0.33877	0.5419	0.42157	-0.453
Mof_O 	O 	0.16123	0.0419	0.07843	-0.451
Mof_O 	O 	0.56948	0.3296	0.34808	-0.539
Mof_O 	O 	0.53091	0.5268	0.73881	-0.534
Mof_O 	O 	0.66479	0.6822	0.71399	-0.518
Mof_O 	O 	0.33521	0.3178	0.28601	-0.518
Mof_O 	O 	0.35269	0.54981	0.30029	-0.491
Mof_O 	O 	0.72258	0.63004	0.64438	-0.482
_end
