# CIF file generated by openbabel 3.1.0, see https://openbabel.org
data_I
_chemical_name_common 'image0'
_cell_length_a 36.079
_cell_length_b 14.978
_cell_length_c 30.734
_cell_angle_alpha 90
_cell_angle_beta 102.47
_cell_angle_gamma 90
_space_group_name_H-M_alt 'P 1'
_space_group_name_Hall 'P 1'
loop_
    _symmetry_equiv_pos_as_xyz
    x,y,z
loop_
    _atom_site_label
    _atom_site_type_symbol
    _atom_site_fract_x
    _atom_site_fract_y
    _atom_site_fract_z
    _atom_site_occupancy
    Zn1      Zn       0.37701    0.09068    0.43463    1.000
    Zn2      Zn       0.58560    0.37260    0.58770    1.000
    Zn3      Zn       0.57100    0.61000    0.09570    1.000
    Zn4      Zn       0.17284    0.36472    0.27398    1.000
    I1       I        0.39401    0.23340    0.39859    1.000
    I2       I        0.36370    0.07140    0.51580    1.000
    I3       I        0.35825    0.09320    0.50830    1.000
    I4       I        0.62128    0.26093    0.54738    1.000
    I5       I        0.60430    0.73570    0.06008    1.000
    I6       I        0.53297    0.33708    0.62608    1.000
    I7       I        0.51680    0.62870    0.13485    1.000
    I8       I        0.12649    0.33549    0.19874    1.000
    I9       I        0.63410    0.82180    0.21190    1.000
    I10      I        0.23210    0.27310    0.29830    1.000
    I11      I        0.74130    0.79170    0.31350    1.000
    N1       N        0.57440    0.72570    0.43530    1.000
    N2       N        0.52430    0.77180    0.46980    1.000
    N3       N        0.53800    0.85520    0.40890    1.000
    C1       C        0.55210    0.71520    0.46370    1.000
    C2       C        0.51750    0.83820    0.43970    1.000
    C3       C        0.56730    0.79900    0.40970    1.000
    N4       N        0.56850    0.48070    0.54490    1.000
    C4       C        0.59180    0.50040    0.51860    1.000
    H1       H        0.61200    0.46050    0.51730    1.000
    C5       C        0.58790    0.57810    0.49260    1.000
    H2       H        0.60610    0.59240    0.47540    1.000
    C6       C        0.55740    0.63330    0.49220    1.000
    C7       C        0.53200    0.61040    0.51860    1.000
    H3       H        0.51030    0.64600    0.51860    1.000
    C8       C        0.53930    0.53390    0.54520    1.000
    H4       H        0.52260    0.51960    0.56410    1.000
    N5       N        0.42150    0.00500    0.43770    1.000
    C9       C        0.43580    0.99390    0.40330    1.000
    H5       H        0.42330    0.02300    0.37670    1.000
    C10      C        0.46770    0.94330    0.40110    1.000
    H6       H        0.47750    0.94050    0.37480    1.000
    C11      C        0.48480    0.89650    0.44000    1.000
    C12      C        0.46920    0.90400    0.47620    1.000
    H7       H        0.47950    0.87180    0.50270    1.000
    C13      C        0.43800    0.95930    0.47420    1.000
    H8       H        0.42780    0.96500    0.50010    1.000
    N6       N        0.64090    0.84940    0.32190    1.000
    C14      C        0.65060    0.79160    0.35550    1.000
    H9       H        0.67450    0.76250    0.35980    1.000
    C15      C        0.62690    0.77270    0.38410    1.000
    H10      H        0.63420    0.72940    0.40690    1.000
    C16      C        0.59280    0.81680    0.37960    1.000
    C17      C        0.58390    0.87870    0.34540    1.000
    H11      H        0.56090    0.91190    0.34160    1.000
    C18      C        0.60810    0.89260    0.31670    1.000
    H12      H        0.60120    0.93390    0.29290    1.000
    N7       N        0.22070    0.95320    0.26960    1.000
    N8       N        0.23600    0.81460    0.30710    1.000
    N9       N        0.18270    0.82720    0.24560    1.000
    C19      C        0.19260    0.91260    0.24420    1.000
    C20      C        0.24100    0.90270    0.30230    1.000
    C21      C        0.20630    0.78000    0.27790    1.000
    N10      N        0.12210    0.05860    0.13820    1.000
    C22      C        0.11590    0.97390    0.14620    1.000
    H13      H        0.09410    0.94550    0.12890    1.000
    C23      C        0.13970    0.92550    0.17840    1.000
    H14      H        0.13580    0.86310    0.18070    1.000
    C24      C        0.16840    0.96530    0.20660    1.000
    C25      C        0.17470    0.05300    0.19930    1.000
    H15      H        0.19490    0.08390    0.21840    1.000
    C26      C        0.15140    0.09710    0.16380    1.000
    H16      H        0.15700    0.15730    0.15790    1.000
    N11      N        0.33390    0.03010    0.39060    1.000
    C27      C        0.30920    0.07510    0.36050    1.000
    H17      H        0.31280    0.13770    0.35860    1.000
    C28      C        0.27860    0.03750    0.33170    1.000
    H18      H        0.26170    0.07390    0.31110    1.000
    C29      C        0.27270    0.94600    0.33300    1.000
    C30      C        0.29810    0.89730    0.36450    1.000
    H19      H        0.29520    0.83470    0.36750    1.000
    C31      C        0.32830    0.94390    0.39210    1.000
    H20      H        0.34590    0.91020    0.41320    1.000
    N12      N        0.18510    0.50020    0.27630    1.000
    C32      C        0.21580    0.53560    0.30240    1.000
    H21      H        0.23330    0.49650    0.32060    1.000
    C33      C        0.22370    0.62540    0.30480    1.000
    H22      H        0.24590    0.64710    0.32450    1.000
    C34      C        0.19940    0.68280    0.27870    1.000
    C35      C        0.16750    0.64660    0.24880    1.000
    H23      H        0.15050    0.68390    0.22880    1.000
    C36      C        0.16200    0.55700    0.24940    1.000
    H24      H        0.14030    0.53300    0.22960    1.000
    Zn5      Zn       0.87701    0.59068    0.43463    1.000
    Zn6      Zn       0.08560    0.87260    0.58770    1.000
    Zn7      Zn       0.07100    0.11000    0.09570    1.000
    Zn8      Zn       0.67284    0.86472    0.27398    1.000
    I12      I        0.89401    0.73340    0.39859    1.000
    I13      I        0.86370    0.57140    0.51580    1.000
    I14      I        0.85825    0.59320    0.50830    1.000
    I15      I        0.12128    0.76093    0.54738    1.000
    I16      I        0.10430    0.23570    0.06008    1.000
    I17      I        0.03297    0.83708    0.62608    1.000
    I18      I        0.01680    0.12870    0.13485    1.000
    I19      I        0.62649    0.83549    0.19874    1.000
    I20      I        0.13410    0.32180    0.21190    1.000
    I21      I        0.73210    0.77310    0.29830    1.000
    I22      I        0.24130    0.29170    0.31350    1.000
    N13      N        0.07440    0.22570    0.43530    1.000
    N14      N        0.02430    0.27180    0.46980    1.000
    N15      N        0.03800    0.35520    0.40890    1.000
    C37      C        0.05210    0.21520    0.46370    1.000
    C38      C        0.01750    0.33820    0.43970    1.000
    C39      C        0.06730    0.29900    0.40970    1.000
    N16      N        0.06850    0.98070    0.54490    1.000
    C40      C        0.09180    0.00040    0.51860    1.000
    H25      H        0.11200    0.96050    0.51730    1.000
    C41      C        0.08790    0.07810    0.49260    1.000
    H26      H        0.10610    0.09240    0.47540    1.000
    C42      C        0.05740    0.13330    0.49220    1.000
    C43      C        0.03200    0.11040    0.51860    1.000
    H27      H        0.01030    0.14600    0.51860    1.000
    C44      C        0.03930    0.03390    0.54520    1.000
    H28      H        0.02260    0.01960    0.56410    1.000
    N17      N        0.92150    0.50500    0.43770    1.000
    C45      C        0.93580    0.49390    0.40330    1.000
    H29      H        0.92330    0.52300    0.37670    1.000
    C46      C        0.96770    0.44330    0.40110    1.000
    H30      H        0.97750    0.44050    0.37480    1.000
    C47      C        0.98480    0.39650    0.44000    1.000
    C48      C        0.96920    0.40400    0.47620    1.000
    H31      H        0.97950    0.37180    0.50270    1.000
    C49      C        0.93800    0.45930    0.47420    1.000
    H32      H        0.92780    0.46500    0.50010    1.000
    N18      N        0.14090    0.34940    0.32190    1.000
    C50      C        0.15060    0.29160    0.35550    1.000
    H33      H        0.17450    0.26250    0.35980    1.000
    C51      C        0.12690    0.27270    0.38410    1.000
    H34      H        0.13420    0.22940    0.40690    1.000
    C52      C        0.09280    0.31680    0.37960    1.000
    C53      C        0.08390    0.37870    0.34540    1.000
    H35      H        0.06090    0.41190    0.34160    1.000
    C54      C        0.10810    0.39260    0.31670    1.000
    H36      H        0.10120    0.43390    0.29290    1.000
    N19      N        0.72070    0.45320    0.26960    1.000
    N20      N        0.73600    0.31460    0.30710    1.000
    N21      N        0.68270    0.32720    0.24560    1.000
    C55      C        0.69260    0.41260    0.24420    1.000
    C56      C        0.74100    0.40270    0.30230    1.000
    C57      C        0.70630    0.28000    0.27790    1.000
    N22      N        0.62210    0.55860    0.13820    1.000
    C58      C        0.61590    0.47390    0.14620    1.000
    H37      H        0.59410    0.44550    0.12890    1.000
    C59      C        0.63970    0.42550    0.17840    1.000
    H38      H        0.63580    0.36310    0.18070    1.000
    C60      C        0.66840    0.46530    0.20660    1.000
    C61      C        0.67470    0.55300    0.19930    1.000
    H39      H        0.69490    0.58390    0.21840    1.000
    C62      C        0.65140    0.59710    0.16380    1.000
    H40      H        0.65700    0.65730    0.15790    1.000
    N23      N        0.83390    0.53010    0.39060    1.000
    C63      C        0.80920    0.57510    0.36050    1.000
    H41      H        0.81280    0.63770    0.35860    1.000
    C64      C        0.77860    0.53750    0.33170    1.000
    H42      H        0.76170    0.57390    0.31110    1.000
    C65      C        0.77270    0.44600    0.33300    1.000
    C66      C        0.79810    0.39730    0.36450    1.000
    H43      H        0.79520    0.33470    0.36750    1.000
    C67      C        0.82830    0.44390    0.39210    1.000
    H44      H        0.84590    0.41020    0.41320    1.000
    N24      N        0.68510    0.00020    0.27630    1.000
    C68      C        0.71580    0.03560    0.30240    1.000
    H45      H        0.73330    0.99650    0.32060    1.000
    C69      C        0.72370    0.12540    0.30480    1.000
    H46      H        0.74590    0.14710    0.32450    1.000
    C70      C        0.69940    0.18280    0.27870    1.000
    C71      C        0.66750    0.14660    0.24880    1.000
    H47      H        0.65050    0.18390    0.22880    1.000
    C72      C        0.66200    0.05700    0.24940    1.000
    H48      H        0.64030    0.03300    0.22960    1.000
    Zn9      Zn       0.37701    0.90932    0.93463    1.000
    Zn10     Zn       0.58560    0.62740    0.08770    1.000
    Zn11     Zn       0.57100    0.39000    0.59570    1.000
    Zn12     Zn       0.17284    0.63528    0.77398    1.000
    I23      I        0.39401    0.76660    0.89859    1.000
    I24      I        0.36370    0.92860    0.01580    1.000
    I25      I        0.35825    0.90680    0.00830    1.000
    I26      I        0.62128    0.73907    0.04738    1.000
    I27      I        0.60430    0.26430    0.56008    1.000
    I28      I        0.53297    0.66292    0.12608    1.000
    I29      I        0.51680    0.37130    0.63485    1.000
    I30      I        0.12649    0.66451    0.69874    1.000
    I31      I        0.63410    0.17820    0.71190    1.000
    I32      I        0.23210    0.72690    0.79830    1.000
    I33      I        0.74130    0.20830    0.81350    1.000
    N25      N        0.57440    0.27430    0.93530    1.000
    N26      N        0.52430    0.22820    0.96980    1.000
    N27      N        0.53800    0.14480    0.90890    1.000
    C73      C        0.55210    0.28480    0.96370    1.000
    C74      C        0.51750    0.16180    0.93970    1.000
    C75      C        0.56730    0.20100    0.90970    1.000
    N28      N        0.56850    0.51930    0.04490    1.000
    C76      C        0.59180    0.49960    0.01860    1.000
    H49      H        0.61200    0.53950    0.01730    1.000
    C77      C        0.58790    0.42190    0.99260    1.000
    H50      H        0.60610    0.40760    0.97540    1.000
    C78      C        0.55740    0.36670    0.99220    1.000
    C79      C        0.53200    0.38960    0.01860    1.000
    H51      H        0.51030    0.35400    0.01860    1.000
    C80      C        0.53930    0.46610    0.04520    1.000
    H52      H        0.52260    0.48040    0.06410    1.000
    N29      N        0.42150    0.99500    0.93770    1.000
    C81      C        0.43580    0.00610    0.90330    1.000
    H53      H        0.42330    0.97700    0.87670    1.000
    C82      C        0.46770    0.05670    0.90110    1.000
    H54      H        0.47750    0.05950    0.87480    1.000
    C83      C        0.48480    0.10350    0.94000    1.000
    C84      C        0.46920    0.09600    0.97620    1.000
    H55      H        0.47950    0.12820    0.00270    1.000
    C85      C        0.43800    0.04070    0.97420    1.000
    H56      H        0.42780    0.03500    0.00010    1.000
    N30      N        0.64090    0.15060    0.82190    1.000
    C86      C        0.65060    0.20840    0.85550    1.000
    H57      H        0.67450    0.23750    0.85980    1.000
    C87      C        0.62690    0.22730    0.88410    1.000
    H58      H        0.63420    0.27060    0.90690    1.000
    C88      C        0.59280    0.18320    0.87960    1.000
    C89      C        0.58390    0.12130    0.84540    1.000
    H59      H        0.56090    0.08810    0.84160    1.000
    C90      C        0.60810    0.10740    0.81670    1.000
    H60      H        0.60120    0.06610    0.79290    1.000
    N31      N        0.22070    0.04680    0.76960    1.000
    N32      N        0.23600    0.18540    0.80710    1.000
    N33      N        0.18270    0.17280    0.74560    1.000
    C91      C        0.19260    0.08740    0.74420    1.000
    C92      C        0.24100    0.09730    0.80230    1.000
    C93      C        0.20630    0.22000    0.77790    1.000
    N34      N        0.12210    0.94140    0.63820    1.000
    C94      C        0.11590    0.02610    0.64620    1.000
    H61      H        0.09410    0.05450    0.62890    1.000
    C95      C        0.13970    0.07450    0.67840    1.000
    H62      H        0.13580    0.13690    0.68070    1.000
    C96      C        0.16840    0.03470    0.70660    1.000
    C97      C        0.17470    0.94700    0.69930    1.000
    H63      H        0.19490    0.91610    0.71840    1.000
    C98      C        0.15140    0.90290    0.66380    1.000
    H64      H        0.15700    0.84270    0.65790    1.000
    N35      N        0.33390    0.96990    0.89060    1.000
    C99      C        0.30920    0.92490    0.86050    1.000
    H65      H        0.31280    0.86230    0.85860    1.000
    C100     C        0.27860    0.96250    0.83170    1.000
    H66      H        0.26170    0.92610    0.81110    1.000
    C101     C        0.27270    0.05400    0.83300    1.000
    C102     C        0.29810    0.10270    0.86450    1.000
    H67      H        0.29520    0.16530    0.86750    1.000
    C103     C        0.32830    0.05610    0.89210    1.000
    H68      H        0.34590    0.08980    0.91320    1.000
    N36      N        0.18510    0.49980    0.77630    1.000
    C104     C        0.21580    0.46440    0.80240    1.000
    H69      H        0.23330    0.50350    0.82060    1.000
    C105     C        0.22370    0.37460    0.80480    1.000
    H70      H        0.24590    0.35290    0.82450    1.000
    C106     C        0.19940    0.31720    0.77870    1.000
    C107     C        0.16750    0.35340    0.74880    1.000
    H71      H        0.15050    0.31610    0.72880    1.000
    C108     C        0.16200    0.44300    0.74940    1.000
    H72      H        0.14030    0.46700    0.72960    1.000
    Zn13     Zn       0.87701    0.40932    0.93463    1.000
    Zn14     Zn       0.08560    0.12740    0.08770    1.000
    Zn15     Zn       0.07100    0.89000    0.59570    1.000
    Zn16     Zn       0.67284    0.13528    0.77398    1.000
    I34      I        0.89401    0.26660    0.89859    1.000
    I35      I        0.86370    0.42860    0.01580    1.000
    I36      I        0.85825    0.40680    0.00830    1.000
    I37      I        0.12128    0.23907    0.04738    1.000
    I38      I        0.10430    0.76430    0.56008    1.000
    I39      I        0.03297    0.16292    0.12608    1.000
    I40      I        0.01680    0.87130    0.63485    1.000
    I41      I        0.62649    0.16451    0.69874    1.000
    I42      I        0.13410    0.67820    0.71190    1.000
    I43      I        0.73210    0.22690    0.79830    1.000
    I44      I        0.24130    0.70830    0.81350    1.000
    N37      N        0.07440    0.77430    0.93530    1.000
    N38      N        0.02430    0.72820    0.96980    1.000
    N39      N        0.03800    0.64480    0.90890    1.000
    C109     C        0.05210    0.78480    0.96370    1.000
    C110     C        0.01750    0.66180    0.93970    1.000
    C111     C        0.06730    0.70100    0.90970    1.000
    N40      N        0.06850    0.01930    0.04490    1.000
    C112     C        0.09180    0.99960    0.01860    1.000
    H73      H        0.11200    0.03950    0.01730    1.000
    C113     C        0.08790    0.92190    0.99260    1.000
    H74      H        0.10610    0.90760    0.97540    1.000
    C114     C        0.05740    0.86670    0.99220    1.000
    C115     C        0.03200    0.88960    0.01860    1.000
    H75      H        0.01030    0.85400    0.01860    1.000
    C116     C        0.03930    0.96610    0.04520    1.000
    H76      H        0.02260    0.98040    0.06410    1.000
    N41      N        0.92150    0.49500    0.93770    1.000
    C117     C        0.93580    0.50610    0.90330    1.000
    H77      H        0.92330    0.47700    0.87670    1.000
    C118     C        0.96770    0.55670    0.90110    1.000
    H78      H        0.97750    0.55950    0.87480    1.000
    C119     C        0.98480    0.60350    0.94000    1.000
    C120     C        0.96920    0.59600    0.97620    1.000
    H79      H        0.97950    0.62820    0.00270    1.000
    C121     C        0.93800    0.54070    0.97420    1.000
    H80      H        0.92780    0.53500    0.00010    1.000
    N42      N        0.14090    0.65060    0.82190    1.000
    C122     C        0.15060    0.70840    0.85550    1.000
    H81      H        0.17450    0.73750    0.85980    1.000
    C123     C        0.12690    0.72730    0.88410    1.000
    H82      H        0.13420    0.77060    0.90690    1.000
    C124     C        0.09280    0.68320    0.87960    1.000
    C125     C        0.08390    0.62130    0.84540    1.000
    H83      H        0.06090    0.58810    0.84160    1.000
    C126     C        0.10810    0.60740    0.81670    1.000
    H84      H        0.10120    0.56610    0.79290    1.000
    N43      N        0.72070    0.54680    0.76960    1.000
    N44      N        0.73600    0.68540    0.80710    1.000
    N45      N        0.68270    0.67280    0.74560    1.000
    C127     C        0.69260    0.58740    0.74420    1.000
    C128     C        0.74100    0.59730    0.80230    1.000
    C129     C        0.70630    0.72000    0.77790    1.000
    N46      N        0.62210    0.44140    0.63820    1.000
    C130     C        0.61590    0.52610    0.64620    1.000
    H85      H        0.59410    0.55450    0.62890    1.000
    C131     C        0.63970    0.57450    0.67840    1.000
    H86      H        0.63580    0.63690    0.68070    1.000
    C132     C        0.66840    0.53470    0.70660    1.000
    C133     C        0.67470    0.44700    0.69930    1.000
    H87      H        0.69490    0.41610    0.71840    1.000
    C134     C        0.65140    0.40290    0.66380    1.000
    H88      H        0.65700    0.34270    0.65790    1.000
    N47      N        0.83390    0.46990    0.89060    1.000
    C135     C        0.80920    0.42490    0.86050    1.000
    H89      H        0.81280    0.36230    0.85860    1.000
    C136     C        0.77860    0.46250    0.83170    1.000
    H90      H        0.76170    0.42610    0.81110    1.000
    C137     C        0.77270    0.55400    0.83300    1.000
    C138     C        0.79810    0.60270    0.86450    1.000
    H91      H        0.79520    0.66530    0.86750    1.000
    C139     C        0.82830    0.55610    0.89210    1.000
    H92      H        0.84590    0.58980    0.91320    1.000
    N48      N        0.68510    0.99980    0.77630    1.000
    C140     C        0.71580    0.96440    0.80240    1.000
    H93      H        0.73330    0.00350    0.82060    1.000
    C141     C        0.72370    0.87460    0.80480    1.000
    H94      H        0.74590    0.85290    0.82450    1.000
    C142     C        0.69940    0.81720    0.77870    1.000
    C143     C        0.66750    0.85340    0.74880    1.000
    H95      H        0.65050    0.81610    0.72880    1.000
    C144     C        0.66200    0.94300    0.74940    1.000
    H96      H        0.64030    0.96700    0.72960    1.000
    Zn17     Zn       0.62299    0.09068    0.06537    1.000
    Zn18     Zn       0.41440    0.37260    0.91230    1.000
    Zn19     Zn       0.42900    0.61000    0.40430    1.000
    Zn20     Zn       0.82716    0.36472    0.22602    1.000
    I45      I        0.60599    0.23340    0.10141    1.000
    I46      I        0.63630    0.07140    0.98420    1.000
    I47      I        0.64175    0.09320    0.99170    1.000
    I48      I        0.37872    0.26093    0.95262    1.000
    I49      I        0.39570    0.73570    0.43992    1.000
    I50      I        0.46703    0.33708    0.87392    1.000
    I51      I        0.48320    0.62870    0.36515    1.000
    I52      I        0.87351    0.33549    0.30126    1.000
    I53      I        0.36590    0.82180    0.28810    1.000
    I54      I        0.76790    0.27310    0.20170    1.000
    I55      I        0.25870    0.79170    0.18650    1.000
    N49      N        0.42560    0.72570    0.06470    1.000
    N50      N        0.47570    0.77180    0.03020    1.000
    N51      N        0.46200    0.85520    0.09110    1.000
    C145     C        0.44790    0.71520    0.03630    1.000
    C146     C        0.48250    0.83820    0.06030    1.000
    C147     C        0.43270    0.79900    0.09030    1.000
    N52      N        0.43150    0.48070    0.95510    1.000
    C148     C        0.40820    0.50040    0.98140    1.000
    H97      H        0.38800    0.46050    0.98270    1.000
    C149     C        0.41210    0.57810    0.00740    1.000
    H98      H        0.39390    0.59240    0.02460    1.000
    C150     C        0.44260    0.63330    0.00780    1.000
    C151     C        0.46800    0.61040    0.98140    1.000
    H99      H        0.48970    0.64600    0.98140    1.000
    C152     C        0.46070    0.53390    0.95480    1.000
    H100     H        0.47740    0.51960    0.93590    1.000
    N53      N        0.57850    0.00500    0.06230    1.000
    C153     C        0.56420    0.99390    0.09670    1.000
    H101     H        0.57670    0.02300    0.12330    1.000
    C154     C        0.53230    0.94330    0.09890    1.000
    H102     H        0.52250    0.94050    0.12520    1.000
    C155     C        0.51520    0.89650    0.06000    1.000
    C156     C        0.53080    0.90400    0.02380    1.000
    H103     H        0.52050    0.87180    0.99730    1.000
    C157     C        0.56200    0.95930    0.02580    1.000
    H104     H        0.57220    0.96500    0.99990    1.000
    N54      N        0.35910    0.84940    0.17810    1.000
    C158     C        0.34940    0.79160    0.14450    1.000
    H105     H        0.32550    0.76250    0.14020    1.000
    C159     C        0.37310    0.77270    0.11590    1.000
    H106     H        0.36580    0.72940    0.09310    1.000
    C160     C        0.40720    0.81680    0.12040    1.000
    C161     C        0.41610    0.87870    0.15460    1.000
    H107     H        0.43910    0.91190    0.15840    1.000
    C162     C        0.39190    0.89260    0.18330    1.000
    H108     H        0.39880    0.93390    0.20710    1.000
    N55      N        0.77930    0.95320    0.23040    1.000
    N56      N        0.76400    0.81460    0.19290    1.000
    N57      N        0.81730    0.82720    0.25440    1.000
    C163     C        0.80740    0.91260    0.25580    1.000
    C164     C        0.75900    0.90270    0.19770    1.000
    C165     C        0.79370    0.78000    0.22210    1.000
    N58      N        0.87790    0.05860    0.36180    1.000
    C166     C        0.88410    0.97390    0.35380    1.000
    H109     H        0.90590    0.94550    0.37110    1.000
    C167     C        0.86030    0.92550    0.32160    1.000
    H110     H        0.86420    0.86310    0.31930    1.000
    C168     C        0.83160    0.96530    0.29340    1.000
    C169     C        0.82530    0.05300    0.30070    1.000
    H111     H        0.80510    0.08390    0.28160    1.000
    C170     C        0.84860    0.09710    0.33620    1.000
    H112     H        0.84300    0.15730    0.34210    1.000
    N59      N        0.66610    0.03010    0.10940    1.000
    C171     C        0.69080    0.07510    0.13950    1.000
    H113     H        0.68720    0.13770    0.14140    1.000
    C172     C        0.72140    0.03750    0.16830    1.000
    H114     H        0.73830    0.07390    0.18890    1.000
    C173     C        0.72730    0.94600    0.16700    1.000
    C174     C        0.70190    0.89730    0.13550    1.000
    H115     H        0.70480    0.83470    0.13250    1.000
    C175     C        0.67170    0.94390    0.10790    1.000
    H116     H        0.65410    0.91020    0.08680    1.000
    N60      N        0.81490    0.50020    0.22370    1.000
    C176     C        0.78420    0.53560    0.19760    1.000
    H117     H        0.76670    0.49650    0.17940    1.000
    C177     C        0.77630    0.62540    0.19520    1.000
    H118     H        0.75410    0.64710    0.17550    1.000
    C178     C        0.80060    0.68280    0.22130    1.000
    C179     C        0.83250    0.64660    0.25120    1.000
    H119     H        0.84950    0.68390    0.27120    1.000
    C180     C        0.83800    0.55700    0.25060    1.000
    H120     H        0.85970    0.53300    0.27040    1.000
    Zn21     Zn       0.12299    0.59068    0.06537    1.000
    Zn22     Zn       0.91440    0.87260    0.91230    1.000
    Zn23     Zn       0.92900    0.11000    0.40430    1.000
    Zn24     Zn       0.32716    0.86472    0.22602    1.000
    I56      I        0.10599    0.73340    0.10141    1.000
    I57      I        0.13630    0.57140    0.98420    1.000
    I58      I        0.14175    0.59320    0.99170    1.000
    I59      I        0.87872    0.76093    0.95262    1.000
    I60      I        0.89570    0.23570    0.43992    1.000
    I61      I        0.96703    0.83708    0.87392    1.000
    I62      I        0.98320    0.12870    0.36515    1.000
    I63      I        0.37351    0.83549    0.30126    1.000
    I64      I        0.86590    0.32180    0.28810    1.000
    I65      I        0.26790    0.77310    0.20170    1.000
    I66      I        0.75870    0.29170    0.18650    1.000
    N61      N        0.92560    0.22570    0.06470    1.000
    N62      N        0.97570    0.27180    0.03020    1.000
    N63      N        0.96200    0.35520    0.09110    1.000
    C181     C        0.94790    0.21520    0.03630    1.000
    C182     C        0.98250    0.33820    0.06030    1.000
    C183     C        0.93270    0.29900    0.09030    1.000
    N64      N        0.93150    0.98070    0.95510    1.000
    C184     C        0.90820    0.00040    0.98140    1.000
    H121     H        0.88800    0.96050    0.98270    1.000
    C185     C        0.91210    0.07810    0.00740    1.000
    H122     H        0.89390    0.09240    0.02460    1.000
    C186     C        0.94260    0.13330    0.00780    1.000
    C187     C        0.96800    0.11040    0.98140    1.000
    H123     H        0.98970    0.14600    0.98140    1.000
    C188     C        0.96070    0.03390    0.95480    1.000
    H124     H        0.97740    0.01960    0.93590    1.000
    N65      N        0.07850    0.50500    0.06230    1.000
    C189     C        0.06420    0.49390    0.09670    1.000
    H125     H        0.07670    0.52300    0.12330    1.000
    C190     C        0.03230    0.44330    0.09890    1.000
    H126     H        0.02250    0.44050    0.12520    1.000
    C191     C        0.01520    0.39650    0.06000    1.000
    C192     C        0.03080    0.40400    0.02380    1.000
    H127     H        0.02050    0.37180    0.99730    1.000
    C193     C        0.06200    0.45930    0.02580    1.000
    H128     H        0.07220    0.46500    0.99990    1.000
    N66      N        0.85910    0.34940    0.17810    1.000
    C194     C        0.84940    0.29160    0.14450    1.000
    H129     H        0.82550    0.26250    0.14020    1.000
    C195     C        0.87310    0.27270    0.11590    1.000
    H130     H        0.86580    0.22940    0.09310    1.000
    C196     C        0.90720    0.31680    0.12040    1.000
    C197     C        0.91610    0.37870    0.15460    1.000
    H131     H        0.93910    0.41190    0.15840    1.000
    C198     C        0.89190    0.39260    0.18330    1.000
    H132     H        0.89880    0.43390    0.20710    1.000
    N67      N        0.27930    0.45320    0.23040    1.000
    N68      N        0.26400    0.31460    0.19290    1.000
    N69      N        0.31730    0.32720    0.25440    1.000
    C199     C        0.30740    0.41260    0.25580    1.000
    C200     C        0.25900    0.40270    0.19770    1.000
    C201     C        0.29370    0.28000    0.22210    1.000
    N70      N        0.37790    0.55860    0.36180    1.000
    C202     C        0.38410    0.47390    0.35380    1.000
    H133     H        0.40590    0.44550    0.37110    1.000
    C203     C        0.36030    0.42550    0.32160    1.000
    H134     H        0.36420    0.36310    0.31930    1.000
    C204     C        0.33160    0.46530    0.29340    1.000
    C205     C        0.32530    0.55300    0.30070    1.000
    H135     H        0.30510    0.58390    0.28160    1.000
    C206     C        0.34860    0.59710    0.33620    1.000
    H136     H        0.34300    0.65730    0.34210    1.000
    N71      N        0.16610    0.53010    0.10940    1.000
    C207     C        0.19080    0.57510    0.13950    1.000
    H137     H        0.18720    0.63770    0.14140    1.000
    C208     C        0.22140    0.53750    0.16830    1.000
    H138     H        0.23830    0.57390    0.18890    1.000
    C209     C        0.22730    0.44600    0.16700    1.000
    C210     C        0.20190    0.39730    0.13550    1.000
    H139     H        0.20480    0.33470    0.13250    1.000
    C211     C        0.17170    0.44390    0.10790    1.000
    H140     H        0.15410    0.41020    0.08680    1.000
    N72      N        0.31490    0.00020    0.22370    1.000
    C212     C        0.28420    0.03560    0.19760    1.000
    H141     H        0.26670    0.99650    0.17940    1.000
    C213     C        0.27630    0.12540    0.19520    1.000
    H142     H        0.25410    0.14710    0.17550    1.000
    C214     C        0.30060    0.18280    0.22130    1.000
    C215     C        0.33250    0.14660    0.25120    1.000
    H143     H        0.34950    0.18390    0.27120    1.000
    C216     C        0.33800    0.05700    0.25060    1.000
    H144     H        0.35970    0.03300    0.27040    1.000
    Zn25     Zn       0.62299    0.90932    0.56537    1.000
    Zn26     Zn       0.41440    0.62740    0.41230    1.000
    Zn27     Zn       0.42900    0.39000    0.90430    1.000
    Zn28     Zn       0.82716    0.63528    0.72602    1.000
    I67      I        0.60599    0.76660    0.60141    1.000
    I68      I        0.63630    0.92860    0.48420    1.000
    I69      I        0.64175    0.90680    0.49170    1.000
    I70      I        0.37872    0.73907    0.45262    1.000
    I71      I        0.39570    0.26430    0.93992    1.000
    I72      I        0.46703    0.66292    0.37392    1.000
    I73      I        0.48320    0.37130    0.86515    1.000
    I74      I        0.87351    0.66451    0.80126    1.000
    I75      I        0.36590    0.17820    0.78810    1.000
    I76      I        0.76790    0.72690    0.70170    1.000
    I77      I        0.25870    0.20830    0.68650    1.000
    N73      N        0.42560    0.27430    0.56470    1.000
    N74      N        0.47570    0.22820    0.53020    1.000
    N75      N        0.46200    0.14480    0.59110    1.000
    C217     C        0.44790    0.28480    0.53630    1.000
    C218     C        0.48250    0.16180    0.56030    1.000
    C219     C        0.43270    0.20100    0.59030    1.000
    N76      N        0.43150    0.51930    0.45510    1.000
    C220     C        0.40820    0.49960    0.48140    1.000
    H145     H        0.38800    0.53950    0.48270    1.000
    C221     C        0.41210    0.42190    0.50740    1.000
    H146     H        0.39390    0.40760    0.52460    1.000
    C222     C        0.44260    0.36670    0.50780    1.000
    C223     C        0.46800    0.38960    0.48140    1.000
    H147     H        0.48970    0.35400    0.48140    1.000
    C224     C        0.46070    0.46610    0.45480    1.000
    H148     H        0.47740    0.48040    0.43590    1.000
    N77      N        0.57850    0.99500    0.56230    1.000
    C225     C        0.56420    0.00610    0.59670    1.000
    H149     H        0.57670    0.97700    0.62330    1.000
    C226     C        0.53230    0.05670    0.59890    1.000
    H150     H        0.52250    0.05950    0.62520    1.000
    C227     C        0.51520    0.10350    0.56000    1.000
    C228     C        0.53080    0.09600    0.52380    1.000
    H151     H        0.52050    0.12820    0.49730    1.000
    C229     C        0.56200    0.04070    0.52580    1.000
    H152     H        0.57220    0.03500    0.49990    1.000
    N78      N        0.35910    0.15060    0.67810    1.000
    C230     C        0.34940    0.20840    0.64450    1.000
    H153     H        0.32550    0.23750    0.64020    1.000
    C231     C        0.37310    0.22730    0.61590    1.000
    H154     H        0.36580    0.27060    0.59310    1.000
    C232     C        0.40720    0.18320    0.62040    1.000
    C233     C        0.41610    0.12130    0.65460    1.000
    H155     H        0.43910    0.08810    0.65840    1.000
    C234     C        0.39190    0.10740    0.68330    1.000
    H156     H        0.39880    0.06610    0.70710    1.000
    N79      N        0.77930    0.04680    0.73040    1.000
    N80      N        0.76400    0.18540    0.69290    1.000
    N81      N        0.81730    0.17280    0.75440    1.000
    C235     C        0.80740    0.08740    0.75580    1.000
    C236     C        0.75900    0.09730    0.69770    1.000
    C237     C        0.79370    0.22000    0.72210    1.000
    N82      N        0.87790    0.94140    0.86180    1.000
    C238     C        0.88410    0.02610    0.85380    1.000
    H157     H        0.90590    0.05450    0.87110    1.000
    C239     C        0.86030    0.07450    0.82160    1.000
    H158     H        0.86420    0.13690    0.81930    1.000
    C240     C        0.83160    0.03470    0.79340    1.000
    C241     C        0.82530    0.94700    0.80070    1.000
    H159     H        0.80510    0.91610    0.78160    1.000
    C242     C        0.84860    0.90290    0.83620    1.000
    H160     H        0.84300    0.84270    0.84210    1.000
    N83      N        0.66610    0.96990    0.60940    1.000
    C243     C        0.69080    0.92490    0.63950    1.000
    H161     H        0.68720    0.86230    0.64140    1.000
    C244     C        0.72140    0.96250    0.66830    1.000
    H162     H        0.73830    0.92610    0.68890    1.000
    C245     C        0.72730    0.05400    0.66700    1.000
    C246     C        0.70190    0.10270    0.63550    1.000
    H163     H        0.70480    0.16530    0.63250    1.000
    C247     C        0.67170    0.05610    0.60790    1.000
    H164     H        0.65410    0.08980    0.58680    1.000
    N84      N        0.81490    0.49980    0.72370    1.000
    C248     C        0.78420    0.46440    0.69760    1.000
    H165     H        0.76670    0.50350    0.67940    1.000
    C249     C        0.77630    0.37460    0.69520    1.000
    H166     H        0.75410    0.35290    0.67550    1.000
    C250     C        0.80060    0.31720    0.72130    1.000
    C251     C        0.83250    0.35340    0.75120    1.000
    H167     H        0.84950    0.31610    0.77120    1.000
    C252     C        0.83800    0.44300    0.75060    1.000
    H168     H        0.85970    0.46700    0.77040    1.000
    Zn29     Zn       0.12299    0.40932    0.56537    1.000
    Zn30     Zn       0.91440    0.12740    0.41230    1.000
    Zn31     Zn       0.92900    0.89000    0.90430    1.000
    Zn32     Zn       0.32716    0.13528    0.72602    1.000
    I78      I        0.10599    0.26660    0.60141    1.000
    I79      I        0.13630    0.42860    0.48420    1.000
    I80      I        0.14175    0.40680    0.49170    1.000
    I81      I        0.87872    0.23907    0.45262    1.000
    I82      I        0.89570    0.76430    0.93992    1.000
    I83      I        0.96703    0.16292    0.37392    1.000
    I84      I        0.98320    0.87130    0.86515    1.000
    I85      I        0.37351    0.16451    0.80126    1.000
    I86      I        0.86590    0.67820    0.78810    1.000
    I87      I        0.26790    0.22690    0.70170    1.000
    I88      I        0.75870    0.70830    0.68650    1.000
    N85      N        0.92560    0.77430    0.56470    1.000
    N86      N        0.97570    0.72820    0.53020    1.000
    N87      N        0.96200    0.64480    0.59110    1.000
    C253     C        0.94790    0.78480    0.53630    1.000
    C254     C        0.98250    0.66180    0.56030    1.000
    C255     C        0.93270    0.70100    0.59030    1.000
    N88      N        0.93150    0.01930    0.45510    1.000
    C256     C        0.90820    0.99960    0.48140    1.000
    H169     H        0.88800    0.03950    0.48270    1.000
    C257     C        0.91210    0.92190    0.50740    1.000
    H170     H        0.89390    0.90760    0.52460    1.000
    C258     C        0.94260    0.86670    0.50780    1.000
    C259     C        0.96800    0.88960    0.48140    1.000
    H171     H        0.98970    0.85400    0.48140    1.000
    C260     C        0.96070    0.96610    0.45480    1.000
    H172     H        0.97740    0.98040    0.43590    1.000
    N89      N        0.07850    0.49500    0.56230    1.000
    C261     C        0.06420    0.50610    0.59670    1.000
    H173     H        0.07670    0.47700    0.62330    1.000
    C262     C        0.03230    0.55670    0.59890    1.000
    H174     H        0.02250    0.55950    0.62520    1.000
    C263     C        0.01520    0.60350    0.56000    1.000
    C264     C        0.03080    0.59600    0.52380    1.000
    H175     H        0.02050    0.62820    0.49730    1.000
    C265     C        0.06200    0.54070    0.52580    1.000
    H176     H        0.07220    0.53500    0.49990    1.000
    N90      N        0.85910    0.65060    0.67810    1.000
    C266     C        0.84940    0.70840    0.64450    1.000
    H177     H        0.82550    0.73750    0.64020    1.000
    C267     C        0.87310    0.72730    0.61590    1.000
    H178     H        0.86580    0.77060    0.59310    1.000
    C268     C        0.90720    0.68320    0.62040    1.000
    C269     C        0.91610    0.62130    0.65460    1.000
    H179     H        0.93910    0.58810    0.65840    1.000
    C270     C        0.89190    0.60740    0.68330    1.000
    H180     H        0.89880    0.56610    0.70710    1.000
    N91      N        0.27930    0.54680    0.73040    1.000
    N92      N        0.26400    0.68540    0.69290    1.000
    N93      N        0.31730    0.67280    0.75440    1.000
    C271     C        0.30740    0.58740    0.75580    1.000
    C272     C        0.25900    0.59730    0.69770    1.000
    C273     C        0.29370    0.72000    0.72210    1.000
    N94      N        0.37790    0.44140    0.86180    1.000
    C274     C        0.38410    0.52610    0.85380    1.000
    H181     H        0.40590    0.55450    0.87110    1.000
    C275     C        0.36030    0.57450    0.82160    1.000
    H182     H        0.36420    0.63690    0.81930    1.000
    C276     C        0.33160    0.53470    0.79340    1.000
    C277     C        0.32530    0.44700    0.80070    1.000
    H183     H        0.30510    0.41610    0.78160    1.000
    C278     C        0.34860    0.40290    0.83620    1.000
    H184     H        0.34300    0.34270    0.84210    1.000
    N95      N        0.16610    0.46990    0.60940    1.000
    C279     C        0.19080    0.42490    0.63950    1.000
    H185     H        0.18720    0.36230    0.64140    1.000
    C280     C        0.22140    0.46250    0.66830    1.000
    H186     H        0.23830    0.42610    0.68890    1.000
    C281     C        0.22730    0.55400    0.66700    1.000
    C282     C        0.20190    0.60270    0.63550    1.000
    H187     H        0.20480    0.66530    0.63250    1.000
    C283     C        0.17170    0.55610    0.60790    1.000
    H188     H        0.15410    0.58980    0.58680    1.000
    N96      N        0.31490    0.99980    0.72370    1.000
    C284     C        0.28420    0.96440    0.69760    1.000
    H189     H        0.26670    0.00350    0.67940    1.000
    C285     C        0.27630    0.87460    0.69520    1.000
    H190     H        0.25410    0.85290    0.67550    1.000
    C286     C        0.30060    0.81720    0.72130    1.000
    C287     C        0.33250    0.85340    0.75120    1.000
    H191     H        0.34950    0.81610    0.77120    1.000
    C288     C        0.33800    0.94300    0.75060    1.000
    H192     H        0.35970    0.96700    0.77040    1.000
