# CIF file generated by openbabel 3.1.0, see https://openbabel.org
data_I
_chemical_name_common 'image0'
_cell_length_a 19.7822
_cell_length_b 19.7822
_cell_length_c 19.7822
_cell_angle_alpha 90
_cell_angle_beta 90
_cell_angle_gamma 90
_space_group_name_H-M_alt 'P 1'
_space_group_name_Hall 'P 1'
loop_
    _symmetry_equiv_pos_as_xyz
    x,y,z
loop_
    _atom_site_label
    _atom_site_type_symbol
    _atom_site_fract_x
    _atom_site_fract_y
    _atom_site_fract_z
    _atom_site_occupancy
    Gd1      Gd       0.75369    0.84613    0.50883    1.000
    O1       O        0.85427    0.79431    0.55046    1.000
    O2       O        0.65885    0.79011    0.46002    1.000
    O3       O        0.91662    0.70601    0.58250    1.000
    O4       O        0.60916    0.70310    0.40927    1.000
    N1       N        0.75981    0.71894    0.50069    1.000
    C1       C        0.86580    0.73100    0.55550    1.000
    C2       C        0.65410    0.72800    0.44530    1.000
    C3       C        0.70920    0.68370    0.47260    1.000
    C4       C        0.81260    0.68560    0.52620    1.000
    C5       C        0.70930    0.61400    0.47000    1.000
    H1       H        0.67380    0.59040    0.45010    1.000
    C6       C        0.81580    0.61580    0.52640    1.000
    H2       H        0.85250    0.59350    0.54560    1.000
    C7       C        0.76400    0.58030    0.49790    1.000
    H3       H        0.76540    0.53330    0.49720    1.000
    Gd2      Gd       0.74631    0.15387    0.00883    1.000
    O5       O        0.64573    0.20569    0.05046    1.000
    O6       O        0.84115    0.20989    0.96002    1.000
    O7       O        0.58338    0.29399    0.08250    1.000
    O8       O        0.89084    0.29690    0.90927    1.000
    N2       N        0.74019    0.28106    0.00069    1.000
    C8       C        0.63420    0.26900    0.05550    1.000
    C9       C        0.84590    0.27200    0.94530    1.000
    C10      C        0.79080    0.31630    0.97260    1.000
    C11      C        0.68740    0.31440    0.02620    1.000
    C12      C        0.79070    0.38600    0.97000    1.000
    H4       H        0.82620    0.40960    0.95010    1.000
    C13      C        0.68420    0.38420    0.02640    1.000
    H5       H        0.64750    0.40650    0.04560    1.000
    C14      C        0.73600    0.41970    0.99790    1.000
    H6       H        0.73460    0.46670    0.99720    1.000
    Gd3      Gd       0.24631    0.34613    0.99117    1.000
    O9       O        0.14573    0.29431    0.94954    1.000
    O10      O        0.34115    0.29011    0.03998    1.000
    O11      O        0.08338    0.20601    0.91750    1.000
    O12      O        0.39084    0.20310    0.09073    1.000
    N3       N        0.24019    0.21894    0.99931    1.000
    C15      C        0.13420    0.23100    0.94450    1.000
    C16      C        0.34590    0.22800    0.05470    1.000
    C17      C        0.29080    0.18370    0.02740    1.000
    C18      C        0.18740    0.18560    0.97380    1.000
    C19      C        0.29070    0.11400    0.03000    1.000
    H7       H        0.32620    0.09040    0.04990    1.000
    C20      C        0.18420    0.11580    0.97360    1.000
    H8       H        0.14750    0.09350    0.95440    1.000
    C21      C        0.23600    0.08030    0.00210    1.000
    H9       H        0.23460    0.03330    0.00280    1.000
    Gd4      Gd       0.25369    0.65387    0.49117    1.000
    O13      O        0.35427    0.70569    0.44954    1.000
    O14      O        0.15885    0.70989    0.53998    1.000
    O15      O        0.41662    0.79399    0.41750    1.000
    O16      O        0.10916    0.79690    0.59073    1.000
    N4       N        0.25981    0.78106    0.49931    1.000
    C22      C        0.36580    0.76900    0.44450    1.000
    C23      C        0.15410    0.77200    0.55470    1.000
    C24      C        0.20920    0.81630    0.52740    1.000
    C25      C        0.31260    0.81440    0.47380    1.000
    C26      C        0.20930    0.88600    0.53000    1.000
    H10      H        0.17380    0.90960    0.54990    1.000
    C27      C        0.31580    0.88420    0.47360    1.000
    H11      H        0.35250    0.90650    0.45440    1.000
    C28      C        0.26400    0.91970    0.50210    1.000
    H12      H        0.26540    0.96670    0.50280    1.000
    Gd5      Gd       0.50883    0.75369    0.84613    1.000
    O17      O        0.55046    0.85427    0.79431    1.000
    O18      O        0.46002    0.65885    0.79011    1.000
    O19      O        0.58250    0.91662    0.70601    1.000
    O20      O        0.40927    0.60916    0.70310    1.000
    N5       N        0.50069    0.75981    0.71894    1.000
    C29      C        0.55550    0.86580    0.73100    1.000
    C30      C        0.44530    0.65410    0.72800    1.000
    C31      C        0.47260    0.70920    0.68370    1.000
    C32      C        0.52620    0.81260    0.68560    1.000
    C33      C        0.47000    0.70930    0.61400    1.000
    H13      H        0.45010    0.67380    0.59040    1.000
    C34      C        0.52640    0.81580    0.61580    1.000
    H14      H        0.54560    0.85250    0.59350    1.000
    C35      C        0.49790    0.76400    0.58030    1.000
    H15      H        0.49720    0.76540    0.53330    1.000
    Gd6      Gd       0.00883    0.74631    0.15387    1.000
    O21      O        0.05046    0.64573    0.20569    1.000
    O22      O        0.96002    0.84115    0.20989    1.000
    O23      O        0.08250    0.58338    0.29399    1.000
    O24      O        0.90927    0.89084    0.29690    1.000
    N6       N        0.00069    0.74019    0.28106    1.000
    C36      C        0.05550    0.63420    0.26900    1.000
    C37      C        0.94530    0.84590    0.27200    1.000
    C38      C        0.97260    0.79080    0.31630    1.000
    C39      C        0.02620    0.68740    0.31440    1.000
    C40      C        0.97000    0.79070    0.38600    1.000
    H16      H        0.95010    0.82620    0.40960    1.000
    C41      C        0.02640    0.68420    0.38420    1.000
    H17      H        0.04560    0.64750    0.40650    1.000
    C42      C        0.99790    0.73600    0.41970    1.000
    H18      H        0.99720    0.73460    0.46670    1.000
    Gd7      Gd       0.99117    0.24631    0.34613    1.000
    O25      O        0.94954    0.14573    0.29431    1.000
    O26      O        0.03998    0.34115    0.29011    1.000
    O27      O        0.91750    0.08338    0.20601    1.000
    O28      O        0.09073    0.39084    0.20310    1.000
    N7       N        0.99931    0.24019    0.21894    1.000
    C43      C        0.94450    0.13420    0.23100    1.000
    C44      C        0.05470    0.34590    0.22800    1.000
    C45      C        0.02740    0.29080    0.18370    1.000
    C46      C        0.97380    0.18740    0.18560    1.000
    C47      C        0.03000    0.29070    0.11400    1.000
    H19      H        0.04990    0.32620    0.09040    1.000
    C48      C        0.97360    0.18420    0.11580    1.000
    H20      H        0.95440    0.14750    0.09350    1.000
    C49      C        0.00210    0.23600    0.08030    1.000
    H21      H        0.00280    0.23460    0.03330    1.000
    Gd8      Gd       0.49117    0.25369    0.65387    1.000
    O29      O        0.44954    0.35427    0.70569    1.000
    O30      O        0.53998    0.15885    0.70989    1.000
    O31      O        0.41750    0.41662    0.79399    1.000
    O32      O        0.59073    0.10916    0.79690    1.000
    N8       N        0.49931    0.25981    0.78106    1.000
    C50      C        0.44450    0.36580    0.76900    1.000
    C51      C        0.55470    0.15410    0.77200    1.000
    C52      C        0.52740    0.20920    0.81630    1.000
    C53      C        0.47380    0.31260    0.81440    1.000
    C54      C        0.53000    0.20930    0.88600    1.000
    H22      H        0.54990    0.17380    0.90960    1.000
    C55      C        0.47360    0.31580    0.88420    1.000
    H23      H        0.45440    0.35250    0.90650    1.000
    C56      C        0.50210    0.26400    0.91970    1.000
    H24      H        0.50280    0.26540    0.96670    1.000
    Gd9      Gd       0.84613    0.50883    0.75369    1.000
    O33      O        0.79431    0.55046    0.85427    1.000
    O34      O        0.79011    0.46002    0.65885    1.000
    O35      O        0.70601    0.58250    0.91662    1.000
    O36      O        0.70310    0.40927    0.60916    1.000
    N9       N        0.71894    0.50069    0.75981    1.000
    C57      C        0.73100    0.55550    0.86580    1.000
    C58      C        0.72800    0.44530    0.65410    1.000
    C59      C        0.68370    0.47260    0.70920    1.000
    C60      C        0.68560    0.52620    0.81260    1.000
    C61      C        0.61400    0.47000    0.70930    1.000
    H25      H        0.59040    0.45010    0.67380    1.000
    C62      C        0.61580    0.52640    0.81580    1.000
    H26      H        0.59350    0.54560    0.85250    1.000
    C63      C        0.58030    0.49790    0.76400    1.000
    H27      H        0.53330    0.49720    0.76540    1.000
    Gd10     Gd       0.15387    0.00883    0.74631    1.000
    O37      O        0.20569    0.05046    0.64573    1.000
    O38      O        0.20989    0.96002    0.84115    1.000
    O39      O        0.29399    0.08250    0.58338    1.000
    O40      O        0.29690    0.90927    0.89084    1.000
    N10      N        0.28106    0.00069    0.74019    1.000
    C64      C        0.26900    0.05550    0.63420    1.000
    C65      C        0.27200    0.94530    0.84590    1.000
    C66      C        0.31630    0.97260    0.79080    1.000
    C67      C        0.31440    0.02620    0.68740    1.000
    C68      C        0.38600    0.97000    0.79070    1.000
    H28      H        0.40960    0.95010    0.82620    1.000
    C69      C        0.38420    0.02640    0.68420    1.000
    H29      H        0.40650    0.04560    0.64750    1.000
    C70      C        0.41970    0.99790    0.73600    1.000
    H30      H        0.46670    0.99720    0.73460    1.000
    Gd11     Gd       0.34613    0.99117    0.24631    1.000
    O41      O        0.29431    0.94954    0.14573    1.000
    O42      O        0.29011    0.03998    0.34115    1.000
    O43      O        0.20601    0.91750    0.08338    1.000
    O44      O        0.20310    0.09073    0.39084    1.000
    N11      N        0.21894    0.99931    0.24019    1.000
    C71      C        0.23100    0.94450    0.13420    1.000
    C72      C        0.22800    0.05470    0.34590    1.000
    C73      C        0.18370    0.02740    0.29080    1.000
    C74      C        0.18560    0.97380    0.18740    1.000
    C75      C        0.11400    0.03000    0.29070    1.000
    H31      H        0.09040    0.04990    0.32620    1.000
    C76      C        0.11580    0.97360    0.18420    1.000
    H32      H        0.09350    0.95440    0.14750    1.000
    C77      C        0.08030    0.00210    0.23600    1.000
    H33      H        0.03330    0.00280    0.23460    1.000
    Gd12     Gd       0.65387    0.49117    0.25369    1.000
    O45      O        0.70569    0.44954    0.35427    1.000
    O46      O        0.70989    0.53998    0.15885    1.000
    O47      O        0.79399    0.41750    0.41662    1.000
    O48      O        0.79690    0.59073    0.10916    1.000
    N12      N        0.78106    0.49931    0.25981    1.000
    C78      C        0.76900    0.44450    0.36580    1.000
    C79      C        0.77200    0.55470    0.15410    1.000
    C80      C        0.81630    0.52740    0.20920    1.000
    C81      C        0.81440    0.47380    0.31260    1.000
    C82      C        0.88600    0.53000    0.20930    1.000
    H34      H        0.90960    0.54990    0.17380    1.000
    C83      C        0.88420    0.47360    0.31580    1.000
    H35      H        0.90650    0.45440    0.35250    1.000
    C84      C        0.91970    0.50210    0.26400    1.000
    H36      H        0.96670    0.50280    0.26540    1.000
    Gd13     Gd       0.24631    0.15387    0.49117    1.000
    O49      O        0.14573    0.20569    0.44954    1.000
    O50      O        0.34115    0.20989    0.53998    1.000
    O51      O        0.08338    0.29399    0.41750    1.000
    O52      O        0.39084    0.29690    0.59073    1.000
    N13      N        0.24019    0.28106    0.49931    1.000
    C85      C        0.13420    0.26900    0.44450    1.000
    C86      C        0.34590    0.27200    0.55470    1.000
    C87      C        0.29080    0.31630    0.52740    1.000
    C88      C        0.18740    0.31440    0.47380    1.000
    C89      C        0.29070    0.38600    0.53000    1.000
    H37      H        0.32620    0.40960    0.54990    1.000
    C90      C        0.18420    0.38420    0.47360    1.000
    H38      H        0.14750    0.40650    0.45440    1.000
    C91      C        0.23600    0.41970    0.50210    1.000
    H39      H        0.23460    0.46670    0.50280    1.000
    Gd14     Gd       0.25369    0.84613    0.99117    1.000
    O53      O        0.35427    0.79431    0.94954    1.000
    O54      O        0.15885    0.79011    0.03998    1.000
    O55      O        0.41662    0.70601    0.91750    1.000
    O56      O        0.10916    0.70310    0.09073    1.000
    N14      N        0.25981    0.71894    0.99931    1.000
    C92      C        0.36580    0.73100    0.94450    1.000
    C93      C        0.15410    0.72800    0.05470    1.000
    C94      C        0.20920    0.68370    0.02740    1.000
    C95      C        0.31260    0.68560    0.97380    1.000
    C96      C        0.20930    0.61400    0.03000    1.000
    H40      H        0.17380    0.59040    0.04990    1.000
    C97      C        0.31580    0.61580    0.97360    1.000
    H41      H        0.35250    0.59350    0.95440    1.000
    C98      C        0.26400    0.58030    0.00210    1.000
    H42      H        0.26540    0.53330    0.00280    1.000
    Gd15     Gd       0.75369    0.65387    0.00883    1.000
    O57      O        0.85427    0.70569    0.05046    1.000
    O58      O        0.65885    0.70989    0.96002    1.000
    O59      O        0.91662    0.79399    0.08250    1.000
    O60      O        0.60916    0.79690    0.90927    1.000
    N15      N        0.75981    0.78106    0.00069    1.000
    C99      C        0.86580    0.76900    0.05550    1.000
    C100     C        0.65410    0.77200    0.94530    1.000
    C101     C        0.70920    0.81630    0.97260    1.000
    C102     C        0.81260    0.81440    0.02620    1.000
    C103     C        0.70930    0.88600    0.97000    1.000
    H43      H        0.67380    0.90960    0.95010    1.000
    C104     C        0.81580    0.88420    0.02640    1.000
    H44      H        0.85250    0.90650    0.04560    1.000
    C105     C        0.76400    0.91970    0.99790    1.000
    H45      H        0.76540    0.96670    0.99720    1.000
    Gd16     Gd       0.74631    0.34613    0.50883    1.000
    O61      O        0.64573    0.29431    0.55046    1.000
    O62      O        0.84115    0.29011    0.46002    1.000
    O63      O        0.58338    0.20601    0.58250    1.000
    O64      O        0.89084    0.20310    0.40927    1.000
    N16      N        0.74019    0.21894    0.50069    1.000
    C106     C        0.63420    0.23100    0.55550    1.000
    C107     C        0.84590    0.22800    0.44530    1.000
    C108     C        0.79080    0.18370    0.47260    1.000
    C109     C        0.68740    0.18560    0.52620    1.000
    C110     C        0.79070    0.11400    0.47000    1.000
    H46      H        0.82620    0.09040    0.45010    1.000
    C111     C        0.68420    0.11580    0.52640    1.000
    H47      H        0.64750    0.09350    0.54560    1.000
    C112     C        0.73600    0.08030    0.49790    1.000
    H48      H        0.73460    0.03330    0.49720    1.000
    Gd17     Gd       0.49117    0.24631    0.15387    1.000
    O65      O        0.44954    0.14573    0.20569    1.000
    O66      O        0.53998    0.34115    0.20989    1.000
    O67      O        0.41750    0.08338    0.29399    1.000
    O68      O        0.59073    0.39084    0.29690    1.000
    N17      N        0.49931    0.24019    0.28106    1.000
    C113     C        0.44450    0.13420    0.26900    1.000
    C114     C        0.55470    0.34590    0.27200    1.000
    C115     C        0.52740    0.29080    0.31630    1.000
    C116     C        0.47380    0.18740    0.31440    1.000
    C117     C        0.53000    0.29070    0.38600    1.000
    H49      H        0.54990    0.32620    0.40960    1.000
    C118     C        0.47360    0.18420    0.38420    1.000
    H50      H        0.45440    0.14750    0.40650    1.000
    C119     C        0.50210    0.23600    0.41970    1.000
    H51      H        0.50280    0.23460    0.46670    1.000
    Gd18     Gd       0.99117    0.25369    0.84613    1.000
    O69      O        0.94954    0.35427    0.79431    1.000
    O70      O        0.03998    0.15885    0.79011    1.000
    O71      O        0.91750    0.41662    0.70601    1.000
    O72      O        0.09073    0.10916    0.70310    1.000
    N18      N        0.99931    0.25981    0.71894    1.000
    C120     C        0.94450    0.36580    0.73100    1.000
    C121     C        0.05470    0.15410    0.72800    1.000
    C122     C        0.02740    0.20920    0.68370    1.000
    C123     C        0.97380    0.31260    0.68560    1.000
    C124     C        0.03000    0.20930    0.61400    1.000
    H52      H        0.04990    0.17380    0.59040    1.000
    C125     C        0.97360    0.31580    0.61580    1.000
    H53      H        0.95440    0.35250    0.59350    1.000
    C126     C        0.00210    0.26400    0.58030    1.000
    H54      H        0.00280    0.26540    0.53330    1.000
    Gd19     Gd       0.00883    0.75369    0.65387    1.000
    O73      O        0.05046    0.85427    0.70569    1.000
    O74      O        0.96002    0.65885    0.70989    1.000
    O75      O        0.08250    0.91662    0.79399    1.000
    O76      O        0.90927    0.60916    0.79690    1.000
    N19      N        0.00069    0.75981    0.78106    1.000
    C127     C        0.05550    0.86580    0.76900    1.000
    C128     C        0.94530    0.65410    0.77200    1.000
    C129     C        0.97260    0.70920    0.81630    1.000
    C130     C        0.02620    0.81260    0.81440    1.000
    C131     C        0.97000    0.70930    0.88600    1.000
    H55      H        0.95010    0.67380    0.90960    1.000
    C132     C        0.02640    0.81580    0.88420    1.000
    H56      H        0.04560    0.85250    0.90650    1.000
    C133     C        0.99790    0.76400    0.91970    1.000
    H57      H        0.99720    0.76540    0.96670    1.000
    Gd20     Gd       0.50883    0.74631    0.34613    1.000
    O77      O        0.55046    0.64573    0.29431    1.000
    O78      O        0.46002    0.84115    0.29011    1.000
    O79      O        0.58250    0.58338    0.20601    1.000
    O80      O        0.40927    0.89084    0.20310    1.000
    N20      N        0.50069    0.74019    0.21894    1.000
    C134     C        0.55550    0.63420    0.23100    1.000
    C135     C        0.44530    0.84590    0.22800    1.000
    C136     C        0.47260    0.79080    0.18370    1.000
    C137     C        0.52620    0.68740    0.18560    1.000
    C138     C        0.47000    0.79070    0.11400    1.000
    H58      H        0.45010    0.82620    0.09040    1.000
    C139     C        0.52640    0.68420    0.11580    1.000
    H59      H        0.54560    0.64750    0.09350    1.000
    C140     C        0.49790    0.73600    0.08030    1.000
    H60      H        0.49720    0.73460    0.03330    1.000
    Gd21     Gd       0.15387    0.49117    0.24631    1.000
    O81      O        0.20569    0.44954    0.14573    1.000
    O82      O        0.20989    0.53998    0.34115    1.000
    O83      O        0.29399    0.41750    0.08338    1.000
    O84      O        0.29690    0.59073    0.39084    1.000
    N21      N        0.28106    0.49931    0.24019    1.000
    C141     C        0.26900    0.44450    0.13420    1.000
    C142     C        0.27200    0.55470    0.34590    1.000
    C143     C        0.31630    0.52740    0.29080    1.000
    C144     C        0.31440    0.47380    0.18740    1.000
    C145     C        0.38600    0.53000    0.29070    1.000
    H61      H        0.40960    0.54990    0.32620    1.000
    C146     C        0.38420    0.47360    0.18420    1.000
    H62      H        0.40650    0.45440    0.14750    1.000
    C147     C        0.41970    0.50210    0.23600    1.000
    H63      H        0.46670    0.50280    0.23460    1.000
    Gd22     Gd       0.84613    0.99117    0.25369    1.000
    O85      O        0.79431    0.94954    0.35427    1.000
    O86      O        0.79011    0.03998    0.15885    1.000
    O87      O        0.70601    0.91750    0.41662    1.000
    O88      O        0.70310    0.09073    0.10916    1.000
    N22      N        0.71894    0.99931    0.25981    1.000
    C148     C        0.73100    0.94450    0.36580    1.000
    C149     C        0.72800    0.05470    0.15410    1.000
    C150     C        0.68370    0.02740    0.20920    1.000
    C151     C        0.68560    0.97380    0.31260    1.000
    C152     C        0.61400    0.03000    0.20930    1.000
    H64      H        0.59040    0.04990    0.17380    1.000
    C153     C        0.61580    0.97360    0.31580    1.000
    H65      H        0.59350    0.95440    0.35250    1.000
    C154     C        0.58030    0.00210    0.26400    1.000
    H66      H        0.53330    0.00280    0.26540    1.000
    Gd23     Gd       0.65387    0.00883    0.75369    1.000
    O89      O        0.70569    0.05046    0.85427    1.000
    O90      O        0.70989    0.96002    0.65885    1.000
    O91      O        0.79399    0.08250    0.91662    1.000
    O92      O        0.79690    0.90927    0.60916    1.000
    N23      N        0.78106    0.00069    0.75981    1.000
    C155     C        0.76900    0.05550    0.86580    1.000
    C156     C        0.77200    0.94530    0.65410    1.000
    C157     C        0.81630    0.97260    0.70920    1.000
    C158     C        0.81440    0.02620    0.81260    1.000
    C159     C        0.88600    0.97000    0.70930    1.000
    H67      H        0.90960    0.95010    0.67380    1.000
    C160     C        0.88420    0.02640    0.81580    1.000
    H68      H        0.90650    0.04560    0.85250    1.000
    C161     C        0.91970    0.99790    0.76400    1.000
    H69      H        0.96670    0.99720    0.76540    1.000
    Gd24     Gd       0.34613    0.50883    0.74631    1.000
    O93      O        0.29431    0.55046    0.64573    1.000
    O94      O        0.29011    0.46002    0.84115    1.000
    O95      O        0.20601    0.58250    0.58338    1.000
    O96      O        0.20310    0.40927    0.89084    1.000
    N24      N        0.21894    0.50069    0.74019    1.000
    C162     C        0.23100    0.55550    0.63420    1.000
    C163     C        0.22800    0.44530    0.84590    1.000
    C164     C        0.18370    0.47260    0.79080    1.000
    C165     C        0.18560    0.52620    0.68740    1.000
    C166     C        0.11400    0.47000    0.79070    1.000
    H70      H        0.09040    0.45010    0.82620    1.000
    C167     C        0.11580    0.52640    0.68420    1.000
    H71      H        0.09350    0.54560    0.64750    1.000
    C168     C        0.08030    0.49790    0.73600    1.000
    H72      H        0.03330    0.49720    0.73460    1.000
