data_functionalizedCrystal
_audit_creation_method	'EQeq! by Chris Wilmer'
_symmetry_space_group_name_H-M	'P1'
_symmetry_Int_Tables_number	1
_symmetry_cell_setting	triclinic
loop_
_symmetry_equiv_pos_as_xyz
  x,y,z
_cell_length_a	34.895
_cell_length_b	14.6553
_cell_length_c	31.393
_cell_angle_alpha	90
_cell_angle_beta	101.491
_cell_angle_gamma	90
loop_
_atom_site_label
_atom_site_type_symbol
_atom_site_fract_x
_atom_site_fract_y
_atom_site_fract_z
_atom_site_charge
Mof_C 	C 	0.2418	0.59	0.3026	0.084
Mof_C 	C 	0.1941	0.5799	0.2437	0.099
Mof_C 	C 	0.2053	0.7133	0.2791	0.106
Mof_C 	C 	0.1968	0.8123	0.28	0.063
Mof_C 	C 	0.1623	0.8463	0.2546	-0.135
Mof_H 	H 	0.1439	0.8068	0.2389	0.089
Mof_C 	C 	0.1559	0.9384	0.253	0.078
Mof_H 	H 	0.133	0.9602	0.2356	-0.019
Mof_C 	C 	0.2141	0.9666	0.3002	0.073
Mof_H 	H 	0.232	0.0079	0.3154	-0.012
Mof_C 	C 	0.2222	0.8744	0.3036	-0.13
Mof_H 	H 	0.2449	0.8541	0.3219	0.083
Mof_C 	C 	0.2735	0.5461	0.3345	0.059
Mof_C 	C 	0.2845	0.4565	0.3276	-0.149
Mof_H 	H 	0.2725	0.4246	0.303	0.104
Mof_C 	C 	0.3133	0.4167	0.3578	0.091
Mof_H 	H 	0.3205	0.3569	0.3532	-0.012
Mof_C 	C 	0.3211	0.5456	0.4002	0.074
Mof_H 	H 	0.3337	0.5757	0.4251	-0.003
Mof_C 	C 	0.2924	0.5911	0.3713	-0.13
Mof_H 	H 	0.286	0.6511	0.3766	0.09
Mof_C 	C 	0.1711	0.5286	0.2068	0.069
Mof_C 	C 	0.1426	0.5736	0.1761	-0.14
Mof_H 	H 	0.1385	0.636	0.1782	0.102
Mof_C 	C 	0.1212	0.5241	0.1434	0.087
Mof_H 	H 	0.1023	0.5546	0.1234	-0.008
Mof_C 	C 	0.1526	0.3919	0.166	0.084
Mof_H 	H 	0.1565	0.3299	0.1621	-0.018
Mof_C 	C 	0.1755	0.4359	0.2011	-0.146
Mof_H 	H 	0.1938	0.4031	0.2208	0.089
Mof_C 	C 	0.5179	0.6634	0.4443	0.087
Mof_C 	C 	0.5521	0.7911	0.4665	0.089
Mof_C 	C 	0.5679	0.7057	0.4129	0.098
Mof_C 	C 	0.4842	0.6027	0.4449	0.062
Mof_C 	C 	0.4694	0.5911	0.482	-0.138
Mof_H 	H 	0.4807	0.62	0.5079	0.086
Mof_C 	C 	0.4367	0.5338	0.4793	0.086
Mof_H 	H 	0.4263	0.5258	0.5041	-0.009
Mof_C 	C 	0.434	0.5056	0.4075	0.086
Mof_H 	H 	0.4217	0.4779	0.3817	-0.016
Mof_C 	C 	0.4658	0.5596	0.407	-0.141
Mof_H 	H 	0.4751	0.5675	0.3815	0.097
Mof_C 	C 	0.5923	0.6876	0.3804	0.087
Mof_C 	C 	0.6123	0.7578	0.3643	-0.147
Mof_H 	H 	0.6112	0.8171	0.3745	0.097
Mof_C 	C 	0.6332	0.7388	0.334	0.093
Mof_H 	H 	0.6463	0.7864	0.3235	-0.023
Mof_C 	C 	0.6179	0.5875	0.3338	0.102
Mof_H 	H 	0.6203	0.5286	0.3237	-0.023
Mof_C 	C 	0.5957	0.6011	0.3644	-0.149
Mof_H 	H 	0.583	0.5522	0.3744	0.098
Mof_C 	C 	0.5577	0.8744	0.4933	0.058
Mof_C 	C 	0.5319	0.896	0.5204	-0.124
Mof_H 	H 	0.5101	0.8596	0.5208	0.078
Mof_C 	C 	0.5391	0.9725	0.5469	0.074
Mof_H 	H 	0.5219	0.9864	0.5651	-0.009
Mof_C 	C 	0.5936	0.0072	0.5199	0.076
Mof_H 	H 	0.6144	0.0464	0.519	-0.014
Mof_C 	C 	0.5888	0.932	0.4931	-0.131
Mof_H 	H 	0.6064	0.9204	0.475	0.087
Mof_I 	I 	0.12022	0.15173	0.19573	-0.405
Mof_I 	I 	0.22737	0.23555	0.29022	-0.378
Mof_I 	I 	0.02628	0.34748	0.12988	-0.349
Mof_I 	I 	0.11951	0.25063	0.05567	-0.382
Mof_I 	I 	0.3519	0.40435	0.51126	-0.369
Mof_I 	I 	0.3985	0.2613	0.40293	-0.379
Mof_N 	N 	0.2231	0.5395	0.2698	-0.14
Mof_N 	N 	0.1834	0.6673	0.2469	-0.135
Mof_N 	N 	0.2339	0.6789	0.3087	-0.139
Mof_N 	N 	0.3315	0.4593	0.3935	-0.276
Mof_N 	N 	0.1253	0.4349	0.1379	-0.275
Mof_N 	N 	0.1807	0.9982	0.2751	-0.273
Mof_N 	N 	0.5397	0.6445	0.4149	-0.132
Mof_N 	N 	0.5742	0.7818	0.4368	-0.133
Mof_N 	N 	0.5239	0.7332	0.4722	-0.146
Mof_N 	N 	0.4197	0.4907	0.4434	-0.278
Mof_N 	N 	0.6363	0.6546	0.3179	-0.282
Mof_N 	N 	0.5699	0.0267	0.5473	-0.272
Mof_Zn	Zn	0.16684	0.13635	0.26845	1.164
Mof_Zn	Zn	0.08379	0.36752	0.092	1.164
Mof_Zn	Zn	0.37456	0.3996	0.43974	1.165
Mof_C 	C 	0.7418	0.09	0.3026	0.086
Mof_C 	C 	0.6941	0.0799	0.2437	0.1
Mof_C 	C 	0.7053	0.2133	0.2791	0.107
Mof_C 	C 	0.6968	0.3123	0.28	0.064
Mof_C 	C 	0.6623	0.3463	0.2546	-0.133
Mof_H 	H 	0.6439	0.3068	0.2389	0.09
Mof_C 	C 	0.6559	0.4384	0.253	0.078
Mof_H 	H 	0.633	0.4602	0.2356	-0.018
Mof_C 	C 	0.7141	0.4666	0.3002	0.073
Mof_H 	H 	0.732	0.5079	0.3154	-0.011
Mof_C 	C 	0.7222	0.3744	0.3036	-0.129
Mof_H 	H 	0.7449	0.3541	0.3219	0.084
Mof_C 	C 	0.7735	0.0461	0.3345	0.06
Mof_C 	C 	0.7845	0.9565	0.3276	-0.147
Mof_H 	H 	0.7725	0.9246	0.303	0.104
Mof_C 	C 	0.8133	0.9167	0.3578	0.09
Mof_H 	H 	0.8205	0.8569	0.3532	-0.012
Mof_C 	C 	0.8211	0.0456	0.4002	0.073
Mof_H 	H 	0.8337	0.0757	0.4251	-0.003
Mof_C 	C 	0.7924	0.0911	0.3713	-0.13
Mof_H 	H 	0.786	0.1511	0.3766	0.09
Mof_C 	C 	0.6711	0.0286	0.2068	0.068
Mof_C 	C 	0.6426	0.0736	0.1761	-0.14
Mof_H 	H 	0.6385	0.136	0.1782	0.102
Mof_C 	C 	0.6212	0.0241	0.1434	0.086
Mof_H 	H 	0.6023	0.0546	0.1234	-0.008
Mof_C 	C 	0.6526	0.8919	0.166	0.084
Mof_H 	H 	0.6565	0.8299	0.1621	-0.018
Mof_C 	C 	0.6755	0.9359	0.2011	-0.145
Mof_H 	H 	0.6938	0.9031	0.2208	0.089
Mof_C 	C 	0.0179	0.1634	0.4443	0.087
Mof_C 	C 	0.0521	0.2911	0.4665	0.089
Mof_C 	C 	0.0679	0.2057	0.4129	0.098
Mof_C 	C 	0.9842	0.1027	0.4449	0.061
Mof_C 	C 	0.9694	0.0911	0.482	-0.138
Mof_H 	H 	0.9807	0.12	0.5079	0.086
Mof_C 	C 	0.9367	0.0338	0.4793	0.086
Mof_H 	H 	0.9263	0.0258	0.5041	-0.009
Mof_C 	C 	0.934	0.0056	0.4075	0.085
Mof_H 	H 	0.9217	0.9779	0.3817	-0.015
Mof_C 	C 	0.9658	0.0596	0.407	-0.14
Mof_H 	H 	0.9751	0.0675	0.3815	0.097
Mof_C 	C 	0.0923	0.1876	0.3804	0.087
Mof_C 	C 	0.1123	0.2578	0.3643	-0.147
Mof_H 	H 	0.1112	0.3171	0.3745	0.097
Mof_C 	C 	0.1332	0.2388	0.334	0.093
Mof_H 	H 	0.1463	0.2864	0.3235	-0.023
Mof_C 	C 	0.1179	0.0875	0.3338	0.102
Mof_H 	H 	0.1203	0.0286	0.3237	-0.023
Mof_C 	C 	0.0957	0.1011	0.3644	-0.149
Mof_H 	H 	0.083	0.0522	0.3744	0.098
Mof_C 	C 	0.0577	0.3744	0.4933	0.058
Mof_C 	C 	0.0319	0.396	0.5204	-0.124
Mof_H 	H 	0.0101	0.3596	0.5208	0.078
Mof_C 	C 	0.0391	0.4725	0.5469	0.074
Mof_H 	H 	0.0219	0.4864	0.5651	-0.009
Mof_C 	C 	0.0936	0.5072	0.5199	0.076
Mof_H 	H 	0.1144	0.5464	0.519	-0.014
Mof_C 	C 	0.0888	0.432	0.4931	-0.131
Mof_H 	H 	0.1064	0.4204	0.475	0.087
Mof_I 	I 	0.62022	0.65173	0.19573	-0.405
Mof_I 	I 	0.72737	0.73555	0.29022	-0.378
Mof_I 	I 	0.52628	0.84748	0.12988	-0.349
Mof_I 	I 	0.61951	0.75063	0.05567	-0.382
Mof_I 	I 	0.8519	0.90435	0.51126	-0.369
Mof_I 	I 	0.8985	0.7613	0.40293	-0.379
Mof_N 	N 	0.7231	0.0395	0.2698	-0.14
Mof_N 	N 	0.6834	0.1673	0.2469	-0.136
Mof_N 	N 	0.7339	0.1789	0.3087	-0.139
Mof_N 	N 	0.8315	0.9593	0.3935	-0.276
Mof_N 	N 	0.6253	0.9349	0.1379	-0.275
Mof_N 	N 	0.6807	0.4982	0.2751	-0.273
Mof_N 	N 	0.0397	0.1445	0.4149	-0.132
Mof_N 	N 	0.0742	0.2818	0.4368	-0.133
Mof_N 	N 	0.0239	0.2332	0.4722	-0.146
Mof_N 	N 	0.9197	0.9907	0.4434	-0.278
Mof_N 	N 	0.1363	0.1546	0.3179	-0.282
Mof_N 	N 	0.0699	0.5267	0.5473	-0.272
Mof_Zn	Zn	0.66684	0.63635	0.26845	1.164
Mof_Zn	Zn	0.58379	0.86752	0.092	1.164
Mof_Zn	Zn	0.87456	0.8996	0.43974	1.165
Mof_C 	C 	0.2418	0.41	0.8026	0.085
Mof_C 	C 	0.1941	0.4201	0.7437	0.1
Mof_C 	C 	0.2053	0.2867	0.7791	0.107
Mof_C 	C 	0.1968	0.1877	0.78	0.064
Mof_C 	C 	0.1623	0.1537	0.7546	-0.134
Mof_H 	H 	0.1439	0.1932	0.7389	0.09
Mof_C 	C 	0.1559	0.0616	0.753	0.079
Mof_H 	H 	0.133	0.0398	0.7356	-0.018
Mof_C 	C 	0.2141	0.0334	0.8002	0.074
Mof_H 	H 	0.232	0.9921	0.8154	-0.011
Mof_C 	C 	0.2222	0.1256	0.8036	-0.129
Mof_H 	H 	0.2449	0.1459	0.8219	0.084
Mof_C 	C 	0.2735	0.4539	0.8345	0.06
Mof_C 	C 	0.2845	0.5435	0.8276	-0.148
Mof_H 	H 	0.2725	0.5754	0.803	0.104
Mof_C 	C 	0.3133	0.5833	0.8578	0.091
Mof_H 	H 	0.3205	0.6431	0.8532	-0.012
Mof_C 	C 	0.3211	0.4544	0.9002	0.074
Mof_H 	H 	0.3337	0.4243	0.9251	-0.003
Mof_C 	C 	0.2924	0.4089	0.8713	-0.13
Mof_H 	H 	0.286	0.3489	0.8766	0.09
Mof_C 	C 	0.1711	0.4714	0.7068	0.069
Mof_C 	C 	0.1426	0.4264	0.6761	-0.14
Mof_H 	H 	0.1385	0.364	0.6782	0.102
Mof_C 	C 	0.1212	0.4759	0.6434	0.087
Mof_H 	H 	0.1023	0.4454	0.6234	-0.008
Mof_C 	C 	0.1526	0.6081	0.666	0.084
Mof_H 	H 	0.1565	0.6701	0.6621	-0.018
Mof_C 	C 	0.1755	0.5641	0.7011	-0.146
Mof_H 	H 	0.1938	0.5969	0.7208	0.089
Mof_C 	C 	0.5179	0.3366	0.9443	0.087
Mof_C 	C 	0.5521	0.2089	0.9665	0.089
Mof_C 	C 	0.5679	0.2943	0.9129	0.098
Mof_C 	C 	0.4842	0.3973	0.9449	0.062
Mof_C 	C 	0.4694	0.4089	0.982	-0.138
Mof_H 	H 	0.4807	0.38	0.0079	0.086
Mof_C 	C 	0.4367	0.4662	0.9793	0.086
Mof_H 	H 	0.4263	0.4742	0.0041	-0.009
Mof_C 	C 	0.434	0.4944	0.9075	0.086
Mof_H 	H 	0.4217	0.5221	0.8817	-0.016
Mof_C 	C 	0.4658	0.4404	0.907	-0.141
Mof_H 	H 	0.4751	0.4325	0.8815	0.097
Mof_C 	C 	0.5923	0.3124	0.8804	0.087
Mof_C 	C 	0.6123	0.2422	0.8643	-0.147
Mof_H 	H 	0.6112	0.1829	0.8745	0.097
Mof_C 	C 	0.6332	0.2612	0.834	0.093
Mof_H 	H 	0.6463	0.2136	0.8235	-0.023
Mof_C 	C 	0.6179	0.4125	0.8338	0.102
Mof_H 	H 	0.6203	0.4714	0.8237	-0.023
Mof_C 	C 	0.5957	0.3989	0.8644	-0.149
Mof_H 	H 	0.583	0.4478	0.8744	0.098
Mof_C 	C 	0.5577	0.1256	0.9933	0.058
Mof_C 	C 	0.5319	0.104	0.0204	-0.124
Mof_H 	H 	0.5101	0.1404	0.0208	0.078
Mof_C 	C 	0.5391	0.0275	0.0469	0.074
Mof_H 	H 	0.5219	0.0136	0.0651	-0.009
Mof_C 	C 	0.5936	0.9928	0.0199	0.076
Mof_H 	H 	0.6144	0.9536	0.019	-0.014
Mof_C 	C 	0.5888	0.068	0.9931	-0.131
Mof_H 	H 	0.6064	0.0796	0.975	0.087
Mof_I 	I 	0.12022	0.84827	0.69573	-0.405
Mof_I 	I 	0.22737	0.76445	0.79022	-0.379
Mof_I 	I 	0.02628	0.65252	0.62988	-0.349
Mof_I 	I 	0.11951	0.74937	0.55567	-0.382
Mof_I 	I 	0.3519	0.59565	0.01126	-0.369
Mof_I 	I 	0.3985	0.7387	0.90293	-0.379
Mof_N 	N 	0.2231	0.4605	0.7698	-0.14
Mof_N 	N 	0.1834	0.3327	0.7469	-0.135
Mof_N 	N 	0.2339	0.3211	0.8087	-0.139
Mof_N 	N 	0.3315	0.5407	0.8935	-0.276
Mof_N 	N 	0.1253	0.5651	0.6379	-0.275
Mof_N 	N 	0.1807	0.0018	0.7751	-0.273
Mof_N 	N 	0.5397	0.3555	0.9149	-0.132
Mof_N 	N 	0.5742	0.2182	0.9368	-0.133
Mof_N 	N 	0.5239	0.2668	0.9722	-0.146
Mof_N 	N 	0.4197	0.5093	0.9434	-0.278
Mof_N 	N 	0.6363	0.3454	0.8179	-0.282
Mof_N 	N 	0.5699	0.9733	0.0473	-0.272
Mof_Zn	Zn	0.16684	0.86365	0.76845	1.164
Mof_Zn	Zn	0.08379	0.63248	0.592	1.164
Mof_Zn	Zn	0.37456	0.6004	0.93974	1.165
Mof_C 	C 	0.7418	0.91	0.8026	0.086
Mof_C 	C 	0.6941	0.9201	0.7437	0.1
Mof_C 	C 	0.7053	0.7867	0.7791	0.107
Mof_C 	C 	0.6968	0.6877	0.78	0.064
Mof_C 	C 	0.6623	0.6537	0.7546	-0.133
Mof_H 	H 	0.6439	0.6932	0.7389	0.09
Mof_C 	C 	0.6559	0.5616	0.753	0.078
Mof_H 	H 	0.633	0.5398	0.7356	-0.018
Mof_C 	C 	0.7141	0.5334	0.8002	0.073
Mof_H 	H 	0.732	0.4921	0.8154	-0.011
Mof_C 	C 	0.7222	0.6256	0.8036	-0.129
Mof_H 	H 	0.7449	0.6459	0.8219	0.084
Mof_C 	C 	0.7735	0.9539	0.8345	0.06
Mof_C 	C 	0.7845	0.0435	0.8276	-0.147
Mof_H 	H 	0.7725	0.0754	0.803	0.104
Mof_C 	C 	0.8133	0.0833	0.8578	0.09
Mof_H 	H 	0.8205	0.1431	0.8532	-0.012
Mof_C 	C 	0.8211	0.9544	0.9002	0.073
Mof_H 	H 	0.8337	0.9243	0.9251	-0.003
Mof_C 	C 	0.7924	0.9089	0.8713	-0.13
Mof_H 	H 	0.786	0.8489	0.8766	0.09
Mof_C 	C 	0.6711	0.9714	0.7068	0.069
Mof_C 	C 	0.6426	0.9264	0.6761	-0.14
Mof_H 	H 	0.6385	0.864	0.6782	0.102
Mof_C 	C 	0.6212	0.9759	0.6434	0.086
Mof_H 	H 	0.6023	0.9454	0.6234	-0.008
Mof_C 	C 	0.6526	0.1081	0.666	0.084
Mof_H 	H 	0.6565	0.1701	0.6621	-0.018
Mof_C 	C 	0.6755	0.0641	0.7011	-0.145
Mof_H 	H 	0.6938	0.0969	0.7208	0.089
Mof_C 	C 	0.0179	0.8366	0.9443	0.087
Mof_C 	C 	0.0521	0.7089	0.9665	0.089
Mof_C 	C 	0.0679	0.7943	0.9129	0.098
Mof_C 	C 	0.9842	0.8973	0.9449	0.061
Mof_C 	C 	0.9694	0.9089	0.982	-0.138
Mof_H 	H 	0.9807	0.88	0.0079	0.086
Mof_C 	C 	0.9367	0.9662	0.9793	0.086
Mof_H 	H 	0.9263	0.9742	0.0041	-0.009
Mof_C 	C 	0.934	0.9944	0.9075	0.085
Mof_H 	H 	0.9217	0.0221	0.8817	-0.015
Mof_C 	C 	0.9658	0.9404	0.907	-0.14
Mof_H 	H 	0.9751	0.9325	0.8815	0.097
Mof_C 	C 	0.0923	0.8124	0.8804	0.087
Mof_C 	C 	0.1123	0.7422	0.8643	-0.147
Mof_H 	H 	0.1112	0.6829	0.8745	0.097
Mof_C 	C 	0.1332	0.7612	0.834	0.093
Mof_H 	H 	0.1463	0.7136	0.8235	-0.023
Mof_C 	C 	0.1179	0.9125	0.8338	0.102
Mof_H 	H 	0.1203	0.9714	0.8237	-0.023
Mof_C 	C 	0.0957	0.8989	0.8644	-0.149
Mof_H 	H 	0.083	0.9478	0.8744	0.098
Mof_C 	C 	0.0577	0.6256	0.9933	0.058
Mof_C 	C 	0.0319	0.604	0.0204	-0.124
Mof_H 	H 	0.0101	0.6404	0.0208	0.078
Mof_C 	C 	0.0391	0.5275	0.0469	0.074
Mof_H 	H 	0.0219	0.5136	0.0651	-0.009
Mof_C 	C 	0.0936	0.4928	0.0199	0.076
Mof_H 	H 	0.1144	0.4536	0.019	-0.014
Mof_C 	C 	0.0888	0.568	0.9931	-0.131
Mof_H 	H 	0.1064	0.5796	0.975	0.087
Mof_I 	I 	0.62022	0.34827	0.69573	-0.405
Mof_I 	I 	0.72737	0.26445	0.79022	-0.378
Mof_I 	I 	0.52628	0.15252	0.62988	-0.349
Mof_I 	I 	0.61951	0.24937	0.55567	-0.382
Mof_I 	I 	0.8519	0.09565	0.01126	-0.369
Mof_I 	I 	0.8985	0.2387	0.90293	-0.379
Mof_N 	N 	0.7231	0.9605	0.7698	-0.14
Mof_N 	N 	0.6834	0.8327	0.7469	-0.136
Mof_N 	N 	0.7339	0.8211	0.8087	-0.139
Mof_N 	N 	0.8315	0.0407	0.8935	-0.276
Mof_N 	N 	0.6253	0.0651	0.6379	-0.275
Mof_N 	N 	0.6807	0.5018	0.7751	-0.273
Mof_N 	N 	0.0397	0.8555	0.9149	-0.132
Mof_N 	N 	0.0742	0.7182	0.9368	-0.133
Mof_N 	N 	0.0239	0.7668	0.9722	-0.146
Mof_N 	N 	0.9197	0.0093	0.9434	-0.277
Mof_N 	N 	0.1363	0.8454	0.8179	-0.282
Mof_N 	N 	0.0699	0.4733	0.0473	-0.272
Mof_Zn	Zn	0.66684	0.36365	0.76845	1.164
Mof_Zn	Zn	0.58379	0.13248	0.592	1.164
Mof_Zn	Zn	0.87456	0.1004	0.93974	1.165
Mof_C 	C 	0.7582	0.59	0.1974	0.085
Mof_C 	C 	0.8059	0.5799	0.2563	0.1
Mof_C 	C 	0.7947	0.7133	0.2209	0.107
Mof_C 	C 	0.8032	0.8123	0.22	0.064
Mof_C 	C 	0.8377	0.8463	0.2454	-0.134
Mof_H 	H 	0.8561	0.8068	0.2611	0.09
Mof_C 	C 	0.8441	0.9384	0.247	0.079
Mof_H 	H 	0.867	0.9602	0.2644	-0.018
Mof_C 	C 	0.7859	0.9666	0.1998	0.074
Mof_H 	H 	0.768	0.0079	0.1846	-0.011
Mof_C 	C 	0.7778	0.8744	0.1964	-0.129
Mof_H 	H 	0.7551	0.8541	0.1781	0.084
Mof_C 	C 	0.7265	0.5461	0.1655	0.06
Mof_C 	C 	0.7155	0.4565	0.1724	-0.148
Mof_H 	H 	0.7275	0.4246	0.197	0.104
Mof_C 	C 	0.6867	0.4167	0.1422	0.091
Mof_H 	H 	0.6795	0.3569	0.1468	-0.012
Mof_C 	C 	0.6789	0.5456	0.0998	0.074
Mof_H 	H 	0.6663	0.5757	0.0749	-0.003
Mof_C 	C 	0.7076	0.5911	0.1287	-0.13
Mof_H 	H 	0.714	0.6511	0.1234	0.09
Mof_C 	C 	0.8289	0.5286	0.2932	0.069
Mof_C 	C 	0.8574	0.5736	0.3239	-0.14
Mof_H 	H 	0.8615	0.636	0.3218	0.102
Mof_C 	C 	0.8788	0.5241	0.3566	0.087
Mof_H 	H 	0.8977	0.5546	0.3766	-0.008
Mof_C 	C 	0.8474	0.3919	0.334	0.084
Mof_H 	H 	0.8435	0.3299	0.3379	-0.018
Mof_C 	C 	0.8245	0.4359	0.2989	-0.146
Mof_H 	H 	0.8062	0.4031	0.2792	0.089
Mof_C 	C 	0.4821	0.6634	0.0557	0.087
Mof_C 	C 	0.4479	0.7911	0.0335	0.089
Mof_C 	C 	0.4321	0.7057	0.0871	0.098
Mof_C 	C 	0.5158	0.6027	0.0551	0.062
Mof_C 	C 	0.5306	0.5911	0.018	-0.138
Mof_H 	H 	0.5193	0.62	0.9921	0.086
Mof_C 	C 	0.5633	0.5338	0.0207	0.086
Mof_H 	H 	0.5737	0.5258	0.9959	-0.009
Mof_C 	C 	0.566	0.5056	0.0925	0.086
Mof_H 	H 	0.5783	0.4779	0.1183	-0.016
Mof_C 	C 	0.5342	0.5596	0.093	-0.141
Mof_H 	H 	0.5249	0.5675	0.1185	0.097
Mof_C 	C 	0.4077	0.6876	0.1196	0.087
Mof_C 	C 	0.3877	0.7578	0.1357	-0.147
Mof_H 	H 	0.3888	0.8171	0.1255	0.097
Mof_C 	C 	0.3668	0.7388	0.166	0.093
Mof_H 	H 	0.3537	0.7864	0.1765	-0.023
Mof_C 	C 	0.3821	0.5875	0.1662	0.102
Mof_H 	H 	0.3797	0.5286	0.1763	-0.023
Mof_C 	C 	0.4043	0.6011	0.1356	-0.149
Mof_H 	H 	0.417	0.5522	0.1256	0.098
Mof_C 	C 	0.4423	0.8744	0.0067	0.058
Mof_C 	C 	0.4681	0.896	0.9796	-0.124
Mof_H 	H 	0.4899	0.8596	0.9792	0.078
Mof_C 	C 	0.4609	0.9725	0.9531	0.074
Mof_H 	H 	0.4781	0.9864	0.9349	-0.009
Mof_C 	C 	0.4064	0.0072	0.9801	0.076
Mof_H 	H 	0.3856	0.0464	0.981	-0.014
Mof_C 	C 	0.4112	0.932	0.0069	-0.131
Mof_H 	H 	0.3936	0.9204	0.025	0.087
Mof_I 	I 	0.87978	0.15173	0.30427	-0.405
Mof_I 	I 	0.77263	0.23555	0.20978	-0.379
Mof_I 	I 	0.97372	0.34748	0.37012	-0.349
Mof_I 	I 	0.88049	0.25063	0.44433	-0.382
Mof_I 	I 	0.6481	0.40435	0.98874	-0.369
Mof_I 	I 	0.6015	0.2613	0.09707	-0.379
Mof_N 	N 	0.7769	0.5395	0.2302	-0.14
Mof_N 	N 	0.8166	0.6673	0.2531	-0.135
Mof_N 	N 	0.7661	0.6789	0.1913	-0.139
Mof_N 	N 	0.6685	0.4593	0.1065	-0.276
Mof_N 	N 	0.8747	0.4349	0.3621	-0.275
Mof_N 	N 	0.8193	0.9982	0.2249	-0.273
Mof_N 	N 	0.4603	0.6445	0.0851	-0.132
Mof_N 	N 	0.4258	0.7818	0.0632	-0.133
Mof_N 	N 	0.4761	0.7332	0.0278	-0.146
Mof_N 	N 	0.5803	0.4907	0.0566	-0.278
Mof_N 	N 	0.3637	0.6546	0.1821	-0.282
Mof_N 	N 	0.4301	0.0267	0.9527	-0.272
Mof_Zn	Zn	0.83316	0.13635	0.23155	1.164
Mof_Zn	Zn	0.91621	0.36752	0.408	1.164
Mof_Zn	Zn	0.62544	0.3996	0.06026	1.165
Mof_C 	C 	0.2582	0.09	0.1974	0.086
Mof_C 	C 	0.3059	0.0799	0.2563	0.1
Mof_C 	C 	0.2947	0.2133	0.2209	0.107
Mof_C 	C 	0.3032	0.3123	0.22	0.064
Mof_C 	C 	0.3377	0.3463	0.2454	-0.133
Mof_H 	H 	0.3561	0.3068	0.2611	0.09
Mof_C 	C 	0.3441	0.4384	0.247	0.078
Mof_H 	H 	0.367	0.4602	0.2644	-0.018
Mof_C 	C 	0.2859	0.4666	0.1998	0.073
Mof_H 	H 	0.268	0.5079	0.1846	-0.011
Mof_C 	C 	0.2778	0.3744	0.1964	-0.129
Mof_H 	H 	0.2551	0.3541	0.1781	0.084
Mof_C 	C 	0.2265	0.0461	0.1655	0.06
Mof_C 	C 	0.2155	0.9565	0.1724	-0.147
Mof_H 	H 	0.2275	0.9246	0.197	0.104
Mof_C 	C 	0.1867	0.9167	0.1422	0.09
Mof_H 	H 	0.1795	0.8569	0.1468	-0.012
Mof_C 	C 	0.1789	0.0456	0.0998	0.073
Mof_H 	H 	0.1663	0.0757	0.0749	-0.003
Mof_C 	C 	0.2076	0.0911	0.1287	-0.13
Mof_H 	H 	0.214	0.1511	0.1234	0.09
Mof_C 	C 	0.3289	0.0286	0.2932	0.069
Mof_C 	C 	0.3574	0.0736	0.3239	-0.14
Mof_H 	H 	0.3615	0.136	0.3218	0.102
Mof_C 	C 	0.3788	0.0241	0.3566	0.086
Mof_H 	H 	0.3977	0.0546	0.3766	-0.008
Mof_C 	C 	0.3474	0.8919	0.334	0.084
Mof_H 	H 	0.3435	0.8299	0.3379	-0.018
Mof_C 	C 	0.3245	0.9359	0.2989	-0.145
Mof_H 	H 	0.3062	0.9031	0.2792	0.089
Mof_C 	C 	0.9821	0.1634	0.0557	0.087
Mof_C 	C 	0.9479	0.2911	0.0335	0.089
Mof_C 	C 	0.9321	0.2057	0.0871	0.098
Mof_C 	C 	0.0158	0.1027	0.0551	0.061
Mof_C 	C 	0.0306	0.0911	0.018	-0.138
Mof_H 	H 	0.0193	0.12	0.9921	0.086
Mof_C 	C 	0.0633	0.0338	0.0207	0.086
Mof_H 	H 	0.0737	0.0258	0.9959	-0.009
Mof_C 	C 	0.066	0.0056	0.0925	0.085
Mof_H 	H 	0.0783	0.9779	0.1183	-0.015
Mof_C 	C 	0.0342	0.0596	0.093	-0.14
Mof_H 	H 	0.0249	0.0675	0.1185	0.097
Mof_C 	C 	0.9077	0.1876	0.1196	0.087
Mof_C 	C 	0.8877	0.2578	0.1357	-0.147
Mof_H 	H 	0.8888	0.3171	0.1255	0.097
Mof_C 	C 	0.8668	0.2388	0.166	0.093
Mof_H 	H 	0.8537	0.2864	0.1765	-0.023
Mof_C 	C 	0.8821	0.0875	0.1662	0.102
Mof_H 	H 	0.8797	0.0286	0.1763	-0.023
Mof_C 	C 	0.9043	0.1011	0.1356	-0.149
Mof_H 	H 	0.917	0.0522	0.1256	0.098
Mof_C 	C 	0.9423	0.3744	0.0067	0.058
Mof_C 	C 	0.9681	0.396	0.9796	-0.124
Mof_H 	H 	0.9899	0.3596	0.9792	0.078
Mof_C 	C 	0.9609	0.4725	0.9531	0.074
Mof_H 	H 	0.9781	0.4864	0.9349	-0.009
Mof_C 	C 	0.9064	0.5072	0.9801	0.076
Mof_H 	H 	0.8856	0.5464	0.981	-0.014
Mof_C 	C 	0.9112	0.432	0.0069	-0.131
Mof_H 	H 	0.8936	0.4204	0.025	0.087
Mof_I 	I 	0.37978	0.65173	0.30427	-0.405
Mof_I 	I 	0.27263	0.73555	0.20978	-0.378
Mof_I 	I 	0.47372	0.84748	0.37012	-0.349
Mof_I 	I 	0.38049	0.75063	0.44433	-0.382
Mof_I 	I 	0.1481	0.90435	0.98874	-0.369
Mof_I 	I 	0.1015	0.7613	0.09707	-0.379
Mof_N 	N 	0.2769	0.0395	0.2302	-0.14
Mof_N 	N 	0.3166	0.1673	0.2531	-0.136
Mof_N 	N 	0.2661	0.1789	0.1913	-0.139
Mof_N 	N 	0.1685	0.9593	0.1065	-0.276
Mof_N 	N 	0.3747	0.9349	0.3621	-0.275
Mof_N 	N 	0.3193	0.4982	0.2249	-0.273
Mof_N 	N 	0.9603	0.1445	0.0851	-0.132
Mof_N 	N 	0.9258	0.2818	0.0632	-0.133
Mof_N 	N 	0.9761	0.2332	0.0278	-0.146
Mof_N 	N 	0.0803	0.9907	0.0566	-0.277
Mof_N 	N 	0.8637	0.1546	0.1821	-0.282
Mof_N 	N 	0.9301	0.5267	0.9527	-0.272
Mof_Zn	Zn	0.33316	0.63635	0.23155	1.164
Mof_Zn	Zn	0.41621	0.86752	0.408	1.164
Mof_Zn	Zn	0.12544	0.8996	0.06026	1.165
Mof_C 	C 	0.7582	0.41	0.6974	0.085
Mof_C 	C 	0.8059	0.4201	0.7563	0.1
Mof_C 	C 	0.7947	0.2867	0.7209	0.107
Mof_C 	C 	0.8032	0.1877	0.72	0.064
Mof_C 	C 	0.8377	0.1537	0.7454	-0.134
Mof_H 	H 	0.8561	0.1932	0.7611	0.09
Mof_C 	C 	0.8441	0.0616	0.747	0.079
Mof_H 	H 	0.867	0.0398	0.7644	-0.018
Mof_C 	C 	0.7859	0.0334	0.6998	0.074
Mof_H 	H 	0.768	0.9921	0.6846	-0.011
Mof_C 	C 	0.7778	0.1256	0.6964	-0.129
Mof_H 	H 	0.7551	0.1459	0.6781	0.084
Mof_C 	C 	0.7265	0.4539	0.6655	0.06
Mof_C 	C 	0.7155	0.5435	0.6724	-0.148
Mof_H 	H 	0.7275	0.5754	0.697	0.104
Mof_C 	C 	0.6867	0.5833	0.6422	0.091
Mof_H 	H 	0.6795	0.6431	0.6468	-0.012
Mof_C 	C 	0.6789	0.4544	0.5998	0.074
Mof_H 	H 	0.6663	0.4243	0.5749	-0.003
Mof_C 	C 	0.7076	0.4089	0.6287	-0.13
Mof_H 	H 	0.714	0.3489	0.6234	0.09
Mof_C 	C 	0.8289	0.4714	0.7932	0.069
Mof_C 	C 	0.8574	0.4264	0.8239	-0.14
Mof_H 	H 	0.8615	0.364	0.8218	0.102
Mof_C 	C 	0.8788	0.4759	0.8566	0.087
Mof_H 	H 	0.8977	0.4454	0.8766	-0.008
Mof_C 	C 	0.8474	0.6081	0.834	0.084
Mof_H 	H 	0.8435	0.6701	0.8379	-0.018
Mof_C 	C 	0.8245	0.5641	0.7989	-0.146
Mof_H 	H 	0.8062	0.5969	0.7792	0.089
Mof_C 	C 	0.4821	0.3366	0.5557	0.087
Mof_C 	C 	0.4479	0.2089	0.5335	0.089
Mof_C 	C 	0.4321	0.2943	0.5871	0.098
Mof_C 	C 	0.5158	0.3973	0.5551	0.062
Mof_C 	C 	0.5306	0.4089	0.518	-0.138
Mof_H 	H 	0.5193	0.38	0.4921	0.086
Mof_C 	C 	0.5633	0.4662	0.5207	0.086
Mof_H 	H 	0.5737	0.4742	0.4959	-0.009
Mof_C 	C 	0.566	0.4944	0.5925	0.086
Mof_H 	H 	0.5783	0.5221	0.6183	-0.016
Mof_C 	C 	0.5342	0.4404	0.593	-0.141
Mof_H 	H 	0.5249	0.4325	0.6185	0.097
Mof_C 	C 	0.4077	0.3124	0.6196	0.087
Mof_C 	C 	0.3877	0.2422	0.6357	-0.147
Mof_H 	H 	0.3888	0.1829	0.6255	0.097
Mof_C 	C 	0.3668	0.2612	0.666	0.093
Mof_H 	H 	0.3537	0.2136	0.6765	-0.023
Mof_C 	C 	0.3821	0.4125	0.6662	0.102
Mof_H 	H 	0.3797	0.4714	0.6763	-0.023
Mof_C 	C 	0.4043	0.3989	0.6356	-0.149
Mof_H 	H 	0.417	0.4478	0.6256	0.098
Mof_C 	C 	0.4423	0.1256	0.5067	0.058
Mof_C 	C 	0.4681	0.104	0.4796	-0.124
Mof_H 	H 	0.4899	0.1404	0.4792	0.078
Mof_C 	C 	0.4609	0.0275	0.4531	0.074
Mof_H 	H 	0.4781	0.0136	0.4349	-0.009
Mof_C 	C 	0.4064	0.9928	0.4801	0.076
Mof_H 	H 	0.3856	0.9536	0.481	-0.014
Mof_C 	C 	0.4112	0.068	0.5069	-0.131
Mof_H 	H 	0.3936	0.0796	0.525	0.087
Mof_I 	I 	0.87978	0.84827	0.80427	-0.405
Mof_I 	I 	0.77263	0.76445	0.70978	-0.378
Mof_I 	I 	0.97372	0.65252	0.87012	-0.349
Mof_I 	I 	0.88049	0.74937	0.94433	-0.382
Mof_I 	I 	0.6481	0.59565	0.48874	-0.369
Mof_I 	I 	0.6015	0.7387	0.59707	-0.379
Mof_N 	N 	0.7769	0.4605	0.7302	-0.14
Mof_N 	N 	0.8166	0.3327	0.7531	-0.135
Mof_N 	N 	0.7661	0.3211	0.6913	-0.139
Mof_N 	N 	0.6685	0.5407	0.6065	-0.276
Mof_N 	N 	0.8747	0.5651	0.8621	-0.275
Mof_N 	N 	0.8193	0.0018	0.7249	-0.273
Mof_N 	N 	0.4603	0.3555	0.5851	-0.132
Mof_N 	N 	0.4258	0.2182	0.5632	-0.133
Mof_N 	N 	0.4761	0.2668	0.5278	-0.146
Mof_N 	N 	0.5803	0.5093	0.5566	-0.278
Mof_N 	N 	0.3637	0.3454	0.6821	-0.282
Mof_N 	N 	0.4301	0.9733	0.4527	-0.272
Mof_Zn	Zn	0.83316	0.86365	0.73155	1.164
Mof_Zn	Zn	0.91621	0.63248	0.908	1.164
Mof_Zn	Zn	0.62544	0.6004	0.56026	1.165
Mof_C 	C 	0.2582	0.91	0.6974	0.086
Mof_C 	C 	0.3059	0.9201	0.7563	0.1
Mof_C 	C 	0.2947	0.7867	0.7209	0.107
Mof_C 	C 	0.3032	0.6877	0.72	0.064
Mof_C 	C 	0.3377	0.6537	0.7454	-0.133
Mof_H 	H 	0.3561	0.6932	0.7611	0.09
Mof_C 	C 	0.3441	0.5616	0.747	0.078
Mof_H 	H 	0.367	0.5398	0.7644	-0.018
Mof_C 	C 	0.2859	0.5334	0.6998	0.073
Mof_H 	H 	0.268	0.4921	0.6846	-0.011
Mof_C 	C 	0.2778	0.6256	0.6964	-0.129
Mof_H 	H 	0.2551	0.6459	0.6781	0.084
Mof_C 	C 	0.2265	0.9539	0.6655	0.06
Mof_C 	C 	0.2155	0.0435	0.6724	-0.147
Mof_H 	H 	0.2275	0.0754	0.697	0.104
Mof_C 	C 	0.1867	0.0833	0.6422	0.09
Mof_H 	H 	0.1795	0.1431	0.6468	-0.012
Mof_C 	C 	0.1789	0.9544	0.5998	0.073
Mof_H 	H 	0.1663	0.9243	0.5749	-0.003
Mof_C 	C 	0.2076	0.9089	0.6287	-0.13
Mof_H 	H 	0.214	0.8489	0.6234	0.09
Mof_C 	C 	0.3289	0.9714	0.7932	0.068
Mof_C 	C 	0.3574	0.9264	0.8239	-0.14
Mof_H 	H 	0.3615	0.864	0.8218	0.102
Mof_C 	C 	0.3788	0.9759	0.8566	0.086
Mof_H 	H 	0.3977	0.9454	0.8766	-0.008
Mof_C 	C 	0.3474	0.1081	0.834	0.084
Mof_H 	H 	0.3435	0.1701	0.8379	-0.018
Mof_C 	C 	0.3245	0.0641	0.7989	-0.145
Mof_H 	H 	0.3062	0.0969	0.7792	0.089
Mof_C 	C 	0.9821	0.8366	0.5557	0.087
Mof_C 	C 	0.9479	0.7089	0.5335	0.089
Mof_C 	C 	0.9321	0.7943	0.5871	0.098
Mof_C 	C 	0.0158	0.8973	0.5551	0.061
Mof_C 	C 	0.0306	0.9089	0.518	-0.138
Mof_H 	H 	0.0193	0.88	0.4921	0.086
Mof_C 	C 	0.0633	0.9662	0.5207	0.086
Mof_H 	H 	0.0737	0.9742	0.4959	-0.009
Mof_C 	C 	0.066	0.9944	0.5925	0.085
Mof_H 	H 	0.0783	0.0221	0.6183	-0.015
Mof_C 	C 	0.0342	0.9404	0.593	-0.14
Mof_H 	H 	0.0249	0.9325	0.6185	0.097
Mof_C 	C 	0.9077	0.8124	0.6196	0.087
Mof_C 	C 	0.8877	0.7422	0.6357	-0.147
Mof_H 	H 	0.8888	0.6829	0.6255	0.097
Mof_C 	C 	0.8668	0.7612	0.666	0.093
Mof_H 	H 	0.8537	0.7136	0.6765	-0.023
Mof_C 	C 	0.8821	0.9125	0.6662	0.102
Mof_H 	H 	0.8797	0.9714	0.6763	-0.023
Mof_C 	C 	0.9043	0.8989	0.6356	-0.149
Mof_H 	H 	0.917	0.9478	0.6256	0.098
Mof_C 	C 	0.9423	0.6256	0.5067	0.058
Mof_C 	C 	0.9681	0.604	0.4796	-0.124
Mof_H 	H 	0.9899	0.6404	0.4792	0.078
Mof_C 	C 	0.9609	0.5275	0.4531	0.074
Mof_H 	H 	0.9781	0.5136	0.4349	-0.009
Mof_C 	C 	0.9064	0.4928	0.4801	0.076
Mof_H 	H 	0.8856	0.4536	0.481	-0.014
Mof_C 	C 	0.9112	0.568	0.5069	-0.131
Mof_H 	H 	0.8936	0.5796	0.525	0.087
Mof_I 	I 	0.37978	0.34827	0.80427	-0.405
Mof_I 	I 	0.27263	0.26445	0.70978	-0.378
Mof_I 	I 	0.47372	0.15252	0.87012	-0.349
Mof_I 	I 	0.38049	0.24937	0.94433	-0.382
Mof_I 	I 	0.1481	0.09565	0.48874	-0.369
Mof_I 	I 	0.1015	0.2387	0.59707	-0.379
Mof_N 	N 	0.2769	0.9605	0.7302	-0.14
Mof_N 	N 	0.3166	0.8327	0.7531	-0.136
Mof_N 	N 	0.2661	0.8211	0.6913	-0.139
Mof_N 	N 	0.1685	0.0407	0.6065	-0.276
Mof_N 	N 	0.3747	0.0651	0.8621	-0.275
Mof_N 	N 	0.3193	0.5018	0.7249	-0.273
Mof_N 	N 	0.9603	0.8555	0.5851	-0.132
Mof_N 	N 	0.9258	0.7182	0.5632	-0.133
Mof_N 	N 	0.9761	0.7668	0.5278	-0.146
Mof_N 	N 	0.0803	0.0093	0.5566	-0.278
Mof_N 	N 	0.8637	0.8454	0.6821	-0.282
Mof_N 	N 	0.9301	0.4733	0.4527	-0.272
Mof_Zn	Zn	0.33316	0.36365	0.73155	1.164
Mof_Zn	Zn	0.41621	0.13248	0.908	1.164
Mof_Zn	Zn	0.12544	0.1004	0.56026	1.165
_end
