data_functionalizedCrystal
_audit_creation_method	'EQeq! by Chris Wilmer'
_symmetry_space_group_name_H-M	'P1'
_symmetry_Int_Tables_number	1
_symmetry_cell_setting	triclinic
loop_
_symmetry_equiv_pos_as_xyz
  x,y,z
_cell_length_a	10.0173
_cell_length_b	19.8278
_cell_length_c	10.0473
_cell_angle_alpha	90
_cell_angle_beta	113.771
_cell_angle_gamma	90
loop_
_atom_site_label
_atom_site_type_symbol
_atom_site_fract_x
_atom_site_fract_y
_atom_site_fract_z
_atom_site_charge
Mof_C 	C 	0.466	0.06193	0.0442	-0.011
Mof_V 	V 	0.28701	0.25997	0.73871	1.759
Mof_V 	V 	0.26825	0.10894	0.49708	1.797
Mof_P 	P 	0.00944	0.36448	0.67902	0.434
Mof_P 	P 	0.51163	0.13468	0.82832	0.462
Mof_F 	F 	0.19426	0.1933	0.58641	-0.725
Mof_F 	F 	0.34077	0.31324	0.91588	-0.834
Mof_F 	F 	0.19739	0.05531	0.59976	-0.619
Mof_O 	O 	0.1065	0.31496	0.6437	-0.487
Mof_O 	O 	0.8519	0.34022	0.6302	-0.246
Mof_O 	O 	0.0651	0.37979	0.8422	-0.422
Mof_O 	O 	0.4635	0.11777	0.667	-0.463
Mof_O 	O 	0.6718	0.15704	0.881	-0.329
Mof_O 	O 	0.4159	0.18663	0.8586	-0.488
Mof_C 	C 	0.0059	0.44103	0.5802	-0.072
Mof_C 	C 	0.1038	0.45093	0.515	-0.017
Mof_H 	H 	0.1753	0.4176	0.5251	0.022
Mof_C 	C 	0.9022	0.49089	0.5645	-0.023
Mof_H 	H 	0.8351	0.485	0.6086	0.071
Mof_C 	C 	0.5029	0.05911	0.9238	-0.054
Mof_C 	C 	0.4624	0.00349	0.1195	-0.018
Mof_H 	H 	0.4364	0.006	0.2005	0.02
Mof_H 	H 	0.4431	0.1041	0.0747	0.017
Mof_H 	H 	0.747	0.162	0.988	0.22
Mof_C 	C 	0.534	0.56193	0.4558	-0.012
Mof_V 	V 	0.71299	0.75997	0.76129	1.76
Mof_V 	V 	0.73175	0.60894	0.00292	1.796
Mof_P 	P 	0.99056	0.86448	0.82098	0.437
Mof_P 	P 	0.48837	0.63468	0.67168	0.461
Mof_F 	F 	0.80574	0.6933	0.91359	-0.723
Mof_F 	F 	0.65923	0.81324	0.58412	-0.833
Mof_F 	F 	0.80261	0.55531	0.90024	-0.616
Mof_O 	O 	0.8935	0.81496	0.8563	-0.485
Mof_O 	O 	0.1481	0.84022	0.8698	-0.25
Mof_O 	O 	0.9349	0.87979	0.6578	-0.42
Mof_O 	O 	0.5365	0.61777	0.833	-0.461
Mof_O 	O 	0.3282	0.65704	0.619	-0.329
Mof_O 	O 	0.5841	0.68663	0.6414	-0.488
Mof_C 	C 	0.9941	0.94103	0.9198	-0.066
Mof_C 	C 	0.8962	0.95093	0.985	-0.01
Mof_H 	H 	0.8247	0.9176	0.9749	0.021
Mof_C 	C 	0.0978	0.99089	0.9355	-0.036
Mof_H 	H 	0.1649	0.985	0.8914	0.074
Mof_C 	C 	0.4971	0.55911	0.5762	-0.051
Mof_C 	C 	0.5376	0.50349	0.3805	-0.019
Mof_H 	H 	0.5636	0.506	0.2995	0.02
Mof_H 	H 	0.5569	0.6041	0.4253	0.017
Mof_H 	H 	0.253	0.662	0.512	0.218
Mof_C 	C 	0.534	0.93807	0.9558	-0.01
Mof_V 	V 	0.71299	0.74003	0.26129	1.76
Mof_V 	V 	0.73175	0.89106	0.50292	1.797
Mof_P 	P 	0.99056	0.63552	0.32098	0.434
Mof_P 	P 	0.48837	0.86532	0.17168	0.462
Mof_F 	F 	0.80574	0.8067	0.41359	-0.725
Mof_F 	F 	0.65923	0.68676	0.08412	-0.834
Mof_F 	F 	0.80261	0.94469	0.40024	-0.619
Mof_O 	O 	0.8935	0.68504	0.3563	-0.487
Mof_O 	O 	0.1481	0.65978	0.3698	-0.246
Mof_O 	O 	0.9349	0.62021	0.1578	-0.422
Mof_O 	O 	0.5365	0.88223	0.333	-0.463
Mof_O 	O 	0.3282	0.84296	0.119	-0.329
Mof_O 	O 	0.5841	0.81337	0.1414	-0.488
Mof_C 	C 	0.9941	0.55897	0.4198	-0.072
Mof_C 	C 	0.8962	0.54907	0.485	-0.017
Mof_H 	H 	0.8247	0.5824	0.4749	0.022
Mof_C 	C 	0.0978	0.50911	0.4355	-0.023
Mof_H 	H 	0.1649	0.515	0.3914	0.071
Mof_C 	C 	0.4971	0.94089	0.0762	-0.054
Mof_C 	C 	0.5376	0.99651	0.8805	-0.018
Mof_H 	H 	0.5636	0.994	0.7995	0.02
Mof_H 	H 	0.5569	0.8959	0.9253	0.017
Mof_H 	H 	0.253	0.838	0.012	0.22
Mof_C 	C 	0.466	0.43807	0.5442	-0.012
Mof_V 	V 	0.28701	0.24003	0.23871	1.76
Mof_V 	V 	0.26825	0.39106	0.99708	1.796
Mof_P 	P 	0.00944	0.13552	0.17902	0.437
Mof_P 	P 	0.51163	0.36532	0.32832	0.461
Mof_F 	F 	0.19426	0.3067	0.08641	-0.723
Mof_F 	F 	0.34077	0.18676	0.41588	-0.833
Mof_F 	F 	0.19739	0.44469	0.09976	-0.616
Mof_O 	O 	0.1065	0.18504	0.1437	-0.485
Mof_O 	O 	0.8519	0.15978	0.1302	-0.25
Mof_O 	O 	0.0651	0.12021	0.3422	-0.42
Mof_O 	O 	0.4635	0.38223	0.167	-0.461
Mof_O 	O 	0.6718	0.34296	0.381	-0.329
Mof_O 	O 	0.4159	0.31337	0.3586	-0.488
Mof_C 	C 	0.0059	0.05897	0.0802	-0.066
Mof_C 	C 	0.1038	0.04907	0.015	-0.01
Mof_H 	H 	0.1753	0.0824	0.0251	0.021
Mof_C 	C 	0.9022	0.00911	0.0645	-0.036
Mof_H 	H 	0.8351	0.015	0.1086	0.074
Mof_C 	C 	0.5029	0.44089	0.4238	-0.051
Mof_C 	C 	0.4624	0.49651	0.6195	-0.019
Mof_H 	H 	0.4364	0.494	0.7005	0.02
Mof_H 	H 	0.4431	0.3959	0.5747	0.017
Mof_H 	H 	0.747	0.338	0.488	0.218
_end
