# CIF file generated by openbabel 3.1.0, see https://openbabel.org
data_I
_chemical_name_common 'image0'
_cell_length_a 19.0949
_cell_length_b 22.7667
_cell_length_c 13.3952
_cell_angle_alpha 90
_cell_angle_beta 113.185
_cell_angle_gamma 90
_space_group_name_H-M_alt 'P 1'
_space_group_name_Hall 'P 1'
loop_
    _symmetry_equiv_pos_as_xyz
    x,y,z
loop_
    _atom_site_label
    _atom_site_type_symbol
    _atom_site_fract_x
    _atom_site_fract_y
    _atom_site_fract_z
    _atom_site_occupancy
    Cu1      Cu       0.49585    0.76335    0.55696    1.000
    N1       N        0.46740    0.67755    0.54490    1.000
    N2       N        0.40514    0.76713    0.41590    1.000
    N3       N        0.57436    0.93534    0.80450    1.000
    O1       O        0.51142    0.84794    0.56520    1.000
    O2       O        0.62055    0.84719    0.54070    1.000
    O3       O        0.57906    0.74621    0.69370    1.000
    O4       O        0.57967    0.81169    0.81850    1.000
    C1       C        0.50110    0.63365    0.61110    1.000
    H1       H        0.54170    0.64200    0.67750    1.000
    C2       C        0.47870    0.57570    0.58590    1.000
    H2       H        0.50330    0.54560    0.63530    1.000
    C3       C        0.42130    0.56250    0.49010    1.000
    H3       H        0.40600    0.52330    0.47310    1.000
    C4       C        0.38470    0.60730    0.41650    1.000
    C5       C        0.32400    0.59970    0.31340    1.000
    H4       H        0.30580    0.56150    0.29110    1.000
    C6       C        0.29210    0.64430    0.24740    1.000
    H5       H        0.25260    0.63690    0.17960    1.000
    C7       C        0.31670    0.70380    0.27740    1.000
    C8       C        0.28620    0.75390    0.21440    1.000
    H6       H        0.24680    0.74990    0.14530    1.000
    C9       C        0.31330    0.80800    0.25270    1.000
    H7       H        0.29180    0.84170    0.21140    1.000
    C10      C        0.37350    0.81310    0.35420    1.000
    H8       H        0.39230    0.85080    0.37980    1.000
    C11      C        0.37680    0.71300    0.37890    1.000
    C12      C        0.41010    0.66493    0.44860    1.000
    C13      C        0.64910    0.93375    0.86130    1.000
    H9       H        0.67370    0.89720    0.87870    1.000
    C14      C        0.69200    0.98490    0.89600    1.000
    H10      H        0.74480    0.98230    0.93680    1.000
    C15      C        0.65850    0.03820    0.87140    1.000
    H11      H        0.68750    0.07250    0.89530    1.000
    C16      C        0.58010    0.04172    0.80990    1.000
    C17      C        0.53790    0.09580    0.77880    1.000
    H12      H        0.56370    0.13180    0.79900    1.000
    C18      C        0.54040    0.98872    0.77950    1.000
    C19      C        0.56780    0.87288    0.55220    1.000
    C20      C        0.56570    0.93778    0.54720    1.000
    H13      H        0.61220    0.95830    0.57290    1.000
    C21      C        0.50170    0.96852    0.50850    1.000
    H14      H        0.45550    0.94820    0.49080    1.000
    C22      C        0.60550    0.76806    0.78680    1.000
    C23      C        0.67360    0.73914    0.86740    1.000
    H15      H        0.68710    0.70170    0.85100    1.000
    C24      C        0.71630    0.76331    0.96100    1.000
    H16      H        0.70180    0.80030    0.97770    1.000
    Cu2      Cu       0.99585    0.26335    0.55696    1.000
    N4       N        0.96740    0.17755    0.54490    1.000
    N5       N        0.90514    0.26713    0.41590    1.000
    N6       N        0.07436    0.43534    0.80450    1.000
    O5       O        0.01142    0.34794    0.56520    1.000
    O6       O        0.12055    0.34719    0.54070    1.000
    O7       O        0.07906    0.24621    0.69370    1.000
    O8       O        0.07967    0.31169    0.81850    1.000
    C25      C        0.00110    0.13365    0.61110    1.000
    H17      H        0.04170    0.14200    0.67750    1.000
    C26      C        0.97870    0.07570    0.58590    1.000
    H18      H        0.00330    0.04560    0.63530    1.000
    C27      C        0.92130    0.06250    0.49010    1.000
    H19      H        0.90600    0.02330    0.47310    1.000
    C28      C        0.88470    0.10730    0.41650    1.000
    C29      C        0.82400    0.09970    0.31340    1.000
    H20      H        0.80580    0.06150    0.29110    1.000
    C30      C        0.79210    0.14430    0.24740    1.000
    H21      H        0.75260    0.13690    0.17960    1.000
    C31      C        0.81670    0.20380    0.27740    1.000
    C32      C        0.78620    0.25390    0.21440    1.000
    H22      H        0.74680    0.24990    0.14530    1.000
    C33      C        0.81330    0.30800    0.25270    1.000
    H23      H        0.79180    0.34170    0.21140    1.000
    C34      C        0.87350    0.31310    0.35420    1.000
    H24      H        0.89230    0.35080    0.37980    1.000
    C35      C        0.87680    0.21300    0.37890    1.000
    C36      C        0.91010    0.16493    0.44860    1.000
    C37      C        0.14910    0.43375    0.86130    1.000
    H25      H        0.17370    0.39720    0.87870    1.000
    C38      C        0.19200    0.48490    0.89600    1.000
    H26      H        0.24480    0.48230    0.93680    1.000
    C39      C        0.15850    0.53820    0.87140    1.000
    H27      H        0.18750    0.57250    0.89530    1.000
    C40      C        0.08010    0.54172    0.80990    1.000
    C41      C        0.03790    0.59580    0.77880    1.000
    H28      H        0.06370    0.63180    0.79900    1.000
    C42      C        0.04040    0.48872    0.77950    1.000
    C43      C        0.06780    0.37288    0.55220    1.000
    C44      C        0.06570    0.43778    0.54720    1.000
    H29      H        0.11220    0.45830    0.57290    1.000
    C45      C        0.00170    0.46852    0.50850    1.000
    H30      H        0.95550    0.44820    0.49080    1.000
    C46      C        0.10550    0.26806    0.78680    1.000
    C47      C        0.17360    0.23914    0.86740    1.000
    H31      H        0.18710    0.20170    0.85100    1.000
    C48      C        0.21630    0.26331    0.96100    1.000
    H32      H        0.20180    0.30030    0.97770    1.000
    Cu3      Cu       0.50415    0.76335    0.94304    1.000
    N7       N        0.53260    0.67755    0.95510    1.000
    N8       N        0.59486    0.76713    0.08410    1.000
    N9       N        0.42564    0.93534    0.69550    1.000
    O9       O        0.48858    0.84794    0.93480    1.000
    O10      O        0.37945    0.84719    0.95930    1.000
    O11      O        0.42094    0.74621    0.80630    1.000
    O12      O        0.42033    0.81169    0.68150    1.000
    C49      C        0.49890    0.63365    0.88890    1.000
    H33      H        0.45830    0.64200    0.82250    1.000
    C50      C        0.52130    0.57570    0.91410    1.000
    H34      H        0.49670    0.54560    0.86470    1.000
    C51      C        0.57870    0.56250    0.00990    1.000
    H35      H        0.59400    0.52330    0.02690    1.000
    C52      C        0.61530    0.60730    0.08350    1.000
    C53      C        0.67600    0.59970    0.18660    1.000
    H36      H        0.69420    0.56150    0.20890    1.000
    C54      C        0.70790    0.64430    0.25260    1.000
    H37      H        0.74740    0.63690    0.32040    1.000
    C55      C        0.68330    0.70380    0.22260    1.000
    C56      C        0.71380    0.75390    0.28560    1.000
    H38      H        0.75320    0.74990    0.35470    1.000
    C57      C        0.68670    0.80800    0.24730    1.000
    H39      H        0.70820    0.84170    0.28860    1.000
    C58      C        0.62650    0.81310    0.14580    1.000
    H40      H        0.60770    0.85080    0.12020    1.000
    C59      C        0.62320    0.71300    0.12110    1.000
    C60      C        0.58990    0.66493    0.05140    1.000
    C61      C        0.35090    0.93375    0.63870    1.000
    H41      H        0.32630    0.89720    0.62130    1.000
    C62      C        0.30800    0.98490    0.60400    1.000
    H42      H        0.25520    0.98230    0.56320    1.000
    C63      C        0.34150    0.03820    0.62860    1.000
    H43      H        0.31250    0.07250    0.60470    1.000
    C64      C        0.41990    0.04172    0.69010    1.000
    C65      C        0.46210    0.09580    0.72120    1.000
    H44      H        0.43630    0.13180    0.70100    1.000
    C66      C        0.45960    0.98872    0.72050    1.000
    C67      C        0.43220    0.87288    0.94780    1.000
    C68      C        0.43430    0.93778    0.95280    1.000
    H45      H        0.38780    0.95830    0.92710    1.000
    C69      C        0.49830    0.96852    0.99150    1.000
    H46      H        0.54450    0.94820    0.00920    1.000
    C70      C        0.39450    0.76806    0.71320    1.000
    C71      C        0.32640    0.73914    0.63260    1.000
    H47      H        0.31290    0.70170    0.64900    1.000
    C72      C        0.28370    0.76331    0.53900    1.000
    H48      H        0.29820    0.80030    0.52230    1.000
    Cu4      Cu       0.00415    0.26335    0.94304    1.000
    N10      N        0.03260    0.17755    0.95510    1.000
    N11      N        0.09486    0.26713    0.08410    1.000
    N12      N        0.92564    0.43534    0.69550    1.000
    O13      O        0.98858    0.34794    0.93480    1.000
    O14      O        0.87945    0.34719    0.95930    1.000
    O15      O        0.92094    0.24621    0.80630    1.000
    O16      O        0.92033    0.31169    0.68150    1.000
    C73      C        0.99890    0.13365    0.88890    1.000
    H49      H        0.95830    0.14200    0.82250    1.000
    C74      C        0.02130    0.07570    0.91410    1.000
    H50      H        0.99670    0.04560    0.86470    1.000
    C75      C        0.07870    0.06250    0.00990    1.000
    H51      H        0.09400    0.02330    0.02690    1.000
    C76      C        0.11530    0.10730    0.08350    1.000
    C77      C        0.17600    0.09970    0.18660    1.000
    H52      H        0.19420    0.06150    0.20890    1.000
    C78      C        0.20790    0.14430    0.25260    1.000
    H53      H        0.24740    0.13690    0.32040    1.000
    C79      C        0.18330    0.20380    0.22260    1.000
    C80      C        0.21380    0.25390    0.28560    1.000
    H54      H        0.25320    0.24990    0.35470    1.000
    C81      C        0.18670    0.30800    0.24730    1.000
    H55      H        0.20820    0.34170    0.28860    1.000
    C82      C        0.12650    0.31310    0.14580    1.000
    H56      H        0.10770    0.35080    0.12020    1.000
    C83      C        0.12320    0.21300    0.12110    1.000
    C84      C        0.08990    0.16493    0.05140    1.000
    C85      C        0.85090    0.43375    0.63870    1.000
    H57      H        0.82630    0.39720    0.62130    1.000
    C86      C        0.80800    0.48490    0.60400    1.000
    H58      H        0.75520    0.48230    0.56320    1.000
    C87      C        0.84150    0.53820    0.62860    1.000
    H59      H        0.81250    0.57250    0.60470    1.000
    C88      C        0.91990    0.54172    0.69010    1.000
    C89      C        0.96210    0.59580    0.72120    1.000
    H60      H        0.93630    0.63180    0.70100    1.000
    C90      C        0.95960    0.48872    0.72050    1.000
    C91      C        0.93220    0.37288    0.94780    1.000
    C92      C        0.93430    0.43778    0.95280    1.000
    H61      H        0.88780    0.45830    0.92710    1.000
    C93      C        0.99830    0.46852    0.99150    1.000
    H62      H        0.04450    0.44820    0.00920    1.000
    C94      C        0.89450    0.26806    0.71320    1.000
    C95      C        0.82640    0.23914    0.63260    1.000
    H63      H        0.81290    0.20170    0.64900    1.000
    C96      C        0.78370    0.26331    0.53900    1.000
    H64      H        0.79820    0.30030    0.52230    1.000
    Cu5      Cu       0.50415    0.23665    0.44304    1.000
    N13      N        0.53260    0.32245    0.45510    1.000
    N14      N        0.59486    0.23287    0.58410    1.000
    N15      N        0.42564    0.06466    0.19550    1.000
    O17      O        0.48858    0.15206    0.43480    1.000
    O18      O        0.37945    0.15281    0.45930    1.000
    O19      O        0.42094    0.25379    0.30630    1.000
    O20      O        0.42033    0.18831    0.18150    1.000
    C97      C        0.49890    0.36635    0.38890    1.000
    H65      H        0.45830    0.35800    0.32250    1.000
    C98      C        0.52130    0.42430    0.41410    1.000
    H66      H        0.49670    0.45440    0.36470    1.000
    C99      C        0.57870    0.43750    0.50990    1.000
    H67      H        0.59400    0.47670    0.52690    1.000
    C100     C        0.61530    0.39270    0.58350    1.000
    C101     C        0.67600    0.40030    0.68660    1.000
    H68      H        0.69420    0.43850    0.70890    1.000
    C102     C        0.70790    0.35570    0.75260    1.000
    H69      H        0.74740    0.36310    0.82040    1.000
    C103     C        0.68330    0.29620    0.72260    1.000
    C104     C        0.71380    0.24610    0.78560    1.000
    H70      H        0.75320    0.25010    0.85470    1.000
    C105     C        0.68670    0.19200    0.74730    1.000
    H71      H        0.70820    0.15830    0.78860    1.000
    C106     C        0.62650    0.18690    0.64580    1.000
    H72      H        0.60770    0.14920    0.62020    1.000
    C107     C        0.62320    0.28700    0.62110    1.000
    C108     C        0.58990    0.33507    0.55140    1.000
    C109     C        0.35090    0.06625    0.13870    1.000
    H73      H        0.32630    0.10280    0.12130    1.000
    C110     C        0.30800    0.01510    0.10400    1.000
    H74      H        0.25520    0.01770    0.06320    1.000
    C111     C        0.34150    0.96180    0.12860    1.000
    H75      H        0.31250    0.92750    0.10470    1.000
    C112     C        0.41990    0.95828    0.19010    1.000
    C113     C        0.46210    0.90420    0.22120    1.000
    H76      H        0.43630    0.86820    0.20100    1.000
    C114     C        0.45960    0.01128    0.22050    1.000
    C115     C        0.43220    0.12712    0.44780    1.000
    C116     C        0.43430    0.06222    0.45280    1.000
    H77      H        0.38780    0.04170    0.42710    1.000
    C117     C        0.49830    0.03148    0.49150    1.000
    H78      H        0.54450    0.05180    0.50920    1.000
    C118     C        0.39450    0.23194    0.21320    1.000
    C119     C        0.32640    0.26086    0.13260    1.000
    H79      H        0.31290    0.29830    0.14900    1.000
    C120     C        0.28370    0.23669    0.03900    1.000
    H80      H        0.29820    0.19970    0.02230    1.000
    Cu6      Cu       0.00415    0.73665    0.44304    1.000
    N16      N        0.03260    0.82245    0.45510    1.000
    N17      N        0.09486    0.73287    0.58410    1.000
    N18      N        0.92564    0.56466    0.19550    1.000
    O21      O        0.98858    0.65206    0.43480    1.000
    O22      O        0.87945    0.65281    0.45930    1.000
    O23      O        0.92094    0.75379    0.30630    1.000
    O24      O        0.92033    0.68831    0.18150    1.000
    C121     C        0.99890    0.86635    0.38890    1.000
    H81      H        0.95830    0.85800    0.32250    1.000
    C122     C        0.02130    0.92430    0.41410    1.000
    H82      H        0.99670    0.95440    0.36470    1.000
    C123     C        0.07870    0.93750    0.50990    1.000
    H83      H        0.09400    0.97670    0.52690    1.000
    C124     C        0.11530    0.89270    0.58350    1.000
    C125     C        0.17600    0.90030    0.68660    1.000
    H84      H        0.19420    0.93850    0.70890    1.000
    C126     C        0.20790    0.85570    0.75260    1.000
    H85      H        0.24740    0.86310    0.82040    1.000
    C127     C        0.18330    0.79620    0.72260    1.000
    C128     C        0.21380    0.74610    0.78560    1.000
    H86      H        0.25320    0.75010    0.85470    1.000
    C129     C        0.18670    0.69200    0.74730    1.000
    H87      H        0.20820    0.65830    0.78860    1.000
    C130     C        0.12650    0.68690    0.64580    1.000
    H88      H        0.10770    0.64920    0.62020    1.000
    C131     C        0.12320    0.78700    0.62110    1.000
    C132     C        0.08990    0.83507    0.55140    1.000
    C133     C        0.85090    0.56625    0.13870    1.000
    H89      H        0.82630    0.60280    0.12130    1.000
    C134     C        0.80800    0.51510    0.10400    1.000
    H90      H        0.75520    0.51770    0.06320    1.000
    C135     C        0.84150    0.46180    0.12860    1.000
    H91      H        0.81250    0.42750    0.10470    1.000
    C136     C        0.91990    0.45828    0.19010    1.000
    C137     C        0.96210    0.40420    0.22120    1.000
    H92      H        0.93630    0.36820    0.20100    1.000
    C138     C        0.95960    0.51128    0.22050    1.000
    C139     C        0.93220    0.62712    0.44780    1.000
    C140     C        0.93430    0.56222    0.45280    1.000
    H93      H        0.88780    0.54170    0.42710    1.000
    C141     C        0.99830    0.53148    0.49150    1.000
    H94      H        0.04450    0.55180    0.50920    1.000
    C142     C        0.89450    0.73194    0.21320    1.000
    C143     C        0.82640    0.76086    0.13260    1.000
    H95      H        0.81290    0.79830    0.14900    1.000
    C144     C        0.78370    0.73669    0.03900    1.000
    H96      H        0.79820    0.69970    0.02230    1.000
    Cu7      Cu       0.49585    0.23665    0.05696    1.000
    N19      N        0.46740    0.32245    0.04490    1.000
    N20      N        0.40514    0.23287    0.91590    1.000
    N21      N        0.57436    0.06466    0.30450    1.000
    O25      O        0.51142    0.15206    0.06520    1.000
    O26      O        0.62055    0.15281    0.04070    1.000
    O27      O        0.57906    0.25379    0.19370    1.000
    O28      O        0.57967    0.18831    0.31850    1.000
    C145     C        0.50110    0.36635    0.11110    1.000
    H97      H        0.54170    0.35800    0.17750    1.000
    C146     C        0.47870    0.42430    0.08590    1.000
    H98      H        0.50330    0.45440    0.13530    1.000
    C147     C        0.42130    0.43750    0.99010    1.000
    H99      H        0.40600    0.47670    0.97310    1.000
    C148     C        0.38470    0.39270    0.91650    1.000
    C149     C        0.32400    0.40030    0.81340    1.000
    H100     H        0.30580    0.43850    0.79110    1.000
    C150     C        0.29210    0.35570    0.74740    1.000
    H101     H        0.25260    0.36310    0.67960    1.000
    C151     C        0.31670    0.29620    0.77740    1.000
    C152     C        0.28620    0.24610    0.71440    1.000
    H102     H        0.24680    0.25010    0.64530    1.000
    C153     C        0.31330    0.19200    0.75270    1.000
    H103     H        0.29180    0.15830    0.71140    1.000
    C154     C        0.37350    0.18690    0.85420    1.000
    H104     H        0.39230    0.14920    0.87980    1.000
    C155     C        0.37680    0.28700    0.87890    1.000
    C156     C        0.41010    0.33507    0.94860    1.000
    C157     C        0.64910    0.06625    0.36130    1.000
    H105     H        0.67370    0.10280    0.37870    1.000
    C158     C        0.69200    0.01510    0.39600    1.000
    H106     H        0.74480    0.01770    0.43680    1.000
    C159     C        0.65850    0.96180    0.37140    1.000
    H107     H        0.68750    0.92750    0.39530    1.000
    C160     C        0.58010    0.95828    0.30990    1.000
    C161     C        0.53790    0.90420    0.27880    1.000
    H108     H        0.56370    0.86820    0.29900    1.000
    C162     C        0.54040    0.01128    0.27950    1.000
    C163     C        0.56780    0.12712    0.05220    1.000
    C164     C        0.56570    0.06222    0.04720    1.000
    H109     H        0.61220    0.04170    0.07290    1.000
    C165     C        0.50170    0.03148    0.00850    1.000
    H110     H        0.45550    0.05180    0.99080    1.000
    C166     C        0.60550    0.23194    0.28680    1.000
    C167     C        0.67360    0.26086    0.36740    1.000
    H111     H        0.68710    0.29830    0.35100    1.000
    C168     C        0.71630    0.23669    0.46100    1.000
    H112     H        0.70180    0.19970    0.47770    1.000
    Cu8      Cu       0.99585    0.73665    0.05696    1.000
    N22      N        0.96740    0.82245    0.04490    1.000
    N23      N        0.90514    0.73287    0.91590    1.000
    N24      N        0.07436    0.56466    0.30450    1.000
    O29      O        0.01142    0.65206    0.06520    1.000
    O30      O        0.12055    0.65281    0.04070    1.000
    O31      O        0.07906    0.75379    0.19370    1.000
    O32      O        0.07967    0.68831    0.31850    1.000
    C169     C        0.00110    0.86635    0.11110    1.000
    H113     H        0.04170    0.85800    0.17750    1.000
    C170     C        0.97870    0.92430    0.08590    1.000
    H114     H        0.00330    0.95440    0.13530    1.000
    C171     C        0.92130    0.93750    0.99010    1.000
    H115     H        0.90600    0.97670    0.97310    1.000
    C172     C        0.88470    0.89270    0.91650    1.000
    C173     C        0.82400    0.90030    0.81340    1.000
    H116     H        0.80580    0.93850    0.79110    1.000
    C174     C        0.79210    0.85570    0.74740    1.000
    H117     H        0.75260    0.86310    0.67960    1.000
    C175     C        0.81670    0.79620    0.77740    1.000
    C176     C        0.78620    0.74610    0.71440    1.000
    H118     H        0.74680    0.75010    0.64530    1.000
    C177     C        0.81330    0.69200    0.75270    1.000
    H119     H        0.79180    0.65830    0.71140    1.000
    C178     C        0.87350    0.68690    0.85420    1.000
    H120     H        0.89230    0.64920    0.87980    1.000
    C179     C        0.87680    0.78700    0.87890    1.000
    C180     C        0.91010    0.83507    0.94860    1.000
    C181     C        0.14910    0.56625    0.36130    1.000
    H121     H        0.17370    0.60280    0.37870    1.000
    C182     C        0.19200    0.51510    0.39600    1.000
    H122     H        0.24480    0.51770    0.43680    1.000
    C183     C        0.15850    0.46180    0.37140    1.000
    H123     H        0.18750    0.42750    0.39530    1.000
    C184     C        0.08010    0.45828    0.30990    1.000
    C185     C        0.03790    0.40420    0.27880    1.000
    H124     H        0.06370    0.36820    0.29900    1.000
    C186     C        0.04040    0.51128    0.27950    1.000
    C187     C        0.06780    0.62712    0.05220    1.000
    C188     C        0.06570    0.56222    0.04720    1.000
    H125     H        0.11220    0.54170    0.07290    1.000
    C189     C        0.00170    0.53148    0.00850    1.000
    H126     H        0.95550    0.55180    0.99080    1.000
    C190     C        0.10550    0.73194    0.28680    1.000
    C191     C        0.17360    0.76086    0.36740    1.000
    H127     H        0.18710    0.79830    0.35100    1.000
    C192     C        0.21630    0.73669    0.46100    1.000
    H128     H        0.20180    0.69970    0.47770    1.000
    Cu9      Cu       0.50000    0.86874    0.75000    1.000
    Cu10     Cu       0.00000    0.36874    0.75000    1.000
    Cu11     Cu       0.50000    0.13126    0.25000    1.000
    Cu12     Cu       0.00000    0.63126    0.25000    1.000
