data_functionalizedCrystal
_audit_creation_method	'EQeq! by Chris Wilmer'
_symmetry_space_group_name_H-M	'P1'
_symmetry_Int_Tables_number	1
_symmetry_cell_setting	triclinic
loop_
_symmetry_equiv_pos_as_xyz
  x,y,z
_cell_length_a	15.5863
_cell_length_b	15.5863
_cell_length_c	15.5863
_cell_angle_alpha	90
_cell_angle_beta	90
_cell_angle_gamma	90
loop_
_atom_site_label
_atom_site_type_symbol
_atom_site_fract_x
_atom_site_fract_y
_atom_site_fract_z
_atom_site_charge
Mof_O 	O 	0.12292	0.01071	0.36103	-0.273
Mof_O 	O 	0.62292	0.51071	0.86103	-0.273
Mof_O 	O 	0.37708	0.98929	0.86103	-0.274
Mof_O 	O 	0.87708	0.48929	0.36103	-0.273
Mof_O 	O 	0.87708	0.51071	0.13897	-0.273
Mof_O 	O 	0.37708	0.01071	0.63897	-0.273
Mof_O 	O 	0.62292	0.48929	0.63897	-0.273
Mof_O 	O 	0.12292	0.98929	0.13897	-0.273
Mof_O 	O 	0.36103	0.12292	0.01071	-0.273
Mof_O 	O 	0.86103	0.62292	0.51071	-0.273
Mof_O 	O 	0.86103	0.37708	0.98929	-0.274
Mof_O 	O 	0.36103	0.87708	0.48929	-0.273
Mof_O 	O 	0.13897	0.87708	0.51071	-0.273
Mof_O 	O 	0.63897	0.37708	0.01071	-0.273
Mof_O 	O 	0.63897	0.62292	0.48929	-0.273
Mof_O 	O 	0.13897	0.12292	0.98929	-0.273
Mof_O 	O 	0.01071	0.36103	0.12292	-0.272
Mof_O 	O 	0.51071	0.86103	0.62292	-0.272
Mof_O 	O 	0.98929	0.86103	0.37708	-0.273
Mof_O 	O 	0.48929	0.36103	0.87708	-0.272
Mof_O 	O 	0.51071	0.13897	0.87708	-0.272
Mof_O 	O 	0.01071	0.63897	0.37708	-0.272
Mof_O 	O 	0.48929	0.63897	0.62292	-0.272
Mof_O 	O 	0.98929	0.13897	0.12292	-0.272
Mof_O 	O 	0.76071	0.37292	0.88897	-0.272
Mof_O 	O 	0.26071	0.87292	0.38897	-0.272
Mof_O 	O 	0.73929	0.62708	0.38897	-0.272
Mof_O 	O 	0.23929	0.12708	0.88897	-0.272
Mof_O 	O 	0.26071	0.12708	0.11103	-0.272
Mof_O 	O 	0.76071	0.62708	0.61103	-0.272
Mof_O 	O 	0.23929	0.87292	0.61103	-0.272
Mof_O 	O 	0.73929	0.37292	0.11103	-0.272
Mof_O 	O 	0.87292	0.61103	0.23929	-0.272
Mof_O 	O 	0.37292	0.11103	0.73929	-0.272
Mof_O 	O 	0.12708	0.11103	0.26071	-0.272
Mof_O 	O 	0.62708	0.61103	0.76071	-0.272
Mof_O 	O 	0.62708	0.38897	0.73929	-0.272
Mof_O 	O 	0.12708	0.88897	0.23929	-0.272
Mof_O 	O 	0.37292	0.88897	0.76071	-0.272
Mof_O 	O 	0.87292	0.38897	0.26071	-0.272
Mof_O 	O 	0.11103	0.26071	0.12708	-0.272
Mof_O 	O 	0.61103	0.76071	0.62708	-0.272
Mof_O 	O 	0.61103	0.23929	0.87292	-0.272
Mof_O 	O 	0.11103	0.73929	0.37292	-0.272
Mof_O 	O 	0.88897	0.76071	0.37292	-0.272
Mof_O 	O 	0.38897	0.26071	0.87292	-0.272
Mof_O 	O 	0.38897	0.73929	0.62708	-0.272
Mof_O 	O 	0.88897	0.23929	0.12708	-0.272
Mof_Fe	Fe	0.125	0.875	0.375	0.876
Mof_Fe	Fe	0.375	0.125	0.875	0.876
Mof_Fe	Fe	0.875	0.375	0.125	0.876
Mof_Fe	Fe	0.375	0.875	0.625	0.876
Mof_Fe	Fe	0.625	0.625	0.625	0.876
Mof_Fe	Fe	0.875	0.625	0.375	0.876
Mof_Fe	Fe	0.625	0.375	0.875	0.876
Mof_Fe	Fe	0.125	0.125	0.125	0.877
Mof_C 	C 	0.125	0.03543	0.28543	0.253
Mof_C 	C 	0.625	0.53543	0.78543	0.253
Mof_C 	C 	0.375	0.96457	0.78543	0.252
Mof_C 	C 	0.875	0.46457	0.28543	0.253
Mof_C 	C 	0.875	0.53543	0.21457	0.253
Mof_C 	C 	0.375	0.03543	0.71457	0.253
Mof_C 	C 	0.625	0.46457	0.71457	0.253
Mof_C 	C 	0.125	0.96457	0.21457	0.252
Mof_C 	C 	0.28543	0.125	0.03543	0.253
Mof_C 	C 	0.78543	0.625	0.53543	0.253
Mof_C 	C 	0.78543	0.375	0.96457	0.252
Mof_C 	C 	0.28543	0.875	0.46457	0.253
Mof_C 	C 	0.21457	0.875	0.53543	0.253
Mof_C 	C 	0.71457	0.375	0.03543	0.253
Mof_C 	C 	0.71457	0.625	0.46457	0.253
Mof_C 	C 	0.21457	0.125	0.96457	0.252
Mof_C 	C 	0.03543	0.28543	0.125	0.253
Mof_C 	C 	0.53543	0.78543	0.625	0.253
Mof_C 	C 	0.96457	0.78543	0.375	0.252
Mof_C 	C 	0.46457	0.28543	0.875	0.253
Mof_C 	C 	0.53543	0.21457	0.875	0.253
Mof_C 	C 	0.03543	0.71457	0.375	0.253
Mof_C 	C 	0.46457	0.71457	0.625	0.253
Mof_C 	C 	0.96457	0.21457	0.125	0.252
_end
