data_functionalizedCrystal
_audit_creation_method	'EQeq! by Chris Wilmer'
_symmetry_space_group_name_H-M	'P1'
_symmetry_Int_Tables_number	1
_symmetry_cell_setting	triclinic
loop_
_symmetry_equiv_pos_as_xyz
  x,y,z
_cell_length_a	53.965
_cell_length_b	12.9968
_cell_length_c	21.607
_cell_angle_alpha	90
_cell_angle_beta	107.366
_cell_angle_gamma	90
loop_
_atom_site_label
_atom_site_type_symbol
_atom_site_fract_x
_atom_site_fract_y
_atom_site_fract_z
_atom_site_charge
Mof_Cd	Cd	0.12505	0.46517	0.30894	0.487
Mof_Cd	Cd	0.17366	0.29698	0.45032	0.452
Mof_Cd	Cd	0.07503	0.6042	0.15635	0.459
Mof_O 	O 	0.15534	0.452	0.4143	-0.32
Mof_O 	O 	0.19095	0.4825	0.492	-0.292
Mof_O 	O 	0.12171	0.611	0.4052	-0.321
Mof_O 	O 	0.09986	0.6183	0.2778	-0.305
Mof_O 	O 	0.05947	0.6673	0.2393	-0.313
Mof_O 	O 	0.14115	0.2947	0.312	-0.306
Mof_O 	O 	0.14326	0.1914	0.395	-0.307
Mof_O 	O 	0.10606	0.2477	0.1966	-0.3
Mof_O 	O 	0.10024	0.4561	0.1958	-0.296
Mof_O 	O 	0.09964	0.5062	0.0978	-0.299
Mof_O 	O 	0.17166	0.2653	0.5487	-0.309
Mof_O 	O 	0.18728	0.1214	0.5242	-0.311
Mof_O 	O 	0.13029	0.1617	0.5855	-0.315
Mof_O 	O 	0.09585	0.2468	0.6467	-0.307
Mof_O 	O 	0.05926	0.2647	0.5698	-0.296
Mof_N 	N 	0.09083	0.393	0.331	-0.189
Mof_N 	N 	0.06707	0.2869	0.369	-0.155
Mof_N 	N 	0.99506	0.4078	0.4234	-0.152
Mof_N 	N 	0.96055	0.5082	0.3926	-0.187
Mof_N 	N 	0.25582	0.7126	0.0969	-0.16
Mof_N 	N 	0.28904	0.7782	0.0715	-0.195
Mof_C 	C 	0.0883	0.3504	0.3849	0.358
Mof_C 	C 	0.05621	0.292	0.3025	-0.015
Mof_H 	H 	0.0415	0.2572	0.278	0.038
Mof_C 	C 	0.07084	0.3565	0.2802	0.01
Mof_H 	H 	0.0679	0.374	0.2368	0.046
Mof_C 	C 	0.10463	0.3659	0.4525	-0.978
Mof_H 	H 	0.1107	0.3004	0.4718	0.343
Mof_H 	H 	0.0946	0.3988	0.4768	0.339
Mof_H 	H 	0.1192	0.4084	0.453	0.349
Mof_C 	C 	0.05975	0.2165	0.4128	-0.108
Mof_H 	H 	0.0624	0.2502	0.4543	0.073
Mof_H 	H 	0.071	0.1568	0.4198	0.072
Mof_C 	C 	0.03246	0.1823	0.388	0.038
Mof_C 	C 	0.02649	0.086	0.3587	-0.089
Mof_H 	H 	0.0399	0.0426	0.3568	0.063
Mof_C 	C 	0.00162	0.054	0.333	-0.012
Mof_H 	H 	0.9983	0.9896	0.3136	0.033
Mof_C 	C 	0.98176	0.1142	0.3352	-0.043
Mof_H 	H 	0.9648	0.0916	0.3171	0.048
Mof_C 	C 	0.98645	0.2109	0.3646	-0.068
Mof_H 	H 	0.9726	0.2518	0.3671	0.062
Mof_C 	C 	0.01193	0.2461	0.3902	0.021
Mof_C 	C 	0.01786	0.3498	0.4221	-0.095
Mof_H 	H 	0.0289	0.3403	0.4662	0.079
Mof_H 	H 	0.0275	0.3899	0.3992	0.058
Mof_C 	C 	0.98121	0.4744	0.3779	0.321
Mof_C 	C 	0.96091	0.4593	0.449	0.013
Mof_H 	H 	0.9484	0.4676	0.4704	0.035
Mof_C 	C 	0.98189	0.3974	0.4692	-0.01
Mof_H 	H 	0.9865	0.3564	0.5061	0.038
Mof_C 	C 	0.98869	0.5051	0.3195	-0.863
Mof_H 	H 	0.9772	0.5582	0.2966	0.298
Mof_H 	H 	0.9874	0.4465	0.2916	0.276
Mof_H 	H 	0.0062	0.5301	0.3326	0.282
Mof_N 	N 	0.15248	0.552	0.2689	-0.116
Mof_C 	C 	0.17424	0.5046	0.2562	0.069
Mof_N 	N 	0.18125	0.5654	0.2094	-0.176
Mof_C 	C 	0.16381	0.6503	0.1932	-0.301
Mof_H 	H 	0.1641	0.7007	0.1622	0.14
Mof_C 	C 	0.1467	0.6408	0.2351	-0.013
Mof_H 	H 	0.1329	0.6877	0.2339	0.176
Mof_C 	C 	0.1884	0.4084	0.2786	-0.036
Mof_H 	H 	0.2025	0.3947	0.2611	0.164
Mof_H 	H 	0.1951	0.4157	0.3248	0.082
Mof_H 	H 	0.1763	0.3524	0.2683	0.082
Mof_C 	C 	0.20062	0.5728	0.182	-0.066
Mof_H 	H 	0.194	0.6054	0.1405	0.075
Mof_H 	H 	0.206	0.5047	0.1748	0.062
Mof_C 	C 	0.22404	0.6319	0.2214	0.026
Mof_C 	C 	0.22653	0.6578	0.2858	-0.077
Mof_H 	H 	0.2138	0.6378	0.3045	0.069
Mof_C 	C 	0.24687	0.7105	0.3201	-0.016
Mof_H 	H 	0.2479	0.7287	0.3624	0.031
Mof_C 	C 	0.26675	0.7399	0.2956	-0.045
Mof_H 	H 	0.2816	0.7723	0.3216	0.041
Mof_C 	C 	0.26379	0.7197	0.2322	-0.059
Mof_H 	H 	0.2765	0.7414	0.214	0.047
Mof_C 	C 	0.24253	0.6681	0.1943	0.014
Mof_C 	C 	0.23942	0.6481	0.123	-0.085
Mof_H 	H 	0.2434	0.5766	0.1176	0.051
Mof_H 	H 	0.2214	0.6596	0.0982	0.074
Mof_C 	C 	0.27961	0.6973	0.0938	0.333
Mof_C 	C 	0.26934	0.8522	0.06	0.004
Mof_H 	H 	0.2701	0.918	0.0438	0.041
Mof_C 	C 	0.24951	0.8136	0.0759	-0.014
Mof_H 	H 	0.2341	0.8475	0.0736	0.052
Mof_C 	C 	0.29423	0.5993	0.1105	-0.875
Mof_H 	H 	0.3004	0.5784	0.0751	0.307
Mof_H 	H 	0.283	0.5471	0.1188	0.286
Mof_H 	H 	0.3088	0.6091	0.1486	0.289
Mof_C 	C 	0.1717	0.5153	0.4501	0.367
Mof_C 	C 	0.16756	0.6273	0.4418	-0.223
Mof_C 	C 	0.18966	0.6915	0.4612	0.113
Mof_H 	H 	0.2061	0.6622	0.4755	-0.003
Mof_C 	C 	0.187	0.8028	0.4593	-0.214
Mof_H 	H 	0.2013	0.8461	0.4741	0.101
Mof_C 	C 	0.16257	0.8402	0.4348	0.17
Mof_H 	H 	0.1605	0.9112	0.4311	-0.027
Mof_C 	C 	0.14074	0.7811	0.4153	-0.295
Mof_H 	H 	0.1245	0.8113	0.3985	0.139
Mof_C 	C 	0.14324	0.675	0.4209	0.291
Mof_C 	C 	0.0983	0.6491	0.4086	0.337
Mof_C 	C 	0.09541	0.6625	0.4687	-0.364
Mof_H 	H 	0.1094	0.6499	0.5053	0.172
Mof_C 	C 	0.07243	0.694	0.4759	0.245
Mof_H 	H 	0.0709	0.7036	0.5173	-0.053
Mof_C 	C 	0.05162	0.7114	0.4229	-0.3
Mof_H 	H 	0.0359	0.7339	0.4275	0.129
Mof_C 	C 	0.05439	0.6948	0.3621	0.191
Mof_H 	H 	0.0401	0.7044	0.3257	-0.034
Mof_C 	C 	0.07782	0.6642	0.3534	-0.282
Mof_C 	C 	0.07946	0.6487	0.2868	0.385
Mof_C 	C 	0.13504	0.2164	0.3354	0.369
Mof_C 	C 	0.11652	0.1399	0.2925	-0.234
Mof_C 	C 	0.11068	0.0483	0.3192	0.146
Mof_H 	H 	0.118	0.0363	0.3634	-0.007
Mof_C 	C 	0.09434	0.9749	0.2816	-0.244
Mof_H 	H 	0.0907	0.9147	0.3006	0.117
Mof_C 	C 	0.08386	0.9907	0.2183	0.18
Mof_H 	H 	0.0731	0.9408	0.1931	-0.025
Mof_C 	C 	0.08873	0.0809	0.189	-0.292
Mof_H 	H 	0.0813	0.0917	0.1447	0.144
Mof_C 	C 	0.10496	0.1547	0.2275	0.29
Mof_C 	C 	0.12547	0.2658	0.1697	0.316
Mof_C 	C 	0.14293	0.1909	0.1646	-0.327
Mof_H 	H 	0.1424	0.1261	0.1824	0.15
Mof_C 	C 	0.16104	0.2119	0.1333	0.21
Mof_H 	H 	0.1724	0.1604	0.1294	-0.043
Mof_C 	C 	0.16266	0.3057	0.1082	-0.265
Mof_H 	H 	0.1756	0.3202	0.0891	0.127
Mof_C 	C 	0.14452	0.3809	0.1114	0.166
Mof_H 	H 	0.1449	0.4443	0.0918	-0.015
Mof_C 	C 	0.12634	0.3639	0.1424	-0.241
Mof_C 	C 	0.10751	0.4462	0.1454	0.368
Mof_C 	C 	0.17835	0.1725	0.5594	0.399
Mof_C 	C 	0.17566	0.1282	0.6214	-0.264
Mof_C 	C 	0.19694	0.0928	0.6685	0.185
Mof_H 	H 	0.2132	0.0934	0.6617	-0.027
Mof_C 	C 	0.19435	0.0562	0.7262	-0.266
Mof_H 	H 	0.2089	0.0315	0.7579	0.115
Mof_C 	C 	0.17071	0.0556	0.7374	0.2
Mof_H 	H 	0.1694	0.0333	0.7772	-0.052
Mof_C 	C 	0.14876	0.0881	0.6899	-0.332
Mof_H 	H 	0.1325	0.0861	0.6966	0.159
Mof_C 	C 	0.15167	0.1235	0.6324	0.312
Mof_C 	C 	0.10987	0.0947	0.5608	0.318
Mof_C 	C 	0.11417	0.0062	0.5313	-0.338
Mof_H 	H 	0.1308	0.9895	0.5305	0.161
Mof_C 	C 	0.09362	0.9422	0.5029	0.219
Mof_H 	H 	0.0963	0.8826	0.482	-0.046
Mof_C 	C 	0.06932	0.966	0.5053	-0.282
Mof_H 	H 	0.0555	0.9219	0.4869	0.127
Mof_C 	C 	0.06525	0.0545	0.5347	0.183
Mof_H 	H 	0.0485	0.0704	0.5355	-0.023
Mof_C 	C 	0.08537	0.1211	0.5632	-0.261
Mof_C 	C 	0.08025	0.2179	0.5963	0.382
Mof_N 	N 	0.1599	0.4975	0.2749	-0.116
Mof_C 	C 	0.1668	0.5516	0.2407	0.209
Mof_C 	C 	0.1971	0.4445	0.2554	-0.179
Mof_H 	H 	0.2121	0.4072	0.2532	-0.028
Mof_N 	N 	0.1845	0.54	0.2186	0.064
Mof_C 	C 	0.1818	0.4149	0.2882	-0.119
Mof_H 	H 	0.1837	0.3578	0.3174	0.029
Mof_C 	C 	0.1501	0.6449	0.2119	0.072
Mof_H 	H 	0.136	0.657	0.2297	-0.144
Mof_H 	H 	0.1619	0.702	0.2219	0.102
Mof_H 	H 	0.1433	0.6373	0.1657	0.09
Mof_Cd	Cd	0.62505	0.96517	0.30894	0.486
Mof_Cd	Cd	0.67366	0.79698	0.45032	0.452
Mof_Cd	Cd	0.57503	0.1042	0.15635	0.459
Mof_O 	O 	0.65534	0.952	0.4143	-0.32
Mof_O 	O 	0.69095	0.9825	0.492	-0.292
Mof_O 	O 	0.62171	0.111	0.4052	-0.321
Mof_O 	O 	0.59986	0.1183	0.2778	-0.304
Mof_O 	O 	0.55947	0.1673	0.2393	-0.313
Mof_O 	O 	0.64115	0.7947	0.312	-0.306
Mof_O 	O 	0.64326	0.6914	0.395	-0.307
Mof_O 	O 	0.60606	0.7477	0.1966	-0.3
Mof_O 	O 	0.60024	0.9561	0.1958	-0.296
Mof_O 	O 	0.59964	0.0062	0.0978	-0.299
Mof_O 	O 	0.67166	0.7653	0.5487	-0.309
Mof_O 	O 	0.68728	0.6214	0.5242	-0.311
Mof_O 	O 	0.63029	0.6617	0.5855	-0.315
Mof_O 	O 	0.59585	0.7468	0.6467	-0.307
Mof_O 	O 	0.55926	0.7647	0.5698	-0.296
Mof_N 	N 	0.59083	0.893	0.331	-0.189
Mof_N 	N 	0.56707	0.7869	0.369	-0.155
Mof_N 	N 	0.49506	0.9078	0.4234	-0.152
Mof_N 	N 	0.46055	0.0082	0.3926	-0.187
Mof_N 	N 	0.75582	0.2126	0.0969	-0.16
Mof_N 	N 	0.78904	0.2782	0.0715	-0.195
Mof_C 	C 	0.5883	0.8504	0.3849	0.358
Mof_C 	C 	0.55621	0.792	0.3025	-0.015
Mof_H 	H 	0.5415	0.7572	0.278	0.038
Mof_C 	C 	0.57084	0.8565	0.2802	0.01
Mof_H 	H 	0.5679	0.874	0.2368	0.046
Mof_C 	C 	0.60463	0.8659	0.4525	-0.978
Mof_H 	H 	0.6107	0.8004	0.4718	0.343
Mof_H 	H 	0.5946	0.8988	0.4768	0.339
Mof_H 	H 	0.6192	0.9084	0.453	0.349
Mof_C 	C 	0.55975	0.7165	0.4128	-0.107
Mof_H 	H 	0.5624	0.7502	0.4543	0.073
Mof_H 	H 	0.571	0.6568	0.4198	0.072
Mof_C 	C 	0.53246	0.6823	0.388	0.038
Mof_C 	C 	0.52649	0.586	0.3587	-0.089
Mof_H 	H 	0.5399	0.5426	0.3568	0.063
Mof_C 	C 	0.50162	0.554	0.333	-0.013
Mof_H 	H 	0.4983	0.4896	0.3136	0.034
Mof_C 	C 	0.48176	0.6142	0.3352	-0.042
Mof_H 	H 	0.4648	0.5916	0.3171	0.048
Mof_C 	C 	0.48645	0.7109	0.3646	-0.068
Mof_H 	H 	0.4726	0.7518	0.3671	0.062
Mof_C 	C 	0.51193	0.7461	0.3902	0.021
Mof_C 	C 	0.51786	0.8498	0.4221	-0.095
Mof_H 	H 	0.5289	0.8403	0.4662	0.079
Mof_H 	H 	0.5275	0.8899	0.3992	0.058
Mof_C 	C 	0.48121	0.9744	0.3779	0.32
Mof_C 	C 	0.46091	0.9593	0.449	0.013
Mof_H 	H 	0.4484	0.9676	0.4704	0.035
Mof_C 	C 	0.48189	0.8974	0.4692	-0.01
Mof_H 	H 	0.4865	0.8564	0.5061	0.038
Mof_C 	C 	0.48869	0.0051	0.3195	-0.861
Mof_H 	H 	0.4772	0.0582	0.2966	0.297
Mof_H 	H 	0.4874	0.9465	0.2916	0.275
Mof_H 	H 	0.5062	0.0301	0.3326	0.282
Mof_N 	N 	0.65248	0.052	0.2689	-0.116
Mof_C 	C 	0.67424	0.0046	0.2562	0.068
Mof_N 	N 	0.68125	0.0654	0.2094	-0.176
Mof_C 	C 	0.66381	0.1503	0.1932	-0.302
Mof_H 	H 	0.6641	0.2007	0.1622	0.141
Mof_C 	C 	0.6467	0.1408	0.2351	-0.013
Mof_H 	H 	0.6329	0.1877	0.2339	0.176
Mof_C 	C 	0.6884	0.9084	0.2786	-0.035
Mof_H 	H 	0.7025	0.8947	0.2611	0.164
Mof_H 	H 	0.6951	0.9157	0.3248	0.082
Mof_H 	H 	0.6763	0.8524	0.2683	0.082
Mof_C 	C 	0.70062	0.0728	0.182	-0.066
Mof_H 	H 	0.694	0.1054	0.1405	0.075
Mof_H 	H 	0.706	0.0047	0.1748	0.062
Mof_C 	C 	0.72404	0.1319	0.2214	0.026
Mof_C 	C 	0.72653	0.1578	0.2858	-0.077
Mof_H 	H 	0.7138	0.1378	0.3045	0.069
Mof_C 	C 	0.74687	0.2105	0.3201	-0.016
Mof_H 	H 	0.7479	0.2287	0.3624	0.031
Mof_C 	C 	0.76675	0.2399	0.2956	-0.045
Mof_H 	H 	0.7816	0.2723	0.3216	0.041
Mof_C 	C 	0.76379	0.2197	0.2322	-0.059
Mof_H 	H 	0.7765	0.2414	0.214	0.047
Mof_C 	C 	0.74253	0.1681	0.1943	0.014
Mof_C 	C 	0.73942	0.1481	0.123	-0.085
Mof_H 	H 	0.7434	0.0766	0.1176	0.051
Mof_H 	H 	0.7214	0.1596	0.0982	0.074
Mof_C 	C 	0.77961	0.1973	0.0938	0.333
Mof_C 	C 	0.76934	0.3522	0.06	0.004
Mof_H 	H 	0.7701	0.418	0.0438	0.041
Mof_C 	C 	0.74951	0.3136	0.0759	-0.013
Mof_H 	H 	0.7341	0.3475	0.0736	0.052
Mof_C 	C 	0.79423	0.0993	0.1105	-0.876
Mof_H 	H 	0.8004	0.0784	0.0751	0.307
Mof_H 	H 	0.783	0.0471	0.1188	0.286
Mof_H 	H 	0.8088	0.1091	0.1486	0.29
Mof_C 	C 	0.6717	0.0153	0.4501	0.367
Mof_C 	C 	0.66756	0.1273	0.4418	-0.223
Mof_C 	C 	0.68966	0.1915	0.4612	0.113
Mof_H 	H 	0.7061	0.1622	0.4755	-0.003
Mof_C 	C 	0.687	0.3028	0.4593	-0.214
Mof_H 	H 	0.7013	0.3461	0.4741	0.101
Mof_C 	C 	0.66257	0.3402	0.4348	0.17
Mof_H 	H 	0.6605	0.4112	0.4311	-0.027
Mof_C 	C 	0.64074	0.2811	0.4153	-0.295
Mof_H 	H 	0.6245	0.3113	0.3985	0.139
Mof_C 	C 	0.64324	0.175	0.4209	0.291
Mof_C 	C 	0.5983	0.1491	0.4086	0.337
Mof_C 	C 	0.59541	0.1625	0.4687	-0.364
Mof_H 	H 	0.6094	0.1499	0.5053	0.172
Mof_C 	C 	0.57243	0.194	0.4759	0.245
Mof_H 	H 	0.5709	0.2036	0.5173	-0.053
Mof_C 	C 	0.55162	0.2114	0.4229	-0.3
Mof_H 	H 	0.5359	0.2339	0.4275	0.129
Mof_C 	C 	0.55439	0.1948	0.3621	0.191
Mof_H 	H 	0.5401	0.2044	0.3257	-0.034
Mof_C 	C 	0.57782	0.1642	0.3534	-0.282
Mof_C 	C 	0.57946	0.1487	0.2868	0.385
Mof_C 	C 	0.63504	0.7164	0.3354	0.369
Mof_C 	C 	0.61652	0.6399	0.2925	-0.234
Mof_C 	C 	0.61068	0.5483	0.3192	0.146
Mof_H 	H 	0.618	0.5363	0.3634	-0.007
Mof_C 	C 	0.59434	0.4749	0.2816	-0.244
Mof_H 	H 	0.5907	0.4147	0.3006	0.118
Mof_C 	C 	0.58386	0.4907	0.2183	0.18
Mof_H 	H 	0.5731	0.4408	0.1931	-0.025
Mof_C 	C 	0.58873	0.5809	0.189	-0.292
Mof_H 	H 	0.5813	0.5917	0.1447	0.144
Mof_C 	C 	0.60496	0.6547	0.2275	0.29
Mof_C 	C 	0.62547	0.7658	0.1697	0.316
Mof_C 	C 	0.64293	0.6909	0.1646	-0.326
Mof_H 	H 	0.6424	0.6261	0.1824	0.15
Mof_C 	C 	0.66104	0.7119	0.1333	0.21
Mof_H 	H 	0.6724	0.6604	0.1294	-0.043
Mof_C 	C 	0.66266	0.8057	0.1082	-0.265
Mof_H 	H 	0.6756	0.8202	0.0891	0.127
Mof_C 	C 	0.64452	0.8809	0.1114	0.165
Mof_H 	H 	0.6449	0.9443	0.0918	-0.015
Mof_C 	C 	0.62634	0.8639	0.1424	-0.241
Mof_C 	C 	0.60751	0.9462	0.1454	0.367
Mof_C 	C 	0.67835	0.6725	0.5594	0.399
Mof_C 	C 	0.67566	0.6282	0.6214	-0.264
Mof_C 	C 	0.69694	0.5928	0.6685	0.185
Mof_H 	H 	0.7132	0.5934	0.6617	-0.027
Mof_C 	C 	0.69435	0.5562	0.7262	-0.266
Mof_H 	H 	0.7089	0.5315	0.7579	0.115
Mof_C 	C 	0.67071	0.5556	0.7374	0.2
Mof_H 	H 	0.6694	0.5333	0.7772	-0.052
Mof_C 	C 	0.64876	0.5881	0.6899	-0.332
Mof_H 	H 	0.6325	0.5861	0.6966	0.159
Mof_C 	C 	0.65167	0.6235	0.6324	0.312
Mof_C 	C 	0.60987	0.5947	0.5608	0.318
Mof_C 	C 	0.61417	0.5062	0.5313	-0.337
Mof_H 	H 	0.6308	0.4895	0.5305	0.161
Mof_C 	C 	0.59362	0.4422	0.5029	0.219
Mof_H 	H 	0.5963	0.3826	0.482	-0.046
Mof_C 	C 	0.56932	0.466	0.5053	-0.282
Mof_H 	H 	0.5555	0.4219	0.4869	0.127
Mof_C 	C 	0.56525	0.5545	0.5347	0.183
Mof_H 	H 	0.5485	0.5704	0.5355	-0.023
Mof_C 	C 	0.58537	0.6211	0.5632	-0.261
Mof_C 	C 	0.58025	0.7179	0.5963	0.382
Mof_N 	N 	0.6599	0.9975	0.2749	-0.116
Mof_C 	C 	0.6668	0.0516	0.2407	0.211
Mof_C 	C 	0.6971	0.9445	0.2554	-0.179
Mof_H 	H 	0.7121	0.9072	0.2532	-0.028
Mof_N 	N 	0.6845	0.04	0.2186	0.064
Mof_C 	C 	0.6818	0.9149	0.2882	-0.118
Mof_H 	H 	0.6837	0.8578	0.3174	0.029
Mof_C 	C 	0.6501	0.1449	0.2119	0.072
Mof_H 	H 	0.636	0.157	0.2297	-0.144
Mof_H 	H 	0.6619	0.202	0.2219	0.102
Mof_H 	H 	0.6433	0.1373	0.1657	0.09
Mof_Cd	Cd	0.87495	0.46517	0.19106	0.487
Mof_Cd	Cd	0.82634	0.29698	0.04968	0.452
Mof_Cd	Cd	0.92497	0.6042	0.34365	0.459
Mof_O 	O 	0.84466	0.452	0.0857	-0.32
Mof_O 	O 	0.80905	0.4825	0.008	-0.292
Mof_O 	O 	0.87829	0.611	0.0948	-0.321
Mof_O 	O 	0.90014	0.6183	0.2222	-0.305
Mof_O 	O 	0.94053	0.6673	0.2607	-0.313
Mof_O 	O 	0.85885	0.2947	0.188	-0.306
Mof_O 	O 	0.85674	0.1914	0.105	-0.307
Mof_O 	O 	0.89394	0.2477	0.3034	-0.3
Mof_O 	O 	0.89976	0.4561	0.3042	-0.296
Mof_O 	O 	0.90036	0.5062	0.4022	-0.299
Mof_O 	O 	0.82834	0.2653	0.9513	-0.309
Mof_O 	O 	0.81272	0.1214	0.9758	-0.311
Mof_O 	O 	0.86971	0.1617	0.9145	-0.316
Mof_O 	O 	0.90415	0.2468	0.8533	-0.307
Mof_O 	O 	0.94074	0.2647	0.9302	-0.296
Mof_N 	N 	0.90917	0.393	0.169	-0.189
Mof_N 	N 	0.93293	0.2869	0.131	-0.155
Mof_N 	N 	0.00494	0.4078	0.0766	-0.152
Mof_N 	N 	0.03945	0.5082	0.1074	-0.187
Mof_N 	N 	0.74418	0.7126	0.4031	-0.16
Mof_N 	N 	0.71096	0.7782	0.4285	-0.195
Mof_C 	C 	0.9117	0.3504	0.1151	0.358
Mof_C 	C 	0.94379	0.292	0.1975	-0.015
Mof_H 	H 	0.9585	0.2572	0.222	0.038
Mof_C 	C 	0.92916	0.3565	0.2198	0.01
Mof_H 	H 	0.9321	0.374	0.2632	0.046
Mof_C 	C 	0.89537	0.3659	0.0475	-0.978
Mof_H 	H 	0.8893	0.3004	0.0282	0.343
Mof_H 	H 	0.9054	0.3988	0.0232	0.339
Mof_H 	H 	0.8808	0.4084	0.047	0.349
Mof_C 	C 	0.94025	0.2165	0.0872	-0.108
Mof_H 	H 	0.9376	0.2502	0.0457	0.073
Mof_H 	H 	0.929	0.1568	0.0802	0.073
Mof_C 	C 	0.96754	0.1823	0.112	0.039
Mof_C 	C 	0.97351	0.086	0.1413	-0.09
Mof_H 	H 	0.9601	0.0426	0.1432	0.064
Mof_C 	C 	0.99838	0.054	0.167	-0.011
Mof_H 	H 	0.0017	0.9896	0.1864	0.033
Mof_C 	C 	0.01824	0.1142	0.1648	-0.044
Mof_H 	H 	0.0352	0.0916	0.1829	0.048
Mof_C 	C 	0.01355	0.2109	0.1354	-0.067
Mof_H 	H 	0.0274	0.2518	0.1329	0.062
Mof_C 	C 	0.98807	0.2461	0.1098	0.021
Mof_C 	C 	0.98214	0.3498	0.0779	-0.095
Mof_H 	H 	0.9711	0.3403	0.0338	0.079
Mof_H 	H 	0.9725	0.3899	0.1008	0.058
Mof_C 	C 	0.01879	0.4744	0.1221	0.321
Mof_C 	C 	0.03909	0.4593	0.051	0.013
Mof_H 	H 	0.0516	0.4676	0.0296	0.035
Mof_C 	C 	0.01811	0.3974	0.0308	-0.009
Mof_H 	H 	0.0135	0.3564	0.9939	0.038
Mof_C 	C 	0.01131	0.5051	0.1805	-0.862
Mof_H 	H 	0.0228	0.5582	0.2034	0.298
Mof_H 	H 	0.0126	0.4465	0.2084	0.276
Mof_H 	H 	0.9938	0.5301	0.1674	0.282
Mof_N 	N 	0.84752	0.552	0.2311	-0.116
Mof_C 	C 	0.82576	0.5046	0.2438	0.069
Mof_N 	N 	0.81875	0.5654	0.2906	-0.176
Mof_C 	C 	0.83619	0.6503	0.3068	-0.301
Mof_H 	H 	0.8359	0.7007	0.3378	0.14
Mof_C 	C 	0.8533	0.6408	0.2649	-0.013
Mof_H 	H 	0.8671	0.6877	0.2661	0.176
Mof_C 	C 	0.8116	0.4084	0.2214	-0.035
Mof_H 	H 	0.7975	0.3947	0.2389	0.164
Mof_H 	H 	0.8049	0.4157	0.1752	0.082
Mof_H 	H 	0.8237	0.3524	0.2317	0.082
Mof_C 	C 	0.79938	0.5728	0.318	-0.066
Mof_H 	H 	0.806	0.6054	0.3595	0.075
Mof_H 	H 	0.794	0.5047	0.3252	0.062
Mof_C 	C 	0.77596	0.6319	0.2786	0.026
Mof_C 	C 	0.77347	0.6578	0.2142	-0.077
Mof_H 	H 	0.7862	0.6378	0.1955	0.069
Mof_C 	C 	0.75313	0.7105	0.1799	-0.016
Mof_H 	H 	0.7521	0.7287	0.1376	0.031
Mof_C 	C 	0.73325	0.7399	0.2044	-0.045
Mof_H 	H 	0.7184	0.7723	0.1784	0.041
Mof_C 	C 	0.73621	0.7197	0.2678	-0.059
Mof_H 	H 	0.7235	0.7414	0.286	0.047
Mof_C 	C 	0.75747	0.6681	0.3057	0.014
Mof_C 	C 	0.76058	0.6481	0.377	-0.085
Mof_H 	H 	0.7566	0.5766	0.3824	0.051
Mof_H 	H 	0.7786	0.6596	0.4018	0.074
Mof_C 	C 	0.72039	0.6973	0.4062	0.333
Mof_C 	C 	0.73066	0.8522	0.44	0.004
Mof_H 	H 	0.7299	0.918	0.4562	0.041
Mof_C 	C 	0.75049	0.8136	0.4241	-0.013
Mof_H 	H 	0.7659	0.8475	0.4264	0.052
Mof_C 	C 	0.70577	0.5993	0.3895	-0.875
Mof_H 	H 	0.6996	0.5784	0.4249	0.307
Mof_H 	H 	0.717	0.5471	0.3812	0.286
Mof_H 	H 	0.6912	0.6091	0.3514	0.289
Mof_C 	C 	0.8283	0.5153	0.0499	0.367
Mof_C 	C 	0.83244	0.6273	0.0582	-0.223
Mof_C 	C 	0.81034	0.6915	0.0388	0.113
Mof_H 	H 	0.7939	0.6622	0.0245	-0.003
Mof_C 	C 	0.813	0.8028	0.0407	-0.214
Mof_H 	H 	0.7987	0.8461	0.0259	0.101
Mof_C 	C 	0.83743	0.8402	0.0652	0.17
Mof_H 	H 	0.8395	0.9112	0.0689	-0.027
Mof_C 	C 	0.85926	0.7811	0.0847	-0.295
Mof_H 	H 	0.8755	0.8113	0.1015	0.139
Mof_C 	C 	0.85676	0.675	0.0791	0.291
Mof_C 	C 	0.9017	0.6491	0.0914	0.337
Mof_C 	C 	0.90459	0.6625	0.0313	-0.364
Mof_H 	H 	0.8906	0.6499	0.9947	0.172
Mof_C 	C 	0.92757	0.694	0.0241	0.245
Mof_H 	H 	0.9291	0.7036	0.9827	-0.052
Mof_C 	C 	0.94838	0.7114	0.0771	-0.3
Mof_H 	H 	0.9641	0.7339	0.0725	0.129
Mof_C 	C 	0.94561	0.6948	0.1379	0.191
Mof_H 	H 	0.9599	0.7044	0.1743	-0.034
Mof_C 	C 	0.92218	0.6642	0.1466	-0.282
Mof_C 	C 	0.92054	0.6487	0.2132	0.385
Mof_C 	C 	0.86496	0.2164	0.1646	0.369
Mof_C 	C 	0.88348	0.1399	0.2075	-0.234
Mof_C 	C 	0.88932	0.0483	0.1808	0.147
Mof_H 	H 	0.882	0.0363	0.1366	-0.007
Mof_C 	C 	0.90566	0.9749	0.2184	-0.245
Mof_H 	H 	0.9093	0.9147	0.1994	0.118
Mof_C 	C 	0.91614	0.9907	0.2817	0.18
Mof_H 	H 	0.9269	0.9408	0.3069	-0.025
Mof_C 	C 	0.91127	0.0809	0.311	-0.292
Mof_H 	H 	0.9187	0.0917	0.3553	0.144
Mof_C 	C 	0.89504	0.1547	0.2725	0.29
Mof_C 	C 	0.87453	0.2658	0.3303	0.316
Mof_C 	C 	0.85707	0.1909	0.3354	-0.327
Mof_H 	H 	0.8576	0.1261	0.3176	0.15
Mof_C 	C 	0.83896	0.2119	0.3667	0.21
Mof_H 	H 	0.8276	0.1604	0.3706	-0.043
Mof_C 	C 	0.83734	0.3057	0.3918	-0.265
Mof_H 	H 	0.8244	0.3202	0.4109	0.127
Mof_C 	C 	0.85548	0.3809	0.3886	0.166
Mof_H 	H 	0.8551	0.4443	0.4082	-0.015
Mof_C 	C 	0.87366	0.3639	0.3576	-0.241
Mof_C 	C 	0.89249	0.4462	0.3546	0.368
Mof_C 	C 	0.82165	0.1725	0.9406	0.399
Mof_C 	C 	0.82434	0.1282	0.8786	-0.264
Mof_C 	C 	0.80306	0.0928	0.8315	0.185
Mof_H 	H 	0.7868	0.0934	0.8383	-0.027
Mof_C 	C 	0.80565	0.0562	0.7738	-0.266
Mof_H 	H 	0.7911	0.0315	0.7421	0.115
Mof_C 	C 	0.82929	0.0556	0.7626	0.2
Mof_H 	H 	0.8306	0.0333	0.7228	-0.052
Mof_C 	C 	0.85124	0.0881	0.8101	-0.332
Mof_H 	H 	0.8675	0.0861	0.8034	0.159
Mof_C 	C 	0.84833	0.1235	0.8676	0.312
Mof_C 	C 	0.89013	0.0947	0.9392	0.319
Mof_C 	C 	0.88583	0.0062	0.9687	-0.34
Mof_H 	H 	0.8692	0.9895	0.9695	0.162
Mof_C 	C 	0.90638	0.9422	0.9971	0.221
Mof_H 	H 	0.9037	0.8826	0.018	-0.046
Mof_C 	C 	0.93068	0.966	0.9947	-0.282
Mof_H 	H 	0.9445	0.9219	0.0131	0.127
Mof_C 	C 	0.93475	0.0545	0.9653	0.182
Mof_H 	H 	0.9515	0.0704	0.9645	-0.023
Mof_C 	C 	0.91463	0.1211	0.9368	-0.261
Mof_C 	C 	0.91975	0.2179	0.9037	0.382
Mof_N 	N 	0.8401	0.4975	0.2251	-0.116
Mof_C 	C 	0.8332	0.5516	0.2593	0.209
Mof_C 	C 	0.8029	0.4445	0.2446	-0.179
Mof_H 	H 	0.7879	0.4072	0.2468	-0.028
Mof_N 	N 	0.8155	0.54	0.2814	0.064
Mof_C 	C 	0.8182	0.4149	0.2118	-0.119
Mof_H 	H 	0.8163	0.3578	0.1826	0.029
Mof_C 	C 	0.8499	0.6449	0.2881	0.072
Mof_H 	H 	0.864	0.657	0.2703	-0.144
Mof_H 	H 	0.8381	0.702	0.2781	0.102
Mof_H 	H 	0.8567	0.6373	0.3343	0.09
Mof_Cd	Cd	0.37495	0.96517	0.19106	0.486
Mof_Cd	Cd	0.32634	0.79698	0.04968	0.452
Mof_Cd	Cd	0.42497	0.1042	0.34365	0.459
Mof_O 	O 	0.34466	0.952	0.0857	-0.321
Mof_O 	O 	0.30905	0.9825	0.008	-0.293
Mof_O 	O 	0.37829	0.111	0.0948	-0.321
Mof_O 	O 	0.40014	0.1183	0.2222	-0.304
Mof_O 	O 	0.44053	0.1673	0.2607	-0.313
Mof_O 	O 	0.35885	0.7947	0.188	-0.306
Mof_O 	O 	0.35674	0.6914	0.105	-0.307
Mof_O 	O 	0.39394	0.7477	0.3034	-0.3
Mof_O 	O 	0.39976	0.9561	0.3042	-0.296
Mof_O 	O 	0.40036	0.0062	0.4022	-0.299
Mof_O 	O 	0.32834	0.7653	0.9513	-0.309
Mof_O 	O 	0.31272	0.6214	0.9758	-0.311
Mof_O 	O 	0.36971	0.6617	0.9145	-0.315
Mof_O 	O 	0.40415	0.7468	0.8533	-0.307
Mof_O 	O 	0.44074	0.7647	0.9302	-0.296
Mof_N 	N 	0.40917	0.893	0.169	-0.189
Mof_N 	N 	0.43293	0.7869	0.131	-0.155
Mof_N 	N 	0.50494	0.9078	0.0766	-0.152
Mof_N 	N 	0.53945	0.0082	0.1074	-0.187
Mof_N 	N 	0.24418	0.2126	0.4031	-0.16
Mof_N 	N 	0.21096	0.2782	0.4285	-0.195
Mof_C 	C 	0.4117	0.8504	0.1151	0.358
Mof_C 	C 	0.44379	0.792	0.1975	-0.015
Mof_H 	H 	0.4585	0.7572	0.222	0.038
Mof_C 	C 	0.42916	0.8565	0.2198	0.01
Mof_H 	H 	0.4321	0.874	0.2632	0.046
Mof_C 	C 	0.39537	0.8659	0.0475	-0.978
Mof_H 	H 	0.3893	0.8004	0.0282	0.343
Mof_H 	H 	0.4054	0.8988	0.0232	0.338
Mof_H 	H 	0.3808	0.9084	0.047	0.349
Mof_C 	C 	0.44025	0.7165	0.0872	-0.107
Mof_H 	H 	0.4376	0.7502	0.0457	0.073
Mof_H 	H 	0.429	0.6568	0.0802	0.072
Mof_C 	C 	0.46754	0.6823	0.112	0.038
Mof_C 	C 	0.47351	0.586	0.1413	-0.088
Mof_H 	H 	0.4601	0.5426	0.1432	0.063
Mof_C 	C 	0.49838	0.554	0.167	-0.013
Mof_H 	H 	0.5017	0.4896	0.1864	0.034
Mof_C 	C 	0.51824	0.6142	0.1648	-0.042
Mof_H 	H 	0.5352	0.5916	0.1829	0.048
Mof_C 	C 	0.51355	0.7109	0.1354	-0.069
Mof_H 	H 	0.5274	0.7518	0.1329	0.062
Mof_C 	C 	0.48807	0.7461	0.1098	0.021
Mof_C 	C 	0.48214	0.8498	0.0779	-0.095
Mof_H 	H 	0.4711	0.8403	0.0338	0.079
Mof_H 	H 	0.4725	0.8899	0.1008	0.058
Mof_C 	C 	0.51879	0.9744	0.1221	0.319
Mof_C 	C 	0.53909	0.9593	0.051	0.013
Mof_H 	H 	0.5516	0.9676	0.0296	0.035
Mof_C 	C 	0.51811	0.8974	0.0308	-0.01
Mof_H 	H 	0.5135	0.8564	0.9939	0.038
Mof_C 	C 	0.51131	0.0051	0.1805	-0.859
Mof_H 	H 	0.5228	0.0582	0.2034	0.297
Mof_H 	H 	0.5126	0.9465	0.2084	0.275
Mof_H 	H 	0.4938	0.0301	0.1674	0.281
Mof_N 	N 	0.34752	0.052	0.2311	-0.116
Mof_C 	C 	0.32576	0.0046	0.2438	0.068
Mof_N 	N 	0.31875	0.0654	0.2906	-0.176
Mof_C 	C 	0.33619	0.1503	0.3068	-0.302
Mof_H 	H 	0.3359	0.2007	0.3378	0.141
Mof_C 	C 	0.3533	0.1408	0.2649	-0.013
Mof_H 	H 	0.3671	0.1877	0.2661	0.176
Mof_C 	C 	0.3116	0.9084	0.2214	-0.035
Mof_H 	H 	0.2975	0.8947	0.2389	0.164
Mof_H 	H 	0.3049	0.9157	0.1752	0.082
Mof_H 	H 	0.3237	0.8524	0.2317	0.082
Mof_C 	C 	0.29938	0.0728	0.318	-0.066
Mof_H 	H 	0.306	0.1054	0.3595	0.075
Mof_H 	H 	0.294	0.0047	0.3252	0.062
Mof_C 	C 	0.27596	0.1319	0.2786	0.026
Mof_C 	C 	0.27347	0.1578	0.2142	-0.077
Mof_H 	H 	0.2862	0.1378	0.1955	0.069
Mof_C 	C 	0.25313	0.2105	0.1799	-0.016
Mof_H 	H 	0.2521	0.2287	0.1376	0.031
Mof_C 	C 	0.23325	0.2399	0.2044	-0.045
Mof_H 	H 	0.2184	0.2723	0.1784	0.041
Mof_C 	C 	0.23621	0.2197	0.2678	-0.059
Mof_H 	H 	0.2235	0.2414	0.286	0.047
Mof_C 	C 	0.25747	0.1681	0.3057	0.014
Mof_C 	C 	0.26058	0.1481	0.377	-0.085
Mof_H 	H 	0.2566	0.0766	0.3824	0.051
Mof_H 	H 	0.2786	0.1596	0.4018	0.074
Mof_C 	C 	0.22039	0.1973	0.4062	0.333
Mof_C 	C 	0.23066	0.3522	0.44	0.004
Mof_H 	H 	0.2299	0.418	0.4562	0.041
Mof_C 	C 	0.25049	0.3136	0.4241	-0.013
Mof_H 	H 	0.2659	0.3475	0.4264	0.052
Mof_C 	C 	0.20577	0.0993	0.3895	-0.875
Mof_H 	H 	0.1996	0.0784	0.4249	0.307
Mof_H 	H 	0.217	0.0471	0.3812	0.286
Mof_H 	H 	0.1912	0.1091	0.3514	0.289
Mof_C 	C 	0.3283	0.0153	0.0499	0.368
Mof_C 	C 	0.33244	0.1273	0.0582	-0.223
Mof_C 	C 	0.31034	0.1915	0.0388	0.113
Mof_H 	H 	0.2939	0.1622	0.0245	-0.003
Mof_C 	C 	0.313	0.3028	0.0407	-0.214
Mof_H 	H 	0.2987	0.3461	0.0259	0.101
Mof_C 	C 	0.33743	0.3402	0.0652	0.17
Mof_H 	H 	0.3395	0.4112	0.0689	-0.027
Mof_C 	C 	0.35926	0.2811	0.0847	-0.295
Mof_H 	H 	0.3755	0.3113	0.1015	0.139
Mof_C 	C 	0.35676	0.175	0.0791	0.291
Mof_C 	C 	0.4017	0.1491	0.0914	0.337
Mof_C 	C 	0.40459	0.1625	0.0313	-0.363
Mof_H 	H 	0.3906	0.1499	0.9947	0.171
Mof_C 	C 	0.42757	0.194	0.0241	0.246
Mof_H 	H 	0.4291	0.2036	0.9827	-0.053
Mof_C 	C 	0.44838	0.2114	0.0771	-0.301
Mof_H 	H 	0.4641	0.2339	0.0725	0.129
Mof_C 	C 	0.44561	0.1948	0.1379	0.191
Mof_H 	H 	0.4599	0.2044	0.1743	-0.034
Mof_C 	C 	0.42218	0.1642	0.1466	-0.282
Mof_C 	C 	0.42054	0.1487	0.2132	0.385
Mof_C 	C 	0.36496	0.7164	0.1646	0.369
Mof_C 	C 	0.38348	0.6399	0.2075	-0.234
Mof_C 	C 	0.38932	0.5483	0.1808	0.146
Mof_H 	H 	0.382	0.5363	0.1366	-0.007
Mof_C 	C 	0.40566	0.4749	0.2184	-0.244
Mof_H 	H 	0.4093	0.4147	0.1994	0.118
Mof_C 	C 	0.41614	0.4907	0.2817	0.18
Mof_H 	H 	0.4269	0.4408	0.3069	-0.025
Mof_C 	C 	0.41127	0.5809	0.311	-0.292
Mof_H 	H 	0.4187	0.5917	0.3553	0.144
Mof_C 	C 	0.39504	0.6547	0.2725	0.29
Mof_C 	C 	0.37453	0.7658	0.3303	0.316
Mof_C 	C 	0.35707	0.6909	0.3354	-0.327
Mof_H 	H 	0.3576	0.6261	0.3176	0.15
Mof_C 	C 	0.33896	0.7119	0.3667	0.21
Mof_H 	H 	0.3276	0.6604	0.3706	-0.043
Mof_C 	C 	0.33734	0.8057	0.3918	-0.265
Mof_H 	H 	0.3244	0.8202	0.4109	0.127
Mof_C 	C 	0.35548	0.8809	0.3886	0.166
Mof_H 	H 	0.3551	0.9443	0.4082	-0.015
Mof_C 	C 	0.37366	0.8639	0.3576	-0.241
Mof_C 	C 	0.39249	0.9462	0.3546	0.368
Mof_C 	C 	0.32165	0.6725	0.9406	0.399
Mof_C 	C 	0.32434	0.6282	0.8786	-0.264
Mof_C 	C 	0.30306	0.5928	0.8315	0.185
Mof_H 	H 	0.2868	0.5934	0.8383	-0.027
Mof_C 	C 	0.30565	0.5562	0.7738	-0.266
Mof_H 	H 	0.2911	0.5315	0.7421	0.115
Mof_C 	C 	0.32929	0.5556	0.7626	0.2
Mof_H 	H 	0.3306	0.5333	0.7228	-0.052
Mof_C 	C 	0.35124	0.5881	0.8101	-0.332
Mof_H 	H 	0.3675	0.5861	0.8034	0.159
Mof_C 	C 	0.34833	0.6235	0.8676	0.312
Mof_C 	C 	0.39013	0.5947	0.9392	0.318
Mof_C 	C 	0.38583	0.5062	0.9687	-0.337
Mof_H 	H 	0.3692	0.4895	0.9695	0.161
Mof_C 	C 	0.40638	0.4422	0.9971	0.219
Mof_H 	H 	0.4037	0.3826	0.018	-0.045
Mof_C 	C 	0.43068	0.466	0.9947	-0.282
Mof_H 	H 	0.4445	0.4219	0.0131	0.127
Mof_C 	C 	0.43475	0.5545	0.9653	0.183
Mof_H 	H 	0.4515	0.5704	0.9645	-0.023
Mof_C 	C 	0.41463	0.6211	0.9368	-0.261
Mof_C 	C 	0.41975	0.7179	0.9037	0.382
Mof_N 	N 	0.3401	0.9975	0.2251	-0.116
Mof_C 	C 	0.3332	0.0516	0.2593	0.21
Mof_C 	C 	0.3029	0.9445	0.2446	-0.179
Mof_H 	H 	0.2879	0.9072	0.2468	-0.028
Mof_N 	N 	0.3155	0.04	0.2814	0.064
Mof_C 	C 	0.3182	0.9149	0.2118	-0.118
Mof_H 	H 	0.3163	0.8578	0.1826	0.029
Mof_C 	C 	0.3499	0.1449	0.2881	0.072
Mof_H 	H 	0.364	0.157	0.2703	-0.144
Mof_H 	H 	0.3381	0.202	0.2781	0.102
Mof_H 	H 	0.3567	0.1373	0.3343	0.09
Mof_Cd	Cd	0.87495	0.53483	0.69106	0.487
Mof_Cd	Cd	0.82634	0.70302	0.54968	0.452
Mof_Cd	Cd	0.92497	0.3958	0.84365	0.459
Mof_O 	O 	0.84466	0.548	0.5857	-0.32
Mof_O 	O 	0.80905	0.5175	0.508	-0.292
Mof_O 	O 	0.87829	0.389	0.5948	-0.321
Mof_O 	O 	0.90014	0.3817	0.7222	-0.305
Mof_O 	O 	0.94053	0.3327	0.7607	-0.313
Mof_O 	O 	0.85885	0.7053	0.688	-0.306
Mof_O 	O 	0.85674	0.8086	0.605	-0.307
Mof_O 	O 	0.89394	0.7523	0.8034	-0.3
Mof_O 	O 	0.89976	0.5439	0.8042	-0.296
Mof_O 	O 	0.90036	0.4938	0.9022	-0.299
Mof_O 	O 	0.82834	0.7347	0.4513	-0.309
Mof_O 	O 	0.81272	0.8786	0.4758	-0.311
Mof_O 	O 	0.86971	0.8383	0.4145	-0.315
Mof_O 	O 	0.90415	0.7532	0.3533	-0.307
Mof_O 	O 	0.94074	0.7353	0.4302	-0.296
Mof_N 	N 	0.90917	0.607	0.669	-0.189
Mof_N 	N 	0.93293	0.7131	0.631	-0.155
Mof_N 	N 	0.00494	0.5922	0.5766	-0.152
Mof_N 	N 	0.03945	0.4918	0.6074	-0.187
Mof_N 	N 	0.74418	0.2874	0.9031	-0.16
Mof_N 	N 	0.71096	0.2218	0.9285	-0.195
Mof_C 	C 	0.9117	0.6496	0.6151	0.358
Mof_C 	C 	0.94379	0.708	0.6975	-0.015
Mof_H 	H 	0.9585	0.7428	0.722	0.038
Mof_C 	C 	0.92916	0.6435	0.7198	0.01
Mof_H 	H 	0.9321	0.626	0.7632	0.046
Mof_C 	C 	0.89537	0.6341	0.5475	-0.978
Mof_H 	H 	0.8893	0.6996	0.5282	0.343
Mof_H 	H 	0.9054	0.6012	0.5232	0.339
Mof_H 	H 	0.8808	0.5916	0.547	0.349
Mof_C 	C 	0.94025	0.7835	0.5872	-0.108
Mof_H 	H 	0.9376	0.7498	0.5457	0.073
Mof_H 	H 	0.929	0.8432	0.5802	0.072
Mof_C 	C 	0.96754	0.8177	0.612	0.038
Mof_C 	C 	0.97351	0.914	0.6413	-0.089
Mof_H 	H 	0.9601	0.9574	0.6432	0.063
Mof_C 	C 	0.99838	0.946	0.667	-0.012
Mof_H 	H 	0.0017	0.0104	0.6864	0.033
Mof_C 	C 	0.01824	0.8858	0.6648	-0.043
Mof_H 	H 	0.0352	0.9084	0.6829	0.048
Mof_C 	C 	0.01355	0.7891	0.6354	-0.068
Mof_H 	H 	0.0274	0.7482	0.6329	0.062
Mof_C 	C 	0.98807	0.7539	0.6098	0.021
Mof_C 	C 	0.98214	0.6502	0.5779	-0.095
Mof_H 	H 	0.9711	0.6597	0.5338	0.079
Mof_H 	H 	0.9725	0.6101	0.6008	0.058
Mof_C 	C 	0.01879	0.5256	0.6221	0.321
Mof_C 	C 	0.03909	0.5407	0.551	0.013
Mof_H 	H 	0.0516	0.5324	0.5296	0.035
Mof_C 	C 	0.01811	0.6026	0.5308	-0.01
Mof_H 	H 	0.0135	0.6436	0.4939	0.038
Mof_C 	C 	0.01131	0.4949	0.6805	-0.863
Mof_H 	H 	0.0228	0.4418	0.7034	0.298
Mof_H 	H 	0.0126	0.5535	0.7084	0.276
Mof_H 	H 	0.9938	0.4699	0.6674	0.282
Mof_N 	N 	0.84752	0.448	0.7311	-0.116
Mof_C 	C 	0.82576	0.4954	0.7438	0.069
Mof_N 	N 	0.81875	0.4346	0.7906	-0.176
Mof_C 	C 	0.83619	0.3497	0.8068	-0.301
Mof_H 	H 	0.8359	0.2993	0.8378	0.14
Mof_C 	C 	0.8533	0.3592	0.7649	-0.013
Mof_H 	H 	0.8671	0.3123	0.7661	0.176
Mof_C 	C 	0.8116	0.5916	0.7214	-0.036
Mof_H 	H 	0.7975	0.6053	0.7389	0.164
Mof_H 	H 	0.8049	0.5843	0.6752	0.082
Mof_H 	H 	0.8237	0.6476	0.7317	0.082
Mof_C 	C 	0.79938	0.4272	0.818	-0.066
Mof_H 	H 	0.806	0.3946	0.8595	0.075
Mof_H 	H 	0.794	0.4953	0.8252	0.062
Mof_C 	C 	0.77596	0.3681	0.7786	0.026
Mof_C 	C 	0.77347	0.3422	0.7142	-0.077
Mof_H 	H 	0.7862	0.3622	0.6955	0.069
Mof_C 	C 	0.75313	0.2895	0.6799	-0.016
Mof_H 	H 	0.7521	0.2713	0.6376	0.031
Mof_C 	C 	0.73325	0.2601	0.7044	-0.045
Mof_H 	H 	0.7184	0.2277	0.6784	0.041
Mof_C 	C 	0.73621	0.2803	0.7678	-0.059
Mof_H 	H 	0.7235	0.2586	0.786	0.047
Mof_C 	C 	0.75747	0.3319	0.8057	0.014
Mof_C 	C 	0.76058	0.3519	0.877	-0.085
Mof_H 	H 	0.7566	0.4234	0.8824	0.051
Mof_H 	H 	0.7786	0.3404	0.9018	0.074
Mof_C 	C 	0.72039	0.3027	0.9062	0.333
Mof_C 	C 	0.73066	0.1478	0.94	0.004
Mof_H 	H 	0.7299	0.082	0.9562	0.041
Mof_C 	C 	0.75049	0.1864	0.9241	-0.014
Mof_H 	H 	0.7659	0.1525	0.9264	0.052
Mof_C 	C 	0.70577	0.4007	0.8895	-0.875
Mof_H 	H 	0.6996	0.4216	0.9249	0.307
Mof_H 	H 	0.717	0.4529	0.8812	0.286
Mof_H 	H 	0.6912	0.3909	0.8514	0.289
Mof_C 	C 	0.8283	0.4847	0.5499	0.367
Mof_C 	C 	0.83244	0.3727	0.5582	-0.223
Mof_C 	C 	0.81034	0.3085	0.5388	0.113
Mof_H 	H 	0.7939	0.3378	0.5245	-0.003
Mof_C 	C 	0.813	0.1972	0.5407	-0.214
Mof_H 	H 	0.7987	0.1539	0.5259	0.101
Mof_C 	C 	0.83743	0.1598	0.5652	0.17
Mof_H 	H 	0.8395	0.0888	0.5689	-0.027
Mof_C 	C 	0.85926	0.2189	0.5847	-0.295
Mof_H 	H 	0.8755	0.1887	0.6015	0.139
Mof_C 	C 	0.85676	0.325	0.5791	0.291
Mof_C 	C 	0.9017	0.3509	0.5914	0.337
Mof_C 	C 	0.90459	0.3375	0.5313	-0.364
Mof_H 	H 	0.8906	0.3501	0.4947	0.172
Mof_C 	C 	0.92757	0.306	0.5241	0.245
Mof_H 	H 	0.9291	0.2964	0.4827	-0.053
Mof_C 	C 	0.94838	0.2886	0.5771	-0.3
Mof_H 	H 	0.9641	0.2661	0.5725	0.129
Mof_C 	C 	0.94561	0.3052	0.6379	0.191
Mof_H 	H 	0.9599	0.2956	0.6743	-0.034
Mof_C 	C 	0.92218	0.3358	0.6466	-0.282
Mof_C 	C 	0.92054	0.3513	0.7132	0.385
Mof_C 	C 	0.86496	0.7836	0.6646	0.369
Mof_C 	C 	0.88348	0.8601	0.7075	-0.234
Mof_C 	C 	0.88932	0.9517	0.6808	0.146
Mof_H 	H 	0.882	0.9637	0.6366	-0.007
Mof_C 	C 	0.90566	0.0251	0.7184	-0.244
Mof_H 	H 	0.9093	0.0853	0.6994	0.117
Mof_C 	C 	0.91614	0.0093	0.7817	0.18
Mof_H 	H 	0.9269	0.0592	0.8069	-0.025
Mof_C 	C 	0.91127	0.9191	0.811	-0.292
Mof_H 	H 	0.9187	0.9083	0.8553	0.144
Mof_C 	C 	0.89504	0.8453	0.7725	0.29
Mof_C 	C 	0.87453	0.7342	0.8303	0.316
Mof_C 	C 	0.85707	0.8091	0.8354	-0.327
Mof_H 	H 	0.8576	0.8739	0.8176	0.15
Mof_C 	C 	0.83896	0.7881	0.8667	0.21
Mof_H 	H 	0.8276	0.8396	0.8706	-0.043
Mof_C 	C 	0.83734	0.6943	0.8918	-0.265
Mof_H 	H 	0.8244	0.6798	0.9109	0.127
Mof_C 	C 	0.85548	0.6191	0.8886	0.166
Mof_H 	H 	0.8551	0.5557	0.9082	-0.015
Mof_C 	C 	0.87366	0.6361	0.8576	-0.241
Mof_C 	C 	0.89249	0.5538	0.8546	0.368
Mof_C 	C 	0.82165	0.8275	0.4406	0.399
Mof_C 	C 	0.82434	0.8718	0.3786	-0.264
Mof_C 	C 	0.80306	0.9072	0.3315	0.185
Mof_H 	H 	0.7868	0.9066	0.3383	-0.027
Mof_C 	C 	0.80565	0.9438	0.2738	-0.266
Mof_H 	H 	0.7911	0.9685	0.2421	0.115
Mof_C 	C 	0.82929	0.9444	0.2626	0.2
Mof_H 	H 	0.8306	0.9667	0.2228	-0.052
Mof_C 	C 	0.85124	0.9119	0.3101	-0.332
Mof_H 	H 	0.8675	0.9139	0.3034	0.159
Mof_C 	C 	0.84833	0.8765	0.3676	0.312
Mof_C 	C 	0.89013	0.9053	0.4392	0.318
Mof_C 	C 	0.88583	0.9938	0.4687	-0.338
Mof_H 	H 	0.8692	0.0105	0.4695	0.161
Mof_C 	C 	0.90638	0.0578	0.4971	0.219
Mof_H 	H 	0.9037	0.1174	0.518	-0.046
Mof_C 	C 	0.93068	0.034	0.4947	-0.282
Mof_H 	H 	0.9445	0.0781	0.5131	0.127
Mof_C 	C 	0.93475	0.9455	0.4653	0.183
Mof_H 	H 	0.9515	0.9296	0.4645	-0.023
Mof_C 	C 	0.91463	0.8789	0.4368	-0.261
Mof_C 	C 	0.91975	0.7821	0.4037	0.382
Mof_N 	N 	0.8401	0.5025	0.7251	-0.116
Mof_C 	C 	0.8332	0.4484	0.7593	0.209
Mof_C 	C 	0.8029	0.5555	0.7446	-0.179
Mof_H 	H 	0.7879	0.5928	0.7468	-0.028
Mof_N 	N 	0.8155	0.46	0.7814	0.064
Mof_C 	C 	0.8182	0.5851	0.7118	-0.119
Mof_H 	H 	0.8163	0.6422	0.6826	0.029
Mof_C 	C 	0.8499	0.3551	0.7881	0.072
Mof_H 	H 	0.864	0.343	0.7703	-0.144
Mof_H 	H 	0.8381	0.298	0.7781	0.102
Mof_H 	H 	0.8567	0.3627	0.8343	0.09
Mof_Cd	Cd	0.37495	0.03483	0.69106	0.486
Mof_Cd	Cd	0.32634	0.20302	0.54968	0.452
Mof_Cd	Cd	0.42497	0.8958	0.84365	0.459
Mof_O 	O 	0.34466	0.048	0.5857	-0.32
Mof_O 	O 	0.30905	0.0175	0.508	-0.292
Mof_O 	O 	0.37829	0.889	0.5948	-0.321
Mof_O 	O 	0.40014	0.8817	0.7222	-0.304
Mof_O 	O 	0.44053	0.8327	0.7607	-0.313
Mof_O 	O 	0.35885	0.2053	0.688	-0.306
Mof_O 	O 	0.35674	0.3086	0.605	-0.307
Mof_O 	O 	0.39394	0.2523	0.8034	-0.3
Mof_O 	O 	0.39976	0.0439	0.8042	-0.296
Mof_O 	O 	0.40036	0.9938	0.9022	-0.299
Mof_O 	O 	0.32834	0.2347	0.4513	-0.309
Mof_O 	O 	0.31272	0.3786	0.4758	-0.311
Mof_O 	O 	0.36971	0.3383	0.4145	-0.315
Mof_O 	O 	0.40415	0.2532	0.3533	-0.307
Mof_O 	O 	0.44074	0.2353	0.4302	-0.296
Mof_N 	N 	0.40917	0.107	0.669	-0.189
Mof_N 	N 	0.43293	0.2131	0.631	-0.155
Mof_N 	N 	0.50494	0.0922	0.5766	-0.152
Mof_N 	N 	0.53945	0.9918	0.6074	-0.187
Mof_N 	N 	0.24418	0.7874	0.9031	-0.16
Mof_N 	N 	0.21096	0.7218	0.9285	-0.195
Mof_C 	C 	0.4117	0.1496	0.6151	0.358
Mof_C 	C 	0.44379	0.208	0.6975	-0.015
Mof_H 	H 	0.4585	0.2428	0.722	0.038
Mof_C 	C 	0.42916	0.1435	0.7198	0.01
Mof_H 	H 	0.4321	0.126	0.7632	0.046
Mof_C 	C 	0.39537	0.1341	0.5475	-0.978
Mof_H 	H 	0.3893	0.1996	0.5282	0.343
Mof_H 	H 	0.4054	0.1012	0.5232	0.339
Mof_H 	H 	0.3808	0.0916	0.547	0.349
Mof_C 	C 	0.44025	0.2835	0.5872	-0.107
Mof_H 	H 	0.4376	0.2498	0.5457	0.073
Mof_H 	H 	0.429	0.3432	0.5802	0.072
Mof_C 	C 	0.46754	0.3177	0.612	0.038
Mof_C 	C 	0.47351	0.414	0.6413	-0.089
Mof_H 	H 	0.4601	0.4574	0.6432	0.063
Mof_C 	C 	0.49838	0.446	0.667	-0.013
Mof_H 	H 	0.5017	0.5104	0.6864	0.034
Mof_C 	C 	0.51824	0.3858	0.6648	-0.042
Mof_H 	H 	0.5352	0.4084	0.6829	0.048
Mof_C 	C 	0.51355	0.2891	0.6354	-0.068
Mof_H 	H 	0.5274	0.2482	0.6329	0.062
Mof_C 	C 	0.48807	0.2539	0.6098	0.021
Mof_C 	C 	0.48214	0.1502	0.5779	-0.095
Mof_H 	H 	0.4711	0.1597	0.5338	0.079
Mof_H 	H 	0.4725	0.1101	0.6008	0.058
Mof_C 	C 	0.51879	0.0256	0.6221	0.32
Mof_C 	C 	0.53909	0.0407	0.551	0.013
Mof_H 	H 	0.5516	0.0324	0.5296	0.035
Mof_C 	C 	0.51811	0.1026	0.5308	-0.01
Mof_H 	H 	0.5135	0.1436	0.4939	0.038
Mof_C 	C 	0.51131	0.9949	0.6805	-0.861
Mof_H 	H 	0.5228	0.9418	0.7034	0.297
Mof_H 	H 	0.5126	0.0535	0.7084	0.275
Mof_H 	H 	0.4938	0.9699	0.6674	0.282
Mof_N 	N 	0.34752	0.948	0.7311	-0.116
Mof_C 	C 	0.32576	0.9954	0.7438	0.068
Mof_N 	N 	0.31875	0.9346	0.7906	-0.176
Mof_C 	C 	0.33619	0.8497	0.8068	-0.302
Mof_H 	H 	0.3359	0.7993	0.8378	0.141
Mof_C 	C 	0.3533	0.8592	0.7649	-0.013
Mof_H 	H 	0.3671	0.8123	0.7661	0.176
Mof_C 	C 	0.3116	0.0916	0.7214	-0.035
Mof_H 	H 	0.2975	0.1053	0.7389	0.164
Mof_H 	H 	0.3049	0.0843	0.6752	0.082
Mof_H 	H 	0.3237	0.1476	0.7317	0.082
Mof_C 	C 	0.29938	0.9272	0.818	-0.066
Mof_H 	H 	0.306	0.8946	0.8595	0.075
Mof_H 	H 	0.294	0.9953	0.8252	0.062
Mof_C 	C 	0.27596	0.8681	0.7786	0.026
Mof_C 	C 	0.27347	0.8422	0.7142	-0.077
Mof_H 	H 	0.2862	0.8622	0.6955	0.069
Mof_C 	C 	0.25313	0.7895	0.6799	-0.016
Mof_H 	H 	0.2521	0.7713	0.6376	0.031
Mof_C 	C 	0.23325	0.7601	0.7044	-0.045
Mof_H 	H 	0.2184	0.7277	0.6784	0.041
Mof_C 	C 	0.23621	0.7803	0.7678	-0.059
Mof_H 	H 	0.2235	0.7586	0.786	0.047
Mof_C 	C 	0.25747	0.8319	0.8057	0.014
Mof_C 	C 	0.26058	0.8519	0.877	-0.085
Mof_H 	H 	0.2566	0.9234	0.8824	0.051
Mof_H 	H 	0.2786	0.8404	0.9018	0.074
Mof_C 	C 	0.22039	0.8027	0.9062	0.333
Mof_C 	C 	0.23066	0.6478	0.94	0.004
Mof_H 	H 	0.2299	0.582	0.9562	0.041
Mof_C 	C 	0.25049	0.6864	0.9241	-0.013
Mof_H 	H 	0.2659	0.6525	0.9264	0.052
Mof_C 	C 	0.20577	0.9007	0.8895	-0.876
Mof_H 	H 	0.1996	0.9216	0.9249	0.307
Mof_H 	H 	0.217	0.9529	0.8812	0.286
Mof_H 	H 	0.1912	0.8909	0.8514	0.29
Mof_C 	C 	0.3283	0.9847	0.5499	0.367
Mof_C 	C 	0.33244	0.8727	0.5582	-0.223
Mof_C 	C 	0.31034	0.8085	0.5388	0.113
Mof_H 	H 	0.2939	0.8378	0.5245	-0.003
Mof_C 	C 	0.313	0.6972	0.5407	-0.214
Mof_H 	H 	0.2987	0.6539	0.5259	0.101
Mof_C 	C 	0.33743	0.6598	0.5652	0.17
Mof_H 	H 	0.3395	0.5888	0.5689	-0.027
Mof_C 	C 	0.35926	0.7189	0.5847	-0.295
Mof_H 	H 	0.3755	0.6887	0.6015	0.139
Mof_C 	C 	0.35676	0.825	0.5791	0.291
Mof_C 	C 	0.4017	0.8509	0.5914	0.337
Mof_C 	C 	0.40459	0.8375	0.5313	-0.364
Mof_H 	H 	0.3906	0.8501	0.4947	0.172
Mof_C 	C 	0.42757	0.806	0.5241	0.245
Mof_H 	H 	0.4291	0.7964	0.4827	-0.053
Mof_C 	C 	0.44838	0.7886	0.5771	-0.3
Mof_H 	H 	0.4641	0.7661	0.5725	0.129
Mof_C 	C 	0.44561	0.8052	0.6379	0.191
Mof_H 	H 	0.4599	0.7956	0.6743	-0.034
Mof_C 	C 	0.42218	0.8358	0.6466	-0.282
Mof_C 	C 	0.42054	0.8513	0.7132	0.385
Mof_C 	C 	0.36496	0.2836	0.6646	0.369
Mof_C 	C 	0.38348	0.3601	0.7075	-0.234
Mof_C 	C 	0.38932	0.4517	0.6808	0.146
Mof_H 	H 	0.382	0.4637	0.6366	-0.007
Mof_C 	C 	0.40566	0.5251	0.7184	-0.244
Mof_H 	H 	0.4093	0.5853	0.6994	0.118
Mof_C 	C 	0.41614	0.5093	0.7817	0.18
Mof_H 	H 	0.4269	0.5592	0.8069	-0.025
Mof_C 	C 	0.41127	0.4191	0.811	-0.292
Mof_H 	H 	0.4187	0.4083	0.8553	0.144
Mof_C 	C 	0.39504	0.3453	0.7725	0.29
Mof_C 	C 	0.37453	0.2342	0.8303	0.316
Mof_C 	C 	0.35707	0.3091	0.8354	-0.326
Mof_H 	H 	0.3576	0.3739	0.8176	0.15
Mof_C 	C 	0.33896	0.2881	0.8667	0.21
Mof_H 	H 	0.3276	0.3396	0.8706	-0.043
Mof_C 	C 	0.33734	0.1943	0.8918	-0.265
Mof_H 	H 	0.3244	0.1798	0.9109	0.127
Mof_C 	C 	0.35548	0.1191	0.8886	0.165
Mof_H 	H 	0.3551	0.0557	0.9082	-0.015
Mof_C 	C 	0.37366	0.1361	0.8576	-0.241
Mof_C 	C 	0.39249	0.0538	0.8546	0.367
Mof_C 	C 	0.32165	0.3275	0.4406	0.399
Mof_C 	C 	0.32434	0.3718	0.3786	-0.264
Mof_C 	C 	0.30306	0.4072	0.3315	0.185
Mof_H 	H 	0.2868	0.4066	0.3383	-0.027
Mof_C 	C 	0.30565	0.4438	0.2738	-0.266
Mof_H 	H 	0.2911	0.4685	0.2421	0.115
Mof_C 	C 	0.32929	0.4444	0.2626	0.2
Mof_H 	H 	0.3306	0.4667	0.2228	-0.052
Mof_C 	C 	0.35124	0.4119	0.3101	-0.332
Mof_H 	H 	0.3675	0.4139	0.3034	0.159
Mof_C 	C 	0.34833	0.3765	0.3676	0.312
Mof_C 	C 	0.39013	0.4053	0.4392	0.318
Mof_C 	C 	0.38583	0.4938	0.4687	-0.337
Mof_H 	H 	0.3692	0.5105	0.4695	0.161
Mof_C 	C 	0.40638	0.5578	0.4971	0.219
Mof_H 	H 	0.4037	0.6174	0.518	-0.046
Mof_C 	C 	0.43068	0.534	0.4947	-0.282
Mof_H 	H 	0.4445	0.5781	0.5131	0.127
Mof_C 	C 	0.43475	0.4455	0.4653	0.183
Mof_H 	H 	0.4515	0.4296	0.4645	-0.023
Mof_C 	C 	0.41463	0.3789	0.4368	-0.261
Mof_C 	C 	0.41975	0.2821	0.4037	0.382
Mof_N 	N 	0.3401	0.0025	0.7251	-0.116
Mof_C 	C 	0.3332	0.9484	0.7593	0.211
Mof_C 	C 	0.3029	0.0555	0.7446	-0.179
Mof_H 	H 	0.2879	0.0928	0.7468	-0.028
Mof_N 	N 	0.3155	0.96	0.7814	0.064
Mof_C 	C 	0.3182	0.0851	0.7118	-0.118
Mof_H 	H 	0.3163	0.1422	0.6826	0.029
Mof_C 	C 	0.3499	0.8551	0.7881	0.072
Mof_H 	H 	0.364	0.843	0.7703	-0.144
Mof_H 	H 	0.3381	0.798	0.7781	0.102
Mof_H 	H 	0.3567	0.8627	0.8343	0.09
Mof_Cd	Cd	0.12505	0.53483	0.80894	0.487
Mof_Cd	Cd	0.17366	0.70302	0.95032	0.452
Mof_Cd	Cd	0.07503	0.3958	0.65635	0.459
Mof_O 	O 	0.15534	0.548	0.9143	-0.32
Mof_O 	O 	0.19095	0.5175	0.992	-0.292
Mof_O 	O 	0.12171	0.389	0.9052	-0.321
Mof_O 	O 	0.09986	0.3817	0.7778	-0.305
Mof_O 	O 	0.05947	0.3327	0.7393	-0.313
Mof_O 	O 	0.14115	0.7053	0.812	-0.306
Mof_O 	O 	0.14326	0.8086	0.895	-0.307
Mof_O 	O 	0.10606	0.7523	0.6966	-0.3
Mof_O 	O 	0.10024	0.5439	0.6958	-0.296
Mof_O 	O 	0.09964	0.4938	0.5978	-0.299
Mof_O 	O 	0.17166	0.7347	0.0487	-0.309
Mof_O 	O 	0.18728	0.8786	0.0242	-0.311
Mof_O 	O 	0.13029	0.8383	0.0855	-0.316
Mof_O 	O 	0.09585	0.7532	0.1467	-0.307
Mof_O 	O 	0.05926	0.7353	0.0698	-0.296
Mof_N 	N 	0.09083	0.607	0.831	-0.189
Mof_N 	N 	0.06707	0.7131	0.869	-0.155
Mof_N 	N 	0.99506	0.5922	0.9234	-0.152
Mof_N 	N 	0.96055	0.4918	0.8926	-0.187
Mof_N 	N 	0.25582	0.2874	0.5969	-0.16
Mof_N 	N 	0.28904	0.2218	0.5715	-0.195
Mof_C 	C 	0.0883	0.6496	0.8849	0.358
Mof_C 	C 	0.05621	0.708	0.8025	-0.015
Mof_H 	H 	0.0415	0.7428	0.778	0.038
Mof_C 	C 	0.07084	0.6435	0.7802	0.01
Mof_H 	H 	0.0679	0.626	0.7368	0.046
Mof_C 	C 	0.10463	0.6341	0.9525	-0.978
Mof_H 	H 	0.1107	0.6996	0.9718	0.343
Mof_H 	H 	0.0946	0.6012	0.9768	0.339
Mof_H 	H 	0.1192	0.5916	0.953	0.349
Mof_C 	C 	0.05975	0.7835	0.9128	-0.108
Mof_H 	H 	0.0624	0.7498	0.9543	0.073
Mof_H 	H 	0.071	0.8432	0.9198	0.073
Mof_C 	C 	0.03246	0.8177	0.888	0.039
Mof_C 	C 	0.02649	0.914	0.8587	-0.09
Mof_H 	H 	0.0399	0.9574	0.8568	0.064
Mof_C 	C 	0.00162	0.946	0.833	-0.011
Mof_H 	H 	0.9983	0.0104	0.8136	0.033
Mof_C 	C 	0.98176	0.8858	0.8352	-0.044
Mof_H 	H 	0.9648	0.9084	0.8171	0.048
Mof_C 	C 	0.98645	0.7891	0.8646	-0.067
Mof_H 	H 	0.9726	0.7482	0.8671	0.062
Mof_C 	C 	0.01193	0.7539	0.8902	0.021
Mof_C 	C 	0.01786	0.6502	0.9221	-0.095
Mof_H 	H 	0.0289	0.6597	0.9662	0.079
Mof_H 	H 	0.0275	0.6101	0.8992	0.058
Mof_C 	C 	0.98121	0.5256	0.8779	0.321
Mof_C 	C 	0.96091	0.5407	0.949	0.013
Mof_H 	H 	0.9484	0.5324	0.9704	0.035
Mof_C 	C 	0.98189	0.6026	0.9692	-0.009
Mof_H 	H 	0.9865	0.6436	0.0061	0.038
Mof_C 	C 	0.98869	0.4949	0.8195	-0.862
Mof_H 	H 	0.9772	0.4418	0.7966	0.298
Mof_H 	H 	0.9874	0.5535	0.7916	0.276
Mof_H 	H 	0.0062	0.4699	0.8326	0.282
Mof_N 	N 	0.15248	0.448	0.7689	-0.116
Mof_C 	C 	0.17424	0.4954	0.7562	0.069
Mof_N 	N 	0.18125	0.4346	0.7094	-0.176
Mof_C 	C 	0.16381	0.3497	0.6932	-0.301
Mof_H 	H 	0.1641	0.2993	0.6622	0.14
Mof_C 	C 	0.1467	0.3592	0.7351	-0.013
Mof_H 	H 	0.1329	0.3123	0.7339	0.176
Mof_C 	C 	0.1884	0.5916	0.7786	-0.035
Mof_H 	H 	0.2025	0.6053	0.7611	0.164
Mof_H 	H 	0.1951	0.5843	0.8248	0.082
Mof_H 	H 	0.1763	0.6476	0.7683	0.082
Mof_C 	C 	0.20062	0.4272	0.682	-0.066
Mof_H 	H 	0.194	0.3946	0.6405	0.075
Mof_H 	H 	0.206	0.4953	0.6748	0.062
Mof_C 	C 	0.22404	0.3681	0.7214	0.026
Mof_C 	C 	0.22653	0.3422	0.7858	-0.077
Mof_H 	H 	0.2138	0.3622	0.8045	0.069
Mof_C 	C 	0.24687	0.2895	0.8201	-0.016
Mof_H 	H 	0.2479	0.2713	0.8624	0.031
Mof_C 	C 	0.26675	0.2601	0.7956	-0.045
Mof_H 	H 	0.2816	0.2277	0.8216	0.041
Mof_C 	C 	0.26379	0.2803	0.7322	-0.059
Mof_H 	H 	0.2765	0.2586	0.714	0.047
Mof_C 	C 	0.24253	0.3319	0.6943	0.014
Mof_C 	C 	0.23942	0.3519	0.623	-0.085
Mof_H 	H 	0.2434	0.4234	0.6176	0.051
Mof_H 	H 	0.2214	0.3404	0.5982	0.074
Mof_C 	C 	0.27961	0.3027	0.5938	0.333
Mof_C 	C 	0.26934	0.1478	0.56	0.004
Mof_H 	H 	0.2701	0.082	0.5438	0.041
Mof_C 	C 	0.24951	0.1864	0.5759	-0.013
Mof_H 	H 	0.2341	0.1525	0.5736	0.052
Mof_C 	C 	0.29423	0.4007	0.6105	-0.875
Mof_H 	H 	0.3004	0.4216	0.5751	0.307
Mof_H 	H 	0.283	0.4529	0.6188	0.286
Mof_H 	H 	0.3088	0.3909	0.6486	0.289
Mof_C 	C 	0.1717	0.4847	0.9501	0.367
Mof_C 	C 	0.16756	0.3727	0.9418	-0.223
Mof_C 	C 	0.18966	0.3085	0.9612	0.113
Mof_H 	H 	0.2061	0.3378	0.9755	-0.003
Mof_C 	C 	0.187	0.1972	0.9593	-0.214
Mof_H 	H 	0.2013	0.1539	0.9741	0.101
Mof_C 	C 	0.16257	0.1598	0.9348	0.17
Mof_H 	H 	0.1605	0.0888	0.9311	-0.027
Mof_C 	C 	0.14074	0.2189	0.9153	-0.295
Mof_H 	H 	0.1245	0.1887	0.8985	0.139
Mof_C 	C 	0.14324	0.325	0.9209	0.291
Mof_C 	C 	0.0983	0.3509	0.9086	0.337
Mof_C 	C 	0.09541	0.3375	0.9687	-0.364
Mof_H 	H 	0.1094	0.3501	0.0053	0.172
Mof_C 	C 	0.07243	0.306	0.9759	0.245
Mof_H 	H 	0.0709	0.2964	0.0173	-0.052
Mof_C 	C 	0.05162	0.2886	0.9229	-0.3
Mof_H 	H 	0.0359	0.2661	0.9275	0.129
Mof_C 	C 	0.05439	0.3052	0.8621	0.191
Mof_H 	H 	0.0401	0.2956	0.8257	-0.034
Mof_C 	C 	0.07782	0.3358	0.8534	-0.282
Mof_C 	C 	0.07946	0.3513	0.7868	0.385
Mof_C 	C 	0.13504	0.7836	0.8354	0.369
Mof_C 	C 	0.11652	0.8601	0.7925	-0.234
Mof_C 	C 	0.11068	0.9517	0.8192	0.147
Mof_H 	H 	0.118	0.9637	0.8634	-0.007
Mof_C 	C 	0.09434	0.0251	0.7816	-0.245
Mof_H 	H 	0.0907	0.0853	0.8006	0.118
Mof_C 	C 	0.08386	0.0093	0.7183	0.18
Mof_H 	H 	0.0731	0.0592	0.6931	-0.025
Mof_C 	C 	0.08873	0.9191	0.689	-0.292
Mof_H 	H 	0.0813	0.9083	0.6447	0.144
Mof_C 	C 	0.10496	0.8453	0.7275	0.29
Mof_C 	C 	0.12547	0.7342	0.6697	0.316
Mof_C 	C 	0.14293	0.8091	0.6646	-0.327
Mof_H 	H 	0.1424	0.8739	0.6824	0.15
Mof_C 	C 	0.16104	0.7881	0.6333	0.21
Mof_H 	H 	0.1724	0.8396	0.6294	-0.043
Mof_C 	C 	0.16266	0.6943	0.6082	-0.265
Mof_H 	H 	0.1756	0.6798	0.5891	0.127
Mof_C 	C 	0.14452	0.6191	0.6114	0.166
Mof_H 	H 	0.1449	0.5557	0.5918	-0.015
Mof_C 	C 	0.12634	0.6361	0.6424	-0.241
Mof_C 	C 	0.10751	0.5538	0.6454	0.368
Mof_C 	C 	0.17835	0.8275	0.0594	0.399
Mof_C 	C 	0.17566	0.8718	0.1214	-0.264
Mof_C 	C 	0.19694	0.9072	0.1685	0.185
Mof_H 	H 	0.2132	0.9066	0.1617	-0.027
Mof_C 	C 	0.19435	0.9438	0.2262	-0.266
Mof_H 	H 	0.2089	0.9685	0.2579	0.115
Mof_C 	C 	0.17071	0.9444	0.2374	0.2
Mof_H 	H 	0.1694	0.9667	0.2772	-0.052
Mof_C 	C 	0.14876	0.9119	0.1899	-0.332
Mof_H 	H 	0.1325	0.9139	0.1966	0.159
Mof_C 	C 	0.15167	0.8765	0.1324	0.312
Mof_C 	C 	0.10987	0.9053	0.0608	0.319
Mof_C 	C 	0.11417	0.9938	0.0313	-0.34
Mof_H 	H 	0.1308	0.0105	0.0305	0.162
Mof_C 	C 	0.09362	0.0578	0.0029	0.221
Mof_H 	H 	0.0963	0.1174	0.982	-0.046
Mof_C 	C 	0.06932	0.034	0.0053	-0.282
Mof_H 	H 	0.0555	0.0781	0.9869	0.127
Mof_C 	C 	0.06525	0.9455	0.0347	0.182
Mof_H 	H 	0.0485	0.9296	0.0355	-0.023
Mof_C 	C 	0.08537	0.8789	0.0632	-0.261
Mof_C 	C 	0.08025	0.7821	0.0963	0.382
Mof_N 	N 	0.1599	0.5025	0.7749	-0.116
Mof_C 	C 	0.1668	0.4484	0.7407	0.209
Mof_C 	C 	0.1971	0.5555	0.7554	-0.179
Mof_H 	H 	0.2121	0.5928	0.7532	-0.028
Mof_N 	N 	0.1845	0.46	0.7186	0.064
Mof_C 	C 	0.1818	0.5851	0.7882	-0.119
Mof_H 	H 	0.1837	0.6422	0.8174	0.029
Mof_C 	C 	0.1501	0.3551	0.7119	0.072
Mof_H 	H 	0.136	0.343	0.7297	-0.144
Mof_H 	H 	0.1619	0.298	0.7219	0.102
Mof_H 	H 	0.1433	0.3627	0.6657	0.09
Mof_Cd	Cd	0.62505	0.03483	0.80894	0.486
Mof_Cd	Cd	0.67366	0.20302	0.95032	0.452
Mof_Cd	Cd	0.57503	0.8958	0.65635	0.459
Mof_O 	O 	0.65534	0.048	0.9143	-0.321
Mof_O 	O 	0.69095	0.0175	0.992	-0.293
Mof_O 	O 	0.62171	0.889	0.9052	-0.321
Mof_O 	O 	0.59986	0.8817	0.7778	-0.304
Mof_O 	O 	0.55947	0.8327	0.7393	-0.313
Mof_O 	O 	0.64115	0.2053	0.812	-0.306
Mof_O 	O 	0.64326	0.3086	0.895	-0.307
Mof_O 	O 	0.60606	0.2523	0.6966	-0.3
Mof_O 	O 	0.60024	0.0439	0.6958	-0.296
Mof_O 	O 	0.59964	0.9938	0.5978	-0.299
Mof_O 	O 	0.67166	0.2347	0.0487	-0.309
Mof_O 	O 	0.68728	0.3786	0.0242	-0.311
Mof_O 	O 	0.63029	0.3383	0.0855	-0.315
Mof_O 	O 	0.59585	0.2532	0.1467	-0.307
Mof_O 	O 	0.55926	0.2353	0.0698	-0.296
Mof_N 	N 	0.59083	0.107	0.831	-0.189
Mof_N 	N 	0.56707	0.2131	0.869	-0.155
Mof_N 	N 	0.49506	0.0922	0.9234	-0.152
Mof_N 	N 	0.46055	0.9918	0.8926	-0.187
Mof_N 	N 	0.75582	0.7874	0.5969	-0.16
Mof_N 	N 	0.78904	0.7218	0.5715	-0.195
Mof_C 	C 	0.5883	0.1496	0.8849	0.358
Mof_C 	C 	0.55621	0.208	0.8025	-0.015
Mof_H 	H 	0.5415	0.2428	0.778	0.038
Mof_C 	C 	0.57084	0.1435	0.7802	0.01
Mof_H 	H 	0.5679	0.126	0.7368	0.046
Mof_C 	C 	0.60463	0.1341	0.9525	-0.978
Mof_H 	H 	0.6107	0.1996	0.9718	0.343
Mof_H 	H 	0.5946	0.1012	0.9768	0.338
Mof_H 	H 	0.6192	0.0916	0.953	0.349
Mof_C 	C 	0.55975	0.2835	0.9128	-0.107
Mof_H 	H 	0.5624	0.2498	0.9543	0.073
Mof_H 	H 	0.571	0.3432	0.9198	0.072
Mof_C 	C 	0.53246	0.3177	0.888	0.038
Mof_C 	C 	0.52649	0.414	0.8587	-0.088
Mof_H 	H 	0.5399	0.4574	0.8568	0.063
Mof_C 	C 	0.50162	0.446	0.833	-0.013
Mof_H 	H 	0.4983	0.5104	0.8136	0.034
Mof_C 	C 	0.48176	0.3858	0.8352	-0.042
Mof_H 	H 	0.4648	0.4084	0.8171	0.048
Mof_C 	C 	0.48645	0.2891	0.8646	-0.069
Mof_H 	H 	0.4726	0.2482	0.8671	0.062
Mof_C 	C 	0.51193	0.2539	0.8902	0.021
Mof_C 	C 	0.51786	0.1502	0.9221	-0.095
Mof_H 	H 	0.5289	0.1597	0.9662	0.079
Mof_H 	H 	0.5275	0.1101	0.8992	0.058
Mof_C 	C 	0.48121	0.0256	0.8779	0.319
Mof_C 	C 	0.46091	0.0407	0.949	0.013
Mof_H 	H 	0.4484	0.0324	0.9704	0.035
Mof_C 	C 	0.48189	0.1026	0.9692	-0.01
Mof_H 	H 	0.4865	0.1436	0.0061	0.038
Mof_C 	C 	0.48869	0.9949	0.8195	-0.859
Mof_H 	H 	0.4772	0.9418	0.7966	0.297
Mof_H 	H 	0.4874	0.0535	0.7916	0.275
Mof_H 	H 	0.5062	0.9699	0.8326	0.281
Mof_N 	N 	0.65248	0.948	0.7689	-0.116
Mof_C 	C 	0.67424	0.9954	0.7562	0.068
Mof_N 	N 	0.68125	0.9346	0.7094	-0.176
Mof_C 	C 	0.66381	0.8497	0.6932	-0.302
Mof_H 	H 	0.6641	0.7993	0.6622	0.141
Mof_C 	C 	0.6467	0.8592	0.7351	-0.013
Mof_H 	H 	0.6329	0.8123	0.7339	0.176
Mof_C 	C 	0.6884	0.0916	0.7786	-0.035
Mof_H 	H 	0.7025	0.1053	0.7611	0.164
Mof_H 	H 	0.6951	0.0843	0.8248	0.082
Mof_H 	H 	0.6763	0.1476	0.7683	0.082
Mof_C 	C 	0.70062	0.9272	0.682	-0.066
Mof_H 	H 	0.694	0.8946	0.6405	0.075
Mof_H 	H 	0.706	0.9953	0.6748	0.062
Mof_C 	C 	0.72404	0.8681	0.7214	0.026
Mof_C 	C 	0.72653	0.8422	0.7858	-0.077
Mof_H 	H 	0.7138	0.8622	0.8045	0.069
Mof_C 	C 	0.74687	0.7895	0.8201	-0.016
Mof_H 	H 	0.7479	0.7713	0.8624	0.031
Mof_C 	C 	0.76675	0.7601	0.7956	-0.045
Mof_H 	H 	0.7816	0.7277	0.8216	0.041
Mof_C 	C 	0.76379	0.7803	0.7322	-0.059
Mof_H 	H 	0.7765	0.7586	0.714	0.047
Mof_C 	C 	0.74253	0.8319	0.6943	0.014
Mof_C 	C 	0.73942	0.8519	0.623	-0.085
Mof_H 	H 	0.7434	0.9234	0.6176	0.051
Mof_H 	H 	0.7214	0.8404	0.5982	0.074
Mof_C 	C 	0.77961	0.8027	0.5938	0.333
Mof_C 	C 	0.76934	0.6478	0.56	0.004
Mof_H 	H 	0.7701	0.582	0.5438	0.041
Mof_C 	C 	0.74951	0.6864	0.5759	-0.013
Mof_H 	H 	0.7341	0.6525	0.5736	0.052
Mof_C 	C 	0.79423	0.9007	0.6105	-0.875
Mof_H 	H 	0.8004	0.9216	0.5751	0.307
Mof_H 	H 	0.783	0.9529	0.6188	0.286
Mof_H 	H 	0.8088	0.8909	0.6486	0.289
Mof_C 	C 	0.6717	0.9847	0.9501	0.368
Mof_C 	C 	0.66756	0.8727	0.9418	-0.223
Mof_C 	C 	0.68966	0.8085	0.9612	0.113
Mof_H 	H 	0.7061	0.8378	0.9755	-0.003
Mof_C 	C 	0.687	0.6972	0.9593	-0.214
Mof_H 	H 	0.7013	0.6539	0.9741	0.101
Mof_C 	C 	0.66257	0.6598	0.9348	0.17
Mof_H 	H 	0.6605	0.5888	0.9311	-0.027
Mof_C 	C 	0.64074	0.7189	0.9153	-0.295
Mof_H 	H 	0.6245	0.6887	0.8985	0.139
Mof_C 	C 	0.64324	0.825	0.9209	0.291
Mof_C 	C 	0.5983	0.8509	0.9086	0.337
Mof_C 	C 	0.59541	0.8375	0.9687	-0.363
Mof_H 	H 	0.6094	0.8501	0.0053	0.171
Mof_C 	C 	0.57243	0.806	0.9759	0.246
Mof_H 	H 	0.5709	0.7964	0.0173	-0.053
Mof_C 	C 	0.55162	0.7886	0.9229	-0.301
Mof_H 	H 	0.5359	0.7661	0.9275	0.129
Mof_C 	C 	0.55439	0.8052	0.8621	0.191
Mof_H 	H 	0.5401	0.7956	0.8257	-0.034
Mof_C 	C 	0.57782	0.8358	0.8534	-0.282
Mof_C 	C 	0.57946	0.8513	0.7868	0.385
Mof_C 	C 	0.63504	0.2836	0.8354	0.369
Mof_C 	C 	0.61652	0.3601	0.7925	-0.234
Mof_C 	C 	0.61068	0.4517	0.8192	0.146
Mof_H 	H 	0.618	0.4637	0.8634	-0.007
Mof_C 	C 	0.59434	0.5251	0.7816	-0.244
Mof_H 	H 	0.5907	0.5853	0.8006	0.118
Mof_C 	C 	0.58386	0.5093	0.7183	0.18
Mof_H 	H 	0.5731	0.5592	0.6931	-0.025
Mof_C 	C 	0.58873	0.4191	0.689	-0.292
Mof_H 	H 	0.5813	0.4083	0.6447	0.144
Mof_C 	C 	0.60496	0.3453	0.7275	0.29
Mof_C 	C 	0.62547	0.2342	0.6697	0.316
Mof_C 	C 	0.64293	0.3091	0.6646	-0.327
Mof_H 	H 	0.6424	0.3739	0.6824	0.15
Mof_C 	C 	0.66104	0.2881	0.6333	0.21
Mof_H 	H 	0.6724	0.3396	0.6294	-0.043
Mof_C 	C 	0.66266	0.1943	0.6082	-0.265
Mof_H 	H 	0.6756	0.1798	0.5891	0.127
Mof_C 	C 	0.64452	0.1191	0.6114	0.166
Mof_H 	H 	0.6449	0.0557	0.5918	-0.015
Mof_C 	C 	0.62634	0.1361	0.6424	-0.241
Mof_C 	C 	0.60751	0.0538	0.6454	0.368
Mof_C 	C 	0.67835	0.3275	0.0594	0.399
Mof_C 	C 	0.67566	0.3718	0.1214	-0.264
Mof_C 	C 	0.69694	0.4072	0.1685	0.185
Mof_H 	H 	0.7132	0.4066	0.1617	-0.027
Mof_C 	C 	0.69435	0.4438	0.2262	-0.266
Mof_H 	H 	0.7089	0.4685	0.2579	0.115
Mof_C 	C 	0.67071	0.4444	0.2374	0.2
Mof_H 	H 	0.6694	0.4667	0.2772	-0.052
Mof_C 	C 	0.64876	0.4119	0.1899	-0.332
Mof_H 	H 	0.6325	0.4139	0.1966	0.159
Mof_C 	C 	0.65167	0.3765	0.1324	0.312
Mof_C 	C 	0.60987	0.4053	0.0608	0.318
Mof_C 	C 	0.61417	0.4938	0.0313	-0.337
Mof_H 	H 	0.6308	0.5105	0.0305	0.161
Mof_C 	C 	0.59362	0.5578	0.0029	0.219
Mof_H 	H 	0.5963	0.6174	0.982	-0.045
Mof_C 	C 	0.56932	0.534	0.0053	-0.282
Mof_H 	H 	0.5555	0.5781	0.9869	0.127
Mof_C 	C 	0.56525	0.4455	0.0347	0.183
Mof_H 	H 	0.5485	0.4296	0.0355	-0.023
Mof_C 	C 	0.58537	0.3789	0.0632	-0.261
Mof_C 	C 	0.58025	0.2821	0.0963	0.382
Mof_N 	N 	0.6599	0.0025	0.7749	-0.116
Mof_C 	C 	0.6668	0.9484	0.7407	0.21
Mof_C 	C 	0.6971	0.0555	0.7554	-0.179
Mof_H 	H 	0.7121	0.0928	0.7532	-0.028
Mof_N 	N 	0.6845	0.96	0.7186	0.064
Mof_C 	C 	0.6818	0.0851	0.7882	-0.118
Mof_H 	H 	0.6837	0.1422	0.8174	0.029
Mof_C 	C 	0.6501	0.8551	0.7119	0.072
Mof_H 	H 	0.636	0.843	0.7297	-0.144
Mof_H 	H 	0.6619	0.798	0.7219	0.102
Mof_H 	H 	0.6433	0.8627	0.6657	0.09
_end
