# CIF file generated by openbabel 3.1.0, see https://openbabel.org
data_I
_chemical_name_common 'image0'
_cell_length_a 9.2276
_cell_length_b 9.2861
_cell_length_c 9.3789
_cell_angle_alpha 85.2128
_cell_angle_beta 77.3119
_cell_angle_gamma 89.3472
_space_group_name_H-M_alt 'P 1'
_space_group_name_Hall 'P 1'
loop_
    _symmetry_equiv_pos_as_xyz
    x,y,z
loop_
    _atom_site_label
    _atom_site_type_symbol
    _atom_site_fract_x
    _atom_site_fract_y
    _atom_site_fract_z
    _atom_site_occupancy
    Al1      Al       0.86640    0.06530    0.08410    1.000
    P1       P        0.17000    0.13943    0.13700    1.000
    P2       P        0.37550    0.12060    0.67611    1.000
    P3       P        0.62090    0.31593    0.09528    1.000
    Al2      Al       0.62320    0.65829    0.08560    1.000
    Al3      Al       0.39560    0.11930    0.33950    1.000
    O1       O        0.77280    0.23360    0.06680    1.000
    O2       O        0.52710    0.05100    0.66900    1.000
    O3       O        0.25400    0.01260    0.74600    1.000
    O4       O        0.99990    0.14470    0.18550    1.000
    O5       O        0.54020    0.31230    0.96190    1.000
    O6       O        0.23290    0.02360    0.03670    1.000
    O7       O        0.36110    0.16780    0.51720    1.000
    O8       O        0.64930    0.47510    0.12420    1.000
    O9       O        0.22780    0.11940    0.28030    1.000
    O10      O        0.23150    0.28630    0.05970    1.000
    O11      O        0.36820    0.25520    0.75660    1.000
    O12      O        0.51170    0.25460    0.23330    1.000
    F1       F        0.01540    0.10500    0.91940    1.000
    Al4      Al       0.13360    0.93470    0.91590    1.000
    P4       P        0.83000    0.86057    0.86300    1.000
    P5       P        0.62450    0.87940    0.32389    1.000
    P6       P        0.37910    0.68407    0.90472    1.000
    Al5      Al       0.37680    0.34171    0.91440    1.000
    Al6      Al       0.60440    0.88070    0.66050    1.000
    O13      O        0.22720    0.76640    0.93320    1.000
    O14      O        0.47290    0.94900    0.33100    1.000
    O15      O        0.74600    0.98740    0.25400    1.000
    O16      O        0.00010    0.85530    0.81450    1.000
    O17      O        0.45980    0.68770    0.03810    1.000
    O18      O        0.76710    0.97640    0.96330    1.000
    O19      O        0.63890    0.83220    0.48280    1.000
    O20      O        0.35070    0.52490    0.87580    1.000
    O21      O        0.77220    0.88060    0.71970    1.000
    O22      O        0.76850    0.71370    0.94030    1.000
    O23      O        0.63180    0.74480    0.24340    1.000
    O24      O        0.48830    0.74540    0.76670    1.000
    F2       F        0.98460    0.89500    0.08060    1.000
