# CIF file generated by openbabel 3.1.0, see https://openbabel.org
data_I
_chemical_name_common 'image0'
_cell_length_a 13.8425
_cell_length_b 13.8425
_cell_length_c 20.2042
_cell_angle_alpha 90
_cell_angle_beta 90
_cell_angle_gamma 120
_space_group_name_H-M_alt 'P 1'
_space_group_name_Hall 'P 1'
loop_
    _symmetry_equiv_pos_as_xyz
    x,y,z
loop_
    _atom_site_label
    _atom_site_type_symbol
    _atom_site_fract_x
    _atom_site_fract_y
    _atom_site_fract_z
    _atom_site_occupancy
    Al1      Al       0.89367    0.33146    0.82478    1.000
    Al2      Al       0.99468    0.22580    0.57371    1.000
    P1       P        0.89452    0.33349    0.66873    1.000
    P2       P        0.76950    0.99571    0.58162    1.000
    O1       O        0.92610    0.32700    0.73920    1.000
    O2       O        0.75550    0.22530    0.84490    1.000
    O3       O        0.88980    0.08780    0.59030    1.000
    O4       O        0.97120    0.31670    0.62330    1.000
    O5       O        0.90830    0.46170    0.84500    1.000
    O6       O        0.12470    0.24050    0.59860    1.000
    O7       O        0.99630    0.26400    0.48890    1.000
    O8       O        0.98650    0.30640    0.87190    1.000
    Al3      Al       0.66854    0.56221    0.82478    1.000
    Al4      Al       0.77420    0.76888    0.57371    1.000
    P3       P        0.66651    0.56103    0.66873    1.000
    P4       P        0.00429    0.77379    0.58162    1.000
    O9       O        0.67300    0.59910    0.73920    1.000
    O10      O        0.77470    0.53020    0.84490    1.000
    O11      O        0.91220    0.80200    0.59030    1.000
    O12      O        0.68330    0.65450    0.62330    1.000
    O13      O        0.53830    0.44660    0.84500    1.000
    O14      O        0.75950    0.88420    0.59860    1.000
    O15      O        0.73600    0.73230    0.48890    1.000
    O16      O        0.69360    0.68010    0.87190    1.000
    Al5      Al       0.43779    0.10633    0.82478    1.000
    Al6      Al       0.23112    0.00532    0.57371    1.000
    P5       P        0.43897    0.10548    0.66873    1.000
    P6       P        0.22621    0.23050    0.58162    1.000
    O17      O        0.40090    0.07390    0.73920    1.000
    O18      O        0.46980    0.24450    0.84490    1.000
    O19      O        0.19800    0.11020    0.59030    1.000
    O20      O        0.34550    0.02880    0.62330    1.000
    O21      O        0.55340    0.09170    0.84500    1.000
    O22      O        0.11580    0.87530    0.59860    1.000
    O23      O        0.26770    0.00370    0.48890    1.000
    O24      O        0.31990    0.01350    0.87190    1.000
    Al7      Al       0.66854    0.10633    0.67522    1.000
    Al8      Al       0.77420    0.00532    0.92629    1.000
    P7       P        0.66651    0.10548    0.83127    1.000
    P8       P        0.00429    0.23050    0.91838    1.000
    O25      O        0.67300    0.07390    0.76080    1.000
    O26      O        0.77470    0.24450    0.65510    1.000
    O27      O        0.91220    0.11020    0.90970    1.000
    O28      O        0.68330    0.02880    0.87670    1.000
    O29      O        0.53830    0.09170    0.65500    1.000
    O30      O        0.75950    0.87530    0.90140    1.000
    O31      O        0.73600    0.00370    0.01110    1.000
    O32      O        0.69360    0.01350    0.62810    1.000
    Al9      Al       0.43779    0.33146    0.67522    1.000
    Al10     Al       0.23112    0.22580    0.92629    1.000
    P9       P        0.43897    0.33349    0.83127    1.000
    P10      P        0.22621    0.99571    0.91838    1.000
    O33      O        0.40090    0.32700    0.76080    1.000
    O34      O        0.46980    0.22530    0.65510    1.000
    O35      O        0.19800    0.08780    0.90970    1.000
    O36      O        0.34550    0.31670    0.87670    1.000
    O37      O        0.55340    0.46170    0.65500    1.000
    O38      O        0.11580    0.24050    0.90140    1.000
    O39      O        0.26770    0.26400    0.01110    1.000
    O40      O        0.31990    0.30640    0.62810    1.000
    Al11     Al       0.89367    0.56221    0.67522    1.000
    Al12     Al       0.99468    0.76888    0.92629    1.000
    P11      P        0.89452    0.56103    0.83127    1.000
    P12      P        0.76950    0.77379    0.91838    1.000
    O41      O        0.92610    0.59910    0.76080    1.000
    O42      O        0.75550    0.53020    0.65510    1.000
    O43      O        0.88980    0.80200    0.90970    1.000
    O44      O        0.97120    0.65450    0.87670    1.000
    O45      O        0.90830    0.44660    0.65500    1.000
    O46      O        0.12470    0.88420    0.90140    1.000
    O47      O        0.99630    0.73230    0.01110    1.000
    O48      O        0.98650    0.68010    0.62810    1.000
    Al13     Al       0.10633    0.66854    0.17522    1.000
    Al14     Al       0.00532    0.77420    0.42629    1.000
    P13      P        0.10548    0.66651    0.33127    1.000
    P14      P        0.23050    0.00429    0.41838    1.000
    O49      O        0.07390    0.67300    0.26080    1.000
    O50      O        0.24450    0.77470    0.15510    1.000
    O51      O        0.11020    0.91220    0.40970    1.000
    O52      O        0.02880    0.68330    0.37670    1.000
    O53      O        0.09170    0.53830    0.15500    1.000
    O54      O        0.87530    0.75950    0.40140    1.000
    O55      O        0.00370    0.73600    0.51110    1.000
    O56      O        0.01350    0.69360    0.12810    1.000
    Al15     Al       0.33146    0.43779    0.17522    1.000
    Al16     Al       0.22580    0.23112    0.42629    1.000
    P15      P        0.33349    0.43897    0.33127    1.000
    P16      P        0.99571    0.22621    0.41838    1.000
    O57      O        0.32700    0.40090    0.26080    1.000
    O58      O        0.22530    0.46980    0.15510    1.000
    O59      O        0.08780    0.19800    0.40970    1.000
    O60      O        0.31670    0.34550    0.37670    1.000
    O61      O        0.46170    0.55340    0.15500    1.000
    O62      O        0.24050    0.11580    0.40140    1.000
    O63      O        0.26400    0.26770    0.51110    1.000
    O64      O        0.30640    0.31990    0.12810    1.000
    Al17     Al       0.56221    0.89367    0.17522    1.000
    Al18     Al       0.76888    0.99468    0.42629    1.000
    P17      P        0.56103    0.89452    0.33127    1.000
    P18      P        0.77379    0.76950    0.41838    1.000
    O65      O        0.59910    0.92610    0.26080    1.000
    O66      O        0.53020    0.75550    0.15510    1.000
    O67      O        0.80200    0.88980    0.40970    1.000
    O68      O        0.65450    0.97120    0.37670    1.000
    O69      O        0.44660    0.90830    0.15500    1.000
    O70      O        0.88420    0.12470    0.40140    1.000
    O71      O        0.73230    0.99630    0.51110    1.000
    O72      O        0.68010    0.98650    0.12810    1.000
    Al19     Al       0.33146    0.89367    0.32478    1.000
    Al20     Al       0.22580    0.99468    0.07371    1.000
    P19      P        0.33349    0.89452    0.16873    1.000
    P20      P        0.99571    0.76950    0.08162    1.000
    O73      O        0.32700    0.92610    0.23920    1.000
    O74      O        0.22530    0.75550    0.34490    1.000
    O75      O        0.08780    0.88980    0.09030    1.000
    O76      O        0.31670    0.97120    0.12330    1.000
    O77      O        0.46170    0.90830    0.34500    1.000
    O78      O        0.24050    0.12470    0.09860    1.000
    O79      O        0.26400    0.99630    0.98890    1.000
    O80      O        0.30640    0.98650    0.37190    1.000
    Al21     Al       0.56221    0.66854    0.32478    1.000
    Al22     Al       0.76888    0.77420    0.07371    1.000
    P21      P        0.56103    0.66651    0.16873    1.000
    P22      P        0.77379    0.00429    0.08162    1.000
    O81      O        0.59910    0.67300    0.23920    1.000
    O82      O        0.53020    0.77470    0.34490    1.000
    O83      O        0.80200    0.91220    0.09030    1.000
    O84      O        0.65450    0.68330    0.12330    1.000
    O85      O        0.44660    0.53830    0.34500    1.000
    O86      O        0.88420    0.75950    0.09860    1.000
    O87      O        0.73230    0.73600    0.98890    1.000
    O88      O        0.68010    0.69360    0.37190    1.000
    Al23     Al       0.10633    0.43779    0.32478    1.000
    Al24     Al       0.00532    0.23112    0.07371    1.000
    P23      P        0.10548    0.43897    0.16873    1.000
    P24      P        0.23050    0.22621    0.08162    1.000
    O89      O        0.07390    0.40090    0.23920    1.000
    O90      O        0.24450    0.46980    0.34490    1.000
    O91      O        0.11020    0.19800    0.09030    1.000
    O92      O        0.02880    0.34550    0.12330    1.000
    O93      O        0.09170    0.55340    0.34500    1.000
    O94      O        0.87530    0.11580    0.09860    1.000
    O95      O        0.00370    0.26770    0.98890    1.000
    O96      O        0.01350    0.31990    0.37190    1.000
