data_functionalizedCrystal
_audit_creation_method	'EQeq! by Chris Wilmer'
_symmetry_space_group_name_H-M	'P1'
_symmetry_Int_Tables_number	1
_symmetry_cell_setting	triclinic
loop_
_symmetry_equiv_pos_as_xyz
  x,y,z
_cell_length_a	19.974
_cell_length_b	13.135
_cell_length_c	9.901
_cell_angle_alpha	90
_cell_angle_beta	113.308
_cell_angle_gamma	90
loop_
_atom_site_label
_atom_site_type_symbol
_atom_site_fract_x
_atom_site_fract_y
_atom_site_fract_z
_atom_site_charge
Mof_O 	O 	0.0838	0.0845	0.1487	-0.619
Mof_O 	O 	0.08962	0.9941	0.9659	-0.612
Mof_O 	O 	0.95992	0.8825	0.2964	-0.157
Mof_N 	N 	0.431	0.2817	0.6137	-0.23
Mof_N 	N 	0.3979	0.2652	0.4685	-0.183
Mof_H 	H 	0.4091	0.2968	0.4042	0.138
Mof_C 	C 	0.1157	0.0532	0.0713	0.603
Mof_C 	C 	0.1921	0.0901	0.1093	-0.239
Mof_C 	C 	0.2322	0.127	0.2469	0.107
Mof_H 	H 	0.2117	0.1296	0.3164	-0.003
Mof_C 	C 	0.3031	0.1607	0.2836	-0.116
Mof_C 	C 	0.3312	0.1599	0.177	0.056
Mof_H 	H 	0.3782	0.1838	0.1993	0.034
Mof_C 	C 	0.2904	0.1241	0.0381	-0.16
Mof_H 	H 	0.3099	0.1244	0.9669	0.089
Mof_C 	C 	0.2214	0.088	0.004	0.136
Mof_H 	H 	0.1943	0.0622	0.9107	-0.015
Mof_C 	C 	0.3456	0.1942	0.4342	0.162
Mof_C 	C 	0.3437	0.1624	0.5641	-0.204
Mof_H 	H 	0.3131	0.1137	0.5774	0.106
Mof_C 	C 	0.3976	0.2185	0.6717	0.129
Mof_H 	H 	0.4089	0.2125	0.772	-0.028
Mof_O 	O 	0.5838	0.5845	0.1487	-0.677
Mof_O 	O 	0.58962	0.4941	0.9659	-0.678
Mof_O 	O 	0.45992	0.3825	0.2964	-0.336
Mof_N 	N 	0.931	0.7817	0.6137	-0.155
Mof_N 	N 	0.8979	0.7652	0.4685	-0.181
Mof_H 	H 	0.9091	0.7968	0.4042	0.165
Mof_C 	C 	0.6157	0.5532	0.0713	0.671
Mof_C 	C 	0.6921	0.5901	0.1093	-0.272
Mof_C 	C 	0.7322	0.627	0.2469	0.13
Mof_H 	H 	0.7117	0.6296	0.3164	-0.014
Mof_C 	C 	0.8031	0.6607	0.2836	-0.118
Mof_C 	C 	0.8312	0.6599	0.177	0.061
Mof_H 	H 	0.8782	0.6838	0.1993	0.067
Mof_C 	C 	0.7904	0.6241	0.0381	-0.16
Mof_H 	H 	0.8099	0.6244	0.9669	0.099
Mof_C 	C 	0.7214	0.588	0.004	0.163
Mof_H 	H 	0.6943	0.5622	0.9107	-0.03
Mof_C 	C 	0.8456	0.6942	0.4342	0.176
Mof_C 	C 	0.8437	0.6624	0.5641	-0.191
Mof_H 	H 	0.8131	0.6137	0.5774	0.109
Mof_C 	C 	0.8976	0.7185	0.6717	0.134
Mof_H 	H 	0.9089	0.7125	0.772	0.013
Mof_O 	O 	0.9162	0.0845	0.3513	-0.524
Mof_O 	O 	0.91038	0.9941	0.5341	-0.526
Mof_O 	O 	0.04008	0.8825	0.2036	-0.322
Mof_N 	N 	0.569	0.2817	0.8863	-0.233
Mof_N 	N 	0.6021	0.2652	0.0315	-0.182
Mof_H 	H 	0.5909	0.2968	0.0958	0.137
Mof_C 	C 	0.8843	0.0532	0.4287	0.576
Mof_C 	C 	0.8079	0.0901	0.3907	-0.217
Mof_C 	C 	0.7678	0.127	0.2531	0.097
Mof_H 	H 	0.7883	0.1296	0.1836	0.001
Mof_C 	C 	0.6969	0.1607	0.2164	-0.112
Mof_C 	C 	0.6688	0.1599	0.323	0.052
Mof_H 	H 	0.6218	0.1838	0.3007	0.034
Mof_C 	C 	0.7096	0.1241	0.4619	-0.157
Mof_H 	H 	0.6901	0.1244	0.5331	0.089
Mof_C 	C 	0.7786	0.088	0.496	0.121
Mof_H 	H 	0.8057	0.0622	0.5893	-0.007
Mof_C 	C 	0.6544	0.1942	0.0658	0.166
Mof_C 	C 	0.6563	0.1624	0.9359	-0.212
Mof_H 	H 	0.6869	0.1137	0.9226	0.106
Mof_C 	C 	0.6024	0.2185	0.8283	0.132
Mof_H 	H 	0.5911	0.2125	0.728	-0.028
Mof_O 	O 	0.4162	0.5845	0.3513	-0.677
Mof_O 	O 	0.41038	0.4941	0.5341	-0.673
Mof_O 	O 	0.54008	0.3825	0.2036	-0.336
Mof_N 	N 	0.069	0.7817	0.8863	-0.229
Mof_N 	N 	0.1021	0.7652	0.0315	-0.188
Mof_H 	H 	0.0909	0.7968	0.0958	0.133
Mof_C 	C 	0.3843	0.5532	0.4287	0.667
Mof_C 	C 	0.3079	0.5901	0.3907	-0.281
Mof_C 	C 	0.2678	0.627	0.2531	0.141
Mof_H 	H 	0.2883	0.6296	0.1836	-0.018
Mof_C 	C 	0.1969	0.6607	0.2164	-0.144
Mof_C 	C 	0.1688	0.6599	0.323	0.081
Mof_H 	H 	0.1218	0.6838	0.3007	0.014
Mof_C 	C 	0.2096	0.6241	0.4619	-0.199
Mof_H 	H 	0.1901	0.6244	0.5331	0.097
Mof_C 	C 	0.2786	0.588	0.496	0.169
Mof_H 	H 	0.3057	0.5622	0.5893	-0.03
Mof_C 	C 	0.1544	0.6942	0.0658	0.171
Mof_C 	C 	0.1563	0.6624	0.9359	-0.221
Mof_H 	H 	0.1869	0.6137	0.9226	0.105
Mof_C 	C 	0.1024	0.7185	0.8283	0.117
Mof_H 	H 	0.0911	0.7125	0.728	-0.042
Mof_O 	O 	0.9162	0.9155	0.8513	-0.523
Mof_O 	O 	0.91038	0.0059	0.0341	-0.52
Mof_O 	O 	0.04008	0.1175	0.7036	-0.325
Mof_N 	N 	0.569	0.7183	0.3863	-0.23
Mof_N 	N 	0.6021	0.7348	0.5315	-0.183
Mof_H 	H 	0.5909	0.7032	0.5958	0.136
Mof_C 	C 	0.8843	0.9468	0.9287	0.565
Mof_C 	C 	0.8079	0.9099	0.8907	-0.208
Mof_C 	C 	0.7678	0.873	0.7531	0.091
Mof_H 	H 	0.7883	0.8704	0.6836	0.003
Mof_C 	C 	0.6969	0.8393	0.7164	-0.107
Mof_C 	C 	0.6688	0.8401	0.823	0.051
Mof_H 	H 	0.6218	0.8162	0.8007	0.034
Mof_C 	C 	0.7096	0.8759	0.9619	-0.16
Mof_H 	H 	0.6901	0.8756	0.0331	0.095
Mof_C 	C 	0.7786	0.912	0.996	0.102
Mof_H 	H 	0.8057	0.9378	0.0893	0.005
Mof_C 	C 	0.6544	0.8058	0.5658	0.158
Mof_C 	C 	0.6563	0.8376	0.4359	-0.201
Mof_H 	H 	0.6869	0.8863	0.4226	0.105
Mof_C 	C 	0.6024	0.7815	0.3283	0.128
Mof_H 	H 	0.5911	0.7875	0.228	-0.026
Mof_O 	O 	0.4162	0.4155	0.8513	-0.675
Mof_O 	O 	0.41038	0.5059	0.0341	-0.668
Mof_O 	O 	0.54008	0.6175	0.7036	-0.337
Mof_N 	N 	0.069	0.2183	0.3863	-0.226
Mof_N 	N 	0.1021	0.2348	0.5315	-0.189
Mof_H 	H 	0.0909	0.2032	0.5958	0.132
Mof_C 	C 	0.3843	0.4468	0.9287	0.659
Mof_C 	C 	0.3079	0.4099	0.8907	-0.276
Mof_C 	C 	0.2678	0.373	0.7531	0.136
Mof_H 	H 	0.2883	0.3704	0.6836	-0.017
Mof_C 	C 	0.1969	0.3393	0.7164	-0.14
Mof_C 	C 	0.1688	0.3401	0.823	0.08
Mof_H 	H 	0.1218	0.3162	0.8007	0.014
Mof_C 	C 	0.2096	0.3759	0.9619	-0.202
Mof_H 	H 	0.1901	0.3756	0.0331	0.101
Mof_C 	C 	0.2786	0.412	0.996	0.16
Mof_H 	H 	0.3057	0.4378	0.0893	-0.025
Mof_C 	C 	0.1544	0.3058	0.5658	0.162
Mof_C 	C 	0.1563	0.3376	0.4359	-0.21
Mof_H 	H 	0.1869	0.3863	0.4226	0.102
Mof_C 	C 	0.1024	0.2815	0.3283	0.113
Mof_H 	H 	0.0911	0.2875	0.228	-0.04
Mof_O 	O 	0.0838	0.9155	0.6487	-0.62
Mof_O 	O 	0.08962	0.0059	0.4659	-0.61
Mof_O 	O 	0.95992	0.1175	0.7964	-0.163
Mof_N 	N 	0.431	0.7183	0.1137	-0.228
Mof_N 	N 	0.3979	0.7348	0.9685	-0.185
Mof_H 	H 	0.4091	0.7032	0.9042	0.136
Mof_C 	C 	0.1157	0.9468	0.5713	0.598
Mof_C 	C 	0.1921	0.9099	0.6093	-0.235
Mof_C 	C 	0.2322	0.873	0.7469	0.103
Mof_H 	H 	0.2117	0.8704	0.8164	-0.002
Mof_C 	C 	0.3031	0.8393	0.7836	-0.112
Mof_C 	C 	0.3312	0.8401	0.677	0.054
Mof_H 	H 	0.3782	0.8162	0.6993	0.034
Mof_C 	C 	0.2904	0.8759	0.5381	-0.161
Mof_H 	H 	0.3099	0.8756	0.4669	0.092
Mof_C 	C 	0.2214	0.912	0.504	0.129
Mof_H 	H 	0.1943	0.9378	0.4107	-0.01
Mof_C 	C 	0.3456	0.8058	0.9342	0.153
Mof_C 	C 	0.3437	0.8376	0.0641	-0.193
Mof_H 	H 	0.3131	0.8863	0.0774	0.104
Mof_C 	C 	0.3976	0.7815	0.1717	0.126
Mof_H 	H 	0.4089	0.7875	0.272	-0.025
Mof_O 	O 	0.5838	0.4155	0.6487	-0.675
Mof_O 	O 	0.58962	0.5059	0.4659	-0.672
Mof_O 	O 	0.45992	0.6175	0.7964	-0.337
Mof_N 	N 	0.931	0.2183	0.1137	-0.151
Mof_N 	N 	0.8979	0.2348	0.9685	-0.183
Mof_H 	H 	0.9091	0.2032	0.9042	0.163
Mof_C 	C 	0.6157	0.4468	0.5713	0.663
Mof_C 	C 	0.6921	0.4099	0.6093	-0.268
Mof_C 	C 	0.7322	0.373	0.7469	0.126
Mof_H 	H 	0.7117	0.3704	0.8164	-0.014
Mof_C 	C 	0.8031	0.3393	0.7836	-0.116
Mof_C 	C 	0.8312	0.3401	0.677	0.064
Mof_H 	H 	0.8782	0.3162	0.6993	0.064
Mof_C 	C 	0.7904	0.3759	0.5381	-0.172
Mof_H 	H 	0.8099	0.3756	0.4669	0.109
Mof_C 	C 	0.7214	0.412	0.504	0.155
Mof_H 	H 	0.6943	0.4378	0.4107	-0.024
Mof_C 	C 	0.8456	0.3058	0.9342	0.164
Mof_C 	C 	0.8437	0.3376	0.0641	-0.177
Mof_H 	H 	0.8131	0.3863	0.0774	0.105
Mof_C 	C 	0.8976	0.2815	0.1717	0.13
Mof_H 	H 	0.9089	0.2875	0.272	0.017
Mof_Eu	Eu	-5.95687e-18	0.05855	0.25	2.066
Mof_O 	O 	-5.95687e-18	0.7426	0.25	-0.212
Mof_N 	N 	-5.95687e-18	0.8313	0.25	-0.004
Mof_Eu	Eu	0.5	0.55855	0.25	2.612
Mof_O 	O 	0.5	0.2426	0.25	-0.148
Mof_N 	N 	0.5	0.3313	0.25	0.079
Mof_Eu	Eu	1.94545e-33	0.94145	0.75	2.067
Mof_O 	O 	1.94545e-33	0.2574	0.75	-0.214
Mof_N 	N 	1.94545e-33	0.1687	0.75	-0.003
Mof_Eu	Eu	0.5	0.44145	0.75	2.61
Mof_O 	O 	0.5	0.7574	0.75	-0.149
Mof_N 	N 	0.5	0.6687	0.75	0.078
_end
