data_functionalizedCrystal
_audit_creation_method	'EQeq! by Chris Wilmer'
_symmetry_space_group_name_H-M	'P1'
_symmetry_Int_Tables_number	1
_symmetry_cell_setting	triclinic
loop_
_symmetry_equiv_pos_as_xyz
  x,y,z
_cell_length_a	11.2577
_cell_length_b	11.2577
_cell_length_c	15.9049
_cell_angle_alpha	115.848
_cell_angle_beta	115.848
_cell_angle_gamma	90.8657
loop_
_atom_site_label
_atom_site_type_symbol
_atom_site_fract_x
_atom_site_fract_y
_atom_site_fract_z
_atom_site_charge
Mof_H 	H 	0.92044	0.8163	0.42645	0.069
Mof_H 	H 	0.86776	0.98142	0.37253	0.065
Mof_H 	H 	0.57251	0.68675	0.07747	0.03
Mof_H 	H 	0.62519	0.52163	0.13139	0.041
Mof_C 	C 	0.77718	0.65526	0.28339	-0.084
Mof_C 	C 	0.8479	0.7893	0.35369	-0.012
Mof_C 	C 	0.81718	0.88554	0.32225	0.016
Mof_C 	C 	0.71577	0.84779	0.22053	-0.116
Mof_C 	C 	0.64506	0.71376	0.15024	0.01
Mof_C 	C 	0.67577	0.61751	0.18167	-0.017
Mof_C 	C 	0.81015	0.55197	0.31712	0.386
Mof_C 	C 	0.6828	0.95108	0.1868	0.443
Mof_O 	O 	0.74655	0.42733	0.25127	-0.384
Mof_O 	O 	0.90223	0.58739	0.41212	-0.353
Mof_O 	O 	0.58367	0.91745	0.09469	-0.381
Mof_O 	O 	0.75346	0.07394	0.24977	-0.425
Mof_O 	O 	0.66183	0.14795	0.09335	-0.476
Mof_H 	H 	0.19949	0.70703	0.56569	0.161
Mof_H 	H 	0.1837	0.07956	0.07355	0.015
Mof_H 	H 	0.01858	0.13224	0.12747	0.018
Mof_H 	H 	0.31325	0.42749	0.42253	0.051
Mof_H 	H 	0.47837	0.37481	0.36861	0.043
Mof_C 	C 	0.34474	0.22282	0.21661	-0.115
Mof_C 	C 	0.2107	0.1521	0.14631	-0.002
Mof_C 	C 	0.11446	0.18282	0.17775	-0.029
Mof_C 	C 	0.15221	0.28423	0.27947	-0.085
Mof_C 	C 	0.28624	0.35494	0.34976	-0.022
Mof_C 	C 	0.38249	0.32423	0.31833	0.003
Mof_C 	C 	0.44803	0.18985	0.18288	0.391
Mof_C 	C 	0.04892	0.3172	0.3132	0.333
Mof_O 	O 	0.57267	0.25345	0.24873	-0.39
Mof_O 	O 	0.41261	0.09777	0.08788	-0.398
Mof_O 	O 	0.08255	0.41633	0.40531	-0.378
Mof_O 	O 	0.92606	0.24654	0.25023	-0.349
Mof_O 	O 	0.85205	0.33817	0.40665	-0.452
Mof_H 	H 	0.29297	0.80051	0.93431	0.172
Mof_H 	H 	0.07956	0.1837	0.57355	0.027
Mof_H 	H 	0.13224	0.01858	0.62747	0.029
Mof_H 	H 	0.42749	0.31325	0.92253	0.065
Mof_H 	H 	0.37481	0.47837	0.86861	0.053
Mof_C 	C 	0.22282	0.34474	0.71661	-0.109
Mof_C 	C 	0.1521	0.2107	0.64631	0.001
Mof_C 	C 	0.18282	0.11446	0.67775	-0.025
Mof_C 	C 	0.28423	0.15221	0.77947	-0.078
Mof_C 	C 	0.35494	0.28624	0.84976	-0.019
Mof_C 	C 	0.32423	0.38249	0.81833	0.007
Mof_C 	C 	0.18985	0.44803	0.68288	0.394
Mof_C 	C 	0.3172	0.04892	0.8132	0.341
Mof_O 	O 	0.25345	0.57267	0.74873	-0.387
Mof_O 	O 	0.09777	0.41261	0.58788	-0.392
Mof_O 	O 	0.41633	0.08255	0.90531	-0.347
Mof_O 	O 	0.24654	0.92606	0.75023	-0.353
Mof_O 	O 	0.33817	0.85205	0.90665	-0.432
Mof_H 	H 	0.80051	0.29297	0.43431	0.163
Mof_H 	H 	0.8163	0.92044	0.92645	0.083
Mof_H 	H 	0.98142	0.86776	0.87253	0.075
Mof_H 	H 	0.68675	0.57251	0.57747	0.041
Mof_H 	H 	0.52163	0.62519	0.63139	0.052
Mof_C 	C 	0.65526	0.77718	0.78339	-0.072
Mof_C 	C 	0.7893	0.8479	0.85369	-0.014
Mof_C 	C 	0.88554	0.81718	0.82225	0.025
Mof_C 	C 	0.84779	0.71577	0.72053	-0.114
Mof_C 	C 	0.71376	0.64506	0.65024	0.018
Mof_C 	C 	0.61751	0.67577	0.68167	-0.018
Mof_C 	C 	0.55197	0.81015	0.81712	0.38
Mof_C 	C 	0.95108	0.6828	0.6868	0.458
Mof_O 	O 	0.42733	0.74655	0.75127	-0.377
Mof_O 	O 	0.58739	0.90223	0.91212	-0.326
Mof_O 	O 	0.91745	0.58367	0.59469	-0.372
Mof_O 	O 	0.07394	0.75346	0.74977	-0.432
Mof_O 	O 	0.14795	0.66183	0.59335	-0.478
Mof_H 	H 	0.70703	0.19949	0.06569	0.15
Mof_Fe	Fe	0.75177	0.24823	0.25	1.098
Mof_Fe	Fe	0.24823	0.75177	0.75	1.101
Mof_Fe	Fe	0.5	0	-0	0.972
Mof_Fe	Fe	-5.45515e-17	0.5	0.5	1.033
_end
