# CIF file generated by openbabel 3.1.0, see https://openbabel.org
data_I
_chemical_name_common 'image0'
_cell_length_a 10.906
_cell_length_b 10.906
_cell_length_c 22.456
_cell_angle_alpha 90
_cell_angle_beta 90
_cell_angle_gamma 90
_space_group_name_H-M_alt 'P 1'
_space_group_name_Hall 'P 1'
loop_
    _symmetry_equiv_pos_as_xyz
    x,y,z
loop_
    _atom_site_label
    _atom_site_type_symbol
    _atom_site_fract_x
    _atom_site_fract_y
    _atom_site_fract_z
    _atom_site_occupancy
    C1       C        0.58330    0.06520    0.46360    1.000
    C2       C        0.41670    0.93480    0.46360    1.000
    C3       C        0.93480    0.58330    0.46360    1.000
    C4       C        0.06520    0.41670    0.46360    1.000
    C5       C        0.41670    0.06520    0.53640    1.000
    C6       C        0.58330    0.93480    0.53640    1.000
    C7       C        0.06520    0.58330    0.53640    1.000
    C8       C        0.93480    0.41670    0.53640    1.000
    C9       C        0.41670    0.93480    0.53640    1.000
    C10      C        0.58330    0.06520    0.53640    1.000
    C11      C        0.06520    0.41670    0.53640    1.000
    C12      C        0.93480    0.58330    0.53640    1.000
    C13      C        0.58330    0.93480    0.46360    1.000
    C14      C        0.41670    0.06520    0.46360    1.000
    C15      C        0.93480    0.41670    0.46360    1.000
    C16      C        0.06520    0.58330    0.46360    1.000
    Zn1      Zn       0.50000    0.50000    0.43384    1.000
    N1       N        0.50000    0.50000    0.34400    1.000
    N2       N        0.50000    0.50000    0.15480    1.000
    C17      C        0.50000    0.50000    0.22070    1.000
    C18      C        0.50000    0.50000    0.03190    1.000
    Zn2      Zn       0.50000    0.50000    0.56616    1.000
    N3       N        0.50000    0.50000    0.65600    1.000
    N4       N        0.50000    0.50000    0.84520    1.000
    C19      C        0.50000    0.50000    0.77930    1.000
    C20      C        0.50000    0.50000    0.96810    1.000
    O1       O        0.50000    0.31670    0.45060    1.000
    O2       O        0.50000    0.68330    0.45060    1.000
    O3       O        0.68330    0.50000    0.45060    1.000
    O4       O        0.31670    0.50000    0.45060    1.000
    O5       O        0.50000    0.31670    0.54940    1.000
    O6       O        0.50000    0.68330    0.54940    1.000
    O7       O        0.31670    0.50000    0.54940    1.000
    O8       O        0.68330    0.50000    0.54940    1.000
    O9       O        0.30300    0.50000    0.15740    1.000
    C21      C        0.39860    0.50000    0.31220    1.000
    C22      C        0.39500    0.50000    0.25040    1.000
    C23      C        0.39770    0.50000    0.12940    1.000
    C24      C        0.39700    0.50000    0.06220    1.000
    C25      C        0.28800    0.50000    0.03200    1.000
    H1       H        0.32310    0.50000    0.33330    1.000
    H2       H        0.31840    0.50000    0.23030    1.000
    H3       H        0.21210    0.50000    0.05300    1.000
    O10      O        0.69700    0.50000    0.15740    1.000
    C26      C        0.60140    0.50000    0.31220    1.000
    C27      C        0.60500    0.50000    0.25040    1.000
    C28      C        0.60230    0.50000    0.12940    1.000
    C29      C        0.60300    0.50000    0.06220    1.000
    C30      C        0.71200    0.50000    0.03200    1.000
    H4       H        0.67690    0.50000    0.33330    1.000
    H5       H        0.68160    0.50000    0.23030    1.000
    H6       H        0.78790    0.50000    0.05300    1.000
    O11      O        0.50000    0.30300    0.15740    1.000
    C31      C        0.50000    0.39860    0.31220    1.000
    C32      C        0.50000    0.39500    0.25040    1.000
    C33      C        0.50000    0.39770    0.12940    1.000
    C34      C        0.50000    0.39700    0.06220    1.000
    C35      C        0.50000    0.28800    0.03200    1.000
    H7       H        0.50000    0.32310    0.33330    1.000
    H8       H        0.50000    0.31840    0.23030    1.000
    H9       H        0.50000    0.21210    0.05300    1.000
    O12      O        0.50000    0.69700    0.15740    1.000
    C36      C        0.50000    0.60140    0.31220    1.000
    C37      C        0.50000    0.60500    0.25040    1.000
    C38      C        0.50000    0.60230    0.12940    1.000
    C39      C        0.50000    0.60300    0.06220    1.000
    C40      C        0.50000    0.71200    0.03200    1.000
    H10      H        0.50000    0.67690    0.33330    1.000
    H11      H        0.50000    0.68160    0.23030    1.000
    H12      H        0.50000    0.78790    0.05300    1.000
    O13      O        0.69700    0.50000    0.84260    1.000
    C41      C        0.60140    0.50000    0.68780    1.000
    C42      C        0.60500    0.50000    0.74960    1.000
    C43      C        0.60230    0.50000    0.87060    1.000
    C44      C        0.60300    0.50000    0.93780    1.000
    C45      C        0.71200    0.50000    0.96800    1.000
    H13      H        0.67690    0.50000    0.66670    1.000
    H14      H        0.68160    0.50000    0.76970    1.000
    H15      H        0.78790    0.50000    0.94700    1.000
    O14      O        0.30300    0.50000    0.84260    1.000
    C46      C        0.39860    0.50000    0.68780    1.000
    C47      C        0.39500    0.50000    0.74960    1.000
    C48      C        0.39770    0.50000    0.87060    1.000
    C49      C        0.39700    0.50000    0.93780    1.000
    C50      C        0.28800    0.50000    0.96800    1.000
    H16      H        0.32310    0.50000    0.66670    1.000
    H17      H        0.31840    0.50000    0.76970    1.000
    H18      H        0.21210    0.50000    0.94700    1.000
    O15      O        0.50000    0.30300    0.84260    1.000
    C51      C        0.50000    0.39860    0.68780    1.000
    C52      C        0.50000    0.39500    0.74960    1.000
    C53      C        0.50000    0.39770    0.87060    1.000
    C54      C        0.50000    0.39700    0.93780    1.000
    C55      C        0.50000    0.28800    0.96800    1.000
    H19      H        0.50000    0.32310    0.66670    1.000
    H20      H        0.50000    0.31840    0.76970    1.000
    H21      H        0.50000    0.21210    0.94700    1.000
    O16      O        0.50000    0.69700    0.84260    1.000
    C56      C        0.50000    0.60140    0.68780    1.000
    C57      C        0.50000    0.60500    0.74960    1.000
    C58      C        0.50000    0.60230    0.87060    1.000
    C59      C        0.50000    0.60300    0.93780    1.000
    C60      C        0.50000    0.71200    0.96800    1.000
    H22      H        0.50000    0.67690    0.66670    1.000
    H23      H        0.50000    0.68160    0.76970    1.000
    H24      H        0.50000    0.78790    0.94700    1.000
    C61      C        0.50000    0.26640    0.50000    1.000
    C62      C        0.50000    0.12890    0.50000    1.000
    C63      C        0.50000    0.73360    0.50000    1.000
    C64      C        0.50000    0.87110    0.50000    1.000
    C65      C        0.73360    0.50000    0.50000    1.000
    C66      C        0.87110    0.50000    0.50000    1.000
    C67      C        0.26640    0.50000    0.50000    1.000
    C68      C        0.12890    0.50000    0.50000    1.000
