# CIF file generated by openbabel 3.1.0, see https://openbabel.org
data_I
_chemical_name_common 'image0'
_cell_length_a 18.67
_cell_length_b 24.31
_cell_length_c 14.01
_cell_angle_alpha 89.258
_cell_angle_beta 135.719
_cell_angle_gamma 90.789
_space_group_name_H-M_alt 'P 1'
_space_group_name_Hall 'P 1'
loop_
    _symmetry_equiv_pos_as_xyz
    x,y,z
loop_
    _atom_site_label
    _atom_site_type_symbol
    _atom_site_fract_x
    _atom_site_fract_y
    _atom_site_fract_z
    _atom_site_occupancy
    C1       C        0.75060    0.37490    0.78810    1.000
    C2       C        0.77040    0.37720    0.63660    1.000
    C3       C        0.94700    0.57310    0.91030    1.000
    C4       C        0.57280    0.57620    0.52760    1.000
    C5       C        0.76000    0.67690    0.72040    1.000
    C6       C        0.76030    0.40740    0.71300    1.000
    C7       C        0.75990    0.47140    0.71480    1.000
    C8       C        0.85820    0.59120    0.51010    1.000
    C9       C        0.85490    0.59080    0.40650    1.000
    C10      C        0.76450    0.57560    0.27340    1.000
    C11      C        0.68030    0.56020    0.24880    1.000
    C12      C        0.68760    0.56010    0.35540    1.000
    C13      C        0.67010    0.59710    0.93150    1.000
    C14      C        0.67470    0.59890    0.03610    1.000
    C15      C        0.75800    0.57450    0.16380    1.000
    C16      C        0.83370    0.54780    0.18180    1.000
    C17      C        0.82500    0.54590    0.07390    1.000
    C18      C        0.75890    0.74080    0.72680    1.000
    C19      C        0.76940    0.77770    0.65720    1.000
    C20      C        0.76760    0.83680    0.66680    1.000
    C21      C        0.75520    0.86030    0.74650    1.000
    C22      C        0.74480    0.82400    0.81510    1.000
    C23      C        0.74660    0.76610    0.80540    1.000
    C24      C        0.75340    0.91940    0.75610    1.000
    C25      C        0.76390    0.95630    0.68650    1.000
    C26      C        0.77610    0.93100    0.60790    1.000
    C27      C        0.77800    0.87310    0.59820    1.000
    C28      C        0.13570    0.12360    0.01260    1.000
    C29      C        0.24300    0.12250    0.13620    1.000
    C30      C        0.27700    0.11990    0.26450    1.000
    C31      C        0.20260    0.11800    0.26650    1.000
    C32      C        0.09710    0.11890    0.14470    1.000
    C33      C        0.38430    0.11900    0.38810    1.000
    C34      C        0.45940    0.12050    0.38590    1.000
    C35      C        0.42280    0.12280    0.25590    1.000
    C36      C        0.31730    0.12390    0.13410    1.000
    C37      C        0.13340    0.58230    0.02560    1.000
    C38      C        0.24070    0.58110    0.14910    1.000
    C39      C        0.27470    0.57490    0.27710    1.000
    C40      C        0.20040    0.57040    0.27880    1.000
    C41      C        0.09490    0.57190    0.15700    1.000
    C42      C        0.38200    0.57340    0.40060    1.000
    C43      C        0.45720    0.57810    0.39880    1.000
    C44      C        0.42050    0.58480    0.26940    1.000
    C45      C        0.31500    0.58610    0.14760    1.000
    C46      C        0.76260    0.01640    0.70460    1.000
    C47      C        0.75100    0.31610    0.78680    1.000
    C48      C        0.77090    0.31840    0.63530    1.000
    C49      C        0.57500    0.11990    0.51470    1.000
    C50      C        0.94930    0.11750    0.89760    1.000
    C51      C        0.76120    0.28590    0.71040    1.000
    C52      C        0.76170    0.22190    0.70890    1.000
    C53      C        0.85550    0.09910    0.49600    1.000
    C54      C        0.85140    0.09750    0.39180    1.000
    C55      C        0.76510    0.11880    0.26140    1.000
    C56      C        0.68610    0.14250    0.24030    1.000
    C57      C        0.69440    0.14440    0.34790    1.000
    C58      C        0.66720    0.09800    0.91760    1.000
    C59      C        0.67090    0.09830    0.02160    1.000
    C60      C        0.75850    0.11770    0.15180    1.000
    C61      C        0.83960    0.13730    0.17310    1.000
    C62      C        0.83170    0.13750    0.06600    1.000
    C63      C        0.05830    0.57770    0.02740    1.000
    C64      C        0.06050    0.12190    0.01470    1.000
    H1       H        0.74210    0.39560    0.85260    1.000
    H2       H        0.77860    0.39980    0.57300    1.000
    H3       H        0.93120    0.60440    0.61750    1.000
    H4       H        0.92550    0.60260    0.43050    1.000
    H5       H        0.60580    0.54790    0.14180    1.000
    H6       H        0.61900    0.54620    0.33450    1.000
    H7       H        0.60320    0.61790    0.82880    1.000
    H8       H        0.61080    0.62010    0.01730    1.000
    H9       H        0.90220    0.52750    0.28430    1.000
    H10      H        0.88610    0.52320    0.08890    1.000
    H11      H        0.77940    0.75920    0.59260    1.000
    H12      H        0.73460    0.84090    0.88080    1.000
    H13      H        0.73800    0.73800    0.86230    1.000
    H14      H        0.74320    0.93630    0.82180    1.000
    H15      H        0.78510    0.95730    0.54910    1.000
    H16      H        0.78800    0.85460    0.53360    1.000
    H17      H        0.10880    0.12590    0.90950    1.000
    H18      H        0.22730    0.11580    0.36820    1.000
    H19      H        0.03840    0.11710    0.14910    1.000
    H20      H        0.40900    0.11700    0.48980    1.000
    H21      H        0.47920    0.12390    0.24730    1.000
    H22      H        0.29070    0.12590    0.03110    1.000
    H23      H        0.10650    0.58700    0.92270    1.000
    H24      H        0.22500    0.56540    0.38010    1.000
    H25      H        0.03610    0.56840    0.16110    1.000
    H26      H        0.40670    0.56820    0.50200    1.000
    H27      H        0.47690    0.58940    0.26120    1.000
    H28      H        0.28830    0.59140    0.04500    1.000
    H29      H        0.74270    0.29350    0.85020    1.000
    H30      H        0.77940    0.29770    0.57090    1.000
    H31      H        0.92480    0.08080    0.60090    1.000
    H32      H        0.91800    0.07900    0.41310    1.000
    H33      H        0.61510    0.16010    0.13560    1.000
    H34      H        0.63050    0.16480    0.33030    1.000
    H35      H        0.59670    0.08150    0.81270    1.000
    H36      H        0.60290    0.08290    0.00020    1.000
    H37      H        0.91170    0.15320    0.27780    1.000
    H38      H        0.89730    0.15480    0.08390    1.000
    N1       N        0.74480    0.57090    0.95200    1.000
    N2       N        0.77490    0.57610    0.48300    1.000
    N3       N        0.74720    0.11740    0.94140    1.000
    N4       N        0.77740    0.12230    0.47240    1.000
    O1       O        0.88590    0.57200    0.92340    1.000
    O2       O        0.60980    0.57350    0.64730    1.000
    O3       O        0.74990    0.64750    0.78700    1.000
    O4       O        0.75000    0.49710    0.78480    1.000
    O5       O        0.63410    0.57740    0.51470    1.000
    O6       O        0.90990    0.57490    0.79030    1.000
    O7       O        0.76960    0.49980    0.64670    1.000
    O8       O        0.77070    0.65210    0.65000    1.000
    O9       O        0.77270    0.04570    0.63780    1.000
    O10      O        0.75180    0.04120    0.77470    1.000
    O11      O        0.61210    0.11830    0.63470    1.000
    O12      O        0.88790    0.11630    0.91040    1.000
    O13      O        0.75210    0.19350    0.77710    1.000
    O14      O        0.91230    0.11990    0.77780    1.000
    O15      O        0.63620    0.12090    0.50160    1.000
    O16      O        0.77170    0.19620    0.63900    1.000
    O17      O        0.41990    0.54180    0.55770    1.000
    Zn1      Zn       0.74690    0.57200    0.81710    1.000
    Zn2      Zn       0.77310    0.57620    0.61870    1.000
    Zn3      Zn       0.74900    0.11720    0.80580    1.000
    Zn4      Zn       0.77530    0.12120    0.60750    1.000
