data_functionalizedCrystal
_audit_creation_method	'EQeq! by Chris Wilmer'
_symmetry_space_group_name_H-M	'P1'
_symmetry_Int_Tables_number	1
_symmetry_cell_setting	triclinic
loop_
_symmetry_equiv_pos_as_xyz
  x,y,z
_cell_length_a	19.685
_cell_length_b	14.332
_cell_length_c	16.93
_cell_angle_alpha	90
_cell_angle_beta	121.205
_cell_angle_gamma	90
loop_
_atom_site_label
_atom_site_type_symbol
_atom_site_fract_x
_atom_site_fract_y
_atom_site_fract_z
_atom_site_charge
Mof_Zn	Zn	0.24322	0.43239	0.36807	1.199
Mof_N 	N 	0.2433	0.4947	0.2561	-0.234
Mof_N 	N 	0.0353	0.4556	0.3728	-0.115
Mof_N 	N 	0.1444	0.4184	0.3761	-0.262
Mof_N 	N 	0.4724	0.4856	0.5891	-0.112
Mof_N 	N 	0.357	0.4329	0.4793	-0.253
Mof_O 	O 	0.2394	0.5795	0.3926	-0.398
Mof_O 	O 	0.2361	0.7192	0.3357	-0.244
Mof_O 	O 	0.3565	0.7644	0.2858	-0.284
Mof_O 	O 	0.2413	0.796	0.155	-0.442
Mof_C 	C 	0.242	0.6352	0.3364	0.302
Mof_C 	C 	0.2903	0.7412	0.2173	0.342
Mof_C 	C 	0.2508	0.5849	0.2629	-0.008
Mof_C 	C 	0.2688	0.6391	0.2031	-0.085
Mof_C 	C 	0.2669	0.5903	0.1316	0.037
Mof_H 	H 	0.2741	0.6219	0.0885	0.005
Mof_C 	C 	0.2545	0.496	0.1234	-0.115
Mof_H 	H 	0.2536	0.4646	0.0747	0.074
Mof_C 	C 	0.2436	0.447	0.1849	0.044
Mof_H 	H 	0.2365	0.3827	0.1793	0.032
Mof_C 	C 	0.1005	0.4877	0.3775	0.088
Mof_H 	H 	0.1137	0.5505	0.3814	0.007
Mof_C 	C 	0.1049	0.3392	0.3715	0.025
Mof_H 	H 	0.1216	0.279	0.3692	0.013
Mof_C 	C 	0.038	0.3605	0.3707	-0.019
Mof_H 	H 	0.0011	0.3189	0.3691	0.054
Mof_C 	C 	0.9739	0.5138	0.373	-0.035
Mof_H 	H 	0.9233	0.5011	0.3172	0.031
Mof_H 	H 	0.9866	0.5789	0.3714	0.047
Mof_C 	C 	0.9654	0.4983	0.4551	-0.103
Mof_H 	H 	0.9284	0.5445	0.4528	0.07
Mof_H 	H 	0.9409	0.4376	0.448	0.071
Mof_C 	C 	0.3968	0.507	0.5263	0.084
Mof_H 	H 	0.3753	0.5666	0.5171	0.008
Mof_C 	C 	0.4097	0.3623	0.5145	0.019
Mof_H 	H 	0.3989	0.3011	0.4933	0.025
Mof_C 	C 	0.4803	0.3926	0.5847	-0.016
Mof_H 	H 	0.5252	0.3568	0.6223	0.053
Mof_C 	C 	0.5303	0.5508	0.6573	-0.045
Mof_H 	H 	0.5131	0.6143	0.6368	0.052
Mof_H 	H 	0.5813	0.5418	0.6625	0.046
Mof_C 	C 	0.5394	0.5365	0.7515	-0.101
Mof_H 	H 	0.5728	0.5857	0.7928	0.068
Mof_H 	H 	0.5661	0.4775	0.7769	0.071
Mof_Zn	Zn	0.74322	0.93239	0.36807	1.2
Mof_N 	N 	0.7433	0.9947	0.2561	-0.234
Mof_N 	N 	0.5353	0.9556	0.3728	-0.114
Mof_N 	N 	0.6444	0.9184	0.3761	-0.261
Mof_N 	N 	0.9724	0.9856	0.5891	-0.112
Mof_N 	N 	0.857	0.9329	0.4793	-0.254
Mof_O 	O 	0.7394	0.0795	0.3926	-0.398
Mof_O 	O 	0.7361	0.2192	0.3357	-0.244
Mof_O 	O 	0.8565	0.2644	0.2858	-0.284
Mof_O 	O 	0.7413	0.296	0.155	-0.441
Mof_C 	C 	0.742	0.1352	0.3364	0.302
Mof_C 	C 	0.7903	0.2412	0.2173	0.342
Mof_C 	C 	0.7508	0.0849	0.2629	-0.006
Mof_C 	C 	0.7688	0.1391	0.2031	-0.087
Mof_C 	C 	0.7669	0.0903	0.1316	0.04
Mof_H 	H 	0.7741	0.1219	0.0885	0.004
Mof_C 	C 	0.7545	0.996	0.1234	-0.118
Mof_H 	H 	0.7536	0.9646	0.0747	0.074
Mof_C 	C 	0.7436	0.947	0.1849	0.045
Mof_H 	H 	0.7365	0.8827	0.1793	0.031
Mof_C 	C 	0.6005	0.9877	0.3775	0.087
Mof_H 	H 	0.6137	0.0505	0.3814	0.007
Mof_C 	C 	0.6049	0.8392	0.3715	0.025
Mof_H 	H 	0.6216	0.779	0.3692	0.013
Mof_C 	C 	0.538	0.8605	0.3707	-0.019
Mof_H 	H 	0.5011	0.8189	0.3691	0.054
Mof_C 	C 	0.4739	0.0138	0.373	-0.035
Mof_H 	H 	0.4233	0.0011	0.3172	0.031
Mof_H 	H 	0.4866	0.0789	0.3714	0.047
Mof_C 	C 	0.4654	0.9983	0.4551	-0.103
Mof_H 	H 	0.4284	0.0445	0.4528	0.071
Mof_H 	H 	0.4409	0.9376	0.448	0.072
Mof_C 	C 	0.8968	0.007	0.5263	0.085
Mof_H 	H 	0.8753	0.0666	0.5171	0.008
Mof_C 	C 	0.9097	0.8623	0.5145	0.019
Mof_H 	H 	0.8989	0.8011	0.4933	0.025
Mof_C 	C 	0.9803	0.8926	0.5847	-0.016
Mof_H 	H 	0.0252	0.8568	0.6223	0.053
Mof_C 	C 	0.0303	0.0508	0.6573	-0.044
Mof_H 	H 	0.0131	0.1143	0.6368	0.051
Mof_H 	H 	0.0813	0.0418	0.6625	0.046
Mof_C 	C 	0.0394	0.0365	0.7515	-0.105
Mof_H 	H 	0.0728	0.0857	0.7928	0.069
Mof_H 	H 	0.0661	0.9775	0.7769	0.072
Mof_Zn	Zn	0.75678	0.43239	0.13193	1.2
Mof_N 	N 	0.7567	0.4947	0.2439	-0.233
Mof_N 	N 	0.9647	0.4556	0.1272	-0.114
Mof_N 	N 	0.8556	0.4184	0.1239	-0.261
Mof_N 	N 	0.5276	0.4856	0.9109	-0.112
Mof_N 	N 	0.643	0.4329	0.0207	-0.253
Mof_O 	O 	0.7606	0.5795	0.1074	-0.398
Mof_O 	O 	0.7639	0.7192	0.1643	-0.244
Mof_O 	O 	0.6435	0.7644	0.2142	-0.284
Mof_O 	O 	0.7587	0.796	0.345	-0.441
Mof_C 	C 	0.758	0.6352	0.1636	0.302
Mof_C 	C 	0.7097	0.7412	0.2827	0.342
Mof_C 	C 	0.7492	0.5849	0.2371	-0.008
Mof_C 	C 	0.7312	0.6391	0.2969	-0.085
Mof_C 	C 	0.7331	0.5903	0.3684	0.037
Mof_H 	H 	0.7259	0.6219	0.4115	0.005
Mof_C 	C 	0.7455	0.496	0.3766	-0.115
Mof_H 	H 	0.7464	0.4646	0.4253	0.074
Mof_C 	C 	0.7564	0.447	0.3151	0.044
Mof_H 	H 	0.7635	0.3827	0.3207	0.032
Mof_C 	C 	0.8995	0.4877	0.1225	0.088
Mof_H 	H 	0.8863	0.5505	0.1186	0.007
Mof_C 	C 	0.8951	0.3392	0.1285	0.025
Mof_H 	H 	0.8784	0.279	0.1308	0.013
Mof_C 	C 	0.962	0.3605	0.1293	-0.019
Mof_H 	H 	0.9989	0.3189	0.1309	0.054
Mof_C 	C 	0.0261	0.5138	0.127	-0.035
Mof_H 	H 	0.0767	0.5011	0.1828	0.031
Mof_H 	H 	0.0134	0.5789	0.1286	0.047
Mof_C 	C 	0.0346	0.4983	0.0449	-0.103
Mof_H 	H 	0.0716	0.5445	0.0472	0.07
Mof_H 	H 	0.0591	0.4376	0.052	0.072
Mof_C 	C 	0.6032	0.507	0.9737	0.084
Mof_H 	H 	0.6247	0.5666	0.9829	0.009
Mof_C 	C 	0.5903	0.3623	0.9855	0.017
Mof_H 	H 	0.6011	0.3011	0.0067	0.026
Mof_C 	C 	0.5197	0.3926	0.9153	-0.015
Mof_H 	H 	0.4748	0.3568	0.8777	0.053
Mof_C 	C 	0.4697	0.5508	0.8427	-0.045
Mof_H 	H 	0.4869	0.6143	0.8632	0.052
Mof_H 	H 	0.4187	0.5418	0.8375	0.046
Mof_C 	C 	0.4606	0.5365	0.7485	-0.101
Mof_H 	H 	0.4272	0.5857	0.7072	0.068
Mof_H 	H 	0.4339	0.4775	0.7231	0.07
Mof_Zn	Zn	0.25678	0.93239	0.13193	1.2
Mof_N 	N 	0.2567	0.9947	0.2439	-0.233
Mof_N 	N 	0.4647	0.9556	0.1272	-0.114
Mof_N 	N 	0.3556	0.9184	0.1239	-0.261
Mof_N 	N 	0.0276	0.9856	0.9109	-0.11
Mof_N 	N 	0.143	0.9329	0.0207	-0.254
Mof_O 	O 	0.2606	0.0795	0.1074	-0.397
Mof_O 	O 	0.2639	0.2192	0.1643	-0.244
Mof_O 	O 	0.1435	0.2644	0.2142	-0.284
Mof_O 	O 	0.2587	0.296	0.345	-0.441
Mof_C 	C 	0.258	0.1352	0.1636	0.302
Mof_C 	C 	0.2097	0.2412	0.2827	0.342
Mof_C 	C 	0.2492	0.0849	0.2371	-0.007
Mof_C 	C 	0.2312	0.1391	0.2969	-0.086
Mof_C 	C 	0.2331	0.0903	0.3684	0.038
Mof_H 	H 	0.2259	0.1219	0.4115	0.004
Mof_C 	C 	0.2455	0.996	0.3766	-0.115
Mof_H 	H 	0.2464	0.9646	0.4253	0.074
Mof_C 	C 	0.2564	0.947	0.3151	0.044
Mof_H 	H 	0.2635	0.8827	0.3207	0.032
Mof_C 	C 	0.3995	0.9877	0.1225	0.086
Mof_H 	H 	0.3863	0.0505	0.1186	0.008
Mof_C 	C 	0.3951	0.8392	0.1285	0.025
Mof_H 	H 	0.3784	0.779	0.1308	0.013
Mof_C 	C 	0.462	0.8605	0.1293	-0.019
Mof_H 	H 	0.4989	0.8189	0.1309	0.053
Mof_C 	C 	0.5261	0.0138	0.127	-0.032
Mof_H 	H 	0.5767	0.0011	0.1828	0.031
Mof_H 	H 	0.5134	0.0789	0.1286	0.046
Mof_C 	C 	0.5346	0.9983	0.0449	-0.106
Mof_H 	H 	0.5716	0.0445	0.0472	0.072
Mof_H 	H 	0.5591	0.9376	0.052	0.072
Mof_C 	C 	0.1032	0.007	0.9737	0.082
Mof_H 	H 	0.1247	0.0666	0.9829	0.009
Mof_C 	C 	0.0903	0.8623	0.9855	0.022
Mof_H 	H 	0.1011	0.8011	0.0067	0.024
Mof_C 	C 	0.0197	0.8926	0.9153	-0.017
Mof_H 	H 	0.9748	0.8568	0.8777	0.054
Mof_C 	C 	0.9697	0.0508	0.8427	-0.047
Mof_H 	H 	0.9869	0.1143	0.8632	0.052
Mof_H 	H 	0.9187	0.0418	0.8375	0.047
Mof_C 	C 	0.9606	0.0365	0.7485	-0.1
Mof_H 	H 	0.9272	0.0857	0.7072	0.067
Mof_H 	H 	0.9339	0.9775	0.7231	0.07
Mof_Zn	Zn	0.75678	0.56761	0.63193	1.2
Mof_N 	N 	0.7567	0.5053	0.7439	-0.233
Mof_N 	N 	0.9647	0.5444	0.6272	-0.114
Mof_N 	N 	0.8556	0.5816	0.6239	-0.261
Mof_N 	N 	0.5276	0.5144	0.4109	-0.112
Mof_N 	N 	0.643	0.5671	0.5207	-0.253
Mof_O 	O 	0.7606	0.4205	0.6074	-0.398
Mof_O 	O 	0.7639	0.2808	0.6643	-0.244
Mof_O 	O 	0.6435	0.2356	0.7142	-0.284
Mof_O 	O 	0.7587	0.204	0.845	-0.442
Mof_C 	C 	0.758	0.3648	0.6636	0.302
Mof_C 	C 	0.7097	0.2588	0.7827	0.342
Mof_C 	C 	0.7492	0.4151	0.7371	-0.008
Mof_C 	C 	0.7312	0.3609	0.7969	-0.085
Mof_C 	C 	0.7331	0.4097	0.8684	0.037
Mof_H 	H 	0.7259	0.3781	0.9115	0.005
Mof_C 	C 	0.7455	0.504	0.8766	-0.115
Mof_H 	H 	0.7464	0.5354	0.9253	0.074
Mof_C 	C 	0.7564	0.553	0.8151	0.044
Mof_H 	H 	0.7635	0.6173	0.8207	0.032
Mof_C 	C 	0.8995	0.5123	0.6225	0.088
Mof_H 	H 	0.8863	0.4495	0.6186	0.007
Mof_C 	C 	0.8951	0.6608	0.6285	0.025
Mof_H 	H 	0.8784	0.721	0.6308	0.013
Mof_C 	C 	0.962	0.6395	0.6293	-0.019
Mof_H 	H 	0.9989	0.6811	0.6309	0.054
Mof_C 	C 	0.0261	0.4862	0.627	-0.035
Mof_H 	H 	0.0767	0.4989	0.6828	0.031
Mof_H 	H 	0.0134	0.4211	0.6286	0.047
Mof_C 	C 	0.0346	0.5017	0.5449	-0.103
Mof_H 	H 	0.0716	0.4555	0.5472	0.07
Mof_H 	H 	0.0591	0.5624	0.552	0.071
Mof_C 	C 	0.6032	0.493	0.4737	0.084
Mof_H 	H 	0.6247	0.4334	0.4829	0.008
Mof_C 	C 	0.5903	0.6377	0.4855	0.019
Mof_H 	H 	0.6011	0.6989	0.5067	0.025
Mof_C 	C 	0.5197	0.6074	0.4153	-0.016
Mof_H 	H 	0.4748	0.6432	0.3777	0.053
Mof_C 	C 	0.4697	0.4492	0.3427	-0.045
Mof_H 	H 	0.4869	0.3857	0.3632	0.052
Mof_H 	H 	0.4187	0.4582	0.3375	0.046
Mof_C 	C 	0.4606	0.4635	0.2485	-0.101
Mof_H 	H 	0.4272	0.4143	0.2072	0.068
Mof_H 	H 	0.4339	0.5225	0.2231	0.071
Mof_Zn	Zn	0.25678	0.06761	0.63193	1.2
Mof_N 	N 	0.2567	0.0053	0.7439	-0.234
Mof_N 	N 	0.4647	0.0444	0.6272	-0.114
Mof_N 	N 	0.3556	0.0816	0.6239	-0.261
Mof_N 	N 	0.0276	0.0144	0.4109	-0.112
Mof_N 	N 	0.143	0.0671	0.5207	-0.254
Mof_O 	O 	0.2606	0.9205	0.6074	-0.398
Mof_O 	O 	0.2639	0.7808	0.6643	-0.244
Mof_O 	O 	0.1435	0.7356	0.7142	-0.284
Mof_O 	O 	0.2587	0.704	0.845	-0.441
Mof_C 	C 	0.258	0.8648	0.6636	0.302
Mof_C 	C 	0.2097	0.7588	0.7827	0.342
Mof_C 	C 	0.2492	0.9151	0.7371	-0.006
Mof_C 	C 	0.2312	0.8609	0.7969	-0.087
Mof_C 	C 	0.2331	0.9097	0.8684	0.04
Mof_H 	H 	0.2259	0.8781	0.9115	0.004
Mof_C 	C 	0.2455	0.004	0.8766	-0.118
Mof_H 	H 	0.2464	0.0354	0.9253	0.074
Mof_C 	C 	0.2564	0.053	0.8151	0.045
Mof_H 	H 	0.2635	0.1173	0.8207	0.031
Mof_C 	C 	0.3995	0.0123	0.6225	0.087
Mof_H 	H 	0.3863	0.9495	0.6186	0.007
Mof_C 	C 	0.3951	0.1608	0.6285	0.025
Mof_H 	H 	0.3784	0.221	0.6308	0.013
Mof_C 	C 	0.462	0.1395	0.6293	-0.019
Mof_H 	H 	0.4989	0.1811	0.6309	0.054
Mof_C 	C 	0.5261	0.9862	0.627	-0.035
Mof_H 	H 	0.5767	0.9989	0.6828	0.031
Mof_H 	H 	0.5134	0.9211	0.6286	0.047
Mof_C 	C 	0.5346	0.0017	0.5449	-0.103
Mof_H 	H 	0.5716	0.9555	0.5472	0.071
Mof_H 	H 	0.5591	0.0624	0.552	0.072
Mof_C 	C 	0.1032	0.993	0.4737	0.085
Mof_H 	H 	0.1247	0.9334	0.4829	0.008
Mof_C 	C 	0.0903	0.1377	0.4855	0.019
Mof_H 	H 	0.1011	0.1989	0.5067	0.025
Mof_C 	C 	0.0197	0.1074	0.4153	-0.016
Mof_H 	H 	0.9748	0.1432	0.3777	0.053
Mof_C 	C 	0.9697	0.9492	0.3427	-0.044
Mof_H 	H 	0.9869	0.8857	0.3632	0.051
Mof_H 	H 	0.9187	0.9582	0.3375	0.046
Mof_C 	C 	0.9606	0.9635	0.2485	-0.105
Mof_H 	H 	0.9272	0.9143	0.2072	0.069
Mof_H 	H 	0.9339	0.0225	0.2231	0.072
Mof_Zn	Zn	0.24322	0.56761	0.86807	1.2
Mof_N 	N 	0.2433	0.5053	0.7561	-0.233
Mof_N 	N 	0.0353	0.5444	0.8728	-0.114
Mof_N 	N 	0.1444	0.5816	0.8761	-0.261
Mof_N 	N 	0.4724	0.5144	0.0891	-0.112
Mof_N 	N 	0.357	0.5671	0.9793	-0.253
Mof_O 	O 	0.2394	0.4205	0.8926	-0.398
Mof_O 	O 	0.2361	0.2808	0.8357	-0.244
Mof_O 	O 	0.3565	0.2356	0.7858	-0.284
Mof_O 	O 	0.2413	0.204	0.655	-0.441
Mof_C 	C 	0.242	0.3648	0.8364	0.302
Mof_C 	C 	0.2903	0.2588	0.7173	0.342
Mof_C 	C 	0.2508	0.4151	0.7629	-0.008
Mof_C 	C 	0.2688	0.3609	0.7031	-0.085
Mof_C 	C 	0.2669	0.4097	0.6316	0.037
Mof_H 	H 	0.2741	0.3781	0.5885	0.005
Mof_C 	C 	0.2545	0.504	0.6234	-0.115
Mof_H 	H 	0.2536	0.5354	0.5747	0.074
Mof_C 	C 	0.2436	0.553	0.6849	0.044
Mof_H 	H 	0.2365	0.6173	0.6793	0.032
Mof_C 	C 	0.1005	0.5123	0.8775	0.088
Mof_H 	H 	0.1137	0.4495	0.8814	0.007
Mof_C 	C 	0.1049	0.6608	0.8715	0.025
Mof_H 	H 	0.1216	0.721	0.8692	0.013
Mof_C 	C 	0.038	0.6395	0.8707	-0.019
Mof_H 	H 	0.0011	0.6811	0.8691	0.054
Mof_C 	C 	0.9739	0.4862	0.873	-0.035
Mof_H 	H 	0.9233	0.4989	0.8172	0.031
Mof_H 	H 	0.9866	0.4211	0.8714	0.047
Mof_C 	C 	0.9654	0.5017	0.9551	-0.103
Mof_H 	H 	0.9284	0.4555	0.9528	0.07
Mof_H 	H 	0.9409	0.5624	0.948	0.072
Mof_C 	C 	0.3968	0.493	0.0263	0.084
Mof_H 	H 	0.3753	0.4334	0.0171	0.009
Mof_C 	C 	0.4097	0.6377	0.0145	0.017
Mof_H 	H 	0.3989	0.6989	0.9933	0.026
Mof_C 	C 	0.4803	0.6074	0.0847	-0.015
Mof_H 	H 	0.5252	0.6432	0.1223	0.053
Mof_C 	C 	0.5303	0.4492	0.1573	-0.045
Mof_H 	H 	0.5131	0.3857	0.1368	0.052
Mof_H 	H 	0.5813	0.4582	0.1625	0.046
Mof_C 	C 	0.5394	0.4635	0.2515	-0.101
Mof_H 	H 	0.5728	0.4143	0.2928	0.068
Mof_H 	H 	0.5661	0.5225	0.2769	0.07
Mof_Zn	Zn	0.74322	0.06761	0.86807	1.2
Mof_N 	N 	0.7433	0.0053	0.7561	-0.233
Mof_N 	N 	0.5353	0.0444	0.8728	-0.114
Mof_N 	N 	0.6444	0.0816	0.8761	-0.261
Mof_N 	N 	0.9724	0.0144	0.0891	-0.11
Mof_N 	N 	0.857	0.0671	0.9793	-0.254
Mof_O 	O 	0.7394	0.9205	0.8926	-0.397
Mof_O 	O 	0.7361	0.7808	0.8357	-0.244
Mof_O 	O 	0.8565	0.7356	0.7858	-0.284
Mof_O 	O 	0.7413	0.704	0.655	-0.441
Mof_C 	C 	0.742	0.8648	0.8364	0.302
Mof_C 	C 	0.7903	0.7588	0.7173	0.342
Mof_C 	C 	0.7508	0.9151	0.7629	-0.007
Mof_C 	C 	0.7688	0.8609	0.7031	-0.086
Mof_C 	C 	0.7669	0.9097	0.6316	0.038
Mof_H 	H 	0.7741	0.8781	0.5885	0.004
Mof_C 	C 	0.7545	0.004	0.6234	-0.115
Mof_H 	H 	0.7536	0.0354	0.5747	0.074
Mof_C 	C 	0.7436	0.053	0.6849	0.044
Mof_H 	H 	0.7365	0.1173	0.6793	0.032
Mof_C 	C 	0.6005	0.0123	0.8775	0.086
Mof_H 	H 	0.6137	0.9495	0.8814	0.008
Mof_C 	C 	0.6049	0.1608	0.8715	0.025
Mof_H 	H 	0.6216	0.221	0.8692	0.013
Mof_C 	C 	0.538	0.1395	0.8707	-0.019
Mof_H 	H 	0.5011	0.1811	0.8691	0.053
Mof_C 	C 	0.4739	0.9862	0.873	-0.032
Mof_H 	H 	0.4233	0.9989	0.8172	0.031
Mof_H 	H 	0.4866	0.9211	0.8714	0.046
Mof_C 	C 	0.4654	0.0017	0.9551	-0.106
Mof_H 	H 	0.4284	0.9555	0.9528	0.072
Mof_H 	H 	0.4409	0.0624	0.948	0.072
Mof_C 	C 	0.8968	0.993	0.0263	0.082
Mof_H 	H 	0.8753	0.9334	0.0171	0.009
Mof_C 	C 	0.9097	0.1377	0.0145	0.022
Mof_H 	H 	0.8989	0.1989	0.9933	0.024
Mof_C 	C 	0.9803	0.1074	0.0847	-0.017
Mof_H 	H 	0.0252	0.1432	0.1223	0.054
Mof_C 	C 	0.0303	0.9492	0.1573	-0.047
Mof_H 	H 	0.0131	0.8857	0.1368	0.052
Mof_H 	H 	0.0813	0.9582	0.1625	0.047
Mof_C 	C 	0.0394	0.9635	0.2515	-0.1
Mof_H 	H 	0.0728	0.9143	0.2928	0.067
Mof_H 	H 	0.0661	0.0225	0.2769	0.07
_end
