# CIF file generated by openbabel 3.1.0, see https://openbabel.org
data_I
_chemical_name_common 'WIDZOA_clean'
_cell_length_a 12.1229
_cell_length_b 12.6099
_cell_length_c 14.2819
_cell_angle_alpha 98.41
_cell_angle_beta 90
_cell_angle_gamma 90
_space_group_name_H-M_alt 'P 1'
_space_group_name_Hall 'P 1'
loop_
    _symmetry_equiv_pos_as_xyz
    x,y,z
loop_
    _atom_site_label
    _atom_site_type_symbol
    _atom_site_fract_x
    _atom_site_fract_y
    _atom_site_fract_z
    _atom_site_occupancy
    Cd1      Cd       0.95366    0.46525    0.11954    1.000
    Cd2      Cd       0.45366    0.53475    0.38046    1.000
    Cd3      Cd       0.04634    0.53475    0.88046    1.000
    Cd4      Cd       0.54634    0.46525    0.61954    1.000
    H1       H        0.69680    0.51720    0.14230    1.000
    H2       H        0.56710    0.65040    0.15060    1.000
    H3       H        0.62280    0.82640    0.15250    1.000
    H4       H        0.93470    0.72290    0.13400    1.000
    H5       H        0.78540    0.06180    0.14700    1.000
    H6       H        0.70290    0.99910    0.20330    1.000
    H7       H        0.70000    0.98220    0.09240    1.000
    H8       H        0.10030    0.86460    0.08990    1.000
    H9       H        0.20570    0.93140    0.12370    1.000
    H10      H        0.16390    0.92700    0.01940    1.000
    H11      H        0.27980    0.09620    0.10670    1.000
    H12      H        0.34240    0.26910    0.10430    1.000
    H13      H        0.21780    0.40600    0.10590    1.000
    H14      H        0.97170    0.20830    0.11150    1.000
    H15      H        0.83790    0.22770    0.31090    1.000
    H16      H        0.72200    0.24030    0.26530    1.000
    H17      H        0.72810    0.28580    0.43500    1.000
    H18      H        0.79690    0.38720    0.42020    1.000
    H19      H        0.19680    0.48280    0.35770    1.000
    H20      H        0.06710    0.34960    0.34940    1.000
    H21      H        0.12280    0.17360    0.34750    1.000
    H22      H        0.43470    0.27710    0.36600    1.000
    H23      H        0.28540    0.93820    0.35300    1.000
    H24      H        0.20290    0.00090    0.29670    1.000
    H25      H        0.20000    0.01780    0.40760    1.000
    H26      H        0.60030    0.13540    0.41010    1.000
    H27      H        0.70570    0.06860    0.37630    1.000
    H28      H        0.66390    0.07300    0.48060    1.000
    H29      H        0.77980    0.90380    0.39330    1.000
    H30      H        0.84240    0.73090    0.39570    1.000
    H31      H        0.71780    0.59400    0.39410    1.000
    H32      H        0.47170    0.79170    0.38850    1.000
    H33      H        0.33790    0.77230    0.18910    1.000
    H34      H        0.22200    0.75970    0.23470    1.000
    H35      H        0.22810    0.71420    0.06500    1.000
    H36      H        0.29690    0.61280    0.07980    1.000
    H37      H        0.30320    0.48280    0.85770    1.000
    H38      H        0.43290    0.34960    0.84940    1.000
    H39      H        0.37720    0.17360    0.84750    1.000
    H40      H        0.06530    0.27710    0.86600    1.000
    H41      H        0.21460    0.93820    0.85300    1.000
    H42      H        0.29710    0.00090    0.79670    1.000
    H43      H        0.30000    0.01780    0.90760    1.000
    H44      H        0.89970    0.13540    0.91010    1.000
    H45      H        0.79430    0.06860    0.87630    1.000
    H46      H        0.83610    0.07300    0.98060    1.000
    H47      H        0.72020    0.90380    0.89330    1.000
    H48      H        0.65760    0.73090    0.89570    1.000
    H49      H        0.78220    0.59400    0.89410    1.000
    H50      H        0.02830    0.79170    0.88850    1.000
    H51      H        0.16210    0.77230    0.68910    1.000
    H52      H        0.27800    0.75970    0.73470    1.000
    H53      H        0.27190    0.71420    0.56500    1.000
    H54      H        0.20310    0.61280    0.57980    1.000
    H55      H        0.80320    0.51720    0.64230    1.000
    H56      H        0.93290    0.65040    0.65060    1.000
    H57      H        0.87720    0.82640    0.65250    1.000
    H58      H        0.56530    0.72290    0.63400    1.000
    H59      H        0.71460    0.06180    0.64700    1.000
    H60      H        0.79710    0.99910    0.70330    1.000
    H61      H        0.80000    0.98220    0.59240    1.000
    H62      H        0.39970    0.86460    0.58990    1.000
    H63      H        0.29430    0.93140    0.62370    1.000
    H64      H        0.33610    0.92700    0.51940    1.000
    H65      H        0.22020    0.09620    0.60670    1.000
    H66      H        0.15760    0.26910    0.60430    1.000
    H67      H        0.28220    0.40600    0.60590    1.000
    H68      H        0.52830    0.20830    0.61150    1.000
    H69      H        0.66210    0.22770    0.81090    1.000
    H70      H        0.77800    0.24030    0.76530    1.000
    H71      H        0.77190    0.28580    0.93500    1.000
    H72      H        0.70310    0.38720    0.92020    1.000
    C1       C        0.71979    0.58750    0.14193    1.000
    C2       C        0.64165    0.66701    0.14758    1.000
    C3       C        0.67479    0.77171    0.14869    1.000
    C4       C        0.78651    0.79481    0.14401    1.000
    C5       C        0.85963    0.70875    0.13745    1.000
    C6       C        0.82875    0.90589    0.14452    1.000
    C7       C        0.74690    0.99530    0.14700    1.000
    C8       C        0.07118    0.02478    0.11386    1.000
    C9       C        0.14160    0.92829    0.08410    1.000
    C10      C        0.11731    0.13353    0.11103    1.000
    C11      C        0.22998    0.15245    0.10772    1.000
    C12      C        0.26719    0.25502    0.10602    1.000
    C13      C        0.19181    0.33675    0.10695    1.000
    C14      C        0.04733    0.22045    0.11071    1.000
    C15      C        0.83262    0.35196    0.23415    1.000
    C16      C        0.78276    0.27960    0.29833    1.000
    C17      C        0.74063    0.33775    0.39232    1.000
    C18      C        0.63544    0.39908    0.38312    1.000
    C19      C        0.21979    0.41250    0.35807    1.000
    C20      C        0.14165    0.33299    0.35242    1.000
    C21      C        0.17479    0.22829    0.35131    1.000
    C22      C        0.28651    0.20519    0.35599    1.000
    C23      C        0.35963    0.29125    0.36255    1.000
    C24      C        0.32875    0.09411    0.35548    1.000
    C25      C        0.24690    0.00470    0.35300    1.000
    C26      C        0.57118    0.97522    0.38614    1.000
    C27      C        0.64160    0.07171    0.41590    1.000
    C28      C        0.61731    0.86647    0.38897    1.000
    C29      C        0.72998    0.84755    0.39228    1.000
    C30      C        0.76719    0.74498    0.39398    1.000
    C31      C        0.69181    0.66325    0.39305    1.000
    C32      C        0.54733    0.77955    0.38929    1.000
    C33      C        0.33262    0.64804    0.26585    1.000
    C34      C        0.28276    0.72040    0.20167    1.000
    C35      C        0.24063    0.66225    0.10768    1.000
    C36      C        0.13544    0.60092    0.11688    1.000
    C37      C        0.28021    0.41250    0.85807    1.000
    C38      C        0.35835    0.33299    0.85242    1.000
    C39      C        0.32521    0.22829    0.85131    1.000
    C40      C        0.21349    0.20519    0.85599    1.000
    C41      C        0.14037    0.29125    0.86255    1.000
    C42      C        0.17125    0.09411    0.85548    1.000
    C43      C        0.25310    0.00470    0.85300    1.000
    C44      C        0.92882    0.97522    0.88614    1.000
    C45      C        0.85840    0.07171    0.91590    1.000
    C46      C        0.88269    0.86647    0.88897    1.000
    C47      C        0.77002    0.84755    0.89228    1.000
    C48      C        0.73281    0.74498    0.89398    1.000
    C49      C        0.80819    0.66325    0.89305    1.000
    C50      C        0.95267    0.77955    0.88929    1.000
    C51      C        0.16738    0.64804    0.76585    1.000
    C52      C        0.21724    0.72040    0.70167    1.000
    C53      C        0.25937    0.66225    0.60768    1.000
    C54      C        0.36456    0.60092    0.61688    1.000
    C55      C        0.78021    0.58750    0.64193    1.000
    C56      C        0.85835    0.66701    0.64758    1.000
    C57      C        0.82521    0.77171    0.64869    1.000
    C58      C        0.71349    0.79481    0.64401    1.000
    C59      C        0.64037    0.70875    0.63745    1.000
    C60      C        0.67125    0.90589    0.64452    1.000
    C61      C        0.75310    0.99530    0.64700    1.000
    C62      C        0.42882    0.02478    0.61386    1.000
    C63      C        0.35840    0.92829    0.58410    1.000
    C64      C        0.38269    0.13353    0.61103    1.000
    C65      C        0.27002    0.15245    0.60772    1.000
    C66      C        0.23281    0.25502    0.60602    1.000
    C67      C        0.30819    0.33675    0.60695    1.000
    C68      C        0.45267    0.22045    0.61071    1.000
    C69      C        0.66738    0.35196    0.73415    1.000
    C70      C        0.71724    0.27960    0.79833    1.000
    C71      C        0.75937    0.33775    0.89232    1.000
    C72      C        0.86456    0.39908    0.88312    1.000
    N1       N        0.82805    0.60733    0.13590    1.000
    N2       N        0.93246    0.91558    0.14046    1.000
    N3       N        0.97068    0.02097    0.14017    1.000
    N4       N        0.08232    0.32089    0.10925    1.000
    N5       N        0.32805    0.39267    0.36410    1.000
    N6       N        0.43246    0.08442    0.35954    1.000
    N7       N        0.47068    0.97903    0.35983    1.000
    N8       N        0.58232    0.67911    0.39075    1.000
    N9       N        0.17195    0.39267    0.86410    1.000
    N10      N        0.06754    0.08442    0.85954    1.000
    N11      N        0.02932    0.97903    0.85983    1.000
    N12      N        0.91768    0.67911    0.89075    1.000
    N13      N        0.67195    0.60733    0.63590    1.000
    N14      N        0.56754    0.91558    0.64046    1.000
    N15      N        0.52932    0.02097    0.64017    1.000
    N16      N        0.41768    0.32089    0.60925    1.000
    O1       O        0.89640    0.42585    0.26897    1.000
    O2       O        0.81484    0.33332    0.14658    1.000
    O3       O        0.60204    0.41657    0.30449    1.000
    O4       O        0.58304    0.43552    0.45745    1.000
    O5       O        0.39640    0.57415    0.23103    1.000
    O6       O        0.31484    0.66668    0.35342    1.000
    O7       O        0.10204    0.58343    0.19551    1.000
    O8       O        0.08304    0.56448    0.04255    1.000
    O9       O        0.10360    0.57415    0.73103    1.000
    O10      O        0.18516    0.66668    0.85342    1.000
    O11      O        0.39796    0.58343    0.69551    1.000
    O12      O        0.41696    0.56448    0.54255    1.000
    O13      O        0.60360    0.42585    0.76897    1.000
    O14      O        0.68516    0.33332    0.64658    1.000
    O15      O        0.89796    0.41657    0.80449    1.000
    O16      O        0.91696    0.43552    0.95745    1.000
