data_functionalizedCrystal
_audit_creation_method	'EQeq! by Chris Wilmer'
_symmetry_space_group_name_H-M	'P1'
_symmetry_Int_Tables_number	1
_symmetry_cell_setting	triclinic
loop_
_symmetry_equiv_pos_as_xyz
  x,y,z
_cell_length_a	14.2228
_cell_length_b	16.705
_cell_length_c	21.602
_cell_angle_alpha	90
_cell_angle_beta	90
_cell_angle_gamma	90
loop_
_atom_site_label
_atom_site_type_symbol
_atom_site_fract_x
_atom_site_fract_y
_atom_site_fract_z
_atom_site_charge
Mof_Co	Co	0.87076	0.2682	0.92522	1.134
Mof_Co	Co	0.03565	0.26935	0.59847	1.134
Mof_N 	N 	0.82653	0.24429	0.83416	-0.273
Mof_C 	C 	0.81128	0.24251	0.78211	0.169
Mof_N 	N 	0.90505	0.25904	0.64324	-0.273
Mof_C 	C 	0.85179	0.25117	0.6823	0.169
Mof_N 	N 	0.78571	0.24062	0.72374	-0.178
Mof_N 	N 	0.00883	0.2834	0.88437	-0.261
Mof_C 	C 	0.05906	0.29146	0.84271	0.159
Mof_N 	N 	0.09219	0.28553	0.68925	-0.267
Mof_C 	C 	0.10233	0.29083	0.74187	0.165
Mof_N 	N 	0.12444	0.30035	0.80063	-0.175
Mof_N 	N 	0.92443	0.28746	0.0163	-0.264
Mof_C 	C 	0.992	0.27891	0.0445	0.168
Mof_N 	N 	0.22527	0.24495	0.05076	-0.263
Mof_C 	C 	0.1477	0.25642	0.06257	0.167
Mof_N 	N 	0.06192	0.2698	0.08267	-0.178
Mof_N 	N 	0.84943	0.3911	0.91565	-0.276
Mof_C 	C 	0.84167	0.45925	0.90907	0.176
Mof_N 	N 	0.93187	0.64602	0.89535	-0.27
Mof_C 	C 	0.8836	0.5908	0.898	0.168
Mof_N 	N 	0.82024	0.53411	0.89998	-0.182
Mof_N 	N 	0.17091	0.28285	0.55724	-0.267
Mof_C 	C 	0.2506	0.29144	0.55193	0.172
Mof_N 	N 	0.4609	0.25128	0.48445	-0.269
Mof_C 	C 	0.39991	0.275	0.51427	0.175
Mof_N 	N 	0.34108	0.30786	0.55262	-0.181
Mof_N 	N 	0.98034	0.89427	0.91673	-0.265
Mof_C 	C 	0.95385	0.95067	0.94268	0.162
Mof_N 	N 	0.89371	0.14592	0.94157	-0.274
Mof_C 	C 	0.90947	0.08088	0.95613	0.173
Mof_N 	N 	0.92617	0.00918	0.97836	-0.179
Mof_Co	Co	0.62924	0.7318	0.42522	1.135
Mof_Co	Co	0.46435	0.73065	0.09847	1.135
Mof_N 	N 	0.67347	0.75571	0.33416	-0.272
Mof_C 	C 	0.68872	0.75749	0.28211	0.17
Mof_N 	N 	0.59495	0.74096	0.14324	-0.273
Mof_C 	C 	0.64821	0.74883	0.1823	0.169
Mof_N 	N 	0.71429	0.75938	0.22374	-0.178
Mof_N 	N 	0.49117	0.7166	0.38437	-0.261
Mof_C 	C 	0.44094	0.70854	0.34271	0.159
Mof_N 	N 	0.40781	0.71447	0.18925	-0.267
Mof_C 	C 	0.39767	0.70917	0.24187	0.165
Mof_N 	N 	0.37556	0.69965	0.30063	-0.176
Mof_N 	N 	0.57557	0.71254	0.5163	-0.264
Mof_C 	C 	0.508	0.72109	0.5445	0.166
Mof_N 	N 	0.27473	0.75505	0.55076	-0.263
Mof_C 	C 	0.3523	0.74358	0.56257	0.167
Mof_N 	N 	0.43808	0.7302	0.58267	-0.177
Mof_N 	N 	0.65057	0.6089	0.41565	-0.276
Mof_C 	C 	0.65833	0.54075	0.40907	0.176
Mof_N 	N 	0.56813	0.35398	0.39535	-0.27
Mof_C 	C 	0.6164	0.4092	0.398	0.169
Mof_N 	N 	0.67976	0.46589	0.39998	-0.182
Mof_N 	N 	0.32909	0.71715	0.05724	-0.267
Mof_C 	C 	0.2494	0.70856	0.05193	0.172
Mof_N 	N 	0.0391	0.74872	0.98445	-0.267
Mof_C 	C 	0.10009	0.725	0.01427	0.173
Mof_N 	N 	0.15892	0.69214	0.05262	-0.18
Mof_N 	N 	0.51966	0.10573	0.41673	-0.265
Mof_C 	C 	0.54615	0.04933	0.44268	0.163
Mof_N 	N 	0.60629	0.85408	0.44157	-0.274
Mof_C 	C 	0.59053	0.91912	0.45613	0.173
Mof_N 	N 	0.57383	0.99082	0.47836	-0.179
Mof_Co	Co	0.12924	0.7682	0.57478	1.135
Mof_Co	Co	0.96435	0.76935	0.90153	1.135
Mof_N 	N 	0.17347	0.74429	0.66584	-0.272
Mof_C 	C 	0.18872	0.74251	0.71789	0.17
Mof_N 	N 	0.09495	0.75904	0.85676	-0.273
Mof_C 	C 	0.14821	0.75117	0.8177	0.169
Mof_N 	N 	0.21429	0.74062	0.77626	-0.178
Mof_N 	N 	0.99117	0.7834	0.61563	-0.261
Mof_C 	C 	0.94094	0.79146	0.65729	0.158
Mof_N 	N 	0.90781	0.78553	0.81075	-0.267
Mof_C 	C 	0.89767	0.79083	0.75813	0.165
Mof_N 	N 	0.87556	0.80035	0.69937	-0.176
Mof_N 	N 	0.07557	0.78746	0.4837	-0.264
Mof_C 	C 	0.008	0.77891	0.4555	0.166
Mof_N 	N 	0.77473	0.74495	0.44924	-0.263
Mof_C 	C 	0.8523	0.75642	0.43743	0.167
Mof_N 	N 	0.93808	0.7698	0.41733	-0.177
Mof_N 	N 	0.15057	0.8911	0.58435	-0.276
Mof_C 	C 	0.15833	0.95925	0.59093	0.176
Mof_N 	N 	0.06813	0.14602	0.60465	-0.27
Mof_C 	C 	0.1164	0.0908	0.602	0.168
Mof_N 	N 	0.17976	0.03411	0.60002	-0.183
Mof_N 	N 	0.82909	0.78285	0.94276	-0.268
Mof_C 	C 	0.7494	0.79144	0.94807	0.172
Mof_N 	N 	0.5391	0.75128	0.01555	-0.268
Mof_C 	C 	0.60009	0.775	0.98573	0.175
Mof_N 	N 	0.65892	0.80786	0.94738	-0.18
Mof_N 	N 	0.01966	0.39427	0.58327	-0.265
Mof_C 	C 	0.04615	0.45067	0.55732	0.164
Mof_N 	N 	0.10629	0.64592	0.55843	-0.274
Mof_C 	C 	0.09053	0.58088	0.54387	0.173
Mof_N 	N 	0.07383	0.50918	0.52164	-0.179
Mof_Co	Co	0.37076	0.2318	0.07478	1.135
Mof_Co	Co	0.53565	0.23065	0.40153	1.135
Mof_N 	N 	0.32653	0.25571	0.16584	-0.272
Mof_C 	C 	0.31128	0.25749	0.21789	0.17
Mof_N 	N 	0.40505	0.24096	0.35676	-0.274
Mof_C 	C 	0.35179	0.24883	0.3177	0.169
Mof_N 	N 	0.28571	0.25938	0.27626	-0.178
Mof_N 	N 	0.50883	0.2166	0.11563	-0.261
Mof_C 	C 	0.55906	0.20854	0.15729	0.159
Mof_N 	N 	0.59219	0.21447	0.31075	-0.267
Mof_C 	C 	0.60233	0.20917	0.25813	0.165
Mof_N 	N 	0.62444	0.19965	0.19937	-0.175
Mof_N 	N 	0.42443	0.21254	0.9837	-0.264
Mof_C 	C 	0.492	0.22109	0.9555	0.166
Mof_N 	N 	0.72527	0.25505	0.94924	-0.263
Mof_C 	C 	0.6477	0.24358	0.93743	0.167
Mof_N 	N 	0.56192	0.2302	0.91733	-0.177
Mof_N 	N 	0.34943	0.1089	0.08435	-0.276
Mof_C 	C 	0.34167	0.04075	0.09093	0.175
Mof_N 	N 	0.43187	0.85398	0.10465	-0.27
Mof_C 	C 	0.3836	0.9092	0.102	0.169
Mof_N 	N 	0.32024	0.96589	0.10002	-0.182
Mof_N 	N 	0.67091	0.21715	0.44276	-0.267
Mof_C 	C 	0.7506	0.20856	0.44807	0.173
Mof_N 	N 	0.9609	0.24872	0.51555	-0.268
Mof_C 	C 	0.89991	0.225	0.48573	0.175
Mof_N 	N 	0.84108	0.19214	0.44738	-0.18
Mof_N 	N 	0.48034	0.60573	0.08327	-0.264
Mof_C 	C 	0.45385	0.54933	0.05732	0.164
Mof_N 	N 	0.39371	0.35408	0.05843	-0.274
Mof_C 	C 	0.40947	0.41912	0.04387	0.173
Mof_N 	N 	0.42617	0.49082	0.02164	-0.179
_end
