data_functionalizedCrystal
_audit_creation_method	'EQeq! by Chris Wilmer'
_symmetry_space_group_name_H-M	'P1'
_symmetry_Int_Tables_number	1
_symmetry_cell_setting	triclinic
loop_
_symmetry_equiv_pos_as_xyz
  x,y,z
_cell_length_a	27.8843
_cell_length_b	27.8843
_cell_length_c	27.8843
_cell_angle_alpha	109.471
_cell_angle_beta	109.471
_cell_angle_gamma	109.471
loop_
_atom_site_label
_atom_site_type_symbol
_atom_site_fract_x
_atom_site_fract_y
_atom_site_fract_z
_atom_site_charge
Mof_Zn	Zn	-0	0	-0	1.155
Mof_Zn	Zn	0.5	0	0.5	1.173
Mof_Zn	Zn	2.72464e-17	0.5	0.5	1.172
Mof_Zn	Zn	0.5	0.5	-0	1.171
Mof_Zn	Zn	0.5	0.5	0.5	1.181
Mof_Zn	Zn	0.5	0	-0	1.163
Mof_Zn	Zn	2.72464e-17	0.5	-0	1.162
Mof_Zn	Zn	2.72464e-17	0	0.5	1.163
Mof_H 	H 	0.0728	0.0475	0.1323	-0.054
Mof_H 	H 	0.1711	0.0906	0.2077	0.119
Mof_H 	H 	0.2205	0.1259	0.101	0.15
Mof_H 	H 	0.1307	0.0876	0.0369	-0.074
Mof_H 	H 	0.2262	0.0328	0.1424	0.253
Mof_H 	H 	0.2703	0.0265	0.1888	0.242
Mof_H 	H 	0.2842	0.0386	0.1426	0.258
Mof_H 	H 	0.4152	0.9405	0.3677	-0.039
Mof_H 	H 	0.3829	0.9634	0.2923	0.113
Mof_H 	H 	0.5249	0.1195	0.399	0.141
Mof_H 	H 	0.5507	0.0938	0.4631	-0.053
Mof_H 	H 	0.3904	0.0838	0.3576	0.259
Mof_H 	H 	0.3377	0.0815	0.3112	0.246
Mof_H 	H 	0.396	0.1416	0.3574	0.265
Mof_H 	H 	0.0848	0.4525	0.5253	-0.034
Mof_H 	H 	0.1171	0.4094	0.5805	0.113
Mof_H 	H 	0.9751	0.3741	0.5946	0.139
Mof_H 	H 	0.9493	0.4124	0.5431	-0.056
Mof_H 	H 	0.1096	0.4672	0.6934	0.262
Mof_H 	H 	0.1623	0.4735	0.7438	0.254
Mof_H 	H 	0.104	0.4614	0.7456	0.266
Mof_H 	H 	0.4272	0.5595	0.9747	-0.029
Mof_H 	H 	0.3289	0.5366	0.9195	0.127
Mof_H 	H 	0.2795	0.3805	0.9054	0.155
Mof_H 	H 	0.3693	0.4062	0.9569	-0.055
Mof_H 	H 	0.2738	0.4162	0.8066	0.271
Mof_H 	H 	0.2297	0.4185	0.7562	0.26
Mof_H 	H 	0.2158	0.3584	0.7544	0.275
Mof_H 	H 	0.0253	0.0848	0.9525	-0.034
Mof_H 	H 	0.0805	0.1171	0.9094	0.116
Mof_H 	H 	0.0946	0.9751	0.8741	0.142
Mof_H 	H 	0.0431	0.9493	0.9124	-0.06
Mof_H 	H 	0.1934	0.1096	0.9672	0.278
Mof_H 	H 	0.2438	0.1623	0.9735	0.268
Mof_H 	H 	0.2456	0.104	0.9614	0.281
Mof_H 	H 	0.4747	0.4272	0.0595	-0.037
Mof_H 	H 	0.4195	0.3289	0.0366	0.134
Mof_H 	H 	0.4054	0.2795	0.8805	0.17
Mof_H 	H 	0.4569	0.3693	0.9062	-0.07
Mof_H 	H 	0.3066	0.2738	0.9162	0.282
Mof_H 	H 	0.2562	0.2297	0.9185	0.27
Mof_H 	H 	0.2544	0.2158	0.8584	0.282
Mof_H 	H 	0.6323	0.0728	0.5475	-0.046
Mof_H 	H 	0.7077	0.1711	0.5906	0.124
Mof_H 	H 	0.601	0.2205	0.6259	0.156
Mof_H 	H 	0.5369	0.1307	0.5876	-0.062
Mof_H 	H 	0.6424	0.2262	0.5328	0.27
Mof_H 	H 	0.6888	0.2703	0.5265	0.258
Mof_H 	H 	0.6426	0.2842	0.5386	0.274
Mof_H 	H 	0.8677	0.4152	0.4405	-0.037
Mof_H 	H 	0.7923	0.3829	0.4634	0.124
Mof_H 	H 	0.899	0.5249	0.6195	0.159
Mof_H 	H 	0.9631	0.5507	0.5938	-0.05
Mof_H 	H 	0.8576	0.3904	0.5838	0.273
Mof_H 	H 	0.8112	0.3377	0.5815	0.261
Mof_H 	H 	0.8574	0.396	0.6416	0.277
Mof_H 	H 	0.9405	0.8677	0.9152	-0.041
Mof_H 	H 	0.9634	0.7923	0.8829	0.127
Mof_H 	H 	0.1195	0.899	0.0249	0.16
Mof_H 	H 	0.0938	0.9631	0.0507	-0.048
Mof_H 	H 	0.0838	0.8576	0.8904	0.273
Mof_H 	H 	0.0815	0.8112	0.8377	0.258
Mof_H 	H 	0.1416	0.8574	0.896	0.278
Mof_H 	H 	0.0475	0.6323	0.5728	-0.044
Mof_H 	H 	0.0906	0.7077	0.6711	0.122
Mof_H 	H 	0.1259	0.601	0.7205	0.154
Mof_H 	H 	0.0876	0.5369	0.6307	-0.063
Mof_H 	H 	0.0328	0.6424	0.7262	0.256
Mof_H 	H 	0.0265	0.6888	0.7703	0.245
Mof_H 	H 	0.0386	0.6426	0.7842	0.26
Mof_H 	H 	0.5595	0.4747	0.9272	-0.028
Mof_H 	H 	0.5366	0.4195	0.8289	0.127
Mof_H 	H 	0.3805	0.4054	0.7795	0.155
Mof_H 	H 	0.4062	0.4569	0.8693	-0.06
Mof_H 	H 	0.4162	0.3066	0.7738	0.271
Mof_H 	H 	0.4185	0.2562	0.7297	0.259
Mof_H 	H 	0.3584	0.2544	0.7158	0.274
Mof_H 	H 	0.4525	0.0253	0.5848	-0.045
Mof_H 	H 	0.4094	0.0805	0.6171	0.123
Mof_H 	H 	0.3741	0.0946	0.4751	0.154
Mof_H 	H 	0.4124	0.0431	0.4493	-0.067
Mof_H 	H 	0.4672	0.1934	0.6096	0.272
Mof_H 	H 	0.4735	0.2438	0.6623	0.261
Mof_H 	H 	0.4614	0.2456	0.604	0.275
Mof_H 	H 	0.4525	0.4272	0.3677	-0.038
Mof_H 	H 	0.4094	0.3289	0.2923	0.123
Mof_H 	H 	0.3741	0.2795	0.399	0.154
Mof_H 	H 	0.4124	0.3693	0.4631	-0.062
Mof_H 	H 	0.4672	0.2738	0.3576	0.271
Mof_H 	H 	0.4735	0.2297	0.3112	0.259
Mof_H 	H 	0.4614	0.2158	0.3574	0.275
Mof_H 	H 	0.5595	0.0848	0.1323	-0.034
Mof_H 	H 	0.5366	0.1171	0.2077	0.114
Mof_H 	H 	0.3805	0.9751	0.101	0.137
Mof_H 	H 	0.4062	0.9493	0.0369	-0.067
Mof_H 	H 	0.4162	0.1096	0.1424	0.259
Mof_H 	H 	0.4185	0.1623	0.1888	0.25
Mof_H 	H 	0.3584	0.104	0.1426	0.263
Mof_H 	H 	0.0475	0.4152	0.9747	-0.035
Mof_H 	H 	0.0906	0.3829	0.9195	0.123
Mof_H 	H 	0.1259	0.5249	0.9054	0.154
Mof_H 	H 	0.0876	0.5507	0.9569	-0.057
Mof_H 	H 	0.0328	0.3904	0.8066	0.255
Mof_H 	H 	0.0265	0.3377	0.7562	0.244
Mof_H 	H 	0.0386	0.396	0.7544	0.259
Mof_H 	H 	0.9405	0.0728	0.5253	-0.047
Mof_H 	H 	0.9634	0.1711	0.5805	0.113
Mof_H 	H 	0.1195	0.2205	0.5946	0.14
Mof_H 	H 	0.0938	0.1307	0.5431	-0.054
Mof_H 	H 	0.0838	0.2262	0.6934	0.259
Mof_H 	H 	0.0815	0.2703	0.7438	0.248
Mof_H 	H 	0.1416	0.2842	0.7456	0.266
Mof_H 	H 	0.4152	0.4747	0.5475	-0.038
Mof_H 	H 	0.3829	0.4195	0.5906	0.124
Mof_H 	H 	0.5249	0.4054	0.6259	0.156
Mof_H 	H 	0.5507	0.4569	0.5876	-0.061
Mof_H 	H 	0.3904	0.3066	0.5328	0.269
Mof_H 	H 	0.3377	0.2562	0.5265	0.256
Mof_H 	H 	0.396	0.2544	0.5386	0.272
Mof_H 	H 	0.0728	0.0253	0.4405	-0.054
Mof_H 	H 	0.1711	0.0805	0.4634	0.12
Mof_H 	H 	0.2205	0.0946	0.6195	0.155
Mof_H 	H 	0.1307	0.0431	0.5938	-0.067
Mof_H 	H 	0.2262	0.1934	0.5838	0.269
Mof_H 	H 	0.2703	0.2438	0.5815	0.258
Mof_H 	H 	0.2842	0.2456	0.6416	0.274
Mof_H 	H 	0.4272	0.8677	0.9525	-0.03
Mof_H 	H 	0.3289	0.7923	0.9094	0.128
Mof_H 	H 	0.2795	0.899	0.8741	0.159
Mof_H 	H 	0.3693	0.9631	0.9124	-0.05
Mof_H 	H 	0.2738	0.8576	0.9672	0.289
Mof_H 	H 	0.2297	0.8112	0.9735	0.276
Mof_H 	H 	0.2158	0.8574	0.9614	0.292
Mof_H 	H 	0.0848	0.6323	0.0595	-0.032
Mof_H 	H 	0.1171	0.7077	0.0366	0.125
Mof_H 	H 	0.9751	0.601	0.8805	0.156
Mof_H 	H 	0.9493	0.5369	0.9062	-0.064
Mof_H 	H 	0.1096	0.6424	0.9162	0.273
Mof_H 	H 	0.1623	0.6888	0.9185	0.264
Mof_H 	H 	0.104	0.6426	0.8584	0.274
Mof_H 	H 	0.6323	0.5595	0.5848	-0.037
Mof_H 	H 	0.7077	0.5366	0.6171	0.127
Mof_H 	H 	0.601	0.3805	0.4751	0.155
Mof_H 	H 	0.5369	0.4062	0.4493	-0.062
Mof_H 	H 	0.6424	0.4162	0.6096	0.272
Mof_H 	H 	0.6888	0.4185	0.6623	0.261
Mof_H 	H 	0.6426	0.3584	0.604	0.275
Mof_H 	H 	0.8677	0.4525	0.9272	-0.027
Mof_H 	H 	0.7923	0.4094	0.8289	0.127
Mof_H 	H 	0.899	0.3741	0.7795	0.158
Mof_H 	H 	0.9631	0.4124	0.8693	-0.05
Mof_H 	H 	0.8576	0.4672	0.7738	0.275
Mof_H 	H 	0.8112	0.4735	0.7297	0.264
Mof_H 	H 	0.8574	0.4614	0.7158	0.278
Mof_H 	H 	0.0253	0.9405	0.5728	-0.047
Mof_H 	H 	0.0805	0.9634	0.6711	0.113
Mof_H 	H 	0.0946	0.1195	0.7205	0.141
Mof_H 	H 	0.0431	0.0938	0.6307	-0.06
Mof_H 	H 	0.1934	0.0838	0.7262	0.26
Mof_H 	H 	0.2438	0.0815	0.7703	0.248
Mof_H 	H 	0.2456	0.1416	0.7842	0.266
Mof_H 	H 	0.4747	0.0475	0.9152	-0.048
Mof_H 	H 	0.4195	0.0906	0.8829	0.133
Mof_H 	H 	0.4054	0.1259	0.0249	0.169
Mof_H 	H 	0.4569	0.0876	0.0507	-0.068
Mof_H 	H 	0.3066	0.0328	0.8904	0.266
Mof_H 	H 	0.2562	0.0265	0.8377	0.252
Mof_H 	H 	0.2544	0.0386	0.896	0.27
Mof_H 	H 	0.9272	0.9525	0.8677	-0.022
Mof_H 	H 	0.8289	0.9094	0.7923	0.129
Mof_H 	H 	0.7795	0.8741	0.899	0.16
Mof_H 	H 	0.8693	0.9124	0.9631	-0.048
Mof_H 	H 	0.7738	0.9672	0.8576	0.288
Mof_H 	H 	0.7297	0.9735	0.8112	0.275
Mof_H 	H 	0.7158	0.9614	0.8574	0.29
Mof_H 	H 	0.5848	0.0595	0.6323	-0.036
Mof_H 	H 	0.6171	0.0366	0.7077	0.135
Mof_H 	H 	0.4751	0.8805	0.601	0.169
Mof_H 	H 	0.4493	0.9062	0.5369	-0.069
Mof_H 	H 	0.6096	0.9162	0.6424	0.282
Mof_H 	H 	0.6623	0.9185	0.6888	0.271
Mof_H 	H 	0.604	0.8584	0.6426	0.283
Mof_H 	H 	0.9152	0.5475	0.4747	-0.042
Mof_H 	H 	0.8829	0.5906	0.4195	0.136
Mof_H 	H 	0.0249	0.6259	0.4054	0.171
Mof_H 	H 	0.0507	0.5876	0.4569	-0.066
Mof_H 	H 	0.8904	0.5328	0.3066	0.279
Mof_H 	H 	0.8377	0.5265	0.2562	0.265
Mof_H 	H 	0.896	0.5386	0.2544	0.282
Mof_H 	H 	0.5728	0.4405	0.0253	-0.046
Mof_H 	H 	0.6711	0.4634	0.0805	0.122
Mof_H 	H 	0.7205	0.6195	0.0946	0.155
Mof_H 	H 	0.6307	0.5938	0.0431	-0.067
Mof_H 	H 	0.7262	0.5838	0.1934	0.27
Mof_H 	H 	0.7703	0.5815	0.2438	0.258
Mof_H 	H 	0.7842	0.6416	0.2456	0.274
Mof_H 	H 	0.9747	0.9152	0.0475	-0.039
Mof_H 	H 	0.9195	0.8829	0.0906	0.133
Mof_H 	H 	0.9054	0.0249	0.1259	0.168
Mof_H 	H 	0.9569	0.0507	0.0876	-0.061
Mof_H 	H 	0.8066	0.8904	0.0328	0.265
Mof_H 	H 	0.7562	0.8377	0.0265	0.251
Mof_H 	H 	0.7544	0.896	0.0386	0.268
Mof_H 	H 	0.5253	0.5728	0.9405	-0.039
Mof_H 	H 	0.5805	0.6711	0.9634	0.115
Mof_H 	H 	0.5946	0.7205	0.1195	0.141
Mof_H 	H 	0.5431	0.6307	0.0938	-0.053
Mof_H 	H 	0.6934	0.7262	0.0838	0.26
Mof_H 	H 	0.7438	0.7703	0.0815	0.249
Mof_H 	H 	0.7456	0.7842	0.1416	0.266
Mof_H 	H 	0.3677	0.9272	0.4525	-0.029
Mof_H 	H 	0.2923	0.8289	0.4094	0.125
Mof_H 	H 	0.399	0.7795	0.3741	0.154
Mof_H 	H 	0.4631	0.8693	0.4124	-0.061
Mof_H 	H 	0.3576	0.7738	0.4672	0.271
Mof_H 	H 	0.3112	0.7297	0.4735	0.26
Mof_H 	H 	0.3574	0.7158	0.4614	0.275
Mof_H 	H 	0.1323	0.5848	0.5595	-0.038
Mof_H 	H 	0.2077	0.6171	0.5366	0.125
Mof_H 	H 	0.101	0.4751	0.3805	0.151
Mof_H 	H 	0.0369	0.4493	0.4062	-0.072
Mof_H 	H 	0.1424	0.6096	0.4162	0.268
Mof_H 	H 	0.1888	0.6623	0.4185	0.257
Mof_H 	H 	0.1426	0.604	0.3584	0.272
Mof_H 	H 	0.0595	0.1323	0.0848	-0.033
Mof_H 	H 	0.0366	0.2077	0.1171	0.123
Mof_H 	H 	0.8805	0.101	0.9751	0.153
Mof_H 	H 	0.9062	0.0369	0.9493	-0.074
Mof_H 	H 	0.9162	0.1424	0.1096	0.271
Mof_H 	H 	0.9185	0.1888	0.1623	0.262
Mof_H 	H 	0.8584	0.1426	0.104	0.272
Mof_H 	H 	0.9525	0.3677	0.4272	-0.031
Mof_H 	H 	0.9094	0.2923	0.3289	0.126
Mof_H 	H 	0.8741	0.399	0.2795	0.156
Mof_H 	H 	0.9124	0.4631	0.3693	-0.059
Mof_H 	H 	0.9672	0.3576	0.2738	0.286
Mof_H 	H 	0.9735	0.3112	0.2297	0.274
Mof_H 	H 	0.9614	0.3574	0.2158	0.289
Mof_H 	H 	0.4405	0.5253	0.0728	-0.047
Mof_H 	H 	0.4634	0.5805	0.1711	0.122
Mof_H 	H 	0.6195	0.5946	0.2205	0.155
Mof_H 	H 	0.5938	0.5431	0.1307	-0.062
Mof_H 	H 	0.5838	0.6934	0.2262	0.27
Mof_H 	H 	0.5815	0.7438	0.2703	0.259
Mof_H 	H 	0.6416	0.7456	0.2842	0.274
Mof_H 	H 	0.5475	0.9747	0.4152	-0.03
Mof_H 	H 	0.5906	0.9195	0.3829	0.126
Mof_H 	H 	0.6259	0.9054	0.5249	0.156
Mof_H 	H 	0.5876	0.9569	0.5507	-0.056
Mof_H 	H 	0.5328	0.8066	0.3904	0.269
Mof_H 	H 	0.5265	0.7562	0.3377	0.258
Mof_H 	H 	0.5386	0.7544	0.396	0.273
Mof_H 	H 	0.5475	0.5728	0.6323	-0.037
Mof_H 	H 	0.5906	0.6711	0.7077	0.126
Mof_H 	H 	0.6259	0.7205	0.601	0.156
Mof_H 	H 	0.5876	0.6307	0.5369	-0.062
Mof_H 	H 	0.5328	0.7262	0.6424	0.27
Mof_H 	H 	0.5265	0.7703	0.6888	0.259
Mof_H 	H 	0.5386	0.7842	0.6426	0.274
Mof_H 	H 	0.4405	0.9152	0.8677	-0.04
Mof_H 	H 	0.4634	0.8829	0.7923	0.135
Mof_H 	H 	0.6195	0.0249	0.899	0.173
Mof_H 	H 	0.5938	0.0507	0.9631	-0.055
Mof_H 	H 	0.5838	0.8904	0.8576	0.283
Mof_H 	H 	0.5815	0.8377	0.8112	0.268
Mof_H 	H 	0.6416	0.896	0.8574	0.285
Mof_H 	H 	0.9525	0.5848	0.0253	-0.038
Mof_H 	H 	0.9094	0.6171	0.0805	0.126
Mof_H 	H 	0.8741	0.4751	0.0946	0.156
Mof_H 	H 	0.9124	0.4493	0.0431	-0.065
Mof_H 	H 	0.9672	0.6096	0.1934	0.287
Mof_H 	H 	0.9735	0.6623	0.2438	0.274
Mof_H 	H 	0.9614	0.604	0.2456	0.29
Mof_H 	H 	0.0595	0.9272	0.4747	-0.028
Mof_H 	H 	0.0366	0.8289	0.4195	0.136
Mof_H 	H 	0.8805	0.7795	0.4054	0.169
Mof_H 	H 	0.9062	0.8693	0.4569	-0.068
Mof_H 	H 	0.9162	0.7738	0.3066	0.282
Mof_H 	H 	0.9185	0.7297	0.2562	0.27
Mof_H 	H 	0.8584	0.7158	0.2544	0.282
Mof_H 	H 	0.5848	0.5253	0.4525	-0.038
Mof_H 	H 	0.6171	0.5805	0.4094	0.125
Mof_H 	H 	0.4751	0.5946	0.3741	0.155
Mof_H 	H 	0.4493	0.5431	0.4124	-0.062
Mof_H 	H 	0.6096	0.6934	0.4672	0.272
Mof_H 	H 	0.6623	0.7438	0.4735	0.262
Mof_H 	H 	0.604	0.7456	0.4614	0.276
Mof_H 	H 	0.9272	0.9747	0.5595	-0.021
Mof_H 	H 	0.8289	0.9195	0.5366	0.128
Mof_H 	H 	0.7795	0.9054	0.3805	0.155
Mof_H 	H 	0.8693	0.9569	0.4062	-0.055
Mof_H 	H 	0.7738	0.8066	0.4162	0.272
Mof_H 	H 	0.7297	0.7562	0.4185	0.261
Mof_H 	H 	0.7158	0.7544	0.3584	0.275
Mof_H 	H 	0.5728	0.1323	0.0475	-0.045
Mof_H 	H 	0.6711	0.2077	0.0906	0.121
Mof_H 	H 	0.7205	0.101	0.1259	0.151
Mof_H 	H 	0.6307	0.0369	0.0876	-0.072
Mof_H 	H 	0.7262	0.1424	0.0328	0.253
Mof_H 	H 	0.7703	0.1888	0.0265	0.242
Mof_H 	H 	0.7842	0.1426	0.0386	0.257
Mof_H 	H 	0.9152	0.3677	0.9405	-0.043
Mof_H 	H 	0.8829	0.2923	0.9634	0.126
Mof_H 	H 	0.0249	0.399	0.1195	0.156
Mof_H 	H 	0.0507	0.4631	0.0938	-0.059
Mof_H 	H 	0.8904	0.3576	0.0838	0.269
Mof_H 	H 	0.8377	0.3112	0.0815	0.255
Mof_H 	H 	0.896	0.3574	0.1416	0.276
Mof_H 	H 	0.3677	0.4405	0.4152	-0.038
Mof_H 	H 	0.2923	0.4634	0.3829	0.122
Mof_H 	H 	0.399	0.6195	0.5249	0.155
Mof_H 	H 	0.4631	0.5938	0.5507	-0.061
Mof_H 	H 	0.3576	0.5838	0.3904	0.269
Mof_H 	H 	0.3112	0.5815	0.3377	0.257
Mof_H 	H 	0.3574	0.6416	0.396	0.273
Mof_H 	H 	0.1323	0.5475	0.0728	-0.048
Mof_H 	H 	0.2077	0.5906	0.1711	0.122
Mof_H 	H 	0.101	0.6259	0.2205	0.152
Mof_H 	H 	0.0369	0.5876	0.1307	-0.073
Mof_H 	H 	0.1424	0.5328	0.2262	0.266
Mof_H 	H 	0.1888	0.5265	0.2703	0.254
Mof_H 	H 	0.1426	0.5386	0.2842	0.27
Mof_H 	H 	0.9747	0.0595	0.4272	-0.028
Mof_H 	H 	0.9195	0.0366	0.3289	0.135
Mof_H 	H 	0.9054	0.8805	0.2795	0.168
Mof_H 	H 	0.9569	0.9062	0.3693	-0.063
Mof_H 	H 	0.8066	0.9162	0.2738	0.281
Mof_H 	H 	0.7562	0.9185	0.2297	0.27
Mof_H 	H 	0.7544	0.8584	0.2158	0.282
Mof_H 	H 	0.5253	0.9525	0.0848	-0.027
Mof_H 	H 	0.5805	0.9094	0.1171	0.116
Mof_H 	H 	0.5946	0.8741	0.9751	0.142
Mof_H 	H 	0.5431	0.9124	0.9493	-0.054
Mof_H 	H 	0.6934	0.9672	0.1096	0.276
Mof_H 	H 	0.7438	0.9735	0.1623	0.266
Mof_H 	H 	0.7456	0.9614	0.104	0.279
Mof_C 	C 	0.10312	0.06241	0.12505	0.143
Mof_C 	C 	0.1631	0.09001	0.17231	-0.284
Mof_C 	C 	0.20693	0.11486	0.16211	0.273
Mof_C 	C 	0.19148	0.11058	0.1097	-0.361
Mof_C 	C 	0.13785	0.08594	0.07117	0.217
Mof_C 	C 	0.26827	0.14354	0.20805	-0.257
Mof_C 	C 	0.2989	0.11266	0.20916	0.272
Mof_C 	C 	0.26691	0.04649	0.1668	-0.763
Mof_C 	C 	0.43736	0.97807	0.37495	0.161
Mof_C 	C 	0.4177	0.99079	0.32769	-0.225
Mof_C 	C 	0.45275	0.04482	0.33789	0.218
Mof_C 	C 	0.50088	0.08178	0.3903	-0.319
Mof_C 	C 	0.51477	0.06668	0.42883	0.19
Mof_C 	C 	0.43549	0.06022	0.29195	-0.235
Mof_C 	C 	0.4035	0.08974	0.29084	0.261
Mof_C 	C 	0.37969	0.10011	0.3332	-0.766
Mof_C 	C 	0.06264	0.43759	0.54071	0.125
Mof_C 	C 	0.0823	0.40999	0.57309	-0.249
Mof_C 	C 	0.04725	0.38514	0.59207	0.212
Mof_C 	C 	0.99912	0.38942	0.5809	-0.288
Mof_C 	C 	0.98523	0.41406	0.55191	0.217
Mof_C 	C 	0.06451	0.35646	0.62473	-0.234
Mof_C 	C 	0.0965	0.38734	0.68624	0.263
Mof_C 	C 	0.12031	0.45351	0.72042	-0.774
Mof_C 	C 	0.39688	0.52193	0.95929	0.148
Mof_C 	C 	0.3369	0.50921	0.92691	-0.275
Mof_C 	C 	0.29307	0.45518	0.90793	0.274
Mof_C 	C 	0.30852	0.41822	0.9191	-0.355
Mof_C 	C 	0.36215	0.43332	0.94809	0.221
Mof_C 	C 	0.23173	0.43978	0.87527	-0.256
Mof_C 	C 	0.2011	0.41026	0.81376	0.282
Mof_C 	C 	0.23309	0.39989	0.77958	-0.795
Mof_C 	C 	0.04071	0.06264	0.93759	0.13
Mof_C 	C 	0.07309	0.0823	0.90999	-0.255
Mof_C 	C 	0.09207	0.04725	0.88514	0.223
Mof_C 	C 	0.0809	0.99912	0.88942	-0.299
Mof_C 	C 	0.05191	0.98523	0.91406	0.221
Mof_C 	C 	0.12473	0.06451	0.85646	-0.241
Mof_C 	C 	0.18624	0.0965	0.88734	0.273
Mof_C 	C 	0.22042	0.12031	0.95351	-0.803
Mof_C 	C 	0.45929	0.39688	0.02193	0.129
Mof_C 	C 	0.42691	0.3369	0.00921	-0.338
Mof_C 	C 	0.40793	0.29307	0.95518	0.336
Mof_C 	C 	0.4191	0.30852	0.91822	-0.4
Mof_C 	C 	0.44809	0.36215	0.93332	0.253
Mof_C 	C 	0.37527	0.23173	0.93978	-0.284
Mof_C 	C 	0.31376	0.2011	0.91026	0.303
Mof_C 	C 	0.27958	0.23309	0.89989	-0.821
Mof_C 	C 	0.62505	0.10312	0.56241	0.147
Mof_C 	C 	0.67231	0.1631	0.59001	-0.282
Mof_C 	C 	0.66211	0.20693	0.61486	0.276
Mof_C 	C 	0.6097	0.19148	0.61058	-0.36
Mof_C 	C 	0.57117	0.13785	0.58594	0.221
Mof_C 	C 	0.70805	0.26827	0.64354	-0.259
Mof_C 	C 	0.70916	0.2989	0.61266	0.282
Mof_C 	C 	0.6668	0.26691	0.54649	-0.794
Mof_C 	C 	0.87495	0.43736	0.47807	0.146
Mof_C 	C 	0.82769	0.4177	0.49079	-0.278
Mof_C 	C 	0.83789	0.45275	0.54482	0.275
Mof_C 	C 	0.8903	0.50088	0.58178	-0.356
Mof_C 	C 	0.92883	0.51477	0.56668	0.22
Mof_C 	C 	0.79195	0.43549	0.56022	-0.259
Mof_C 	C 	0.79084	0.4035	0.58974	0.283
Mof_C 	C 	0.8332	0.37969	0.60011	-0.798
Mof_C 	C 	0.97807	0.87495	0.93736	0.181
Mof_C 	C 	0.99079	0.82769	0.9177	-0.254
Mof_C 	C 	0.04482	0.83789	0.95275	0.28
Mof_C 	C 	0.08178	0.8903	0.00088	-0.387
Mof_C 	C 	0.06668	0.92883	0.01477	0.194
Mof_C 	C 	0.06022	0.79195	0.93549	-0.261
Mof_C 	C 	0.08974	0.79084	0.9035	0.284
Mof_C 	C 	0.10011	0.8332	0.87969	-0.798
Mof_C 	C 	0.06241	0.62505	0.60312	0.143
Mof_C 	C 	0.09001	0.67231	0.6631	-0.281
Mof_C 	C 	0.11486	0.66211	0.70693	0.273
Mof_C 	C 	0.11058	0.6097	0.69148	-0.358
Mof_C 	C 	0.08594	0.57117	0.63785	0.217
Mof_C 	C 	0.14354	0.70805	0.76827	-0.256
Mof_C 	C 	0.11266	0.70916	0.7989	0.274
Mof_C 	C 	0.04649	0.6668	0.76691	-0.767
Mof_C 	C 	0.52193	0.45929	0.89688	0.146
Mof_C 	C 	0.50921	0.42691	0.8369	-0.276
Mof_C 	C 	0.45518	0.40793	0.79307	0.274
Mof_C 	C 	0.41822	0.4191	0.80852	-0.357
Mof_C 	C 	0.43332	0.44809	0.86215	0.22
Mof_C 	C 	0.43978	0.37527	0.73173	-0.258
Mof_C 	C 	0.41026	0.31376	0.7011	0.281
Mof_C 	C 	0.39989	0.27958	0.73309	-0.794
Mof_C 	C 	0.43759	0.04071	0.56264	0.145
Mof_C 	C 	0.40999	0.07309	0.5823	-0.283
Mof_C 	C 	0.38514	0.09207	0.54725	0.276
Mof_C 	C 	0.38942	0.0809	0.49912	-0.362
Mof_C 	C 	0.41406	0.05191	0.48523	0.22
Mof_C 	C 	0.35646	0.12473	0.56451	-0.262
Mof_C 	C 	0.38734	0.18624	0.5965	0.284
Mof_C 	C 	0.45351	0.22042	0.62031	-0.798
Mof_C 	C 	0.43759	0.39688	0.37495	0.146
Mof_C 	C 	0.40999	0.3369	0.32769	-0.279
Mof_C 	C 	0.38514	0.29307	0.33789	0.274
Mof_C 	C 	0.38942	0.30852	0.3903	-0.358
Mof_C 	C 	0.41406	0.36215	0.42883	0.22
Mof_C 	C 	0.35646	0.23173	0.29195	-0.259
Mof_C 	C 	0.38734	0.2011	0.29084	0.282
Mof_C 	C 	0.45351	0.23309	0.3332	-0.795
Mof_C 	C 	0.52193	0.06264	0.12505	0.127
Mof_C 	C 	0.50921	0.0823	0.17231	-0.252
Mof_C 	C 	0.45518	0.04725	0.16211	0.216
Mof_C 	C 	0.41822	0.99912	0.1097	-0.294
Mof_C 	C 	0.43332	0.98523	0.07117	0.217
Mof_C 	C 	0.43978	0.06451	0.20805	-0.234
Mof_C 	C 	0.41026	0.0965	0.20916	0.261
Mof_C 	C 	0.39989	0.12031	0.1668	-0.767
Mof_C 	C 	0.06241	0.43736	0.95929	0.144
Mof_C 	C 	0.09001	0.4177	0.92691	-0.276
Mof_C 	C 	0.11486	0.45275	0.90793	0.271
Mof_C 	C 	0.11058	0.50088	0.9191	-0.354
Mof_C 	C 	0.08594	0.51477	0.94809	0.216
Mof_C 	C 	0.14354	0.43549	0.87527	-0.253
Mof_C 	C 	0.11266	0.4035	0.81376	0.273
Mof_C 	C 	0.04649	0.37969	0.77958	-0.766
Mof_C 	C 	0.97807	0.10312	0.54071	0.163
Mof_C 	C 	0.99079	0.1631	0.57309	-0.224
Mof_C 	C 	0.04482	0.20693	0.59207	0.215
Mof_C 	C 	0.08178	0.19148	0.5809	-0.319
Mof_C 	C 	0.06668	0.13785	0.55191	0.189
Mof_C 	C 	0.06022	0.26827	0.62473	-0.235
Mof_C 	C 	0.08974	0.2989	0.68624	0.261
Mof_C 	C 	0.10011	0.26691	0.72042	-0.768
Mof_C 	C 	0.43736	0.45929	0.56241	0.146
Mof_C 	C 	0.4177	0.42691	0.59001	-0.279
Mof_C 	C 	0.45275	0.40793	0.61486	0.275
Mof_C 	C 	0.50088	0.4191	0.61058	-0.358
Mof_C 	C 	0.51477	0.44809	0.58594	0.22
Mof_C 	C 	0.43549	0.37527	0.64354	-0.258
Mof_C 	C 	0.4035	0.31376	0.61266	0.28
Mof_C 	C 	0.37969	0.27958	0.54649	-0.79
Mof_C 	C 	0.10312	0.04071	0.47807	0.145
Mof_C 	C 	0.1631	0.07309	0.49079	-0.285
Mof_C 	C 	0.20693	0.09207	0.54482	0.276
Mof_C 	C 	0.19148	0.0809	0.58178	-0.363
Mof_C 	C 	0.13785	0.05191	0.56668	0.22
Mof_C 	C 	0.26827	0.12473	0.56022	-0.262
Mof_C 	C 	0.2989	0.18624	0.58974	0.282
Mof_C 	C 	0.26691	0.22042	0.60011	-0.793
Mof_C 	C 	0.39688	0.87495	0.93759	0.15
Mof_C 	C 	0.3369	0.82769	0.90999	-0.277
Mof_C 	C 	0.29307	0.83789	0.88514	0.277
Mof_C 	C 	0.30852	0.8903	0.88942	-0.356
Mof_C 	C 	0.36215	0.92883	0.91406	0.224
Mof_C 	C 	0.23173	0.79195	0.85646	-0.262
Mof_C 	C 	0.2011	0.79084	0.88734	0.292
Mof_C 	C 	0.23309	0.8332	0.95351	-0.828
Mof_C 	C 	0.06264	0.62505	0.02193	0.11
Mof_C 	C 	0.0823	0.67231	0.00921	-0.308
Mof_C 	C 	0.04725	0.66211	0.95518	0.276
Mof_C 	C 	0.99912	0.6097	0.91822	-0.333
Mof_C 	C 	0.98523	0.57117	0.93332	0.249
Mof_C 	C 	0.06451	0.70805	0.93978	-0.26
Mof_C 	C 	0.0965	0.70916	0.91026	0.284
Mof_C 	C 	0.12031	0.6668	0.89989	-0.8
Mof_C 	C 	0.62505	0.52193	0.56264	0.147
Mof_C 	C 	0.67231	0.50921	0.5823	-0.28
Mof_C 	C 	0.66211	0.45518	0.54725	0.276
Mof_C 	C 	0.6097	0.41822	0.49912	-0.36
Mof_C 	C 	0.57117	0.43332	0.48523	0.221
Mof_C 	C 	0.70805	0.43978	0.56451	-0.259
Mof_C 	C 	0.70916	0.41026	0.5965	0.283
Mof_C 	C 	0.6668	0.39989	0.62031	-0.798
Mof_C 	C 	0.87495	0.43759	0.89688	0.146
Mof_C 	C 	0.82769	0.40999	0.8369	-0.276
Mof_C 	C 	0.83789	0.38514	0.79307	0.274
Mof_C 	C 	0.8903	0.38942	0.80852	-0.355
Mof_C 	C 	0.92883	0.41406	0.86215	0.22
Mof_C 	C 	0.79195	0.35646	0.73173	-0.259
Mof_C 	C 	0.79084	0.38734	0.7011	0.284
Mof_C 	C 	0.8332	0.45351	0.73309	-0.802
Mof_C 	C 	0.04071	0.97807	0.60312	0.16
Mof_C 	C 	0.07309	0.99079	0.6631	-0.231
Mof_C 	C 	0.09207	0.04482	0.70693	0.221
Mof_C 	C 	0.0809	0.08178	0.69148	-0.325
Mof_C 	C 	0.05191	0.06668	0.63785	0.191
Mof_C 	C 	0.12473	0.06022	0.76827	-0.239
Mof_C 	C 	0.18624	0.08974	0.7989	0.263
Mof_C 	C 	0.22042	0.10011	0.76691	-0.769
Mof_C 	C 	0.45929	0.06241	0.93736	0.164
Mof_C 	C 	0.42691	0.09001	0.9177	-0.311
Mof_C 	C 	0.40793	0.11486	0.95275	0.336
Mof_C 	C 	0.4191	0.11058	0.00088	-0.43
Mof_C 	C 	0.44809	0.08594	0.01477	0.22
Mof_C 	C 	0.37527	0.14354	0.93549	-0.283
Mof_C 	C 	0.31376	0.11266	0.9035	0.295
Mof_C 	C 	0.27958	0.04649	0.87969	-0.793
Mof_C 	C 	0.89688	0.93759	0.87495	0.149
Mof_C 	C 	0.8369	0.90999	0.82769	-0.275
Mof_C 	C 	0.79307	0.88514	0.83789	0.277
Mof_C 	C 	0.80852	0.88942	0.8903	-0.355
Mof_C 	C 	0.86215	0.91406	0.92883	0.224
Mof_C 	C 	0.73173	0.85646	0.79195	-0.261
Mof_C 	C 	0.7011	0.88734	0.79084	0.291
Mof_C 	C 	0.73309	0.95351	0.8332	-0.825
Mof_C 	C 	0.56264	0.02193	0.62505	0.131
Mof_C 	C 	0.5823	0.00921	0.67231	-0.332
Mof_C 	C 	0.54725	0.95518	0.66211	0.331
Mof_C 	C 	0.49912	0.91822	0.6097	-0.397
Mof_C 	C 	0.48523	0.93332	0.57117	0.25
Mof_C 	C 	0.56451	0.93978	0.70805	-0.283
Mof_C 	C 	0.5965	0.91026	0.70916	0.302
Mof_C 	C 	0.62031	0.89989	0.6668	-0.822
Mof_C 	C 	0.93736	0.56241	0.45929	0.167
Mof_C 	C 	0.9177	0.59001	0.42691	-0.309
Mof_C 	C 	0.95275	0.61486	0.40793	0.338
Mof_C 	C 	0.00088	0.61058	0.4191	-0.429
Mof_C 	C 	0.01477	0.58594	0.44809	0.224
Mof_C 	C 	0.93549	0.64354	0.37527	-0.285
Mof_C 	C 	0.9035	0.61266	0.31376	0.301
Mof_C 	C 	0.87969	0.54649	0.27958	-0.816
Mof_C 	C 	0.60312	0.47807	0.04071	0.145
Mof_C 	C 	0.6631	0.49079	0.07309	-0.283
Mof_C 	C 	0.70693	0.54482	0.09207	0.276
Mof_C 	C 	0.69148	0.58178	0.0809	-0.362
Mof_C 	C 	0.63785	0.56668	0.05191	0.22
Mof_C 	C 	0.76827	0.56022	0.12473	-0.262
Mof_C 	C 	0.7989	0.58974	0.18624	0.282
Mof_C 	C 	0.76691	0.60011	0.22042	-0.794
Mof_C 	C 	0.95929	0.93736	0.06241	0.162
Mof_C 	C 	0.92691	0.9177	0.09001	-0.303
Mof_C 	C 	0.90793	0.95275	0.11486	0.326
Mof_C 	C 	0.9191	0.00088	0.11058	-0.416
Mof_C 	C 	0.94809	0.01477	0.08594	0.22
Mof_C 	C 	0.87527	0.93549	0.14354	-0.276
Mof_C 	C 	0.81376	0.9035	0.11266	0.291
Mof_C 	C 	0.77958	0.87969	0.04649	-0.788
Mof_C 	C 	0.54071	0.60312	0.97807	0.164
Mof_C 	C 	0.57309	0.6631	0.99079	-0.223
Mof_C 	C 	0.59207	0.70693	0.04482	0.216
Mof_C 	C 	0.5809	0.69148	0.08178	-0.318
Mof_C 	C 	0.55191	0.63785	0.06668	0.189
Mof_C 	C 	0.62473	0.76827	0.06022	-0.235
Mof_C 	C 	0.68624	0.7989	0.08974	0.261
Mof_C 	C 	0.72042	0.76691	0.10011	-0.769
Mof_C 	C 	0.37495	0.89688	0.43759	0.145
Mof_C 	C 	0.32769	0.8369	0.40999	-0.276
Mof_C 	C 	0.33789	0.79307	0.38514	0.273
Mof_C 	C 	0.3903	0.80852	0.38942	-0.357
Mof_C 	C 	0.42883	0.86215	0.41406	0.219
Mof_C 	C 	0.29195	0.73173	0.35646	-0.259
Mof_C 	C 	0.29084	0.7011	0.38734	0.282
Mof_C 	C 	0.3332	0.73309	0.45351	-0.795
Mof_C 	C 	0.12505	0.56264	0.52193	0.146
Mof_C 	C 	0.17231	0.5823	0.50921	-0.28
Mof_C 	C 	0.16211	0.54725	0.45518	0.275
Mof_C 	C 	0.1097	0.49912	0.41822	-0.361
Mof_C 	C 	0.07117	0.48523	0.43332	0.221
Mof_C 	C 	0.20805	0.56451	0.43978	-0.259
Mof_C 	C 	0.20916	0.5965	0.41026	0.28
Mof_C 	C 	0.1668	0.62031	0.39989	-0.791
Mof_C 	C 	0.02193	0.12505	0.06264	0.109
Mof_C 	C 	0.00921	0.17231	0.0823	-0.31
Mof_C 	C 	0.95518	0.16211	0.04725	0.278
Mof_C 	C 	0.91822	0.1097	0.99912	-0.336
Mof_C 	C 	0.93332	0.07117	0.98523	0.249
Mof_C 	C 	0.93978	0.20805	0.06451	-0.26
Mof_C 	C 	0.91026	0.20916	0.0965	0.282
Mof_C 	C 	0.89989	0.1668	0.12031	-0.795
Mof_C 	C 	0.93759	0.37495	0.39688	0.149
Mof_C 	C 	0.90999	0.32769	0.3369	-0.278
Mof_C 	C 	0.88514	0.33789	0.29307	0.277
Mof_C 	C 	0.88942	0.3903	0.30852	-0.358
Mof_C 	C 	0.91406	0.42883	0.36215	0.224
Mof_C 	C 	0.85646	0.29195	0.23173	-0.262
Mof_C 	C 	0.88734	0.29084	0.2011	0.29
Mof_C 	C 	0.95351	0.3332	0.23309	-0.823
Mof_C 	C 	0.47807	0.54071	0.10312	0.147
Mof_C 	C 	0.49079	0.57309	0.1631	-0.283
Mof_C 	C 	0.54482	0.59207	0.20693	0.276
Mof_C 	C 	0.58178	0.5809	0.19148	-0.36
Mof_C 	C 	0.56668	0.55191	0.13785	0.221
Mof_C 	C 	0.56022	0.62473	0.26827	-0.26
Mof_C 	C 	0.58974	0.68624	0.2989	0.282
Mof_C 	C 	0.60011	0.72042	0.26691	-0.795
Mof_C 	C 	0.56241	0.95929	0.43736	0.147
Mof_C 	C 	0.59001	0.92691	0.4177	-0.276
Mof_C 	C 	0.61486	0.90793	0.45275	0.274
Mof_C 	C 	0.61058	0.9191	0.50088	-0.355
Mof_C 	C 	0.58594	0.94809	0.51477	0.221
Mof_C 	C 	0.64354	0.87527	0.43549	-0.256
Mof_C 	C 	0.61266	0.81376	0.4035	0.28
Mof_C 	C 	0.54649	0.77958	0.37969	-0.791
Mof_C 	C 	0.56241	0.60312	0.62505	0.147
Mof_C 	C 	0.59001	0.6631	0.67231	-0.28
Mof_C 	C 	0.61486	0.70693	0.66211	0.276
Mof_C 	C 	0.61058	0.69148	0.6097	-0.359
Mof_C 	C 	0.58594	0.63785	0.57117	0.221
Mof_C 	C 	0.64354	0.76827	0.70805	-0.259
Mof_C 	C 	0.61266	0.7989	0.70916	0.281
Mof_C 	C 	0.54649	0.76691	0.6668	-0.794
Mof_C 	C 	0.47807	0.93736	0.87495	0.165
Mof_C 	C 	0.49079	0.9177	0.82769	-0.305
Mof_C 	C 	0.54482	0.95275	0.83789	0.331
Mof_C 	C 	0.58178	0.00088	0.8903	-0.42
Mof_C 	C 	0.56668	0.01477	0.92883	0.223
Mof_C 	C 	0.56022	0.93549	0.79195	-0.283
Mof_C 	C 	0.58974	0.9035	0.79084	0.302
Mof_C 	C 	0.60011	0.87969	0.8332	-0.822
Mof_C 	C 	0.93759	0.56264	0.04071	0.149
Mof_C 	C 	0.90999	0.5823	0.07309	-0.282
Mof_C 	C 	0.88514	0.54725	0.09207	0.279
Mof_C 	C 	0.88942	0.49912	0.0809	-0.363
Mof_C 	C 	0.91406	0.48523	0.05191	0.224
Mof_C 	C 	0.85646	0.56451	0.12473	-0.265
Mof_C 	C 	0.88734	0.5965	0.18624	0.291
Mof_C 	C 	0.95351	0.62031	0.22042	-0.825
Mof_C 	C 	0.02193	0.89688	0.45929	0.13
Mof_C 	C 	0.00921	0.8369	0.42691	-0.333
Mof_C 	C 	0.95518	0.79307	0.40793	0.333
Mof_C 	C 	0.91822	0.80852	0.4191	-0.398
Mof_C 	C 	0.93332	0.86215	0.44809	0.251
Mof_C 	C 	0.93978	0.73173	0.37527	-0.283
Mof_C 	C 	0.91026	0.7011	0.31376	0.302
Mof_C 	C 	0.89989	0.73309	0.27958	-0.821
Mof_C 	C 	0.56264	0.54071	0.43759	0.147
Mof_C 	C 	0.5823	0.57309	0.40999	-0.28
Mof_C 	C 	0.54725	0.59207	0.38514	0.276
Mof_C 	C 	0.49912	0.5809	0.38942	-0.36
Mof_C 	C 	0.48523	0.55191	0.41406	0.221
Mof_C 	C 	0.56451	0.62473	0.35646	-0.26
Mof_C 	C 	0.5965	0.68624	0.38734	0.284
Mof_C 	C 	0.62031	0.72042	0.45351	-0.799
Mof_C 	C 	0.89688	0.95929	0.52193	0.147
Mof_C 	C 	0.8369	0.92691	0.50921	-0.273
Mof_C 	C 	0.79307	0.90793	0.45518	0.273
Mof_C 	C 	0.80852	0.9191	0.41822	-0.354
Mof_C 	C 	0.86215	0.94809	0.43332	0.22
Mof_C 	C 	0.73173	0.87527	0.43978	-0.256
Mof_C 	C 	0.7011	0.81376	0.41026	0.281
Mof_C 	C 	0.73309	0.77958	0.39989	-0.796
Mof_C 	C 	0.60312	0.12505	0.06241	0.142
Mof_C 	C 	0.6631	0.17231	0.09001	-0.281
Mof_C 	C 	0.70693	0.16211	0.11486	0.272
Mof_C 	C 	0.69148	0.1097	0.11058	-0.36
Mof_C 	C 	0.63785	0.07117	0.08594	0.216
Mof_C 	C 	0.76827	0.20805	0.14354	-0.256
Mof_C 	C 	0.7989	0.20916	0.11266	0.271
Mof_C 	C 	0.76691	0.1668	0.04649	-0.762
Mof_C 	C 	0.93736	0.37495	0.97807	0.182
Mof_C 	C 	0.9177	0.32769	0.99079	-0.256
Mof_C 	C 	0.95275	0.33789	0.04482	0.281
Mof_C 	C 	0.00088	0.3903	0.08178	-0.391
Mof_C 	C 	0.01477	0.42883	0.06668	0.193
Mof_C 	C 	0.93549	0.29195	0.06022	-0.262
Mof_C 	C 	0.9035	0.29084	0.08974	0.282
Mof_C 	C 	0.87969	0.3332	0.10011	-0.792
Mof_C 	C 	0.37495	0.47807	0.43736	0.146
Mof_C 	C 	0.32769	0.49079	0.4177	-0.279
Mof_C 	C 	0.33789	0.54482	0.45275	0.274
Mof_C 	C 	0.3903	0.58178	0.50088	-0.358
Mof_C 	C 	0.42883	0.56668	0.51477	0.22
Mof_C 	C 	0.29195	0.56022	0.43549	-0.259
Mof_C 	C 	0.29084	0.58974	0.4035	0.28
Mof_C 	C 	0.3332	0.60011	0.37969	-0.791
Mof_C 	C 	0.12505	0.56241	0.10312	0.146
Mof_C 	C 	0.17231	0.59001	0.1631	-0.283
Mof_C 	C 	0.16211	0.61486	0.20693	0.276
Mof_C 	C 	0.1097	0.61058	0.19148	-0.362
Mof_C 	C 	0.07117	0.58594	0.13785	0.221
Mof_C 	C 	0.20805	0.64354	0.26827	-0.259
Mof_C 	C 	0.20916	0.61266	0.2989	0.279
Mof_C 	C 	0.1668	0.54649	0.26691	-0.787
Mof_C 	C 	0.95929	0.02193	0.39688	0.133
Mof_C 	C 	0.92691	0.00921	0.3369	-0.326
Mof_C 	C 	0.90793	0.95518	0.29307	0.327
Mof_C 	C 	0.9191	0.91822	0.30852	-0.391
Mof_C 	C 	0.94809	0.93332	0.36215	0.248
Mof_C 	C 	0.87527	0.93978	0.23173	-0.279
Mof_C 	C 	0.81376	0.91026	0.2011	0.3
Mof_C 	C 	0.77958	0.89989	0.23309	-0.819
Mof_C 	C 	0.54071	0.93759	0.06264	0.129
Mof_C 	C 	0.57309	0.90999	0.0823	-0.249
Mof_C 	C 	0.59207	0.88514	0.04725	0.216
Mof_C 	C 	0.5809	0.88942	0.99912	-0.29
Mof_C 	C 	0.55191	0.91406	0.98523	0.221
Mof_C 	C 	0.62473	0.85646	0.06451	-0.237
Mof_C 	C 	0.68624	0.88734	0.0965	0.27
Mof_C 	C 	0.72042	0.95351	0.12031	-0.798
Mof_C 	C 	0.26286	0.23714	0.25	-0.067
Mof_C 	C 	0.29799	0.20201	0.25	0.158
Mof_C 	C 	0.35876	0.14124	0.25	-0.171
Mof_C 	C 	0.48714	0.01286	0.25	-0.074
Mof_C 	C 	0.45201	0.04799	0.25	0.139
Mof_C 	C 	0.39124	0.10876	0.25	-0.158
Mof_C 	C 	0.01286	0.26286	0.52572	-0.077
Mof_C 	C 	0.04799	0.29799	0.59598	0.139
Mof_C 	C 	0.10876	0.35876	0.71752	-0.159
Mof_C 	C 	0.23714	0.48714	0.97428	-0.049
Mof_C 	C 	0.20201	0.45201	0.90402	0.156
Mof_C 	C 	0.14124	0.39124	0.78248	-0.17
Mof_C 	C 	0.02572	0.01286	0.76286	-0.084
Mof_C 	C 	0.09598	0.04799	0.79799	0.144
Mof_C 	C 	0.21752	0.10876	0.85876	-0.159
Mof_C 	C 	0.47428	0.23714	0.98714	-0.05
Mof_C 	C 	0.40402	0.20201	0.95201	0.179
Mof_C 	C 	0.28248	0.14124	0.89124	-0.183
Mof_C 	C 	0.75	0.26286	0.73714	-0.059
Mof_C 	C 	0.75	0.29799	0.70201	0.16
Mof_C 	C 	0.75	0.35876	0.64124	-0.171
Mof_C 	C 	0.75	0.48714	0.51286	-0.06
Mof_C 	C 	0.75	0.45201	0.54799	0.16
Mof_C 	C 	0.75	0.39124	0.60876	-0.171
Mof_C 	C 	0.01286	0.75	0.98714	-0.06
Mof_C 	C 	0.04799	0.75	0.95201	0.161
Mof_C 	C 	0.10876	0.75	0.89124	-0.171
Mof_C 	C 	0.23714	0.75	0.76286	-0.06
Mof_C 	C 	0.20201	0.75	0.79799	0.16
Mof_C 	C 	0.14124	0.75	0.85876	-0.17
Mof_C 	C 	0.48714	0.47428	0.73714	-0.058
Mof_C 	C 	0.45201	0.40402	0.70201	0.158
Mof_C 	C 	0.39124	0.28248	0.64124	-0.169
Mof_C 	C 	0.26286	0.02572	0.51286	-0.076
Mof_C 	C 	0.29799	0.09598	0.54799	0.161
Mof_C 	C 	0.35876	0.21752	0.60876	-0.172
Mof_C 	C 	0.73714	0.76286	0.75	-0.057
Mof_C 	C 	0.70201	0.79799	0.75	0.161
Mof_C 	C 	0.64124	0.85876	0.75	-0.169
Mof_C 	C 	0.51286	0.98714	0.75	-0.049
Mof_C 	C 	0.54799	0.95201	0.75	0.179
Mof_C 	C 	0.60876	0.89124	0.75	-0.182
Mof_C 	C 	0.98714	0.73714	0.47428	-0.047
Mof_C 	C 	0.95201	0.70201	0.40402	0.179
Mof_C 	C 	0.89124	0.64124	0.28248	-0.181
Mof_C 	C 	0.76286	0.51286	0.02572	-0.074
Mof_C 	C 	0.79799	0.54799	0.09598	0.162
Mof_C 	C 	0.85876	0.60876	0.21752	-0.17
Mof_C 	C 	0.97428	0.98714	0.23714	-0.039
Mof_C 	C 	0.90402	0.95201	0.20201	0.174
Mof_C 	C 	0.78248	0.89124	0.14124	-0.181
Mof_C 	C 	0.52572	0.76286	0.01286	-0.074
Mof_C 	C 	0.59598	0.79799	0.04799	0.141
Mof_C 	C 	0.71752	0.85876	0.10876	-0.158
Mof_C 	C 	0.25	0.73714	0.26286	-0.064
Mof_C 	C 	0.25	0.70201	0.29799	0.159
Mof_C 	C 	0.25	0.64124	0.35876	-0.17
Mof_C 	C 	0.25	0.51286	0.48714	-0.064
Mof_C 	C 	0.25	0.54799	0.45201	0.159
Mof_C 	C 	0.25	0.60876	0.39124	-0.17
Mof_C 	C 	0.98714	0.25	0.01286	-0.063
Mof_C 	C 	0.95201	0.25	0.04799	0.16
Mof_C 	C 	0.89124	0.25	0.10876	-0.171
Mof_C 	C 	0.76286	0.25	0.23714	-0.063
Mof_C 	C 	0.79799	0.25	0.20201	0.159
Mof_C 	C 	0.85876	0.25	0.14124	-0.17
Mof_C 	C 	0.51286	0.52572	0.26286	-0.065
Mof_C 	C 	0.54799	0.59598	0.29799	0.16
Mof_C 	C 	0.60876	0.71752	0.35876	-0.171
Mof_C 	C 	0.73714	0.97428	0.48714	-0.047
Mof_C 	C 	0.70201	0.90402	0.45201	0.157
Mof_C 	C 	0.64124	0.78248	0.39124	-0.169
Mof_N 	N 	0.08926	0.05722	0.074	-0.305
Mof_N 	N 	0.48322	0.01526	0.426	-0.306
Mof_N 	N 	0.01678	0.44278	0.53204	-0.304
Mof_N 	N 	0.41074	0.48474	0.96796	-0.285
Mof_N 	N 	0.03204	0.01678	0.94278	-0.301
Mof_N 	N 	0.46796	0.41074	0.98474	-0.278
Mof_N 	N 	0.574	0.08926	0.55722	-0.297
Mof_N 	N 	0.926	0.48322	0.51526	-0.288
Mof_N 	N 	0.01526	0.926	0.98322	-0.289
Mof_N 	N 	0.05722	0.574	0.58926	-0.298
Mof_N 	N 	0.48474	0.46796	0.91074	-0.288
Mof_N 	N 	0.44278	0.03204	0.51678	-0.299
Mof_N 	N 	0.44278	0.41074	0.426	-0.294
Mof_N 	N 	0.48474	0.01678	0.074	-0.307
Mof_N 	N 	0.05722	0.48322	0.96796	-0.289
Mof_N 	N 	0.01526	0.08926	0.53204	-0.31
Mof_N 	N 	0.48322	0.46796	0.55722	-0.294
Mof_N 	N 	0.08926	0.03204	0.51526	-0.303
Mof_N 	N 	0.41074	0.926	0.94278	-0.282
Mof_N 	N 	0.01678	0.574	0.98474	-0.288
Mof_N 	N 	0.574	0.48474	0.51678	-0.294
Mof_N 	N 	0.926	0.44278	0.91074	-0.283
Mof_N 	N 	0.03204	0.01526	0.58926	-0.312
Mof_N 	N 	0.46796	0.05722	0.98322	-0.285
Mof_N 	N 	0.91074	0.94278	0.926	-0.277
Mof_N 	N 	0.51678	0.98474	0.574	-0.28
Mof_N 	N 	0.98322	0.55722	0.46796	-0.281
Mof_N 	N 	0.58926	0.51526	0.03204	-0.3
Mof_N 	N 	0.96796	0.98322	0.05722	-0.279
Mof_N 	N 	0.53204	0.58926	0.01526	-0.307
Mof_N 	N 	0.426	0.91074	0.44278	-0.288
Mof_N 	N 	0.074	0.51678	0.48474	-0.298
Mof_N 	N 	0.98474	0.074	0.01678	-0.29
Mof_N 	N 	0.94278	0.426	0.41074	-0.287
Mof_N 	N 	0.51526	0.53204	0.08926	-0.297
Mof_N 	N 	0.55722	0.96796	0.48322	-0.286
Mof_N 	N 	0.55722	0.58926	0.574	-0.294
Mof_N 	N 	0.51526	0.98322	0.926	-0.277
Mof_N 	N 	0.94278	0.51678	0.03204	-0.293
Mof_N 	N 	0.98474	0.91074	0.46796	-0.274
Mof_N 	N 	0.51678	0.53204	0.44278	-0.294
Mof_N 	N 	0.91074	0.96796	0.48474	-0.281
Mof_N 	N 	0.58926	0.074	0.05722	-0.301
Mof_N 	N 	0.98322	0.426	0.01526	-0.294
Mof_N 	N 	0.426	0.51526	0.48322	-0.294
Mof_N 	N 	0.074	0.55722	0.08926	-0.301
Mof_N 	N 	0.96796	0.98474	0.41074	-0.272
Mof_N 	N 	0.53204	0.94278	0.01678	-0.298
Mof_Cl	Cl	0.75	0	-0	-0.338
Mof_O 	O 	0.781	0.031	0.062	-0.079
Mof_O 	O 	0.75	0.031	0.969	-0.053
Mof_O 	O 	0.719	0.938	0.969	-0.028
Mof_Cl	Cl	0.5	0.75	0.5	-0.247
Mof_O 	O 	0.469	0.719	0.438	-0.083
Mof_O 	O 	0.562	0.781	0.531	-0.082
Mof_O 	O 	0.469	0.75	0.531	-0.083
Mof_Cl	Cl	1.36232e-17	0.5	0.25	-0.28
Mof_O 	O 	0.031	0.469	0.25	-0.088
Mof_O 	O 	0.938	0.469	0.219	-0.06
Mof_O 	O 	0.031	0.562	0.281	-0.088
Mof_Cl	Cl	0.75	0.75	0.25	-0.247
Mof_O 	O 	0.719	0.781	0.25	-0.082
Mof_O 	O 	0.75	0.719	0.281	-0.083
Mof_O 	O 	0.781	0.75	0.219	-0.083
Mof_Cl	Cl	0.25	0	-0	-0.338
Mof_O 	O 	0.219	0.969	0.938	-0.028
Mof_O 	O 	0.25	0.969	0.031	-0.054
Mof_O 	O 	0.281	0.062	0.031	-0.081
Mof_Cl	Cl	0.5	0.25	0.5	-0.246
Mof_O 	O 	0.531	0.281	0.562	-0.082
Mof_O 	O 	0.438	0.219	0.469	-0.083
Mof_O 	O 	0.531	0.25	0.469	-0.083
Mof_Cl	Cl	8.17392e-17	0.5	0.75	-0.31
Mof_O 	O 	0.969	0.531	0.75	-0.048
Mof_O 	O 	0.062	0.531	0.781	-0.075
Mof_O 	O 	0.969	0.438	0.719	-0.047
Mof_Cl	Cl	0.25	0.25	0.75	-0.246
Mof_O 	O 	0.281	0.219	0.75	-0.083
Mof_O 	O 	0.25	0.281	0.719	-0.083
Mof_O 	O 	0.219	0.25	0.781	-0.083
_end
