data_functionalizedCrystal
_audit_creation_method	'EQeq! by Chris Wilmer'
_symmetry_space_group_name_H-M	'P1'
_symmetry_Int_Tables_number	1
_symmetry_cell_setting	triclinic
loop_
_symmetry_equiv_pos_as_xyz
  x,y,z
_cell_length_a	9.7549
_cell_length_b	13.1891
_cell_length_c	10.508
_cell_angle_alpha	90
_cell_angle_beta	109.603
_cell_angle_gamma	90
loop_
_atom_site_label
_atom_site_type_symbol
_atom_site_fract_x
_atom_site_fract_y
_atom_site_fract_z
_atom_site_charge
Mof_C 	C 	0.4566	0.6438	0.653	-0.083
Mof_C 	C 	0.3111	0.6665	0.5984	0.018
Mof_H 	H 	0.2787	0.708	0.5201	0.049
Mof_C 	C 	0.211	0.631	0.6535	-0.072
Mof_C 	C 	0.2645	0.5713	0.7746	-0.019
Mof_H 	H 	0.1977	0.5461	0.8152	0.052
Mof_C 	C 	0.4084	0.55	0.8323	-0.006
Mof_C 	C 	0.507	0.5894	0.7751	-0.018
Mof_H 	H 	0.6085	0.5795	0.8187	0.039
Mof_C 	C 	0.5643	0.6837	0.5935	0.299
Mof_C 	C 	0.0491	0.6509	0.5988	0.315
Mof_C 	C 	0.4019	0.3877	0.9512	-0.095
Mof_C 	C 	0.4532	0.4867	0.9556	0.046
Mof_C 	C 	0.538	0.5283	0.0771	-0.071
Mof_H 	H 	0.5735	0.5956	0.0797	0.069
Mof_C 	C 	0.5717	0.4719	0.196	-0.039
Mof_C 	C 	0.5194	0.3738	0.1915	-0.056
Mof_H 	H 	0.5407	0.3349	0.272	0.068
Mof_C 	C 	0.4337	0.332	0.0656	0.009
Mof_H 	H 	0.3984	0.2645	0.0616	0.039
Mof_C 	C 	0.3109	0.3375	0.8204	0.314
Mof_C 	C 	0.6603	0.5182	0.3301	0.303
Mof_C 	C 	0.7645	0.9516	0.6323	0.155
Mof_H 	H 	0.6632	0.9426	0.6153	-0.007
Mof_C 	C 	0.9912	0.0531	0.731	-0.39
Mof_H 	H 	0.019	0.1158	0.7834	0.122
Mof_H 	H 	0.0084	0.0606	0.6448	0.162
Mof_H 	H 	0.0496	0.9967	0.7819	0.128
Mof_C 	C 	0.7533	0.1056	0.7612	0.086
Mof_H 	H 	0.8193	0.1593	0.8105	-0.008
Mof_H 	H 	0.7133	0.07	0.8228	0.044
Mof_H 	H 	0.6737	0.1357	0.6871	0.002
Mof_Cd	Cd	0.75852	0.74447	0.45889	0.504
Mof_Cd	Cd	0.79293	0.49418	0.65014	0.406
Mof_N 	N 	0.835	0.0324	0.7051	0.009
Mof_O 	O 	0.5236	0.7414	0.495	-0.265
Mof_O 	O 	0.6954	0.6525	0.6383	-0.291
Mof_O 	O 	0.0032	0.725	0.5165	-0.271
Mof_O 	O 	0.9709	0.5948	0.6376	-0.301
Mof_O 	O 	0.3615	0.3399	0.7236	-0.263
Mof_O 	O 	0.1946	0.2991	0.8145	-0.259
Mof_O 	O 	0.6988	0.6083	0.3257	-0.285
Mof_O 	O 	0.6839	0.4641	0.4326	-0.289
Mof_O 	O 	0.8327	0.8896	0.5881	-0.139
Mof_C 	C 	0.897	0.946	0.634	0.119
Mof_H 	H 	0.9816	0.9382	0.6088	0.004
Mof_C 	C 	0.747	0.037	0.745	-0.43
Mof_H 	H 	0.7577	0.0939	0.8076	0.074
Mof_H 	H 	0.723	0.9754	0.7847	0.145
Mof_H 	H 	0.6687	0.0522	0.6599	0.153
Mof_C 	C 	0.02	0.068	0.816	0.013
Mof_H 	H 	0.9918	0.1149	0.8754	0.013
Mof_H 	H 	0.0739	0.1052	0.7672	0.045
Mof_H 	H 	0.082	0.0145	0.8706	0.002
Mof_N 	N 	0.887	0.0219	0.717	-0.003
Mof_O 	O 	0.79	0.8863	0.59	-0.154
Mof_C 	C 	0.5434	0.1438	0.347	-0.06
Mof_C 	C 	0.6889	0.1665	0.4016	-0.004
Mof_H 	H 	0.7213	0.208	0.4799	0.054
Mof_C 	C 	0.789	0.131	0.3465	-0.047
Mof_C 	C 	0.7355	0.0713	0.2254	-0.057
Mof_H 	H 	0.8023	0.0461	0.1848	0.071
Mof_C 	C 	0.5916	0.05	0.1677	0.064
Mof_C 	C 	0.493	0.0894	0.2249	-0.054
Mof_H 	H 	0.3915	0.0795	0.1813	0.058
Mof_C 	C 	0.4357	0.1837	0.4065	0.291
Mof_C 	C 	0.9509	0.1509	0.4012	0.297
Mof_C 	C 	0.5981	0.8877	0.0488	-0.037
Mof_C 	C 	0.5468	0.9867	0.0444	-0.054
Mof_C 	C 	0.462	0.0283	0.9229	0.049
Mof_H 	H 	0.4265	0.0956	0.9203	0.031
Mof_C 	C 	0.4283	0.9719	0.804	-0.142
Mof_C 	C 	0.4806	0.8738	0.8085	0.014
Mof_H 	H 	0.4593	0.8349	0.728	0.045
Mof_C 	C 	0.5663	0.832	0.9344	-0.057
Mof_H 	H 	0.6016	0.7645	0.9384	0.057
Mof_C 	C 	0.6891	0.8375	0.1796	0.291
Mof_C 	C 	0.3397	0.0182	0.6699	0.377
Mof_C 	C 	0.2355	0.4516	0.3677	0.183
Mof_H 	H 	0.3368	0.4426	0.3847	-0.011
Mof_C 	C 	0.0088	0.5531	0.269	-0.45
Mof_H 	H 	0.981	0.6158	0.2166	0.141
Mof_H 	H 	0.9916	0.5606	0.3552	0.167
Mof_H 	H 	0.9504	0.4967	0.2181	0.165
Mof_C 	C 	0.2467	0.6056	0.2388	0.077
Mof_H 	H 	0.1807	0.6593	0.1895	-0.012
Mof_H 	H 	0.2867	0.57	0.1772	0.025
Mof_H 	H 	0.3263	0.6357	0.3129	0.004
Mof_Cd	Cd	0.24148	0.24447	0.54111	0.512
Mof_Cd	Cd	0.20707	0.99418	0.34986	0.39
Mof_N 	N 	0.165	0.5324	0.2949	-0.023
Mof_O 	O 	0.4764	0.2414	0.505	-0.262
Mof_O 	O 	0.3046	0.1525	0.3617	-0.282
Mof_O 	O 	0.9968	0.225	0.4835	-0.27
Mof_O 	O 	0.0291	0.0948	0.3624	-0.28
Mof_O 	O 	0.6385	0.8399	0.2764	-0.262
Mof_O 	O 	0.8054	0.7991	0.1855	-0.259
Mof_O 	O 	0.3012	0.1083	0.6743	-0.3
Mof_O 	O 	0.3161	0.9641	0.5674	-0.32
Mof_O 	O 	0.1673	0.3896	0.4119	-0.153
Mof_C 	C 	0.103	0.446	0.366	0.125
Mof_H 	H 	0.0184	0.4382	0.3912	0.012
Mof_C 	C 	0.253	0.537	0.255	-0.477
Mof_H 	H 	0.2423	0.5939	0.1924	0.109
Mof_H 	H 	0.277	0.4754	0.2153	0.174
Mof_H 	H 	0.3313	0.5522	0.3401	0.161
Mof_C 	C 	0.98	0.568	0.184	-0.001
Mof_H 	H 	0.0082	0.6149	0.1246	0.018
Mof_H 	H 	0.9261	0.6052	0.2328	0.045
Mof_H 	H 	0.918	0.5145	0.1294	-0.015
Mof_N 	N 	0.113	0.5219	0.283	0.038
Mof_O 	O 	0.21	0.3863	0.41	-0.148
_end
