data_functionalizedCrystal
_audit_creation_method	'EQeq! by Chris Wilmer'
_symmetry_space_group_name_H-M	'P1'
_symmetry_Int_Tables_number	1
_symmetry_cell_setting	triclinic
loop_
_symmetry_equiv_pos_as_xyz
  x,y,z
_cell_length_a	9.4078
_cell_length_b	11.6538
_cell_length_c	32.6621
_cell_angle_alpha	90
_cell_angle_beta	90
_cell_angle_gamma	90
loop_
_atom_site_label
_atom_site_type_symbol
_atom_site_fract_x
_atom_site_fract_y
_atom_site_fract_z
_atom_site_charge
Mof_Mn	Mn	0.19316	0.09382	0.63759	0.987
Mof_Mn	Mn	0.24042	0.71462	0.59962	0.996
Mof_Mn	Mn	0.21617	0.40878	0.62589	0.996
Mof_O 	O 	0.3219	0.2465	0.60988	-0.405
Mof_O 	O 	0.4417	0.1008	0.63596	-0.285
Mof_O 	O 	0.6957	0.2061	0.6174	-0.142
Mof_O 	O 	0.0326	0.3294	0.60074	-0.38
Mof_O 	O 	0.9813	0.1559	0.6266	-0.344
Mof_O 	O 	0.1056	0.5758	0.62643	-0.426
Mof_O 	O 	0.9821	0.7188	0.6002	-0.274
Mof_O 	O 	0.7314	0.6133	0.62468	-0.139
Mof_O 	O 	0.3968	0.493	0.65011	-0.368
Mof_O 	O 	0.4473	0.6486	0.61215	-0.339
Mof_O 	O 	0.6984	0.8692	0.46008	-0.304
Mof_O 	O 	0.7627	0.0454	0.43962	-0.337
Mof_O 	O 	0.5062	0.9532	0.51221	-0.135
Mof_O 	O 	0.2173	0.0063	0.58	-0.358
Mof_O 	O 	0.3252	0.8441	0.5603	-0.316
Mof_O 	O 	0.854	0.8776	0.81171	-0.342
Mof_O 	O 	0.7793	0.695	0.8089	-0.358
Mof_O 	O 	0.0008	0.8393	0.73797	-0.146
Mof_O 	O 	0.2393	0.8099	0.65389	-0.382
Mof_O 	O 	0.1221	0.9632	0.67693	-0.35
Mof_C 	C 	0.438	0.1968	0.6185	0.304
Mof_C 	C 	0.5692	0.2532	0.6047	0.03
Mof_C 	C 	0.5908	0.3427	0.5795	-0.048
Mof_H 	H 	0.5204	0.3886	0.5666	0.069
Mof_C 	C 	0.7392	0.3546	0.5761	-0.022
Mof_H 	H 	0.7879	0.4097	0.5599	0.064
Mof_C 	C 	0.8003	0.2735	0.5999	0.013
Mof_C 	C 	0.9492	0.2502	0.6102	0.352
Mof_C 	C 	0.9895	0.626	0.6197	0.311
Mof_C 	C 	0.8617	0.5746	0.6384	0.029
Mof_C 	C 	0.8432	0.4912	0.6671	-0.042
Mof_H 	H 	0.9161	0.4509	0.6812	0.07
Mof_C 	C 	0.6957	0.4759	0.672	-0.023
Mof_H 	H 	0.6502	0.4241	0.6902	0.067
Mof_C 	C 	0.6306	0.5498	0.6456	0.019
Mof_C 	C 	0.4809	0.5667	0.6348	0.348
Mof_C 	C 	0.6903	0.9757	0.4608	0.321
Mof_C 	C 	0.5841	0.0295	0.4887	0.036
Mof_C 	C 	0.5362	0.1356	0.4951	-0.037
Mof_H 	H 	0.5719	0.2037	0.4828	0.064
Mof_C 	C 	0.4204	0.1289	0.5241	-0.034
Mof_H 	H 	0.365	0.1906	0.5345	0.062
Mof_C 	C 	0.4077	0.0171	0.5334	0.023
Mof_C 	C 	0.3115	0.9525	0.5604	0.349
Mof_C 	C 	0.8528	0.7768	0.7965	0.334
Mof_C 	C 	0.9449	0.7505	0.7614	0.029
Mof_C 	C 	0.9933	0.6509	0.7484	-0.045
Mof_H 	H 	0.9703	0.5778	0.7595	0.085
Mof_C 	C 	0.0856	0.672	0.7151	-0.012
Mof_H 	H 	0.1367	0.616	0.6999	0.06
Mof_C 	C 	0.0875	0.7862	0.709	0.004
Mof_C 	C 	0.1542	0.8579	0.6773	0.373
Mof_Mn	Mn	0.30684	0.90618	0.13759	0.989
Mof_Mn	Mn	0.25958	0.28538	0.09962	0.995
Mof_Mn	Mn	0.28383	0.59122	0.12589	0.996
Mof_O 	O 	0.1781	0.7535	0.10988	-0.405
Mof_O 	O 	0.0583	0.8992	0.13596	-0.284
Mof_O 	O 	0.8043	0.7939	0.1174	-0.142
Mof_O 	O 	0.4674	0.6706	0.10074	-0.38
Mof_O 	O 	0.5187	0.8441	0.1266	-0.344
Mof_O 	O 	0.3944	0.4242	0.12643	-0.427
Mof_O 	O 	0.5179	0.2812	0.1002	-0.273
Mof_O 	O 	0.7686	0.3867	0.12468	-0.139
Mof_O 	O 	0.1032	0.507	0.15011	-0.368
Mof_O 	O 	0.0527	0.3514	0.11215	-0.339
Mof_O 	O 	0.8016	0.1308	0.96008	-0.304
Mof_O 	O 	0.7373	0.9546	0.93962	-0.338
Mof_O 	O 	0.9938	0.0468	0.01221	-0.133
Mof_O 	O 	0.2827	0.9937	0.08	-0.356
Mof_O 	O 	0.1748	0.1559	0.0603	-0.316
Mof_O 	O 	0.646	0.1224	0.31171	-0.341
Mof_O 	O 	0.7207	0.305	0.3089	-0.358
Mof_O 	O 	0.4992	0.1607	0.23797	-0.147
Mof_O 	O 	0.2607	0.1901	0.15389	-0.383
Mof_O 	O 	0.3779	0.0368	0.17693	-0.351
Mof_C 	C 	0.062	0.8032	0.1185	0.304
Mof_C 	C 	0.9308	0.7468	0.1047	0.03
Mof_C 	C 	0.9092	0.6573	0.0795	-0.048
Mof_H 	H 	0.9796	0.6114	0.0666	0.069
Mof_C 	C 	0.7608	0.6454	0.0761	-0.022
Mof_H 	H 	0.7121	0.5903	0.0599	0.064
Mof_C 	C 	0.6997	0.7265	0.0999	0.012
Mof_C 	C 	0.5508	0.7498	0.1102	0.352
Mof_C 	C 	0.5105	0.374	0.1197	0.313
Mof_C 	C 	0.6383	0.4254	0.1384	0.029
Mof_C 	C 	0.6568	0.5088	0.1671	-0.042
Mof_H 	H 	0.5839	0.5491	0.1812	0.07
Mof_C 	C 	0.8043	0.5241	0.172	-0.023
Mof_H 	H 	0.8498	0.5759	0.1902	0.067
Mof_C 	C 	0.8694	0.4502	0.1456	0.02
Mof_C 	C 	0.0191	0.4333	0.1348	0.347
Mof_C 	C 	0.8097	0.0243	0.9608	0.324
Mof_C 	C 	0.9159	0.9705	0.9887	0.033
Mof_C 	C 	0.9638	0.8644	0.9951	-0.035
Mof_H 	H 	0.9281	0.7963	0.9828	0.063
Mof_C 	C 	0.0796	0.8711	0.0241	-0.036
Mof_H 	H 	0.135	0.8094	0.0345	0.062
Mof_C 	C 	0.0923	0.9829	0.0334	0.025
Mof_C 	C 	0.1885	0.0475	0.0604	0.345
Mof_C 	C 	0.6472	0.2232	0.2965	0.333
Mof_C 	C 	0.5551	0.2495	0.2614	0.03
Mof_C 	C 	0.5067	0.3491	0.2484	-0.044
Mof_H 	H 	0.5297	0.4222	0.2595	0.085
Mof_C 	C 	0.4144	0.328	0.2151	-0.013
Mof_H 	H 	0.3633	0.384	0.1999	0.061
Mof_C 	C 	0.4125	0.2138	0.209	0.004
Mof_C 	C 	0.3458	0.1421	0.1773	0.373
Mof_Mn	Mn	0.80684	0.59382	0.86241	0.989
Mof_Mn	Mn	0.75958	0.21462	0.90038	0.995
Mof_Mn	Mn	0.78383	0.90878	0.87411	0.997
Mof_O 	O 	0.6781	0.7465	0.89012	-0.405
Mof_O 	O 	0.5583	0.6008	0.86404	-0.285
Mof_O 	O 	0.3043	0.7061	0.8826	-0.142
Mof_O 	O 	0.9674	0.8294	0.89926	-0.38
Mof_O 	O 	0.0187	0.6559	0.8734	-0.345
Mof_O 	O 	0.8944	0.0758	0.87357	-0.426
Mof_O 	O 	0.0179	0.2188	0.8998	-0.274
Mof_O 	O 	0.2686	0.1133	0.87532	-0.138
Mof_O 	O 	0.6032	0.993	0.84989	-0.366
Mof_O 	O 	0.5527	0.1486	0.88785	-0.339
Mof_O 	O 	0.3016	0.3692	0.03992	-0.305
Mof_O 	O 	0.2373	0.5454	0.06038	-0.339
Mof_O 	O 	0.4938	0.4532	0.98779	-0.134
Mof_O 	O 	0.7827	0.5063	0.92	-0.357
Mof_O 	O 	0.6748	0.3441	0.9397	-0.316
Mof_O 	O 	0.146	0.3776	0.68829	-0.342
Mof_O 	O 	0.2207	0.195	0.6911	-0.358
Mof_O 	O 	0.9992	0.3393	0.76203	-0.147
Mof_O 	O 	0.7607	0.3099	0.84611	-0.383
Mof_O 	O 	0.8779	0.4632	0.82307	-0.352
Mof_C 	C 	0.562	0.6968	0.8815	0.304
Mof_C 	C 	0.4308	0.7532	0.8953	0.03
Mof_C 	C 	0.4092	0.8427	0.9205	-0.048
Mof_H 	H 	0.4796	0.8886	0.9334	0.069
Mof_C 	C 	0.2608	0.8546	0.9239	-0.022
Mof_H 	H 	0.2121	0.9097	0.9401	0.064
Mof_C 	C 	0.1997	0.7735	0.9001	0.012
Mof_C 	C 	0.0508	0.7502	0.8898	0.353
Mof_C 	C 	0.0105	0.126	0.8803	0.311
Mof_C 	C 	0.1383	0.0746	0.8616	0.025
Mof_C 	C 	0.1568	0.9912	0.8329	-0.038
Mof_H 	H 	0.0839	0.9509	0.8188	0.069
Mof_C 	C 	0.3043	0.9759	0.828	-0.021
Mof_H 	H 	0.3498	0.9241	0.8098	0.067
Mof_C 	C 	0.3694	0.0498	0.8544	0.016
Mof_C 	C 	0.5191	0.0667	0.8652	0.347
Mof_C 	C 	0.3097	0.4757	0.0392	0.325
Mof_C 	C 	0.4159	0.5295	0.0113	0.033
Mof_C 	C 	0.4638	0.6356	0.0049	-0.036
Mof_H 	H 	0.4281	0.7037	0.0172	0.063
Mof_C 	C 	0.5796	0.6289	0.9759	-0.035
Mof_H 	H 	0.635	0.6906	0.9655	0.062
Mof_C 	C 	0.5923	0.5171	0.9666	0.023
Mof_C 	C 	0.6885	0.4525	0.9396	0.348
Mof_C 	C 	0.1472	0.2768	0.7035	0.333
Mof_C 	C 	0.0551	0.2505	0.7386	0.03
Mof_C 	C 	0.0067	0.1509	0.7516	-0.046
Mof_H 	H 	0.0297	0.0778	0.7405	0.084
Mof_C 	C 	0.9144	0.172	0.7849	-0.011
Mof_H 	H 	0.8633	0.116	0.8001	0.06
Mof_C 	C 	0.9125	0.2862	0.791	0.004
Mof_C 	C 	0.8458	0.3579	0.8227	0.373
Mof_Mn	Mn	0.69316	0.40618	0.36241	0.989
Mof_Mn	Mn	0.74042	0.78538	0.40038	0.994
Mof_Mn	Mn	0.71617	0.09122	0.37411	0.997
Mof_O 	O 	0.8219	0.2535	0.39012	-0.405
Mof_O 	O 	0.9417	0.3992	0.36404	-0.285
Mof_O 	O 	0.1957	0.2939	0.3826	-0.142
Mof_O 	O 	0.5326	0.1706	0.39926	-0.38
Mof_O 	O 	0.4813	0.3441	0.3734	-0.344
Mof_O 	O 	0.6056	0.9242	0.37357	-0.428
Mof_O 	O 	0.4821	0.7812	0.3998	-0.273
Mof_O 	O 	0.2314	0.8867	0.37532	-0.139
Mof_O 	O 	0.8968	0.007	0.34989	-0.364
Mof_O 	O 	0.9473	0.8514	0.38785	-0.339
Mof_O 	O 	0.1984	0.6308	0.53992	-0.304
Mof_O 	O 	0.2627	0.4546	0.56038	-0.339
Mof_O 	O 	0.0062	0.5468	0.48779	-0.133
Mof_O 	O 	0.7173	0.4937	0.42	-0.357
Mof_O 	O 	0.8252	0.6559	0.4397	-0.316
Mof_O 	O 	0.354	0.6224	0.18829	-0.342
Mof_O 	O 	0.2793	0.805	0.1911	-0.358
Mof_O 	O 	0.5008	0.6607	0.26203	-0.147
Mof_O 	O 	0.7393	0.6901	0.34611	-0.383
Mof_O 	O 	0.6221	0.5368	0.32307	-0.352
Mof_C 	C 	0.938	0.3032	0.3815	0.304
Mof_C 	C 	0.0692	0.2468	0.3953	0.03
Mof_C 	C 	0.0908	0.1573	0.4205	-0.048
Mof_H 	H 	0.0204	0.1114	0.4334	0.069
Mof_C 	C 	0.2392	0.1454	0.4239	-0.022
Mof_H 	H 	0.2879	0.0903	0.4401	0.064
Mof_C 	C 	0.3003	0.2265	0.4001	0.013
Mof_C 	C 	0.4492	0.2498	0.3898	0.352
Mof_C 	C 	0.4895	0.874	0.3803	0.313
Mof_C 	C 	0.3617	0.9254	0.3616	0.027
Mof_C 	C 	0.3432	0.0088	0.3329	-0.039
Mof_H 	H 	0.4161	0.0491	0.3188	0.069
Mof_C 	C 	0.1957	0.0241	0.328	-0.025
Mof_H 	H 	0.1502	0.0759	0.3098	0.068
Mof_C 	C 	0.1306	0.9502	0.3544	0.022
Mof_C 	C 	0.9809	0.9333	0.3652	0.342
Mof_C 	C 	0.1903	0.5243	0.5392	0.325
Mof_C 	C 	0.0841	0.4705	0.5113	0.033
Mof_C 	C 	0.0362	0.3644	0.5049	-0.034
Mof_H 	H 	0.0719	0.2963	0.5172	0.063
Mof_C 	C 	0.9204	0.3711	0.4759	-0.036
Mof_H 	H 	0.865	0.3094	0.4655	0.062
Mof_C 	C 	0.9077	0.4829	0.4666	0.022
Mof_C 	C 	0.8115	0.5475	0.4396	0.348
Mof_C 	C 	0.3528	0.7232	0.2035	0.333
Mof_C 	C 	0.4449	0.7495	0.2386	0.029
Mof_C 	C 	0.4933	0.8491	0.2516	-0.044
Mof_H 	H 	0.4703	0.9222	0.2405	0.084
Mof_C 	C 	0.5856	0.828	0.2849	-0.013
Mof_H 	H 	0.6367	0.884	0.3001	0.06
Mof_C 	C 	0.5875	0.7138	0.291	0.004
Mof_C 	C 	0.6542	0.6421	0.3227	0.373
_end
