data_functionalizedCrystal
_audit_creation_method	'EQeq! by Chris Wilmer'
_symmetry_space_group_name_H-M	'P1'
_symmetry_Int_Tables_number	1
_symmetry_cell_setting	triclinic
loop_
_symmetry_equiv_pos_as_xyz
  x,y,z
_cell_length_a	35.3524
_cell_length_b	14.9797
_cell_length_c	31.0275
_cell_angle_alpha	90
_cell_angle_beta	101.951
_cell_angle_gamma	90
loop_
_atom_site_label
_atom_site_type_symbol
_atom_site_fract_x
_atom_site_fract_y
_atom_site_fract_z
_atom_site_charge
Mof_I 	I 	0.97506	0.64936	0.86861	-0.349
Mof_I 	I 	0.2626	0.26685	0.69743	-0.379
Mof_I 	I 	0.88102	0.7344	0.93903	-0.376
Mof_I 	I 	0.3676	0.32393	0.79978	-0.397
Mof_I 	I 	0.64573	0.58575	0.49128	-0.387
Mof_I 	I 	0.60607	0.73323	0.60457	-0.925
Mof_Zn	Zn	0.91854	0.619	0.90539	1.166
Mof_Zn	Zn	0.325	0.35313	0.7243	1.164
Mof_Zn	Zn	0.6256	0.59017	0.56492	1.154
Mof_N 	N 	0.81405	0.9893	0.72099	-0.272
Mof_N 	N 	0.43201	0.9846	0.45001	-0.272
Mof_N 	N 	0.88012	0.5491	0.8573	-0.268
Mof_N 	N 	0.81919	0.3156	0.75045	-0.133
Mof_N 	N 	0.66843	0.5261	0.6092	-0.277
Mof_N 	N 	0.35861	0.338	0.6776	-0.274
Mof_N 	N 	0.78032	0.443	0.72848	-0.142
Mof_N 	N 	0.42516	0.2231	0.56147	-0.137
Mof_N 	N 	0.76526	0.3048	0.69105	-0.14
Mof_N 	N 	0.5801	0.5035	0.5616	-0.279
Mof_N 	N 	0.46234	0.3498	0.58976	-0.132
Mof_C 	C 	0.89	0.4677	0.8468	0.081
Mof_H 	H 	0.9137	0.4433	0.8625	-0.001
Mof_C 	C 	0.8344	0.4535	0.7899	0.062
Mof_C 	C 	0.44297	0.133	0.5043	0.048
Mof_C 	C 	0.79505	0.2703	0.7196	0.106
Mof_C 	C 	0.72755	0.438	0.6654	0.053
Mof_C 	C 	0.48328	0.3346	0.5593	0.091
Mof_C 	C 	0.46945	0.1118	0.4784	-0.114
Mof_H 	H 	0.4914	0.1485	0.4789	0.074
Mof_C 	C 	0.7833	0.0248	0.6943	0.071
Mof_H 	H 	0.7654	0.9862	0.6762	-0.012
Mof_C 	C 	0.8388	0.0438	0.7464	0.07
Mof_H 	H 	0.861	0.0189	0.7651	-0.013
Mof_C 	C 	0.44857	0.2132	0.533	0.088
Mof_C 	C 	0.347	0.2886	0.6414	0.07
Mof_H 	H 	0.3216	0.2645	0.6357	-0.011
Mof_C 	C 	0.75937	0.3917	0.6968	0.088
Mof_C 	C 	0.7183	0.5248	0.6733	-0.126
Mof_H 	H 	0.7322	0.5554	0.6985	0.09
Mof_C 	C 	0.8479	0.5854	0.8338	0.068
Mof_H 	H 	0.8409	0.6442	0.8405	-0.007
Mof_C 	C 	0.40721	0.3096	0.6195	0.06
Mof_C 	C 	0.80979	0.4014	0.7538	0.103
Mof_C 	C 	0.5171	0.3932	0.5596	0.056
Mof_C 	C 	0.4634	0.0369	0.4523	0.068
Mof_H 	H 	0.4819	0.0216	0.4352	-0.005
Mof_C 	C 	0.5633	0.4633	0.5249	0.081
Mof_H 	H 	0.573	0.4733	0.4989	-0.008
Mof_C 	C 	0.8245	0.5394	0.7997	-0.124
Mof_H 	H 	0.8018	0.5666	0.7832	0.078
Mof_C 	C 	0.4327	0.2927	0.5884	0.107
Mof_C 	C 	0.8016	0.1723	0.7189	0.06
Mof_C 	C 	0.4112	0.0774	0.5023	-0.127
Mof_H 	H 	0.3927	0.0894	0.5199	0.078
Mof_C 	C 	0.4071	0.0068	0.4754	0.075
Mof_H 	H 	0.385	0.97	0.4741	-0.017
Mof_C 	C 	0.4187	0.363	0.6563	-0.114
Mof_H 	H 	0.4434	0.3909	0.6619	0.084
Mof_C 	C 	0.7061	0.3942	0.6297	-0.122
Mof_H 	H 	0.711	0.3336	0.6238	0.088
Mof_C 	C 	0.689	0.5674	0.6447	0.07
Mof_H 	H 	0.6831	0.6277	0.6502	-0.003
Mof_C 	C 	0.8337	0.1351	0.7465	-0.122
Mof_H 	H 	0.8518	0.1721	0.7653	0.092
Mof_C 	C 	0.5318	0.4067	0.5229	-0.127
Mof_H 	H 	0.5206	0.3775	0.4961	0.082
Mof_C 	C 	0.6768	0.4422	0.6025	0.078
Mof_H 	H 	0.662	0.4127	0.5776	-0.003
Mof_C 	C 	0.3703	0.2714	0.6123	-0.113
Mof_H 	H 	0.3616	0.2339	0.5876	0.082
Mof_C 	C 	0.7765	0.116	0.692	-0.122
Mof_H 	H 	0.7546	0.1393	0.672	0.079
Mof_C 	C 	0.8678	0.4171	0.8142	-0.124
Mof_H 	H 	0.8753	0.358	0.8086	0.108
Mof_C 	C 	0.3937	0.375	0.6846	0.072
Mof_H 	H 	0.4018	0.411	0.7101	-0.015
Mof_C 	C 	0.5681	0.4856	0.5975	0.088
Mof_H 	H 	0.5816	0.5115	0.6242	-0.012
Mof_C 	C 	0.5365	0.4303	0.5991	-0.125
Mof_H 	H 	0.5286	0.4186	0.6261	0.089
Mof_N 	N 	0.47728	0.2692	0.52927	-0.146
Mof_I 	I 	0.61749	0.73355	0.58493	0.541
Mof_I 	I 	0.47506	0.14936	0.86861	-0.35
Mof_I 	I 	0.7626	0.76685	0.69743	-0.38
Mof_I 	I 	0.38102	0.2344	0.93903	-0.377
Mof_I 	I 	0.8676	0.82393	0.79978	-0.398
Mof_I 	I 	0.14573	0.08575	0.49128	-0.388
Mof_I 	I 	0.10607	0.23323	0.60457	-0.926
Mof_Zn	Zn	0.41854	0.119	0.90539	1.165
Mof_Zn	Zn	0.825	0.85313	0.7243	1.163
Mof_Zn	Zn	0.1256	0.09017	0.56492	1.153
Mof_N 	N 	0.31405	0.4893	0.72099	-0.273
Mof_N 	N 	0.93201	0.4846	0.45001	-0.273
Mof_N 	N 	0.38012	0.0491	0.8573	-0.269
Mof_N 	N 	0.31919	0.8156	0.75045	-0.133
Mof_N 	N 	0.16843	0.0261	0.6092	-0.277
Mof_N 	N 	0.85861	0.838	0.6776	-0.274
Mof_N 	N 	0.28032	0.943	0.72848	-0.142
Mof_N 	N 	0.92516	0.7231	0.56147	-0.137
Mof_N 	N 	0.26526	0.8048	0.69105	-0.14
Mof_N 	N 	0.0801	0.0035	0.5616	-0.279
Mof_N 	N 	0.96234	0.8498	0.58976	-0.132
Mof_C 	C 	0.39	0.9677	0.8468	0.082
Mof_H 	H 	0.4137	0.9433	0.8625	-0.001
Mof_C 	C 	0.3344	0.9535	0.7899	0.062
Mof_C 	C 	0.94297	0.633	0.5043	0.048
Mof_C 	C 	0.29505	0.7703	0.7196	0.106
Mof_C 	C 	0.22755	0.938	0.6654	0.053
Mof_C 	C 	0.98328	0.8346	0.5593	0.091
Mof_C 	C 	0.96945	0.6118	0.4784	-0.114
Mof_H 	H 	0.9914	0.6485	0.4789	0.074
Mof_C 	C 	0.2833	0.5248	0.6943	0.071
Mof_H 	H 	0.2654	0.4862	0.6762	-0.012
Mof_C 	C 	0.3388	0.5438	0.7464	0.07
Mof_H 	H 	0.361	0.5189	0.7651	-0.013
Mof_C 	C 	0.94857	0.7132	0.533	0.088
Mof_C 	C 	0.847	0.7886	0.6414	0.07
Mof_H 	H 	0.8216	0.7645	0.6357	-0.011
Mof_C 	C 	0.25937	0.8917	0.6968	0.088
Mof_C 	C 	0.2183	0.0248	0.6733	-0.126
Mof_H 	H 	0.2322	0.0554	0.6985	0.09
Mof_C 	C 	0.3479	0.0854	0.8338	0.068
Mof_H 	H 	0.3409	0.1442	0.8405	-0.007
Mof_C 	C 	0.90721	0.8096	0.6195	0.06
Mof_C 	C 	0.30979	0.9014	0.7538	0.103
Mof_C 	C 	0.0171	0.8932	0.5596	0.056
Mof_C 	C 	0.9634	0.5369	0.4523	0.068
Mof_H 	H 	0.9819	0.5216	0.4352	-0.005
Mof_C 	C 	0.0633	0.9633	0.5249	0.081
Mof_H 	H 	0.073	0.9733	0.4989	-0.008
Mof_C 	C 	0.3245	0.0394	0.7997	-0.124
Mof_H 	H 	0.3018	0.0666	0.7832	0.078
Mof_C 	C 	0.9327	0.7927	0.5884	0.107
Mof_C 	C 	0.3016	0.6723	0.7189	0.06
Mof_C 	C 	0.9112	0.5774	0.5023	-0.127
Mof_H 	H 	0.8927	0.5894	0.5199	0.078
Mof_C 	C 	0.9071	0.5068	0.4754	0.075
Mof_H 	H 	0.885	0.47	0.4741	-0.017
Mof_C 	C 	0.9187	0.863	0.6563	-0.114
Mof_H 	H 	0.9434	0.8909	0.6619	0.084
Mof_C 	C 	0.2061	0.8942	0.6297	-0.122
Mof_H 	H 	0.211	0.8336	0.6238	0.088
Mof_C 	C 	0.189	0.0674	0.6447	0.07
Mof_H 	H 	0.1831	0.1277	0.6502	-0.003
Mof_C 	C 	0.3337	0.6351	0.7465	-0.122
Mof_H 	H 	0.3518	0.6721	0.7653	0.092
Mof_C 	C 	0.0318	0.9067	0.5229	-0.127
Mof_H 	H 	0.0206	0.8775	0.4961	0.082
Mof_C 	C 	0.1768	0.9422	0.6025	0.078
Mof_H 	H 	0.162	0.9127	0.5776	-0.003
Mof_C 	C 	0.8703	0.7714	0.6123	-0.113
Mof_H 	H 	0.8616	0.7339	0.5876	0.082
Mof_C 	C 	0.2765	0.616	0.692	-0.122
Mof_H 	H 	0.2546	0.6393	0.672	0.079
Mof_C 	C 	0.3678	0.9171	0.8142	-0.124
Mof_H 	H 	0.3753	0.858	0.8086	0.108
Mof_C 	C 	0.8937	0.875	0.6846	0.072
Mof_H 	H 	0.9018	0.911	0.7101	-0.015
Mof_C 	C 	0.0681	0.9856	0.5975	0.088
Mof_H 	H 	0.0816	0.0115	0.6242	-0.012
Mof_C 	C 	0.0365	0.9303	0.5991	-0.125
Mof_H 	H 	0.0286	0.9186	0.6261	0.089
Mof_N 	N 	0.97728	0.7692	0.52927	-0.146
Mof_I 	I 	0.11749	0.23355	0.58493	0.541
Mof_I 	I 	0.97506	0.35064	0.36861	-0.35
Mof_I 	I 	0.2626	0.73315	0.19743	-0.38
Mof_I 	I 	0.88102	0.2656	0.43903	-0.377
Mof_I 	I 	0.3676	0.67607	0.29978	-0.398
Mof_I 	I 	0.64573	0.41425	0.99128	-0.388
Mof_I 	I 	0.60607	0.26677	0.10457	-0.926
Mof_Zn	Zn	0.91854	0.381	0.40539	1.165
Mof_Zn	Zn	0.325	0.64687	0.2243	1.163
Mof_Zn	Zn	0.6256	0.40983	0.06492	1.153
Mof_N 	N 	0.81405	0.0107	0.22099	-0.273
Mof_N 	N 	0.43201	0.0154	0.95001	-0.273
Mof_N 	N 	0.88012	0.4509	0.3573	-0.269
Mof_N 	N 	0.81919	0.6844	0.25045	-0.133
Mof_N 	N 	0.66843	0.4739	0.1092	-0.277
Mof_N 	N 	0.35861	0.662	0.1776	-0.274
Mof_N 	N 	0.78032	0.557	0.22848	-0.142
Mof_N 	N 	0.42516	0.7769	0.06147	-0.137
Mof_N 	N 	0.76526	0.6952	0.19105	-0.14
Mof_N 	N 	0.5801	0.4965	0.0616	-0.279
Mof_N 	N 	0.46234	0.6502	0.08976	-0.132
Mof_C 	C 	0.89	0.5323	0.3468	0.081
Mof_H 	H 	0.9137	0.5567	0.3625	-0.001
Mof_C 	C 	0.8344	0.5465	0.2899	0.062
Mof_C 	C 	0.44297	0.867	0.0043	0.048
Mof_C 	C 	0.79505	0.7297	0.2196	0.106
Mof_C 	C 	0.72755	0.562	0.1654	0.053
Mof_C 	C 	0.48328	0.6654	0.0593	0.091
Mof_C 	C 	0.46945	0.8882	0.9784	-0.114
Mof_H 	H 	0.4914	0.8515	0.9789	0.074
Mof_C 	C 	0.7833	0.9752	0.1943	0.071
Mof_H 	H 	0.7654	0.0138	0.1762	-0.012
Mof_C 	C 	0.8388	0.9562	0.2464	0.07
Mof_H 	H 	0.861	0.9811	0.2651	-0.013
Mof_C 	C 	0.44857	0.7868	0.033	0.088
Mof_C 	C 	0.347	0.7114	0.1414	0.07
Mof_H 	H 	0.3216	0.7355	0.1357	-0.011
Mof_C 	C 	0.75937	0.6083	0.1968	0.088
Mof_C 	C 	0.7183	0.4752	0.1733	-0.126
Mof_H 	H 	0.7322	0.4446	0.1985	0.09
Mof_C 	C 	0.8479	0.4146	0.3338	0.068
Mof_H 	H 	0.8409	0.3558	0.3405	-0.007
Mof_C 	C 	0.40721	0.6904	0.1195	0.06
Mof_C 	C 	0.80979	0.5986	0.2538	0.103
Mof_C 	C 	0.5171	0.6068	0.0596	0.056
Mof_C 	C 	0.4634	0.9631	0.9523	0.068
Mof_H 	H 	0.4819	0.9784	0.9352	-0.005
Mof_C 	C 	0.5633	0.5367	0.0249	0.081
Mof_H 	H 	0.573	0.5267	0.9989	-0.008
Mof_C 	C 	0.8245	0.4606	0.2997	-0.124
Mof_H 	H 	0.8018	0.4334	0.2832	0.078
Mof_C 	C 	0.4327	0.7073	0.0884	0.107
Mof_C 	C 	0.8016	0.8277	0.2189	0.06
Mof_C 	C 	0.4112	0.9226	0.0023	-0.127
Mof_H 	H 	0.3927	0.9106	0.0199	0.078
Mof_C 	C 	0.4071	0.9932	0.9754	0.076
Mof_H 	H 	0.385	0.03	0.9741	-0.017
Mof_C 	C 	0.4187	0.637	0.1563	-0.114
Mof_H 	H 	0.4434	0.6091	0.1619	0.084
Mof_C 	C 	0.7061	0.6058	0.1297	-0.122
Mof_H 	H 	0.711	0.6664	0.1238	0.088
Mof_C 	C 	0.689	0.4326	0.1447	0.07
Mof_H 	H 	0.6831	0.3723	0.1502	-0.003
Mof_C 	C 	0.8337	0.8649	0.2465	-0.122
Mof_H 	H 	0.8518	0.8279	0.2653	0.092
Mof_C 	C 	0.5318	0.5933	0.0229	-0.128
Mof_H 	H 	0.5206	0.6225	0.9961	0.082
Mof_C 	C 	0.6768	0.5578	0.1025	0.078
Mof_H 	H 	0.662	0.5873	0.0776	-0.003
Mof_C 	C 	0.3703	0.7286	0.1123	-0.113
Mof_H 	H 	0.3616	0.7661	0.0876	0.082
Mof_C 	C 	0.7765	0.884	0.192	-0.122
Mof_H 	H 	0.7546	0.8607	0.172	0.079
Mof_C 	C 	0.8678	0.5829	0.3142	-0.124
Mof_H 	H 	0.8753	0.642	0.3086	0.108
Mof_C 	C 	0.3937	0.625	0.1846	0.072
Mof_H 	H 	0.4018	0.589	0.2101	-0.015
Mof_C 	C 	0.5681	0.5144	0.0975	0.088
Mof_H 	H 	0.5816	0.4885	0.1242	-0.012
Mof_C 	C 	0.5365	0.5697	0.0991	-0.125
Mof_H 	H 	0.5286	0.5814	0.1261	0.089
Mof_N 	N 	0.47728	0.7308	0.02927	-0.146
Mof_I 	I 	0.61749	0.26645	0.08493	0.541
Mof_I 	I 	0.47506	0.85064	0.36861	-0.349
Mof_I 	I 	0.7626	0.23315	0.19743	-0.38
Mof_I 	I 	0.38102	0.7656	0.43903	-0.377
Mof_I 	I 	0.8676	0.17607	0.29978	-0.398
Mof_I 	I 	0.14573	0.91425	0.99128	-0.388
Mof_I 	I 	0.10607	0.76677	0.10457	-0.927
Mof_Zn	Zn	0.41854	0.881	0.40539	1.165
Mof_Zn	Zn	0.825	0.14687	0.2243	1.163
Mof_Zn	Zn	0.1256	0.90983	0.06492	1.153
Mof_N 	N 	0.31405	0.5107	0.22099	-0.273
Mof_N 	N 	0.93201	0.5154	0.95001	-0.273
Mof_N 	N 	0.38012	0.9509	0.3573	-0.269
Mof_N 	N 	0.31919	0.1844	0.25045	-0.133
Mof_N 	N 	0.16843	0.9739	0.1092	-0.277
Mof_N 	N 	0.85861	0.162	0.1776	-0.274
Mof_N 	N 	0.28032	0.057	0.22848	-0.142
Mof_N 	N 	0.92516	0.2769	0.06147	-0.137
Mof_N 	N 	0.26526	0.1952	0.19105	-0.14
Mof_N 	N 	0.0801	0.9965	0.0616	-0.279
Mof_N 	N 	0.96234	0.1502	0.08976	-0.132
Mof_C 	C 	0.39	0.0323	0.3468	0.081
Mof_H 	H 	0.4137	0.0567	0.3625	-0.001
Mof_C 	C 	0.3344	0.0465	0.2899	0.062
Mof_C 	C 	0.94297	0.367	0.0043	0.048
Mof_C 	C 	0.29505	0.2297	0.2196	0.106
Mof_C 	C 	0.22755	0.062	0.1654	0.053
Mof_C 	C 	0.98328	0.1654	0.0593	0.091
Mof_C 	C 	0.96945	0.3882	0.9784	-0.114
Mof_H 	H 	0.9914	0.3515	0.9789	0.074
Mof_C 	C 	0.2833	0.4752	0.1943	0.071
Mof_H 	H 	0.2654	0.5138	0.1762	-0.012
Mof_C 	C 	0.3388	0.4562	0.2464	0.07
Mof_H 	H 	0.361	0.4811	0.2651	-0.013
Mof_C 	C 	0.94857	0.2868	0.033	0.088
Mof_C 	C 	0.847	0.2114	0.1414	0.07
Mof_H 	H 	0.8216	0.2355	0.1357	-0.011
Mof_C 	C 	0.25937	0.1083	0.1968	0.088
Mof_C 	C 	0.2183	0.9752	0.1733	-0.126
Mof_H 	H 	0.2322	0.9446	0.1985	0.09
Mof_C 	C 	0.3479	0.9146	0.3338	0.068
Mof_H 	H 	0.3409	0.8558	0.3405	-0.007
Mof_C 	C 	0.90721	0.1904	0.1195	0.06
Mof_C 	C 	0.30979	0.0986	0.2538	0.103
Mof_C 	C 	0.0171	0.1068	0.0596	0.056
Mof_C 	C 	0.9634	0.4631	0.9523	0.068
Mof_H 	H 	0.9819	0.4784	0.9352	-0.005
Mof_C 	C 	0.0633	0.0367	0.0249	0.081
Mof_H 	H 	0.073	0.0267	0.9989	-0.009
Mof_C 	C 	0.3245	0.9606	0.2997	-0.124
Mof_H 	H 	0.3018	0.9334	0.2832	0.078
Mof_C 	C 	0.9327	0.2073	0.0884	0.107
Mof_C 	C 	0.3016	0.3277	0.2189	0.06
Mof_C 	C 	0.9112	0.4226	0.0023	-0.127
Mof_H 	H 	0.8927	0.4106	0.0199	0.078
Mof_C 	C 	0.9071	0.4932	0.9754	0.075
Mof_H 	H 	0.885	0.53	0.9741	-0.017
Mof_C 	C 	0.9187	0.137	0.1563	-0.114
Mof_H 	H 	0.9434	0.1091	0.1619	0.084
Mof_C 	C 	0.2061	0.1058	0.1297	-0.122
Mof_H 	H 	0.211	0.1664	0.1238	0.088
Mof_C 	C 	0.189	0.9326	0.1447	0.07
Mof_H 	H 	0.1831	0.8723	0.1502	-0.003
Mof_C 	C 	0.3337	0.3649	0.2465	-0.122
Mof_H 	H 	0.3518	0.3279	0.2653	0.092
Mof_C 	C 	0.0318	0.0933	0.0229	-0.128
Mof_H 	H 	0.0206	0.1225	0.9961	0.082
Mof_C 	C 	0.1768	0.0578	0.1025	0.078
Mof_H 	H 	0.162	0.0873	0.0776	-0.003
Mof_C 	C 	0.8703	0.2286	0.1123	-0.113
Mof_H 	H 	0.8616	0.2661	0.0876	0.082
Mof_C 	C 	0.2765	0.384	0.192	-0.122
Mof_H 	H 	0.2546	0.3607	0.172	0.079
Mof_C 	C 	0.3678	0.0829	0.3142	-0.124
Mof_H 	H 	0.3753	0.142	0.3086	0.108
Mof_C 	C 	0.8937	0.125	0.1846	0.072
Mof_H 	H 	0.9018	0.089	0.2101	-0.015
Mof_C 	C 	0.0681	0.0144	0.0975	0.088
Mof_H 	H 	0.0816	0.9885	0.1242	-0.013
Mof_C 	C 	0.0365	0.0697	0.0991	-0.125
Mof_H 	H 	0.0286	0.0814	0.1261	0.089
Mof_N 	N 	0.97728	0.2308	0.02927	-0.146
Mof_I 	I 	0.11749	0.76645	0.08493	0.541
Mof_I 	I 	0.02494	0.64936	0.63139	-0.35
Mof_I 	I 	0.7374	0.26685	0.80257	-0.38
Mof_I 	I 	0.11898	0.7344	0.56097	-0.377
Mof_I 	I 	0.6324	0.32393	0.70022	-0.398
Mof_I 	I 	0.35427	0.58575	0.00872	-0.388
Mof_I 	I 	0.39393	0.73323	0.89543	-0.926
Mof_Zn	Zn	0.08146	0.619	0.59461	1.165
Mof_Zn	Zn	0.675	0.35313	0.7757	1.163
Mof_Zn	Zn	0.3744	0.59017	0.93508	1.153
Mof_N 	N 	0.18595	0.9893	0.77901	-0.273
Mof_N 	N 	0.56799	0.9846	0.04999	-0.273
Mof_N 	N 	0.11988	0.5491	0.6427	-0.269
Mof_N 	N 	0.18081	0.3156	0.74955	-0.133
Mof_N 	N 	0.33157	0.5261	0.8908	-0.277
Mof_N 	N 	0.64139	0.338	0.8224	-0.274
Mof_N 	N 	0.21968	0.443	0.77152	-0.142
Mof_N 	N 	0.57484	0.2231	0.93853	-0.137
Mof_N 	N 	0.23474	0.3048	0.80895	-0.14
Mof_N 	N 	0.4199	0.5035	0.9384	-0.279
Mof_N 	N 	0.53766	0.3498	0.91024	-0.132
Mof_C 	C 	0.11	0.4677	0.6532	0.081
Mof_H 	H 	0.0863	0.4433	0.6375	-0.001
Mof_C 	C 	0.1656	0.4535	0.7101	0.062
Mof_C 	C 	0.55703	0.133	0.9957	0.048
Mof_C 	C 	0.20495	0.2703	0.7804	0.106
Mof_C 	C 	0.27245	0.438	0.8346	0.053
Mof_C 	C 	0.51672	0.3346	0.9407	0.091
Mof_C 	C 	0.53055	0.1118	0.0216	-0.114
Mof_H 	H 	0.5086	0.1485	0.0211	0.074
Mof_C 	C 	0.2167	0.0248	0.8057	0.071
Mof_H 	H 	0.2346	0.9862	0.8238	-0.012
Mof_C 	C 	0.1612	0.0438	0.7536	0.07
Mof_H 	H 	0.139	0.0189	0.7349	-0.013
Mof_C 	C 	0.55143	0.2132	0.967	0.088
Mof_C 	C 	0.653	0.2886	0.8586	0.07
Mof_H 	H 	0.6784	0.2645	0.8643	-0.011
Mof_C 	C 	0.24063	0.3917	0.8032	0.088
Mof_C 	C 	0.2817	0.5248	0.8267	-0.126
Mof_H 	H 	0.2678	0.5554	0.8015	0.09
Mof_C 	C 	0.1521	0.5854	0.6662	0.068
Mof_H 	H 	0.1591	0.6442	0.6595	-0.007
Mof_C 	C 	0.59279	0.3096	0.8805	0.06
Mof_C 	C 	0.19021	0.4014	0.7462	0.103
Mof_C 	C 	0.4829	0.3932	0.9404	0.056
Mof_C 	C 	0.5366	0.0369	0.0477	0.068
Mof_H 	H 	0.5181	0.0216	0.0648	-0.005
Mof_C 	C 	0.4367	0.4633	0.9751	0.081
Mof_H 	H 	0.427	0.4733	0.0011	-0.008
Mof_C 	C 	0.1755	0.5394	0.7003	-0.124
Mof_H 	H 	0.1982	0.5666	0.7168	0.078
Mof_C 	C 	0.5673	0.2927	0.9116	0.107
Mof_C 	C 	0.1984	0.1723	0.7811	0.06
Mof_C 	C 	0.5888	0.0774	0.9977	-0.127
Mof_H 	H 	0.6073	0.0894	0.9801	0.078
Mof_C 	C 	0.5929	0.0068	0.0246	0.076
Mof_H 	H 	0.615	0.97	0.0259	-0.017
Mof_C 	C 	0.5813	0.363	0.8437	-0.114
Mof_H 	H 	0.5566	0.3909	0.8381	0.084
Mof_C 	C 	0.2939	0.3942	0.8703	-0.122
Mof_H 	H 	0.289	0.3336	0.8762	0.088
Mof_C 	C 	0.311	0.5674	0.8553	0.07
Mof_H 	H 	0.3169	0.6277	0.8498	-0.003
Mof_C 	C 	0.1663	0.1351	0.7535	-0.122
Mof_H 	H 	0.1482	0.1721	0.7347	0.092
Mof_C 	C 	0.4682	0.4067	0.9771	-0.128
Mof_H 	H 	0.4794	0.3775	0.0039	0.082
Mof_C 	C 	0.3232	0.4422	0.8975	0.078
Mof_H 	H 	0.338	0.4127	0.9224	-0.003
Mof_C 	C 	0.6297	0.2714	0.8877	-0.113
Mof_H 	H 	0.6384	0.2339	0.9124	0.082
Mof_C 	C 	0.2235	0.116	0.808	-0.122
Mof_H 	H 	0.2454	0.1393	0.828	0.079
Mof_C 	C 	0.1322	0.4171	0.6858	-0.124
Mof_H 	H 	0.1247	0.358	0.6914	0.108
Mof_C 	C 	0.6063	0.375	0.8154	0.072
Mof_H 	H 	0.5982	0.411	0.7899	-0.015
Mof_C 	C 	0.4319	0.4856	0.9025	0.088
Mof_H 	H 	0.4184	0.5115	0.8758	-0.012
Mof_C 	C 	0.4635	0.4303	0.9009	-0.125
Mof_H 	H 	0.4714	0.4186	0.8739	0.089
Mof_N 	N 	0.52272	0.2692	0.97073	-0.146
Mof_I 	I 	0.38251	0.73355	0.91507	0.541
Mof_I 	I 	0.52494	0.14936	0.63139	-0.349
Mof_I 	I 	0.2374	0.76685	0.80257	-0.38
Mof_I 	I 	0.61898	0.2344	0.56097	-0.377
Mof_I 	I 	0.1324	0.82393	0.70022	-0.398
Mof_I 	I 	0.85427	0.08575	0.00872	-0.388
Mof_I 	I 	0.89393	0.23323	0.89543	-0.927
Mof_Zn	Zn	0.58146	0.119	0.59461	1.165
Mof_Zn	Zn	0.175	0.85313	0.7757	1.163
Mof_Zn	Zn	0.8744	0.09017	0.93508	1.153
Mof_N 	N 	0.68595	0.4893	0.77901	-0.273
Mof_N 	N 	0.06799	0.4846	0.04999	-0.273
Mof_N 	N 	0.61988	0.0491	0.6427	-0.269
Mof_N 	N 	0.68081	0.8156	0.74955	-0.133
Mof_N 	N 	0.83157	0.0261	0.8908	-0.277
Mof_N 	N 	0.14139	0.838	0.8224	-0.274
Mof_N 	N 	0.71968	0.943	0.77152	-0.142
Mof_N 	N 	0.07484	0.7231	0.93853	-0.137
Mof_N 	N 	0.73474	0.8048	0.80895	-0.14
Mof_N 	N 	0.9199	0.0035	0.9384	-0.279
Mof_N 	N 	0.03766	0.8498	0.91024	-0.132
Mof_C 	C 	0.61	0.9677	0.6532	0.081
Mof_H 	H 	0.5863	0.9433	0.6375	-0.001
Mof_C 	C 	0.6656	0.9535	0.7101	0.062
Mof_C 	C 	0.05703	0.633	0.9957	0.048
Mof_C 	C 	0.70495	0.7703	0.7804	0.106
Mof_C 	C 	0.77245	0.938	0.8346	0.053
Mof_C 	C 	0.01672	0.8346	0.9407	0.091
Mof_C 	C 	0.03055	0.6118	0.0216	-0.114
Mof_H 	H 	0.0086	0.6485	0.0211	0.074
Mof_C 	C 	0.7167	0.5248	0.8057	0.071
Mof_H 	H 	0.7346	0.4862	0.8238	-0.012
Mof_C 	C 	0.6612	0.5438	0.7536	0.07
Mof_H 	H 	0.639	0.5189	0.7349	-0.013
Mof_C 	C 	0.05143	0.7132	0.967	0.088
Mof_C 	C 	0.153	0.7886	0.8586	0.07
Mof_H 	H 	0.1784	0.7645	0.8643	-0.011
Mof_C 	C 	0.74063	0.8917	0.8032	0.088
Mof_C 	C 	0.7817	0.0248	0.8267	-0.126
Mof_H 	H 	0.7678	0.0554	0.8015	0.09
Mof_C 	C 	0.6521	0.0854	0.6662	0.068
Mof_H 	H 	0.6591	0.1442	0.6595	-0.007
Mof_C 	C 	0.09279	0.8096	0.8805	0.06
Mof_C 	C 	0.69021	0.9014	0.7462	0.103
Mof_C 	C 	0.9829	0.8932	0.9404	0.056
Mof_C 	C 	0.0366	0.5369	0.0477	0.068
Mof_H 	H 	0.0181	0.5216	0.0648	-0.005
Mof_C 	C 	0.9367	0.9633	0.9751	0.081
Mof_H 	H 	0.927	0.9733	0.0011	-0.009
Mof_C 	C 	0.6755	0.0394	0.7003	-0.124
Mof_H 	H 	0.6982	0.0666	0.7168	0.078
Mof_C 	C 	0.0673	0.7927	0.9116	0.107
Mof_C 	C 	0.6984	0.6723	0.7811	0.06
Mof_C 	C 	0.0888	0.5774	0.9977	-0.127
Mof_H 	H 	0.1073	0.5894	0.9801	0.078
Mof_C 	C 	0.0929	0.5068	0.0246	0.075
Mof_H 	H 	0.115	0.47	0.0259	-0.017
Mof_C 	C 	0.0813	0.863	0.8437	-0.114
Mof_H 	H 	0.0566	0.8909	0.8381	0.084
Mof_C 	C 	0.7939	0.8942	0.8703	-0.122
Mof_H 	H 	0.789	0.8336	0.8762	0.088
Mof_C 	C 	0.811	0.0674	0.8553	0.07
Mof_H 	H 	0.8169	0.1277	0.8498	-0.003
Mof_C 	C 	0.6663	0.6351	0.7535	-0.122
Mof_H 	H 	0.6482	0.6721	0.7347	0.092
Mof_C 	C 	0.9682	0.9067	0.9771	-0.128
Mof_H 	H 	0.9794	0.8775	0.0039	0.082
Mof_C 	C 	0.8232	0.9422	0.8975	0.078
Mof_H 	H 	0.838	0.9127	0.9224	-0.003
Mof_C 	C 	0.1297	0.7714	0.8877	-0.113
Mof_H 	H 	0.1384	0.7339	0.9124	0.082
Mof_C 	C 	0.7235	0.616	0.808	-0.122
Mof_H 	H 	0.7454	0.6393	0.828	0.079
Mof_C 	C 	0.6322	0.9171	0.6858	-0.124
Mof_H 	H 	0.6247	0.858	0.6914	0.108
Mof_C 	C 	0.1063	0.875	0.8154	0.072
Mof_H 	H 	0.0982	0.911	0.7899	-0.015
Mof_C 	C 	0.9319	0.9856	0.9025	0.088
Mof_H 	H 	0.9184	0.0115	0.8758	-0.013
Mof_C 	C 	0.9635	0.9303	0.9009	-0.125
Mof_H 	H 	0.9714	0.9186	0.8739	0.089
Mof_N 	N 	0.02272	0.7692	0.97073	-0.146
Mof_I 	I 	0.88251	0.23355	0.91507	0.541
Mof_I 	I 	0.02494	0.35064	0.13139	-0.35
Mof_I 	I 	0.7374	0.73315	0.30257	-0.38
Mof_I 	I 	0.11898	0.2656	0.06097	-0.377
Mof_I 	I 	0.6324	0.67607	0.20022	-0.398
Mof_I 	I 	0.35427	0.41425	0.50872	-0.388
Mof_I 	I 	0.39393	0.26677	0.39543	-0.926
Mof_Zn	Zn	0.08146	0.381	0.09461	1.165
Mof_Zn	Zn	0.675	0.64687	0.2757	1.163
Mof_Zn	Zn	0.3744	0.40983	0.43508	1.153
Mof_N 	N 	0.18595	0.0107	0.27901	-0.273
Mof_N 	N 	0.56799	0.0154	0.54999	-0.273
Mof_N 	N 	0.11988	0.4509	0.1427	-0.269
Mof_N 	N 	0.18081	0.6844	0.24955	-0.133
Mof_N 	N 	0.33157	0.4739	0.3908	-0.277
Mof_N 	N 	0.64139	0.662	0.3224	-0.274
Mof_N 	N 	0.21968	0.557	0.27152	-0.142
Mof_N 	N 	0.57484	0.7769	0.43853	-0.137
Mof_N 	N 	0.23474	0.6952	0.30895	-0.14
Mof_N 	N 	0.4199	0.4965	0.4384	-0.279
Mof_N 	N 	0.53766	0.6502	0.41024	-0.132
Mof_C 	C 	0.11	0.5323	0.1532	0.081
Mof_H 	H 	0.0863	0.5567	0.1375	-0.001
Mof_C 	C 	0.1656	0.5465	0.2101	0.062
Mof_C 	C 	0.55703	0.867	0.4957	0.048
Mof_C 	C 	0.20495	0.7297	0.2804	0.106
Mof_C 	C 	0.27245	0.562	0.3346	0.053
Mof_C 	C 	0.51672	0.6654	0.4407	0.091
Mof_C 	C 	0.53055	0.8882	0.5216	-0.114
Mof_H 	H 	0.5086	0.8515	0.5211	0.074
Mof_C 	C 	0.2167	0.9752	0.3057	0.071
Mof_H 	H 	0.2346	0.0138	0.3238	-0.012
Mof_C 	C 	0.1612	0.9562	0.2536	0.07
Mof_H 	H 	0.139	0.9811	0.2349	-0.013
Mof_C 	C 	0.55143	0.7868	0.467	0.088
Mof_C 	C 	0.653	0.7114	0.3586	0.07
Mof_H 	H 	0.6784	0.7355	0.3643	-0.011
Mof_C 	C 	0.24063	0.6083	0.3032	0.088
Mof_C 	C 	0.2817	0.4752	0.3267	-0.126
Mof_H 	H 	0.2678	0.4446	0.3015	0.09
Mof_C 	C 	0.1521	0.4146	0.1662	0.068
Mof_H 	H 	0.1591	0.3558	0.1595	-0.007
Mof_C 	C 	0.59279	0.6904	0.3805	0.06
Mof_C 	C 	0.19021	0.5986	0.2462	0.103
Mof_C 	C 	0.4829	0.6068	0.4404	0.056
Mof_C 	C 	0.5366	0.9631	0.5477	0.068
Mof_H 	H 	0.5181	0.9784	0.5648	-0.005
Mof_C 	C 	0.4367	0.5367	0.4751	0.081
Mof_H 	H 	0.427	0.5267	0.5011	-0.008
Mof_C 	C 	0.1755	0.4606	0.2003	-0.124
Mof_H 	H 	0.1982	0.4334	0.2168	0.078
Mof_C 	C 	0.5673	0.7073	0.4116	0.107
Mof_C 	C 	0.1984	0.8277	0.2811	0.06
Mof_C 	C 	0.5888	0.9226	0.4977	-0.127
Mof_H 	H 	0.6073	0.9106	0.4801	0.078
Mof_C 	C 	0.5929	0.9932	0.5246	0.075
Mof_H 	H 	0.615	0.03	0.5259	-0.017
Mof_C 	C 	0.5813	0.637	0.3437	-0.114
Mof_H 	H 	0.5566	0.6091	0.3381	0.084
Mof_C 	C 	0.2939	0.6058	0.3703	-0.122
Mof_H 	H 	0.289	0.6664	0.3762	0.088
Mof_C 	C 	0.311	0.4326	0.3553	0.07
Mof_H 	H 	0.3169	0.3723	0.3498	-0.003
Mof_C 	C 	0.1663	0.8649	0.2535	-0.122
Mof_H 	H 	0.1482	0.8279	0.2347	0.092
Mof_C 	C 	0.4682	0.5933	0.4771	-0.127
Mof_H 	H 	0.4794	0.6225	0.5039	0.082
Mof_C 	C 	0.3232	0.5578	0.3975	0.078
Mof_H 	H 	0.338	0.5873	0.4224	-0.003
Mof_C 	C 	0.6297	0.7286	0.3877	-0.113
Mof_H 	H 	0.6384	0.7661	0.4124	0.082
Mof_C 	C 	0.2235	0.884	0.308	-0.122
Mof_H 	H 	0.2454	0.8607	0.328	0.079
Mof_C 	C 	0.1322	0.5829	0.1858	-0.124
Mof_H 	H 	0.1247	0.642	0.1914	0.108
Mof_C 	C 	0.6063	0.625	0.3154	0.072
Mof_H 	H 	0.5982	0.589	0.2899	-0.015
Mof_C 	C 	0.4319	0.5144	0.4025	0.088
Mof_H 	H 	0.4184	0.4885	0.3758	-0.012
Mof_C 	C 	0.4635	0.5697	0.4009	-0.125
Mof_H 	H 	0.4714	0.5814	0.3739	0.089
Mof_N 	N 	0.52272	0.7308	0.47073	-0.146
Mof_I 	I 	0.38251	0.26645	0.41507	0.541
Mof_I 	I 	0.52494	0.85064	0.13139	-0.35
Mof_I 	I 	0.2374	0.23315	0.30257	-0.38
Mof_I 	I 	0.61898	0.7656	0.06097	-0.377
Mof_I 	I 	0.1324	0.17607	0.20022	-0.398
Mof_I 	I 	0.85427	0.91425	0.50872	-0.388
Mof_I 	I 	0.89393	0.76677	0.39543	-0.926
Mof_Zn	Zn	0.58146	0.881	0.09461	1.165
Mof_Zn	Zn	0.175	0.14687	0.2757	1.163
Mof_Zn	Zn	0.8744	0.90983	0.43508	1.153
Mof_N 	N 	0.68595	0.5107	0.27901	-0.273
Mof_N 	N 	0.06799	0.5154	0.54999	-0.273
Mof_N 	N 	0.61988	0.9509	0.1427	-0.269
Mof_N 	N 	0.68081	0.1844	0.24955	-0.133
Mof_N 	N 	0.83157	0.9739	0.3908	-0.277
Mof_N 	N 	0.14139	0.162	0.3224	-0.274
Mof_N 	N 	0.71968	0.057	0.27152	-0.142
Mof_N 	N 	0.07484	0.2769	0.43853	-0.137
Mof_N 	N 	0.73474	0.1952	0.30895	-0.14
Mof_N 	N 	0.9199	0.9965	0.4384	-0.279
Mof_N 	N 	0.03766	0.1502	0.41024	-0.132
Mof_C 	C 	0.61	0.0323	0.1532	0.082
Mof_H 	H 	0.5863	0.0567	0.1375	-0.001
Mof_C 	C 	0.6656	0.0465	0.2101	0.062
Mof_C 	C 	0.05703	0.367	0.4957	0.048
Mof_C 	C 	0.70495	0.2297	0.2804	0.106
Mof_C 	C 	0.77245	0.062	0.3346	0.053
Mof_C 	C 	0.01672	0.1654	0.4407	0.091
Mof_C 	C 	0.03055	0.3882	0.5216	-0.114
Mof_H 	H 	0.0086	0.3515	0.5211	0.074
Mof_C 	C 	0.7167	0.4752	0.3057	0.071
Mof_H 	H 	0.7346	0.5138	0.3238	-0.012
Mof_C 	C 	0.6612	0.4562	0.2536	0.07
Mof_H 	H 	0.639	0.4811	0.2349	-0.013
Mof_C 	C 	0.05143	0.2868	0.467	0.088
Mof_C 	C 	0.153	0.2114	0.3586	0.07
Mof_H 	H 	0.1784	0.2355	0.3643	-0.011
Mof_C 	C 	0.74063	0.1083	0.3032	0.088
Mof_C 	C 	0.7817	0.9752	0.3267	-0.126
Mof_H 	H 	0.7678	0.9446	0.3015	0.09
Mof_C 	C 	0.6521	0.9146	0.1662	0.068
Mof_H 	H 	0.6591	0.8558	0.1595	-0.007
Mof_C 	C 	0.09279	0.1904	0.3805	0.06
Mof_C 	C 	0.69021	0.0986	0.2462	0.103
Mof_C 	C 	0.9829	0.1068	0.4404	0.056
Mof_C 	C 	0.0366	0.4631	0.5477	0.068
Mof_H 	H 	0.0181	0.4784	0.5648	-0.005
Mof_C 	C 	0.9367	0.0367	0.4751	0.081
Mof_H 	H 	0.927	0.0267	0.5011	-0.008
Mof_C 	C 	0.6755	0.9606	0.2003	-0.124
Mof_H 	H 	0.6982	0.9334	0.2168	0.078
Mof_C 	C 	0.0673	0.2073	0.4116	0.107
Mof_C 	C 	0.6984	0.3277	0.2811	0.06
Mof_C 	C 	0.0888	0.4226	0.4977	-0.127
Mof_H 	H 	0.1073	0.4106	0.4801	0.078
Mof_C 	C 	0.0929	0.4932	0.5246	0.075
Mof_H 	H 	0.115	0.53	0.5259	-0.017
Mof_C 	C 	0.0813	0.137	0.3437	-0.114
Mof_H 	H 	0.0566	0.1091	0.3381	0.084
Mof_C 	C 	0.7939	0.1058	0.3703	-0.122
Mof_H 	H 	0.789	0.1664	0.3762	0.088
Mof_C 	C 	0.811	0.9326	0.3553	0.07
Mof_H 	H 	0.8169	0.8723	0.3498	-0.003
Mof_C 	C 	0.6663	0.3649	0.2535	-0.122
Mof_H 	H 	0.6482	0.3279	0.2347	0.092
Mof_C 	C 	0.9682	0.0933	0.4771	-0.127
Mof_H 	H 	0.9794	0.1225	0.5039	0.082
Mof_C 	C 	0.8232	0.0578	0.3975	0.078
Mof_H 	H 	0.838	0.0873	0.4224	-0.003
Mof_C 	C 	0.1297	0.2286	0.3877	-0.113
Mof_H 	H 	0.1384	0.2661	0.4124	0.082
Mof_C 	C 	0.7235	0.384	0.308	-0.122
Mof_H 	H 	0.7454	0.3607	0.328	0.079
Mof_C 	C 	0.6322	0.0829	0.1858	-0.124
Mof_H 	H 	0.6247	0.142	0.1914	0.108
Mof_C 	C 	0.1063	0.125	0.3154	0.072
Mof_H 	H 	0.0982	0.089	0.2899	-0.015
Mof_C 	C 	0.9319	0.0144	0.4025	0.088
Mof_H 	H 	0.9184	0.9885	0.3758	-0.012
Mof_C 	C 	0.9635	0.0697	0.4009	-0.125
Mof_H 	H 	0.9714	0.0814	0.3739	0.089
Mof_N 	N 	0.02272	0.2308	0.47073	-0.146
Mof_I 	I 	0.88251	0.76645	0.41507	0.541
_end
