data_functionalizedCrystal
_audit_creation_method	'EQeq! by Chris Wilmer'
_symmetry_space_group_name_H-M	'P1'
_symmetry_Int_Tables_number	1
_symmetry_cell_setting	triclinic
loop_
_symmetry_equiv_pos_as_xyz
  x,y,z
_cell_length_a	7.2774
_cell_length_b	7.2774
_cell_length_c	8.2094
_cell_angle_alpha	90
_cell_angle_beta	90
_cell_angle_gamma	120
loop_
_atom_site_label
_atom_site_type_symbol
_atom_site_fract_x
_atom_site_fract_y
_atom_site_fract_z
_atom_site_charge
Mof_O 	O 	0.89066	0.31033	0.89413	-0.291
Mof_O 	O 	0.68967	0.58033	0.89413	-0.317
Mof_O 	O 	0.41967	0.10934	0.89413	-0.324
Mof_O 	O 	0.10934	0.68967	0.39413	-0.425
Mof_O 	O 	0.31033	0.41967	0.39413	-0.465
Mof_O 	O 	0.58033	0.89066	0.39413	-0.36
Mof_O 	O 	0.31033	0.89066	0.10587	-0.343
Mof_O 	O 	0.58033	0.68967	0.10587	-0.4
Mof_O 	O 	0.10934	0.41967	0.10587	-0.418
Mof_O 	O 	0.68967	0.10934	0.60587	-0.416
Mof_O 	O 	0.41967	0.31033	0.60587	-0.457
Mof_O 	O 	0.89066	0.58033	0.60587	-0.374
Mof_Mg	Mg	0.66667	0.33333	0.75	1.479
Mof_Mg	Mg	0.33333	0.66667	0.25	1.478
Mof_C 	C 	3.77421e-17	0.4395	-0	0.283
Mof_H 	H 	3.77421e-17	0.5673	-0	-0.088
Mof_C 	C 	0.5605	0.5605	-0	0.366
Mof_H 	H 	0.4327	0.4327	-0	-0.11
Mof_C 	C 	0.4395	0	-0	0.24
Mof_H 	H 	0.5673	0	-0	-0.083
Mof_C 	C 	4.4152e-17	0.5605	0.5	0.442
Mof_H 	H 	6.4099e-18	0.4327	0.5	-0.119
Mof_C 	C 	0.4395	0.4395	0.5	0.532
Mof_H 	H 	0.5673	0.5673	0.5	-0.122
Mof_C 	C 	0.5605	8.38042e-33	0.5	0.405
Mof_H 	H 	0.4327	8.38042e-33	0.5	-0.113
_end
