data_functionalizedCrystal
_audit_creation_method	'EQeq! by Chris Wilmer'
_symmetry_space_group_name_H-M	'P1'
_symmetry_Int_Tables_number	1
_symmetry_cell_setting	triclinic
loop_
_symmetry_equiv_pos_as_xyz
  x,y,z
_cell_length_a	10.2289
_cell_length_b	11.2526
_cell_length_c	22.1877
_cell_angle_alpha	90
_cell_angle_beta	96.967
_cell_angle_gamma	90
loop_
_atom_site_label
_atom_site_type_symbol
_atom_site_fract_x
_atom_site_fract_y
_atom_site_fract_z
_atom_site_charge
Mof_Eu	Eu	0.75954	0.41311	0.56396	2.029
Mof_Eu	Eu	0.11046	0.6869	0.72557	2.337
Mof_Eu	Eu	0.74046	0.91311	0.93604	2.02
Mof_Eu	Eu	0.38954	0.1869	0.77443	2.339
Mof_Eu	Eu	0.24046	0.58689	0.43604	2.03
Mof_Eu	Eu	0.88954	0.3131	0.27443	2.338
Mof_Eu	Eu	0.25954	0.08689	0.06396	2.02
Mof_Eu	Eu	0.61046	0.8131	0.22557	2.339
Mof_H 	H 	0.8388	0.471	0.835	0.129
Mof_H 	H 	0.617	0.6189	0.6622	0.135
Mof_H 	H 	0.7264	0.4117	0.924	0.236
Mof_H 	H 	0.5881	0.3513	0.9094	0.239
Mof_H 	H 	0.7163	0.2737	0.9153	0.245
Mof_H 	H 	0.5189	0.5799	0.7889	0.248
Mof_H 	H 	0.6164	0.6779	0.7713	0.238
Mof_H 	H 	0.4804	0.7145	0.7916	0.243
Mof_H 	H 	0.6612	0.971	0.665	0.128
Mof_H 	H 	0.883	0.1189	0.8378	0.135
Mof_H 	H 	0.7736	0.9117	0.576	0.235
Mof_H 	H 	0.9119	0.8513	0.5906	0.238
Mof_H 	H 	0.7837	0.7737	0.5847	0.243
Mof_H 	H 	0.9811	0.0799	0.7111	0.244
Mof_H 	H 	0.8836	0.1779	0.7287	0.233
Mof_H 	H 	0.0196	0.2145	0.7084	0.236
Mof_H 	H 	0.1612	0.529	0.165	0.129
Mof_H 	H 	0.383	0.3811	0.3378	0.135
Mof_H 	H 	0.2736	0.5883	0.076	0.236
Mof_H 	H 	0.4119	0.6487	0.0906	0.239
Mof_H 	H 	0.2837	0.7263	0.0847	0.245
Mof_H 	H 	0.4811	0.4201	0.2111	0.248
Mof_H 	H 	0.3836	0.3221	0.2287	0.238
Mof_H 	H 	0.5196	0.2855	0.2084	0.243
Mof_H 	H 	0.3388	0.029	0.335	0.128
Mof_H 	H 	0.117	0.8811	0.1622	0.135
Mof_H 	H 	0.2264	0.0883	0.424	0.235
Mof_H 	H 	0.0881	0.1487	0.4094	0.238
Mof_H 	H 	0.2163	0.2263	0.4153	0.243
Mof_H 	H 	0.0189	0.9201	0.2889	0.244
Mof_H 	H 	0.1164	0.8221	0.2713	0.233
Mof_H 	H 	0.9804	0.7855	0.2916	0.236
Mof_C 	C 	0.8406	0.5056	0.7162	0.427
Mof_C 	C 	0.7572	0.4282	0.7516	-0.039
Mof_C 	C 	0.6512	0.3542	0.7379	-0.105
Mof_C 	C 	0.5793	0.3139	0.6794	0.46
Mof_C 	C 	0.6865	0.3636	0.8357	0.313
Mof_C 	C 	0.6786	0.3487	0.902	-0.785
Mof_C 	C 	0.1938	0.6518	0.58747	0.467
Mof_C 	C 	0.3266	0.648	0.6231	-0.093
Mof_C 	C 	0.4496	0.629	0.606	-0.039
Mof_C 	C 	0.5073	0.6146	0.5481	0.454
Mof_C 	C 	0.4634	0.6504	0.7055	0.329
Mof_C 	C 	0.5253	0.6562	0.7701	-0.786
Mof_C 	C 	0.2631	0.4547	0.7851	0.257
Mof_C 	C 	0.2042	0.4089	0.7218	0.266
Mof_C 	C 	0.6594	0.0056	0.7838	0.43
Mof_C 	C 	0.7428	0.9282	0.7484	-0.043
Mof_C 	C 	0.8488	0.8542	0.7621	-0.105
Mof_C 	C 	0.9207	0.8139	0.8206	0.458
Mof_C 	C 	0.8135	0.8636	0.6643	0.311
Mof_C 	C 	0.8214	0.8487	0.598	-0.783
Mof_C 	C 	0.3062	0.1518	0.91253	0.466
Mof_C 	C 	0.1734	0.148	0.8769	-0.091
Mof_C 	C 	0.0504	0.129	0.894	-0.045
Mof_C 	C 	0.9927	0.1146	0.9519	0.463
Mof_C 	C 	0.0366	0.1504	0.7945	0.32
Mof_C 	C 	0.9747	0.1562	0.7299	-0.766
Mof_C 	C 	0.2369	0.9547	0.7149	0.257
Mof_C 	C 	0.2958	0.9089	0.7782	0.266
Mof_C 	C 	0.1594	0.4944	0.2838	0.427
Mof_C 	C 	0.2428	0.5718	0.2484	-0.039
Mof_C 	C 	0.3488	0.6458	0.2621	-0.105
Mof_C 	C 	0.4207	0.6861	0.3206	0.46
Mof_C 	C 	0.3135	0.6364	0.1643	0.313
Mof_C 	C 	0.3214	0.6513	0.098	-0.785
Mof_C 	C 	0.8062	0.3482	0.41253	0.467
Mof_C 	C 	0.6734	0.352	0.3769	-0.093
Mof_C 	C 	0.5504	0.371	0.394	-0.039
Mof_C 	C 	0.4927	0.3854	0.4519	0.454
Mof_C 	C 	0.5366	0.3496	0.2945	0.329
Mof_C 	C 	0.4747	0.3438	0.2299	-0.786
Mof_C 	C 	0.7369	0.5453	0.2149	0.257
Mof_C 	C 	0.7958	0.5911	0.2782	0.266
Mof_C 	C 	0.3406	0.9944	0.2162	0.43
Mof_C 	C 	0.2572	0.0718	0.2516	-0.043
Mof_C 	C 	0.1512	0.1458	0.2379	-0.105
Mof_C 	C 	0.0793	0.1861	0.1794	0.458
Mof_C 	C 	0.1865	0.1364	0.3357	0.311
Mof_C 	C 	0.1786	0.1513	0.402	-0.783
Mof_C 	C 	0.6938	0.8482	0.08747	0.466
Mof_C 	C 	0.8266	0.852	0.1231	-0.091
Mof_C 	C 	0.9496	0.871	0.106	-0.045
Mof_C 	C 	0.0073	0.8854	0.0481	0.463
Mof_C 	C 	0.9634	0.8496	0.2055	0.32
Mof_C 	C 	0.0253	0.8438	0.2701	-0.766
Mof_C 	C 	0.7631	0.0453	0.2851	0.257
Mof_C 	C 	0.7042	0.0911	0.2218	0.266
Mof_N 	N 	0.6066	0.3151	0.791	-0.27
Mof_N 	N 	0.7776	0.4317	0.81358	-0.247
Mof_N 	N 	0.3362	0.6608	0.68557	-0.273
Mof_N 	N 	0.5332	0.6298	0.65913	-0.25
Mof_N 	N 	0.8934	0.8151	0.709	-0.27
Mof_N 	N 	0.7224	0.9317	0.68642	-0.247
Mof_N 	N 	0.1638	0.1608	0.81443	-0.272
Mof_N 	N 	0.9668	0.1298	0.84087	-0.245
Mof_N 	N 	0.3934	0.6849	0.209	-0.27
Mof_N 	N 	0.2224	0.5683	0.18642	-0.247
Mof_N 	N 	0.6638	0.3392	0.31443	-0.273
Mof_N 	N 	0.4668	0.3702	0.34087	-0.25
Mof_N 	N 	0.1066	0.1849	0.291	-0.27
Mof_N 	N 	0.2776	0.0683	0.31358	-0.247
Mof_N 	N 	0.8362	0.8392	0.18557	-0.272
Mof_N 	N 	0.0332	0.8702	0.15913	-0.245
Mof_O 	O 	0.8137	0.5141	0.65947	-0.556
Mof_O 	O 	0.9285	0.5615	0.74823	-0.517
Mof_O 	O 	0.6217	0.3385	0.63069	-0.552
Mof_O 	O 	0.4763	0.255	0.68221	-0.491
Mof_O 	O 	0.0976	0.6766	0.61639	-0.556
Mof_O 	O 	0.1796	0.6286	0.53214	-0.609
Mof_O 	O 	0.4398	0.6354	0.49869	-0.515
Mof_O 	O 	0.6269	0.5861	0.55374	-0.532
Mof_O 	O 	0.3404	0.3861	0.81614	-0.455
Mof_O 	O 	0.2289	0.5565	0.80049	-0.451
Mof_O 	O 	0.2315	0.3042	0.70855	-0.466
Mof_O 	O 	0.1326	0.4789	0.689	-0.462
Mof_O 	O 	0.6863	0.0141	0.84053	-0.554
Mof_O 	O 	0.5715	0.0615	0.75177	-0.517
Mof_O 	O 	0.8783	0.8385	0.86931	-0.551
Mof_O 	O 	0.0237	0.755	0.81779	-0.49
Mof_O 	O 	0.4024	0.1766	0.88361	-0.555
Mof_O 	O 	0.3204	0.1286	0.96786	-0.606
Mof_O 	O 	0.0602	0.1354	0.00131	-0.52
Mof_O 	O 	0.8731	0.0861	0.94626	-0.531
Mof_O 	O 	0.1596	0.8861	0.68386	-0.455
Mof_O 	O 	0.2711	0.0565	0.69951	-0.45
Mof_O 	O 	0.2685	0.8042	0.79145	-0.466
Mof_O 	O 	0.3674	0.9789	0.811	-0.464
Mof_O 	O 	0.1863	0.4859	0.34053	-0.556
Mof_O 	O 	0.0715	0.4385	0.25177	-0.517
Mof_O 	O 	0.3783	0.6615	0.36931	-0.552
Mof_O 	O 	0.5237	0.745	0.31779	-0.491
Mof_O 	O 	0.9024	0.3234	0.38361	-0.556
Mof_O 	O 	0.8204	0.3714	0.46786	-0.609
Mof_O 	O 	0.5602	0.3646	0.50131	-0.515
Mof_O 	O 	0.3731	0.4139	0.44626	-0.532
Mof_O 	O 	0.6596	0.6139	0.18386	-0.455
Mof_O 	O 	0.7711	0.4435	0.19951	-0.451
Mof_O 	O 	0.7685	0.6958	0.29145	-0.466
Mof_O 	O 	0.8674	0.5211	0.311	-0.462
Mof_O 	O 	0.3137	0.9859	0.15947	-0.554
Mof_O 	O 	0.4285	0.9385	0.24823	-0.517
Mof_O 	O 	0.1217	0.1615	0.13069	-0.551
Mof_O 	O 	0.9763	0.245	0.18221	-0.49
Mof_O 	O 	0.5976	0.8234	0.11639	-0.555
Mof_O 	O 	0.6796	0.8714	0.03214	-0.606
Mof_O 	O 	0.9398	0.8646	0.99869	-0.52
Mof_O 	O 	0.1269	0.9139	0.05374	-0.531
Mof_O 	O 	0.8404	0.1139	0.31614	-0.455
Mof_O 	O 	0.7289	0.9435	0.30049	-0.45
Mof_O 	O 	0.7315	0.1958	0.20855	-0.466
Mof_O 	O 	0.6326	0.0211	0.189	-0.464
_end
