data_functionalizedCrystal
_audit_creation_method	'EQeq! by Chris Wilmer'
_symmetry_space_group_name_H-M	'P1'
_symmetry_Int_Tables_number	1
_symmetry_cell_setting	triclinic
loop_
_symmetry_equiv_pos_as_xyz
  x,y,z
_cell_length_a	30.978
_cell_length_b	12.62
_cell_length_c	13.339
_cell_angle_alpha	90
_cell_angle_beta	90
_cell_angle_gamma	90
loop_
_atom_site_label
_atom_site_type_symbol
_atom_site_fract_x
_atom_site_fract_y
_atom_site_fract_z
_atom_site_charge
Mof_Zn	Zn	0.20299	0.40042	0.10042	1.184
Mof_O 	O 	0.1465	0.4666	0.0663	-0.458
Mof_N 	N 	0.2185	0.3836	0.2446	-0.299
Mof_N 	N 	0.2162	0.266	0.0323	-0.262
Mof_N 	N 	0.2498	0.5059	0.0614	-0.253
Mof_C 	C 	0.1188	0.4046	0.1101	0.319
Mof_C 	C 	0.1959	0.3549	0.321	0.119
Mof_C 	C 	0.2562	0.4095	0.2866	0.085
Mof_N 	N 	0.2526	0.2384	0.9751	-0.286
Mof_C 	C 	0.1944	0.1726	0.0385	0.105
Mof_O 	O 	0.1268	0.325	0.1523	-0.349
Mof_C 	C 	0.0731	0.4448	0.1021	-0.056
Mof_N 	N 	0.2162	0.3507	0.4078	-0.267
Mof_H 	H 	0.1661	0.3377	0.3151	-0.019
Mof_N 	N 	0.2552	0.3904	0.3836	-0.251
Mof_H 	H 	0.2802	0.4378	0.2515	-0.036
Mof_C 	C 	0.2493	0.1429	0.9497	0.114
Mof_Zn	Zn	0.29566	0.34578	0.92689	1.177
Mof_N 	N 	0.214	0.0961	0.9855	-0.292
Mof_H 	H 	0.1685	0.1628	0.0757	-0.008
Mof_C 	C 	0.0418	0.4024	0.1631	-0.004
Mof_C 	C 	0.061	0.523	0.0414	-0.054
Mof_Zn	Zn	0.19533	0.30376	0.54339	1.183
Mof_Zn	Zn	0.30157	0.43654	0.48712	1.179
Mof_H 	H 	0.2699	0.1075	0.9089	-0.065
Mof_C 	C 	0.9996	0.4345	0.1605	-0.071
Mof_H 	H 	0.0498	0.3484	0.2091	0.045
Mof_H 	H 	0.0831	0.5538	0.0015	0.067
Mof_C 	C 	0.0188	0.5661	0.0294	0.056
Mof_N 	N 	0.2118	0.1502	0.5441	-0.301
Mof_O 	O 	0.139	0.3635	0.5791	-0.46
Mof_N 	N 	0.2388	0.3542	0.643	-0.269
Mof_O 	O 	0.1408	0.918	0.9088	-0.411
Mof_O 	O 	0.1361	0.98	0.0644	-0.36
Mof_N 	N 	0.221	0.8928	0.1223	-0.262
Mof_H 	H 	0.9787	0.4027	0.2031	0.054
Mof_C 	C 	0.9875	0.5167	0.0924	0.02
Mof_C 	C 	0.007	0.6461	0.9665	-0.109
Mof_C 	C 	0.1945	0.0692	0.4939	0.123
Mof_C 	C 	0.2465	0.1044	0.5861	0.101
Mof_C 	C 	0.1186	0.9586	0.986	0.245
Mof_C 	C 	0.2007	0.8907	0.2069	0.115
Mof_C 	C 	0.9439	0.5562	0.0912	-0.045
Mof_C 	C 	0.9656	0.6819	0.9624	-0.02
Mof_H 	H 	0.0281	0.6776	0.9245	0.061
Mof_N 	N 	0.2167	0.9865	0.4968	-0.262
Mof_H 	H 	0.1677	0.0739	0.4593	-0.026
Mof_H 	H 	0.2661	0.1404	0.6291	-0.055
Mof_C 	C 	0.0716	0.9785	0.9694	-0.062
Mof_C 	C 	0.2613	0.8404	0.2413	0.102
Mof_N 	N 	0.2244	0.8658	0.2833	-0.298
Mof_H 	H 	0.1708	0.9062	0.2126	-0.016
Mof_C 	C 	0.9341	0.6328	0.0246	-0.036
Mof_H 	H 	0.9227	0.5291	0.1359	0.06
Mof_H 	H 	0.9579	0.7385	0.919	0.048
Mof_C 	C 	0.0513	0.0397	0.0378	-0.039
Mof_C 	C 	0.0486	0.9316	0.8881	-0.012
Mof_H 	H 	0.2856	0.8149	0.2776	-0.052
Mof_C 	C 	0.8885	0.6794	0.0166	0.32
Mof_O 	O 	0.1419	0.872	0.3965	-0.456
Mof_H 	H 	0.0662	0.0624	0.0963	0.066
Mof_C 	C 	0.0068	0.0707	0.0222	0.061
Mof_H 	H 	0.063	0.8827	0.8454	0.044
Mof_C 	C 	0.0063	0.9557	0.8705	-0.065
Mof_O 	O 	0.8789	0.7487	0.9574	-0.355
Mof_C 	C 	0.9855	0.0208	0.9455	-0.009
Mof_C 	C 	0.9855	0.1364	0.0866	-0.097
Mof_H 	H 	0.9915	0.9313	0.8126	0.054
Mof_C 	C 	0.9412	0.0546	0.9287	-0.029
Mof_H 	H 	0.0005	0.1623	0.1436	0.064
Mof_C 	C 	0.9429	0.1674	0.0731	0.03
Mof_C 	C 	0.9214	0.1233	0.9899	-0.071
Mof_H 	H 	0.9258	0.0271	0.8728	0.062
Mof_H 	H 	0.9291	0.2157	0.1173	0.035
Mof_C 	C 	0.8729	0.153	0.974	0.269
Mof_O 	O 	0.8525	0.1966	0.053	-0.325
Mof_Zn	Zn	0.79701	0.59958	0.60042	1.182
Mof_O 	O 	0.8535	0.5334	0.5663	-0.465
Mof_N 	N 	0.7815	0.6164	0.7446	-0.3
Mof_N 	N 	0.7838	0.734	0.5323	-0.269
Mof_N 	N 	0.7502	0.4941	0.5614	-0.263
Mof_C 	C 	0.8812	0.5954	0.6101	0.324
Mof_C 	C 	0.8041	0.6451	0.821	0.118
Mof_C 	C 	0.7438	0.5905	0.7866	0.084
Mof_N 	N 	0.7474	0.7616	0.4751	-0.276
Mof_C 	C 	0.8056	0.8274	0.5385	0.082
Mof_O 	O 	0.8732	0.675	0.6523	-0.352
Mof_C 	C 	0.9269	0.5552	0.6021	-0.073
Mof_N 	N 	0.7838	0.6493	0.9078	-0.273
Mof_H 	H 	0.8339	0.6623	0.8151	-0.021
Mof_N 	N 	0.7448	0.6096	0.8836	-0.254
Mof_H 	H 	0.7198	0.5622	0.7515	-0.038
Mof_C 	C 	0.7507	0.8571	0.4497	0.118
Mof_Zn	Zn	0.70434	0.65422	0.42689	1.18
Mof_N 	N 	0.786	0.9039	0.4855	-0.278
Mof_H 	H 	0.8315	0.8372	0.5757	-0.003
Mof_C 	C 	0.9582	0.5976	0.6631	0.01
Mof_C 	C 	0.939	0.477	0.5414	-0.033
Mof_Zn	Zn	0.80467	0.69624	0.04339	1.188
Mof_Zn	Zn	0.69843	0.56346	0.98712	1.173
Mof_H 	H 	0.7301	0.8925	0.4089	-0.063
Mof_C 	C 	0.0004	0.5655	0.6605	-0.087
Mof_H 	H 	0.9502	0.6516	0.7091	0.04
Mof_H 	H 	0.9169	0.4462	0.5015	0.054
Mof_C 	C 	0.9812	0.4339	0.5294	0.016
Mof_N 	N 	0.7882	0.8498	0.0441	-0.286
Mof_O 	O 	0.861	0.6365	0.0791	-0.459
Mof_N 	N 	0.7612	0.6458	0.143	-0.266
Mof_O 	O 	0.8592	0.082	0.4088	-0.411
Mof_O 	O 	0.8639	0.02	0.5644	-0.384
Mof_N 	N 	0.779	0.1072	0.6223	-0.267
Mof_H 	H 	0.0213	0.5973	0.7031	0.057
Mof_C 	C 	0.0125	0.4833	0.5924	0.03
Mof_C 	C 	0.993	0.3539	0.4665	-0.068
Mof_C 	C 	0.8055	0.9308	0.9939	0.099
Mof_C 	C 	0.7535	0.8956	0.0861	0.105
Mof_C 	C 	0.8814	0.0414	0.486	0.27
Mof_C 	C 	0.7993	0.1093	0.7069	0.114
Mof_C 	C 	0.0561	0.4438	0.5912	-0.052
Mof_C 	C 	0.0344	0.3181	0.4624	-0.015
Mof_H 	H 	0.9719	0.3224	0.4245	0.053
Mof_N 	N 	0.7833	0.0135	0.9968	-0.268
Mof_H 	H 	0.8323	0.9261	0.9593	-0.021
Mof_H 	H 	0.7339	0.8596	0.1291	-0.054
Mof_C 	C 	0.9284	0.0215	0.4694	-0.048
Mof_C 	C 	0.7387	0.1596	0.7413	0.101
Mof_N 	N 	0.7756	0.1342	0.7833	-0.299
Mof_H 	H 	0.8292	0.0938	0.7126	-0.017
Mof_C 	C 	0.0659	0.3672	0.5246	-0.046
Mof_H 	H 	0.0773	0.4709	0.6359	0.06
Mof_H 	H 	0.0421	0.2615	0.419	0.05
Mof_C 	C 	0.9487	0.9603	0.5378	-0.053
Mof_C 	C 	0.9514	0.0684	0.3881	-0.009
Mof_H 	H 	0.7144	0.1851	0.7776	-0.055
Mof_C 	C 	0.1115	0.3206	0.5166	0.292
Mof_O 	O 	0.8581	0.128	0.8965	-0.455
Mof_H 	H 	0.9338	0.9376	0.5963	0.069
Mof_C 	C 	0.9932	0.9293	0.5222	0.032
Mof_H 	H 	0.937	0.1173	0.3454	0.045
Mof_C 	C 	0.9937	0.0443	0.3705	-0.071
Mof_O 	O 	0.1211	0.2513	0.4574	-0.332
Mof_C 	C 	0.0145	0.9792	0.4455	0.023
Mof_C 	C 	0.0145	0.8636	0.5866	-0.077
Mof_H 	H 	0.0085	0.0687	0.3126	0.056
Mof_C 	C 	0.0588	0.9454	0.4287	-0.05
Mof_H 	H 	0.9995	0.8377	0.6436	0.057
Mof_C 	C 	0.0571	0.8326	0.5731	-0.013
Mof_C 	C 	0.0786	0.8767	0.4899	-0.036
Mof_H 	H 	0.0742	0.9729	0.3728	0.07
Mof_H 	H 	0.0709	0.7843	0.6173	0.045
Mof_C 	C 	0.1271	0.847	0.474	0.282
Mof_O 	O 	0.1475	0.8034	0.553	-0.345
Mof_Zn	Zn	0.70299	0.09958	0.10042	1.183
Mof_O 	O 	0.6465	0.0334	0.0663	-0.461
Mof_N 	N 	0.7185	0.1164	0.2446	-0.3
Mof_N 	N 	0.7162	0.234	0.0323	-0.263
Mof_N 	N 	0.7498	0.9941	0.0614	-0.253
Mof_C 	C 	0.6188	0.0954	0.1101	0.321
Mof_C 	C 	0.6959	0.1451	0.321	0.119
Mof_C 	C 	0.7562	0.0905	0.2866	0.085
Mof_N 	N 	0.7526	0.2616	0.9751	-0.286
Mof_C 	C 	0.6944	0.3274	0.0385	0.105
Mof_O 	O 	0.6268	0.175	0.1523	-0.35
Mof_C 	C 	0.5731	0.0552	0.1021	-0.063
Mof_N 	N 	0.7162	0.1493	0.4078	-0.267
Mof_H 	H 	0.6661	0.1623	0.3151	-0.019
Mof_N 	N 	0.7552	0.1096	0.3836	-0.251
Mof_H 	H 	0.7802	0.0622	0.2515	-0.037
Mof_C 	C 	0.7493	0.3571	0.9497	0.114
Mof_Zn	Zn	0.79566	0.15422	0.92689	1.177
Mof_N 	N 	0.714	0.4039	0.9855	-0.292
Mof_H 	H 	0.6685	0.3372	0.0757	-0.008
Mof_C 	C 	0.5418	0.0976	0.1631	0.002
Mof_C 	C 	0.561	0.977	0.0414	-0.048
Mof_Zn	Zn	0.69533	0.19624	0.54339	1.183
Mof_Zn	Zn	0.80157	0.06346	0.48712	1.179
Mof_H 	H 	0.7699	0.3925	0.9089	-0.066
Mof_C 	C 	0.4996	0.0655	0.1605	-0.078
Mof_H 	H 	0.5498	0.1516	0.2091	0.043
Mof_H 	H 	0.5831	0.9462	0.0015	0.065
Mof_C 	C 	0.5188	0.9339	0.0294	0.052
Mof_N 	N 	0.7118	0.3498	0.5441	-0.301
Mof_O 	O 	0.639	0.1365	0.5791	-0.46
Mof_N 	N 	0.7388	0.1458	0.643	-0.269
Mof_O 	O 	0.6408	0.582	0.9088	-0.411
Mof_O 	O 	0.6361	0.52	0.0644	-0.361
Mof_N 	N 	0.721	0.6072	0.1223	-0.262
Mof_H 	H 	0.4787	0.0973	0.2031	0.056
Mof_C 	C 	0.4875	0.9833	0.0924	0.024
Mof_C 	C 	0.507	0.8539	0.9665	-0.105
Mof_C 	C 	0.6945	0.4308	0.4939	0.123
Mof_C 	C 	0.7465	0.3956	0.5861	0.101
Mof_C 	C 	0.6186	0.5414	0.986	0.244
Mof_C 	C 	0.7007	0.6093	0.2069	0.115
Mof_C 	C 	0.4439	0.9438	0.0912	-0.048
Mof_C 	C 	0.4656	0.8181	0.9624	-0.024
Mof_H 	H 	0.5281	0.8224	0.9245	0.059
Mof_N 	N 	0.7167	0.5135	0.4968	-0.262
Mof_H 	H 	0.6677	0.4261	0.4593	-0.026
Mof_H 	H 	0.7661	0.3596	0.6291	-0.055
Mof_C 	C 	0.5716	0.5215	0.9694	-0.059
Mof_C 	C 	0.7613	0.6596	0.2413	0.102
Mof_N 	N 	0.7244	0.6342	0.2833	-0.298
Mof_H 	H 	0.6708	0.5938	0.2126	-0.016
Mof_C 	C 	0.4341	0.8672	0.0246	-0.034
Mof_H 	H 	0.4227	0.9709	0.1359	0.061
Mof_H 	H 	0.4579	0.7615	0.919	0.05
Mof_C 	C 	0.5513	0.4603	0.0378	-0.042
Mof_C 	C 	0.5486	0.5684	0.8881	-0.017
Mof_H 	H 	0.7856	0.6851	0.2776	-0.052
Mof_C 	C 	0.3885	0.8206	0.0166	0.32
Mof_O 	O 	0.6419	0.628	0.3965	-0.456
Mof_H 	H 	0.5662	0.4376	0.0963	0.068
Mof_C 	C 	0.5068	0.4293	0.0222	0.07
Mof_H 	H 	0.563	0.6173	0.8454	0.046
Mof_C 	C 	0.5063	0.5443	0.8705	-0.058
Mof_O 	O 	0.3789	0.7513	0.9574	-0.355
Mof_C 	C 	0.4855	0.4792	0.9455	-0.017
Mof_C 	C 	0.4855	0.3636	0.0866	-0.106
Mof_H 	H 	0.4915	0.5687	0.8126	0.051
Mof_C 	C 	0.4412	0.4454	0.9287	-0.024
Mof_H 	H 	0.5005	0.3377	0.1436	0.067
Mof_C 	C 	0.4429	0.3326	0.0731	0.036
Mof_C 	C 	0.4214	0.3767	0.9899	-0.075
Mof_H 	H 	0.4258	0.4729	0.8728	0.061
Mof_H 	H 	0.4291	0.2843	0.1173	0.032
Mof_C 	C 	0.3729	0.347	0.974	0.27
Mof_O 	O 	0.3525	0.3034	0.053	-0.325
Mof_Zn	Zn	0.29701	0.90042	0.60042	1.182
Mof_O 	O 	0.3535	0.9666	0.5663	-0.465
Mof_N 	N 	0.2815	0.8836	0.7446	-0.3
Mof_N 	N 	0.2838	0.766	0.5323	-0.269
Mof_N 	N 	0.2502	0.0059	0.5614	-0.263
Mof_C 	C 	0.3812	0.9046	0.6101	0.323
Mof_C 	C 	0.3041	0.8549	0.821	0.118
Mof_C 	C 	0.2438	0.9095	0.7866	0.084
Mof_N 	N 	0.2474	0.7384	0.4751	-0.276
Mof_C 	C 	0.3056	0.6726	0.5385	0.081
Mof_O 	O 	0.3732	0.825	0.6523	-0.352
Mof_C 	C 	0.4269	0.9448	0.6021	-0.071
Mof_N 	N 	0.2838	0.8507	0.9078	-0.273
Mof_H 	H 	0.3339	0.8377	0.8151	-0.021
Mof_N 	N 	0.2448	0.8904	0.8836	-0.254
Mof_H 	H 	0.2198	0.9378	0.7515	-0.039
Mof_C 	C 	0.2507	0.6429	0.4497	0.118
Mof_Zn	Zn	0.20434	0.84578	0.42689	1.18
Mof_N 	N 	0.286	0.5961	0.4855	-0.278
Mof_H 	H 	0.3315	0.6628	0.5757	-0.003
Mof_C 	C 	0.4582	0.9024	0.6631	0.006
Mof_C 	C 	0.439	0.023	0.5414	-0.035
Mof_Zn	Zn	0.30467	0.80376	0.04339	1.188
Mof_Zn	Zn	0.19843	0.93654	0.98712	1.173
Mof_H 	H 	0.2301	0.6075	0.4089	-0.064
Mof_C 	C 	0.5004	0.9345	0.6605	-0.083
Mof_H 	H 	0.4502	0.8484	0.7091	0.041
Mof_H 	H 	0.4169	0.0538	0.5015	0.054
Mof_C 	C 	0.4812	0.0661	0.5294	0.018
Mof_N 	N 	0.2882	0.6502	0.0441	-0.286
Mof_O 	O 	0.361	0.8635	0.0791	-0.459
Mof_N 	N 	0.2612	0.8542	0.143	-0.266
Mof_O 	O 	0.3592	0.418	0.4088	-0.411
Mof_O 	O 	0.3639	0.48	0.5644	-0.384
Mof_N 	N 	0.279	0.3928	0.6223	-0.267
Mof_H 	H 	0.5213	0.9027	0.7031	0.056
Mof_C 	C 	0.5125	0.0167	0.5924	0.029
Mof_C 	C 	0.493	0.1461	0.4665	-0.071
Mof_C 	C 	0.3055	0.5692	0.9939	0.098
Mof_C 	C 	0.2535	0.6044	0.0861	0.105
Mof_C 	C 	0.3814	0.4586	0.486	0.27
Mof_C 	C 	0.2993	0.3907	0.7069	0.114
Mof_C 	C 	0.5561	0.0562	0.5912	-0.051
Mof_C 	C 	0.5344	0.1819	0.4624	-0.013
Mof_H 	H 	0.4719	0.1776	0.4245	0.053
Mof_N 	N 	0.2833	0.4865	0.9968	-0.267
Mof_H 	H 	0.3323	0.5739	0.9593	-0.021
Mof_H 	H 	0.2339	0.6404	0.1291	-0.054
Mof_C 	C 	0.4284	0.4785	0.4694	-0.048
Mof_C 	C 	0.2387	0.3404	0.7413	0.101
Mof_N 	N 	0.2756	0.3658	0.7833	-0.299
Mof_H 	H 	0.3292	0.4062	0.7126	-0.017
Mof_C 	C 	0.5659	0.1328	0.5246	-0.048
Mof_H 	H 	0.5773	0.0291	0.6359	0.059
Mof_H 	H 	0.5421	0.2385	0.419	0.049
Mof_C 	C 	0.4487	0.5397	0.5378	-0.052
Mof_C 	C 	0.4514	0.4316	0.3881	-0.007
Mof_H 	H 	0.2144	0.3149	0.7776	-0.055
Mof_C 	C 	0.6115	0.1794	0.5166	0.293
Mof_O 	O 	0.3581	0.372	0.8965	-0.455
Mof_H 	H 	0.4338	0.5624	0.5963	0.068
Mof_C 	C 	0.4932	0.5707	0.5222	0.027
Mof_H 	H 	0.437	0.3827	0.3454	0.044
Mof_C 	C 	0.4937	0.4557	0.3705	-0.075
Mof_O 	O 	0.6211	0.2487	0.4574	-0.332
Mof_C 	C 	0.5145	0.5208	0.4455	0.027
Mof_C 	C 	0.5145	0.6364	0.5866	-0.071
Mof_H 	H 	0.5085	0.4313	0.3126	0.058
Mof_C 	C 	0.5588	0.5546	0.4287	-0.053
Mof_H 	H 	0.4995	0.6623	0.6436	0.055
Mof_C 	C 	0.5571	0.6674	0.5731	-0.017
Mof_C 	C 	0.5786	0.6233	0.4899	-0.034
Mof_H 	H 	0.5742	0.5271	0.3728	0.071
Mof_H 	H 	0.5709	0.7157	0.6173	0.046
Mof_C 	C 	0.6271	0.653	0.474	0.282
Mof_O 	O 	0.6475	0.6966	0.553	-0.345
_end
