data_functionalizedCrystal
_audit_creation_method	'EQeq! by Chris Wilmer'
_symmetry_space_group_name_H-M	'P1'
_symmetry_Int_Tables_number	1
_symmetry_cell_setting	triclinic
loop_
_symmetry_equiv_pos_as_xyz
  x,y,z
_cell_length_a	21.9168
_cell_length_b	21.9168
_cell_length_c	21.9168
_cell_angle_alpha	60
_cell_angle_beta	60
_cell_angle_gamma	60
loop_
_atom_site_label
_atom_site_type_symbol
_atom_site_fract_x
_atom_site_fract_y
_atom_site_fract_z
_atom_site_charge
Mof_Zn	Zn	0.25	0.25	0.25	1.191
Mof_Zn	Zn	0.75	0.75	0.75	1.19
Mof_Co	Co	0.18152	0.45546	0.18151	1.144
Mof_Co	Co	0.45547	0.18151	0.18151	1.144
Mof_Co	Co	0.18152	0.18151	0.18151	1.145
Mof_Co	Co	0.18152	0.18151	0.45546	1.144
Mof_Co	Co	0.54453	0.81849	0.81849	1.142
Mof_Co	Co	0.81848	0.54454	0.81849	1.142
Mof_Co	Co	0.81848	0.81849	0.81849	1.141
Mof_Co	Co	0.81848	0.81849	0.54454	1.142
Mof_H 	H 	0.07873	0.52901	0.31353	0.113
Mof_H 	H 	0.52901	0.07873	0.07873	0.114
Mof_H 	H 	0.31353	0.07873	0.07873	0.116
Mof_H 	H 	0.07873	0.31353	0.52901	0.113
Mof_H 	H 	0.07873	0.31353	0.07873	0.116
Mof_H 	H 	0.52901	0.07873	0.31353	0.113
Mof_H 	H 	0.31353	0.07873	0.52901	0.113
Mof_H 	H 	0.07873	0.52901	0.07873	0.114
Mof_H 	H 	0.07873	0.07873	0.52901	0.114
Mof_H 	H 	0.52901	0.31353	0.07873	0.113
Mof_H 	H 	0.31353	0.52901	0.07873	0.113
Mof_H 	H 	0.07873	0.07873	0.31353	0.116
Mof_H 	H 	0.47099	0.92127	0.68647	0.102
Mof_H 	H 	0.92127	0.47099	0.92127	0.096
Mof_H 	H 	0.92127	0.68647	0.92127	0.094
Mof_H 	H 	0.68647	0.92127	0.47099	0.102
Mof_H 	H 	0.68647	0.92127	0.92127	0.094
Mof_H 	H 	0.92127	0.47099	0.68647	0.102
Mof_H 	H 	0.92127	0.68647	0.47099	0.102
Mof_H 	H 	0.47099	0.92127	0.92127	0.096
Mof_H 	H 	0.92127	0.92127	0.47099	0.096
Mof_H 	H 	0.68647	0.47099	0.92127	0.102
Mof_H 	H 	0.47099	0.68647	0.92127	0.102
Mof_H 	H 	0.92127	0.92127	0.68647	0.094
Mof_C 	C 	0.11733	0.41571	0.34963	0.074
Mof_C 	C 	0.0785	0.48675	0.35625	-0.165
Mof_C 	C 	0.0388	0.49496	0.42744	0.123
Mof_C 	C 	0.41571	0.11733	0.11733	0.075
Mof_C 	C 	0.48675	0.0785	0.0785	-0.164
Mof_C 	C 	0.49496	0.0388	0.0388	0.125
Mof_C 	C 	0.34963	0.11733	0.11733	0.076
Mof_C 	C 	0.35625	0.0785	0.0785	-0.164
Mof_C 	C 	0.42744	0.0388	0.0388	0.126
Mof_C 	C 	0.11733	0.34963	0.41571	0.074
Mof_C 	C 	0.0785	0.35625	0.48675	-0.165
Mof_C 	C 	0.0388	0.42744	0.49496	0.123
Mof_C 	C 	0.11733	0.34963	0.11733	0.076
Mof_C 	C 	0.0785	0.35625	0.0785	-0.164
Mof_C 	C 	0.0388	0.42744	0.0388	0.126
Mof_C 	C 	0.41571	0.11733	0.34963	0.074
Mof_C 	C 	0.48675	0.0785	0.35625	-0.165
Mof_C 	C 	0.49496	0.0388	0.42744	0.123
Mof_C 	C 	0.34963	0.11733	0.41571	0.074
Mof_C 	C 	0.35625	0.0785	0.48675	-0.165
Mof_C 	C 	0.42744	0.0388	0.49496	0.123
Mof_C 	C 	0.11733	0.41571	0.11733	0.075
Mof_C 	C 	0.0785	0.48675	0.0785	-0.164
Mof_C 	C 	0.0388	0.49496	0.0388	0.125
Mof_C 	C 	0.11733	0.11733	0.41571	0.075
Mof_C 	C 	0.0785	0.0785	0.48675	-0.164
Mof_C 	C 	0.0388	0.0388	0.49496	0.125
Mof_C 	C 	0.41571	0.34963	0.11733	0.074
Mof_C 	C 	0.48675	0.35625	0.0785	-0.165
Mof_C 	C 	0.49496	0.42744	0.0388	0.123
Mof_C 	C 	0.34963	0.41571	0.11733	0.074
Mof_C 	C 	0.35625	0.48675	0.0785	-0.165
Mof_C 	C 	0.42744	0.49496	0.0388	0.123
Mof_C 	C 	0.11733	0.11733	0.34963	0.076
Mof_C 	C 	0.0785	0.0785	0.35625	-0.164
Mof_C 	C 	0.0388	0.0388	0.42744	0.126
Mof_C 	C 	0.58429	0.88267	0.65037	0.068
Mof_C 	C 	0.51325	0.9215	0.64375	-0.161
Mof_C 	C 	0.50504	0.9612	0.57256	0.098
Mof_C 	C 	0.88267	0.58429	0.88267	0.065
Mof_C 	C 	0.9215	0.51325	0.9215	-0.155
Mof_C 	C 	0.9612	0.50504	0.9612	0.077
Mof_C 	C 	0.88267	0.65037	0.88267	0.064
Mof_C 	C 	0.9215	0.64375	0.9215	-0.154
Mof_C 	C 	0.9612	0.57256	0.9612	0.076
Mof_C 	C 	0.65037	0.88267	0.58429	0.068
Mof_C 	C 	0.64375	0.9215	0.51325	-0.161
Mof_C 	C 	0.57256	0.9612	0.50504	0.098
Mof_C 	C 	0.65037	0.88267	0.88267	0.064
Mof_C 	C 	0.64375	0.9215	0.9215	-0.154
Mof_C 	C 	0.57256	0.9612	0.9612	0.076
Mof_C 	C 	0.88267	0.58429	0.65037	0.068
Mof_C 	C 	0.9215	0.51325	0.64375	-0.161
Mof_C 	C 	0.9612	0.50504	0.57256	0.098
Mof_C 	C 	0.88267	0.65037	0.58429	0.068
Mof_C 	C 	0.9215	0.64375	0.51325	-0.161
Mof_C 	C 	0.9612	0.57256	0.50504	0.098
Mof_C 	C 	0.58429	0.88267	0.88267	0.065
Mof_C 	C 	0.51325	0.9215	0.9215	-0.155
Mof_C 	C 	0.50504	0.9612	0.9612	0.077
Mof_C 	C 	0.88267	0.88267	0.58429	0.065
Mof_C 	C 	0.9215	0.9215	0.51325	-0.155
Mof_C 	C 	0.9612	0.9612	0.50504	0.077
Mof_C 	C 	0.65037	0.58429	0.88267	0.068
Mof_C 	C 	0.64375	0.51325	0.9215	-0.161
Mof_C 	C 	0.57256	0.50504	0.9612	0.098
Mof_C 	C 	0.58429	0.65037	0.88267	0.068
Mof_C 	C 	0.51325	0.64375	0.9215	-0.161
Mof_C 	C 	0.50504	0.57256	0.9612	0.098
Mof_C 	C 	0.88267	0.88267	0.65037	0.064
Mof_C 	C 	0.9215	0.9215	0.64375	-0.154
Mof_C 	C 	0.9612	0.9612	0.57256	0.076
Mof_N 	N 	0.1601	0.39029	0.28951	-0.224
Mof_N 	N 	0.39029	0.1601	0.1601	-0.224
Mof_N 	N 	0.28951	0.1601	0.1601	-0.224
Mof_N 	N 	0.1601	0.28951	0.39029	-0.224
Mof_N 	N 	0.1601	0.28951	0.1601	-0.224
Mof_N 	N 	0.39029	0.1601	0.28951	-0.224
Mof_N 	N 	0.28951	0.1601	0.39029	-0.224
Mof_N 	N 	0.1601	0.39029	0.1601	-0.224
Mof_N 	N 	0.1601	0.1601	0.39029	-0.224
Mof_N 	N 	0.39029	0.28951	0.1601	-0.224
Mof_N 	N 	0.28951	0.39029	0.1601	-0.224
Mof_N 	N 	0.1601	0.1601	0.28951	-0.224
Mof_N 	N 	0.60971	0.8399	0.71049	-0.226
Mof_N 	N 	0.8399	0.60971	0.8399	-0.226
Mof_N 	N 	0.8399	0.71049	0.8399	-0.226
Mof_N 	N 	0.71049	0.8399	0.60971	-0.226
Mof_N 	N 	0.71049	0.8399	0.8399	-0.226
Mof_N 	N 	0.8399	0.60971	0.71049	-0.226
Mof_N 	N 	0.8399	0.71049	0.60971	-0.226
Mof_N 	N 	0.60971	0.8399	0.8399	-0.226
Mof_N 	N 	0.8399	0.8399	0.60971	-0.226
Mof_N 	N 	0.71049	0.60971	0.8399	-0.226
Mof_N 	N 	0.60971	0.71049	0.8399	-0.226
Mof_N 	N 	0.8399	0.8399	0.71049	-0.226
Mof_N 	N 	0.1854	0.3146	0.3146	-0.202
Mof_N 	N 	0.3146	0.1854	0.1854	-0.202
Mof_N 	N 	0.1854	0.3146	0.1854	-0.202
Mof_N 	N 	0.3146	0.1854	0.3146	-0.202
Mof_N 	N 	0.1854	0.1854	0.3146	-0.202
Mof_N 	N 	0.3146	0.3146	0.1854	-0.202
Mof_N 	N 	0.6854	0.8146	0.6854	-0.204
Mof_N 	N 	0.8146	0.6854	0.8146	-0.204
Mof_N 	N 	0.6854	0.8146	0.8146	-0.204
Mof_N 	N 	0.8146	0.6854	0.6854	-0.204
Mof_N 	N 	0.8146	0.8146	0.6854	-0.204
Mof_N 	N 	0.6854	0.6854	0.8146	-0.204
Mof_Cl	Cl	0.14412	0.56764	0.14412	-0.559
Mof_Cl	Cl	0.56764	0.14412	0.14412	-0.559
Mof_Cl	Cl	0.14412	0.14412	0.14412	-0.55
Mof_Cl	Cl	0.14412	0.14412	0.56764	-0.559
Mof_Cl	Cl	0.43236	0.85588	0.85588	-0.582
Mof_Cl	Cl	0.85588	0.43236	0.85588	-0.582
Mof_Cl	Cl	0.85588	0.85588	0.85588	-0.592
Mof_Cl	Cl	0.85588	0.85588	0.43236	-0.582
Mof_O 	O 	-7.63596e-17	0.56681	0.43319	-0.18
Mof_O 	O 	0.56681	0	-0	-0.16
Mof_O 	O 	0.43319	0	-0	-0.159
Mof_O 	O 	-4.58158e-17	0.43319	0.56681	-0.18
Mof_O 	O 	-0	0.43319	-0	-0.159
Mof_O 	O 	0.56681	3.05438e-17	0.43319	-0.18
Mof_O 	O 	0.43319	0	0.56681	-0.18
Mof_O 	O 	-0	0.56681	-0	-0.16
Mof_O 	O 	1.52719e-17	0	0.56681	-0.16
Mof_O 	O 	0.56681	0.43319	-0	-0.18
Mof_O 	O 	0.43319	0.56681	-0	-0.18
Mof_O 	O 	-1.52719e-17	3.05438e-17	0.43319	-0.159
_end
