data_functionalizedCrystal
_audit_creation_method	'EQeq! by Chris Wilmer'
_symmetry_space_group_name_H-M	'P1'
_symmetry_Int_Tables_number	1
_symmetry_cell_setting	triclinic
loop_
_symmetry_equiv_pos_as_xyz
  x,y,z
_cell_length_a	8.811
_cell_length_b	10.951
_cell_length_c	21.944
_cell_angle_alpha	77.152
_cell_angle_beta	87.703
_cell_angle_gamma	78.251
loop_
_atom_site_label
_atom_site_type_symbol
_atom_site_fract_x
_atom_site_fract_y
_atom_site_fract_z
_atom_site_charge
Mof_Yb	Yb	0.2868	0.4658	0.49518	1.638
Mof_Yb	Yb	0.7132	0.5342	0.50482	1.638
Mof_H 	H 	0.9377	0.1842	0.9849	0.072
Mof_H 	H 	0.9322	0.7912	0.9299	0.087
Mof_H 	H 	0.313	0.1127	0.9604	0.083
Mof_H 	H 	0.6939	0.5384	0.3373	-0.094
Mof_H 	H 	0.0623	0.8158	0.0151	0.072
Mof_H 	H 	0.8907	0.9346	0.9376	0.081
Mof_H 	H 	0.6128	0.8997	0.3738	0.002
Mof_H 	H 	0.2697	0.2573	0.9662	0.083
Mof_H 	H 	0.4042	0.706	0.7898	0.183
Mof_H 	H 	0.7026	0.1128	0.7855	0.107
Mof_H 	H 	0.4296	0.0141	0.1385	0.084
Mof_H 	H 	0.3584	0.9869	0.7258	0.104
Mof_H 	H 	0.0678	0.2088	0.0701	0.088
Mof_H 	H 	0.2758	0.6006	0.8743	0.173
Mof_H 	H 	0.7303	0.7427	0.0338	0.084
Mof_H 	H 	0.8876	0.8541	0.2145	0.116
Mof_H 	H 	0.7406	0.2199	0.6846	0.001
Mof_H 	H 	0.5704	0.9859	0.8615	0.084
Mof_H 	H 	0.3872	0.1003	0.6262	0.003
Mof_H 	H 	0.8668	0.9025	0.8721	0.089
Mof_H 	H 	0.2594	0.7801	0.3154	0.001
Mof_H 	H 	0.9396	0.5065	0.1505	-0.035
Mof_H 	H 	0.4417	0.1371	0.0463	0.072
Mof_H 	H 	0.3028	0.9246	0.8253	0.037
Mof_H 	H 	0.5958	0.294	0.2102	0.183
Mof_H 	H 	0.8364	0.7787	0.3178	-0.012
Mof_H 	H 	0.1332	0.0975	0.1279	0.089
Mof_H 	H 	0.521	0.7167	0.6937	-0.064
Mof_H 	H 	0.3279	0.7084	0.1405	0.044
Mof_H 	H 	0.2974	0.8872	0.2145	0.107
Mof_H 	H 	0.1124	0.1459	0.7855	0.116
Mof_H 	H 	0.7995	0.5092	0.6729	-0.004
Mof_H 	H 	0.2516	0.2216	0.9011	0.088
Mof_H 	H 	0.8082	0.5562	0.2419	0.205
Mof_H 	H 	0.3061	0.4616	0.6627	-0.093
Mof_H 	H 	0.9796	0.1791	0.8845	0.085
Mof_H 	H 	0.2463	0.5621	0.2209	0.118
Mof_H 	H 	0.479	0.2833	0.3063	-0.064
Mof_H 	H 	0.6972	0.0754	0.1747	0.037
Mof_H 	H 	0.6416	0.0131	0.2742	0.104
Mof_H 	H 	0.7484	0.7784	0.0989	0.088
Mof_H 	H 	0.1093	0.0654	0.0624	0.082
Mof_H 	H 	0.1918	0.4438	0.7581	0.205
Mof_H 	H 	0.7537	0.4379	0.7791	0.118
Mof_H 	H 	0.0204	0.8209	0.1155	0.085
Mof_H 	H 	0.5583	0.8629	0.9537	0.072
Mof_H 	H 	0.7242	0.3994	0.1257	0.173
Mof_H 	H 	0.2005	0.4908	0.3271	-0.004
Mof_H 	H 	0.687	0.8873	0.0396	0.084
Mof_H 	H 	0.0604	0.4935	0.8495	-0.035
Mof_H 	H 	0.1636	0.2213	0.6822	-0.012
Mof_H 	H 	0.6721	0.2916	0.8595	0.044
Mof_C 	C 	0.1932	0.8643	0.9397	0.111
Mof_C 	C 	0.386	0.6516	0.7644	-0.445
Mof_C 	C 	0.363	0.462	0.0884	0.064
Mof_C 	C 	0.952	0.7801	0.2372	-0.241
Mof_C 	C 	0.0685	0.1206	0.0907	-0.177
Mof_C 	C 	0.453	0.1033	0.6583	0.127
Mof_C 	C 	0.637	0.538	0.9116	0.064
Mof_C 	C 	0.2732	0.7957	0.0479	-0.003
Mof_C 	C 	0.3133	0.2003	0.939	-0.17
Mof_C 	C 	0.614	0.3484	0.2356	-0.445
Mof_C 	C 	0.547	0.8967	0.3417	0.127
Mof_C 	C 	0.985	0.371	0.6692	-0.225
Mof_C 	C 	0.0762	0.7186	0.2075	0.179
Mof_C 	C 	0.4569	0.854	0.9658	-0.118
Mof_C 	C 	0.9238	0.2814	0.7925	0.179
Mof_C 	C 	0.419	0.741	0.4204	0.428
Mof_C 	C 	0.7569	0.2474	0.8855	0.005
Mof_C 	C 	0.063	0.5172	0.9408	-0.121
Mof_C 	C 	0.659	0.1747	0.6926	0.128
Mof_C 	C 	0.9315	0.8794	0.9093	-0.177
Mof_C 	C 	0.435	0.0368	0.7181	-0.212
Mof_C 	C 	0.453	0.66	0.7068	0.332
Mof_C 	C 	0.992	0.578	0.4025	0.51
Mof_C 	C 	0.341	0.8253	0.3074	0.128
Mof_C 	C 	0.6554	0.1186	0.0788	-0.008
Mof_C 	C 	0.5236	0.0399	0.7667	0.173
Mof_C 	C 	0.8419	0.5052	0.0092	-0.013
Mof_C 	C 	0.2938	0.567	0.7855	0.431
Mof_C 	C 	0.904	0.5213	0.9485	0.127
Mof_C 	C 	0.015	0.629	0.3308	-0.225
Mof_C 	C 	0.895	0.2284	0.8595	-0.153
Mof_C 	C 	0.8068	0.1357	0.0603	0.111
Mof_C 	C 	0.5038	0.0157	0.1678	-0.151
Mof_C 	C 	0.2431	0.7526	0.1145	0.005
Mof_C 	C 	0.863	0.4356	0.6963	0.145
Mof_C 	C 	0.581	0.259	0.5796	0.428
Mof_C 	C 	0.4962	0.9843	0.8322	-0.151
Mof_C 	C 	0.4764	0.9601	0.2333	0.173
Mof_C 	C 	0.497	0.584	0.603	0.484
Mof_C 	C 	0.048	0.2199	0.7628	-0.241
Mof_C 	C 	0.6867	0.7997	0.061	-0.17
Mof_C 	C 	0.096	0.4787	0.0515	0.127
Mof_C 	C 	0.165	0.6084	0.2408	-0.225
Mof_C 	C 	0.12	0.5253	0.8746	0.25
Mof_C 	C 	0.105	0.7716	0.1405	-0.153
Mof_C 	C 	0.261	0.5	0.7465	-0.478
Mof_C 	C 	0.739	0.5	0.2535	-0.478
Mof_C 	C 	0.88	0.4747	0.1254	0.25
Mof_C 	C 	0.164	0.8239	0.003	-0.122
Mof_C 	C 	0.638	0.1092	0.7532	-0.21
Mof_C 	C 	0.079	0.264	0.7018	0.158
Mof_C 	C 	0.835	0.3916	0.7592	-0.225
Mof_C 	C 	0.836	0.1761	0.997	-0.122
Mof_C 	C 	0.5431	0.146	0.0342	-0.118
Mof_C 	C 	0.568	0.1751	0.6455	-0.186
Mof_C 	C 	0.503	0.416	0.397	0.484
Mof_C 	C 	0.423	0.587	0.6684	-0.378
Mof_C 	C 	0.7268	0.2043	0.9521	-0.003
Mof_C 	C 	0.6257	0.0692	0.1455	-0.004
Mof_C 	C 	0.1581	0.4948	0.9908	-0.013
Mof_C 	C 	0.4247	0.8125	0.0298	0.113
Mof_C 	C 	0.362	0.8908	0.2468	-0.21
Mof_C 	C 	0.547	0.34	0.2932	0.332
Mof_C 	C 	0.008	0.422	0.5975	0.51
Mof_C 	C 	0.137	0.5644	0.3037	0.145
Mof_C 	C 	0.565	0.9632	0.2819	-0.212
Mof_C 	C 	0.223	0.5631	0.8493	-0.416
Mof_C 	C 	0.33	0.512	0.6891	0.377
Mof_C 	C 	0.937	0.4828	0.0592	-0.121
Mof_C 	C 	0.921	0.736	0.2982	0.158
Mof_C 	C 	0.3446	0.8814	0.9212	-0.008
Mof_C 	C 	0.67	0.488	0.3109	0.377
Mof_C 	C 	0.577	0.413	0.3316	-0.378
Mof_C 	C 	0.432	0.8249	0.3545	-0.186
Mof_C 	C 	0.7062	0.433	0.2145	0.431
Mof_C 	C 	0.777	0.4369	0.1507	-0.416
Mof_C 	C 	0.3743	0.9308	0.8545	-0.004
Mof_C 	C 	0.5753	0.1875	0.9702	0.113
Mof_O 	O 	0.135	0.376	0.5765	-0.484
Mof_O 	O 	0.5318	0.7859	0.0764	-0.178
Mof_O 	O 	0.8	0.5374	0.9005	-0.217
Mof_O 	O 	0.4643	0.2821	0.545	-0.447
Mof_O 	O 	0.5357	0.7179	0.455	-0.447
Mof_O 	O 	0.303	0.689	0.4275	-0.419
Mof_O 	O 	0.2	0.4626	0.0995	-0.217
Mof_O 	O 	0.571	0.4594	0.4345	-0.533
Mof_O 	O 	0.088	0.4929	0.432	-0.551
Mof_O 	O 	0.697	0.311	0.5725	-0.419
Mof_O 	O 	0.398	0.36	0.407	-0.422
Mof_O 	O 	0.429	0.5406	0.5655	-0.533
Mof_O 	O 	0.912	0.5071	0.568	-0.551
Mof_O 	O 	0.602	0.64	0.593	-0.422
Mof_O 	O 	0.4682	0.2141	0.9236	-0.178
Mof_O 	O 	0.0862	0.8939	0.892	-0.181
Mof_O 	O 	0.865	0.624	0.4235	-0.484
Mof_O 	O 	0.9138	0.1061	0.108	-0.181
_end
