data_functionalizedCrystal
_audit_creation_method	'EQeq! by Chris Wilmer'
_symmetry_space_group_name_H-M	'P1'
_symmetry_Int_Tables_number	1
_symmetry_cell_setting	triclinic
loop_
_symmetry_equiv_pos_as_xyz
  x,y,z
_cell_length_a	8.5974
_cell_length_b	10.6546
_cell_length_c	7.6815
_cell_angle_alpha	84.205
_cell_angle_beta	103.475
_cell_angle_gamma	84.9099
loop_
_atom_site_label
_atom_site_type_symbol
_atom_site_fract_x
_atom_site_fract_y
_atom_site_fract_z
_atom_site_charge
Mof_O 	O 	0.10176	0.17366	0.17245	-0.435
Mof_O 	O 	0.63792	0.19367	0.10208	-0.495
Mof_O 	O 	0.88051	0.00085	0.13888	-0.559
Mof_O 	O 	0.85918	0.36648	0.13565	-0.539
Mof_O 	O 	0.91036	0.97707	0.43627	-0.512
Mof_O 	O 	0.66778	0.16988	0.39947	-0.489
Mof_O 	O 	0.13162	0.14987	0.46984	-0.429
Mof_Zn	Zn	0.90444	0.1561	0.48187	1.217
Mof_Zn	Zn	0.8651	0.18744	0.09005	1.214
Mof_O 	O 	0.88904	0.34269	0.43304	-0.514
Mof_C 	C 	0.59346	0.18095	0.24176	0.446
Mof_C 	C 	0.41649	0.17849	0.21491	-0.101
Mof_C 	C 	0.89387	0.94217	0.28733	0.47
Mof_C 	C 	0.88918	0.80276	0.28661	-0.131
Mof_C 	C 	0.87071	0.75023	0.12418	0.041
Mof_C 	C 	0.86629	0.61924	0.12351	0.022
Mof_C 	C 	0.89883	0.59332	0.44774	0.003
Mof_C 	C 	0.90323	0.72431	0.4484	0.01
Mof_C 	C 	0.85665	0.82868	0.96239	-0.05
Mof_C 	C 	0.83818	0.77615	0.79994	0.015
Mof_C 	C 	0.83376	0.64516	0.79928	-0.036
Mof_C 	C 	0.84782	0.5667	0.96107	-0.024
Mof_C 	C 	0.17608	0.16259	0.33015	0.434
Mof_C 	C 	0.35305	0.16506	0.35699	-0.083
Mof_C 	C 	0.87567	0.40137	0.28458	0.449
Mof_C 	C 	0.88036	0.54078	0.28529	-0.12
Mof_N 	N 	0.9313	0.13471	0.74928	-0.272
Mof_N 	N 	0.83826	0.20882	0.82264	-0.223
Mof_H 	H 	0.86025	0.93534	0.96291	0.097
Mof_H 	H 	0.43414	0.15545	0.4992	0.093
Mof_H 	H 	0.0263	0.05907	0.8389	0.143
Mof_H 	H 	0.33541	0.18808	0.07272	0.096
Mof_C 	C 	0.82272	0.86246	0.62198	0.005
Mof_N 	N 	0.81107	0.92746	0.48794	-0.013
Mof_H 	H 	0.91028	0.52943	0.57946	0.033
Mof_H 	H 	0.81871	0.6024	0.667	0.04
Mof_H 	H 	0.8442	0.46004	0.96051	0.088
Mof_H 	H 	0.91824	0.76709	0.58066	0.038
Mof_H 	H 	0.74328	0.28446	0.73304	0.071
_end
