data_functionalizedCrystal
_audit_creation_method	'EQeq! by Chris Wilmer'
_symmetry_space_group_name_H-M	'P1'
_symmetry_Int_Tables_number	1
_symmetry_cell_setting	triclinic
loop_
_symmetry_equiv_pos_as_xyz
  x,y,z
_cell_length_a	22.22
_cell_length_b	22.22
_cell_length_c	22.487
_cell_angle_alpha	90
_cell_angle_beta	90
_cell_angle_gamma	120
loop_
_atom_site_label
_atom_site_type_symbol
_atom_site_fract_x
_atom_site_fract_y
_atom_site_fract_z
_atom_site_charge
Mof_I 	I 	0.39077	0.23829	0.49576	-0.685
Mof_I 	I 	0.56337	0.37383	0.62163	-0.582
Mof_Cu	Cu	0.5229	0.28471	0.53072	0.712
Mof_Cu	Cu	0.42842	0.26793	0.60888	0.716
Mof_N 	N 	0.5819	0.3434	0.4601	-0.174
Mof_N 	N 	0.3756	0.3121	0.6436	-0.184
Mof_C 	C 	0.5702	0.2995	0.4081	-0.056
Mof_H 	H 	0.5222	0.279	0.3953	0.032
Mof_H 	H 	0.5789	0.2621	0.4184	0.032
Mof_C 	C 	0.5629	0.3953	0.4442	-0.063
Mof_H 	H 	0.5725	0.4267	0.4774	0.037
Mof_H 	H 	0.5136	0.3726	0.4357	0.036
Mof_C 	C 	0.6567	0.3805	0.477	-0.076
Mof_H 	H 	0.6718	0.3472	0.4849	0.044
Mof_H 	H 	0.6634	0.4074	0.5129	0.041
Mof_C 	C 	0.2973	0.2629	0.6496	-0.053
Mof_H 	H 	0.289	0.2212	0.6703	-0.006
Mof_H 	H 	0.2767	0.2496	0.6103	0.027
Mof_C 	C 	0.4027	0.3402	0.7044	-0.064
Mof_H 	H 	0.453	0.3672	0.7032	0.034
Mof_H 	H 	0.3895	0.3018	0.7318	0.037
Mof_C 	C 	0.3869	0.3733	0.606	-0.075
Mof_H 	H 	0.3755	0.3588	0.5649	0.039
Mof_H 	H 	0.4353	0.4093	0.6079	0.046
Mof_I 	I 	0.76171	0.15248	0.82909	-0.686
Mof_I 	I 	0.62617	0.18954	0.95496	-0.584
Mof_Cu	Cu	0.71529	0.23819	0.86405	0.711
Mof_Cu	Cu	0.73207	0.16049	0.94221	0.715
Mof_N 	N 	0.6566	0.2385	0.79343	-0.175
Mof_N 	N 	0.6879	0.0635	0.97693	-0.184
Mof_C 	C 	0.7005	0.2707	0.74143	-0.056
Mof_H 	H 	0.721	0.2432	0.72863	0.032
Mof_H 	H 	0.7379	0.3168	0.75173	0.032
Mof_C 	C 	0.6047	0.1676	0.77753	-0.063
Mof_H 	H 	0.5733	0.1458	0.81073	0.037
Mof_H 	H 	0.6274	0.141	0.76903	0.036
Mof_C 	C 	0.6195	0.2762	0.81033	-0.076
Mof_H 	H 	0.6528	0.3246	0.81823	0.044
Mof_H 	H 	0.5926	0.256	0.84623	0.041
Mof_C 	C 	0.7371	0.0344	0.98293	-0.055
Mof_H 	H 	0.7788	0.0678	0.00363	-0.005
Mof_H 	H 	0.7504	0.0271	0.94363	0.027
Mof_C 	C 	0.6598	0.0625	0.03773	-0.063
Mof_H 	H 	0.6328	0.0858	0.03653	0.034
Mof_H 	H 	0.6982	0.0877	0.06513	0.037
Mof_C 	C 	0.6267	0.0136	0.93933	-0.076
Mof_H 	H 	0.6412	0.0167	0.89823	0.04
Mof_H 	H 	0.5907	0.026	0.94123	0.046
Mof_I 	I 	0.84752	0.60923	0.16243	-0.686
Mof_I 	I 	0.81046	0.43663	0.2883	-0.583
Mof_Cu	Cu	0.76181	0.4771	0.19739	0.711
Mof_Cu	Cu	0.83951	0.57158	0.27555	0.715
Mof_N 	N 	0.7615	0.4181	0.12677	-0.175
Mof_N 	N 	0.9365	0.6244	0.31027	-0.184
Mof_C 	C 	0.7293	0.4298	0.07477	-0.056
Mof_H 	H 	0.7568	0.4778	0.06197	0.032
Mof_H 	H 	0.6832	0.4211	0.08507	0.032
Mof_C 	C 	0.8324	0.4371	0.11087	-0.063
Mof_H 	H 	0.8542	0.4275	0.14407	0.037
Mof_H 	H 	0.859	0.4864	0.10237	0.036
Mof_C 	C 	0.7238	0.3433	0.14367	-0.076
Mof_H 	H 	0.6754	0.3282	0.15157	0.044
Mof_H 	H 	0.744	0.3366	0.17957	0.041
Mof_C 	C 	0.9656	0.7027	0.31627	-0.053
Mof_H 	H 	0.9322	0.711	0.33697	-0.006
Mof_H 	H 	0.9729	0.7233	0.27697	0.027
Mof_C 	C 	0.9375	0.5973	0.37107	-0.064
Mof_H 	H 	0.9142	0.547	0.36987	0.034
Mof_H 	H 	0.9123	0.6105	0.39847	0.037
Mof_C 	C 	0.9864	0.6131	0.27267	-0.074
Mof_H 	H 	0.9833	0.6245	0.23157	0.039
Mof_H 	H 	0.974	0.5647	0.27457	0.046
Mof_I 	I 	0.60923	0.76171	0.99576	-0.685
Mof_I 	I 	0.43663	0.62617	0.12163	-0.583
Mof_Cu	Cu	0.4771	0.71529	0.03072	0.711
Mof_Cu	Cu	0.57158	0.73207	0.10888	0.715
Mof_N 	N 	0.4181	0.6566	0.9601	-0.175
Mof_N 	N 	0.6244	0.6879	0.1436	-0.184
Mof_C 	C 	0.4298	0.7005	0.9081	-0.056
Mof_H 	H 	0.4778	0.721	0.8953	0.032
Mof_H 	H 	0.4211	0.7379	0.9184	0.032
Mof_C 	C 	0.4371	0.6047	0.9442	-0.063
Mof_H 	H 	0.4275	0.5733	0.9774	0.037
Mof_H 	H 	0.4864	0.6274	0.9357	0.036
Mof_C 	C 	0.3433	0.6195	0.977	-0.075
Mof_H 	H 	0.3282	0.6528	0.9849	0.043
Mof_H 	H 	0.3366	0.5926	0.0129	0.04
Mof_C 	C 	0.7027	0.7371	0.1496	-0.053
Mof_H 	H 	0.711	0.7788	0.1703	-0.006
Mof_H 	H 	0.7233	0.7504	0.1103	0.027
Mof_C 	C 	0.5973	0.6598	0.2044	-0.064
Mof_H 	H 	0.547	0.6328	0.2032	0.034
Mof_H 	H 	0.6105	0.6982	0.2318	0.037
Mof_C 	C 	0.6131	0.6267	0.106	-0.075
Mof_H 	H 	0.6245	0.6412	0.0649	0.039
Mof_H 	H 	0.5647	0.5907	0.1079	0.046
Mof_I 	I 	0.23829	0.84752	0.32909	-0.686
Mof_I 	I 	0.37383	0.81046	0.45496	-0.583
Mof_Cu	Cu	0.28471	0.76181	0.36405	0.711
Mof_Cu	Cu	0.26793	0.83951	0.44221	0.715
Mof_N 	N 	0.3434	0.7615	0.29343	-0.175
Mof_N 	N 	0.3121	0.9365	0.47693	-0.184
Mof_C 	C 	0.2995	0.7293	0.24143	-0.056
Mof_H 	H 	0.279	0.7568	0.22863	0.032
Mof_H 	H 	0.2621	0.6832	0.25173	0.032
Mof_C 	C 	0.3953	0.8324	0.27753	-0.063
Mof_H 	H 	0.4267	0.8542	0.31073	0.037
Mof_H 	H 	0.3726	0.859	0.26903	0.036
Mof_C 	C 	0.3805	0.7238	0.31033	-0.076
Mof_H 	H 	0.3472	0.6754	0.31823	0.044
Mof_H 	H 	0.4074	0.744	0.34623	0.041
Mof_C 	C 	0.2629	0.9656	0.48293	-0.054
Mof_H 	H 	0.2212	0.9322	0.50363	-0.006
Mof_H 	H 	0.2496	0.9729	0.44363	0.027
Mof_C 	C 	0.3402	0.9375	0.53773	-0.065
Mof_H 	H 	0.3672	0.9142	0.53653	0.034
Mof_H 	H 	0.3018	0.9123	0.56513	0.037
Mof_C 	C 	0.3733	0.9864	0.43933	-0.075
Mof_H 	H 	0.3588	0.9833	0.39823	0.039
Mof_H 	H 	0.4093	0.974	0.44123	0.046
Mof_I 	I 	0.15248	0.39077	0.66243	-0.686
Mof_I 	I 	0.18954	0.56337	0.7883	-0.583
Mof_Cu	Cu	0.23819	0.5229	0.69739	0.711
Mof_Cu	Cu	0.16049	0.42842	0.77555	0.715
Mof_N 	N 	0.2385	0.5819	0.62677	-0.175
Mof_N 	N 	0.0635	0.3756	0.81027	-0.184
Mof_C 	C 	0.2707	0.5702	0.57477	-0.056
Mof_H 	H 	0.2432	0.5222	0.56197	0.032
Mof_H 	H 	0.3168	0.5789	0.58507	0.032
Mof_C 	C 	0.1676	0.5629	0.61087	-0.063
Mof_H 	H 	0.1458	0.5725	0.64407	0.037
Mof_H 	H 	0.141	0.5136	0.60237	0.036
Mof_C 	C 	0.2762	0.6567	0.64367	-0.076
Mof_H 	H 	0.3246	0.6718	0.65157	0.044
Mof_H 	H 	0.256	0.6634	0.67957	0.041
Mof_C 	C 	0.0344	0.2973	0.81627	-0.053
Mof_H 	H 	0.0678	0.289	0.83697	-0.006
Mof_H 	H 	0.0271	0.2767	0.77697	0.027
Mof_C 	C 	0.0625	0.4027	0.87107	-0.064
Mof_H 	H 	0.0858	0.453	0.86987	0.034
Mof_H 	H 	0.0877	0.3895	0.89847	0.037
Mof_C 	C 	0.0136	0.3869	0.77267	-0.074
Mof_H 	H 	0.0167	0.3755	0.73157	0.039
Mof_H 	H 	0.026	0.4353	0.77457	0.046
Mof_I 	I 	0.23829	0.39077	0.83757	-0.686
Mof_I 	I 	0.37383	0.56337	0.7117	-0.583
Mof_Cu	Cu	0.28471	0.5229	0.80261	0.711
Mof_Cu	Cu	0.26793	0.42842	0.72445	0.715
Mof_N 	N 	0.3434	0.5819	0.87323	-0.175
Mof_N 	N 	0.3121	0.3756	0.68973	-0.184
Mof_C 	C 	0.2995	0.5702	0.92523	-0.056
Mof_H 	H 	0.279	0.5222	0.93803	0.032
Mof_H 	H 	0.2621	0.5789	0.91493	0.032
Mof_C 	C 	0.3953	0.5629	0.88913	-0.063
Mof_H 	H 	0.4267	0.5725	0.85593	0.037
Mof_H 	H 	0.3726	0.5136	0.89763	0.036
Mof_C 	C 	0.3805	0.6567	0.85633	-0.076
Mof_H 	H 	0.3472	0.6718	0.84843	0.044
Mof_H 	H 	0.4074	0.6634	0.82043	0.041
Mof_C 	C 	0.2629	0.2973	0.68373	-0.053
Mof_H 	H 	0.2212	0.289	0.66303	-0.006
Mof_H 	H 	0.2496	0.2767	0.72303	0.027
Mof_C 	C 	0.3402	0.4027	0.62893	-0.064
Mof_H 	H 	0.3672	0.453	0.63013	0.034
Mof_H 	H 	0.3018	0.3895	0.60153	0.037
Mof_C 	C 	0.3733	0.3869	0.72733	-0.075
Mof_H 	H 	0.3588	0.3755	0.76843	0.039
Mof_H 	H 	0.4093	0.4353	0.72543	0.046
Mof_I 	I 	0.15248	0.76171	0.50424	-0.686
Mof_I 	I 	0.18954	0.62617	0.37837	-0.583
Mof_Cu	Cu	0.23819	0.71529	0.46928	0.711
Mof_Cu	Cu	0.16049	0.73207	0.39112	0.715
Mof_N 	N 	0.2385	0.6566	0.5399	-0.175
Mof_N 	N 	0.0635	0.6879	0.3564	-0.184
Mof_C 	C 	0.2707	0.7005	0.5919	-0.056
Mof_H 	H 	0.2432	0.721	0.6047	0.032
Mof_H 	H 	0.3168	0.7379	0.5816	0.032
Mof_C 	C 	0.1676	0.6047	0.5558	-0.063
Mof_H 	H 	0.1458	0.5733	0.5226	0.037
Mof_H 	H 	0.141	0.6274	0.5643	0.036
Mof_C 	C 	0.2762	0.6195	0.523	-0.076
Mof_H 	H 	0.3246	0.6528	0.5151	0.044
Mof_H 	H 	0.256	0.5926	0.4871	0.041
Mof_C 	C 	0.0344	0.7371	0.3504	-0.054
Mof_H 	H 	0.0678	0.7788	0.3297	-0.006
Mof_H 	H 	0.0271	0.7504	0.3897	0.027
Mof_C 	C 	0.0625	0.6598	0.2956	-0.065
Mof_H 	H 	0.0858	0.6328	0.2968	0.034
Mof_H 	H 	0.0877	0.6982	0.2682	0.037
Mof_C 	C 	0.0136	0.6267	0.394	-0.075
Mof_H 	H 	0.0167	0.6412	0.4351	0.039
Mof_H 	H 	0.026	0.5907	0.3921	0.046
Mof_I 	I 	0.60923	0.84752	0.17091	-0.686
Mof_I 	I 	0.43663	0.81046	0.04504	-0.584
Mof_Cu	Cu	0.4771	0.76181	0.13595	0.711
Mof_Cu	Cu	0.57158	0.83951	0.05779	0.715
Mof_N 	N 	0.4181	0.7615	0.20657	-0.175
Mof_N 	N 	0.6244	0.9365	0.02307	-0.184
Mof_C 	C 	0.4298	0.7293	0.25857	-0.056
Mof_H 	H 	0.4778	0.7568	0.27137	0.032
Mof_H 	H 	0.4211	0.6832	0.24827	0.032
Mof_C 	C 	0.4371	0.8324	0.22247	-0.063
Mof_H 	H 	0.4275	0.8542	0.18927	0.037
Mof_H 	H 	0.4864	0.859	0.23097	0.036
Mof_C 	C 	0.3433	0.7238	0.18967	-0.076
Mof_H 	H 	0.3282	0.6754	0.18177	0.044
Mof_H 	H 	0.3366	0.744	0.15377	0.041
Mof_C 	C 	0.7027	0.9656	0.01707	-0.054
Mof_H 	H 	0.711	0.9322	0.99637	-0.005
Mof_H 	H 	0.7233	0.9729	0.05637	0.027
Mof_C 	C 	0.5973	0.9375	0.96227	-0.063
Mof_H 	H 	0.547	0.9142	0.96347	0.034
Mof_H 	H 	0.6105	0.9123	0.93487	0.037
Mof_C 	C 	0.6131	0.9864	0.06067	-0.076
Mof_H 	H 	0.6245	0.9833	0.10177	0.04
Mof_H 	H 	0.5647	0.974	0.05877	0.046
Mof_I 	I 	0.76171	0.60923	0.33757	-0.686
Mof_I 	I 	0.62617	0.43663	0.2117	-0.583
Mof_Cu	Cu	0.71529	0.4771	0.30261	0.711
Mof_Cu	Cu	0.73207	0.57158	0.22445	0.715
Mof_N 	N 	0.6566	0.4181	0.37323	-0.175
Mof_N 	N 	0.6879	0.6244	0.18973	-0.184
Mof_C 	C 	0.7005	0.4298	0.42523	-0.056
Mof_H 	H 	0.721	0.4778	0.43803	0.032
Mof_H 	H 	0.7379	0.4211	0.41493	0.032
Mof_C 	C 	0.6047	0.4371	0.38913	-0.063
Mof_H 	H 	0.5733	0.4275	0.35593	0.037
Mof_H 	H 	0.6274	0.4864	0.39763	0.036
Mof_C 	C 	0.6195	0.3433	0.35633	-0.076
Mof_H 	H 	0.6528	0.3282	0.34843	0.044
Mof_H 	H 	0.5926	0.3366	0.32043	0.041
Mof_C 	C 	0.7371	0.7027	0.18373	-0.053
Mof_H 	H 	0.7788	0.711	0.16303	-0.006
Mof_H 	H 	0.7504	0.7233	0.22303	0.027
Mof_C 	C 	0.6598	0.5973	0.12893	-0.064
Mof_H 	H 	0.6328	0.547	0.13013	0.034
Mof_H 	H 	0.6982	0.6105	0.10153	0.037
Mof_C 	C 	0.6267	0.6131	0.22733	-0.075
Mof_H 	H 	0.6412	0.6245	0.26843	0.039
Mof_H 	H 	0.5907	0.5647	0.22543	0.046
Mof_I 	I 	0.84752	0.23829	0.00424	-0.685
Mof_I 	I 	0.81046	0.37383	0.87837	-0.583
Mof_Cu	Cu	0.76181	0.28471	0.96928	0.711
Mof_Cu	Cu	0.83951	0.26793	0.89112	0.715
Mof_N 	N 	0.7615	0.3434	0.0399	-0.175
Mof_N 	N 	0.9365	0.3121	0.8564	-0.184
Mof_C 	C 	0.7293	0.2995	0.0919	-0.056
Mof_H 	H 	0.7568	0.279	0.1047	0.032
Mof_H 	H 	0.6832	0.2621	0.0816	0.032
Mof_C 	C 	0.8324	0.3953	0.0558	-0.063
Mof_H 	H 	0.8542	0.4267	0.0226	0.037
Mof_H 	H 	0.859	0.3726	0.0643	0.036
Mof_C 	C 	0.7238	0.3805	0.023	-0.075
Mof_H 	H 	0.6754	0.3472	0.0151	0.043
Mof_H 	H 	0.744	0.4074	0.9871	0.04
Mof_C 	C 	0.9656	0.2629	0.8504	-0.054
Mof_H 	H 	0.9322	0.2212	0.8297	-0.006
Mof_H 	H 	0.9729	0.2496	0.8897	0.027
Mof_C 	C 	0.9375	0.3402	0.7956	-0.065
Mof_H 	H 	0.9142	0.3672	0.7968	0.034
Mof_H 	H 	0.9123	0.3018	0.7682	0.037
Mof_C 	C 	0.9864	0.3733	0.894	-0.076
Mof_H 	H 	0.9833	0.3588	0.9351	0.039
Mof_H 	H 	0.974	0.4093	0.8921	0.046
Mof_I 	I 	0.39077	0.15248	0.67091	-0.686
Mof_I 	I 	0.56337	0.18954	0.54504	-0.583
Mof_Cu	Cu	0.5229	0.23819	0.63595	0.711
Mof_Cu	Cu	0.42842	0.16049	0.55779	0.715
Mof_N 	N 	0.5819	0.2385	0.70657	-0.175
Mof_N 	N 	0.3756	0.0635	0.52307	-0.184
Mof_C 	C 	0.5702	0.2707	0.75857	-0.056
Mof_H 	H 	0.5222	0.2432	0.77137	0.032
Mof_H 	H 	0.5789	0.3168	0.74827	0.032
Mof_C 	C 	0.5629	0.1676	0.72247	-0.063
Mof_H 	H 	0.5725	0.1458	0.68927	0.037
Mof_H 	H 	0.5136	0.141	0.73097	0.036
Mof_C 	C 	0.6567	0.2762	0.68967	-0.076
Mof_H 	H 	0.6718	0.3246	0.68177	0.044
Mof_H 	H 	0.6634	0.256	0.65377	0.041
Mof_C 	C 	0.2973	0.0344	0.51707	-0.053
Mof_H 	H 	0.289	0.0678	0.49637	-0.006
Mof_H 	H 	0.2767	0.0271	0.55637	0.027
Mof_C 	C 	0.4027	0.0625	0.46227	-0.064
Mof_H 	H 	0.453	0.0858	0.46347	0.034
Mof_H 	H 	0.3895	0.0877	0.43487	0.037
Mof_C 	C 	0.3869	0.0136	0.56067	-0.075
Mof_H 	H 	0.3755	0.0167	0.60177	0.039
Mof_H 	H 	0.4353	0.026	0.55877	0.046
Mof_Cu	Cu	0.85862	0.77425	0.39303	0.827
Mof_N 	N 	0.8011	0.7927	0.3433	-0.265
Mof_N 	N 	0.7678	0.8504	0.2834	-0.273
Mof_C 	C 	0.8889	0.875	0.2736	-0.12
Mof_C 	C 	0.9257	0.9491	0.2725	-0.022
Mof_H 	H 	0.9043	0.9728	0.2871	-0.011
Mof_C 	C 	0.8176	0.839	0.2997	0.103
Mof_C 	C 	0.7323	0.7727	0.3562	0.035
Mof_C 	C 	0.712	0.8082	0.3194	0.046
Mof_C 	C 	0.6446	0.8001	0.3241	-0.115
Mof_H 	H 	0.6315	0.8257	0.3	0.057
Mof_C 	C 	0.5981	0.7524	0.366	-0.024
Mof_H 	H 	0.5531	0.7446	0.3695	0.034
Mof_C 	C 	0.6215	0.717	0.4022	-0.026
Mof_H 	H 	0.5909	0.6868	0.4306	0.036
Mof_C 	C 	0.6871	0.7239	0.3989	-0.102
Mof_H 	H 	0.7004	0.6983	0.4228	0.045
Mof_Cu	Cu	0.22575	0.08437	0.72636	0.827
Mof_N 	N 	0.2073	0.0084	0.67663	-0.265
Mof_N 	N 	0.1496	0.9174	0.61673	-0.273
Mof_C 	C 	0.125	0.0139	0.60693	-0.121
Mof_C 	C 	0.0509	0.9766	0.60583	-0.021
Mof_H 	H 	0.0272	0.9315	0.62043	-0.011
Mof_C 	C 	0.161	0.9786	0.63303	0.103
Mof_C 	C 	0.2273	0.9596	0.68953	0.035
Mof_C 	C 	0.1918	0.9038	0.65273	0.046
Mof_C 	C 	0.1999	0.8445	0.65743	-0.115
Mof_H 	H 	0.1743	0.8058	0.63333	0.057
Mof_C 	C 	0.2476	0.8457	0.69933	-0.023
Mof_H 	H 	0.2554	0.8085	0.70283	0.034
Mof_C 	C 	0.283	0.9045	0.73553	-0.027
Mof_H 	H 	0.3132	0.9041	0.76393	0.036
Mof_C 	C 	0.2761	0.9632	0.73223	-0.102
Mof_H 	H 	0.3017	0.0021	0.75613	0.044
Mof_Cu	Cu	0.91563	0.14138	0.0597	0.827
Mof_N 	N 	0.9916	0.1989	0.00997	-0.265
Mof_N 	N 	0.0826	0.2322	0.95007	-0.274
Mof_C 	C 	0.9861	0.1111	0.94027	-0.127
Mof_C 	C 	0.0234	0.0743	0.93917	-0.013
Mof_H 	H 	0.0685	0.0957	0.95377	-0.013
Mof_C 	C 	0.0214	0.1824	0.96637	0.105
Mof_C 	C 	0.0404	0.2677	0.02287	0.035
Mof_C 	C 	0.0962	0.288	0.98607	0.046
Mof_C 	C 	0.1555	0.3554	0.99077	-0.114
Mof_H 	H 	0.1942	0.3685	0.96667	0.056
Mof_C 	C 	0.1543	0.4019	0.03267	-0.025
Mof_H 	H 	0.1915	0.4469	0.03617	0.035
Mof_C 	C 	0.0955	0.3785	0.06887	-0.025
Mof_H 	H 	0.0959	0.4091	0.09727	0.035
Mof_C 	C 	0.0368	0.3129	0.06557	-0.104
Mof_H 	H 	0.9979	0.2996	0.08947	0.045
Mof_Cu	Cu	0.14138	0.22575	0.89303	0.827
Mof_N 	N 	0.1989	0.2073	0.8433	-0.265
Mof_N 	N 	0.2322	0.1496	0.7834	-0.273
Mof_C 	C 	0.1111	0.125	0.7736	-0.121
Mof_C 	C 	0.0743	0.0509	0.7725	-0.021
Mof_H 	H 	0.0957	0.0272	0.7871	-0.011
Mof_C 	C 	0.1824	0.161	0.7997	0.103
Mof_C 	C 	0.2677	0.2273	0.8562	0.035
Mof_C 	C 	0.288	0.1918	0.8194	0.046
Mof_C 	C 	0.3554	0.1999	0.8241	-0.115
Mof_H 	H 	0.3685	0.1743	0.8	0.057
Mof_C 	C 	0.4019	0.2476	0.866	-0.024
Mof_H 	H 	0.4469	0.2554	0.8695	0.034
Mof_C 	C 	0.3785	0.283	0.9022	-0.026
Mof_H 	H 	0.4091	0.3132	0.9306	0.036
Mof_C 	C 	0.3129	0.2761	0.8989	-0.102
Mof_H 	H 	0.2996	0.3017	0.9228	0.045
Mof_Cu	Cu	0.77425	0.91563	0.22636	0.827
Mof_N 	N 	0.7927	0.9916	0.17663	-0.266
Mof_N 	N 	0.8504	0.0826	0.11673	-0.274
Mof_C 	C 	0.875	0.9861	0.10693	-0.124
Mof_C 	C 	0.9491	0.0234	0.10583	-0.018
Mof_H 	H 	0.9728	0.0685	0.12043	-0.012
Mof_C 	C 	0.839	0.0214	0.13303	0.105
Mof_C 	C 	0.7727	0.0404	0.18953	0.035
Mof_C 	C 	0.8082	0.0962	0.15273	0.046
Mof_C 	C 	0.8001	0.1555	0.15743	-0.115
Mof_H 	H 	0.8257	0.1942	0.13333	0.057
Mof_C 	C 	0.7524	0.1543	0.19933	-0.023
Mof_H 	H 	0.7446	0.1915	0.20283	0.034
Mof_C 	C 	0.717	0.0955	0.23553	-0.027
Mof_H 	H 	0.6868	0.0959	0.26393	0.036
Mof_C 	C 	0.7239	0.0368	0.23223	-0.102
Mof_H 	H 	0.6983	0.9979	0.25613	0.044
Mof_Cu	Cu	0.08437	0.85862	0.5597	0.827
Mof_N 	N 	0.0084	0.8011	0.50997	-0.266
Mof_N 	N 	0.9174	0.7678	0.45007	-0.274
Mof_C 	C 	0.0139	0.8889	0.44027	-0.124
Mof_C 	C 	0.9766	0.9257	0.43917	-0.017
Mof_H 	H 	0.9315	0.9043	0.45377	-0.012
Mof_C 	C 	0.9786	0.8176	0.46637	0.105
Mof_C 	C 	0.9596	0.7323	0.52287	0.035
Mof_C 	C 	0.9038	0.712	0.48607	0.046
Mof_C 	C 	0.8445	0.6446	0.49077	-0.115
Mof_H 	H 	0.8058	0.6315	0.46667	0.057
Mof_C 	C 	0.8457	0.5981	0.53267	-0.024
Mof_H 	H 	0.8085	0.5531	0.53617	0.034
Mof_C 	C 	0.9045	0.6215	0.56887	-0.026
Mof_H 	H 	0.9041	0.5909	0.59727	0.036
Mof_C 	C 	0.9632	0.6871	0.56557	-0.102
Mof_H 	H 	0.0021	0.7004	0.58947	0.045
Mof_Cu	Cu	0.77425	0.85862	0.9403	0.827
Mof_N 	N 	0.7927	0.8011	0.99003	-0.265
Mof_N 	N 	0.8504	0.7678	0.04993	-0.273
Mof_C 	C 	0.875	0.8889	0.05973	-0.123
Mof_C 	C 	0.9491	0.9257	0.06083	-0.019
Mof_H 	H 	0.9728	0.9043	0.04623	-0.012
Mof_C 	C 	0.839	0.8176	0.03363	0.104
Mof_C 	C 	0.7727	0.7323	0.97713	0.036
Mof_C 	C 	0.8082	0.712	0.01393	0.046
Mof_C 	C 	0.8001	0.6446	0.00923	-0.115
Mof_H 	H 	0.8257	0.6315	0.03333	0.057
Mof_C 	C 	0.7524	0.5981	0.96733	-0.024
Mof_H 	H 	0.7446	0.5531	0.96383	0.034
Mof_C 	C 	0.717	0.6215	0.93113	-0.026
Mof_H 	H 	0.6868	0.5909	0.90273	0.036
Mof_C 	C 	0.7239	0.6871	0.93443	-0.103
Mof_H 	H 	0.6983	0.7004	0.91053	0.045
Mof_Cu	Cu	0.08437	0.22575	0.60697	0.827
Mof_N 	N 	0.0084	0.2073	0.6567	-0.265
Mof_N 	N 	0.9174	0.1496	0.7166	-0.273
Mof_C 	C 	0.0139	0.125	0.7264	-0.12
Mof_C 	C 	0.9766	0.0509	0.7275	-0.022
Mof_H 	H 	0.9315	0.0272	0.7129	-0.01
Mof_C 	C 	0.9786	0.161	0.7003	0.102
Mof_C 	C 	0.9596	0.2273	0.6438	0.035
Mof_C 	C 	0.9038	0.1918	0.6806	0.046
Mof_C 	C 	0.8445	0.1999	0.6759	-0.115
Mof_H 	H 	0.8058	0.1743	0.7	0.057
Mof_C 	C 	0.8457	0.2476	0.634	-0.024
Mof_H 	H 	0.8085	0.2554	0.6305	0.034
Mof_C 	C 	0.9045	0.283	0.5978	-0.026
Mof_H 	H 	0.9041	0.3132	0.5694	0.036
Mof_C 	C 	0.9632	0.2761	0.6011	-0.103
Mof_H 	H 	0.0021	0.3017	0.5772	0.045
Mof_Cu	Cu	0.14138	0.91563	0.27364	0.827
Mof_N 	N 	0.1989	0.9916	0.32337	-0.266
Mof_N 	N 	0.2322	0.0826	0.38327	-0.274
Mof_C 	C 	0.1111	0.9861	0.39307	-0.124
Mof_C 	C 	0.0743	0.0234	0.39417	-0.017
Mof_H 	H 	0.0957	0.0685	0.37957	-0.012
Mof_C 	C 	0.1824	0.0214	0.36697	0.105
Mof_C 	C 	0.2677	0.0404	0.31047	0.035
Mof_C 	C 	0.288	0.0962	0.34727	0.046
Mof_C 	C 	0.3554	0.1555	0.34257	-0.115
Mof_H 	H 	0.3685	0.1942	0.36667	0.057
Mof_C 	C 	0.4019	0.1543	0.30067	-0.023
Mof_H 	H 	0.4469	0.1915	0.29717	0.034
Mof_C 	C 	0.3785	0.0955	0.26447	-0.027
Mof_H 	H 	0.4091	0.0959	0.23607	0.036
Mof_C 	C 	0.3129	0.0368	0.26777	-0.101
Mof_H 	H 	0.2996	0.9979	0.24387	0.044
Mof_Cu	Cu	0.22575	0.14138	0.4403	0.827
Mof_N 	N 	0.2073	0.1989	0.49003	-0.265
Mof_N 	N 	0.1496	0.2322	0.54993	-0.273
Mof_C 	C 	0.125	0.1111	0.55973	-0.121
Mof_C 	C 	0.0509	0.0743	0.56083	-0.02
Mof_H 	H 	0.0272	0.0957	0.54623	-0.011
Mof_C 	C 	0.161	0.1824	0.53363	0.103
Mof_C 	C 	0.2273	0.2677	0.47713	0.035
Mof_C 	C 	0.1918	0.288	0.51393	0.046
Mof_C 	C 	0.1999	0.3554	0.50923	-0.115
Mof_H 	H 	0.1743	0.3685	0.53333	0.057
Mof_C 	C 	0.2476	0.4019	0.46733	-0.024
Mof_H 	H 	0.2554	0.4469	0.46383	0.034
Mof_C 	C 	0.283	0.3785	0.43113	-0.026
Mof_H 	H 	0.3132	0.4091	0.40273	0.036
Mof_C 	C 	0.2761	0.3129	0.43443	-0.102
Mof_H 	H 	0.3017	0.2996	0.41053	0.045
Mof_Cu	Cu	0.91563	0.77425	0.10697	0.827
Mof_N 	N 	0.9916	0.7927	0.1567	-0.265
Mof_N 	N 	0.0826	0.8504	0.2166	-0.273
Mof_C 	C 	0.9861	0.875	0.2264	-0.119
Mof_C 	C 	0.0234	0.9491	0.2275	-0.023
Mof_H 	H 	0.0685	0.9728	0.2129	-0.01
Mof_C 	C 	0.0214	0.839	0.2003	0.102
Mof_C 	C 	0.0404	0.7727	0.1438	0.035
Mof_C 	C 	0.0962	0.8082	0.1806	0.046
Mof_C 	C 	0.1555	0.8001	0.1759	-0.114
Mof_H 	H 	0.1942	0.8257	0.2	0.056
Mof_C 	C 	0.1543	0.7524	0.134	-0.024
Mof_H 	H 	0.1915	0.7446	0.1305	0.035
Mof_C 	C 	0.0955	0.717	0.0978	-0.025
Mof_H 	H 	0.0959	0.6868	0.0694	0.035
Mof_C 	C 	0.0368	0.7239	0.1011	-0.104
Mof_H 	H 	0.9979	0.6983	0.0772	0.046
Mof_Cu	Cu	0.85862	0.08437	0.77364	0.827
Mof_N 	N 	0.8011	0.0084	0.82337	-0.266
Mof_N 	N 	0.7678	0.9174	0.88327	-0.274
Mof_C 	C 	0.8889	0.0139	0.89307	-0.127
Mof_C 	C 	0.9257	0.9766	0.89417	-0.013
Mof_H 	H 	0.9043	0.9315	0.87957	-0.013
Mof_C 	C 	0.8176	0.9786	0.86697	0.106
Mof_C 	C 	0.7323	0.9596	0.81047	0.035
Mof_C 	C 	0.712	0.9038	0.84727	0.046
Mof_C 	C 	0.6446	0.8445	0.84257	-0.115
Mof_H 	H 	0.6315	0.8058	0.86667	0.057
Mof_C 	C 	0.5981	0.8457	0.80067	-0.023
Mof_H 	H 	0.5531	0.8085	0.79717	0.034
Mof_C 	C 	0.6215	0.9045	0.76447	-0.027
Mof_H 	H 	0.5909	0.9041	0.73607	0.036
Mof_C 	C 	0.6871	0.9632	0.76777	-0.102
Mof_H 	H 	0.7004	0.0021	0.74387	0.044
Mof_C 	C 	0.9935	0.987	0.25	-0.083
Mof_H 	H 	0.0177	0.0354	0.25	0.041
Mof_C 	C 	0.92165	0.8433	0.25	-0.008
Mof_H 	H 	0.8975	0.795	0.25	-0.018
Mof_C 	C 	0.013	0.0065	0.58333	-0.085
Mof_H 	H 	0.9646	0.9823	0.58333	0.042
Mof_C 	C 	0.1567	0.07835	0.58333	-0.006
Mof_H 	H 	0.205	0.1025	0.58333	-0.019
Mof_C 	C 	0.9935	0.0065	0.91667	-0.095
Mof_H 	H 	0.0177	0.9823	0.91667	0.046
Mof_C 	C 	0.92165	0.07835	0.91667	-0.001
Mof_H 	H 	0.8975	0.1025	0.91667	-0.021
Mof_C 	C 	0.0065	0.013	0.75	-0.084
Mof_H 	H 	0.9823	0.9646	0.75	0.042
Mof_C 	C 	0.07835	0.1567	0.75	-0.007
Mof_H 	H 	0.1025	0.205	0.75	-0.019
Mof_C 	C 	0.987	0.9935	0.08333	-0.088
Mof_H 	H 	0.0354	0.0177	0.08333	0.043
Mof_C 	C 	0.8433	0.92165	0.08333	-0.005
Mof_H 	H 	0.795	0.8975	0.08333	-0.02
Mof_C 	C 	0.0065	0.9935	0.41667	-0.09
Mof_H 	H 	0.9823	0.0177	0.41667	0.044
Mof_C 	C 	0.07835	0.92165	0.41667	-0.004
Mof_H 	H 	0.1025	0.8975	0.41667	-0.02
_end
