data_functionalizedCrystal
_audit_creation_method	'EQeq! by Chris Wilmer'
_symmetry_space_group_name_H-M	'P1'
_symmetry_Int_Tables_number	1
_symmetry_cell_setting	triclinic
loop_
_symmetry_equiv_pos_as_xyz
  x,y,z
_cell_length_a	16.8289
_cell_length_b	16.9625
_cell_length_c	17.0341
_cell_angle_alpha	94.812
_cell_angle_beta	95.549
_cell_angle_gamma	91.609
loop_
_atom_site_label
_atom_site_type_symbol
_atom_site_fract_x
_atom_site_fract_y
_atom_site_fract_z
_atom_site_charge
Mof_Zn	Zn	0.32934	0.23404	0.21228	1.211
Mof_Zn	Zn	0.18474	0.35198	0.2289	1.17
Mof_Zn	Zn	0.34782	0.36496	0.35456	1.216
Mof_Zn	Zn	0.22972	0.22488	0.35457	1.21
Mof_O 	O 	0.27379	0.29606	0.28625	-0.957
Mof_O 	O 	0.3589	0.46897	0.31675	-0.483
Mof_O 	O 	0.32541	0.37876	0.4658	-0.483
Mof_O 	O 	0.23342	0.36225	0.12163	-0.503
Mof_O 	O 	0.27213	0.11976	0.33289	-0.51
Mof_O 	O 	0.2289	0.46401	0.2757	-0.489
Mof_O 	O 	0.45349	0.31764	0.35955	-0.495
Mof_O 	O 	0.74524	0.3121	0.46063	-0.156
Mof_O 	O 	0.4112	0.3019	0.83753	-0.157
Mof_O 	O 	0.31902	0.2653	0.10674	-0.504
Mof_O 	O 	0.2725	0.25639	0.46427	-0.495
Mof_O 	O 	0.11656	0.2079	0.36	-0.475
Mof_O 	O 	0.44563	0.2448	0.24263	-0.491
Mof_O 	O 	0.3112	0.11931	0.21151	-0.497
Mof_O 	O 	0.44393	0.75567	0.3099	-0.157
Mof_O 	O 	0.11418	0.3331	0.3337	-0.471
Mof_O 	O 	0.1731	0.74605	0.2149	-0.167
Mof_O 	O 	0.81803	0.38847	0.302	-0.165
Mof_O 	O 	0.82359	0.12713	0.3661	-0.174
Mof_O 	O 	0.3541	0.46674	0.76252	-0.16
Mof_O 	O 	0.3531	0.82765	0.13773	-0.176
Mof_O 	O 	0.735	0.1973	0.20247	-0.166
Mof_C 	C 	0.2381	0.7026	0.2414	0.142
Mof_C 	C 	0.6137	0.2934	0.3866	-0.126
Mof_H 	H 	0.588	0.3146	0.429	0.087
Mof_C 	C 	0.329	0.8752	0.2	0.153
Mof_C 	C 	0.482	0.2766	0.3047	0.358
Mof_C 	C 	0.2952	0.4991	0.2888	0.353
Mof_C 	C 	0.3199	0.4064	0.7122	0.143
Mof_C 	C 	0.8657	0.3285	0.32	0.154
Mof_C 	C 	0.6084	0.2326	0.2525	-0.128
Mof_H 	H 	0.5787	0.2128	0.2057	0.088
Mof_C 	C 	0.2156	0.3685	0.8734	0.146
Mof_C 	C 	0.7363	0.2562	0.3308	-0.044
Mof_C 	C 	0.301	0.5857	0.2757	-0.014
Mof_C 	C 	0.5707	0.2668	0.3158	-0.011
Mof_C 	C 	0.3736	0.6278	0.2956	-0.13
Mof_H 	H 	0.4192	0.602	0.3127	0.089
Mof_C 	C 	0.2796	0.334	0.9964	-0.019
Mof_C 	C 	0.3487	0.3219	0.88	0.144
Mof_C 	C 	0.3082	0.7473	0.262	-0.043
Mof_C 	C 	0.2141	0.3624	0.9549	-0.119
Mof_H 	H 	0.1696	0.3772	0.9802	0.07
Mof_C 	C 	0.3482	0.3136	0.9599	-0.119
Mof_H 	H 	0.3924	0.2949	0.9888	0.084
Mof_C 	C 	0.825	0.2587	0.3355	-0.048
Mof_C 	C 	0.8691	0.1934	0.3532	0.15
Mof_C 	C 	0.3097	0.8345	0.2638	-0.047
Mof_C 	C 	0.9486	0.3324	0.3244	-0.142
Mof_H 	H 	0.9758	0.3787	0.3152	0.078
Mof_C 	C 	0.2767	0.3202	0.0816	0.36
Mof_C 	C 	0.2817	0.3487	0.8356	-0.043
Mof_C 	C 	0.08	0.4102	0.8605	-0.17
Mof_H 	H 	0.0405	0.4257	0.8208	0.074
Mof_H 	H 	0.0907	0.4527	0.9014	0.072
Mof_H 	H 	0.0605	0.3642	0.8828	0.075
Mof_C 	C 	0.2808	0.3472	0.7482	-0.049
Mof_C 	C 	0.8559	0.4567	0.2771	-0.231
Mof_H 	H 	0.8168	0.4957	0.2669	0.127
Mof_H 	H 	0.8805	0.4425	0.2296	0.101
Mof_H 	H 	0.8959	0.4781	0.3179	0.106
Mof_C 	C 	0.6911	0.2288	0.2607	0.147
Mof_C 	C 	0.3766	0.7086	0.2892	0.14
Mof_C 	C 	0.2328	0.6221	0.248	-0.126
Mof_H 	H 	0.1849	0.5933	0.2342	0.078
Mof_C 	C 	0.0998	0.7045	0.1927	-0.186
Mof_H 	H 	0.06	0.7409	0.1764	0.091
Mof_H 	H 	0.0835	0.6788	0.2369	0.088
Mof_H 	H 	0.1057	0.6655	0.1496	0.081
Mof_C 	C 	0.6968	0.2879	0.3933	0.142
Mof_C 	C 	0.5143	0.7191	0.3406	-0.253
Mof_H 	H 	0.5569	0.7583	0.3527	0.125
Mof_H 	H 	0.5292	0.6793	0.3019	0.125
Mof_H 	H 	0.504	0.6951	0.3879	0.111
Mof_C 	C 	0.7071	0.3418	0.529	-0.256
Mof_H 	H 	0.7471	0.3576	0.5719	0.127
Mof_H 	H 	0.6726	0.301	0.5444	0.125
Mof_H 	H 	0.6762	0.3865	0.5162	0.113
Mof_C 	C 	0.8661	0.0579	0.3805	-0.189
Mof_H 	H 	0.8292	0.0161	0.3895	0.088
Mof_H 	H 	0.9039	0.0686	0.4263	0.083
Mof_H 	H 	0.8938	0.042	0.3354	0.087
Mof_C 	C 	0.3872	0.5333	0.7282	-0.243
Mof_H 	H 	0.4097	0.5716	0.7696	0.117
Mof_H 	H 	0.3458	0.5568	0.6961	0.121
Mof_H 	H 	0.4282	0.5158	0.696	0.107
Mof_C 	C 	0.3767	0.867	0.0725	-0.191
Mof_H 	H 	0.3917	0.8285	0.0325	0.086
Mof_H 	H 	0.4213	0.9027	0.0902	0.087
Mof_H 	H 	0.3329	0.8962	0.051	0.086
Mof_C 	C 	0.4793	0.2696	0.8795	-0.26
Mof_H 	H 	0.5187	0.2575	0.8436	0.138
Mof_H 	H 	0.463	0.2222	0.9016	0.115
Mof_H 	H 	0.5016	0.3076	0.9213	0.116
Mof_C 	C 	0.6905	0.1681	0.1296	-0.205
Mof_H 	H 	0.7264	0.1483	0.0928	0.097
Mof_H 	H 	0.661	0.2102	0.1079	0.092
Mof_H 	H 	0.654	0.1262	0.1391	0.093
Mof_O 	O 	0.15212	0.3922	0.82515	-0.18
Mof_C 	C 	0.9899	0.2659	0.3428	-0.002
Mof_C 	C 	0.0791	0.2692	0.3453	0.299
Mof_C 	C 	0.9517	0.1964	0.3576	-0.139
Mof_H 	H 	0.9808	0.1527	0.3703	0.09
Mof_C 	C 	0.3234	0.3996	0.6299	-0.13
Mof_H 	H 	0.3487	0.4392	0.6057	0.088
Mof_C 	C 	0.2893	0.334	0.5855	-0.008
Mof_C 	C 	0.296	0.3227	0.4983	0.353
Mof_C 	C 	0.2483	0.2756	0.6194	-0.132
Mof_H 	H 	0.2242	0.2321	0.5883	0.089
Mof_C 	C 	0.244	0.2832	0.701	0.151
Mof_O 	O 	0.2059	0.2289	0.74016	-0.168
Mof_C 	C 	0.1611	0.1672	0.6914	-0.204
Mof_H 	H 	0.1355	0.133	0.7242	0.097
Mof_H 	H 	0.1964	0.1372	0.6605	0.092
Mof_H 	H 	0.1213	0.1899	0.6567	0.095
Mof_C 	C 	0.284	0.8781	0.33	0.153
Mof_O 	O 	0.2663	0.83396	0.3894	-0.161
Mof_C 	C 	0.2805	0.9594	0.3331	-0.134
Mof_H 	H 	0.2652	0.9882	0.3777	0.091
Mof_C 	C 	0.3246	0.9563	0.2019	-0.135
Mof_H 	H 	0.3379	0.9829	0.1591	0.09
Mof_C 	C 	0.3004	0.9974	0.2676	-0.003
Mof_C 	C 	0.2931	0.0861	0.2716	0.356
Mof_C 	C 	0.2365	0.875	0.457	-0.251
Mof_H 	H 	0.2262	0.838	0.4948	0.135
Mof_H 	H 	0.1879	0.9001	0.4406	0.111
Mof_H 	H 	0.2755	0.9145	0.4808	0.115
Mof_Zn	Zn	0.67066	0.76596	0.78772	1.21
Mof_Zn	Zn	0.81526	0.64802	0.7711	1.169
Mof_Zn	Zn	0.65218	0.63504	0.64544	1.215
Mof_Zn	Zn	0.77028	0.77512	0.64543	1.209
Mof_O 	O 	0.72621	0.70394	0.71375	-0.957
Mof_O 	O 	0.6411	0.53103	0.68325	-0.483
Mof_O 	O 	0.67459	0.62124	0.5342	-0.483
Mof_O 	O 	0.76658	0.63775	0.87837	-0.503
Mof_O 	O 	0.72787	0.88024	0.66711	-0.51
Mof_O 	O 	0.7711	0.53599	0.7243	-0.489
Mof_O 	O 	0.54651	0.68236	0.64045	-0.495
Mof_O 	O 	0.25476	0.6879	0.53937	-0.156
Mof_O 	O 	0.5888	0.6981	0.16247	-0.157
Mof_O 	O 	0.68098	0.7347	0.89326	-0.504
Mof_O 	O 	0.7275	0.74361	0.53573	-0.495
Mof_O 	O 	0.88344	0.7921	0.64	-0.475
Mof_O 	O 	0.55437	0.7552	0.75737	-0.491
Mof_O 	O 	0.6888	0.88069	0.78849	-0.497
Mof_O 	O 	0.55607	0.24433	0.6901	-0.157
Mof_O 	O 	0.88582	0.6669	0.6663	-0.471
Mof_O 	O 	0.8269	0.25395	0.7851	-0.167
Mof_O 	O 	0.18197	0.61153	0.698	-0.165
Mof_O 	O 	0.17641	0.87287	0.6339	-0.174
Mof_O 	O 	0.6459	0.53326	0.23748	-0.16
Mof_O 	O 	0.6469	0.17235	0.86227	-0.176
Mof_O 	O 	0.265	0.8027	0.79753	-0.166
Mof_C 	C 	0.7619	0.2974	0.7586	0.142
Mof_C 	C 	0.3863	0.7066	0.6134	-0.126
Mof_H 	H 	0.412	0.6854	0.571	0.087
Mof_C 	C 	0.671	0.1248	0.8	0.153
Mof_C 	C 	0.518	0.7234	0.6953	0.358
Mof_C 	C 	0.7048	0.5009	0.7112	0.353
Mof_C 	C 	0.6801	0.5936	0.2878	0.143
Mof_C 	C 	0.1343	0.6715	0.68	0.154
Mof_C 	C 	0.3916	0.7674	0.7475	-0.128
Mof_H 	H 	0.4213	0.7872	0.7943	0.088
Mof_C 	C 	0.7844	0.6315	0.1266	0.146
Mof_C 	C 	0.2637	0.7438	0.6692	-0.044
Mof_C 	C 	0.699	0.4143	0.7243	-0.014
Mof_C 	C 	0.4293	0.7332	0.6842	-0.011
Mof_C 	C 	0.6264	0.3722	0.7044	-0.13
Mof_H 	H 	0.5808	0.398	0.6873	0.089
Mof_C 	C 	0.7204	0.666	0.0036	-0.019
Mof_C 	C 	0.6513	0.6781	0.12	0.144
Mof_C 	C 	0.6918	0.2527	0.738	-0.043
Mof_C 	C 	0.7859	0.6376	0.0451	-0.119
Mof_H 	H 	0.8304	0.6228	0.0198	0.07
Mof_C 	C 	0.6518	0.6864	0.0401	-0.119
Mof_H 	H 	0.6076	0.7051	0.0112	0.084
Mof_C 	C 	0.175	0.7413	0.6645	-0.048
Mof_C 	C 	0.1309	0.8066	0.6468	0.15
Mof_C 	C 	0.6903	0.1655	0.7362	-0.047
Mof_C 	C 	0.0514	0.6676	0.6756	-0.142
Mof_H 	H 	0.0242	0.6213	0.6848	0.078
Mof_C 	C 	0.7233	0.6798	0.9184	0.36
Mof_C 	C 	0.7183	0.6513	0.1644	-0.043
Mof_C 	C 	0.92	0.5898	0.1395	-0.17
Mof_H 	H 	0.9595	0.5743	0.1792	0.074
Mof_H 	H 	0.9093	0.5473	0.0986	0.072
Mof_H 	H 	0.9395	0.6358	0.1172	0.075
Mof_C 	C 	0.7192	0.6528	0.2518	-0.049
Mof_C 	C 	0.1441	0.5433	0.7229	-0.231
Mof_H 	H 	0.1832	0.5043	0.7331	0.127
Mof_H 	H 	0.1195	0.5575	0.7704	0.101
Mof_H 	H 	0.1041	0.5219	0.6821	0.106
Mof_C 	C 	0.3089	0.7712	0.7393	0.147
Mof_C 	C 	0.6234	0.2914	0.7108	0.14
Mof_C 	C 	0.7672	0.3779	0.752	-0.126
Mof_H 	H 	0.8151	0.4067	0.7658	0.078
Mof_C 	C 	0.9002	0.2955	0.8073	-0.186
Mof_H 	H 	0.94	0.2591	0.8236	0.091
Mof_H 	H 	0.9165	0.3212	0.7631	0.088
Mof_H 	H 	0.8943	0.3345	0.8504	0.081
Mof_C 	C 	0.3032	0.7121	0.6067	0.142
Mof_C 	C 	0.4857	0.2809	0.6594	-0.253
Mof_H 	H 	0.4431	0.2417	0.6473	0.125
Mof_H 	H 	0.4708	0.3207	0.6981	0.125
Mof_H 	H 	0.496	0.3049	0.6121	0.111
Mof_C 	C 	0.2929	0.6582	0.471	-0.256
Mof_H 	H 	0.2529	0.6424	0.4281	0.127
Mof_H 	H 	0.3274	0.699	0.4556	0.125
Mof_H 	H 	0.3238	0.6135	0.4838	0.113
Mof_C 	C 	0.1339	0.9421	0.6195	-0.189
Mof_H 	H 	0.1708	0.9839	0.6105	0.088
Mof_H 	H 	0.0961	0.9314	0.5737	0.083
Mof_H 	H 	0.1062	0.958	0.6646	0.087
Mof_C 	C 	0.6128	0.4667	0.2718	-0.243
Mof_H 	H 	0.5903	0.4284	0.2304	0.117
Mof_H 	H 	0.6542	0.4432	0.3039	0.121
Mof_H 	H 	0.5718	0.4842	0.304	0.107
Mof_C 	C 	0.6233	0.133	0.9275	-0.191
Mof_H 	H 	0.6083	0.1715	0.9675	0.086
Mof_H 	H 	0.5787	0.0973	0.9098	0.087
Mof_H 	H 	0.6671	0.1038	0.949	0.086
Mof_C 	C 	0.5207	0.7304	0.1205	-0.26
Mof_H 	H 	0.4813	0.7425	0.1564	0.138
Mof_H 	H 	0.537	0.7778	0.0984	0.115
Mof_H 	H 	0.4984	0.6924	0.0787	0.116
Mof_C 	C 	0.3095	0.8319	0.8704	-0.205
Mof_H 	H 	0.2736	0.8517	0.9072	0.097
Mof_H 	H 	0.339	0.7898	0.8921	0.092
Mof_H 	H 	0.346	0.8738	0.8609	0.093
Mof_O 	O 	0.84788	0.6078	0.17485	-0.18
Mof_C 	C 	0.0101	0.7341	0.6572	-0.002
Mof_C 	C 	0.9209	0.7308	0.6547	0.299
Mof_C 	C 	0.0483	0.8036	0.6424	-0.139
Mof_H 	H 	0.0192	0.8473	0.6297	0.09
Mof_C 	C 	0.6766	0.6004	0.3701	-0.13
Mof_H 	H 	0.6513	0.5608	0.3943	0.088
Mof_C 	C 	0.7107	0.666	0.4145	-0.008
Mof_C 	C 	0.704	0.6773	0.5017	0.353
Mof_C 	C 	0.7517	0.7244	0.3806	-0.132
Mof_H 	H 	0.7758	0.7679	0.4117	0.089
Mof_C 	C 	0.756	0.7168	0.299	0.151
Mof_O 	O 	0.7941	0.7711	0.25984	-0.168
Mof_C 	C 	0.8389	0.8328	0.3086	-0.204
Mof_H 	H 	0.8645	0.867	0.2758	0.097
Mof_H 	H 	0.8036	0.8628	0.3395	0.092
Mof_H 	H 	0.8787	0.8101	0.3433	0.095
Mof_C 	C 	0.716	0.1219	0.67	0.153
Mof_O 	O 	0.7337	0.16604	0.6106	-0.161
Mof_C 	C 	0.7195	0.0406	0.6669	-0.134
Mof_H 	H 	0.7348	0.0118	0.6223	0.091
Mof_C 	C 	0.6754	0.0437	0.7981	-0.135
Mof_H 	H 	0.6621	0.0171	0.8409	0.09
Mof_C 	C 	0.6996	0.0026	0.7324	-0.003
Mof_C 	C 	0.7069	0.9139	0.7284	0.356
Mof_C 	C 	0.7635	0.125	0.543	-0.251
Mof_H 	H 	0.7738	0.162	0.5052	0.135
Mof_H 	H 	0.8121	0.0999	0.5594	0.111
Mof_H 	H 	0.7245	0.0855	0.5192	0.115
_end
