# CIF file generated by openbabel 3.1.0, see https://openbabel.org
data_I
_chemical_name_common 'image0'
_cell_length_a 7.8292
_cell_length_b 9.3621
_cell_length_c 15.1467
_cell_angle_alpha 94.703
_cell_angle_beta 102.889
_cell_angle_gamma 101.231
_space_group_name_H-M_alt 'P 1'
_space_group_name_Hall 'P 1'
loop_
    _symmetry_equiv_pos_as_xyz
    x,y,z
loop_
    _atom_site_label
    _atom_site_type_symbol
    _atom_site_fract_x
    _atom_site_fract_y
    _atom_site_fract_z
    _atom_site_occupancy
    C1       C        0.67470    0.57090    0.89570    1.000
    C2       C        0.52130    0.53910    0.81130    1.000
    C3       C        0.42540    0.64800    0.78840    1.000
    H1       H        0.46060    0.74190    0.82410    1.000
    C4       C        0.27900    0.61820    0.71350    1.000
    C5       C        0.22170    0.48110    0.66090    1.000
    H2       H        0.11710    0.46110    0.61190    1.000
    C6       C        0.31930    0.37330    0.68080    1.000
    C7       C        0.46980    0.40280    0.75560    1.000
    H3       H        0.53740    0.32980    0.76860    1.000
    C8       C        0.26520    0.22600    0.62180    1.000
    C9       C        0.14080    0.77190    0.60180    1.000
    H4       H        0.15630    0.72080    0.54840    1.000
    C10      C        0.13880    0.83710    0.74310    1.000
    C11      C        0.15340    0.83620    0.84150    1.000
    C12      C        0.22750    0.96350    0.90390    1.000
    H5       H        0.26900    0.05430    0.88360    1.000
    C13      C        0.23960    0.95500    0.99650    1.000
    H6       H        0.28790    0.03990    0.04050    1.000
    C14      C        0.17860    0.81810    0.02300    1.000
    H7       H        0.19020    0.81110    0.08620    1.000
    C15      C        0.09220    0.70590    0.87390    1.000
    H8       H        0.03950    0.61990    0.83120    1.000
    N1       N        0.18540    0.73470    0.68710    1.000
    N2       N        0.07320    0.88890    0.60420    1.000
    N3       N        0.07160    0.93230    0.69360    1.000
    N4       N        0.10450    0.69650    0.96280    1.000
    O1       O        0.69300    0.68330    0.95030    1.000
    O2       O        0.77700    0.47810    0.90294    1.000
    O3       O        0.38040    0.15000    0.61960    1.000
    O4       O        0.10030    0.18970    0.57684    1.000
    C16      C        0.32530    0.42910    0.10430    1.000
    C17      C        0.47870    0.46090    0.18870    1.000
    C18      C        0.57460    0.35200    0.21160    1.000
    H9       H        0.53940    0.25810    0.17590    1.000
    C19      C        0.72100    0.38180    0.28650    1.000
    C20      C        0.77830    0.51890    0.33910    1.000
    H10      H        0.88290    0.53890    0.38810    1.000
    C21      C        0.68070    0.62670    0.31920    1.000
    C22      C        0.53020    0.59720    0.24440    1.000
    H11      H        0.46260    0.67020    0.23140    1.000
    C23      C        0.73480    0.77400    0.37820    1.000
    C24      C        0.85920    0.22810    0.39820    1.000
    H12      H        0.84370    0.27920    0.45160    1.000
    C25      C        0.86120    0.16290    0.25690    1.000
    C26      C        0.84660    0.16380    0.15850    1.000
    C27      C        0.77250    0.03650    0.09610    1.000
    H13      H        0.73100    0.94570    0.11640    1.000
    C28      C        0.76040    0.04500    0.00350    1.000
    H14      H        0.71210    0.96010    0.95950    1.000
    C29      C        0.82140    0.18190    0.97700    1.000
    H15      H        0.80980    0.18890    0.91380    1.000
    C30      C        0.90780    0.29410    0.12610    1.000
    H16      H        0.96050    0.38010    0.16880    1.000
    N5       N        0.81460    0.26530    0.31290    1.000
    N6       N        0.92680    0.11110    0.39580    1.000
    N7       N        0.92840    0.06770    0.30640    1.000
    N8       N        0.89550    0.30350    0.03720    1.000
    O5       O        0.30700    0.31670    0.04970    1.000
    O6       O        0.22300    0.52190    0.09706    1.000
    O7       O        0.61960    0.85000    0.38040    1.000
    O8       O        0.89970    0.81030    0.42316    1.000
    Cu1      Cu       0.00000    0.50000    0.00000    1.000
    Cu2      Cu       0.00000    0.00000    0.50000    1.000
