data_functionalizedCrystal
_audit_creation_method	'EQeq! by Chris Wilmer'
_symmetry_space_group_name_H-M	'P1'
_symmetry_Int_Tables_number	1
_symmetry_cell_setting	triclinic
loop_
_symmetry_equiv_pos_as_xyz
  x,y,z
_cell_length_a	12.1455
_cell_length_b	17.0072
_cell_length_c	25.5937
_cell_angle_alpha	102.385
_cell_angle_beta	90
_cell_angle_gamma	90
loop_
_atom_site_label
_atom_site_type_symbol
_atom_site_fract_x
_atom_site_fract_y
_atom_site_fract_z
_atom_site_charge
Mof_Nd	Nd	0.0274	0.98537	0.41899	2.129
Mof_Nd	Nd	0.50092	0.46075	0.41718	2.166
Mof_Nd	Nd	0.0274	0.51463	0.08101	2.144
Mof_Nd	Nd	0.50092	0.03925	0.08282	2.157
Mof_Nd	Nd	0.9726	0.01463	0.58101	2.129
Mof_Nd	Nd	0.49908	0.53925	0.58282	2.166
Mof_Nd	Nd	0.9726	0.48537	0.91899	2.143
Mof_Nd	Nd	0.49908	0.96075	0.91718	2.156
Mof_H 	H 	0.0161	0.0754	0.2357	0.034
Mof_H 	H 	0.9003	0.0835	0.159	0.04
Mof_H 	H 	0.2319	0.248	0.6039	0.032
Mof_H 	H 	0.3295	0.3662	0.5894	0.02
Mof_H 	H 	0.633	0.2675	0.5915	0.021
Mof_H 	H 	0.745	0.1466	0.5747	-0.047
Mof_H 	H 	0.0161	0.4246	0.2643	0.027
Mof_H 	H 	0.9003	0.4165	0.341	0.043
Mof_H 	H 	0.2319	0.252	0.8961	0.031
Mof_H 	H 	0.3295	0.1338	0.9106	0.023
Mof_H 	H 	0.633	0.2325	0.9085	0.021
Mof_H 	H 	0.745	0.3534	0.9253	-0.047
Mof_H 	H 	0.9839	0.9246	0.7643	0.034
Mof_H 	H 	0.0997	0.9165	0.841	0.04
Mof_H 	H 	0.7681	0.752	0.3961	0.032
Mof_H 	H 	0.6705	0.6338	0.4106	0.02
Mof_H 	H 	0.367	0.7325	0.4085	0.021
Mof_H 	H 	0.255	0.8534	0.4253	-0.047
Mof_H 	H 	0.9839	0.5754	0.7357	0.027
Mof_H 	H 	0.0997	0.5835	0.659	0.043
Mof_H 	H 	0.7681	0.748	0.1039	0.031
Mof_H 	H 	0.6705	0.8662	0.0894	0.023
Mof_H 	H 	0.367	0.7675	0.0915	0.021
Mof_H 	H 	0.255	0.6466	0.0747	-0.047
Mof_C 	C 	0.8972	0.0121	0.2633	-0.102
Mof_C 	C 	0.9461	0.0529	0.2301	-0.022
Mof_C 	C 	0.8791	0.0577	0.186	-0.022
Mof_C 	C 	0.7812	0.021	0.187	-0.094
Mof_C 	C 	0.9431	0.9966	0.3143	0.342
Mof_C 	C 	0.6897	0.0202	0.1491	0.3
Mof_C 	C 	0.1835	0.2208	0.5264	-0.146
Mof_C 	C 	0.2347	0.2628	0.571	-0.006
Mof_C 	C 	0.2921	0.3305	0.5626	0.012
Mof_C 	C 	0.2868	0.338	0.5111	-0.146
Mof_C 	C 	0.1159	0.145	0.5189	0.483
Mof_C 	C 	0.3391	0.3972	0.485	0.44
Mof_C 	C 	0.6588	0.2806	0.5156	-0.152
Mof_C 	C 	0.6668	0.2466	0.5589	-0.02
Mof_C 	C 	0.731	0.1771	0.5493	0.024
Mof_C 	C 	0.7709	0.1585	0.4982	-0.167
Mof_C 	C 	0.6009	0.3567	0.5114	0.5
Mof_C 	C 	0.8467	0.0922	0.4736	0.445
Mof_C 	C 	0.8972	0.4879	0.2367	-0.091
Mof_C 	C 	0.9461	0.4471	0.2699	-0.014
Mof_C 	C 	0.8791	0.4423	0.314	-0.027
Mof_C 	C 	0.7812	0.479	0.313	-0.087
Mof_C 	C 	0.9431	0.5034	0.1857	0.332
Mof_C 	C 	0.6897	0.4798	0.3509	0.302
Mof_C 	C 	0.1835	0.2792	0.9736	-0.145
Mof_C 	C 	0.2347	0.2372	0.929	-0.003
Mof_C 	C 	0.2921	0.1695	0.9374	0.007
Mof_C 	C 	0.2868	0.162	0.9889	-0.137
Mof_C 	C 	0.1159	0.355	0.9811	0.487
Mof_C 	C 	0.3391	0.1028	0.015	0.43
Mof_C 	C 	0.6588	0.2194	0.9844	-0.152
Mof_C 	C 	0.6668	0.2534	0.9411	-0.02
Mof_C 	C 	0.731	0.3229	0.9507	0.025
Mof_C 	C 	0.7709	0.3415	0.0018	-0.168
Mof_C 	C 	0.6009	0.1433	0.9886	0.501
Mof_C 	C 	0.8467	0.4078	0.0264	0.447
Mof_C 	C 	0.1028	0.9879	0.7367	-0.102
Mof_C 	C 	0.0539	0.9471	0.7699	-0.022
Mof_C 	C 	0.1209	0.9423	0.814	-0.022
Mof_C 	C 	0.2188	0.979	0.813	-0.094
Mof_C 	C 	0.0569	0.0034	0.6857	0.342
Mof_C 	C 	0.3103	0.9798	0.8509	0.3
Mof_C 	C 	0.8165	0.7792	0.4736	-0.146
Mof_C 	C 	0.7653	0.7372	0.429	-0.006
Mof_C 	C 	0.7079	0.6695	0.4374	0.012
Mof_C 	C 	0.7132	0.662	0.4889	-0.146
Mof_C 	C 	0.8841	0.855	0.4811	0.483
Mof_C 	C 	0.6609	0.6028	0.515	0.44
Mof_C 	C 	0.3412	0.7194	0.4844	-0.152
Mof_C 	C 	0.3332	0.7534	0.4411	-0.02
Mof_C 	C 	0.269	0.8229	0.4507	0.024
Mof_C 	C 	0.2291	0.8415	0.5018	-0.167
Mof_C 	C 	0.3991	0.6433	0.4886	0.5
Mof_C 	C 	0.1533	0.9078	0.5264	0.445
Mof_C 	C 	0.1028	0.5121	0.7633	-0.091
Mof_C 	C 	0.0539	0.5529	0.7301	-0.014
Mof_C 	C 	0.1209	0.5577	0.686	-0.027
Mof_C 	C 	0.2188	0.521	0.687	-0.087
Mof_C 	C 	0.0569	0.4966	0.8143	0.332
Mof_C 	C 	0.3103	0.5202	0.6491	0.302
Mof_C 	C 	0.8165	0.7208	0.0264	-0.145
Mof_C 	C 	0.7653	0.7628	0.071	-0.003
Mof_C 	C 	0.7079	0.8305	0.0626	0.007
Mof_C 	C 	0.7132	0.838	0.0111	-0.137
Mof_C 	C 	0.8841	0.645	0.0189	0.487
Mof_C 	C 	0.6609	0.8972	0.985	0.43
Mof_C 	C 	0.3412	0.7806	0.0156	-0.152
Mof_C 	C 	0.3332	0.7466	0.0589	-0.02
Mof_C 	C 	0.269	0.6771	0.0493	0.025
Mof_C 	C 	0.2291	0.6585	0.9982	-0.168
Mof_C 	C 	0.3991	0.8567	0.0114	0.501
Mof_C 	C 	0.1533	0.5922	0.9736	0.447
Mof_S 	S 	0.76983	0.97787	0.24148	0.053
Mof_S 	S 	0.20991	0.26159	0.47243	0.059
Mof_S 	S 	0.72473	0.22498	0.46174	0.077
Mof_S 	S 	0.76983	0.52213	0.25852	0.04
Mof_S 	S 	0.20991	0.23841	0.02757	0.052
Mof_S 	S 	0.72473	0.27502	0.03826	0.076
Mof_S 	S 	0.23017	0.02213	0.75852	0.053
Mof_S 	S 	0.79009	0.73841	0.52757	0.059
Mof_S 	S 	0.27527	0.77502	0.53826	0.077
Mof_S 	S 	0.23017	0.47787	0.74148	0.04
Mof_S 	S 	0.79009	0.76159	0.97243	0.052
Mof_S 	S 	0.27527	0.72498	0.96174	0.076
Mof_O 	O 	0.8952	0.9481	0.3372	-0.423
Mof_O 	O 	0.0284	0.0339	0.3335	-0.483
Mof_O 	O 	0.7005	0.0592	0.1127	-0.434
Mof_O 	O 	0.6011	0.9826	0.1543	-0.461
Mof_O 	O 	0.0888	0.11398	0.47208	-0.551
Mof_O 	O 	0.093	0.1192	0.5601	-0.539
Mof_O 	O 	0.3889	0.4576	0.512	-0.601
Mof_O 	O 	0.3349	0.3856	0.4347	-0.535
Mof_O 	O 	0.5797	0.3651	0.4651	-0.553
Mof_O 	O 	0.5799	0.4058	0.5545	-0.561
Mof_O 	O 	0.8696	0.0833	0.4252	-0.462
Mof_O 	O 	0.8878	0.04855	0.50245	-0.643
Mof_O 	O 	0.8952	0.5519	0.1628	-0.424
Mof_O 	O 	0.0284	0.4661	0.1665	-0.486
Mof_O 	O 	0.7005	0.4408	0.3873	-0.434
Mof_O 	O 	0.6011	0.5174	0.3457	-0.466
Mof_O 	O 	0.0888	0.38602	0.02792	-0.559
Mof_O 	O 	0.093	0.3808	0.9399	-0.544
Mof_O 	O 	0.3889	0.0424	0.988	-0.594
Mof_O 	O 	0.3349	0.1144	0.0653	-0.532
Mof_O 	O 	0.5797	0.1349	0.0349	-0.554
Mof_O 	O 	0.5799	0.0942	0.9455	-0.56
Mof_O 	O 	0.8696	0.4167	0.0748	-0.461
Mof_O 	O 	0.8878	0.45145	0.99755	-0.646
Mof_O 	O 	0.1048	0.0519	0.6628	-0.423
Mof_O 	O 	0.9716	0.9661	0.6665	-0.483
Mof_O 	O 	0.2995	0.9408	0.8873	-0.434
Mof_O 	O 	0.3989	0.0174	0.8457	-0.461
Mof_O 	O 	0.9112	0.88602	0.52792	-0.551
Mof_O 	O 	0.907	0.8808	0.4399	-0.539
Mof_O 	O 	0.6111	0.5424	0.488	-0.601
Mof_O 	O 	0.6651	0.6144	0.5653	-0.535
Mof_O 	O 	0.4203	0.6349	0.5349	-0.553
Mof_O 	O 	0.4201	0.5942	0.4455	-0.561
Mof_O 	O 	0.1304	0.9167	0.5748	-0.462
Mof_O 	O 	0.1122	0.95145	0.49755	-0.643
Mof_O 	O 	0.1048	0.4481	0.8372	-0.424
Mof_O 	O 	0.9716	0.5339	0.8335	-0.486
Mof_O 	O 	0.2995	0.5592	0.6127	-0.434
Mof_O 	O 	0.3989	0.4826	0.6543	-0.466
Mof_O 	O 	0.9112	0.61398	0.97208	-0.559
Mof_O 	O 	0.907	0.6192	0.0601	-0.544
Mof_O 	O 	0.6111	0.9576	0.012	-0.594
Mof_O 	O 	0.6651	0.8856	0.9347	-0.532
Mof_O 	O 	0.4203	0.8651	0.9651	-0.554
Mof_O 	O 	0.4201	0.9058	0.0545	-0.56
Mof_O 	O 	0.1304	0.5833	0.9252	-0.461
Mof_O 	O 	0.1122	0.54855	0.00245	-0.646
_end
