data_functionalizedCrystal
_audit_creation_method	'EQeq! by Chris Wilmer'
_symmetry_space_group_name_H-M	'P1'
_symmetry_Int_Tables_number	1
_symmetry_cell_setting	triclinic
loop_
_symmetry_equiv_pos_as_xyz
  x,y,z
_cell_length_a	8.8326
_cell_length_b	10.159
_cell_length_c	13.979
_cell_angle_alpha	90
_cell_angle_beta	90
_cell_angle_gamma	90
loop_
_atom_site_label
_atom_site_type_symbol
_atom_site_fract_x
_atom_site_fract_y
_atom_site_fract_z
_atom_site_charge
Mof_Y 	Y 	0.74989	0.49993	0.88679	1.767
Mof_Y 	Y 	0.75011	0.99993	0.61321	1.769
Mof_Y 	Y 	0.25011	0.50007	0.11321	1.767
Mof_Y 	Y 	0.24989	7e-05	0.38679	1.769
Mof_H 	H 	0.4021	0.6568	0.8772	-0.041
Mof_H 	H 	0.0081	0.7503	0.7512	-0.037
Mof_H 	H 	0.4023	0.8428	0.6221	-0.039
Mof_H 	H 	0.0979	0.1568	0.6228	-0.041
Mof_H 	H 	0.4919	0.2503	0.7488	-0.037
Mof_H 	H 	0.0977	0.3428	0.8779	-0.039
Mof_H 	H 	0.5979	0.3432	0.1228	-0.041
Mof_H 	H 	0.9919	0.2497	0.2488	-0.037
Mof_H 	H 	0.5977	0.1572	0.3779	-0.039
Mof_H 	H 	0.9021	0.8432	0.3772	-0.041
Mof_H 	H 	0.5081	0.7497	0.2512	-0.037
Mof_H 	H 	0.9023	0.6572	0.1221	-0.039
Mof_C 	C 	0.1061	0.6363	0.9079	0.548
Mof_C 	C 	0.1912	0.6959	0.8267	-0.291
Mof_C 	C 	0.3491	0.6952	0.827	0.207
Mof_C 	C 	0.4265	0.7533	0.7504	-0.278
Mof_C 	C 	0.1061	0.8658	0.5914	0.551
Mof_C 	C 	0.1924	0.8032	0.6738	-0.28
Mof_C 	C 	0.1134	0.7496	0.751	0.212
Mof_C 	C 	0.3498	0.8062	0.6732	0.21
Mof_C 	C 	0.598	0.759	0.7558	0.511
Mof_C 	C 	0.3939	0.1363	0.5921	0.546
Mof_C 	C 	0.3088	0.1959	0.6733	-0.29
Mof_C 	C 	0.1509	0.1952	0.673	0.207
Mof_C 	C 	0.0735	0.2533	0.7496	-0.278
Mof_C 	C 	0.3939	0.3658	0.9086	0.548
Mof_C 	C 	0.3076	0.3032	0.8262	-0.279
Mof_C 	C 	0.3866	0.2496	0.749	0.211
Mof_C 	C 	0.1502	0.3062	0.8268	0.209
Mof_C 	C 	0.902	0.259	0.7442	0.511
Mof_C 	C 	0.8939	0.3637	0.0921	0.548
Mof_C 	C 	0.8088	0.3041	0.1733	-0.291
Mof_C 	C 	0.6509	0.3048	0.173	0.207
Mof_C 	C 	0.5735	0.2467	0.2496	-0.278
Mof_C 	C 	0.8939	0.1342	0.4086	0.551
Mof_C 	C 	0.8076	0.1968	0.3262	-0.28
Mof_C 	C 	0.8866	0.2504	0.249	0.212
Mof_C 	C 	0.6502	0.1938	0.3268	0.21
Mof_C 	C 	0.402	0.241	0.2442	0.511
Mof_C 	C 	0.6061	0.8637	0.4079	0.546
Mof_C 	C 	0.6912	0.8041	0.3267	-0.29
Mof_C 	C 	0.8491	0.8048	0.327	0.207
Mof_C 	C 	0.9265	0.7467	0.2504	-0.278
Mof_C 	C 	0.6061	0.6342	0.0914	0.548
Mof_C 	C 	0.6924	0.6968	0.1738	-0.279
Mof_C 	C 	0.6134	0.7504	0.251	0.211
Mof_C 	C 	0.8498	0.6938	0.1732	0.209
Mof_C 	C 	0.098	0.741	0.2558	0.511
Mof_O 	O 	0.9727	0.6025	0.8937	-0.522
Mof_O 	O 	0.6657	0.6745	0.8082	-0.506
Mof_O 	O 	0.9727	0.8988	0.6065	-0.526
Mof_O 	O 	0.174	0.622	0.9861	-0.487
Mof_O 	O 	0.174	0.8779	0.5143	-0.493
Mof_O 	O 	0.6645	0.8252	0.6922	-0.509
Mof_O 	O 	0.5273	0.1025	0.6063	-0.519
Mof_O 	O 	0.8343	0.1745	0.6918	-0.505
Mof_O 	O 	0.5273	0.3988	0.8935	-0.523
Mof_O 	O 	0.326	0.122	0.5139	-0.486
Mof_O 	O 	0.326	0.3779	0.9857	-0.493
Mof_O 	O 	0.8355	0.3252	0.8078	-0.508
Mof_O 	O 	0.0273	0.3975	0.1063	-0.522
Mof_O 	O 	0.3343	0.3255	0.1918	-0.506
Mof_O 	O 	0.0273	0.1012	0.3935	-0.526
Mof_O 	O 	0.826	0.378	0.0139	-0.487
Mof_O 	O 	0.826	0.1221	0.4857	-0.493
Mof_O 	O 	0.3355	0.1748	0.3078	-0.509
Mof_O 	O 	0.4727	0.8975	0.3937	-0.519
Mof_O 	O 	0.1657	0.8255	0.3082	-0.505
Mof_O 	O 	0.4727	0.6012	0.1065	-0.523
Mof_O 	O 	0.674	0.878	0.4861	-0.486
Mof_O 	O 	0.674	0.6221	0.0143	-0.493
Mof_O 	O 	0.1645	0.6748	0.1922	-0.508
_end
