data_functionalizedCrystal
_audit_creation_method	'EQeq! by Chris Wilmer'
_symmetry_space_group_name_H-M	'P1'
_symmetry_Int_Tables_number	1
_symmetry_cell_setting	triclinic
loop_
_symmetry_equiv_pos_as_xyz
  x,y,z
_cell_length_a	11.9563
_cell_length_b	20.5225
_cell_length_c	22.0556
_cell_angle_alpha	90
_cell_angle_beta	90
_cell_angle_gamma	90
loop_
_atom_site_label
_atom_site_type_symbol
_atom_site_fract_x
_atom_site_fract_y
_atom_site_fract_z
_atom_site_charge
Mof_Cs	Cs	0.76235	0.91968	0.5401	2.533
Mof_Cs	Cs	0.26235	0.08032	0.9599	2.501
Mof_Cs	Cs	0.23765	0.41968	0.4599	2.547
Mof_Cs	Cs	0.73765	0.58032	0.0401	2.536
Mof_Cs	Cs	0.23765	0.08032	0.4599	2.533
Mof_Cs	Cs	0.73765	0.91968	0.0401	2.501
Mof_Cs	Cs	0.76235	0.58032	0.5401	2.547
Mof_Cs	Cs	0.26235	0.41968	0.9599	2.536
Mof_Cs	Cs	0.99753	0.75	0.65513	2.422
Mof_Cs	Cs	0.49753	0.25	0.84487	2.442
Mof_Cs	Cs	0.00247	0.25	0.34487	2.422
Mof_Cs	Cs	0.50247	0.75	0.15513	2.442
Mof_U 	U 	0.14023	0.91681	0.57242	-0.075
Mof_U 	U 	0.64023	0.08319	0.92758	-0.078
Mof_U 	U 	0.85977	0.41681	0.42758	-0.077
Mof_U 	U 	0.35977	0.58319	0.07242	-0.077
Mof_U 	U 	0.85977	0.08319	0.42758	-0.075
Mof_U 	U 	0.35977	0.91681	0.07242	-0.078
Mof_U 	U 	0.14023	0.58319	0.57242	-0.077
Mof_U 	U 	0.64023	0.41681	0.92758	-0.077
Mof_U 	U 	0.91039	0.75	0.44008	-0.038
Mof_U 	U 	0.41039	0.25	0.05992	-0.035
Mof_U 	U 	0.08961	0.25	0.55992	-0.038
Mof_U 	U 	0.58961	0.75	0.94008	-0.035
Mof_P 	P 	0.0003	0.9223	0.4271	0.364
Mof_P 	P 	0.5003	0.0777	0.0729	0.351
Mof_P 	P 	0.9997	0.4223	0.5729	0.353
Mof_P 	P 	0.4997	0.5777	0.9271	0.351
Mof_P 	P 	0.9997	0.0777	0.5729	0.364
Mof_P 	P 	0.4997	0.9223	0.9271	0.351
Mof_P 	P 	0.0003	0.5777	0.4271	0.353
Mof_P 	P 	0.5003	0.4223	0.0729	0.351
Mof_P 	P 	0.1802	0.75	0.50499	0.359
Mof_P 	P 	0.6802	0.25	0.99501	0.356
Mof_P 	P 	0.8198	0.25	0.49501	0.359
Mof_P 	P 	0.3198	0.75	0.00499	0.356
Mof_H 	H 	0.3418	0.8486	0.4709	-0.014
Mof_H 	H 	0.5299	0.8496	0.4457	-0.147
Mof_H 	H 	0.0272	0.0062	0.3247	-0.007
Mof_H 	H 	0.1353	0.0049	0.2363	-0.073
Mof_H 	H 	0.2345	0.8201	0.2779	-0.059
Mof_H 	H 	0.1337	0.8255	0.3678	0.066
Mof_H 	H 	0.8418	0.1514	0.0291	-0.008
Mof_H 	H 	0.0299	0.1504	0.0543	-0.152
Mof_H 	H 	0.5272	0.9938	0.1753	-0.002
Mof_H 	H 	0.6353	0.9951	0.2637	-0.079
Mof_H 	H 	0.7345	0.1799	0.2221	-0.059
Mof_H 	H 	0.6337	0.1745	0.1322	0.067
Mof_H 	H 	0.6582	0.3486	0.5291	-0.015
Mof_H 	H 	0.4701	0.3496	0.5543	-0.148
Mof_H 	H 	0.9728	0.5062	0.6753	0.003
Mof_H 	H 	0.8647	0.5049	0.7637	-0.072
Mof_H 	H 	0.7655	0.3201	0.7221	-0.06
Mof_H 	H 	0.8663	0.3255	0.6322	0.067
Mof_H 	H 	0.1582	0.6514	0.9709	-0.012
Mof_H 	H 	0.9701	0.6504	0.9457	-0.15
Mof_H 	H 	0.4728	0.4938	0.8247	0.003
Mof_H 	H 	0.3647	0.4951	0.7363	-0.072
Mof_H 	H 	0.2655	0.6799	0.7779	-0.059
Mof_H 	H 	0.3663	0.6745	0.8678	0.067
Mof_H 	H 	0.6582	0.1514	0.5291	-0.014
Mof_H 	H 	0.4701	0.1504	0.5543	-0.147
Mof_H 	H 	0.9728	0.9938	0.6753	-0.007
Mof_H 	H 	0.8647	0.9951	0.7637	-0.073
Mof_H 	H 	0.7655	0.1799	0.7221	-0.059
Mof_H 	H 	0.8663	0.1745	0.6322	0.066
Mof_H 	H 	0.1582	0.8486	0.9709	-0.008
Mof_H 	H 	0.9701	0.8496	0.9457	-0.152
Mof_H 	H 	0.4728	0.0062	0.8247	-0.002
Mof_H 	H 	0.3647	0.0049	0.7363	-0.079
Mof_H 	H 	0.2655	0.8201	0.7779	-0.059
Mof_H 	H 	0.3663	0.8255	0.8678	0.067
Mof_H 	H 	0.3418	0.6514	0.4709	-0.015
Mof_H 	H 	0.5299	0.6504	0.4457	-0.148
Mof_H 	H 	0.0272	0.4938	0.3247	0.003
Mof_H 	H 	0.1353	0.4951	0.2363	-0.072
Mof_H 	H 	0.2345	0.6799	0.2779	-0.06
Mof_H 	H 	0.1337	0.6745	0.3678	0.067
Mof_H 	H 	0.8418	0.3486	0.0291	-0.012
Mof_H 	H 	0.0299	0.3496	0.0543	-0.15
Mof_H 	H 	0.5272	0.5062	0.1753	0.003
Mof_H 	H 	0.6353	0.5049	0.2637	-0.072
Mof_H 	H 	0.7345	0.3201	0.2221	-0.059
Mof_H 	H 	0.6337	0.3255	0.1322	0.067
Mof_C 	C 	0.3803	0.8084	0.4667	-0.132
Mof_C 	C 	0.4917	0.8095	0.4516	0.014
Mof_C 	C 	0.0714	0.9167	0.3554	-0.063
Mof_C 	C 	0.0713	0.969	0.3156	-0.139
Mof_C 	C 	0.1342	0.9682	0.2626	-0.017
Mof_C 	C 	0.1963	0.9118	0.2487	-0.191
Mof_C 	C 	0.1941	0.8586	0.2878	0.015
Mof_C 	C 	0.1333	0.8616	0.3408	-0.126
Mof_C 	C 	0.2665	0.9111	0.1916	0.285
Mof_C 	C 	0.8803	0.1916	0.0333	-0.141
Mof_C 	C 	0.9917	0.1905	0.0484	0.032
Mof_C 	C 	0.5714	0.0833	0.1446	-0.058
Mof_C 	C 	0.5713	0.031	0.1844	-0.148
Mof_C 	C 	0.6342	0.0318	0.2374	-0.007
Mof_C 	C 	0.6963	0.0882	0.2513	-0.195
Mof_C 	C 	0.6941	0.1414	0.2122	0.019
Mof_C 	C 	0.6333	0.1384	0.1592	-0.13
Mof_C 	C 	0.7665	0.0889	0.3084	0.286
Mof_C 	C 	0.6197	0.3084	0.5333	-0.132
Mof_C 	C 	0.5083	0.3095	0.5484	0.014
Mof_C 	C 	0.9286	0.4167	0.6446	-0.058
Mof_C 	C 	0.9287	0.469	0.6844	-0.154
Mof_C 	C 	0.8658	0.4682	0.7374	-0.016
Mof_C 	C 	0.8037	0.4118	0.7513	-0.193
Mof_C 	C 	0.8059	0.3586	0.7122	0.017
Mof_C 	C 	0.8667	0.3616	0.6592	-0.13
Mof_C 	C 	0.7335	0.4111	0.8084	0.285
Mof_C 	C 	0.1197	0.6916	0.9667	-0.139
Mof_C 	C 	0.0083	0.6905	0.9516	0.024
Mof_C 	C 	0.4286	0.5833	0.8554	-0.058
Mof_C 	C 	0.4287	0.531	0.8156	-0.154
Mof_C 	C 	0.3658	0.5318	0.7626	-0.016
Mof_C 	C 	0.3037	0.5882	0.7487	-0.193
Mof_C 	C 	0.3059	0.6414	0.7878	0.017
Mof_C 	C 	0.3667	0.6384	0.8408	-0.13
Mof_C 	C 	0.2335	0.5889	0.6916	0.284
Mof_C 	C 	0.6197	0.1916	0.5333	-0.132
Mof_C 	C 	0.5083	0.1905	0.5484	0.014
Mof_C 	C 	0.9286	0.0833	0.6446	-0.063
Mof_C 	C 	0.9287	0.031	0.6844	-0.139
Mof_C 	C 	0.8658	0.0318	0.7374	-0.017
Mof_C 	C 	0.8037	0.0882	0.7513	-0.191
Mof_C 	C 	0.8059	0.1414	0.7122	0.015
Mof_C 	C 	0.8667	0.1384	0.6592	-0.126
Mof_C 	C 	0.7335	0.0889	0.8084	0.285
Mof_C 	C 	0.1197	0.8084	0.9667	-0.141
Mof_C 	C 	0.0083	0.8095	0.9516	0.032
Mof_C 	C 	0.4286	0.9167	0.8554	-0.058
Mof_C 	C 	0.4287	0.969	0.8156	-0.148
Mof_C 	C 	0.3658	0.9682	0.7626	-0.007
Mof_C 	C 	0.3037	0.9118	0.7487	-0.195
Mof_C 	C 	0.3059	0.8586	0.7878	0.019
Mof_C 	C 	0.3667	0.8616	0.8408	-0.13
Mof_C 	C 	0.2335	0.9111	0.6916	0.286
Mof_C 	C 	0.3803	0.6916	0.4667	-0.132
Mof_C 	C 	0.4917	0.6905	0.4516	0.014
Mof_C 	C 	0.0714	0.5833	0.3554	-0.058
Mof_C 	C 	0.0713	0.531	0.3156	-0.154
Mof_C 	C 	0.1342	0.5318	0.2626	-0.016
Mof_C 	C 	0.1963	0.5882	0.2487	-0.193
Mof_C 	C 	0.1941	0.6414	0.2878	0.017
Mof_C 	C 	0.1333	0.6384	0.3408	-0.13
Mof_C 	C 	0.2665	0.5889	0.1916	0.285
Mof_C 	C 	0.8803	0.3084	0.0333	-0.139
Mof_C 	C 	0.9917	0.3095	0.0484	0.024
Mof_C 	C 	0.5714	0.4167	0.1446	-0.058
Mof_C 	C 	0.5713	0.469	0.1844	-0.154
Mof_C 	C 	0.6342	0.4682	0.2374	-0.016
Mof_C 	C 	0.6963	0.4118	0.2513	-0.193
Mof_C 	C 	0.6941	0.3586	0.2122	0.017
Mof_C 	C 	0.6333	0.3616	0.1592	-0.13
Mof_C 	C 	0.7665	0.4111	0.3084	0.284
Mof_C 	C 	0.3207	0.75	0.4761	-0.044
Mof_C 	C 	0.5473	0.75	0.4451	-0.267
Mof_C 	C 	0.6698	0.75	0.4353	0.305
Mof_C 	C 	0.8207	0.25	0.0239	-0.036
Mof_C 	C 	0.0473	0.25	0.0549	-0.277
Mof_C 	C 	0.1698	0.25	0.0647	0.309
Mof_C 	C 	0.6793	0.25	0.5239	-0.044
Mof_C 	C 	0.4527	0.25	0.5549	-0.267
Mof_C 	C 	0.3302	0.25	0.5647	0.305
Mof_C 	C 	0.1793	0.75	0.9761	-0.036
Mof_C 	C 	0.9527	0.75	0.9451	-0.277
Mof_C 	C 	0.8302	0.75	0.9353	0.309
Mof_O 	O 	0.0014	0.8952	0.5957	-0.523
Mof_O 	O 	0.1652	0.8111	0.5426	-0.342
Mof_O 	O 	0.7241	0.804	0.4337	-0.468
Mof_O 	O 	0.0915	0.9367	0.4734	-0.395
Mof_O 	O 	0.9125	0.9762	0.4242	-0.397
Mof_O 	O 	0.9424	0.8589	0.441	-0.364
Mof_O 	O 	0.2848	0.8582	0.1632	-0.425
Mof_O 	O 	0.3026	0.9645	0.17	-0.322
Mof_O 	O 	0.5014	0.1048	0.9043	-0.528
Mof_O 	O 	0.6652	0.1889	0.9574	-0.343
Mof_O 	O 	0.2241	0.196	0.0663	-0.465
Mof_O 	O 	0.5915	0.0633	0.0266	-0.39
Mof_O 	O 	0.4125	0.0238	0.0758	-0.383
Mof_O 	O 	0.4424	0.1411	0.059	-0.353
Mof_O 	O 	0.7848	0.1418	0.3368	-0.423
Mof_O 	O 	0.8026	0.0355	0.33	-0.318
Mof_O 	O 	0.9986	0.3952	0.4043	-0.527
Mof_O 	O 	0.8348	0.3111	0.4574	-0.342
Mof_O 	O 	0.2759	0.304	0.5663	-0.469
Mof_O 	O 	0.9085	0.4367	0.5266	-0.397
Mof_O 	O 	0.0875	0.4762	0.5758	-0.39
Mof_O 	O 	0.0576	0.3589	0.559	-0.359
Mof_O 	O 	0.7152	0.3582	0.8368	-0.425
Mof_O 	O 	0.6974	0.4645	0.83	-0.322
Mof_O 	O 	0.4986	0.6048	0.0957	-0.529
Mof_O 	O 	0.3348	0.6889	0.0426	-0.343
Mof_O 	O 	0.7759	0.696	0.9337	-0.468
Mof_O 	O 	0.4085	0.5633	0.9734	-0.395
Mof_O 	O 	0.5875	0.5238	0.9242	-0.387
Mof_O 	O 	0.5576	0.6411	0.941	-0.356
Mof_O 	O 	0.2152	0.6418	0.6632	-0.424
Mof_O 	O 	0.1974	0.5355	0.67	-0.322
Mof_O 	O 	0.9986	0.1048	0.4043	-0.523
Mof_O 	O 	0.8348	0.1889	0.4574	-0.342
Mof_O 	O 	0.2759	0.196	0.5663	-0.468
Mof_O 	O 	0.9085	0.0633	0.5266	-0.395
Mof_O 	O 	0.0875	0.0238	0.5758	-0.397
Mof_O 	O 	0.0576	0.1411	0.559	-0.364
Mof_O 	O 	0.7152	0.1418	0.8368	-0.425
Mof_O 	O 	0.6974	0.0355	0.83	-0.322
Mof_O 	O 	0.4986	0.8952	0.0957	-0.528
Mof_O 	O 	0.3348	0.8111	0.0426	-0.343
Mof_O 	O 	0.7759	0.804	0.9337	-0.465
Mof_O 	O 	0.4085	0.9367	0.9734	-0.39
Mof_O 	O 	0.5875	0.9762	0.9242	-0.383
Mof_O 	O 	0.5576	0.8589	0.941	-0.353
Mof_O 	O 	0.2152	0.8582	0.6632	-0.423
Mof_O 	O 	0.1974	0.9645	0.67	-0.318
Mof_O 	O 	0.0014	0.6048	0.5957	-0.527
Mof_O 	O 	0.1652	0.6889	0.5426	-0.342
Mof_O 	O 	0.7241	0.696	0.4337	-0.469
Mof_O 	O 	0.0915	0.5633	0.4734	-0.397
Mof_O 	O 	0.9125	0.5238	0.4242	-0.39
Mof_O 	O 	0.9424	0.6411	0.441	-0.359
Mof_O 	O 	0.2848	0.6418	0.1632	-0.425
Mof_O 	O 	0.3026	0.5355	0.17	-0.322
Mof_O 	O 	0.5014	0.3952	0.9043	-0.529
Mof_O 	O 	0.6652	0.3111	0.9574	-0.343
Mof_O 	O 	0.2241	0.304	0.0663	-0.468
Mof_O 	O 	0.5915	0.4367	0.0266	-0.395
Mof_O 	O 	0.4125	0.4762	0.0758	-0.387
Mof_O 	O 	0.4424	0.3589	0.059	-0.356
Mof_O 	O 	0.7848	0.3582	0.3368	-0.424
Mof_O 	O 	0.8026	0.4645	0.33	-0.322
Mof_O 	O 	0.8925	0.75	0.5208	-0.523
Mof_O 	O 	0.1021	0.75	0.4502	-0.221
Mof_O 	O 	0.3925	0.25	0.9792	-0.524
Mof_O 	O 	0.6021	0.25	0.0498	-0.22
Mof_O 	O 	0.1075	0.25	0.4792	-0.523
Mof_O 	O 	0.8979	0.25	0.5498	-0.221
Mof_O 	O 	0.6075	0.75	0.0208	-0.524
Mof_O 	O 	0.3979	0.75	0.9502	-0.22
_end
