data_functionalizedCrystal
_audit_creation_method	'EQeq! by Chris Wilmer'
_symmetry_space_group_name_H-M	'P1'
_symmetry_Int_Tables_number	1
_symmetry_cell_setting	triclinic
loop_
_symmetry_equiv_pos_as_xyz
  x,y,z
_cell_length_a	10.0597
_cell_length_b	12.773
_cell_length_c	12.9948
_cell_angle_alpha	70.9178
_cell_angle_beta	67.2281
_cell_angle_gamma	66.8097
loop_
_atom_site_label
_atom_site_type_symbol
_atom_site_fract_x
_atom_site_fract_y
_atom_site_fract_z
_atom_site_charge
Mof_Co	Co	0.96665	0.61468	0.89688	1.178
Mof_Co	Co	0.31765	0.66681	0.76403	1.191
Mof_Co	Co	0.47821	0.88532	0.60312	1.185
Mof_Co	Co	0.74849	0.83319	0.73597	1.191
Mof_Co	Co	0.03335	0.38532	0.10312	1.178
Mof_Co	Co	0.68235	0.33319	0.23597	1.191
Mof_Co	Co	0.52179	0.11468	0.39688	1.184
Mof_Co	Co	0.25151	0.16681	0.26403	1.19
Mof_H 	H 	0.1027	0.3899	0.6501	0.067
Mof_H 	H 	0.2085	0.2566	0.5368	0.009
Mof_H 	H 	0.6122	0.2301	0.5185	-0.005
Mof_H 	H 	0.5176	0.3709	0.6251	0.068
Mof_H 	H 	0.1368	0.9563	0.7393	-0.001
Mof_H 	H 	0.0192	0.0192	0.5944	0.186
Mof_H 	H 	0.1378	0.9158	0.537	0.176
Mof_H 	H 	0.1427	0.1101	0.8499	0.066
Mof_H 	H 	0.0019	0.2434	0.9632	0.012
Mof_H 	H 	0.3608	0.2699	0.9815	-0.004
Mof_H 	H 	0.5136	0.1291	0.8749	0.067
Mof_H 	H 	0.8324	0.5437	0.7607	-0.007
Mof_H 	H 	0.6328	0.4808	0.9056	0.191
Mof_H 	H 	0.5906	0.5842	0.963	0.178
Mof_H 	H 	0.8973	0.6101	0.3499	0.067
Mof_H 	H 	0.7915	0.7434	0.4632	0.009
Mof_H 	H 	0.3878	0.7699	0.4815	-0.005
Mof_H 	H 	0.4824	0.6291	0.3749	0.068
Mof_H 	H 	0.8632	0.0437	0.2607	-0.001
Mof_H 	H 	0.9808	0.9808	0.4056	0.186
Mof_H 	H 	0.8622	0.0842	0.463	0.176
Mof_H 	H 	0.8573	0.8899	0.1501	0.066
Mof_H 	H 	0.9981	0.7566	0.0368	0.012
Mof_H 	H 	0.6392	0.7301	0.0185	-0.004
Mof_H 	H 	0.4864	0.8709	0.1251	0.067
Mof_H 	H 	0.1676	0.4563	0.2393	-0.007
Mof_H 	H 	0.3672	0.5192	0.0944	0.191
Mof_H 	H 	0.4094	0.4158	0.037	0.178
Mof_C 	C 	0.2361	0.4869	0.7217	0.37
Mof_C 	C 	0.3001	0.3962	0.6498	-0.039
Mof_C 	C 	0.2071	0.3599	0.6225	-0.069
Mof_C 	C 	0.2723	0.2797	0.5545	0.057
Mof_C 	C 	0.5082	0.2638	0.5442	0.042
Mof_C 	C 	0.4515	0.3481	0.6097	-0.064
Mof_C 	C 	0.0333	0.8389	0.7499	0.316
Mof_C 	C 	0.1522	0.9029	0.6931	0.134
Mof_C 	C 	0.1244	0.9713	0.5791	-0.491
Mof_C 	C 	0.2202	0.049	0.5024	0.498
Mof_C 	C 	0.4447	0.0131	0.7783	0.369
Mof_C 	C 	0.3461	0.1038	0.8502	-0.041
Mof_C 	C 	0.1895	0.1401	0.8775	-0.067
Mof_C 	C 	0.1065	0.2203	0.9455	0.056
Mof_C 	C 	0.3162	0.2362	0.9558	0.041
Mof_C 	C 	0.4093	0.1519	0.8903	-0.063
Mof_C 	C 	0.6221	0.6611	0.7501	0.302
Mof_C 	C 	0.7482	0.5971	0.8069	0.141
Mof_C 	C 	0.6748	0.5287	0.9209	-0.5
Mof_C 	C 	0.7716	0.451	0.9976	0.485
Mof_C 	C 	0.7639	0.5131	0.2783	0.37
Mof_C 	C 	0.6999	0.6038	0.3502	-0.039
Mof_C 	C 	0.7929	0.6401	0.3775	-0.069
Mof_C 	C 	0.7277	0.7203	0.4455	0.057
Mof_C 	C 	0.4918	0.7362	0.4558	0.042
Mof_C 	C 	0.5485	0.6519	0.3903	-0.064
Mof_C 	C 	0.9667	0.1611	0.2501	0.316
Mof_C 	C 	0.8478	0.0971	0.3069	0.134
Mof_C 	C 	0.8756	0.0287	0.4209	-0.491
Mof_C 	C 	0.7798	0.951	0.4976	0.498
Mof_C 	C 	0.5553	0.9869	0.2217	0.369
Mof_C 	C 	0.6539	0.8962	0.1498	-0.041
Mof_C 	C 	0.8105	0.8599	0.1225	-0.067
Mof_C 	C 	0.8935	0.7797	0.0545	0.056
Mof_C 	C 	0.6838	0.7638	0.0442	0.041
Mof_C 	C 	0.5907	0.8481	0.1097	-0.063
Mof_C 	C 	0.3779	0.3389	0.2499	0.302
Mof_C 	C 	0.2518	0.4029	0.1931	0.141
Mof_C 	C 	0.3252	0.4713	0.0791	-0.5
Mof_C 	C 	0.2284	0.549	0.0024	0.485
Mof_N 	N 	0.42076	0.23008	0.5154	-0.217
Mof_N 	N 	0.16624	0.26992	0.9846	-0.215
Mof_N 	N 	0.57924	0.76992	0.4846	-0.217
Mof_N 	N 	0.83376	0.73008	0.0154	-0.215
Mof_O 	O 	0.33067	0.53046	0.7178	-0.454
Mof_O 	O 	0.10113	0.50714	0.7792	-0.422
Mof_O 	O 	0.08073	0.73444	0.7939	-0.539
Mof_O 	O 	0.89668	0.89374	0.7585	-0.423
Mof_O 	O 	0.29973	0.82434	0.676	-0.515
Mof_O 	O 	0.35873	0.02364	0.4967	-0.564
Mof_O 	O 	0.15871	0.12828	0.4331	-0.492
Mof_O 	O 	0.57893	0.96954	0.7822	-0.454
Mof_O 	O 	0.38747	0.99286	0.7208	-0.424
Mof_O 	O 	0.60907	0.76556	0.7061	-0.539
Mof_O 	O 	0.54892	0.60626	0.7415	-0.412
Mof_O 	O 	0.80007	0.67566	0.824	-0.519
Mof_O 	O 	0.87907	0.47636	0.0033	-0.552
Mof_O 	O 	0.72009	0.37172	0.0669	-0.483
Mof_O 	O 	0.66933	0.46954	0.2822	-0.454
Mof_O 	O 	0.89887	0.49286	0.2208	-0.422
Mof_O 	O 	0.91927	0.26556	0.2061	-0.539
Mof_O 	O 	0.10332	0.10626	0.2415	-0.423
Mof_O 	O 	0.70027	0.17566	0.324	-0.515
Mof_O 	O 	0.64127	0.97636	0.5033	-0.564
Mof_O 	O 	0.84129	0.87172	0.5669	-0.492
Mof_O 	O 	0.42107	0.03046	0.2178	-0.454
Mof_O 	O 	0.61253	0.00714	0.2792	-0.424
Mof_O 	O 	0.39093	0.23444	0.2939	-0.539
Mof_O 	O 	0.45108	0.39374	0.2585	-0.412
Mof_O 	O 	0.19993	0.32434	0.176	-0.519
Mof_O 	O 	0.12093	0.52364	0.9967	-0.552
Mof_O 	O 	0.27991	0.62828	0.9331	-0.483
_end
