data_functionalizedCrystal
_audit_creation_method	'EQeq! by Chris Wilmer'
_symmetry_space_group_name_H-M	'P1'
_symmetry_Int_Tables_number	1
_symmetry_cell_setting	triclinic
loop_
_symmetry_equiv_pos_as_xyz
  x,y,z
_cell_length_a	26.8328
_cell_length_b	26.8328
_cell_length_c	26.8328
_cell_angle_alpha	98.4403
_cell_angle_beta	98.4403
_cell_angle_gamma	98.4403
loop_
_atom_site_label
_atom_site_type_symbol
_atom_site_fract_x
_atom_site_fract_y
_atom_site_fract_z
_atom_site_charge
Mof_Na	Na	0.0615	0.6507	0.3272	2.537
Mof_Na	Na	0.8393	0.6721	0.2625	2.861
Mof_Na	Na	0.3272	0.0615	0.6507	2.537
Mof_Na	Na	0.2625	0.8393	0.6721	2.861
Mof_Na	Na	0.6507	0.3272	0.0615	2.537
Mof_Na	Na	0.6721	0.2625	0.8393	2.861
Mof_Na	Na	0.3493	0.9385	0.6728	2.479
Mof_Na	Na	0.3279	0.1607	0.7375	2.852
Mof_Na	Na	0.9385	0.6728	0.3493	2.479
Mof_Na	Na	0.1607	0.7375	0.3279	2.852
Mof_Na	Na	0.6728	0.3493	0.9385	2.479
Mof_Na	Na	0.7375	0.3279	0.1607	2.852
Mof_Na	Na	0.9385	0.3493	0.6728	2.479
Mof_Na	Na	0.1607	0.3279	0.7375	2.852
Mof_Na	Na	0.6728	0.9385	0.3493	2.479
Mof_Na	Na	0.7375	0.1607	0.3279	2.852
Mof_Na	Na	0.3493	0.6728	0.9385	2.479
Mof_Na	Na	0.3279	0.7375	0.1607	2.852
Mof_Na	Na	0.6507	0.0615	0.3272	2.537
Mof_Na	Na	0.6721	0.8393	0.2625	2.861
Mof_Na	Na	0.0615	0.3272	0.6507	2.537
Mof_Na	Na	0.8393	0.2625	0.6721	2.861
Mof_Na	Na	0.3272	0.6507	0.0615	2.537
Mof_Na	Na	0.2625	0.6721	0.8393	2.861
Mof_Cd	Cd	0.86592	0.65468	0.03055	0.443
Mof_Cd	Cd	0.04201	0.59622	0.20473	0.365
Mof_Cd	Cd	0.03055	0.86592	0.65468	0.443
Mof_Cd	Cd	0.20473	0.04201	0.59622	0.365
Mof_Cd	Cd	0.65468	0.03055	0.86592	0.443
Mof_Cd	Cd	0.59622	0.20473	0.04201	0.365
Mof_Cd	Cd	0.34532	0.13408	0.96945	0.425
Mof_Cd	Cd	0.40378	0.95799	0.79527	0.35
Mof_Cd	Cd	0.13408	0.96945	0.34532	0.425
Mof_Cd	Cd	0.95799	0.79527	0.40378	0.35
Mof_Cd	Cd	0.96945	0.34532	0.13408	0.425
Mof_Cd	Cd	0.79527	0.40378	0.95799	0.35
Mof_Cd	Cd	0.13408	0.34532	0.96945	0.425
Mof_Cd	Cd	0.95799	0.40378	0.79527	0.35
Mof_Cd	Cd	0.96945	0.13408	0.34532	0.425
Mof_Cd	Cd	0.79527	0.95799	0.40378	0.35
Mof_Cd	Cd	0.34532	0.96945	0.13408	0.425
Mof_Cd	Cd	0.40378	0.79527	0.95799	0.35
Mof_Cd	Cd	0.65468	0.86592	0.03055	0.444
Mof_Cd	Cd	0.59622	0.04201	0.20473	0.366
Mof_Cd	Cd	0.86592	0.03055	0.65468	0.444
Mof_Cd	Cd	0.04201	0.20473	0.59622	0.366
Mof_Cd	Cd	0.03055	0.65468	0.86592	0.444
Mof_Cd	Cd	0.20473	0.59622	0.04201	0.366
Mof_H 	H 	0.9757	0.6018	0.0779	-0.007
Mof_H 	H 	0.8801	0.5225	0.0026	0.01
Mof_H 	H 	0.0779	0.9757	0.6018	-0.007
Mof_H 	H 	0.0026	0.8801	0.5225	0.01
Mof_H 	H 	0.6018	0.0779	0.9757	-0.007
Mof_H 	H 	0.5225	0.0026	0.8801	0.01
Mof_H 	H 	0.3982	0.0243	0.9221	-0.006
Mof_H 	H 	0.4775	0.1199	0.9974	-0.018
Mof_H 	H 	0.0243	0.9221	0.3982	-0.006
Mof_H 	H 	0.1199	0.9974	0.4775	-0.018
Mof_H 	H 	0.9221	0.3982	0.0243	-0.006
Mof_H 	H 	0.9974	0.4775	0.1199	-0.018
Mof_H 	H 	0.0243	0.3982	0.9221	-0.006
Mof_H 	H 	0.1199	0.4775	0.9974	-0.018
Mof_H 	H 	0.9221	0.0243	0.3982	-0.006
Mof_H 	H 	0.9974	0.1199	0.4775	-0.018
Mof_H 	H 	0.3982	0.9221	0.0243	-0.006
Mof_H 	H 	0.4775	0.9974	0.1199	-0.018
Mof_H 	H 	0.6018	0.9757	0.0779	-0.007
Mof_H 	H 	0.5225	0.8801	0.0026	0.01
Mof_H 	H 	0.9757	0.0779	0.6018	-0.007
Mof_H 	H 	0.8801	0.0026	0.5225	0.01
Mof_H 	H 	0.0779	0.6018	0.9757	-0.007
Mof_H 	H 	0.0026	0.5225	0.8801	0.01
Mof_H 	H 	0.9553	0.6047	0.9553	-0.004
Mof_H 	H 	0.0916	0.5586	0.0916	-0.003
Mof_H 	H 	0.9553	0.9553	0.6047	-0.004
Mof_H 	H 	0.0916	0.0916	0.5586	-0.003
Mof_H 	H 	0.6047	0.9553	0.9553	-0.004
Mof_H 	H 	0.5586	0.0916	0.0916	-0.003
Mof_H 	H 	0.3953	0.0447	0.0447	0.004
Mof_H 	H 	0.4414	0.9084	0.9084	-0.009
Mof_H 	H 	0.0447	0.0447	0.3953	0.004
Mof_H 	H 	0.9084	0.9084	0.4414	-0.009
Mof_H 	H 	0.0447	0.3953	0.0447	0.004
Mof_H 	H 	0.9084	0.4414	0.9084	-0.009
Mof_C 	C 	0.9271	0.7107	0.96	0.004
Mof_C 	C 	0.9	0.7483	0.9816	0.235
Mof_C 	C 	0.9594	0.6153	0.1047	0.1
Mof_C 	C 	0.9077	0.6525	0.1447	-0.065
Mof_C 	C 	0.9443	0.638	0.1796	-0.154
Mof_C 	C 	0.9514	0.6455	0.2355	0.645
Mof_C 	C 	0.8642	0.6803	0.1469	0.46
Mof_C 	C 	0.8459	0.5275	0.9928	0.069
Mof_C 	C 	0.764	0.51	0.9635	-0.071
Mof_C 	C 	0.7803	0.5627	0.9788	0.018
Mof_C 	C 	0.7546	0.609	0.9795	0.264
Mof_C 	C 	0.7154	0.4795	0.9412	0.394
Mof_C 	C 	0.145	0.6719	0.2312	0.389
Mof_C 	C 	0.1441	0.6415	0.1785	-0.026
Mof_C 	C 	0.96	0.9271	0.7107	0.004
Mof_C 	C 	0.9816	0.9	0.7483	0.235
Mof_C 	C 	0.1047	0.9594	0.6153	0.1
Mof_C 	C 	0.1447	0.9077	0.6525	-0.065
Mof_C 	C 	0.1796	0.9443	0.638	-0.154
Mof_C 	C 	0.2355	0.9514	0.6455	0.645
Mof_C 	C 	0.1469	0.8642	0.6803	0.46
Mof_C 	C 	0.9928	0.8459	0.5275	0.069
Mof_C 	C 	0.9635	0.764	0.51	-0.071
Mof_C 	C 	0.9788	0.7803	0.5627	0.018
Mof_C 	C 	0.9795	0.7546	0.609	0.264
Mof_C 	C 	0.9412	0.7154	0.4795	0.394
Mof_C 	C 	0.2312	0.145	0.6719	0.389
Mof_C 	C 	0.1785	0.1441	0.6415	-0.026
Mof_C 	C 	0.7107	0.96	0.9271	0.004
Mof_C 	C 	0.7483	0.9816	0.9	0.235
Mof_C 	C 	0.6153	0.1047	0.9594	0.1
Mof_C 	C 	0.6525	0.1447	0.9077	-0.065
Mof_C 	C 	0.638	0.1796	0.9443	-0.154
Mof_C 	C 	0.6455	0.2355	0.9514	0.645
Mof_C 	C 	0.6803	0.1469	0.8642	0.46
Mof_C 	C 	0.5275	0.9928	0.8459	0.069
Mof_C 	C 	0.51	0.9635	0.764	-0.071
Mof_C 	C 	0.5627	0.9788	0.7803	0.018
Mof_C 	C 	0.609	0.9795	0.7546	0.264
Mof_C 	C 	0.4795	0.9412	0.7154	0.394
Mof_C 	C 	0.6719	0.2312	0.145	0.389
Mof_C 	C 	0.6415	0.1785	0.1441	-0.026
Mof_C 	C 	0.2893	0.0729	0.04	0.003
Mof_C 	C 	0.2517	0.1	0.0184	0.262
Mof_C 	C 	0.3847	0.0406	0.8953	0.101
Mof_C 	C 	0.3475	0.0923	0.8553	-0.065
Mof_C 	C 	0.362	0.0557	0.8204	-0.15
Mof_C 	C 	0.3545	0.0486	0.7645	0.644
Mof_C 	C 	0.3197	0.1358	0.8531	0.461
Mof_C 	C 	0.4725	0.1541	0.0072	0.109
Mof_C 	C 	0.49	0.236	0.0365	-0.07
Mof_C 	C 	0.4373	0.2197	0.0212	0.022
Mof_C 	C 	0.391	0.2454	0.0205	0.263
Mof_C 	C 	0.5205	0.2846	0.0588	0.398
Mof_C 	C 	0.3281	0.855	0.7688	0.386
Mof_C 	C 	0.3585	0.8559	0.8215	-0.027
Mof_C 	C 	0.0729	0.04	0.2893	0.003
Mof_C 	C 	0.1	0.0184	0.2517	0.262
Mof_C 	C 	0.0406	0.8953	0.3847	0.101
Mof_C 	C 	0.0923	0.8553	0.3475	-0.065
Mof_C 	C 	0.0557	0.8204	0.362	-0.15
Mof_C 	C 	0.0486	0.7645	0.3545	0.644
Mof_C 	C 	0.1358	0.8531	0.3197	0.461
Mof_C 	C 	0.1541	0.0072	0.4725	0.109
Mof_C 	C 	0.236	0.0365	0.49	-0.07
Mof_C 	C 	0.2197	0.0212	0.4373	0.022
Mof_C 	C 	0.2454	0.0205	0.391	0.263
Mof_C 	C 	0.2846	0.0588	0.5205	0.398
Mof_C 	C 	0.855	0.7688	0.3281	0.386
Mof_C 	C 	0.8559	0.8215	0.3585	-0.027
Mof_C 	C 	0.04	0.2893	0.0729	0.003
Mof_C 	C 	0.0184	0.2517	0.1	0.262
Mof_C 	C 	0.8953	0.3847	0.0406	0.101
Mof_C 	C 	0.8553	0.3475	0.0923	-0.065
Mof_C 	C 	0.8204	0.362	0.0557	-0.15
Mof_C 	C 	0.7645	0.3545	0.0486	0.644
Mof_C 	C 	0.8531	0.3197	0.1358	0.461
Mof_C 	C 	0.0072	0.4725	0.1541	0.109
Mof_C 	C 	0.0365	0.49	0.236	-0.07
Mof_C 	C 	0.0212	0.4373	0.2197	0.022
Mof_C 	C 	0.0205	0.391	0.2454	0.263
Mof_C 	C 	0.0588	0.5205	0.2846	0.398
Mof_C 	C 	0.7688	0.3281	0.855	0.386
Mof_C 	C 	0.8215	0.3585	0.8559	-0.027
Mof_C 	C 	0.0729	0.2893	0.04	0.003
Mof_C 	C 	0.1	0.2517	0.0184	0.262
Mof_C 	C 	0.0406	0.3847	0.8953	0.101
Mof_C 	C 	0.0923	0.3475	0.8553	-0.065
Mof_C 	C 	0.0557	0.362	0.8204	-0.15
Mof_C 	C 	0.0486	0.3545	0.7645	0.644
Mof_C 	C 	0.1358	0.3197	0.8531	0.461
Mof_C 	C 	0.1541	0.4725	0.0072	0.109
Mof_C 	C 	0.236	0.49	0.0365	-0.07
Mof_C 	C 	0.2197	0.4373	0.0212	0.022
Mof_C 	C 	0.2454	0.391	0.0205	0.263
Mof_C 	C 	0.2846	0.5205	0.0588	0.398
Mof_C 	C 	0.855	0.3281	0.7688	0.386
Mof_C 	C 	0.8559	0.3585	0.8215	-0.027
Mof_C 	C 	0.04	0.0729	0.2893	0.003
Mof_C 	C 	0.0184	0.1	0.2517	0.262
Mof_C 	C 	0.8953	0.0406	0.3847	0.101
Mof_C 	C 	0.8553	0.0923	0.3475	-0.065
Mof_C 	C 	0.8204	0.0557	0.362	-0.15
Mof_C 	C 	0.7645	0.0486	0.3545	0.644
Mof_C 	C 	0.8531	0.1358	0.3197	0.461
Mof_C 	C 	0.0072	0.1541	0.4725	0.109
Mof_C 	C 	0.0365	0.236	0.49	-0.07
Mof_C 	C 	0.0212	0.2197	0.4373	0.022
Mof_C 	C 	0.0205	0.2454	0.391	0.263
Mof_C 	C 	0.0588	0.2846	0.5205	0.398
Mof_C 	C 	0.7688	0.855	0.3281	0.386
Mof_C 	C 	0.8215	0.8559	0.3585	-0.027
Mof_C 	C 	0.2893	0.04	0.0729	0.003
Mof_C 	C 	0.2517	0.0184	0.1	0.262
Mof_C 	C 	0.3847	0.8953	0.0406	0.101
Mof_C 	C 	0.3475	0.8553	0.0923	-0.065
Mof_C 	C 	0.362	0.8204	0.0557	-0.15
Mof_C 	C 	0.3545	0.7645	0.0486	0.644
Mof_C 	C 	0.3197	0.8531	0.1358	0.461
Mof_C 	C 	0.4725	0.0072	0.1541	0.109
Mof_C 	C 	0.49	0.0365	0.236	-0.07
Mof_C 	C 	0.4373	0.0212	0.2197	0.022
Mof_C 	C 	0.391	0.0205	0.2454	0.263
Mof_C 	C 	0.5205	0.0588	0.2846	0.398
Mof_C 	C 	0.3281	0.7688	0.855	0.386
Mof_C 	C 	0.3585	0.8215	0.8559	-0.027
Mof_C 	C 	0.7107	0.9271	0.96	0.004
Mof_C 	C 	0.7483	0.9	0.9816	0.235
Mof_C 	C 	0.6153	0.9594	0.1047	0.1
Mof_C 	C 	0.6525	0.9077	0.1447	-0.065
Mof_C 	C 	0.638	0.9443	0.1796	-0.154
Mof_C 	C 	0.6455	0.9514	0.2355	0.645
Mof_C 	C 	0.6803	0.8642	0.1469	0.46
Mof_C 	C 	0.5275	0.8459	0.9928	0.069
Mof_C 	C 	0.51	0.764	0.9635	-0.071
Mof_C 	C 	0.5627	0.7803	0.9788	0.018
Mof_C 	C 	0.609	0.7546	0.9795	0.264
Mof_C 	C 	0.4795	0.7154	0.9412	0.394
Mof_C 	C 	0.6719	0.145	0.2312	0.389
Mof_C 	C 	0.6415	0.1441	0.1785	-0.026
Mof_C 	C 	0.9271	0.96	0.7107	0.004
Mof_C 	C 	0.9	0.9816	0.7483	0.235
Mof_C 	C 	0.9594	0.1047	0.6153	0.1
Mof_C 	C 	0.9077	0.1447	0.6525	-0.065
Mof_C 	C 	0.9443	0.1796	0.638	-0.154
Mof_C 	C 	0.9514	0.2355	0.6455	0.645
Mof_C 	C 	0.8642	0.1469	0.6803	0.46
Mof_C 	C 	0.8459	0.9928	0.5275	0.069
Mof_C 	C 	0.764	0.9635	0.51	-0.071
Mof_C 	C 	0.7803	0.9788	0.5627	0.018
Mof_C 	C 	0.7546	0.9795	0.609	0.264
Mof_C 	C 	0.7154	0.9412	0.4795	0.394
Mof_C 	C 	0.145	0.2312	0.6719	0.389
Mof_C 	C 	0.1441	0.1785	0.6415	-0.026
Mof_C 	C 	0.96	0.7107	0.9271	0.004
Mof_C 	C 	0.9816	0.7483	0.9	0.235
Mof_C 	C 	0.1047	0.6153	0.9594	0.1
Mof_C 	C 	0.1447	0.6525	0.9077	-0.065
Mof_C 	C 	0.1796	0.638	0.9443	-0.154
Mof_C 	C 	0.2355	0.6455	0.9514	0.645
Mof_C 	C 	0.1469	0.6803	0.8642	0.46
Mof_C 	C 	0.9928	0.5275	0.8459	0.069
Mof_C 	C 	0.9635	0.51	0.764	-0.071
Mof_C 	C 	0.9788	0.5627	0.7803	0.018
Mof_C 	C 	0.9795	0.609	0.7546	0.264
Mof_C 	C 	0.9412	0.4795	0.7154	0.394
Mof_C 	C 	0.2312	0.6719	0.145	0.389
Mof_C 	C 	0.1785	0.6415	0.1441	-0.026
Mof_C 	C 	0.9514	0.6386	0.9514	0.092
Mof_C 	C 	0.1139	0.5863	0.1139	0.105
Mof_C 	C 	0.9514	0.9514	0.6386	0.092
Mof_C 	C 	0.1139	0.1139	0.5863	0.105
Mof_C 	C 	0.6386	0.9514	0.9514	0.092
Mof_C 	C 	0.5863	0.1139	0.1139	0.105
Mof_C 	C 	0.3614	0.0486	0.0486	0.095
Mof_C 	C 	0.4137	0.8861	0.8861	0.102
Mof_C 	C 	0.0486	0.0486	0.3614	0.095
Mof_C 	C 	0.8861	0.8861	0.4137	0.102
Mof_C 	C 	0.0486	0.3614	0.0486	0.095
Mof_C 	C 	0.8861	0.4137	0.8861	0.102
Mof_N 	N 	0.9206	0.6655	0.976	-0.146
Mof_N 	N 	0.9189	0.6359	0.097	-0.144
Mof_N 	N 	0.9763	0.6149	0.1542	-0.136
Mof_N 	N 	0.8067	0.4889	0.9737	-0.137
Mof_N 	N 	0.8318	0.5737	0.9967	-0.149
Mof_N 	N 	0.1034	0.6071	0.1579	-0.15
Mof_N 	N 	0.976	0.9206	0.6655	-0.146
Mof_N 	N 	0.097	0.9189	0.6359	-0.144
Mof_N 	N 	0.1542	0.9763	0.6149	-0.136
Mof_N 	N 	0.9737	0.8067	0.4889	-0.137
Mof_N 	N 	0.9967	0.8318	0.5737	-0.149
Mof_N 	N 	0.1579	0.1034	0.6071	-0.15
Mof_N 	N 	0.6655	0.976	0.9206	-0.146
Mof_N 	N 	0.6359	0.097	0.9189	-0.144
Mof_N 	N 	0.6149	0.1542	0.9763	-0.136
Mof_N 	N 	0.4889	0.9737	0.8067	-0.137
Mof_N 	N 	0.5737	0.9967	0.8318	-0.149
Mof_N 	N 	0.6071	0.1579	0.1034	-0.15
Mof_N 	N 	0.3345	0.0794	0.024	-0.138
Mof_N 	N 	0.3641	0.0811	0.903	-0.145
Mof_N 	N 	0.3851	0.0237	0.8458	-0.131
Mof_N 	N 	0.5111	0.1933	0.0263	-0.141
Mof_N 	N 	0.4263	0.1682	0.0033	-0.149
Mof_N 	N 	0.3929	0.8966	0.8421	-0.151
Mof_N 	N 	0.0794	0.024	0.3345	-0.138
Mof_N 	N 	0.0811	0.903	0.3641	-0.145
Mof_N 	N 	0.0237	0.8458	0.3851	-0.131
Mof_N 	N 	0.1933	0.0263	0.5111	-0.141
Mof_N 	N 	0.1682	0.0033	0.4263	-0.149
Mof_N 	N 	0.8966	0.8421	0.3929	-0.151
Mof_N 	N 	0.024	0.3345	0.0794	-0.138
Mof_N 	N 	0.903	0.3641	0.0811	-0.145
Mof_N 	N 	0.8458	0.3851	0.0237	-0.131
Mof_N 	N 	0.0263	0.5111	0.1933	-0.141
Mof_N 	N 	0.0033	0.4263	0.1682	-0.149
Mof_N 	N 	0.8421	0.3929	0.8966	-0.151
Mof_N 	N 	0.0794	0.3345	0.024	-0.138
Mof_N 	N 	0.0811	0.3641	0.903	-0.145
Mof_N 	N 	0.0237	0.3851	0.8458	-0.131
Mof_N 	N 	0.1933	0.5111	0.0263	-0.141
Mof_N 	N 	0.1682	0.4263	0.0033	-0.149
Mof_N 	N 	0.8966	0.3929	0.8421	-0.151
Mof_N 	N 	0.024	0.0794	0.3345	-0.138
Mof_N 	N 	0.903	0.0811	0.3641	-0.145
Mof_N 	N 	0.8458	0.0237	0.3851	-0.131
Mof_N 	N 	0.0263	0.1933	0.5111	-0.141
Mof_N 	N 	0.0033	0.1682	0.4263	-0.149
Mof_N 	N 	0.8421	0.8966	0.3929	-0.151
Mof_N 	N 	0.3345	0.024	0.0794	-0.138
Mof_N 	N 	0.3641	0.903	0.0811	-0.145
Mof_N 	N 	0.3851	0.8458	0.0237	-0.131
Mof_N 	N 	0.5111	0.0263	0.1933	-0.141
Mof_N 	N 	0.4263	0.0033	0.1682	-0.149
Mof_N 	N 	0.3929	0.8421	0.8966	-0.151
Mof_N 	N 	0.6655	0.9206	0.976	-0.146
Mof_N 	N 	0.6359	0.9189	0.097	-0.144
Mof_N 	N 	0.6149	0.9763	0.1542	-0.136
Mof_N 	N 	0.4889	0.8067	0.9737	-0.137
Mof_N 	N 	0.5737	0.8318	0.9967	-0.149
Mof_N 	N 	0.6071	0.1034	0.1579	-0.15
Mof_N 	N 	0.9206	0.976	0.6655	-0.146
Mof_N 	N 	0.9189	0.097	0.6359	-0.144
Mof_N 	N 	0.9763	0.1542	0.6149	-0.136
Mof_N 	N 	0.8067	0.9737	0.4889	-0.137
Mof_N 	N 	0.8318	0.9967	0.5737	-0.149
Mof_N 	N 	0.1034	0.1579	0.6071	-0.15
Mof_N 	N 	0.976	0.6655	0.9206	-0.146
Mof_N 	N 	0.097	0.6359	0.9189	-0.144
Mof_N 	N 	0.1542	0.6149	0.9763	-0.136
Mof_N 	N 	0.9737	0.4889	0.8067	-0.137
Mof_N 	N 	0.9967	0.5737	0.8318	-0.149
Mof_N 	N 	0.1579	0.6071	0.1034	-0.15
Mof_O 	O 	0.8707	0.7401	0.0131	-0.215
Mof_O 	O 	0.9048	0.7934	0.9668	-0.16
Mof_O 	O 	0.9939	0.6353	0.2569	-0.784
Mof_O 	O 	0.9195	0.6584	0.2623	-1.142
Mof_O 	O 	0.8415	0.688	0.1046	-0.319
Mof_O 	O 	0.8515	0.6948	0.1877	-0.728
Mof_O 	O 	0.778	0.6501	0.9966	-0.26
Mof_O 	O 	0.7044	0.594	0.9592	-0.184
Mof_O 	O 	0.7122	0.4309	0.9327	-0.621
Mof_O 	O 	0.6772	0.5021	0.9325	-0.276
Mof_O 	O 	0.1104	0.6637	0.2533	-0.757
Mof_O 	O 	0.1873	0.7073	0.2483	-0.607
Mof_O 	O 	0.1488	0.6629	0.3699	-0.807
Mof_O 	O 	0.777	0.608	0.205	-0.552
Mof_O 	O 	0.0131	0.8707	0.7401	-0.215
Mof_O 	O 	0.9668	0.9048	0.7934	-0.16
Mof_O 	O 	0.2569	0.9939	0.6353	-0.784
Mof_O 	O 	0.2623	0.9195	0.6584	-1.142
Mof_O 	O 	0.1046	0.8415	0.688	-0.319
Mof_O 	O 	0.1877	0.8515	0.6948	-0.728
Mof_O 	O 	0.9966	0.778	0.6501	-0.26
Mof_O 	O 	0.9592	0.7044	0.594	-0.184
Mof_O 	O 	0.9327	0.7122	0.4309	-0.621
Mof_O 	O 	0.9325	0.6772	0.5021	-0.276
Mof_O 	O 	0.2533	0.1104	0.6637	-0.757
Mof_O 	O 	0.2483	0.1873	0.7073	-0.607
Mof_O 	O 	0.3699	0.1488	0.6629	-0.807
Mof_O 	O 	0.205	0.777	0.608	-0.552
Mof_O 	O 	0.7401	0.0131	0.8707	-0.215
Mof_O 	O 	0.7934	0.9668	0.9048	-0.16
Mof_O 	O 	0.6353	0.2569	0.9939	-0.784
Mof_O 	O 	0.6584	0.2623	0.9195	-1.142
Mof_O 	O 	0.688	0.1046	0.8415	-0.319
Mof_O 	O 	0.6948	0.1877	0.8515	-0.728
Mof_O 	O 	0.6501	0.9966	0.778	-0.26
Mof_O 	O 	0.594	0.9592	0.7044	-0.184
Mof_O 	O 	0.4309	0.9327	0.7122	-0.621
Mof_O 	O 	0.5021	0.9325	0.6772	-0.276
Mof_O 	O 	0.6637	0.2533	0.1104	-0.757
Mof_O 	O 	0.7073	0.2483	0.1873	-0.607
Mof_O 	O 	0.6629	0.3699	0.1488	-0.807
Mof_O 	O 	0.608	0.205	0.777	-0.552
Mof_O 	O 	0.2599	0.1293	0.9869	-0.236
Mof_O 	O 	0.2066	0.0952	0.0332	-0.154
Mof_O 	O 	0.3647	0.0061	0.7431	-0.764
Mof_O 	O 	0.3416	0.0805	0.7377	-1.144
Mof_O 	O 	0.312	0.1585	0.8954	-0.319
Mof_O 	O 	0.3052	0.1485	0.8123	-0.726
Mof_O 	O 	0.3499	0.222	0.0034	-0.246
Mof_O 	O 	0.406	0.2956	0.0408	-0.179
Mof_O 	O 	0.5691	0.2878	0.0673	-0.627
Mof_O 	O 	0.4979	0.3228	0.0675	-0.274
Mof_O 	O 	0.3363	0.8896	0.7467	-0.754
Mof_O 	O 	0.2927	0.8127	0.7517	-0.608
Mof_O 	O 	0.3371	0.8512	0.6301	-0.803
Mof_O 	O 	0.392	0.223	0.795	-0.552
Mof_O 	O 	0.1293	0.9869	0.2599	-0.236
Mof_O 	O 	0.0952	0.0332	0.2066	-0.154
Mof_O 	O 	0.0061	0.7431	0.3647	-0.764
Mof_O 	O 	0.0805	0.7377	0.3416	-1.144
Mof_O 	O 	0.1585	0.8954	0.312	-0.319
Mof_O 	O 	0.1485	0.8123	0.3052	-0.726
Mof_O 	O 	0.222	0.0034	0.3499	-0.246
Mof_O 	O 	0.2956	0.0408	0.406	-0.179
Mof_O 	O 	0.2878	0.0673	0.5691	-0.627
Mof_O 	O 	0.3228	0.0675	0.4979	-0.274
Mof_O 	O 	0.8896	0.7467	0.3363	-0.754
Mof_O 	O 	0.8127	0.7517	0.2927	-0.608
Mof_O 	O 	0.8512	0.6301	0.3371	-0.803
Mof_O 	O 	0.223	0.795	0.392	-0.552
Mof_O 	O 	0.9869	0.2599	0.1293	-0.236
Mof_O 	O 	0.0332	0.2066	0.0952	-0.154
Mof_O 	O 	0.7431	0.3647	0.0061	-0.764
Mof_O 	O 	0.7377	0.3416	0.0805	-1.144
Mof_O 	O 	0.8954	0.312	0.1585	-0.319
Mof_O 	O 	0.8123	0.3052	0.1485	-0.726
Mof_O 	O 	0.0034	0.3499	0.222	-0.246
Mof_O 	O 	0.0408	0.406	0.2956	-0.179
Mof_O 	O 	0.0673	0.5691	0.2878	-0.627
Mof_O 	O 	0.0675	0.4979	0.3228	-0.274
Mof_O 	O 	0.7467	0.3363	0.8896	-0.754
Mof_O 	O 	0.7517	0.2927	0.8127	-0.608
Mof_O 	O 	0.6301	0.3371	0.8512	-0.803
Mof_O 	O 	0.795	0.392	0.223	-0.552
Mof_O 	O 	0.1293	0.2599	0.9869	-0.236
Mof_O 	O 	0.0952	0.2066	0.0332	-0.154
Mof_O 	O 	0.0061	0.3647	0.7431	-0.764
Mof_O 	O 	0.0805	0.3416	0.7377	-1.144
Mof_O 	O 	0.1585	0.312	0.8954	-0.319
Mof_O 	O 	0.1485	0.3052	0.8123	-0.726
Mof_O 	O 	0.222	0.3499	0.0034	-0.246
Mof_O 	O 	0.2956	0.406	0.0408	-0.179
Mof_O 	O 	0.2878	0.5691	0.0673	-0.627
Mof_O 	O 	0.3228	0.4979	0.0675	-0.274
Mof_O 	O 	0.8896	0.3363	0.7467	-0.754
Mof_O 	O 	0.8127	0.2927	0.7517	-0.608
Mof_O 	O 	0.8512	0.3371	0.6301	-0.803
Mof_O 	O 	0.223	0.392	0.795	-0.552
Mof_O 	O 	0.9869	0.1293	0.2599	-0.236
Mof_O 	O 	0.0332	0.0952	0.2066	-0.154
Mof_O 	O 	0.7431	0.0061	0.3647	-0.764
Mof_O 	O 	0.7377	0.0805	0.3416	-1.144
Mof_O 	O 	0.8954	0.1585	0.312	-0.319
Mof_O 	O 	0.8123	0.1485	0.3052	-0.726
Mof_O 	O 	0.0034	0.222	0.3499	-0.246
Mof_O 	O 	0.0408	0.2956	0.406	-0.179
Mof_O 	O 	0.0673	0.2878	0.5691	-0.627
Mof_O 	O 	0.0675	0.3228	0.4979	-0.274
Mof_O 	O 	0.7467	0.8896	0.3363	-0.754
Mof_O 	O 	0.7517	0.8127	0.2927	-0.608
Mof_O 	O 	0.6301	0.8512	0.3371	-0.803
Mof_O 	O 	0.795	0.223	0.392	-0.552
Mof_O 	O 	0.2599	0.9869	0.1293	-0.236
Mof_O 	O 	0.2066	0.0332	0.0952	-0.154
Mof_O 	O 	0.3647	0.7431	0.0061	-0.764
Mof_O 	O 	0.3416	0.7377	0.0805	-1.144
Mof_O 	O 	0.312	0.8954	0.1585	-0.319
Mof_O 	O 	0.3052	0.8123	0.1485	-0.726
Mof_O 	O 	0.3499	0.0034	0.222	-0.246
Mof_O 	O 	0.406	0.0408	0.2956	-0.179
Mof_O 	O 	0.5691	0.0673	0.2878	-0.627
Mof_O 	O 	0.4979	0.0675	0.3228	-0.274
Mof_O 	O 	0.3363	0.7467	0.8896	-0.754
Mof_O 	O 	0.2927	0.7517	0.8127	-0.608
Mof_O 	O 	0.3371	0.6301	0.8512	-0.803
Mof_O 	O 	0.392	0.795	0.223	-0.552
Mof_O 	O 	0.7401	0.8707	0.0131	-0.215
Mof_O 	O 	0.7934	0.9048	0.9668	-0.16
Mof_O 	O 	0.6353	0.9939	0.2569	-0.784
Mof_O 	O 	0.6584	0.9195	0.2623	-1.142
Mof_O 	O 	0.688	0.8415	0.1046	-0.319
Mof_O 	O 	0.6948	0.8515	0.1877	-0.728
Mof_O 	O 	0.6501	0.778	0.9966	-0.26
Mof_O 	O 	0.594	0.7044	0.9592	-0.184
Mof_O 	O 	0.4309	0.7122	0.9327	-0.621
Mof_O 	O 	0.5021	0.6772	0.9325	-0.276
Mof_O 	O 	0.6637	0.1104	0.2533	-0.757
Mof_O 	O 	0.7073	0.1873	0.2483	-0.607
Mof_O 	O 	0.6629	0.1488	0.3699	-0.807
Mof_O 	O 	0.608	0.777	0.205	-0.552
Mof_O 	O 	0.8707	0.0131	0.7401	-0.215
Mof_O 	O 	0.9048	0.9668	0.7934	-0.16
Mof_O 	O 	0.9939	0.2569	0.6353	-0.784
Mof_O 	O 	0.9195	0.2623	0.6584	-1.142
Mof_O 	O 	0.8415	0.1046	0.688	-0.319
Mof_O 	O 	0.8515	0.1877	0.6948	-0.728
Mof_O 	O 	0.778	0.9966	0.6501	-0.26
Mof_O 	O 	0.7044	0.9592	0.594	-0.184
Mof_O 	O 	0.7122	0.9327	0.4309	-0.621
Mof_O 	O 	0.6772	0.9325	0.5021	-0.276
Mof_O 	O 	0.1104	0.2533	0.6637	-0.757
Mof_O 	O 	0.1873	0.2483	0.7073	-0.607
Mof_O 	O 	0.1488	0.3699	0.6629	-0.807
Mof_O 	O 	0.777	0.205	0.608	-0.552
Mof_O 	O 	0.0131	0.7401	0.8707	-0.215
Mof_O 	O 	0.9668	0.7934	0.9048	-0.16
Mof_O 	O 	0.2569	0.6353	0.9939	-0.784
Mof_O 	O 	0.2623	0.6584	0.9195	-1.142
Mof_O 	O 	0.1046	0.688	0.8415	-0.319
Mof_O 	O 	0.1877	0.6948	0.8515	-0.728
Mof_O 	O 	0.9966	0.6501	0.778	-0.26
Mof_O 	O 	0.9592	0.594	0.7044	-0.184
Mof_O 	O 	0.9327	0.4309	0.7122	-0.621
Mof_O 	O 	0.9325	0.5021	0.6772	-0.276
Mof_O 	O 	0.2533	0.6637	0.1104	-0.757
Mof_O 	O 	0.2483	0.7073	0.1873	-0.607
Mof_O 	O 	0.3699	0.6629	0.1488	-0.807
Mof_O 	O 	0.205	0.608	0.777	-0.552
Mof_O 	O 	2.89993e-17	0.62215	0.37785	-0.782
Mof_O 	O 	0.37785	-2.44205e-17	0.62215	-0.782
Mof_O 	O 	0.62215	0.37785	-0	-0.782
Mof_O 	O 	4.57884e-17	0.37785	0.62215	-0.782
Mof_O 	O 	0.62215	-1.22102e-17	0.37785	-0.782
Mof_O 	O 	0.37785	0.62215	-0	-0.782
Mof_H 	H 	0.1728	0.8065	0.7615	0.069
Mof_H 	H 	0.0598	0.8016	0.8242	0.069
Mof_H 	H 	0.1268	0.7493	0.7039	0.019
Mof_H 	H 	0.0758	0.6984	0.7653	0.125
Mof_H 	H 	0.1728	0.7615	0.8065	0.069
Mof_H 	H 	0.0598	0.8242	0.8016	0.069
Mof_H 	H 	0.1268	0.7039	0.7493	0.019
Mof_H 	H 	0.0758	0.7653	0.6984	0.125
Mof_C 	C 	0.1604	0.77625	0.77625	-0.107
Mof_C 	C 	0.0795	0.796	0.796	-0.053
Mof_C 	C 	0.0508	0.7601	0.7601	0.142
Mof_C 	C 	0.1276	0.73685	0.73685	0.026
Mof_N 	N 	0.0761	0.7212	0.7428	-0.119
Mof_N 	N 	0.1256	0.7906	0.8168	-0.055
Mof_N 	N 	0.0761	0.7428	0.7212	-0.119
Mof_N 	N 	0.1256	0.8168	0.7906	-0.055
Mof_H 	H 	0.7615	0.1728	0.8065	0.069
Mof_H 	H 	0.8242	0.0598	0.8016	0.069
Mof_H 	H 	0.7039	0.1268	0.7493	0.019
Mof_H 	H 	0.7653	0.0758	0.6984	0.125
Mof_H 	H 	0.8065	0.1728	0.7615	0.069
Mof_H 	H 	0.8016	0.0598	0.8242	0.069
Mof_H 	H 	0.7493	0.1268	0.7039	0.019
Mof_H 	H 	0.6984	0.0758	0.7653	0.125
Mof_C 	C 	0.77625	0.1604	0.77625	-0.107
Mof_C 	C 	0.796	0.0795	0.796	-0.053
Mof_C 	C 	0.7601	0.0508	0.7601	0.142
Mof_C 	C 	0.73685	0.1276	0.73685	0.026
Mof_N 	N 	0.7428	0.0761	0.7212	-0.119
Mof_N 	N 	0.8168	0.1256	0.7906	-0.055
Mof_N 	N 	0.7212	0.0761	0.7428	-0.119
Mof_N 	N 	0.7906	0.1256	0.8168	-0.055
Mof_H 	H 	0.8065	0.7615	0.1728	0.069
Mof_H 	H 	0.8016	0.8242	0.0598	0.069
Mof_H 	H 	0.7493	0.7039	0.1268	0.019
Mof_H 	H 	0.6984	0.7653	0.0758	0.125
Mof_H 	H 	0.7615	0.8065	0.1728	0.069
Mof_H 	H 	0.8242	0.8016	0.0598	0.069
Mof_H 	H 	0.7039	0.7493	0.1268	0.019
Mof_H 	H 	0.7653	0.6984	0.0758	0.125
Mof_C 	C 	0.77625	0.77625	0.1604	-0.107
Mof_C 	C 	0.796	0.796	0.0795	-0.053
Mof_C 	C 	0.7601	0.7601	0.0508	0.142
Mof_C 	C 	0.73685	0.73685	0.1276	0.026
Mof_N 	N 	0.7212	0.7428	0.0761	-0.119
Mof_N 	N 	0.7906	0.8168	0.1256	-0.055
Mof_N 	N 	0.7428	0.7212	0.0761	-0.119
Mof_N 	N 	0.8168	0.7906	0.1256	-0.055
Mof_H 	H 	0.1935	0.8272	0.2385	0.071
Mof_H 	H 	0.1984	0.9402	0.1758	0.066
Mof_H 	H 	0.2507	0.8732	0.2961	0.017
Mof_H 	H 	0.3016	0.9242	0.2347	0.121
Mof_H 	H 	0.2385	0.8272	0.1935	0.071
Mof_H 	H 	0.1758	0.9402	0.1984	0.066
Mof_H 	H 	0.2961	0.8732	0.2507	0.017
Mof_H 	H 	0.2347	0.9242	0.3016	0.121
Mof_C 	C 	0.22375	0.8396	0.22375	-0.108
Mof_C 	C 	0.204	0.9205	0.204	-0.047
Mof_C 	C 	0.2399	0.9492	0.2399	0.132
Mof_C 	C 	0.26315	0.8724	0.26315	0.027
Mof_N 	N 	0.2788	0.9239	0.2572	-0.119
Mof_N 	N 	0.2094	0.8744	0.1832	-0.055
Mof_N 	N 	0.2572	0.9239	0.2788	-0.119
Mof_N 	N 	0.1832	0.8744	0.2094	-0.055
Mof_H 	H 	0.8272	0.2385	0.1935	0.071
Mof_H 	H 	0.9402	0.1758	0.1984	0.066
Mof_H 	H 	0.8732	0.2961	0.2507	0.017
Mof_H 	H 	0.9242	0.2347	0.3016	0.121
Mof_H 	H 	0.8272	0.1935	0.2385	0.071
Mof_H 	H 	0.9402	0.1984	0.1758	0.066
Mof_H 	H 	0.8732	0.2507	0.2961	0.017
Mof_H 	H 	0.9242	0.3016	0.2347	0.121
Mof_C 	C 	0.8396	0.22375	0.22375	-0.108
Mof_C 	C 	0.9205	0.204	0.204	-0.047
Mof_C 	C 	0.9492	0.2399	0.2399	0.132
Mof_C 	C 	0.8724	0.26315	0.26315	0.027
Mof_N 	N 	0.9239	0.2572	0.2788	-0.119
Mof_N 	N 	0.8744	0.1832	0.2094	-0.055
Mof_N 	N 	0.9239	0.2788	0.2572	-0.119
Mof_N 	N 	0.8744	0.2094	0.1832	-0.055
Mof_H 	H 	0.2385	0.1935	0.8272	0.071
Mof_H 	H 	0.1758	0.1984	0.9402	0.066
Mof_H 	H 	0.2961	0.2507	0.8732	0.017
Mof_H 	H 	0.2347	0.3016	0.9242	0.121
Mof_H 	H 	0.1935	0.2385	0.8272	0.071
Mof_H 	H 	0.1984	0.1758	0.9402	0.066
Mof_H 	H 	0.2507	0.2961	0.8732	0.017
Mof_H 	H 	0.3016	0.2347	0.9242	0.121
Mof_C 	C 	0.22375	0.22375	0.8396	-0.108
Mof_C 	C 	0.204	0.204	0.9205	-0.047
Mof_C 	C 	0.2399	0.2399	0.9492	0.132
Mof_C 	C 	0.26315	0.26315	0.8724	0.027
Mof_N 	N 	0.2572	0.2788	0.9239	-0.119
Mof_N 	N 	0.1832	0.2094	0.8744	-0.055
Mof_N 	N 	0.2788	0.2572	0.9239	-0.119
Mof_N 	N 	0.2094	0.1832	0.8744	-0.055
_end
