# CIF file generated by openbabel 3.1.0, see https://openbabel.org
data_I
_chemical_name_common 'CETJAN_clean_h'
_cell_length_a 13.451
_cell_length_b 13.451
_cell_length_c 25.498
_cell_angle_alpha 90
_cell_angle_beta 90
_cell_angle_gamma 90
_space_group_name_H-M_alt 'P 1'
_space_group_name_Hall 'P 1'
loop_
    _symmetry_equiv_pos_as_xyz
    x,y,z
loop_
    _atom_site_label
    _atom_site_type_symbol
    _atom_site_fract_x
    _atom_site_fract_y
    _atom_site_fract_z
    _atom_site_occupancy
    Co1      Co       0.25000    0.25000    0.88824    1.000
    Co2      Co       0.75000    0.75000    0.38824    1.000
    C1       C        0.12650    0.44700    0.89320    1.000
    C2       C        0.40330    0.23040    0.79540    1.000
    C3       C        0.48430    0.25380    0.76400    1.000
    C4       C        0.52660    0.34930    0.76950    1.000
    C5       C        0.48340    0.41780    0.80520    1.000
    C6       C        0.40270    0.38420    0.83470    1.000
    C7       C        0.61130    0.38270    0.73730    1.000
    C8       C        0.72550    0.34040    0.67200    1.000
    C9       C        0.66050    0.22780    0.60420    1.000
    C10      C        0.63480    0.06200    0.57000    1.000
    C11      C        0.66060    0.99420    0.52760    1.000
    C12      C        0.72730    0.01560    0.48930    1.000
    C13      C        0.62230    0.89980    0.52650    1.000
    C14      C        0.74760    0.94780    0.44920    1.000
    C15      C        0.64380    0.83400    0.48670    1.000
    C16      C        0.37350    0.05300    0.89320    1.000
    C17      C        0.09670    0.26960    0.79540    1.000
    C18      C        0.01570    0.24620    0.76400    1.000
    C19      C        0.97340    0.15070    0.76950    1.000
    C20      C        0.01660    0.08220    0.80520    1.000
    C21      C        0.09730    0.11580    0.83470    1.000
    C22      C        0.88870    0.11730    0.73730    1.000
    C23      C        0.77450    0.15960    0.67200    1.000
    C24      C        0.83950    0.27220    0.60420    1.000
    C25      C        0.86520    0.43800    0.57000    1.000
    C26      C        0.83940    0.50580    0.52760    1.000
    C27      C        0.77270    0.48440    0.48930    1.000
    C28      C        0.87770    0.60020    0.52650    1.000
    C29      C        0.75240    0.55220    0.44920    1.000
    C30      C        0.85620    0.66600    0.48670    1.000
    C31      C        0.55300    0.62650    0.39320    1.000
    C32      C        0.76960    0.90330    0.29540    1.000
    C33      C        0.74620    0.98430    0.26400    1.000
    C34      C        0.65070    0.02660    0.26950    1.000
    C35      C        0.58220    0.98340    0.30520    1.000
    C36      C        0.61580    0.90270    0.33470    1.000
    C37      C        0.61730    0.11130    0.23730    1.000
    C38      C        0.65960    0.22550    0.17200    1.000
    C39      C        0.77220    0.16050    0.10420    1.000
    C40      C        0.93800    0.13480    0.07000    1.000
    C41      C        0.00580    0.16060    0.02760    1.000
    C42      C        0.98440    0.22730    0.98930    1.000
    C43      C        0.10020    0.12230    0.02650    1.000
    C44      C        0.05220    0.24760    0.94920    1.000
    C45      C        0.16600    0.14380    0.98670    1.000
    C46      C        0.94700    0.87350    0.39320    1.000
    C47      C        0.73040    0.59670    0.29540    1.000
    C48      C        0.75380    0.51570    0.26400    1.000
    C49      C        0.84930    0.47340    0.26950    1.000
    C50      C        0.91780    0.51660    0.30520    1.000
    C51      C        0.88420    0.59730    0.33470    1.000
    C52      C        0.88270    0.38870    0.23730    1.000
    C53      C        0.84040    0.27450    0.17200    1.000
    C54      C        0.72780    0.33950    0.10420    1.000
    C55      C        0.56200    0.36520    0.07000    1.000
    C56      C        0.49420    0.33940    0.02760    1.000
    C57      C        0.51560    0.27270    0.98930    1.000
    C58      C        0.39980    0.37770    0.02650    1.000
    C59      C        0.44780    0.25240    0.94920    1.000
    C60      C        0.33400    0.35620    0.98670    1.000
    C61      C        0.75000    0.25000    0.63770    1.000
    C62      C        0.75000    0.25000    0.13770    1.000
    S1       S        0.03520    0.52070    0.89790    1.000
    S2       S        0.46480    0.97930    0.89790    1.000
    S3       S        0.47930    0.53520    0.39790    1.000
    S4       S        0.02070    0.96480    0.39790    1.000
    N1       N        0.19130    0.39270    0.88680    1.000
    N2       N        0.36330    0.29410    0.83038    1.000
    N3       N        0.70950    0.85830    0.45000    1.000
    N4       N        0.30870    0.10730    0.88680    1.000
    N5       N        0.13670    0.20590    0.83038    1.000
    N6       N        0.79050    0.64170    0.45000    1.000
    N7       N        0.60730    0.69130    0.38680    1.000
    N8       N        0.70590    0.86330    0.33038    1.000
    N9       N        0.14170    0.20950    0.95000    1.000
    N10      N        0.89270    0.80870    0.38680    1.000
    N11      N        0.79410    0.63670    0.33038    1.000
    N12      N        0.35830    0.29050    0.95000    1.000
    O1       O        0.65290    0.46000    0.74320    1.000
    O2       O        0.64250    0.31270    0.70488    1.000
    O3       O        0.68310    0.14720    0.56756    1.000
    O4       O        0.58020    0.04190    0.60560    1.000
    O5       O        0.84710    0.04000    0.74320    1.000
    O6       O        0.85750    0.18730    0.70488    1.000
    O7       O        0.81690    0.35280    0.56756    1.000
    O8       O        0.91980    0.45810    0.60560    1.000
    O9       O        0.54000    0.15290    0.24320    1.000
    O10      O        0.68730    0.14250    0.20488    1.000
    O11      O        0.85280    0.18310    0.06756    1.000
    O12      O        0.95810    0.08020    0.10560    1.000
    O13      O        0.96000    0.34710    0.24320    1.000
    O14      O        0.81270    0.35750    0.20488    1.000
    O15      O        0.64720    0.31690    0.06756    1.000
    O16      O        0.54190    0.41980    0.10560    1.000
    Co3      Co       0.75000    0.75000    0.11176    1.000
    Co4      Co       0.25000    0.25000    0.61176    1.000
    C63      C        0.87350    0.55300    0.10680    1.000
    C64      C        0.59670    0.76960    0.20460    1.000
    C65      C        0.51570    0.74620    0.23600    1.000
    C66      C        0.47340    0.65070    0.23050    1.000
    C67      C        0.51660    0.58220    0.19480    1.000
    C68      C        0.59730    0.61580    0.16530    1.000
    C69      C        0.38870    0.61730    0.26270    1.000
    C70      C        0.27450    0.65960    0.32800    1.000
    C71      C        0.33950    0.77220    0.39580    1.000
    C72      C        0.36520    0.93800    0.43000    1.000
    C73      C        0.33940    0.00580    0.47240    1.000
    C74      C        0.27270    0.98440    0.51070    1.000
    C75      C        0.37770    0.10020    0.47350    1.000
    C76      C        0.25240    0.05220    0.55080    1.000
    C77      C        0.35620    0.16600    0.51330    1.000
    C78      C        0.62650    0.94700    0.10680    1.000
    C79      C        0.90330    0.73040    0.20460    1.000
    C80      C        0.98430    0.75380    0.23600    1.000
    C81      C        0.02660    0.84930    0.23050    1.000
    C82      C        0.98340    0.91780    0.19480    1.000
    C83      C        0.90270    0.88420    0.16530    1.000
    C84      C        0.11130    0.88270    0.26270    1.000
    C85      C        0.22550    0.84040    0.32800    1.000
    C86      C        0.16050    0.72780    0.39580    1.000
    C87      C        0.13480    0.56200    0.43000    1.000
    C88      C        0.16060    0.49420    0.47240    1.000
    C89      C        0.22730    0.51560    0.51070    1.000
    C90      C        0.12230    0.39980    0.47350    1.000
    C91      C        0.24760    0.44780    0.55080    1.000
    C92      C        0.14380    0.33400    0.51330    1.000
    C93      C        0.44700    0.37350    0.60680    1.000
    C94      C        0.23040    0.09670    0.70460    1.000
    C95      C        0.25380    0.01570    0.73600    1.000
    C96      C        0.34930    0.97340    0.73050    1.000
    C97      C        0.41780    0.01660    0.69480    1.000
    C98      C        0.38420    0.09730    0.66530    1.000
    C99      C        0.38270    0.88870    0.76270    1.000
    C100     C        0.34040    0.77450    0.82800    1.000
    C101     C        0.22780    0.83950    0.89580    1.000
    C102     C        0.06200    0.86520    0.93000    1.000
    C103     C        0.99420    0.83940    0.97240    1.000
    C104     C        0.01560    0.77270    0.01070    1.000
    C105     C        0.89980    0.87770    0.97350    1.000
    C106     C        0.94780    0.75240    0.05080    1.000
    C107     C        0.83400    0.85620    0.01330    1.000
    C108     C        0.05300    0.12650    0.60680    1.000
    C109     C        0.26960    0.40330    0.70460    1.000
    C110     C        0.24620    0.48430    0.73600    1.000
    C111     C        0.15070    0.52660    0.73050    1.000
    C112     C        0.08220    0.48340    0.69480    1.000
    C113     C        0.11580    0.40270    0.66530    1.000
    C114     C        0.11730    0.61130    0.76270    1.000
    C115     C        0.15960    0.72550    0.82800    1.000
    C116     C        0.27220    0.66050    0.89580    1.000
    C117     C        0.43800    0.63480    0.93000    1.000
    C118     C        0.50580    0.66060    0.97240    1.000
    C119     C        0.48440    0.72730    0.01070    1.000
    C120     C        0.60020    0.62230    0.97350    1.000
    C121     C        0.55220    0.74760    0.05080    1.000
    C122     C        0.66600    0.64380    0.01330    1.000
    C123     C        0.25000    0.75000    0.36230    1.000
    C124     C        0.25000    0.75000    0.86230    1.000
    S5       S        0.96480    0.47930    0.10210    1.000
    S6       S        0.53520    0.02070    0.10210    1.000
    S7       S        0.52070    0.46480    0.60210    1.000
    S8       S        0.97930    0.03520    0.60210    1.000
    N13      N        0.80870    0.60730    0.11320    1.000
    N14      N        0.63670    0.70590    0.16962    1.000
    N15      N        0.29050    0.14170    0.55000    1.000
    N16      N        0.69130    0.89270    0.11320    1.000
    N17      N        0.86330    0.79410    0.16962    1.000
    N18      N        0.20950    0.35830    0.55000    1.000
    N19      N        0.39270    0.30870    0.61320    1.000
    N20      N        0.29410    0.13670    0.66962    1.000
    N21      N        0.85830    0.79050    0.05000    1.000
    N22      N        0.10730    0.19130    0.61320    1.000
    N23      N        0.20590    0.36330    0.66962    1.000
    N24      N        0.64170    0.70950    0.05000    1.000
    O17      O        0.34710    0.54000    0.25680    1.000
    O18      O        0.35750    0.68730    0.29512    1.000
    O19      O        0.31690    0.85280    0.43244    1.000
    O20      O        0.41980    0.95810    0.39440    1.000
    O21      O        0.15290    0.96000    0.25680    1.000
    O22      O        0.14250    0.81270    0.29512    1.000
    O23      O        0.18310    0.64720    0.43244    1.000
    O24      O        0.08020    0.54190    0.39440    1.000
    O25      O        0.46000    0.84710    0.75680    1.000
    O26      O        0.31270    0.85750    0.79512    1.000
    O27      O        0.14720    0.81690    0.93244    1.000
    O28      O        0.04190    0.91980    0.89440    1.000
    O29      O        0.04000    0.65290    0.75680    1.000
    O30      O        0.18730    0.64250    0.79512    1.000
    O31      O        0.35280    0.68310    0.93244    1.000
    O32      O        0.45810    0.58020    0.89440    1.000
    H1       H        0.36713    0.15397    0.79235    1.000
    H2       H        0.51442    0.19672    0.73502    1.000
    H3       H        0.51481    0.49623    0.80876    1.000
    H4       H        0.36644    0.43534    0.86479    1.000
    H5       H        0.77087    0.41158    0.66801    1.000
    H6       H        0.58897    0.27198    0.60982    1.000
    H7       H        0.76790    0.09000    0.48948    1.000
    H8       H        0.57087    0.87356    0.55923    1.000
    H9       H        0.79793    0.97018    0.41522    1.000
    H10      H        0.60518    0.75861    0.48524    1.000
    H11      H        0.13287    0.34603    0.79235    1.000
    H12      H        0.98558    0.30328    0.73502    1.000
    H13      H        0.98519    0.00377    0.80876    1.000
    H14      H        0.13356    0.06466    0.86479    1.000
    H15      H        0.72913    0.08842    0.66801    1.000
    H16      H        0.91103    0.22802    0.60982    1.000
    H17      H        0.73210    0.41000    0.48948    1.000
    H18      H        0.92913    0.62644    0.55923    1.000
    H19      H        0.70207    0.52982    0.41522    1.000
    H20      H        0.89482    0.74139    0.48524    1.000
    H21      H        0.84603    0.86713    0.29235    1.000
    H22      H        0.80328    0.01442    0.23502    1.000
    H23      H        0.50377    0.01481    0.30876    1.000
    H24      H        0.56466    0.86644    0.36479    1.000
    H25      H        0.58842    0.27087    0.16801    1.000
    H26      H        0.72802    0.08897    0.10982    1.000
    H27      H        0.91000    0.26790    0.98948    1.000
    H28      H        0.12644    0.07087    0.05923    1.000
    H29      H        0.02982    0.29793    0.91522    1.000
    H30      H        0.24139    0.10518    0.98524    1.000
    H31      H        0.65397    0.63287    0.29235    1.000
    H32      H        0.69672    0.48558    0.23502    1.000
    H33      H        0.99623    0.48519    0.30876    1.000
    H34      H        0.93534    0.63356    0.36479    1.000
    H35      H        0.91158    0.22913    0.16801    1.000
    H36      H        0.77198    0.41103    0.10982    1.000
    H37      H        0.59000    0.23210    0.98948    1.000
    H38      H        0.37356    0.42913    0.05923    1.000
    H39      H        0.47018    0.20207    0.91522    1.000
    H40      H        0.25861    0.39482    0.98524    1.000
    H41      H        0.63287    0.84603    0.20765    1.000
    H42      H        0.48558    0.80328    0.26498    1.000
    H43      H        0.48519    0.50377    0.19124    1.000
    H44      H        0.63356    0.56466    0.13521    1.000
    H45      H        0.22913    0.58842    0.33199    1.000
    H46      H        0.41103    0.72802    0.39018    1.000
    H47      H        0.23210    0.91000    0.51052    1.000
    H48      H        0.42913    0.12644    0.44077    1.000
    H49      H        0.20207    0.02982    0.58478    1.000
    H50      H        0.39482    0.24139    0.51476    1.000
    H51      H        0.86713    0.65397    0.20765    1.000
    H52      H        0.01442    0.69672    0.26498    1.000
    H53      H        0.01481    0.99623    0.19124    1.000
    H54      H        0.86644    0.93534    0.13521    1.000
    H55      H        0.27087    0.91158    0.33199    1.000
    H56      H        0.08897    0.77198    0.39018    1.000
    H57      H        0.26790    0.59000    0.51052    1.000
    H58      H        0.07087    0.37356    0.44077    1.000
    H59      H        0.29793    0.47018    0.58478    1.000
    H60      H        0.10518    0.25861    0.51476    1.000
    H61      H        0.15397    0.13287    0.70765    1.000
    H62      H        0.19672    0.98558    0.76498    1.000
    H63      H        0.49623    0.98519    0.69124    1.000
    H64      H        0.43534    0.13356    0.63521    1.000
    H65      H        0.41158    0.72913    0.83199    1.000
    H66      H        0.27198    0.91103    0.89018    1.000
    H67      H        0.09000    0.73210    0.01052    1.000
    H68      H        0.87356    0.92913    0.94077    1.000
    H69      H        0.97018    0.70207    0.08478    1.000
    H70      H        0.75861    0.89482    0.01476    1.000
    H71      H        0.34603    0.36713    0.70765    1.000
    H72      H        0.30328    0.51442    0.76498    1.000
    H73      H        0.00377    0.51481    0.69124    1.000
    H74      H        0.06466    0.36644    0.63521    1.000
    H75      H        0.08842    0.77087    0.83199    1.000
    H76      H        0.22802    0.58897    0.89018    1.000
    H77      H        0.41000    0.76790    0.01052    1.000
    H78      H        0.62644    0.57087    0.94077    1.000
    H79      H        0.52982    0.79793    0.08478    1.000
    H80      H        0.74139    0.60518    0.01476    1.000
