data_functionalizedCrystal
_audit_creation_method	'EQeq! by Chris Wilmer'
_symmetry_space_group_name_H-M	'P1'
_symmetry_Int_Tables_number	1
_symmetry_cell_setting	triclinic
loop_
_symmetry_equiv_pos_as_xyz
  x,y,z
_cell_length_a	16.215
_cell_length_b	17.174
_cell_length_c	18.104
_cell_angle_alpha	90
_cell_angle_beta	90
_cell_angle_gamma	90
loop_
_atom_site_label
_atom_site_type_symbol
_atom_site_fract_x
_atom_site_fract_y
_atom_site_fract_z
_atom_site_charge
Mof_Zn	Zn	0.27855	0.75678	0.76233	1.202
Mof_Zn	Zn	0.22701	0.14339	0.12029	1.205
Mof_Zn	Zn	0.88836	0.26907	0.8207	1.212
Mof_Zn	Zn	0.31072	0.07961	0.2709	1.17
Mof_Zn	Zn	0.22145	0.24322	0.26233	1.202
Mof_Zn	Zn	0.27299	0.85661	0.62029	1.205
Mof_Zn	Zn	0.61164	0.73093	0.3207	1.212
Mof_Zn	Zn	0.18928	0.92039	0.7709	1.17
Mof_Zn	Zn	0.72145	0.25678	0.73767	1.202
Mof_Zn	Zn	0.77299	0.64339	0.37971	1.205
Mof_Zn	Zn	0.11164	0.76907	0.6793	1.212
Mof_Zn	Zn	0.68928	0.57961	0.2291	1.17
Mof_Zn	Zn	0.77855	0.74322	0.23767	1.202
Mof_Zn	Zn	0.72701	0.35661	0.87971	1.205
Mof_Zn	Zn	0.38836	0.23093	0.1793	1.212
Mof_Zn	Zn	0.81072	0.42039	0.7291	1.17
Mof_H 	H 	0.2228	0.9311	0.9957	0.049
Mof_H 	H 	0.361	0.7376	0.9831	0.093
Mof_H 	H 	0.3771	0.8737	0.1645	0.084
Mof_H 	H 	0.4566	0.7582	0.162	0.188
Mof_H 	H 	0.415	0.6875	0.118	0.193
Mof_H 	H 	0.4877	0.7368	0.0806	0.189
Mof_H 	H 	0.036	0.5268	0.7337	0.051
Mof_H 	H 	0.2851	0.5151	0.7529	0.088
Mof_H 	H 	0.1466	0.3214	0.7779	0.084
Mof_H 	H 	0.3553	0.3986	0.7675	0.187
Mof_H 	H 	0.3087	0.3396	0.8217	0.195
Mof_H 	H 	0.3098	0.3235	0.7346	0.187
Mof_H 	H 	0.5306	0.7071	0.7477	0.077
Mof_H 	H 	0.7121	0.6566	0.6036	0.074
Mof_H 	H 	0.506	0.7676	0.5335	0.06
Mof_H 	H 	0.6477	0.645	0.795	0.16
Mof_H 	H 	0.6908	0.5863	0.7382	0.131
Mof_H 	H 	0.7313	0.6696	0.7542	0.158
Mof_H 	H 	0.2772	0.0689	0.4957	0.048
Mof_H 	H 	0.139	0.2624	0.4831	0.092
Mof_H 	H 	0.1229	0.1263	0.6645	0.083
Mof_H 	H 	0.0434	0.2418	0.662	0.188
Mof_H 	H 	0.085	0.3125	0.618	0.192
Mof_H 	H 	0.0123	0.2632	0.5806	0.188
Mof_H 	H 	0.464	0.4732	0.2337	0.051
Mof_H 	H 	0.2149	0.4849	0.2529	0.088
Mof_H 	H 	0.3534	0.6786	0.2779	0.084
Mof_H 	H 	0.1447	0.6014	0.2675	0.187
Mof_H 	H 	0.1913	0.6604	0.3217	0.195
Mof_H 	H 	0.1902	0.6765	0.2346	0.187
Mof_H 	H 	0.9694	0.2929	0.2477	0.076
Mof_H 	H 	0.7879	0.3434	0.1036	0.074
Mof_H 	H 	0.994	0.2324	0.0335	0.06
Mof_H 	H 	0.8523	0.355	0.295	0.16
Mof_H 	H 	0.8092	0.4137	0.2382	0.131
Mof_H 	H 	0.7687	0.3304	0.2542	0.158
Mof_H 	H 	0.7772	0.4311	0.5043	0.048
Mof_H 	H 	0.639	0.2376	0.5169	0.092
Mof_H 	H 	0.6229	0.3737	0.3355	0.083
Mof_H 	H 	0.5434	0.2582	0.338	0.188
Mof_H 	H 	0.585	0.1875	0.382	0.192
Mof_H 	H 	0.5123	0.2368	0.4194	0.189
Mof_H 	H 	0.964	0.0268	0.7663	0.049
Mof_H 	H 	0.7149	0.0151	0.7471	0.086
Mof_H 	H 	0.8534	0.8214	0.7221	0.084
Mof_H 	H 	0.6447	0.8986	0.7325	0.187
Mof_H 	H 	0.6913	0.8396	0.6783	0.195
Mof_H 	H 	0.6902	0.8235	0.7654	0.186
Mof_H 	H 	0.4694	0.2071	0.7523	0.076
Mof_H 	H 	0.2879	0.1566	0.8964	0.073
Mof_H 	H 	0.494	0.2676	0.9665	0.059
Mof_H 	H 	0.3523	0.145	0.705	0.16
Mof_H 	H 	0.3092	0.0863	0.7618	0.131
Mof_H 	H 	0.2687	0.1696	0.7458	0.157
Mof_H 	H 	0.7228	0.5689	0.0043	0.048
Mof_H 	H 	0.861	0.7624	0.0169	0.091
Mof_H 	H 	0.8771	0.6263	0.8355	0.083
Mof_H 	H 	0.9566	0.7418	0.838	0.188
Mof_H 	H 	0.915	0.8125	0.882	0.192
Mof_H 	H 	0.9877	0.7632	0.9194	0.188
Mof_H 	H 	0.536	0.9732	0.2663	0.049
Mof_H 	H 	0.7851	0.9849	0.2471	0.086
Mof_H 	H 	0.6466	0.1786	0.2221	0.084
Mof_H 	H 	0.8553	0.1014	0.2325	0.187
Mof_H 	H 	0.8087	0.1604	0.1783	0.195
Mof_H 	H 	0.8098	0.1765	0.2654	0.186
Mof_H 	H 	0.0306	0.7929	0.2523	0.077
Mof_H 	H 	0.2121	0.8434	0.3964	0.074
Mof_H 	H 	0.006	0.7324	0.4665	0.06
Mof_H 	H 	0.1477	0.855	0.205	0.16
Mof_H 	H 	0.1908	0.9137	0.2618	0.131
Mof_H 	H 	0.2313	0.8304	0.2458	0.158
Mof_C 	C 	0.2767	0.9882	0.126	0.345
Mof_C 	C 	0.2962	0.9134	0.0865	-0.04
Mof_C 	C 	0.262	0.8968	0.0171	-0.036
Mof_C 	C 	0.2853	0.8312	0.981	-0.034
Mof_C 	C 	0.3433	0.7816	0.0108	-0.154
Mof_C 	C 	0.3768	0.7947	0.081	0.206
Mof_C 	C 	0.3536	0.8621	0.1176	-0.155
Mof_C 	C 	0.4395	0.7395	0.1132	-0.576
Mof_C 	C 	0.9971	0.379	0.7614	0.37
Mof_C 	C 	0.0799	0.4195	0.7581	-0.045
Mof_C 	C 	0.0846	0.4977	0.7434	-0.019
Mof_C 	C 	0.1612	0.5342	0.7428	-0.041
Mof_C 	C 	0.233	0.4898	0.7533	-0.147
Mof_C 	C 	0.2298	0.4101	0.7642	0.205
Mof_C 	C 	0.1511	0.3756	0.7682	-0.146
Mof_C 	C 	0.3076	0.364	0.7727	-0.577
Mof_C 	C 	0.4196	0.7711	0.6604	0.361
Mof_C 	C 	0.5054	0.7413	0.644	-0.049
Mof_C 	C 	0.552	0.7082	0.6989	-0.128
Mof_C 	C 	0.6293	0.6763	0.6859	0.153
Mof_C 	C 	0.6595	0.6784	0.6141	-0.129
Mof_C 	C 	0.6138	0.7121	0.5571	-0.05
Mof_C 	C 	0.537	0.744	0.572	-0.02
Mof_C 	C 	0.6792	0.6412	0.749	-0.49
Mof_C 	C 	0.1695	0.6214	0.7327	0.369
Mof_C 	C 	0.2548	0.8168	0.9033	0.33
Mof_C 	C 	0.6463	0.7103	0.479	0.365
Mof_C 	C 	0.2233	0.0118	0.626	0.346
Mof_C 	C 	0.2038	0.0866	0.5865	-0.041
Mof_C 	C 	0.238	0.1032	0.5171	-0.034
Mof_C 	C 	0.2147	0.1688	0.481	-0.036
Mof_C 	C 	0.1567	0.2184	0.5108	-0.153
Mof_C 	C 	0.1232	0.2053	0.581	0.205
Mof_C 	C 	0.1464	0.1379	0.6176	-0.154
Mof_C 	C 	0.0605	0.2605	0.6132	-0.575
Mof_C 	C 	0.5029	0.621	0.2614	0.37
Mof_C 	C 	0.4201	0.5805	0.2581	-0.045
Mof_C 	C 	0.4154	0.5023	0.2434	-0.02
Mof_C 	C 	0.3388	0.4658	0.2428	-0.041
Mof_C 	C 	0.267	0.5102	0.2533	-0.147
Mof_C 	C 	0.2702	0.5899	0.2642	0.206
Mof_C 	C 	0.3489	0.6244	0.2682	-0.146
Mof_C 	C 	0.1924	0.636	0.2727	-0.577
Mof_C 	C 	0.0804	0.2289	0.1604	0.361
Mof_C 	C 	0.9946	0.2587	0.144	-0.049
Mof_C 	C 	0.948	0.2918	0.1989	-0.128
Mof_C 	C 	0.8707	0.3237	0.1859	0.153
Mof_C 	C 	0.8405	0.3216	0.1141	-0.129
Mof_C 	C 	0.8862	0.2879	0.0571	-0.05
Mof_C 	C 	0.963	0.256	0.072	-0.02
Mof_C 	C 	0.8208	0.3588	0.249	-0.49
Mof_C 	C 	0.3305	0.3786	0.2327	0.369
Mof_C 	C 	0.2452	0.1832	0.4033	0.33
Mof_C 	C 	0.8537	0.2897	0.979	0.364
Mof_C 	C 	0.7233	0.4882	0.374	0.347
Mof_C 	C 	0.7038	0.4134	0.4135	-0.041
Mof_C 	C 	0.738	0.3968	0.4829	-0.034
Mof_C 	C 	0.7147	0.3312	0.519	-0.036
Mof_C 	C 	0.6567	0.2816	0.4892	-0.153
Mof_C 	C 	0.6232	0.2947	0.419	0.205
Mof_C 	C 	0.6464	0.3621	0.3824	-0.154
Mof_C 	C 	0.5605	0.2395	0.3868	-0.575
Mof_C 	C 	0.0029	0.879	0.7386	0.371
Mof_C 	C 	0.9201	0.9195	0.7419	-0.046
Mof_C 	C 	0.9154	0.9977	0.7566	-0.017
Mof_C 	C 	0.8388	0.0342	0.7572	-0.044
Mof_C 	C 	0.767	0.9898	0.7467	-0.143
Mof_C 	C 	0.7702	0.9101	0.7358	0.204
Mof_C 	C 	0.8489	0.8756	0.7318	-0.145
Mof_C 	C 	0.6924	0.864	0.7273	-0.576
Mof_C 	C 	0.5804	0.2711	0.8396	0.361
Mof_C 	C 	0.4946	0.2413	0.856	-0.05
Mof_C 	C 	0.448	0.2082	0.8011	-0.127
Mof_C 	C 	0.3707	0.1763	0.8141	0.152
Mof_C 	C 	0.3405	0.1784	0.8859	-0.128
Mof_C 	C 	0.3862	0.2121	0.9429	-0.052
Mof_C 	C 	0.463	0.244	0.928	-0.019
Mof_C 	C 	0.3208	0.1412	0.751	-0.489
Mof_C 	C 	0.8305	0.1214	0.7673	0.37
Mof_C 	C 	0.7452	0.3168	0.5967	0.331
Mof_C 	C 	0.3537	0.2103	0.021	0.366
Mof_C 	C 	0.7767	0.5118	0.874	0.348
Mof_C 	C 	0.7962	0.5866	0.9135	-0.042
Mof_C 	C 	0.762	0.6032	0.9829	-0.032
Mof_C 	C 	0.7853	0.6688	0.019	-0.038
Mof_C 	C 	0.8433	0.7184	0.9892	-0.15
Mof_C 	C 	0.8768	0.7053	0.919	0.203
Mof_C 	C 	0.8536	0.6379	0.8824	-0.153
Mof_C 	C 	0.9395	0.7605	0.8868	-0.574
Mof_C 	C 	0.4971	0.121	0.2386	0.371
Mof_C 	C 	0.5799	0.0805	0.2419	-0.046
Mof_C 	C 	0.5846	0.0023	0.2566	-0.017
Mof_C 	C 	0.6612	0.9658	0.2572	-0.044
Mof_C 	C 	0.733	0.0102	0.2467	-0.143
Mof_C 	C 	0.7298	0.0899	0.2358	0.204
Mof_C 	C 	0.6511	0.1244	0.2318	-0.145
Mof_C 	C 	0.8076	0.136	0.2273	-0.576
Mof_C 	C 	0.9196	0.7289	0.3396	0.361
Mof_C 	C 	0.0054	0.7587	0.356	-0.049
Mof_C 	C 	0.052	0.7918	0.3011	-0.128
Mof_C 	C 	0.1293	0.8237	0.3141	0.153
Mof_C 	C 	0.1595	0.8216	0.3859	-0.129
Mof_C 	C 	0.1138	0.7879	0.4429	-0.05
Mof_C 	C 	0.037	0.756	0.428	-0.02
Mof_C 	C 	0.1792	0.8588	0.251	-0.49
Mof_C 	C 	0.6695	0.8786	0.2673	0.37
Mof_C 	C 	0.7548	0.6832	0.0967	0.331
Mof_C 	C 	0.1463	0.7897	0.521	0.365
Mof_O 	O 	0.2234	0.0327	0.0974	-0.494
Mof_O 	O 	0.3154	0.0022	0.1847	-0.51
Mof_O 	O 	0.9386	0.4119	0.7299	-0.491
Mof_O 	O 	0.9943	0.3162	0.7966	-0.488
Mof_O 	O 	0.384	0.8117	0.6114	-0.498
Mof_O 	O 	0.3905	0.751	0.7211	-0.514
Mof_O 	O 	0.1076	0.6591	0.7118	-0.495
Mof_O 	O 	0.2388	0.6491	0.7469	-0.503
Mof_O 	O 	0.2937	0.7641	0.8672	-0.489
Mof_O 	O 	0.1982	0.8566	0.8778	-0.486
Mof_O 	O 	0.6	0.7377	0.4297	-0.482
Mof_O 	O 	0.7167	0.6815	0.4697	-0.491
Mof_O 	O 	0.2097	0.8255	0.7058	-0.96
Mof_O 	O 	0.2766	0.9673	0.5974	-0.494
Mof_O 	O 	0.1846	0.9978	0.6847	-0.51
Mof_O 	O 	0.5614	0.5881	0.2299	-0.491
Mof_O 	O 	0.5057	0.6838	0.2966	-0.488
Mof_O 	O 	0.116	0.1883	0.1114	-0.498
Mof_O 	O 	0.1095	0.249	0.2211	-0.514
Mof_O 	O 	0.3924	0.3409	0.2118	-0.495
Mof_O 	O 	0.2612	0.3509	0.2469	-0.503
Mof_O 	O 	0.2063	0.2359	0.3672	-0.49
Mof_O 	O 	0.3018	0.1434	0.3778	-0.486
Mof_O 	O 	0.9	0.2623	0.9297	-0.482
Mof_O 	O 	0.7833	0.3185	0.9697	-0.491
Mof_O 	O 	0.2903	0.1745	0.2058	-0.96
Mof_O 	O 	0.7766	0.5327	0.4026	-0.495
Mof_O 	O 	0.6846	0.5022	0.3153	-0.511
Mof_O 	O 	0.0614	0.9119	0.7701	-0.491
Mof_O 	O 	0.0057	0.8162	0.7034	-0.489
Mof_O 	O 	0.616	0.3117	0.8886	-0.499
Mof_O 	O 	0.6095	0.251	0.7789	-0.514
Mof_O 	O 	0.8924	0.1591	0.7882	-0.495
Mof_O 	O 	0.7612	0.1491	0.7531	-0.503
Mof_O 	O 	0.7063	0.2641	0.6328	-0.49
Mof_O 	O 	0.8018	0.3566	0.6222	-0.486
Mof_O 	O 	0.4	0.2377	0.0703	-0.482
Mof_O 	O 	0.2833	0.1815	0.0303	-0.491
Mof_O 	O 	0.7903	0.3255	0.7942	-0.96
Mof_O 	O 	0.7234	0.4673	0.9026	-0.495
Mof_O 	O 	0.8154	0.4978	0.8153	-0.511
Mof_O 	O 	0.4386	0.0881	0.2701	-0.491
Mof_O 	O 	0.4943	0.1838	0.2034	-0.488
Mof_O 	O 	0.884	0.6883	0.3886	-0.498
Mof_O 	O 	0.8905	0.749	0.2789	-0.514
Mof_O 	O 	0.6076	0.8409	0.2882	-0.495
Mof_O 	O 	0.7388	0.8509	0.2531	-0.503
Mof_O 	O 	0.7937	0.7359	0.1328	-0.49
Mof_O 	O 	0.6982	0.6434	0.1222	-0.486
Mof_O 	O 	0.1	0.7623	0.5703	-0.482
Mof_O 	O 	0.2167	0.8185	0.5303	-0.491
Mof_O 	O 	0.7097	0.6745	0.2942	-0.96
_end
