data_functionalizedCrystal
_audit_creation_method	'EQeq! by Chris Wilmer'
_symmetry_space_group_name_H-M	'P1'
_symmetry_Int_Tables_number	1
_symmetry_cell_setting	triclinic
loop_
_symmetry_equiv_pos_as_xyz
  x,y,z
_cell_length_a	50.5222
_cell_length_b	50.5222
_cell_length_c	50.5222
_cell_angle_alpha	90
_cell_angle_beta	90
_cell_angle_gamma	90
loop_
_atom_site_label
_atom_site_type_symbol
_atom_site_fract_x
_atom_site_fract_y
_atom_site_fract_z
_atom_site_charge
Mof_O 	O 	0.89009	0.09935	0.03381	-0.608
Mof_O 	O 	0.92443	0.12115	0.02153	-0.43
Mof_O 	O 	0.01114	0.0622	0.0932	-0.667
Mof_O 	O 	0.83726	0.10752	0.0128	-0.508
Mof_O 	O 	0.84249	0.12787	0.97565	-0.551
Mof_O 	O 	0.71415	0.07872	0.00477	-0.431
Mof_O 	O 	0.63836	0.07032	0.03921	-0.433
Mof_C 	C 	0.9137	0.104	0.0362	0.414
Mof_C 	C 	0.9296	0.0897	0.0561	-0.181
Mof_C 	C 	0.9568	0.0918	0.0578	0.115
Mof_C 	C 	0.82804	0.11552	0.9915	0.376
Mof_C 	C 	0.79981	0.11049	0.98401	-0.145
Mof_C 	C 	0.78214	0.09907	0.00219	0.123
Mof_O 	O 	0.89009	0.59935	0.53381	-0.609
Mof_O 	O 	0.92443	0.62115	0.52153	-0.429
Mof_O 	O 	0.01114	0.5622	0.5932	-0.667
Mof_O 	O 	0.83726	0.60752	0.5128	-0.507
Mof_O 	O 	0.84249	0.62787	0.47565	-0.552
Mof_O 	O 	0.71415	0.57872	0.50477	-0.431
Mof_O 	O 	0.63836	0.57032	0.53921	-0.432
Mof_C 	C 	0.9137	0.604	0.5362	0.414
Mof_C 	C 	0.9296	0.5897	0.5561	-0.181
Mof_C 	C 	0.9568	0.5918	0.5578	0.115
Mof_C 	C 	0.82804	0.61552	0.4915	0.375
Mof_C 	C 	0.79981	0.61049	0.48401	-0.148
Mof_C 	C 	0.78214	0.59907	0.50219	0.127
Mof_O 	O 	0.39009	0.09935	0.53381	-0.609
Mof_O 	O 	0.42443	0.12115	0.52153	-0.43
Mof_O 	O 	0.51114	0.0622	0.5932	-0.667
Mof_O 	O 	0.33726	0.10752	0.5128	-0.507
Mof_O 	O 	0.34249	0.12787	0.47565	-0.552
Mof_O 	O 	0.21415	0.07872	0.50477	-0.431
Mof_O 	O 	0.13836	0.07032	0.53921	-0.432
Mof_C 	C 	0.4137	0.104	0.5362	0.414
Mof_C 	C 	0.4296	0.0897	0.5561	-0.181
Mof_C 	C 	0.4568	0.0918	0.5578	0.115
Mof_C 	C 	0.32804	0.11552	0.4915	0.375
Mof_C 	C 	0.29981	0.11049	0.48401	-0.148
Mof_C 	C 	0.28214	0.09907	0.50219	0.127
Mof_O 	O 	0.39009	0.59935	0.03381	-0.608
Mof_O 	O 	0.42443	0.62115	0.02153	-0.43
Mof_O 	O 	0.51114	0.5622	0.0932	-0.667
Mof_O 	O 	0.33726	0.60752	0.0128	-0.508
Mof_O 	O 	0.34249	0.62787	0.97565	-0.551
Mof_O 	O 	0.21415	0.57872	0.00477	-0.431
Mof_O 	O 	0.13836	0.57032	0.03921	-0.432
Mof_C 	C 	0.4137	0.604	0.0362	0.414
Mof_C 	C 	0.4296	0.5897	0.0561	-0.181
Mof_C 	C 	0.4568	0.5918	0.0578	0.115
Mof_C 	C 	0.32804	0.61552	0.9915	0.377
Mof_C 	C 	0.29981	0.61049	0.98401	-0.145
Mof_C 	C 	0.28214	0.59907	0.00219	0.123
Mof_O 	O 	0.85991	0.15065	0.53381	-0.609
Mof_O 	O 	0.82557	0.12885	0.52153	-0.43
Mof_O 	O 	0.73886	0.1878	0.5932	-0.667
Mof_O 	O 	0.91274	0.14248	0.5128	-0.507
Mof_O 	O 	0.90751	0.12213	0.47565	-0.552
Mof_O 	O 	0.03585	0.17128	0.50477	-0.43
Mof_O 	O 	0.11164	0.17968	0.53921	-0.432
Mof_C 	C 	0.8363	0.146	0.5362	0.414
Mof_C 	C 	0.8204	0.1603	0.5561	-0.181
Mof_C 	C 	0.7932	0.1582	0.5578	0.115
Mof_C 	C 	0.92196	0.13448	0.4915	0.375
Mof_C 	C 	0.95019	0.13951	0.48401	-0.147
Mof_C 	C 	0.96786	0.15093	0.50219	0.126
Mof_O 	O 	0.85991	0.65065	0.03381	-0.608
Mof_O 	O 	0.82557	0.62885	0.02153	-0.43
Mof_O 	O 	0.73886	0.6878	0.0932	-0.667
Mof_O 	O 	0.91274	0.64248	0.0128	-0.508
Mof_O 	O 	0.90751	0.62213	0.97565	-0.551
Mof_O 	O 	0.03585	0.67128	0.00477	-0.43
Mof_O 	O 	0.11164	0.67968	0.03921	-0.432
Mof_C 	C 	0.8363	0.646	0.0362	0.414
Mof_C 	C 	0.8204	0.6603	0.0561	-0.181
Mof_C 	C 	0.7932	0.6582	0.0578	0.115
Mof_C 	C 	0.92196	0.63448	0.9915	0.376
Mof_C 	C 	0.95019	0.63951	0.98401	-0.144
Mof_C 	C 	0.96786	0.65093	0.00219	0.122
Mof_O 	O 	0.35991	0.15065	0.03381	-0.608
Mof_O 	O 	0.32557	0.12885	0.02153	-0.43
Mof_O 	O 	0.23886	0.1878	0.0932	-0.667
Mof_O 	O 	0.41274	0.14248	0.0128	-0.508
Mof_O 	O 	0.40751	0.12213	0.97565	-0.551
Mof_O 	O 	0.53585	0.17128	0.00477	-0.431
Mof_O 	O 	0.61164	0.17968	0.03921	-0.432
Mof_C 	C 	0.3363	0.146	0.0362	0.414
Mof_C 	C 	0.3204	0.1603	0.0561	-0.181
Mof_C 	C 	0.2932	0.1582	0.0578	0.115
Mof_C 	C 	0.42196	0.13448	0.9915	0.377
Mof_C 	C 	0.45019	0.13951	0.98401	-0.145
Mof_C 	C 	0.46786	0.15093	0.00219	0.123
Mof_O 	O 	0.35991	0.65065	0.53381	-0.609
Mof_O 	O 	0.32557	0.62885	0.52153	-0.43
Mof_O 	O 	0.23886	0.6878	0.5932	-0.667
Mof_O 	O 	0.41274	0.64248	0.5128	-0.507
Mof_O 	O 	0.40751	0.62213	0.47565	-0.552
Mof_O 	O 	0.53585	0.67128	0.50477	-0.431
Mof_O 	O 	0.61164	0.67968	0.53921	-0.432
Mof_C 	C 	0.3363	0.646	0.5362	0.414
Mof_C 	C 	0.3204	0.6603	0.5561	-0.181
Mof_C 	C 	0.2932	0.6582	0.5578	0.115
Mof_C 	C 	0.42196	0.63448	0.4915	0.375
Mof_C 	C 	0.45019	0.63951	0.48401	-0.148
Mof_C 	C 	0.46786	0.65093	0.50219	0.127
Mof_O 	O 	0.35991	0.59935	0.71619	-0.609
Mof_O 	O 	0.32557	0.62115	0.72847	-0.43
Mof_O 	O 	0.23886	0.5622	0.6568	-0.667
Mof_O 	O 	0.41274	0.60752	0.7372	-0.507
Mof_O 	O 	0.40751	0.62787	0.77435	-0.552
Mof_O 	O 	0.53585	0.57872	0.74523	-0.431
Mof_O 	O 	0.61164	0.57032	0.71079	-0.432
Mof_C 	C 	0.3363	0.604	0.7138	0.414
Mof_C 	C 	0.3204	0.5897	0.6939	-0.181
Mof_C 	C 	0.2932	0.5918	0.6922	0.115
Mof_C 	C 	0.42196	0.61552	0.7585	0.375
Mof_C 	C 	0.45019	0.61049	0.76599	-0.148
Mof_C 	C 	0.46786	0.59907	0.74781	0.127
Mof_O 	O 	0.35991	0.09935	0.21619	-0.609
Mof_O 	O 	0.32557	0.12115	0.22847	-0.43
Mof_O 	O 	0.23886	0.0622	0.1568	-0.667
Mof_O 	O 	0.41274	0.10752	0.2372	-0.507
Mof_O 	O 	0.40751	0.12787	0.27435	-0.552
Mof_O 	O 	0.53585	0.07872	0.24523	-0.431
Mof_O 	O 	0.61164	0.07032	0.21079	-0.432
Mof_C 	C 	0.3363	0.104	0.2138	0.414
Mof_C 	C 	0.3204	0.0897	0.1939	-0.181
Mof_C 	C 	0.2932	0.0918	0.1922	0.115
Mof_C 	C 	0.42196	0.11552	0.2585	0.375
Mof_C 	C 	0.45019	0.11049	0.26599	-0.148
Mof_C 	C 	0.46786	0.09907	0.24781	0.127
Mof_O 	O 	0.85991	0.59935	0.21619	-0.609
Mof_O 	O 	0.82557	0.62115	0.22847	-0.43
Mof_O 	O 	0.73886	0.5622	0.1568	-0.667
Mof_O 	O 	0.91274	0.60752	0.2372	-0.507
Mof_O 	O 	0.90751	0.62787	0.27435	-0.552
Mof_O 	O 	0.03585	0.57872	0.24523	-0.43
Mof_O 	O 	0.11164	0.57032	0.21079	-0.432
Mof_C 	C 	0.8363	0.604	0.2138	0.414
Mof_C 	C 	0.8204	0.5897	0.1939	-0.181
Mof_C 	C 	0.7932	0.5918	0.1922	0.115
Mof_C 	C 	0.92196	0.61552	0.2585	0.375
Mof_C 	C 	0.95019	0.61049	0.26599	-0.147
Mof_C 	C 	0.96786	0.59907	0.24781	0.126
Mof_O 	O 	0.85991	0.09935	0.71619	-0.609
Mof_O 	O 	0.82557	0.12115	0.72847	-0.43
Mof_O 	O 	0.73886	0.0622	0.6568	-0.667
Mof_O 	O 	0.91274	0.10752	0.7372	-0.507
Mof_O 	O 	0.90751	0.12787	0.77435	-0.552
Mof_O 	O 	0.03585	0.07872	0.74523	-0.43
Mof_O 	O 	0.11164	0.07032	0.71079	-0.432
Mof_C 	C 	0.8363	0.104	0.7138	0.414
Mof_C 	C 	0.8204	0.0897	0.6939	-0.181
Mof_C 	C 	0.7932	0.0918	0.6922	0.115
Mof_C 	C 	0.92196	0.11552	0.7585	0.375
Mof_C 	C 	0.95019	0.11049	0.76599	-0.147
Mof_C 	C 	0.96786	0.09907	0.74781	0.126
Mof_O 	O 	0.39009	0.65065	0.21619	-0.609
Mof_O 	O 	0.42443	0.62885	0.22847	-0.43
Mof_O 	O 	0.51114	0.6878	0.1568	-0.667
Mof_O 	O 	0.33726	0.64248	0.2372	-0.507
Mof_O 	O 	0.34249	0.62213	0.27435	-0.552
Mof_O 	O 	0.21415	0.67128	0.24523	-0.431
Mof_O 	O 	0.13836	0.67968	0.21079	-0.432
Mof_C 	C 	0.4137	0.646	0.2138	0.414
Mof_C 	C 	0.4296	0.6603	0.1939	-0.181
Mof_C 	C 	0.4568	0.6582	0.1922	0.115
Mof_C 	C 	0.32804	0.63448	0.2585	0.375
Mof_C 	C 	0.29981	0.63951	0.26599	-0.148
Mof_C 	C 	0.28214	0.65093	0.24781	0.127
Mof_O 	O 	0.39009	0.15065	0.71619	-0.609
Mof_O 	O 	0.42443	0.12885	0.72847	-0.43
Mof_O 	O 	0.51114	0.1878	0.6568	-0.667
Mof_O 	O 	0.33726	0.14248	0.7372	-0.507
Mof_O 	O 	0.34249	0.12213	0.77435	-0.552
Mof_O 	O 	0.21415	0.17128	0.74523	-0.431
Mof_O 	O 	0.13836	0.17968	0.71079	-0.432
Mof_C 	C 	0.4137	0.146	0.7138	0.414
Mof_C 	C 	0.4296	0.1603	0.6939	-0.181
Mof_C 	C 	0.4568	0.1582	0.6922	0.115
Mof_C 	C 	0.32804	0.13448	0.7585	0.375
Mof_C 	C 	0.29981	0.13951	0.76599	-0.148
Mof_C 	C 	0.28214	0.15093	0.74781	0.127
Mof_O 	O 	0.89009	0.65065	0.71619	-0.609
Mof_O 	O 	0.92443	0.62885	0.72847	-0.429
Mof_O 	O 	0.01114	0.6878	0.6568	-0.667
Mof_O 	O 	0.83726	0.64248	0.7372	-0.507
Mof_O 	O 	0.84249	0.62213	0.77435	-0.552
Mof_O 	O 	0.71415	0.67128	0.74523	-0.431
Mof_O 	O 	0.63836	0.67968	0.71079	-0.432
Mof_C 	C 	0.9137	0.646	0.7138	0.414
Mof_C 	C 	0.9296	0.6603	0.6939	-0.181
Mof_C 	C 	0.9568	0.6582	0.6922	0.115
Mof_C 	C 	0.82804	0.63448	0.7585	0.375
Mof_C 	C 	0.79981	0.63951	0.76599	-0.148
Mof_C 	C 	0.78214	0.65093	0.74781	0.127
Mof_O 	O 	0.89009	0.15065	0.21619	-0.609
Mof_O 	O 	0.92443	0.12885	0.22847	-0.429
Mof_O 	O 	0.01114	0.1878	0.1568	-0.667
Mof_O 	O 	0.83726	0.14248	0.2372	-0.507
Mof_O 	O 	0.84249	0.12213	0.27435	-0.552
Mof_O 	O 	0.71415	0.17128	0.24523	-0.431
Mof_O 	O 	0.63836	0.17968	0.21079	-0.432
Mof_C 	C 	0.9137	0.146	0.2138	0.414
Mof_C 	C 	0.9296	0.1603	0.1939	-0.181
Mof_C 	C 	0.9568	0.1582	0.1922	0.115
Mof_C 	C 	0.82804	0.13448	0.2585	0.375
Mof_C 	C 	0.79981	0.13951	0.26599	-0.148
Mof_C 	C 	0.78214	0.15093	0.24781	0.127
Mof_O 	O 	0.03381	0.89009	0.09935	-0.608
Mof_O 	O 	0.02153	0.92443	0.12115	-0.43
Mof_O 	O 	0.0932	0.01114	0.0622	-0.667
Mof_O 	O 	0.0128	0.83726	0.10752	-0.508
Mof_O 	O 	0.97565	0.84249	0.12787	-0.551
Mof_O 	O 	0.00477	0.71415	0.07872	-0.431
Mof_O 	O 	0.03921	0.63836	0.07032	-0.433
Mof_C 	C 	0.0362	0.9137	0.104	0.414
Mof_C 	C 	0.0561	0.9296	0.0897	-0.181
Mof_C 	C 	0.0578	0.9568	0.0918	0.115
Mof_C 	C 	0.9915	0.82804	0.11552	0.376
Mof_C 	C 	0.98401	0.79981	0.11049	-0.145
Mof_C 	C 	0.00219	0.78214	0.09907	0.123
Mof_O 	O 	0.03381	0.39009	0.59935	-0.608
Mof_O 	O 	0.02153	0.42443	0.62115	-0.43
Mof_O 	O 	0.0932	0.51114	0.5622	-0.667
Mof_O 	O 	0.0128	0.33726	0.60752	-0.508
Mof_O 	O 	0.97565	0.34249	0.62787	-0.551
Mof_O 	O 	0.00477	0.21415	0.57872	-0.431
Mof_O 	O 	0.03921	0.13836	0.57032	-0.432
Mof_C 	C 	0.0362	0.4137	0.604	0.414
Mof_C 	C 	0.0561	0.4296	0.5897	-0.181
Mof_C 	C 	0.0578	0.4568	0.5918	0.115
Mof_C 	C 	0.9915	0.32804	0.61552	0.377
Mof_C 	C 	0.98401	0.29981	0.61049	-0.145
Mof_C 	C 	0.00219	0.28214	0.59907	0.123
Mof_O 	O 	0.53381	0.89009	0.59935	-0.609
Mof_O 	O 	0.52153	0.92443	0.62115	-0.429
Mof_O 	O 	0.5932	0.01114	0.5622	-0.667
Mof_O 	O 	0.5128	0.83726	0.60752	-0.507
Mof_O 	O 	0.47565	0.84249	0.62787	-0.552
Mof_O 	O 	0.50477	0.71415	0.57872	-0.431
Mof_O 	O 	0.53921	0.63836	0.57032	-0.432
Mof_C 	C 	0.5362	0.9137	0.604	0.414
Mof_C 	C 	0.5561	0.9296	0.5897	-0.181
Mof_C 	C 	0.5578	0.9568	0.5918	0.115
Mof_C 	C 	0.4915	0.82804	0.61552	0.375
Mof_C 	C 	0.48401	0.79981	0.61049	-0.148
Mof_C 	C 	0.50219	0.78214	0.59907	0.127
Mof_O 	O 	0.53381	0.39009	0.09935	-0.609
Mof_O 	O 	0.52153	0.42443	0.12115	-0.43
Mof_O 	O 	0.5932	0.51114	0.0622	-0.667
Mof_O 	O 	0.5128	0.33726	0.10752	-0.507
Mof_O 	O 	0.47565	0.34249	0.12787	-0.552
Mof_O 	O 	0.50477	0.21415	0.07872	-0.431
Mof_O 	O 	0.53921	0.13836	0.07032	-0.432
Mof_C 	C 	0.5362	0.4137	0.104	0.414
Mof_C 	C 	0.5561	0.4296	0.0897	-0.181
Mof_C 	C 	0.5578	0.4568	0.0918	0.115
Mof_C 	C 	0.4915	0.32804	0.11552	0.375
Mof_C 	C 	0.48401	0.29981	0.11049	-0.148
Mof_C 	C 	0.50219	0.28214	0.09907	0.127
Mof_O 	O 	0.53381	0.85991	0.15065	-0.61
Mof_O 	O 	0.52153	0.82557	0.12885	-0.431
Mof_O 	O 	0.5932	0.73886	0.1878	-0.668
Mof_O 	O 	0.5128	0.91274	0.14248	-0.508
Mof_O 	O 	0.47565	0.90751	0.12213	-0.553
Mof_O 	O 	0.50477	0.03585	0.17128	-0.431
Mof_O 	O 	0.53921	0.11164	0.17968	-0.433
Mof_C 	C 	0.5362	0.8363	0.146	0.413
Mof_C 	C 	0.5561	0.8204	0.1603	-0.182
Mof_C 	C 	0.5578	0.7932	0.1582	0.114
Mof_C 	C 	0.4915	0.92196	0.13448	0.374
Mof_C 	C 	0.48401	0.95019	0.13951	-0.148
Mof_C 	C 	0.50219	0.96786	0.15093	0.125
Mof_O 	O 	0.53381	0.35991	0.65065	-0.61
Mof_O 	O 	0.52153	0.32557	0.62885	-0.431
Mof_O 	O 	0.5932	0.23886	0.6878	-0.668
Mof_O 	O 	0.5128	0.41274	0.64248	-0.508
Mof_O 	O 	0.47565	0.40751	0.62213	-0.553
Mof_O 	O 	0.50477	0.53585	0.67128	-0.432
Mof_O 	O 	0.53921	0.61164	0.67968	-0.433
Mof_C 	C 	0.5362	0.3363	0.646	0.413
Mof_C 	C 	0.5561	0.3204	0.6603	-0.182
Mof_C 	C 	0.5578	0.2932	0.6582	0.114
Mof_C 	C 	0.4915	0.42196	0.63448	0.374
Mof_C 	C 	0.48401	0.45019	0.63951	-0.149
Mof_C 	C 	0.50219	0.46786	0.65093	0.126
Mof_O 	O 	0.03381	0.85991	0.65065	-0.609
Mof_O 	O 	0.02153	0.82557	0.62885	-0.431
Mof_O 	O 	0.0932	0.73886	0.6878	-0.668
Mof_O 	O 	0.0128	0.91274	0.64248	-0.509
Mof_O 	O 	0.97565	0.90751	0.62213	-0.552
Mof_O 	O 	0.00477	0.03585	0.67128	-0.431
Mof_O 	O 	0.03921	0.11164	0.67968	-0.433
Mof_C 	C 	0.0362	0.8363	0.646	0.413
Mof_C 	C 	0.0561	0.8204	0.6603	-0.182
Mof_C 	C 	0.0578	0.7932	0.6582	0.114
Mof_C 	C 	0.9915	0.92196	0.63448	0.375
Mof_C 	C 	0.98401	0.95019	0.63951	-0.145
Mof_C 	C 	0.00219	0.96786	0.65093	0.121
Mof_O 	O 	0.03381	0.35991	0.15065	-0.609
Mof_O 	O 	0.02153	0.32557	0.12885	-0.431
Mof_O 	O 	0.0932	0.23886	0.1878	-0.668
Mof_O 	O 	0.0128	0.41274	0.14248	-0.509
Mof_O 	O 	0.97565	0.40751	0.12213	-0.552
Mof_O 	O 	0.00477	0.53585	0.17128	-0.432
Mof_O 	O 	0.03921	0.61164	0.17968	-0.433
Mof_C 	C 	0.0362	0.3363	0.146	0.413
Mof_C 	C 	0.0561	0.3204	0.1603	-0.182
Mof_C 	C 	0.0578	0.2932	0.1582	0.114
Mof_C 	C 	0.9915	0.42196	0.13448	0.376
Mof_C 	C 	0.98401	0.45019	0.13951	-0.146
Mof_C 	C 	0.00219	0.46786	0.15093	0.122
Mof_O 	O 	0.71619	0.35991	0.59935	-0.61
Mof_O 	O 	0.72847	0.32557	0.62115	-0.431
Mof_O 	O 	0.6568	0.23886	0.5622	-0.668
Mof_O 	O 	0.7372	0.41274	0.60752	-0.508
Mof_O 	O 	0.77435	0.40751	0.62787	-0.553
Mof_O 	O 	0.74523	0.53585	0.57872	-0.432
Mof_O 	O 	0.71079	0.61164	0.57032	-0.433
Mof_C 	C 	0.7138	0.3363	0.604	0.413
Mof_C 	C 	0.6939	0.3204	0.5897	-0.182
Mof_C 	C 	0.6922	0.2932	0.5918	0.114
Mof_C 	C 	0.7585	0.42196	0.61552	0.374
Mof_C 	C 	0.76599	0.45019	0.61049	-0.149
Mof_C 	C 	0.74781	0.46786	0.59907	0.126
Mof_O 	O 	0.71619	0.85991	0.09935	-0.61
Mof_O 	O 	0.72847	0.82557	0.12115	-0.431
Mof_O 	O 	0.6568	0.73886	0.0622	-0.668
Mof_O 	O 	0.7372	0.91274	0.10752	-0.508
Mof_O 	O 	0.77435	0.90751	0.12787	-0.553
Mof_O 	O 	0.74523	0.03585	0.07872	-0.431
Mof_O 	O 	0.71079	0.11164	0.07032	-0.433
Mof_C 	C 	0.7138	0.8363	0.104	0.413
Mof_C 	C 	0.6939	0.8204	0.0897	-0.182
Mof_C 	C 	0.6922	0.7932	0.0918	0.114
Mof_C 	C 	0.7585	0.92196	0.11552	0.374
Mof_C 	C 	0.76599	0.95019	0.11049	-0.148
Mof_C 	C 	0.74781	0.96786	0.09907	0.125
Mof_O 	O 	0.21619	0.35991	0.09935	-0.61
Mof_O 	O 	0.22847	0.32557	0.12115	-0.431
Mof_O 	O 	0.1568	0.23886	0.0622	-0.668
Mof_O 	O 	0.2372	0.41274	0.10752	-0.508
Mof_O 	O 	0.27435	0.40751	0.12787	-0.553
Mof_O 	O 	0.24523	0.53585	0.07872	-0.432
Mof_O 	O 	0.21079	0.61164	0.07032	-0.433
Mof_C 	C 	0.2138	0.3363	0.104	0.413
Mof_C 	C 	0.1939	0.3204	0.0897	-0.182
Mof_C 	C 	0.1922	0.2932	0.0918	0.114
Mof_C 	C 	0.2585	0.42196	0.11552	0.374
Mof_C 	C 	0.26599	0.45019	0.11049	-0.149
Mof_C 	C 	0.24781	0.46786	0.09907	0.126
Mof_O 	O 	0.21619	0.85991	0.59935	-0.61
Mof_O 	O 	0.22847	0.82557	0.62115	-0.431
Mof_O 	O 	0.1568	0.73886	0.5622	-0.668
Mof_O 	O 	0.2372	0.91274	0.60752	-0.508
Mof_O 	O 	0.27435	0.90751	0.62787	-0.553
Mof_O 	O 	0.24523	0.03585	0.57872	-0.431
Mof_O 	O 	0.21079	0.11164	0.57032	-0.433
Mof_C 	C 	0.2138	0.8363	0.604	0.413
Mof_C 	C 	0.1939	0.8204	0.5897	-0.182
Mof_C 	C 	0.1922	0.7932	0.5918	0.114
Mof_C 	C 	0.2585	0.92196	0.61552	0.374
Mof_C 	C 	0.26599	0.95019	0.61049	-0.148
Mof_C 	C 	0.24781	0.96786	0.59907	0.125
Mof_O 	O 	0.21619	0.39009	0.65065	-0.61
Mof_O 	O 	0.22847	0.42443	0.62885	-0.431
Mof_O 	O 	0.1568	0.51114	0.6878	-0.668
Mof_O 	O 	0.2372	0.33726	0.64248	-0.508
Mof_O 	O 	0.27435	0.34249	0.62213	-0.553
Mof_O 	O 	0.24523	0.21415	0.67128	-0.432
Mof_O 	O 	0.21079	0.13836	0.67968	-0.433
Mof_C 	C 	0.2138	0.4137	0.646	0.413
Mof_C 	C 	0.1939	0.4296	0.6603	-0.182
Mof_C 	C 	0.1922	0.4568	0.6582	0.114
Mof_C 	C 	0.2585	0.32804	0.63448	0.374
Mof_C 	C 	0.26599	0.29981	0.63951	-0.149
Mof_C 	C 	0.24781	0.28214	0.65093	0.126
Mof_O 	O 	0.21619	0.89009	0.15065	-0.61
Mof_O 	O 	0.22847	0.92443	0.12885	-0.43
Mof_O 	O 	0.1568	0.01114	0.1878	-0.668
Mof_O 	O 	0.2372	0.83726	0.14248	-0.508
Mof_O 	O 	0.27435	0.84249	0.12213	-0.553
Mof_O 	O 	0.24523	0.71415	0.17128	-0.432
Mof_O 	O 	0.21079	0.63836	0.17968	-0.433
Mof_C 	C 	0.2138	0.9137	0.146	0.413
Mof_C 	C 	0.1939	0.9296	0.1603	-0.182
Mof_C 	C 	0.1922	0.9568	0.1582	0.114
Mof_C 	C 	0.2585	0.82804	0.13448	0.374
Mof_C 	C 	0.26599	0.79981	0.13951	-0.149
Mof_C 	C 	0.24781	0.78214	0.15093	0.126
Mof_O 	O 	0.71619	0.39009	0.15065	-0.61
Mof_O 	O 	0.72847	0.42443	0.12885	-0.431
Mof_O 	O 	0.6568	0.51114	0.1878	-0.668
Mof_O 	O 	0.7372	0.33726	0.14248	-0.508
Mof_O 	O 	0.77435	0.34249	0.12213	-0.553
Mof_O 	O 	0.74523	0.21415	0.17128	-0.432
Mof_O 	O 	0.71079	0.13836	0.17968	-0.433
Mof_C 	C 	0.7138	0.4137	0.146	0.413
Mof_C 	C 	0.6939	0.4296	0.1603	-0.182
Mof_C 	C 	0.6922	0.4568	0.1582	0.114
Mof_C 	C 	0.7585	0.32804	0.13448	0.374
Mof_C 	C 	0.76599	0.29981	0.13951	-0.149
Mof_C 	C 	0.74781	0.28214	0.15093	0.126
Mof_O 	O 	0.71619	0.89009	0.65065	-0.61
Mof_O 	O 	0.72847	0.92443	0.62885	-0.43
Mof_O 	O 	0.6568	0.01114	0.6878	-0.668
Mof_O 	O 	0.7372	0.83726	0.64248	-0.508
Mof_O 	O 	0.77435	0.84249	0.62213	-0.553
Mof_O 	O 	0.74523	0.71415	0.67128	-0.432
Mof_O 	O 	0.71079	0.63836	0.67968	-0.433
Mof_C 	C 	0.7138	0.9137	0.646	0.413
Mof_C 	C 	0.6939	0.9296	0.6603	-0.182
Mof_C 	C 	0.6922	0.9568	0.6582	0.114
Mof_C 	C 	0.7585	0.82804	0.63448	0.374
Mof_C 	C 	0.76599	0.79981	0.63951	-0.149
Mof_C 	C 	0.74781	0.78214	0.65093	0.126
Mof_O 	O 	0.09935	0.03381	0.89009	-0.609
Mof_O 	O 	0.12115	0.02153	0.92443	-0.431
Mof_O 	O 	0.0622	0.0932	0.01114	-0.668
Mof_O 	O 	0.10752	0.0128	0.83726	-0.509
Mof_O 	O 	0.12787	0.97565	0.84249	-0.552
Mof_O 	O 	0.07872	0.00477	0.71415	-0.432
Mof_O 	O 	0.07032	0.03921	0.63836	-0.434
Mof_C 	C 	0.104	0.0362	0.9137	0.413
Mof_C 	C 	0.0897	0.0561	0.9296	-0.182
Mof_C 	C 	0.0918	0.0578	0.9568	0.114
Mof_C 	C 	0.11552	0.9915	0.82804	0.375
Mof_C 	C 	0.11049	0.98401	0.79981	-0.146
Mof_C 	C 	0.09907	0.00219	0.78214	0.122
Mof_O 	O 	0.09935	0.53381	0.39009	-0.61
Mof_O 	O 	0.12115	0.52153	0.42443	-0.431
Mof_O 	O 	0.0622	0.5932	0.51114	-0.668
Mof_O 	O 	0.10752	0.5128	0.33726	-0.508
Mof_O 	O 	0.12787	0.47565	0.34249	-0.553
Mof_O 	O 	0.07872	0.50477	0.21415	-0.432
Mof_O 	O 	0.07032	0.53921	0.13836	-0.433
Mof_C 	C 	0.104	0.5362	0.4137	0.413
Mof_C 	C 	0.0897	0.5561	0.4296	-0.182
Mof_C 	C 	0.0918	0.5578	0.4568	0.114
Mof_C 	C 	0.11552	0.4915	0.32804	0.374
Mof_C 	C 	0.11049	0.48401	0.29981	-0.149
Mof_C 	C 	0.09907	0.50219	0.28214	0.126
Mof_O 	O 	0.59935	0.03381	0.39009	-0.609
Mof_O 	O 	0.62115	0.02153	0.42443	-0.431
Mof_O 	O 	0.5622	0.0932	0.51114	-0.668
Mof_O 	O 	0.60752	0.0128	0.33726	-0.509
Mof_O 	O 	0.62787	0.97565	0.34249	-0.552
Mof_O 	O 	0.57872	0.00477	0.21415	-0.432
Mof_O 	O 	0.57032	0.03921	0.13836	-0.433
Mof_C 	C 	0.604	0.0362	0.4137	0.413
Mof_C 	C 	0.5897	0.0561	0.4296	-0.182
Mof_C 	C 	0.5918	0.0578	0.4568	0.114
Mof_C 	C 	0.61552	0.9915	0.32804	0.376
Mof_C 	C 	0.61049	0.98401	0.29981	-0.146
Mof_C 	C 	0.59907	0.00219	0.28214	0.122
Mof_O 	O 	0.59935	0.53381	0.89009	-0.61
Mof_O 	O 	0.62115	0.52153	0.92443	-0.43
Mof_O 	O 	0.5622	0.5932	0.01114	-0.668
Mof_O 	O 	0.60752	0.5128	0.83726	-0.508
Mof_O 	O 	0.62787	0.47565	0.84249	-0.553
Mof_O 	O 	0.57872	0.50477	0.71415	-0.432
Mof_O 	O 	0.57032	0.53921	0.63836	-0.433
Mof_C 	C 	0.604	0.5362	0.9137	0.413
Mof_C 	C 	0.5897	0.5561	0.9296	-0.182
Mof_C 	C 	0.5918	0.5578	0.9568	0.114
Mof_C 	C 	0.61552	0.4915	0.82804	0.374
Mof_C 	C 	0.61049	0.48401	0.79981	-0.149
Mof_C 	C 	0.59907	0.50219	0.78214	0.126
Mof_O 	O 	0.15065	0.53381	0.85991	-0.61
Mof_O 	O 	0.12885	0.52153	0.82557	-0.431
Mof_O 	O 	0.1878	0.5932	0.73886	-0.668
Mof_O 	O 	0.14248	0.5128	0.91274	-0.508
Mof_O 	O 	0.12213	0.47565	0.90751	-0.553
Mof_O 	O 	0.17128	0.50477	0.03585	-0.431
Mof_O 	O 	0.17968	0.53921	0.11164	-0.433
Mof_C 	C 	0.146	0.5362	0.8363	0.413
Mof_C 	C 	0.1603	0.5561	0.8204	-0.182
Mof_C 	C 	0.1582	0.5578	0.7932	0.114
Mof_C 	C 	0.13448	0.4915	0.92196	0.374
Mof_C 	C 	0.13951	0.48401	0.95019	-0.148
Mof_C 	C 	0.15093	0.50219	0.96786	0.125
Mof_O 	O 	0.15065	0.03381	0.35991	-0.609
Mof_O 	O 	0.12885	0.02153	0.32557	-0.431
Mof_O 	O 	0.1878	0.0932	0.23886	-0.668
Mof_O 	O 	0.14248	0.0128	0.41274	-0.509
Mof_O 	O 	0.12213	0.97565	0.40751	-0.552
Mof_O 	O 	0.17128	0.00477	0.53585	-0.432
Mof_O 	O 	0.17968	0.03921	0.61164	-0.433
Mof_C 	C 	0.146	0.0362	0.3363	0.413
Mof_C 	C 	0.1603	0.0561	0.3204	-0.182
Mof_C 	C 	0.1582	0.0578	0.2932	0.114
Mof_C 	C 	0.13448	0.9915	0.42196	0.376
Mof_C 	C 	0.13951	0.98401	0.45019	-0.146
Mof_C 	C 	0.15093	0.00219	0.46786	0.122
Mof_O 	O 	0.65065	0.53381	0.35991	-0.61
Mof_O 	O 	0.62885	0.52153	0.32557	-0.431
Mof_O 	O 	0.6878	0.5932	0.23886	-0.668
Mof_O 	O 	0.64248	0.5128	0.41274	-0.508
Mof_O 	O 	0.62213	0.47565	0.40751	-0.553
Mof_O 	O 	0.67128	0.50477	0.53585	-0.432
Mof_O 	O 	0.67968	0.53921	0.61164	-0.433
Mof_C 	C 	0.646	0.5362	0.3363	0.413
Mof_C 	C 	0.6603	0.5561	0.3204	-0.182
Mof_C 	C 	0.6582	0.5578	0.2932	0.114
Mof_C 	C 	0.63448	0.4915	0.42196	0.374
Mof_C 	C 	0.63951	0.48401	0.45019	-0.149
Mof_C 	C 	0.65093	0.50219	0.46786	0.126
Mof_O 	O 	0.65065	0.03381	0.85991	-0.609
Mof_O 	O 	0.62885	0.02153	0.82557	-0.431
Mof_O 	O 	0.6878	0.0932	0.73886	-0.668
Mof_O 	O 	0.64248	0.0128	0.91274	-0.509
Mof_O 	O 	0.62213	0.97565	0.90751	-0.552
Mof_O 	O 	0.67128	0.00477	0.03585	-0.431
Mof_O 	O 	0.67968	0.03921	0.11164	-0.433
Mof_C 	C 	0.646	0.0362	0.8363	0.413
Mof_C 	C 	0.6603	0.0561	0.8204	-0.182
Mof_C 	C 	0.6582	0.0578	0.7932	0.114
Mof_C 	C 	0.63448	0.9915	0.92196	0.375
Mof_C 	C 	0.63951	0.98401	0.95019	-0.145
Mof_C 	C 	0.65093	0.00219	0.96786	0.121
Mof_O 	O 	0.59935	0.71619	0.35991	-0.61
Mof_O 	O 	0.62115	0.72847	0.32557	-0.431
Mof_O 	O 	0.5622	0.6568	0.23886	-0.668
Mof_O 	O 	0.60752	0.7372	0.41274	-0.508
Mof_O 	O 	0.62787	0.77435	0.40751	-0.553
Mof_O 	O 	0.57872	0.74523	0.53585	-0.432
Mof_O 	O 	0.57032	0.71079	0.61164	-0.433
Mof_C 	C 	0.604	0.7138	0.3363	0.413
Mof_C 	C 	0.5897	0.6939	0.3204	-0.182
Mof_C 	C 	0.5918	0.6922	0.2932	0.114
Mof_C 	C 	0.61552	0.7585	0.42196	0.374
Mof_C 	C 	0.61049	0.76599	0.45019	-0.149
Mof_C 	C 	0.59907	0.74781	0.46786	0.126
Mof_O 	O 	0.59935	0.21619	0.85991	-0.61
Mof_O 	O 	0.62115	0.22847	0.82557	-0.431
Mof_O 	O 	0.5622	0.1568	0.73886	-0.668
Mof_O 	O 	0.60752	0.2372	0.91274	-0.508
Mof_O 	O 	0.62787	0.27435	0.90751	-0.553
Mof_O 	O 	0.57872	0.24523	0.03585	-0.431
Mof_O 	O 	0.57032	0.21079	0.11164	-0.433
Mof_C 	C 	0.604	0.2138	0.8363	0.413
Mof_C 	C 	0.5897	0.1939	0.8204	-0.182
Mof_C 	C 	0.5918	0.1922	0.7932	0.114
Mof_C 	C 	0.61552	0.2585	0.92196	0.374
Mof_C 	C 	0.61049	0.26599	0.95019	-0.148
Mof_C 	C 	0.59907	0.24781	0.96786	0.125
Mof_O 	O 	0.09935	0.71619	0.85991	-0.61
Mof_O 	O 	0.12115	0.72847	0.82557	-0.431
Mof_O 	O 	0.0622	0.6568	0.73886	-0.668
Mof_O 	O 	0.10752	0.7372	0.91274	-0.508
Mof_O 	O 	0.12787	0.77435	0.90751	-0.553
Mof_O 	O 	0.07872	0.74523	0.03585	-0.431
Mof_O 	O 	0.07032	0.71079	0.11164	-0.433
Mof_C 	C 	0.104	0.7138	0.8363	0.413
Mof_C 	C 	0.0897	0.6939	0.8204	-0.182
Mof_C 	C 	0.0918	0.6922	0.7932	0.114
Mof_C 	C 	0.11552	0.7585	0.92196	0.374
Mof_C 	C 	0.11049	0.76599	0.95019	-0.148
Mof_C 	C 	0.09907	0.74781	0.96786	0.125
Mof_O 	O 	0.09935	0.21619	0.35991	-0.61
Mof_O 	O 	0.12115	0.22847	0.32557	-0.431
Mof_O 	O 	0.0622	0.1568	0.23886	-0.668
Mof_O 	O 	0.10752	0.2372	0.41274	-0.508
Mof_O 	O 	0.12787	0.27435	0.40751	-0.553
Mof_O 	O 	0.07872	0.24523	0.53585	-0.432
Mof_O 	O 	0.07032	0.21079	0.61164	-0.433
Mof_C 	C 	0.104	0.2138	0.3363	0.413
Mof_C 	C 	0.0897	0.1939	0.3204	-0.182
Mof_C 	C 	0.0918	0.1922	0.2932	0.114
Mof_C 	C 	0.11552	0.2585	0.42196	0.374
Mof_C 	C 	0.11049	0.26599	0.45019	-0.149
Mof_C 	C 	0.09907	0.24781	0.46786	0.126
Mof_O 	O 	0.65065	0.21619	0.39009	-0.61
Mof_O 	O 	0.62885	0.22847	0.42443	-0.431
Mof_O 	O 	0.6878	0.1568	0.51114	-0.668
Mof_O 	O 	0.64248	0.2372	0.33726	-0.508
Mof_O 	O 	0.62213	0.27435	0.34249	-0.553
Mof_O 	O 	0.67128	0.24523	0.21415	-0.432
Mof_O 	O 	0.67968	0.21079	0.13836	-0.433
Mof_C 	C 	0.646	0.2138	0.4137	0.413
Mof_C 	C 	0.6603	0.1939	0.4296	-0.182
Mof_C 	C 	0.6582	0.1922	0.4568	0.114
Mof_C 	C 	0.63448	0.2585	0.32804	0.374
Mof_C 	C 	0.63951	0.26599	0.29981	-0.149
Mof_C 	C 	0.65093	0.24781	0.28214	0.126
Mof_O 	O 	0.65065	0.71619	0.89009	-0.61
Mof_O 	O 	0.62885	0.72847	0.92443	-0.43
Mof_O 	O 	0.6878	0.6568	0.01114	-0.668
Mof_O 	O 	0.64248	0.7372	0.83726	-0.508
Mof_O 	O 	0.62213	0.77435	0.84249	-0.553
Mof_O 	O 	0.67128	0.74523	0.71415	-0.432
Mof_O 	O 	0.67968	0.71079	0.63836	-0.433
Mof_C 	C 	0.646	0.7138	0.9137	0.413
Mof_C 	C 	0.6603	0.6939	0.9296	-0.182
Mof_C 	C 	0.6582	0.6922	0.9568	0.114
Mof_C 	C 	0.63448	0.7585	0.82804	0.374
Mof_C 	C 	0.63951	0.76599	0.79981	-0.149
Mof_C 	C 	0.65093	0.74781	0.78214	0.126
Mof_O 	O 	0.15065	0.21619	0.89009	-0.61
Mof_O 	O 	0.12885	0.22847	0.92443	-0.43
Mof_O 	O 	0.1878	0.1568	0.01114	-0.668
Mof_O 	O 	0.14248	0.2372	0.83726	-0.508
Mof_O 	O 	0.12213	0.27435	0.84249	-0.553
Mof_O 	O 	0.17128	0.24523	0.71415	-0.432
Mof_O 	O 	0.17968	0.21079	0.63836	-0.433
Mof_C 	C 	0.146	0.2138	0.9137	0.413
Mof_C 	C 	0.1603	0.1939	0.9296	-0.182
Mof_C 	C 	0.1582	0.1922	0.9568	0.114
Mof_C 	C 	0.13448	0.2585	0.82804	0.374
Mof_C 	C 	0.13951	0.26599	0.79981	-0.149
Mof_C 	C 	0.15093	0.24781	0.78214	0.126
Mof_O 	O 	0.15065	0.71619	0.39009	-0.61
Mof_O 	O 	0.12885	0.72847	0.42443	-0.431
Mof_O 	O 	0.1878	0.6568	0.51114	-0.668
Mof_O 	O 	0.14248	0.7372	0.33726	-0.508
Mof_O 	O 	0.12213	0.77435	0.34249	-0.553
Mof_O 	O 	0.17128	0.74523	0.21415	-0.432
Mof_O 	O 	0.17968	0.71079	0.13836	-0.433
Mof_C 	C 	0.146	0.7138	0.4137	0.413
Mof_C 	C 	0.1603	0.6939	0.4296	-0.182
Mof_C 	C 	0.1582	0.6922	0.4568	0.114
Mof_C 	C 	0.13448	0.7585	0.32804	0.374
Mof_C 	C 	0.13951	0.76599	0.29981	-0.149
Mof_C 	C 	0.15093	0.74781	0.28214	0.126
Mof_O 	O 	0.84935	0.14009	0.46619	-0.61
Mof_O 	O 	0.87115	0.17443	0.47847	-0.431
Mof_O 	O 	0.8122	0.26114	0.4068	-0.668
Mof_O 	O 	0.85752	0.08726	0.4872	-0.508
Mof_O 	O 	0.87787	0.09249	0.52435	-0.553
Mof_O 	O 	0.82872	0.96415	0.49523	-0.432
Mof_O 	O 	0.82032	0.88836	0.46079	-0.433
Mof_C 	C 	0.854	0.1637	0.4638	0.413
Mof_C 	C 	0.8397	0.1796	0.4439	-0.182
Mof_C 	C 	0.8418	0.2068	0.4422	0.114
Mof_C 	C 	0.86552	0.07804	0.5085	0.374
Mof_C 	C 	0.86049	0.04981	0.51599	-0.15
Mof_C 	C 	0.84907	0.03214	0.49781	0.127
Mof_O 	O 	0.84935	0.64009	0.96619	-0.608
Mof_O 	O 	0.87115	0.67443	0.97847	-0.429
Mof_O 	O 	0.8122	0.76114	0.9068	-0.668
Mof_O 	O 	0.85752	0.58726	0.9872	-0.506
Mof_O 	O 	0.87787	0.59249	0.02435	-0.552
Mof_O 	O 	0.82872	0.46415	0.99523	-0.432
Mof_O 	O 	0.82032	0.38836	0.96079	-0.433
Mof_C 	C 	0.854	0.6637	0.9638	0.413
Mof_C 	C 	0.8397	0.6796	0.9439	-0.181
Mof_C 	C 	0.8418	0.7068	0.9422	0.114
Mof_C 	C 	0.86552	0.57804	0.0085	0.373
Mof_C 	C 	0.86049	0.54981	0.01599	-0.151
Mof_C 	C 	0.84907	0.53214	0.99781	0.13
Mof_O 	O 	0.34935	0.14009	0.96619	-0.608
Mof_O 	O 	0.37115	0.17443	0.97847	-0.43
Mof_O 	O 	0.3122	0.26114	0.9068	-0.668
Mof_O 	O 	0.35752	0.08726	0.9872	-0.506
Mof_O 	O 	0.37787	0.09249	0.02435	-0.552
Mof_O 	O 	0.32872	0.96415	0.99523	-0.432
Mof_O 	O 	0.32032	0.88836	0.96079	-0.433
Mof_C 	C 	0.354	0.1637	0.9638	0.413
Mof_C 	C 	0.3397	0.1796	0.9439	-0.181
Mof_C 	C 	0.3418	0.2068	0.9422	0.114
Mof_C 	C 	0.36552	0.07804	0.0085	0.373
Mof_C 	C 	0.36049	0.04981	0.01599	-0.152
Mof_C 	C 	0.34907	0.03214	0.99781	0.131
Mof_O 	O 	0.34935	0.64009	0.46619	-0.61
Mof_O 	O 	0.37115	0.67443	0.47847	-0.431
Mof_O 	O 	0.3122	0.76114	0.4068	-0.668
Mof_O 	O 	0.35752	0.58726	0.4872	-0.508
Mof_O 	O 	0.37787	0.59249	0.52435	-0.553
Mof_O 	O 	0.32872	0.46415	0.49523	-0.432
Mof_O 	O 	0.32032	0.38836	0.46079	-0.433
Mof_C 	C 	0.354	0.6637	0.4638	0.413
Mof_C 	C 	0.3397	0.6796	0.4439	-0.182
Mof_C 	C 	0.3418	0.7068	0.4422	0.114
Mof_C 	C 	0.36552	0.57804	0.5085	0.374
Mof_C 	C 	0.36049	0.54981	0.51599	-0.149
Mof_C 	C 	0.34907	0.53214	0.49781	0.126
Mof_O 	O 	0.90065	0.10991	0.96619	-0.608
Mof_O 	O 	0.87885	0.07557	0.97847	-0.43
Mof_O 	O 	0.9378	0.98886	0.9068	-0.667
Mof_O 	O 	0.89248	0.16274	0.9872	-0.506
Mof_O 	O 	0.87213	0.15751	0.02435	-0.552
Mof_O 	O 	0.92128	0.28585	0.99523	-0.432
Mof_O 	O 	0.92968	0.36164	0.96079	-0.433
Mof_C 	C 	0.896	0.0863	0.9638	0.413
Mof_C 	C 	0.9103	0.0704	0.9439	-0.182
Mof_C 	C 	0.9082	0.0432	0.9422	0.114
Mof_C 	C 	0.88448	0.17196	0.0085	0.373
Mof_C 	C 	0.88951	0.20019	0.01599	-0.151
Mof_C 	C 	0.90093	0.21786	0.99781	0.13
Mof_O 	O 	0.90065	0.60991	0.46619	-0.61
Mof_O 	O 	0.87885	0.57557	0.47847	-0.431
Mof_O 	O 	0.9378	0.48886	0.4068	-0.668
Mof_O 	O 	0.89248	0.66274	0.4872	-0.508
Mof_O 	O 	0.87213	0.65751	0.52435	-0.553
Mof_O 	O 	0.92128	0.78585	0.49523	-0.432
Mof_O 	O 	0.92968	0.86164	0.46079	-0.433
Mof_C 	C 	0.896	0.5863	0.4638	0.413
Mof_C 	C 	0.9103	0.5704	0.4439	-0.182
Mof_C 	C 	0.9082	0.5432	0.4422	0.114
Mof_C 	C 	0.88448	0.67196	0.5085	0.374
Mof_C 	C 	0.88951	0.70019	0.51599	-0.149
Mof_C 	C 	0.90093	0.71786	0.49781	0.126
Mof_O 	O 	0.40065	0.10991	0.46619	-0.61
Mof_O 	O 	0.37885	0.07557	0.47847	-0.431
Mof_O 	O 	0.4378	0.98886	0.4068	-0.668
Mof_O 	O 	0.39248	0.16274	0.4872	-0.508
Mof_O 	O 	0.37213	0.15751	0.52435	-0.553
Mof_O 	O 	0.42128	0.28585	0.49523	-0.432
Mof_O 	O 	0.42968	0.36164	0.46079	-0.433
Mof_C 	C 	0.396	0.0863	0.4638	0.413
Mof_C 	C 	0.4103	0.0704	0.4439	-0.182
Mof_C 	C 	0.4082	0.0432	0.4422	0.114
Mof_C 	C 	0.38448	0.17196	0.5085	0.374
Mof_C 	C 	0.38951	0.20019	0.51599	-0.149
Mof_C 	C 	0.40093	0.21786	0.49781	0.126
Mof_O 	O 	0.40065	0.60991	0.96619	-0.608
Mof_O 	O 	0.37885	0.57557	0.97847	-0.43
Mof_O 	O 	0.4378	0.48886	0.9068	-0.668
Mof_O 	O 	0.39248	0.66274	0.9872	-0.506
Mof_O 	O 	0.37213	0.65751	0.02435	-0.552
Mof_O 	O 	0.42128	0.78585	0.99523	-0.432
Mof_O 	O 	0.42968	0.86164	0.96079	-0.433
Mof_C 	C 	0.396	0.5863	0.9638	0.413
Mof_C 	C 	0.4103	0.5704	0.9439	-0.181
Mof_C 	C 	0.4082	0.5432	0.9422	0.114
Mof_C 	C 	0.38448	0.67196	0.0085	0.373
Mof_C 	C 	0.38951	0.70019	0.01599	-0.151
Mof_C 	C 	0.40093	0.71786	0.99781	0.13
Mof_O 	O 	0.34935	0.60991	0.78381	-0.61
Mof_O 	O 	0.37115	0.57557	0.77153	-0.431
Mof_O 	O 	0.3122	0.48886	0.8432	-0.668
Mof_O 	O 	0.35752	0.66274	0.7628	-0.508
Mof_O 	O 	0.37787	0.65751	0.72565	-0.553
Mof_O 	O 	0.32872	0.78585	0.75477	-0.432
Mof_O 	O 	0.32032	0.86164	0.78921	-0.433
Mof_C 	C 	0.354	0.5863	0.7862	0.413
Mof_C 	C 	0.3397	0.5704	0.8061	-0.182
Mof_C 	C 	0.3418	0.5432	0.8078	0.114
Mof_C 	C 	0.36552	0.67196	0.7415	0.374
Mof_C 	C 	0.36049	0.70019	0.73401	-0.149
Mof_C 	C 	0.34907	0.71786	0.75219	0.126
Mof_O 	O 	0.34935	0.10991	0.28381	-0.61
Mof_O 	O 	0.37115	0.07557	0.27153	-0.431
Mof_O 	O 	0.3122	0.98886	0.3432	-0.668
Mof_O 	O 	0.35752	0.16274	0.2628	-0.508
Mof_O 	O 	0.37787	0.15751	0.22565	-0.553
Mof_O 	O 	0.32872	0.28585	0.25477	-0.432
Mof_O 	O 	0.32032	0.36164	0.28921	-0.433
Mof_C 	C 	0.354	0.0863	0.2862	0.413
Mof_C 	C 	0.3397	0.0704	0.3061	-0.182
Mof_C 	C 	0.3418	0.0432	0.3078	0.114
Mof_C 	C 	0.36552	0.17196	0.2415	0.374
Mof_C 	C 	0.36049	0.20019	0.23401	-0.149
Mof_C 	C 	0.34907	0.21786	0.25219	0.126
Mof_O 	O 	0.84935	0.60991	0.28381	-0.61
Mof_O 	O 	0.87115	0.57557	0.27153	-0.431
Mof_O 	O 	0.8122	0.48886	0.3432	-0.668
Mof_O 	O 	0.85752	0.66274	0.2628	-0.508
Mof_O 	O 	0.87787	0.65751	0.22565	-0.553
Mof_O 	O 	0.82872	0.78585	0.25477	-0.432
Mof_O 	O 	0.82032	0.86164	0.28921	-0.433
Mof_C 	C 	0.854	0.5863	0.2862	0.413
Mof_C 	C 	0.8397	0.5704	0.3061	-0.182
Mof_C 	C 	0.8418	0.5432	0.3078	0.114
Mof_C 	C 	0.86552	0.67196	0.2415	0.374
Mof_C 	C 	0.86049	0.70019	0.23401	-0.149
Mof_C 	C 	0.84907	0.71786	0.25219	0.126
Mof_O 	O 	0.84935	0.10991	0.78381	-0.61
Mof_O 	O 	0.87115	0.07557	0.77153	-0.431
Mof_O 	O 	0.8122	0.98886	0.8432	-0.668
Mof_O 	O 	0.85752	0.16274	0.7628	-0.508
Mof_O 	O 	0.87787	0.15751	0.72565	-0.553
Mof_O 	O 	0.82872	0.28585	0.75477	-0.432
Mof_O 	O 	0.82032	0.36164	0.78921	-0.433
Mof_C 	C 	0.854	0.0863	0.7862	0.413
Mof_C 	C 	0.8397	0.0704	0.8061	-0.182
Mof_C 	C 	0.8418	0.0432	0.8078	0.114
Mof_C 	C 	0.86552	0.17196	0.7415	0.374
Mof_C 	C 	0.86049	0.20019	0.73401	-0.149
Mof_C 	C 	0.84907	0.21786	0.75219	0.126
Mof_O 	O 	0.40065	0.64009	0.28381	-0.61
Mof_O 	O 	0.37885	0.67443	0.27153	-0.431
Mof_O 	O 	0.4378	0.76114	0.3432	-0.668
Mof_O 	O 	0.39248	0.58726	0.2628	-0.508
Mof_O 	O 	0.37213	0.59249	0.22565	-0.553
Mof_O 	O 	0.42128	0.46415	0.25477	-0.432
Mof_O 	O 	0.42968	0.38836	0.28921	-0.433
Mof_C 	C 	0.396	0.6637	0.2862	0.413
Mof_C 	C 	0.4103	0.6796	0.3061	-0.182
Mof_C 	C 	0.4082	0.7068	0.3078	0.114
Mof_C 	C 	0.38448	0.57804	0.2415	0.374
Mof_C 	C 	0.38951	0.54981	0.23401	-0.149
Mof_C 	C 	0.40093	0.53214	0.25219	0.126
Mof_O 	O 	0.40065	0.14009	0.78381	-0.61
Mof_O 	O 	0.37885	0.17443	0.77153	-0.431
Mof_O 	O 	0.4378	0.26114	0.8432	-0.668
Mof_O 	O 	0.39248	0.08726	0.7628	-0.508
Mof_O 	O 	0.37213	0.09249	0.72565	-0.553
Mof_O 	O 	0.42128	0.96415	0.75477	-0.432
Mof_O 	O 	0.42968	0.88836	0.78921	-0.433
Mof_C 	C 	0.396	0.1637	0.7862	0.413
Mof_C 	C 	0.4103	0.1796	0.8061	-0.182
Mof_C 	C 	0.4082	0.2068	0.8078	0.114
Mof_C 	C 	0.38448	0.07804	0.7415	0.374
Mof_C 	C 	0.38951	0.04981	0.73401	-0.15
Mof_C 	C 	0.40093	0.03214	0.75219	0.127
Mof_O 	O 	0.90065	0.64009	0.78381	-0.61
Mof_O 	O 	0.87885	0.67443	0.77153	-0.431
Mof_O 	O 	0.9378	0.76114	0.8432	-0.668
Mof_O 	O 	0.89248	0.58726	0.7628	-0.508
Mof_O 	O 	0.87213	0.59249	0.72565	-0.553
Mof_O 	O 	0.92128	0.46415	0.75477	-0.432
Mof_O 	O 	0.92968	0.38836	0.78921	-0.433
Mof_C 	C 	0.896	0.6637	0.7862	0.413
Mof_C 	C 	0.9103	0.6796	0.8061	-0.182
Mof_C 	C 	0.9082	0.7068	0.8078	0.114
Mof_C 	C 	0.88448	0.57804	0.7415	0.374
Mof_C 	C 	0.88951	0.54981	0.73401	-0.149
Mof_C 	C 	0.90093	0.53214	0.75219	0.126
Mof_O 	O 	0.90065	0.14009	0.28381	-0.61
Mof_O 	O 	0.87885	0.17443	0.27153	-0.431
Mof_O 	O 	0.9378	0.26114	0.3432	-0.668
Mof_O 	O 	0.89248	0.08726	0.2628	-0.508
Mof_O 	O 	0.87213	0.09249	0.22565	-0.553
Mof_O 	O 	0.92128	0.96415	0.25477	-0.432
Mof_O 	O 	0.92968	0.88836	0.28921	-0.433
Mof_C 	C 	0.896	0.1637	0.2862	0.413
Mof_C 	C 	0.9103	0.1796	0.3061	-0.182
Mof_C 	C 	0.9082	0.2068	0.3078	0.114
Mof_C 	C 	0.88448	0.07804	0.2415	0.374
Mof_C 	C 	0.88951	0.04981	0.23401	-0.15
Mof_C 	C 	0.90093	0.03214	0.25219	0.127
Mof_O 	O 	0.64009	0.28381	0.40065	-0.61
Mof_O 	O 	0.67443	0.27153	0.37885	-0.431
Mof_O 	O 	0.76114	0.3432	0.4378	-0.668
Mof_O 	O 	0.58726	0.2628	0.39248	-0.508
Mof_O 	O 	0.59249	0.22565	0.37213	-0.553
Mof_O 	O 	0.46415	0.25477	0.42128	-0.432
Mof_O 	O 	0.38836	0.28921	0.42968	-0.433
Mof_C 	C 	0.6637	0.2862	0.396	0.413
Mof_C 	C 	0.6796	0.3061	0.4103	-0.182
Mof_C 	C 	0.7068	0.3078	0.4082	0.114
Mof_C 	C 	0.57804	0.2415	0.38448	0.374
Mof_C 	C 	0.54981	0.23401	0.38951	-0.149
Mof_C 	C 	0.53214	0.25219	0.40093	0.126
Mof_O 	O 	0.64009	0.78381	0.90065	-0.61
Mof_O 	O 	0.67443	0.77153	0.87885	-0.431
Mof_O 	O 	0.76114	0.8432	0.9378	-0.668
Mof_O 	O 	0.58726	0.7628	0.89248	-0.508
Mof_O 	O 	0.59249	0.72565	0.87213	-0.553
Mof_O 	O 	0.46415	0.75477	0.92128	-0.432
Mof_O 	O 	0.38836	0.78921	0.92968	-0.433
Mof_C 	C 	0.6637	0.7862	0.896	0.413
Mof_C 	C 	0.6796	0.8061	0.9103	-0.182
Mof_C 	C 	0.7068	0.8078	0.9082	0.114
Mof_C 	C 	0.57804	0.7415	0.88448	0.374
Mof_C 	C 	0.54981	0.73401	0.88951	-0.149
Mof_C 	C 	0.53214	0.75219	0.90093	0.126
Mof_O 	O 	0.14009	0.28381	0.90065	-0.61
Mof_O 	O 	0.17443	0.27153	0.87885	-0.431
Mof_O 	O 	0.26114	0.3432	0.9378	-0.668
Mof_O 	O 	0.08726	0.2628	0.89248	-0.508
Mof_O 	O 	0.09249	0.22565	0.87213	-0.553
Mof_O 	O 	0.96415	0.25477	0.92128	-0.432
Mof_O 	O 	0.88836	0.28921	0.92968	-0.433
Mof_C 	C 	0.1637	0.2862	0.896	0.413
Mof_C 	C 	0.1796	0.3061	0.9103	-0.182
Mof_C 	C 	0.2068	0.3078	0.9082	0.114
Mof_C 	C 	0.07804	0.2415	0.88448	0.374
Mof_C 	C 	0.04981	0.23401	0.88951	-0.15
Mof_C 	C 	0.03214	0.25219	0.90093	0.127
Mof_O 	O 	0.14009	0.78381	0.40065	-0.61
Mof_O 	O 	0.17443	0.77153	0.37885	-0.431
Mof_O 	O 	0.26114	0.8432	0.4378	-0.668
Mof_O 	O 	0.08726	0.7628	0.39248	-0.508
Mof_O 	O 	0.09249	0.72565	0.37213	-0.553
Mof_O 	O 	0.96415	0.75477	0.42128	-0.432
Mof_O 	O 	0.88836	0.78921	0.42968	-0.433
Mof_C 	C 	0.1637	0.7862	0.396	0.413
Mof_C 	C 	0.1796	0.8061	0.4103	-0.182
Mof_C 	C 	0.2068	0.8078	0.4082	0.114
Mof_C 	C 	0.07804	0.7415	0.38448	0.374
Mof_C 	C 	0.04981	0.73401	0.38951	-0.15
Mof_C 	C 	0.03214	0.75219	0.40093	0.127
Mof_O 	O 	0.60991	0.78381	0.34935	-0.61
Mof_O 	O 	0.57557	0.77153	0.37115	-0.431
Mof_O 	O 	0.48886	0.8432	0.3122	-0.668
Mof_O 	O 	0.66274	0.7628	0.35752	-0.508
Mof_O 	O 	0.65751	0.72565	0.37787	-0.553
Mof_O 	O 	0.78585	0.75477	0.32872	-0.432
Mof_O 	O 	0.86164	0.78921	0.32032	-0.433
Mof_C 	C 	0.5863	0.7862	0.354	0.413
Mof_C 	C 	0.5704	0.8061	0.3397	-0.182
Mof_C 	C 	0.5432	0.8078	0.3418	0.114
Mof_C 	C 	0.67196	0.7415	0.36552	0.374
Mof_C 	C 	0.70019	0.73401	0.36049	-0.149
Mof_C 	C 	0.71786	0.75219	0.34907	0.126
Mof_O 	O 	0.60991	0.28381	0.84935	-0.61
Mof_O 	O 	0.57557	0.27153	0.87115	-0.431
Mof_O 	O 	0.48886	0.3432	0.8122	-0.668
Mof_O 	O 	0.66274	0.2628	0.85752	-0.508
Mof_O 	O 	0.65751	0.22565	0.87787	-0.553
Mof_O 	O 	0.78585	0.25477	0.82872	-0.432
Mof_O 	O 	0.86164	0.28921	0.82032	-0.433
Mof_C 	C 	0.5863	0.2862	0.854	0.413
Mof_C 	C 	0.5704	0.3061	0.8397	-0.182
Mof_C 	C 	0.5432	0.3078	0.8418	0.114
Mof_C 	C 	0.67196	0.2415	0.86552	0.374
Mof_C 	C 	0.70019	0.23401	0.86049	-0.149
Mof_C 	C 	0.71786	0.25219	0.84907	0.126
Mof_O 	O 	0.10991	0.78381	0.84935	-0.61
Mof_O 	O 	0.07557	0.77153	0.87115	-0.431
Mof_O 	O 	0.98886	0.8432	0.8122	-0.668
Mof_O 	O 	0.16274	0.7628	0.85752	-0.508
Mof_O 	O 	0.15751	0.72565	0.87787	-0.553
Mof_O 	O 	0.28585	0.75477	0.82872	-0.432
Mof_O 	O 	0.36164	0.78921	0.82032	-0.433
Mof_C 	C 	0.0863	0.7862	0.854	0.413
Mof_C 	C 	0.0704	0.8061	0.8397	-0.182
Mof_C 	C 	0.0432	0.8078	0.8418	0.114
Mof_C 	C 	0.17196	0.7415	0.86552	0.374
Mof_C 	C 	0.20019	0.73401	0.86049	-0.149
Mof_C 	C 	0.21786	0.75219	0.84907	0.126
Mof_O 	O 	0.10991	0.28381	0.34935	-0.61
Mof_O 	O 	0.07557	0.27153	0.37115	-0.431
Mof_O 	O 	0.98886	0.3432	0.3122	-0.668
Mof_O 	O 	0.16274	0.2628	0.35752	-0.508
Mof_O 	O 	0.15751	0.22565	0.37787	-0.553
Mof_O 	O 	0.28585	0.25477	0.32872	-0.432
Mof_O 	O 	0.36164	0.28921	0.32032	-0.433
Mof_C 	C 	0.0863	0.2862	0.354	0.413
Mof_C 	C 	0.0704	0.3061	0.3397	-0.182
Mof_C 	C 	0.0432	0.3078	0.3418	0.114
Mof_C 	C 	0.17196	0.2415	0.36552	0.374
Mof_C 	C 	0.20019	0.23401	0.36049	-0.149
Mof_C 	C 	0.21786	0.25219	0.34907	0.126
Mof_O 	O 	0.10991	0.96619	0.90065	-0.608
Mof_O 	O 	0.07557	0.97847	0.87885	-0.43
Mof_O 	O 	0.98886	0.9068	0.9378	-0.667
Mof_O 	O 	0.16274	0.9872	0.89248	-0.506
Mof_O 	O 	0.15751	0.02435	0.87213	-0.552
Mof_O 	O 	0.28585	0.99523	0.92128	-0.432
Mof_O 	O 	0.36164	0.96079	0.92968	-0.433
Mof_C 	C 	0.0863	0.9638	0.896	0.413
Mof_C 	C 	0.0704	0.9439	0.9103	-0.182
Mof_C 	C 	0.0432	0.9422	0.9082	0.114
Mof_C 	C 	0.17196	0.0085	0.88448	0.373
Mof_C 	C 	0.20019	0.01599	0.88951	-0.151
Mof_C 	C 	0.21786	0.99781	0.90093	0.13
Mof_O 	O 	0.10991	0.46619	0.40065	-0.61
Mof_O 	O 	0.07557	0.47847	0.37885	-0.431
Mof_O 	O 	0.98886	0.4068	0.4378	-0.668
Mof_O 	O 	0.16274	0.4872	0.39248	-0.508
Mof_O 	O 	0.15751	0.52435	0.37213	-0.553
Mof_O 	O 	0.28585	0.49523	0.42128	-0.432
Mof_O 	O 	0.36164	0.46079	0.42968	-0.433
Mof_C 	C 	0.0863	0.4638	0.396	0.413
Mof_C 	C 	0.0704	0.4439	0.4103	-0.182
Mof_C 	C 	0.0432	0.4422	0.4082	0.114
Mof_C 	C 	0.17196	0.5085	0.38448	0.374
Mof_C 	C 	0.20019	0.51599	0.38951	-0.149
Mof_C 	C 	0.21786	0.49781	0.40093	0.126
Mof_O 	O 	0.60991	0.96619	0.40065	-0.608
Mof_O 	O 	0.57557	0.97847	0.37885	-0.43
Mof_O 	O 	0.48886	0.9068	0.4378	-0.668
Mof_O 	O 	0.66274	0.9872	0.39248	-0.506
Mof_O 	O 	0.65751	0.02435	0.37213	-0.552
Mof_O 	O 	0.78585	0.99523	0.42128	-0.432
Mof_O 	O 	0.86164	0.96079	0.42968	-0.433
Mof_C 	C 	0.5863	0.9638	0.396	0.413
Mof_C 	C 	0.5704	0.9439	0.4103	-0.181
Mof_C 	C 	0.5432	0.9422	0.4082	0.114
Mof_C 	C 	0.67196	0.0085	0.38448	0.373
Mof_C 	C 	0.70019	0.01599	0.38951	-0.151
Mof_C 	C 	0.71786	0.99781	0.40093	0.13
Mof_O 	O 	0.60991	0.46619	0.90065	-0.61
Mof_O 	O 	0.57557	0.47847	0.87885	-0.431
Mof_O 	O 	0.48886	0.4068	0.9378	-0.668
Mof_O 	O 	0.66274	0.4872	0.89248	-0.508
Mof_O 	O 	0.65751	0.52435	0.87213	-0.553
Mof_O 	O 	0.78585	0.49523	0.92128	-0.432
Mof_O 	O 	0.86164	0.46079	0.92968	-0.433
Mof_C 	C 	0.5863	0.4638	0.896	0.413
Mof_C 	C 	0.5704	0.4439	0.9103	-0.182
Mof_C 	C 	0.5432	0.4422	0.9082	0.114
Mof_C 	C 	0.67196	0.5085	0.88448	0.374
Mof_C 	C 	0.70019	0.51599	0.88951	-0.149
Mof_C 	C 	0.71786	0.49781	0.90093	0.126
Mof_O 	O 	0.14009	0.46619	0.84935	-0.61
Mof_O 	O 	0.17443	0.47847	0.87115	-0.431
Mof_O 	O 	0.26114	0.4068	0.8122	-0.668
Mof_O 	O 	0.08726	0.4872	0.85752	-0.508
Mof_O 	O 	0.09249	0.52435	0.87787	-0.553
Mof_O 	O 	0.96415	0.49523	0.82872	-0.432
Mof_O 	O 	0.88836	0.46079	0.82032	-0.433
Mof_C 	C 	0.1637	0.4638	0.854	0.413
Mof_C 	C 	0.1796	0.4439	0.8397	-0.182
Mof_C 	C 	0.2068	0.4422	0.8418	0.114
Mof_C 	C 	0.07804	0.5085	0.86552	0.374
Mof_C 	C 	0.04981	0.51599	0.86049	-0.15
Mof_C 	C 	0.03214	0.49781	0.84907	0.127
Mof_O 	O 	0.14009	0.96619	0.34935	-0.608
Mof_O 	O 	0.17443	0.97847	0.37115	-0.43
Mof_O 	O 	0.26114	0.9068	0.3122	-0.668
Mof_O 	O 	0.08726	0.9872	0.35752	-0.506
Mof_O 	O 	0.09249	0.02435	0.37787	-0.552
Mof_O 	O 	0.96415	0.99523	0.32872	-0.432
Mof_O 	O 	0.88836	0.96079	0.32032	-0.433
Mof_C 	C 	0.1637	0.9638	0.354	0.413
Mof_C 	C 	0.1796	0.9439	0.3397	-0.181
Mof_C 	C 	0.2068	0.9422	0.3418	0.114
Mof_C 	C 	0.07804	0.0085	0.36552	0.373
Mof_C 	C 	0.04981	0.01599	0.36049	-0.152
Mof_C 	C 	0.03214	0.99781	0.34907	0.131
Mof_O 	O 	0.64009	0.46619	0.34935	-0.61
Mof_O 	O 	0.67443	0.47847	0.37115	-0.431
Mof_O 	O 	0.76114	0.4068	0.3122	-0.668
Mof_O 	O 	0.58726	0.4872	0.35752	-0.508
Mof_O 	O 	0.59249	0.52435	0.37787	-0.553
Mof_O 	O 	0.46415	0.49523	0.32872	-0.432
Mof_O 	O 	0.38836	0.46079	0.32032	-0.433
Mof_C 	C 	0.6637	0.4638	0.354	0.413
Mof_C 	C 	0.6796	0.4439	0.3397	-0.182
Mof_C 	C 	0.7068	0.4422	0.3418	0.114
Mof_C 	C 	0.57804	0.5085	0.36552	0.374
Mof_C 	C 	0.54981	0.51599	0.36049	-0.149
Mof_C 	C 	0.53214	0.49781	0.34907	0.126
Mof_O 	O 	0.64009	0.96619	0.84935	-0.608
Mof_O 	O 	0.67443	0.97847	0.87115	-0.429
Mof_O 	O 	0.76114	0.9068	0.8122	-0.668
Mof_O 	O 	0.58726	0.9872	0.85752	-0.506
Mof_O 	O 	0.59249	0.02435	0.87787	-0.552
Mof_O 	O 	0.46415	0.99523	0.82872	-0.432
Mof_O 	O 	0.38836	0.96079	0.82032	-0.433
Mof_C 	C 	0.6637	0.9638	0.854	0.413
Mof_C 	C 	0.6796	0.9439	0.8397	-0.181
Mof_C 	C 	0.7068	0.9422	0.8418	0.114
Mof_C 	C 	0.57804	0.0085	0.86552	0.373
Mof_C 	C 	0.54981	0.01599	0.86049	-0.151
Mof_C 	C 	0.53214	0.99781	0.84907	0.13
Mof_O 	O 	0.78381	0.34935	0.60991	-0.61
Mof_O 	O 	0.77153	0.37115	0.57557	-0.431
Mof_O 	O 	0.8432	0.3122	0.48886	-0.668
Mof_O 	O 	0.7628	0.35752	0.66274	-0.508
Mof_O 	O 	0.72565	0.37787	0.65751	-0.553
Mof_O 	O 	0.75477	0.32872	0.78585	-0.432
Mof_O 	O 	0.78921	0.32032	0.86164	-0.433
Mof_C 	C 	0.7862	0.354	0.5863	0.413
Mof_C 	C 	0.8061	0.3397	0.5704	-0.182
Mof_C 	C 	0.8078	0.3418	0.5432	0.114
Mof_C 	C 	0.7415	0.36552	0.67196	0.374
Mof_C 	C 	0.73401	0.36049	0.70019	-0.149
Mof_C 	C 	0.75219	0.34907	0.71786	0.126
Mof_O 	O 	0.78381	0.84935	0.10991	-0.61
Mof_O 	O 	0.77153	0.87115	0.07557	-0.431
Mof_O 	O 	0.8432	0.8122	0.98886	-0.668
Mof_O 	O 	0.7628	0.85752	0.16274	-0.508
Mof_O 	O 	0.72565	0.87787	0.15751	-0.553
Mof_O 	O 	0.75477	0.82872	0.28585	-0.432
Mof_O 	O 	0.78921	0.82032	0.36164	-0.433
Mof_C 	C 	0.7862	0.854	0.0863	0.413
Mof_C 	C 	0.8061	0.8397	0.0704	-0.182
Mof_C 	C 	0.8078	0.8418	0.0432	0.114
Mof_C 	C 	0.7415	0.86552	0.17196	0.374
Mof_C 	C 	0.73401	0.86049	0.20019	-0.149
Mof_C 	C 	0.75219	0.84907	0.21786	0.126
Mof_O 	O 	0.28381	0.34935	0.10991	-0.61
Mof_O 	O 	0.27153	0.37115	0.07557	-0.431
Mof_O 	O 	0.3432	0.3122	0.98886	-0.668
Mof_O 	O 	0.2628	0.35752	0.16274	-0.508
Mof_O 	O 	0.22565	0.37787	0.15751	-0.553
Mof_O 	O 	0.25477	0.32872	0.28585	-0.432
Mof_O 	O 	0.28921	0.32032	0.36164	-0.433
Mof_C 	C 	0.2862	0.354	0.0863	0.413
Mof_C 	C 	0.3061	0.3397	0.0704	-0.182
Mof_C 	C 	0.3078	0.3418	0.0432	0.114
Mof_C 	C 	0.2415	0.36552	0.17196	0.374
Mof_C 	C 	0.23401	0.36049	0.20019	-0.149
Mof_C 	C 	0.25219	0.34907	0.21786	0.126
Mof_O 	O 	0.28381	0.84935	0.60991	-0.61
Mof_O 	O 	0.27153	0.87115	0.57557	-0.431
Mof_O 	O 	0.3432	0.8122	0.48886	-0.668
Mof_O 	O 	0.2628	0.85752	0.66274	-0.508
Mof_O 	O 	0.22565	0.87787	0.65751	-0.553
Mof_O 	O 	0.25477	0.82872	0.78585	-0.432
Mof_O 	O 	0.28921	0.82032	0.86164	-0.433
Mof_C 	C 	0.2862	0.854	0.5863	0.413
Mof_C 	C 	0.3061	0.8397	0.5704	-0.182
Mof_C 	C 	0.3078	0.8418	0.5432	0.114
Mof_C 	C 	0.2415	0.86552	0.67196	0.374
Mof_C 	C 	0.23401	0.86049	0.70019	-0.149
Mof_C 	C 	0.25219	0.84907	0.71786	0.126
Mof_O 	O 	0.28381	0.40065	0.64009	-0.61
Mof_O 	O 	0.27153	0.37885	0.67443	-0.431
Mof_O 	O 	0.3432	0.4378	0.76114	-0.668
Mof_O 	O 	0.2628	0.39248	0.58726	-0.508
Mof_O 	O 	0.22565	0.37213	0.59249	-0.553
Mof_O 	O 	0.25477	0.42128	0.46415	-0.432
Mof_O 	O 	0.28921	0.42968	0.38836	-0.433
Mof_C 	C 	0.2862	0.396	0.6637	0.413
Mof_C 	C 	0.3061	0.4103	0.6796	-0.182
Mof_C 	C 	0.3078	0.4082	0.7068	0.114
Mof_C 	C 	0.2415	0.38448	0.57804	0.374
Mof_C 	C 	0.23401	0.38951	0.54981	-0.149
Mof_C 	C 	0.25219	0.40093	0.53214	0.126
Mof_O 	O 	0.28381	0.90065	0.14009	-0.61
Mof_O 	O 	0.27153	0.87885	0.17443	-0.431
Mof_O 	O 	0.3432	0.9378	0.26114	-0.668
Mof_O 	O 	0.2628	0.89248	0.08726	-0.508
Mof_O 	O 	0.22565	0.87213	0.09249	-0.553
Mof_O 	O 	0.25477	0.92128	0.96415	-0.432
Mof_O 	O 	0.28921	0.92968	0.88836	-0.433
Mof_C 	C 	0.2862	0.896	0.1637	0.413
Mof_C 	C 	0.3061	0.9103	0.1796	-0.182
Mof_C 	C 	0.3078	0.9082	0.2068	0.114
Mof_C 	C 	0.2415	0.88448	0.07804	0.374
Mof_C 	C 	0.23401	0.88951	0.04981	-0.15
Mof_C 	C 	0.25219	0.90093	0.03214	0.127
Mof_O 	O 	0.78381	0.40065	0.14009	-0.61
Mof_O 	O 	0.77153	0.37885	0.17443	-0.431
Mof_O 	O 	0.8432	0.4378	0.26114	-0.668
Mof_O 	O 	0.7628	0.39248	0.08726	-0.508
Mof_O 	O 	0.72565	0.37213	0.09249	-0.553
Mof_O 	O 	0.75477	0.42128	0.96415	-0.432
Mof_O 	O 	0.78921	0.42968	0.88836	-0.433
Mof_C 	C 	0.7862	0.396	0.1637	0.413
Mof_C 	C 	0.8061	0.4103	0.1796	-0.182
Mof_C 	C 	0.8078	0.4082	0.2068	0.114
Mof_C 	C 	0.7415	0.38448	0.07804	0.374
Mof_C 	C 	0.73401	0.38951	0.04981	-0.15
Mof_C 	C 	0.75219	0.40093	0.03214	0.127
Mof_O 	O 	0.78381	0.90065	0.64009	-0.61
Mof_O 	O 	0.77153	0.87885	0.67443	-0.431
Mof_O 	O 	0.8432	0.9378	0.76114	-0.668
Mof_O 	O 	0.7628	0.89248	0.58726	-0.508
Mof_O 	O 	0.72565	0.87213	0.59249	-0.553
Mof_O 	O 	0.75477	0.92128	0.46415	-0.432
Mof_O 	O 	0.78921	0.92968	0.38836	-0.433
Mof_C 	C 	0.7862	0.896	0.6637	0.413
Mof_C 	C 	0.8061	0.9103	0.6796	-0.182
Mof_C 	C 	0.8078	0.9082	0.7068	0.114
Mof_C 	C 	0.7415	0.88448	0.57804	0.374
Mof_C 	C 	0.73401	0.88951	0.54981	-0.149
Mof_C 	C 	0.75219	0.90093	0.53214	0.126
Mof_O 	O 	0.46619	0.84935	0.14009	-0.61
Mof_O 	O 	0.47847	0.87115	0.17443	-0.431
Mof_O 	O 	0.4068	0.8122	0.26114	-0.668
Mof_O 	O 	0.4872	0.85752	0.08726	-0.508
Mof_O 	O 	0.52435	0.87787	0.09249	-0.553
Mof_O 	O 	0.49523	0.82872	0.96415	-0.432
Mof_O 	O 	0.46079	0.82032	0.88836	-0.433
Mof_C 	C 	0.4638	0.854	0.1637	0.413
Mof_C 	C 	0.4439	0.8397	0.1796	-0.182
Mof_C 	C 	0.4422	0.8418	0.2068	0.114
Mof_C 	C 	0.5085	0.86552	0.07804	0.374
Mof_C 	C 	0.51599	0.86049	0.04981	-0.15
Mof_C 	C 	0.49781	0.84907	0.03214	0.127
Mof_O 	O 	0.46619	0.34935	0.64009	-0.61
Mof_O 	O 	0.47847	0.37115	0.67443	-0.431
Mof_O 	O 	0.4068	0.3122	0.76114	-0.668
Mof_O 	O 	0.4872	0.35752	0.58726	-0.508
Mof_O 	O 	0.52435	0.37787	0.59249	-0.553
Mof_O 	O 	0.49523	0.32872	0.46415	-0.432
Mof_O 	O 	0.46079	0.32032	0.38836	-0.433
Mof_C 	C 	0.4638	0.354	0.6637	0.413
Mof_C 	C 	0.4439	0.3397	0.6796	-0.182
Mof_C 	C 	0.4422	0.3418	0.7068	0.114
Mof_C 	C 	0.5085	0.36552	0.57804	0.374
Mof_C 	C 	0.51599	0.36049	0.54981	-0.149
Mof_C 	C 	0.49781	0.34907	0.53214	0.126
Mof_O 	O 	0.96619	0.84935	0.64009	-0.608
Mof_O 	O 	0.97847	0.87115	0.67443	-0.429
Mof_O 	O 	0.9068	0.8122	0.76114	-0.668
Mof_O 	O 	0.9872	0.85752	0.58726	-0.506
Mof_O 	O 	0.02435	0.87787	0.59249	-0.552
Mof_O 	O 	0.99523	0.82872	0.46415	-0.432
Mof_O 	O 	0.96079	0.82032	0.38836	-0.433
Mof_C 	C 	0.9638	0.854	0.6637	0.413
Mof_C 	C 	0.9439	0.8397	0.6796	-0.181
Mof_C 	C 	0.9422	0.8418	0.7068	0.114
Mof_C 	C 	0.0085	0.86552	0.57804	0.373
Mof_C 	C 	0.01599	0.86049	0.54981	-0.151
Mof_C 	C 	0.99781	0.84907	0.53214	0.13
Mof_O 	O 	0.96619	0.34935	0.14009	-0.608
Mof_O 	O 	0.97847	0.37115	0.17443	-0.43
Mof_O 	O 	0.9068	0.3122	0.26114	-0.668
Mof_O 	O 	0.9872	0.35752	0.08726	-0.506
Mof_O 	O 	0.02435	0.37787	0.09249	-0.552
Mof_O 	O 	0.99523	0.32872	0.96415	-0.432
Mof_O 	O 	0.96079	0.32032	0.88836	-0.433
Mof_C 	C 	0.9638	0.354	0.1637	0.413
Mof_C 	C 	0.9439	0.3397	0.1796	-0.181
Mof_C 	C 	0.9422	0.3418	0.2068	0.114
Mof_C 	C 	0.0085	0.36552	0.07804	0.373
Mof_C 	C 	0.01599	0.36049	0.04981	-0.152
Mof_C 	C 	0.99781	0.34907	0.03214	0.131
Mof_O 	O 	0.96619	0.90065	0.10991	-0.608
Mof_O 	O 	0.97847	0.87885	0.07557	-0.43
Mof_O 	O 	0.9068	0.9378	0.98886	-0.667
Mof_O 	O 	0.9872	0.89248	0.16274	-0.506
Mof_O 	O 	0.02435	0.87213	0.15751	-0.552
Mof_O 	O 	0.99523	0.92128	0.28585	-0.432
Mof_O 	O 	0.96079	0.92968	0.36164	-0.433
Mof_C 	C 	0.9638	0.896	0.0863	0.413
Mof_C 	C 	0.9439	0.9103	0.0704	-0.182
Mof_C 	C 	0.9422	0.9082	0.0432	0.114
Mof_C 	C 	0.0085	0.88448	0.17196	0.373
Mof_C 	C 	0.01599	0.88951	0.20019	-0.151
Mof_C 	C 	0.99781	0.90093	0.21786	0.13
Mof_O 	O 	0.96619	0.40065	0.60991	-0.608
Mof_O 	O 	0.97847	0.37885	0.57557	-0.43
Mof_O 	O 	0.9068	0.4378	0.48886	-0.668
Mof_O 	O 	0.9872	0.39248	0.66274	-0.506
Mof_O 	O 	0.02435	0.37213	0.65751	-0.552
Mof_O 	O 	0.99523	0.42128	0.78585	-0.432
Mof_O 	O 	0.96079	0.42968	0.86164	-0.433
Mof_C 	C 	0.9638	0.396	0.5863	0.413
Mof_C 	C 	0.9439	0.4103	0.5704	-0.181
Mof_C 	C 	0.9422	0.4082	0.5432	0.114
Mof_C 	C 	0.0085	0.38448	0.67196	0.373
Mof_C 	C 	0.01599	0.38951	0.70019	-0.151
Mof_C 	C 	0.99781	0.40093	0.71786	0.13
Mof_O 	O 	0.46619	0.90065	0.60991	-0.61
Mof_O 	O 	0.47847	0.87885	0.57557	-0.431
Mof_O 	O 	0.4068	0.9378	0.48886	-0.668
Mof_O 	O 	0.4872	0.89248	0.66274	-0.508
Mof_O 	O 	0.52435	0.87213	0.65751	-0.553
Mof_O 	O 	0.49523	0.92128	0.78585	-0.432
Mof_O 	O 	0.46079	0.92968	0.86164	-0.433
Mof_C 	C 	0.4638	0.896	0.5863	0.413
Mof_C 	C 	0.4439	0.9103	0.5704	-0.182
Mof_C 	C 	0.4422	0.9082	0.5432	0.114
Mof_C 	C 	0.5085	0.88448	0.67196	0.374
Mof_C 	C 	0.51599	0.88951	0.70019	-0.149
Mof_C 	C 	0.49781	0.90093	0.71786	0.126
Mof_O 	O 	0.46619	0.40065	0.10991	-0.61
Mof_O 	O 	0.47847	0.37885	0.07557	-0.431
Mof_O 	O 	0.4068	0.4378	0.98886	-0.668
Mof_O 	O 	0.4872	0.39248	0.16274	-0.508
Mof_O 	O 	0.52435	0.37213	0.15751	-0.553
Mof_O 	O 	0.49523	0.42128	0.28585	-0.432
Mof_O 	O 	0.46079	0.42968	0.36164	-0.433
Mof_C 	C 	0.4638	0.396	0.0863	0.413
Mof_C 	C 	0.4439	0.4103	0.0704	-0.182
Mof_C 	C 	0.4422	0.4082	0.0432	0.114
Mof_C 	C 	0.5085	0.38448	0.17196	0.374
Mof_C 	C 	0.51599	0.38951	0.20019	-0.149
Mof_C 	C 	0.49781	0.40093	0.21786	0.126
Mof_O 	O 	0.10991	0.90065	0.96619	-0.608
Mof_O 	O 	0.07557	0.87885	0.97847	-0.43
Mof_O 	O 	0.98886	0.9378	0.9068	-0.667
Mof_O 	O 	0.16274	0.89248	0.9872	-0.506
Mof_O 	O 	0.15751	0.87213	0.02435	-0.552
Mof_O 	O 	0.28585	0.92128	0.99523	-0.432
Mof_O 	O 	0.36164	0.92968	0.96079	-0.433
Mof_C 	C 	0.0863	0.896	0.9638	0.413
Mof_C 	C 	0.0704	0.9103	0.9439	-0.182
Mof_C 	C 	0.0432	0.9082	0.9422	0.114
Mof_C 	C 	0.17196	0.88448	0.0085	0.373
Mof_C 	C 	0.20019	0.88951	0.01599	-0.151
Mof_C 	C 	0.21786	0.90093	0.99781	0.13
Mof_O 	O 	0.10991	0.40065	0.46619	-0.61
Mof_O 	O 	0.07557	0.37885	0.47847	-0.431
Mof_O 	O 	0.98886	0.4378	0.4068	-0.668
Mof_O 	O 	0.16274	0.39248	0.4872	-0.508
Mof_O 	O 	0.15751	0.37213	0.52435	-0.553
Mof_O 	O 	0.28585	0.42128	0.49523	-0.432
Mof_O 	O 	0.36164	0.42968	0.46079	-0.433
Mof_C 	C 	0.0863	0.396	0.4638	0.413
Mof_C 	C 	0.0704	0.4103	0.4439	-0.182
Mof_C 	C 	0.0432	0.4082	0.4422	0.114
Mof_C 	C 	0.17196	0.38448	0.5085	0.374
Mof_C 	C 	0.20019	0.38951	0.51599	-0.149
Mof_C 	C 	0.21786	0.40093	0.49781	0.126
Mof_O 	O 	0.60991	0.90065	0.46619	-0.61
Mof_O 	O 	0.57557	0.87885	0.47847	-0.431
Mof_O 	O 	0.48886	0.9378	0.4068	-0.668
Mof_O 	O 	0.66274	0.89248	0.4872	-0.508
Mof_O 	O 	0.65751	0.87213	0.52435	-0.553
Mof_O 	O 	0.78585	0.92128	0.49523	-0.432
Mof_O 	O 	0.86164	0.92968	0.46079	-0.433
Mof_C 	C 	0.5863	0.896	0.4638	0.413
Mof_C 	C 	0.5704	0.9103	0.4439	-0.182
Mof_C 	C 	0.5432	0.9082	0.4422	0.114
Mof_C 	C 	0.67196	0.88448	0.5085	0.374
Mof_C 	C 	0.70019	0.88951	0.51599	-0.149
Mof_C 	C 	0.71786	0.90093	0.49781	0.126
Mof_O 	O 	0.60991	0.40065	0.96619	-0.608
Mof_O 	O 	0.57557	0.37885	0.97847	-0.43
Mof_O 	O 	0.48886	0.4378	0.9068	-0.668
Mof_O 	O 	0.66274	0.39248	0.9872	-0.506
Mof_O 	O 	0.65751	0.37213	0.02435	-0.552
Mof_O 	O 	0.78585	0.42128	0.99523	-0.432
Mof_O 	O 	0.86164	0.42968	0.96079	-0.433
Mof_C 	C 	0.5863	0.396	0.9638	0.413
Mof_C 	C 	0.5704	0.4103	0.9439	-0.181
Mof_C 	C 	0.5432	0.4082	0.9422	0.114
Mof_C 	C 	0.67196	0.38448	0.0085	0.373
Mof_C 	C 	0.70019	0.38951	0.01599	-0.151
Mof_C 	C 	0.71786	0.40093	0.99781	0.13
Mof_O 	O 	0.14009	0.84935	0.46619	-0.61
Mof_O 	O 	0.17443	0.87115	0.47847	-0.431
Mof_O 	O 	0.26114	0.8122	0.4068	-0.668
Mof_O 	O 	0.08726	0.85752	0.4872	-0.508
Mof_O 	O 	0.09249	0.87787	0.52435	-0.553
Mof_O 	O 	0.96415	0.82872	0.49523	-0.432
Mof_O 	O 	0.88836	0.82032	0.46079	-0.433
Mof_C 	C 	0.1637	0.854	0.4638	0.413
Mof_C 	C 	0.1796	0.8397	0.4439	-0.182
Mof_C 	C 	0.2068	0.8418	0.4422	0.114
Mof_C 	C 	0.07804	0.86552	0.5085	0.374
Mof_C 	C 	0.04981	0.86049	0.51599	-0.15
Mof_C 	C 	0.03214	0.84907	0.49781	0.127
Mof_O 	O 	0.14009	0.34935	0.96619	-0.608
Mof_O 	O 	0.17443	0.37115	0.97847	-0.43
Mof_O 	O 	0.26114	0.3122	0.9068	-0.668
Mof_O 	O 	0.08726	0.35752	0.9872	-0.506
Mof_O 	O 	0.09249	0.37787	0.02435	-0.552
Mof_O 	O 	0.96415	0.32872	0.99523	-0.432
Mof_O 	O 	0.88836	0.32032	0.96079	-0.433
Mof_C 	C 	0.1637	0.354	0.9638	0.413
Mof_C 	C 	0.1796	0.3397	0.9439	-0.181
Mof_C 	C 	0.2068	0.3418	0.9422	0.114
Mof_C 	C 	0.07804	0.36552	0.0085	0.373
Mof_C 	C 	0.04981	0.36049	0.01599	-0.152
Mof_C 	C 	0.03214	0.34907	0.99781	0.131
Mof_O 	O 	0.64009	0.84935	0.96619	-0.608
Mof_O 	O 	0.67443	0.87115	0.97847	-0.429
Mof_O 	O 	0.76114	0.8122	0.9068	-0.668
Mof_O 	O 	0.58726	0.85752	0.9872	-0.506
Mof_O 	O 	0.59249	0.87787	0.02435	-0.552
Mof_O 	O 	0.46415	0.82872	0.99523	-0.432
Mof_O 	O 	0.38836	0.82032	0.96079	-0.433
Mof_C 	C 	0.6637	0.854	0.9638	0.413
Mof_C 	C 	0.6796	0.8397	0.9439	-0.181
Mof_C 	C 	0.7068	0.8418	0.9422	0.114
Mof_C 	C 	0.57804	0.86552	0.0085	0.373
Mof_C 	C 	0.54981	0.86049	0.01599	-0.151
Mof_C 	C 	0.53214	0.84907	0.99781	0.13
Mof_O 	O 	0.64009	0.34935	0.46619	-0.61
Mof_O 	O 	0.67443	0.37115	0.47847	-0.431
Mof_O 	O 	0.76114	0.3122	0.4068	-0.668
Mof_O 	O 	0.58726	0.35752	0.4872	-0.508
Mof_O 	O 	0.59249	0.37787	0.52435	-0.553
Mof_O 	O 	0.46415	0.32872	0.49523	-0.432
Mof_O 	O 	0.38836	0.32032	0.46079	-0.433
Mof_C 	C 	0.6637	0.354	0.4638	0.413
Mof_C 	C 	0.6796	0.3397	0.4439	-0.182
Mof_C 	C 	0.7068	0.3418	0.4422	0.114
Mof_C 	C 	0.57804	0.36552	0.5085	0.374
Mof_C 	C 	0.54981	0.36049	0.51599	-0.149
Mof_C 	C 	0.53214	0.34907	0.49781	0.126
Mof_O 	O 	0.64009	0.40065	0.28381	-0.61
Mof_O 	O 	0.67443	0.37885	0.27153	-0.431
Mof_O 	O 	0.76114	0.4378	0.3432	-0.668
Mof_O 	O 	0.58726	0.39248	0.2628	-0.508
Mof_O 	O 	0.59249	0.37213	0.22565	-0.553
Mof_O 	O 	0.46415	0.42128	0.25477	-0.432
Mof_O 	O 	0.38836	0.42968	0.28921	-0.433
Mof_C 	C 	0.6637	0.396	0.2862	0.413
Mof_C 	C 	0.6796	0.4103	0.3061	-0.182
Mof_C 	C 	0.7068	0.4082	0.3078	0.114
Mof_C 	C 	0.57804	0.38448	0.2415	0.374
Mof_C 	C 	0.54981	0.38951	0.23401	-0.149
Mof_C 	C 	0.53214	0.40093	0.25219	0.126
Mof_O 	O 	0.64009	0.90065	0.78381	-0.61
Mof_O 	O 	0.67443	0.87885	0.77153	-0.431
Mof_O 	O 	0.76114	0.9378	0.8432	-0.668
Mof_O 	O 	0.58726	0.89248	0.7628	-0.508
Mof_O 	O 	0.59249	0.87213	0.72565	-0.553
Mof_O 	O 	0.46415	0.92128	0.75477	-0.432
Mof_O 	O 	0.38836	0.92968	0.78921	-0.433
Mof_C 	C 	0.6637	0.896	0.7862	0.413
Mof_C 	C 	0.6796	0.9103	0.8061	-0.182
Mof_C 	C 	0.7068	0.9082	0.8078	0.114
Mof_C 	C 	0.57804	0.88448	0.7415	0.374
Mof_C 	C 	0.54981	0.88951	0.73401	-0.149
Mof_C 	C 	0.53214	0.90093	0.75219	0.126
Mof_O 	O 	0.14009	0.40065	0.78381	-0.61
Mof_O 	O 	0.17443	0.37885	0.77153	-0.431
Mof_O 	O 	0.26114	0.4378	0.8432	-0.668
Mof_O 	O 	0.08726	0.39248	0.7628	-0.508
Mof_O 	O 	0.09249	0.37213	0.72565	-0.553
Mof_O 	O 	0.96415	0.42128	0.75477	-0.432
Mof_O 	O 	0.88836	0.42968	0.78921	-0.433
Mof_C 	C 	0.1637	0.396	0.7862	0.413
Mof_C 	C 	0.1796	0.4103	0.8061	-0.182
Mof_C 	C 	0.2068	0.4082	0.8078	0.114
Mof_C 	C 	0.07804	0.38448	0.7415	0.374
Mof_C 	C 	0.04981	0.38951	0.73401	-0.15
Mof_C 	C 	0.03214	0.40093	0.75219	0.127
Mof_O 	O 	0.14009	0.90065	0.28381	-0.61
Mof_O 	O 	0.17443	0.87885	0.27153	-0.431
Mof_O 	O 	0.26114	0.9378	0.3432	-0.668
Mof_O 	O 	0.08726	0.89248	0.2628	-0.508
Mof_O 	O 	0.09249	0.87213	0.22565	-0.553
Mof_O 	O 	0.96415	0.92128	0.25477	-0.432
Mof_O 	O 	0.88836	0.92968	0.28921	-0.433
Mof_C 	C 	0.1637	0.896	0.2862	0.413
Mof_C 	C 	0.1796	0.9103	0.3061	-0.182
Mof_C 	C 	0.2068	0.9082	0.3078	0.114
Mof_C 	C 	0.07804	0.88448	0.2415	0.374
Mof_C 	C 	0.04981	0.88951	0.23401	-0.15
Mof_C 	C 	0.03214	0.90093	0.25219	0.127
Mof_O 	O 	0.60991	0.34935	0.78381	-0.61
Mof_O 	O 	0.57557	0.37115	0.77153	-0.431
Mof_O 	O 	0.48886	0.3122	0.8432	-0.668
Mof_O 	O 	0.66274	0.35752	0.7628	-0.508
Mof_O 	O 	0.65751	0.37787	0.72565	-0.553
Mof_O 	O 	0.78585	0.32872	0.75477	-0.432
Mof_O 	O 	0.86164	0.32032	0.78921	-0.433
Mof_C 	C 	0.5863	0.354	0.7862	0.413
Mof_C 	C 	0.5704	0.3397	0.8061	-0.182
Mof_C 	C 	0.5432	0.3418	0.8078	0.114
Mof_C 	C 	0.67196	0.36552	0.7415	0.374
Mof_C 	C 	0.70019	0.36049	0.73401	-0.149
Mof_C 	C 	0.71786	0.34907	0.75219	0.126
Mof_O 	O 	0.60991	0.84935	0.28381	-0.61
Mof_O 	O 	0.57557	0.87115	0.27153	-0.431
Mof_O 	O 	0.48886	0.8122	0.3432	-0.668
Mof_O 	O 	0.66274	0.85752	0.2628	-0.508
Mof_O 	O 	0.65751	0.87787	0.22565	-0.553
Mof_O 	O 	0.78585	0.82872	0.25477	-0.432
Mof_O 	O 	0.86164	0.82032	0.28921	-0.433
Mof_C 	C 	0.5863	0.854	0.2862	0.413
Mof_C 	C 	0.5704	0.8397	0.3061	-0.182
Mof_C 	C 	0.5432	0.8418	0.3078	0.114
Mof_C 	C 	0.67196	0.86552	0.2415	0.374
Mof_C 	C 	0.70019	0.86049	0.23401	-0.149
Mof_C 	C 	0.71786	0.84907	0.25219	0.126
Mof_O 	O 	0.10991	0.34935	0.28381	-0.61
Mof_O 	O 	0.07557	0.37115	0.27153	-0.431
Mof_O 	O 	0.98886	0.3122	0.3432	-0.668
Mof_O 	O 	0.16274	0.35752	0.2628	-0.508
Mof_O 	O 	0.15751	0.37787	0.22565	-0.553
Mof_O 	O 	0.28585	0.32872	0.25477	-0.432
Mof_O 	O 	0.36164	0.32032	0.28921	-0.433
Mof_C 	C 	0.0863	0.354	0.2862	0.413
Mof_C 	C 	0.0704	0.3397	0.3061	-0.182
Mof_C 	C 	0.0432	0.3418	0.3078	0.114
Mof_C 	C 	0.17196	0.36552	0.2415	0.374
Mof_C 	C 	0.20019	0.36049	0.23401	-0.149
Mof_C 	C 	0.21786	0.34907	0.25219	0.126
Mof_O 	O 	0.10991	0.84935	0.78381	-0.61
Mof_O 	O 	0.07557	0.87115	0.77153	-0.431
Mof_O 	O 	0.98886	0.8122	0.8432	-0.668
Mof_O 	O 	0.16274	0.85752	0.7628	-0.508
Mof_O 	O 	0.15751	0.87787	0.72565	-0.553
Mof_O 	O 	0.28585	0.82872	0.75477	-0.432
Mof_O 	O 	0.36164	0.82032	0.78921	-0.433
Mof_C 	C 	0.0863	0.854	0.7862	0.413
Mof_C 	C 	0.0704	0.8397	0.8061	-0.182
Mof_C 	C 	0.0432	0.8418	0.8078	0.114
Mof_C 	C 	0.17196	0.86552	0.7415	0.374
Mof_C 	C 	0.20019	0.86049	0.73401	-0.149
Mof_C 	C 	0.21786	0.84907	0.75219	0.126
Mof_O 	O 	0.96619	0.10991	0.90065	-0.608
Mof_O 	O 	0.97847	0.07557	0.87885	-0.43
Mof_O 	O 	0.9068	0.98886	0.9378	-0.667
Mof_O 	O 	0.9872	0.16274	0.89248	-0.506
Mof_O 	O 	0.02435	0.15751	0.87213	-0.552
Mof_O 	O 	0.99523	0.28585	0.92128	-0.432
Mof_O 	O 	0.96079	0.36164	0.92968	-0.433
Mof_C 	C 	0.9638	0.0863	0.896	0.413
Mof_C 	C 	0.9439	0.0704	0.9103	-0.182
Mof_C 	C 	0.9422	0.0432	0.9082	0.114
Mof_C 	C 	0.0085	0.17196	0.88448	0.373
Mof_C 	C 	0.01599	0.20019	0.88951	-0.151
Mof_C 	C 	0.99781	0.21786	0.90093	0.13
Mof_O 	O 	0.96619	0.60991	0.40065	-0.608
Mof_O 	O 	0.97847	0.57557	0.37885	-0.43
Mof_O 	O 	0.9068	0.48886	0.4378	-0.668
Mof_O 	O 	0.9872	0.66274	0.39248	-0.506
Mof_O 	O 	0.02435	0.65751	0.37213	-0.552
Mof_O 	O 	0.99523	0.78585	0.42128	-0.432
Mof_O 	O 	0.96079	0.86164	0.42968	-0.433
Mof_C 	C 	0.9638	0.5863	0.396	0.413
Mof_C 	C 	0.9439	0.5704	0.4103	-0.181
Mof_C 	C 	0.9422	0.5432	0.4082	0.114
Mof_C 	C 	0.0085	0.67196	0.38448	0.373
Mof_C 	C 	0.01599	0.70019	0.38951	-0.151
Mof_C 	C 	0.99781	0.71786	0.40093	0.13
Mof_O 	O 	0.46619	0.10991	0.40065	-0.61
Mof_O 	O 	0.47847	0.07557	0.37885	-0.431
Mof_O 	O 	0.4068	0.98886	0.4378	-0.668
Mof_O 	O 	0.4872	0.16274	0.39248	-0.508
Mof_O 	O 	0.52435	0.15751	0.37213	-0.553
Mof_O 	O 	0.49523	0.28585	0.42128	-0.432
Mof_O 	O 	0.46079	0.36164	0.42968	-0.433
Mof_C 	C 	0.4638	0.0863	0.396	0.413
Mof_C 	C 	0.4439	0.0704	0.4103	-0.182
Mof_C 	C 	0.4422	0.0432	0.4082	0.114
Mof_C 	C 	0.5085	0.17196	0.38448	0.374
Mof_C 	C 	0.51599	0.20019	0.38951	-0.149
Mof_C 	C 	0.49781	0.21786	0.40093	0.126
Mof_O 	O 	0.46619	0.60991	0.90065	-0.61
Mof_O 	O 	0.47847	0.57557	0.87885	-0.431
Mof_O 	O 	0.4068	0.48886	0.9378	-0.668
Mof_O 	O 	0.4872	0.66274	0.89248	-0.508
Mof_O 	O 	0.52435	0.65751	0.87213	-0.553
Mof_O 	O 	0.49523	0.78585	0.92128	-0.432
Mof_O 	O 	0.46079	0.86164	0.92968	-0.433
Mof_C 	C 	0.4638	0.5863	0.896	0.413
Mof_C 	C 	0.4439	0.5704	0.9103	-0.182
Mof_C 	C 	0.4422	0.5432	0.9082	0.114
Mof_C 	C 	0.5085	0.67196	0.88448	0.374
Mof_C 	C 	0.51599	0.70019	0.88951	-0.149
Mof_C 	C 	0.49781	0.71786	0.90093	0.126
Mof_O 	O 	0.46619	0.14009	0.84935	-0.61
Mof_O 	O 	0.47847	0.17443	0.87115	-0.431
Mof_O 	O 	0.4068	0.26114	0.8122	-0.668
Mof_O 	O 	0.4872	0.08726	0.85752	-0.508
Mof_O 	O 	0.52435	0.09249	0.87787	-0.553
Mof_O 	O 	0.49523	0.96415	0.82872	-0.432
Mof_O 	O 	0.46079	0.88836	0.82032	-0.433
Mof_C 	C 	0.4638	0.1637	0.854	0.413
Mof_C 	C 	0.4439	0.1796	0.8397	-0.182
Mof_C 	C 	0.4422	0.2068	0.8418	0.114
Mof_C 	C 	0.5085	0.07804	0.86552	0.374
Mof_C 	C 	0.51599	0.04981	0.86049	-0.15
Mof_C 	C 	0.49781	0.03214	0.84907	0.127
Mof_O 	O 	0.46619	0.64009	0.34935	-0.61
Mof_O 	O 	0.47847	0.67443	0.37115	-0.431
Mof_O 	O 	0.4068	0.76114	0.3122	-0.668
Mof_O 	O 	0.4872	0.58726	0.35752	-0.508
Mof_O 	O 	0.52435	0.59249	0.37787	-0.553
Mof_O 	O 	0.49523	0.46415	0.32872	-0.432
Mof_O 	O 	0.46079	0.38836	0.32032	-0.433
Mof_C 	C 	0.4638	0.6637	0.354	0.413
Mof_C 	C 	0.4439	0.6796	0.3397	-0.182
Mof_C 	C 	0.4422	0.7068	0.3418	0.114
Mof_C 	C 	0.5085	0.57804	0.36552	0.374
Mof_C 	C 	0.51599	0.54981	0.36049	-0.149
Mof_C 	C 	0.49781	0.53214	0.34907	0.126
Mof_O 	O 	0.96619	0.14009	0.34935	-0.608
Mof_O 	O 	0.97847	0.17443	0.37115	-0.43
Mof_O 	O 	0.9068	0.26114	0.3122	-0.668
Mof_O 	O 	0.9872	0.08726	0.35752	-0.506
Mof_O 	O 	0.02435	0.09249	0.37787	-0.552
Mof_O 	O 	0.99523	0.96415	0.32872	-0.432
Mof_O 	O 	0.96079	0.88836	0.32032	-0.433
Mof_C 	C 	0.9638	0.1637	0.354	0.413
Mof_C 	C 	0.9439	0.1796	0.3397	-0.181
Mof_C 	C 	0.9422	0.2068	0.3418	0.114
Mof_C 	C 	0.0085	0.07804	0.36552	0.373
Mof_C 	C 	0.01599	0.04981	0.36049	-0.152
Mof_C 	C 	0.99781	0.03214	0.34907	0.131
Mof_O 	O 	0.96619	0.64009	0.84935	-0.608
Mof_O 	O 	0.97847	0.67443	0.87115	-0.429
Mof_O 	O 	0.9068	0.76114	0.8122	-0.668
Mof_O 	O 	0.9872	0.58726	0.85752	-0.506
Mof_O 	O 	0.02435	0.59249	0.87787	-0.552
Mof_O 	O 	0.99523	0.46415	0.82872	-0.432
Mof_O 	O 	0.96079	0.38836	0.82032	-0.433
Mof_C 	C 	0.9638	0.6637	0.854	0.413
Mof_C 	C 	0.9439	0.6796	0.8397	-0.181
Mof_C 	C 	0.9422	0.7068	0.8418	0.114
Mof_C 	C 	0.0085	0.57804	0.86552	0.373
Mof_C 	C 	0.01599	0.54981	0.86049	-0.151
Mof_C 	C 	0.99781	0.53214	0.84907	0.13
Mof_O 	O 	0.28381	0.64009	0.40065	-0.61
Mof_O 	O 	0.27153	0.67443	0.37885	-0.431
Mof_O 	O 	0.3432	0.76114	0.4378	-0.668
Mof_O 	O 	0.2628	0.58726	0.39248	-0.508
Mof_O 	O 	0.22565	0.59249	0.37213	-0.553
Mof_O 	O 	0.25477	0.46415	0.42128	-0.432
Mof_O 	O 	0.28921	0.38836	0.42968	-0.433
Mof_C 	C 	0.2862	0.6637	0.396	0.413
Mof_C 	C 	0.3061	0.6796	0.4103	-0.182
Mof_C 	C 	0.3078	0.7068	0.4082	0.114
Mof_C 	C 	0.2415	0.57804	0.38448	0.374
Mof_C 	C 	0.23401	0.54981	0.38951	-0.149
Mof_C 	C 	0.25219	0.53214	0.40093	0.126
Mof_O 	O 	0.28381	0.14009	0.90065	-0.61
Mof_O 	O 	0.27153	0.17443	0.87885	-0.431
Mof_O 	O 	0.3432	0.26114	0.9378	-0.668
Mof_O 	O 	0.2628	0.08726	0.89248	-0.508
Mof_O 	O 	0.22565	0.09249	0.87213	-0.553
Mof_O 	O 	0.25477	0.96415	0.92128	-0.432
Mof_O 	O 	0.28921	0.88836	0.92968	-0.433
Mof_C 	C 	0.2862	0.1637	0.896	0.413
Mof_C 	C 	0.3061	0.1796	0.9103	-0.182
Mof_C 	C 	0.3078	0.2068	0.9082	0.114
Mof_C 	C 	0.2415	0.07804	0.88448	0.374
Mof_C 	C 	0.23401	0.04981	0.88951	-0.15
Mof_C 	C 	0.25219	0.03214	0.90093	0.127
Mof_O 	O 	0.78381	0.64009	0.90065	-0.61
Mof_O 	O 	0.77153	0.67443	0.87885	-0.431
Mof_O 	O 	0.8432	0.76114	0.9378	-0.668
Mof_O 	O 	0.7628	0.58726	0.89248	-0.508
Mof_O 	O 	0.72565	0.59249	0.87213	-0.553
Mof_O 	O 	0.75477	0.46415	0.92128	-0.432
Mof_O 	O 	0.78921	0.38836	0.92968	-0.433
Mof_C 	C 	0.7862	0.6637	0.896	0.413
Mof_C 	C 	0.8061	0.6796	0.9103	-0.182
Mof_C 	C 	0.8078	0.7068	0.9082	0.114
Mof_C 	C 	0.7415	0.57804	0.88448	0.374
Mof_C 	C 	0.73401	0.54981	0.88951	-0.149
Mof_C 	C 	0.75219	0.53214	0.90093	0.126
Mof_O 	O 	0.78381	0.14009	0.40065	-0.61
Mof_O 	O 	0.77153	0.17443	0.37885	-0.431
Mof_O 	O 	0.8432	0.26114	0.4378	-0.668
Mof_O 	O 	0.7628	0.08726	0.39248	-0.508
Mof_O 	O 	0.72565	0.09249	0.37213	-0.553
Mof_O 	O 	0.75477	0.96415	0.42128	-0.432
Mof_O 	O 	0.78921	0.88836	0.42968	-0.433
Mof_C 	C 	0.7862	0.1637	0.396	0.413
Mof_C 	C 	0.8061	0.1796	0.4103	-0.182
Mof_C 	C 	0.8078	0.2068	0.4082	0.114
Mof_C 	C 	0.7415	0.07804	0.38448	0.374
Mof_C 	C 	0.73401	0.04981	0.38951	-0.15
Mof_C 	C 	0.75219	0.03214	0.40093	0.127
Mof_O 	O 	0.78381	0.60991	0.34935	-0.61
Mof_O 	O 	0.77153	0.57557	0.37115	-0.431
Mof_O 	O 	0.8432	0.48886	0.3122	-0.668
Mof_O 	O 	0.7628	0.66274	0.35752	-0.508
Mof_O 	O 	0.72565	0.65751	0.37787	-0.553
Mof_O 	O 	0.75477	0.78585	0.32872	-0.432
Mof_O 	O 	0.78921	0.86164	0.32032	-0.433
Mof_C 	C 	0.7862	0.5863	0.354	0.413
Mof_C 	C 	0.8061	0.5704	0.3397	-0.182
Mof_C 	C 	0.8078	0.5432	0.3418	0.114
Mof_C 	C 	0.7415	0.67196	0.36552	0.374
Mof_C 	C 	0.73401	0.70019	0.36049	-0.149
Mof_C 	C 	0.75219	0.71786	0.34907	0.126
Mof_O 	O 	0.78381	0.10991	0.84935	-0.61
Mof_O 	O 	0.77153	0.07557	0.87115	-0.431
Mof_O 	O 	0.8432	0.98886	0.8122	-0.668
Mof_O 	O 	0.7628	0.16274	0.85752	-0.508
Mof_O 	O 	0.72565	0.15751	0.87787	-0.553
Mof_O 	O 	0.75477	0.28585	0.82872	-0.432
Mof_O 	O 	0.78921	0.36164	0.82032	-0.433
Mof_C 	C 	0.7862	0.0863	0.854	0.413
Mof_C 	C 	0.8061	0.0704	0.8397	-0.182
Mof_C 	C 	0.8078	0.0432	0.8418	0.114
Mof_C 	C 	0.7415	0.17196	0.86552	0.374
Mof_C 	C 	0.73401	0.20019	0.86049	-0.149
Mof_C 	C 	0.75219	0.21786	0.84907	0.126
Mof_O 	O 	0.28381	0.60991	0.84935	-0.61
Mof_O 	O 	0.27153	0.57557	0.87115	-0.431
Mof_O 	O 	0.3432	0.48886	0.8122	-0.668
Mof_O 	O 	0.2628	0.66274	0.85752	-0.508
Mof_O 	O 	0.22565	0.65751	0.87787	-0.553
Mof_O 	O 	0.25477	0.78585	0.82872	-0.432
Mof_O 	O 	0.28921	0.86164	0.82032	-0.433
Mof_C 	C 	0.2862	0.5863	0.854	0.413
Mof_C 	C 	0.3061	0.5704	0.8397	-0.182
Mof_C 	C 	0.3078	0.5432	0.8418	0.114
Mof_C 	C 	0.2415	0.67196	0.86552	0.374
Mof_C 	C 	0.23401	0.70019	0.86049	-0.149
Mof_C 	C 	0.25219	0.71786	0.84907	0.126
Mof_O 	O 	0.28381	0.10991	0.34935	-0.61
Mof_O 	O 	0.27153	0.07557	0.37115	-0.431
Mof_O 	O 	0.3432	0.98886	0.3122	-0.668
Mof_O 	O 	0.2628	0.16274	0.35752	-0.508
Mof_O 	O 	0.22565	0.15751	0.37787	-0.553
Mof_O 	O 	0.25477	0.28585	0.32872	-0.432
Mof_O 	O 	0.28921	0.36164	0.32032	-0.433
Mof_C 	C 	0.2862	0.0863	0.354	0.413
Mof_C 	C 	0.3061	0.0704	0.3397	-0.182
Mof_C 	C 	0.3078	0.0432	0.3418	0.114
Mof_C 	C 	0.2415	0.17196	0.36552	0.374
Mof_C 	C 	0.23401	0.20019	0.36049	-0.149
Mof_C 	C 	0.25219	0.21786	0.34907	0.126
Mof_O 	O 	0.90065	0.96619	0.10991	-0.608
Mof_O 	O 	0.87885	0.97847	0.07557	-0.43
Mof_O 	O 	0.9378	0.9068	0.98886	-0.667
Mof_O 	O 	0.89248	0.9872	0.16274	-0.506
Mof_O 	O 	0.87213	0.02435	0.15751	-0.552
Mof_O 	O 	0.92128	0.99523	0.28585	-0.432
Mof_O 	O 	0.92968	0.96079	0.36164	-0.433
Mof_C 	C 	0.896	0.9638	0.0863	0.413
Mof_C 	C 	0.9103	0.9439	0.0704	-0.182
Mof_C 	C 	0.9082	0.9422	0.0432	0.114
Mof_C 	C 	0.88448	0.0085	0.17196	0.373
Mof_C 	C 	0.88951	0.01599	0.20019	-0.151
Mof_C 	C 	0.90093	0.99781	0.21786	0.13
Mof_O 	O 	0.90065	0.46619	0.60991	-0.61
Mof_O 	O 	0.87885	0.47847	0.57557	-0.431
Mof_O 	O 	0.9378	0.4068	0.48886	-0.668
Mof_O 	O 	0.89248	0.4872	0.66274	-0.508
Mof_O 	O 	0.87213	0.52435	0.65751	-0.553
Mof_O 	O 	0.92128	0.49523	0.78585	-0.432
Mof_O 	O 	0.92968	0.46079	0.86164	-0.433
Mof_C 	C 	0.896	0.4638	0.5863	0.413
Mof_C 	C 	0.9103	0.4439	0.5704	-0.182
Mof_C 	C 	0.9082	0.4422	0.5432	0.114
Mof_C 	C 	0.88448	0.5085	0.67196	0.374
Mof_C 	C 	0.88951	0.51599	0.70019	-0.149
Mof_C 	C 	0.90093	0.49781	0.71786	0.126
Mof_O 	O 	0.40065	0.96619	0.60991	-0.608
Mof_O 	O 	0.37885	0.97847	0.57557	-0.43
Mof_O 	O 	0.4378	0.9068	0.48886	-0.668
Mof_O 	O 	0.39248	0.9872	0.66274	-0.506
Mof_O 	O 	0.37213	0.02435	0.65751	-0.552
Mof_O 	O 	0.42128	0.99523	0.78585	-0.432
Mof_O 	O 	0.42968	0.96079	0.86164	-0.433
Mof_C 	C 	0.396	0.9638	0.5863	0.413
Mof_C 	C 	0.4103	0.9439	0.5704	-0.181
Mof_C 	C 	0.4082	0.9422	0.5432	0.114
Mof_C 	C 	0.38448	0.0085	0.67196	0.373
Mof_C 	C 	0.38951	0.01599	0.70019	-0.151
Mof_C 	C 	0.40093	0.99781	0.71786	0.13
Mof_O 	O 	0.40065	0.46619	0.10991	-0.61
Mof_O 	O 	0.37885	0.47847	0.07557	-0.431
Mof_O 	O 	0.4378	0.4068	0.98886	-0.668
Mof_O 	O 	0.39248	0.4872	0.16274	-0.508
Mof_O 	O 	0.37213	0.52435	0.15751	-0.553
Mof_O 	O 	0.42128	0.49523	0.28585	-0.432
Mof_O 	O 	0.42968	0.46079	0.36164	-0.433
Mof_C 	C 	0.396	0.4638	0.0863	0.413
Mof_C 	C 	0.4103	0.4439	0.0704	-0.182
Mof_C 	C 	0.4082	0.4422	0.0432	0.114
Mof_C 	C 	0.38448	0.5085	0.17196	0.374
Mof_C 	C 	0.38951	0.51599	0.20019	-0.149
Mof_C 	C 	0.40093	0.49781	0.21786	0.126
Mof_O 	O 	0.84935	0.46619	0.14009	-0.61
Mof_O 	O 	0.87115	0.47847	0.17443	-0.431
Mof_O 	O 	0.8122	0.4068	0.26114	-0.668
Mof_O 	O 	0.85752	0.4872	0.08726	-0.508
Mof_O 	O 	0.87787	0.52435	0.09249	-0.553
Mof_O 	O 	0.82872	0.49523	0.96415	-0.432
Mof_O 	O 	0.82032	0.46079	0.88836	-0.433
Mof_C 	C 	0.854	0.4638	0.1637	0.413
Mof_C 	C 	0.8397	0.4439	0.1796	-0.182
Mof_C 	C 	0.8418	0.4422	0.2068	0.114
Mof_C 	C 	0.86552	0.5085	0.07804	0.374
Mof_C 	C 	0.86049	0.51599	0.04981	-0.15
Mof_C 	C 	0.84907	0.49781	0.03214	0.127
Mof_O 	O 	0.84935	0.96619	0.64009	-0.608
Mof_O 	O 	0.87115	0.97847	0.67443	-0.429
Mof_O 	O 	0.8122	0.9068	0.76114	-0.668
Mof_O 	O 	0.85752	0.9872	0.58726	-0.506
Mof_O 	O 	0.87787	0.02435	0.59249	-0.552
Mof_O 	O 	0.82872	0.99523	0.46415	-0.432
Mof_O 	O 	0.82032	0.96079	0.38836	-0.433
Mof_C 	C 	0.854	0.9638	0.6637	0.413
Mof_C 	C 	0.8397	0.9439	0.6796	-0.181
Mof_C 	C 	0.8418	0.9422	0.7068	0.114
Mof_C 	C 	0.86552	0.0085	0.57804	0.373
Mof_C 	C 	0.86049	0.01599	0.54981	-0.151
Mof_C 	C 	0.84907	0.99781	0.53214	0.13
Mof_O 	O 	0.34935	0.46619	0.64009	-0.61
Mof_O 	O 	0.37115	0.47847	0.67443	-0.431
Mof_O 	O 	0.3122	0.4068	0.76114	-0.668
Mof_O 	O 	0.35752	0.4872	0.58726	-0.508
Mof_O 	O 	0.37787	0.52435	0.59249	-0.553
Mof_O 	O 	0.32872	0.49523	0.46415	-0.432
Mof_O 	O 	0.32032	0.46079	0.38836	-0.433
Mof_C 	C 	0.354	0.4638	0.6637	0.413
Mof_C 	C 	0.3397	0.4439	0.6796	-0.182
Mof_C 	C 	0.3418	0.4422	0.7068	0.114
Mof_C 	C 	0.36552	0.5085	0.57804	0.374
Mof_C 	C 	0.36049	0.51599	0.54981	-0.149
Mof_C 	C 	0.34907	0.49781	0.53214	0.126
Mof_O 	O 	0.34935	0.96619	0.14009	-0.608
Mof_O 	O 	0.37115	0.97847	0.17443	-0.43
Mof_O 	O 	0.3122	0.9068	0.26114	-0.668
Mof_O 	O 	0.35752	0.9872	0.08726	-0.506
Mof_O 	O 	0.37787	0.02435	0.09249	-0.552
Mof_O 	O 	0.32872	0.99523	0.96415	-0.432
Mof_O 	O 	0.32032	0.96079	0.88836	-0.433
Mof_C 	C 	0.354	0.9638	0.1637	0.413
Mof_C 	C 	0.3397	0.9439	0.1796	-0.181
Mof_C 	C 	0.3418	0.9422	0.2068	0.114
Mof_C 	C 	0.36552	0.0085	0.07804	0.373
Mof_C 	C 	0.36049	0.01599	0.04981	-0.152
Mof_C 	C 	0.34907	0.99781	0.03214	0.131
Mof_O 	O 	0.40065	0.28381	0.64009	-0.61
Mof_O 	O 	0.37885	0.27153	0.67443	-0.431
Mof_O 	O 	0.4378	0.3432	0.76114	-0.668
Mof_O 	O 	0.39248	0.2628	0.58726	-0.508
Mof_O 	O 	0.37213	0.22565	0.59249	-0.553
Mof_O 	O 	0.42128	0.25477	0.46415	-0.432
Mof_O 	O 	0.42968	0.28921	0.38836	-0.433
Mof_C 	C 	0.396	0.2862	0.6637	0.413
Mof_C 	C 	0.4103	0.3061	0.6796	-0.182
Mof_C 	C 	0.4082	0.3078	0.7068	0.114
Mof_C 	C 	0.38448	0.2415	0.57804	0.374
Mof_C 	C 	0.38951	0.23401	0.54981	-0.149
Mof_C 	C 	0.40093	0.25219	0.53214	0.126
Mof_O 	O 	0.40065	0.78381	0.14009	-0.61
Mof_O 	O 	0.37885	0.77153	0.17443	-0.431
Mof_O 	O 	0.4378	0.8432	0.26114	-0.668
Mof_O 	O 	0.39248	0.7628	0.08726	-0.508
Mof_O 	O 	0.37213	0.72565	0.09249	-0.553
Mof_O 	O 	0.42128	0.75477	0.96415	-0.432
Mof_O 	O 	0.42968	0.78921	0.88836	-0.433
Mof_C 	C 	0.396	0.7862	0.1637	0.413
Mof_C 	C 	0.4103	0.8061	0.1796	-0.182
Mof_C 	C 	0.4082	0.8078	0.2068	0.114
Mof_C 	C 	0.38448	0.7415	0.07804	0.374
Mof_C 	C 	0.38951	0.73401	0.04981	-0.15
Mof_C 	C 	0.40093	0.75219	0.03214	0.127
Mof_O 	O 	0.90065	0.28381	0.14009	-0.61
Mof_O 	O 	0.87885	0.27153	0.17443	-0.431
Mof_O 	O 	0.9378	0.3432	0.26114	-0.668
Mof_O 	O 	0.89248	0.2628	0.08726	-0.508
Mof_O 	O 	0.87213	0.22565	0.09249	-0.553
Mof_O 	O 	0.92128	0.25477	0.96415	-0.432
Mof_O 	O 	0.92968	0.28921	0.88836	-0.433
Mof_C 	C 	0.896	0.2862	0.1637	0.413
Mof_C 	C 	0.9103	0.3061	0.1796	-0.182
Mof_C 	C 	0.9082	0.3078	0.2068	0.114
Mof_C 	C 	0.88448	0.2415	0.07804	0.374
Mof_C 	C 	0.88951	0.23401	0.04981	-0.15
Mof_C 	C 	0.90093	0.25219	0.03214	0.127
Mof_O 	O 	0.90065	0.78381	0.64009	-0.61
Mof_O 	O 	0.87885	0.77153	0.67443	-0.431
Mof_O 	O 	0.9378	0.8432	0.76114	-0.668
Mof_O 	O 	0.89248	0.7628	0.58726	-0.508
Mof_O 	O 	0.87213	0.72565	0.59249	-0.553
Mof_O 	O 	0.92128	0.75477	0.46415	-0.432
Mof_O 	O 	0.92968	0.78921	0.38836	-0.433
Mof_C 	C 	0.896	0.7862	0.6637	0.413
Mof_C 	C 	0.9103	0.8061	0.6796	-0.182
Mof_C 	C 	0.9082	0.8078	0.7068	0.114
Mof_C 	C 	0.88448	0.7415	0.57804	0.374
Mof_C 	C 	0.88951	0.73401	0.54981	-0.149
Mof_C 	C 	0.90093	0.75219	0.53214	0.126
Mof_O 	O 	0.34935	0.78381	0.60991	-0.61
Mof_O 	O 	0.37115	0.77153	0.57557	-0.431
Mof_O 	O 	0.3122	0.8432	0.48886	-0.668
Mof_O 	O 	0.35752	0.7628	0.66274	-0.508
Mof_O 	O 	0.37787	0.72565	0.65751	-0.553
Mof_O 	O 	0.32872	0.75477	0.78585	-0.432
Mof_O 	O 	0.32032	0.78921	0.86164	-0.433
Mof_C 	C 	0.354	0.7862	0.5863	0.413
Mof_C 	C 	0.3397	0.8061	0.5704	-0.182
Mof_C 	C 	0.3418	0.8078	0.5432	0.114
Mof_C 	C 	0.36552	0.7415	0.67196	0.374
Mof_C 	C 	0.36049	0.73401	0.70019	-0.149
Mof_C 	C 	0.34907	0.75219	0.71786	0.126
Mof_O 	O 	0.34935	0.28381	0.10991	-0.61
Mof_O 	O 	0.37115	0.27153	0.07557	-0.431
Mof_O 	O 	0.3122	0.3432	0.98886	-0.668
Mof_O 	O 	0.35752	0.2628	0.16274	-0.508
Mof_O 	O 	0.37787	0.22565	0.15751	-0.553
Mof_O 	O 	0.32872	0.25477	0.28585	-0.432
Mof_O 	O 	0.32032	0.28921	0.36164	-0.433
Mof_C 	C 	0.354	0.2862	0.0863	0.413
Mof_C 	C 	0.3397	0.3061	0.0704	-0.182
Mof_C 	C 	0.3418	0.3078	0.0432	0.114
Mof_C 	C 	0.36552	0.2415	0.17196	0.374
Mof_C 	C 	0.36049	0.23401	0.20019	-0.149
Mof_C 	C 	0.34907	0.25219	0.21786	0.126
Mof_O 	O 	0.84935	0.78381	0.10991	-0.61
Mof_O 	O 	0.87115	0.77153	0.07557	-0.431
Mof_O 	O 	0.8122	0.8432	0.98886	-0.668
Mof_O 	O 	0.85752	0.7628	0.16274	-0.508
Mof_O 	O 	0.87787	0.72565	0.15751	-0.553
Mof_O 	O 	0.82872	0.75477	0.28585	-0.432
Mof_O 	O 	0.82032	0.78921	0.36164	-0.433
Mof_C 	C 	0.854	0.7862	0.0863	0.413
Mof_C 	C 	0.8397	0.8061	0.0704	-0.182
Mof_C 	C 	0.8418	0.8078	0.0432	0.114
Mof_C 	C 	0.86552	0.7415	0.17196	0.374
Mof_C 	C 	0.86049	0.73401	0.20019	-0.149
Mof_C 	C 	0.84907	0.75219	0.21786	0.126
Mof_O 	O 	0.84935	0.28381	0.60991	-0.61
Mof_O 	O 	0.87115	0.27153	0.57557	-0.431
Mof_O 	O 	0.8122	0.3432	0.48886	-0.668
Mof_O 	O 	0.85752	0.2628	0.66274	-0.508
Mof_O 	O 	0.87787	0.22565	0.65751	-0.553
Mof_O 	O 	0.82872	0.25477	0.78585	-0.432
Mof_O 	O 	0.82032	0.28921	0.86164	-0.433
Mof_C 	C 	0.854	0.2862	0.5863	0.413
Mof_C 	C 	0.8397	0.3061	0.5704	-0.182
Mof_C 	C 	0.8418	0.3078	0.5432	0.114
Mof_C 	C 	0.86552	0.2415	0.67196	0.374
Mof_C 	C 	0.86049	0.23401	0.70019	-0.149
Mof_C 	C 	0.84907	0.25219	0.71786	0.126
Mof_O 	O 	0.15065	0.85991	0.53381	-0.61
Mof_O 	O 	0.12885	0.82557	0.52153	-0.431
Mof_O 	O 	0.1878	0.73886	0.5932	-0.668
Mof_O 	O 	0.14248	0.91274	0.5128	-0.508
Mof_O 	O 	0.12213	0.90751	0.47565	-0.553
Mof_O 	O 	0.17128	0.03585	0.50477	-0.431
Mof_O 	O 	0.17968	0.11164	0.53921	-0.433
Mof_C 	C 	0.146	0.8363	0.5362	0.413
Mof_C 	C 	0.1603	0.8204	0.5561	-0.182
Mof_C 	C 	0.1582	0.7932	0.5578	0.114
Mof_C 	C 	0.13448	0.92196	0.4915	0.374
Mof_C 	C 	0.13951	0.95019	0.48401	-0.148
Mof_C 	C 	0.15093	0.96786	0.50219	0.125
Mof_O 	O 	0.15065	0.35991	0.03381	-0.609
Mof_O 	O 	0.12885	0.32557	0.02153	-0.431
Mof_O 	O 	0.1878	0.23886	0.0932	-0.668
Mof_O 	O 	0.14248	0.41274	0.0128	-0.509
Mof_O 	O 	0.12213	0.40751	0.97565	-0.552
Mof_O 	O 	0.17128	0.53585	0.00477	-0.432
Mof_O 	O 	0.17968	0.61164	0.03921	-0.433
Mof_C 	C 	0.146	0.3363	0.0362	0.413
Mof_C 	C 	0.1603	0.3204	0.0561	-0.182
Mof_C 	C 	0.1582	0.2932	0.0578	0.114
Mof_C 	C 	0.13448	0.42196	0.9915	0.376
Mof_C 	C 	0.13951	0.45019	0.98401	-0.146
Mof_C 	C 	0.15093	0.46786	0.00219	0.122
Mof_O 	O 	0.65065	0.85991	0.03381	-0.609
Mof_O 	O 	0.62885	0.82557	0.02153	-0.431
Mof_O 	O 	0.6878	0.73886	0.0932	-0.668
Mof_O 	O 	0.64248	0.91274	0.0128	-0.509
Mof_O 	O 	0.62213	0.90751	0.97565	-0.552
Mof_O 	O 	0.67128	0.03585	0.00477	-0.431
Mof_O 	O 	0.67968	0.11164	0.03921	-0.433
Mof_C 	C 	0.646	0.8363	0.0362	0.413
Mof_C 	C 	0.6603	0.8204	0.0561	-0.182
Mof_C 	C 	0.6582	0.7932	0.0578	0.114
Mof_C 	C 	0.63448	0.92196	0.9915	0.375
Mof_C 	C 	0.63951	0.95019	0.98401	-0.145
Mof_C 	C 	0.65093	0.96786	0.00219	0.121
Mof_O 	O 	0.65065	0.35991	0.53381	-0.61
Mof_O 	O 	0.62885	0.32557	0.52153	-0.431
Mof_O 	O 	0.6878	0.23886	0.5932	-0.668
Mof_O 	O 	0.64248	0.41274	0.5128	-0.508
Mof_O 	O 	0.62213	0.40751	0.47565	-0.553
Mof_O 	O 	0.67128	0.53585	0.50477	-0.432
Mof_O 	O 	0.67968	0.61164	0.53921	-0.433
Mof_C 	C 	0.646	0.3363	0.5362	0.413
Mof_C 	C 	0.6603	0.3204	0.5561	-0.182
Mof_C 	C 	0.6582	0.2932	0.5578	0.114
Mof_C 	C 	0.63448	0.42196	0.4915	0.374
Mof_C 	C 	0.63951	0.45019	0.48401	-0.149
Mof_C 	C 	0.65093	0.46786	0.50219	0.126
Mof_O 	O 	0.09935	0.89009	0.03381	-0.609
Mof_O 	O 	0.12115	0.92443	0.02153	-0.431
Mof_O 	O 	0.0622	0.01114	0.0932	-0.668
Mof_O 	O 	0.10752	0.83726	0.0128	-0.509
Mof_O 	O 	0.12787	0.84249	0.97565	-0.552
Mof_O 	O 	0.07872	0.71415	0.00477	-0.432
Mof_O 	O 	0.07032	0.63836	0.03921	-0.434
Mof_C 	C 	0.104	0.9137	0.0362	0.413
Mof_C 	C 	0.0897	0.9296	0.0561	-0.182
Mof_C 	C 	0.0918	0.9568	0.0578	0.114
Mof_C 	C 	0.11552	0.82804	0.9915	0.375
Mof_C 	C 	0.11049	0.79981	0.98401	-0.146
Mof_C 	C 	0.09907	0.78214	0.00219	0.122
Mof_O 	O 	0.09935	0.39009	0.53381	-0.61
Mof_O 	O 	0.12115	0.42443	0.52153	-0.431
Mof_O 	O 	0.0622	0.51114	0.5932	-0.668
Mof_O 	O 	0.10752	0.33726	0.5128	-0.508
Mof_O 	O 	0.12787	0.34249	0.47565	-0.553
Mof_O 	O 	0.07872	0.21415	0.50477	-0.432
Mof_O 	O 	0.07032	0.13836	0.53921	-0.433
Mof_C 	C 	0.104	0.4137	0.5362	0.413
Mof_C 	C 	0.0897	0.4296	0.5561	-0.182
Mof_C 	C 	0.0918	0.4568	0.5578	0.114
Mof_C 	C 	0.11552	0.32804	0.4915	0.374
Mof_C 	C 	0.11049	0.29981	0.48401	-0.149
Mof_C 	C 	0.09907	0.28214	0.50219	0.126
Mof_O 	O 	0.59935	0.89009	0.53381	-0.61
Mof_O 	O 	0.62115	0.92443	0.52153	-0.43
Mof_O 	O 	0.5622	0.01114	0.5932	-0.668
Mof_O 	O 	0.60752	0.83726	0.5128	-0.508
Mof_O 	O 	0.62787	0.84249	0.47565	-0.553
Mof_O 	O 	0.57872	0.71415	0.50477	-0.432
Mof_O 	O 	0.57032	0.63836	0.53921	-0.433
Mof_C 	C 	0.604	0.9137	0.5362	0.413
Mof_C 	C 	0.5897	0.9296	0.5561	-0.182
Mof_C 	C 	0.5918	0.9568	0.5578	0.114
Mof_C 	C 	0.61552	0.82804	0.4915	0.374
Mof_C 	C 	0.61049	0.79981	0.48401	-0.149
Mof_C 	C 	0.59907	0.78214	0.50219	0.126
Mof_O 	O 	0.59935	0.39009	0.03381	-0.609
Mof_O 	O 	0.62115	0.42443	0.02153	-0.431
Mof_O 	O 	0.5622	0.51114	0.0932	-0.668
Mof_O 	O 	0.60752	0.33726	0.0128	-0.509
Mof_O 	O 	0.62787	0.34249	0.97565	-0.552
Mof_O 	O 	0.57872	0.21415	0.00477	-0.432
Mof_O 	O 	0.57032	0.13836	0.03921	-0.433
Mof_C 	C 	0.604	0.4137	0.0362	0.413
Mof_C 	C 	0.5897	0.4296	0.0561	-0.182
Mof_C 	C 	0.5918	0.4568	0.0578	0.114
Mof_C 	C 	0.61552	0.32804	0.9915	0.376
Mof_C 	C 	0.61049	0.29981	0.98401	-0.146
Mof_C 	C 	0.59907	0.28214	0.00219	0.122
Mof_O 	O 	0.65065	0.39009	0.21619	-0.61
Mof_O 	O 	0.62885	0.42443	0.22847	-0.431
Mof_O 	O 	0.6878	0.51114	0.1568	-0.668
Mof_O 	O 	0.64248	0.33726	0.2372	-0.508
Mof_O 	O 	0.62213	0.34249	0.27435	-0.553
Mof_O 	O 	0.67128	0.21415	0.24523	-0.432
Mof_O 	O 	0.67968	0.13836	0.21079	-0.433
Mof_C 	C 	0.646	0.4137	0.2138	0.413
Mof_C 	C 	0.6603	0.4296	0.1939	-0.182
Mof_C 	C 	0.6582	0.4568	0.1922	0.114
Mof_C 	C 	0.63448	0.32804	0.2585	0.374
Mof_C 	C 	0.63951	0.29981	0.26599	-0.149
Mof_C 	C 	0.65093	0.28214	0.24781	0.126
Mof_O 	O 	0.65065	0.89009	0.71619	-0.61
Mof_O 	O 	0.62885	0.92443	0.72847	-0.43
Mof_O 	O 	0.6878	0.01114	0.6568	-0.668
Mof_O 	O 	0.64248	0.83726	0.7372	-0.508
Mof_O 	O 	0.62213	0.84249	0.77435	-0.553
Mof_O 	O 	0.67128	0.71415	0.74523	-0.432
Mof_O 	O 	0.67968	0.63836	0.71079	-0.433
Mof_C 	C 	0.646	0.9137	0.7138	0.413
Mof_C 	C 	0.6603	0.9296	0.6939	-0.182
Mof_C 	C 	0.6582	0.9568	0.6922	0.114
Mof_C 	C 	0.63448	0.82804	0.7585	0.374
Mof_C 	C 	0.63951	0.79981	0.76599	-0.149
Mof_C 	C 	0.65093	0.78214	0.74781	0.126
Mof_O 	O 	0.15065	0.39009	0.71619	-0.61
Mof_O 	O 	0.12885	0.42443	0.72847	-0.431
Mof_O 	O 	0.1878	0.51114	0.6568	-0.668
Mof_O 	O 	0.14248	0.33726	0.7372	-0.508
Mof_O 	O 	0.12213	0.34249	0.77435	-0.553
Mof_O 	O 	0.17128	0.21415	0.74523	-0.432
Mof_O 	O 	0.17968	0.13836	0.71079	-0.433
Mof_C 	C 	0.146	0.4137	0.7138	0.413
Mof_C 	C 	0.1603	0.4296	0.6939	-0.182
Mof_C 	C 	0.1582	0.4568	0.6922	0.114
Mof_C 	C 	0.13448	0.32804	0.7585	0.374
Mof_C 	C 	0.13951	0.29981	0.76599	-0.149
Mof_C 	C 	0.15093	0.28214	0.74781	0.126
Mof_O 	O 	0.15065	0.89009	0.21619	-0.61
Mof_O 	O 	0.12885	0.92443	0.22847	-0.43
Mof_O 	O 	0.1878	0.01114	0.1568	-0.668
Mof_O 	O 	0.14248	0.83726	0.2372	-0.508
Mof_O 	O 	0.12213	0.84249	0.27435	-0.553
Mof_O 	O 	0.17128	0.71415	0.24523	-0.432
Mof_O 	O 	0.17968	0.63836	0.21079	-0.433
Mof_C 	C 	0.146	0.9137	0.2138	0.413
Mof_C 	C 	0.1603	0.9296	0.1939	-0.182
Mof_C 	C 	0.1582	0.9568	0.1922	0.114
Mof_C 	C 	0.13448	0.82804	0.2585	0.374
Mof_C 	C 	0.13951	0.79981	0.26599	-0.149
Mof_C 	C 	0.15093	0.78214	0.24781	0.126
Mof_O 	O 	0.59935	0.35991	0.71619	-0.61
Mof_O 	O 	0.62115	0.32557	0.72847	-0.431
Mof_O 	O 	0.5622	0.23886	0.6568	-0.668
Mof_O 	O 	0.60752	0.41274	0.7372	-0.508
Mof_O 	O 	0.62787	0.40751	0.77435	-0.553
Mof_O 	O 	0.57872	0.53585	0.74523	-0.432
Mof_O 	O 	0.57032	0.61164	0.71079	-0.433
Mof_C 	C 	0.604	0.3363	0.7138	0.413
Mof_C 	C 	0.5897	0.3204	0.6939	-0.182
Mof_C 	C 	0.5918	0.2932	0.6922	0.114
Mof_C 	C 	0.61552	0.42196	0.7585	0.374
Mof_C 	C 	0.61049	0.45019	0.76599	-0.149
Mof_C 	C 	0.59907	0.46786	0.74781	0.126
Mof_O 	O 	0.59935	0.85991	0.21619	-0.61
Mof_O 	O 	0.62115	0.82557	0.22847	-0.431
Mof_O 	O 	0.5622	0.73886	0.1568	-0.668
Mof_O 	O 	0.60752	0.91274	0.2372	-0.508
Mof_O 	O 	0.62787	0.90751	0.27435	-0.553
Mof_O 	O 	0.57872	0.03585	0.24523	-0.431
Mof_O 	O 	0.57032	0.11164	0.21079	-0.433
Mof_C 	C 	0.604	0.8363	0.2138	0.413
Mof_C 	C 	0.5897	0.8204	0.1939	-0.182
Mof_C 	C 	0.5918	0.7932	0.1922	0.114
Mof_C 	C 	0.61552	0.92196	0.2585	0.374
Mof_C 	C 	0.61049	0.95019	0.26599	-0.148
Mof_C 	C 	0.59907	0.96786	0.24781	0.125
Mof_O 	O 	0.09935	0.35991	0.21619	-0.61
Mof_O 	O 	0.12115	0.32557	0.22847	-0.431
Mof_O 	O 	0.0622	0.23886	0.1568	-0.668
Mof_O 	O 	0.10752	0.41274	0.2372	-0.508
Mof_O 	O 	0.12787	0.40751	0.27435	-0.553
Mof_O 	O 	0.07872	0.53585	0.24523	-0.432
Mof_O 	O 	0.07032	0.61164	0.21079	-0.433
Mof_C 	C 	0.104	0.3363	0.2138	0.413
Mof_C 	C 	0.0897	0.3204	0.1939	-0.182
Mof_C 	C 	0.0918	0.2932	0.1922	0.114
Mof_C 	C 	0.11552	0.42196	0.2585	0.374
Mof_C 	C 	0.11049	0.45019	0.26599	-0.149
Mof_C 	C 	0.09907	0.46786	0.24781	0.126
Mof_O 	O 	0.09935	0.85991	0.71619	-0.61
Mof_O 	O 	0.12115	0.82557	0.72847	-0.431
Mof_O 	O 	0.0622	0.73886	0.6568	-0.668
Mof_O 	O 	0.10752	0.91274	0.7372	-0.508
Mof_O 	O 	0.12787	0.90751	0.77435	-0.553
Mof_O 	O 	0.07872	0.03585	0.74523	-0.431
Mof_O 	O 	0.07032	0.11164	0.71079	-0.433
Mof_C 	C 	0.104	0.8363	0.7138	0.413
Mof_C 	C 	0.0897	0.8204	0.6939	-0.182
Mof_C 	C 	0.0918	0.7932	0.6922	0.114
Mof_C 	C 	0.11552	0.92196	0.7585	0.374
Mof_C 	C 	0.11049	0.95019	0.76599	-0.148
Mof_C 	C 	0.09907	0.96786	0.74781	0.125
Mof_O 	O 	0.35991	0.71619	0.59935	-0.61
Mof_O 	O 	0.32557	0.72847	0.62115	-0.431
Mof_O 	O 	0.23886	0.6568	0.5622	-0.668
Mof_O 	O 	0.41274	0.7372	0.60752	-0.508
Mof_O 	O 	0.40751	0.77435	0.62787	-0.553
Mof_O 	O 	0.53585	0.74523	0.57872	-0.432
Mof_O 	O 	0.61164	0.71079	0.57032	-0.433
Mof_C 	C 	0.3363	0.7138	0.604	0.413
Mof_C 	C 	0.3204	0.6939	0.5897	-0.182
Mof_C 	C 	0.2932	0.6922	0.5918	0.114
Mof_C 	C 	0.42196	0.7585	0.61552	0.374
Mof_C 	C 	0.45019	0.76599	0.61049	-0.149
Mof_C 	C 	0.46786	0.74781	0.59907	0.126
Mof_O 	O 	0.35991	0.21619	0.09935	-0.61
Mof_O 	O 	0.32557	0.22847	0.12115	-0.431
Mof_O 	O 	0.23886	0.1568	0.0622	-0.668
Mof_O 	O 	0.41274	0.2372	0.10752	-0.508
Mof_O 	O 	0.40751	0.27435	0.12787	-0.553
Mof_O 	O 	0.53585	0.24523	0.07872	-0.432
Mof_O 	O 	0.61164	0.21079	0.07032	-0.433
Mof_C 	C 	0.3363	0.2138	0.104	0.413
Mof_C 	C 	0.3204	0.1939	0.0897	-0.182
Mof_C 	C 	0.2932	0.1922	0.0918	0.114
Mof_C 	C 	0.42196	0.2585	0.11552	0.374
Mof_C 	C 	0.45019	0.26599	0.11049	-0.149
Mof_C 	C 	0.46786	0.24781	0.09907	0.126
Mof_O 	O 	0.85991	0.71619	0.09935	-0.61
Mof_O 	O 	0.82557	0.72847	0.12115	-0.431
Mof_O 	O 	0.73886	0.6568	0.0622	-0.668
Mof_O 	O 	0.91274	0.7372	0.10752	-0.508
Mof_O 	O 	0.90751	0.77435	0.12787	-0.553
Mof_O 	O 	0.03585	0.74523	0.07872	-0.431
Mof_O 	O 	0.11164	0.71079	0.07032	-0.433
Mof_C 	C 	0.8363	0.7138	0.104	0.413
Mof_C 	C 	0.8204	0.6939	0.0897	-0.182
Mof_C 	C 	0.7932	0.6922	0.0918	0.114
Mof_C 	C 	0.92196	0.7585	0.11552	0.374
Mof_C 	C 	0.95019	0.76599	0.11049	-0.148
Mof_C 	C 	0.96786	0.74781	0.09907	0.125
Mof_O 	O 	0.85991	0.21619	0.59935	-0.61
Mof_O 	O 	0.82557	0.22847	0.62115	-0.431
Mof_O 	O 	0.73886	0.1568	0.5622	-0.668
Mof_O 	O 	0.91274	0.2372	0.60752	-0.508
Mof_O 	O 	0.90751	0.27435	0.62787	-0.553
Mof_O 	O 	0.03585	0.24523	0.57872	-0.431
Mof_O 	O 	0.11164	0.21079	0.57032	-0.433
Mof_C 	C 	0.8363	0.2138	0.604	0.413
Mof_C 	C 	0.8204	0.1939	0.5897	-0.182
Mof_C 	C 	0.7932	0.1922	0.5918	0.114
Mof_C 	C 	0.92196	0.2585	0.61552	0.374
Mof_C 	C 	0.95019	0.26599	0.61049	-0.148
Mof_C 	C 	0.96786	0.24781	0.59907	0.125
Mof_O 	O 	0.39009	0.21619	0.65065	-0.61
Mof_O 	O 	0.42443	0.22847	0.62885	-0.431
Mof_O 	O 	0.51114	0.1568	0.6878	-0.668
Mof_O 	O 	0.33726	0.2372	0.64248	-0.508
Mof_O 	O 	0.34249	0.27435	0.62213	-0.553
Mof_O 	O 	0.21415	0.24523	0.67128	-0.432
Mof_O 	O 	0.13836	0.21079	0.67968	-0.433
Mof_C 	C 	0.4137	0.2138	0.646	0.413
Mof_C 	C 	0.4296	0.1939	0.6603	-0.182
Mof_C 	C 	0.4568	0.1922	0.6582	0.114
Mof_C 	C 	0.32804	0.2585	0.63448	0.374
Mof_C 	C 	0.29981	0.26599	0.63951	-0.149
Mof_C 	C 	0.28214	0.24781	0.65093	0.126
Mof_O 	O 	0.39009	0.71619	0.15065	-0.61
Mof_O 	O 	0.42443	0.72847	0.12885	-0.431
Mof_O 	O 	0.51114	0.6568	0.1878	-0.668
Mof_O 	O 	0.33726	0.7372	0.14248	-0.508
Mof_O 	O 	0.34249	0.77435	0.12213	-0.553
Mof_O 	O 	0.21415	0.74523	0.17128	-0.432
Mof_O 	O 	0.13836	0.71079	0.17968	-0.433
Mof_C 	C 	0.4137	0.7138	0.146	0.413
Mof_C 	C 	0.4296	0.6939	0.1603	-0.182
Mof_C 	C 	0.4568	0.6922	0.1582	0.114
Mof_C 	C 	0.32804	0.7585	0.13448	0.374
Mof_C 	C 	0.29981	0.76599	0.13951	-0.149
Mof_C 	C 	0.28214	0.74781	0.15093	0.126
Mof_O 	O 	0.89009	0.21619	0.15065	-0.61
Mof_O 	O 	0.92443	0.22847	0.12885	-0.43
Mof_O 	O 	0.01114	0.1568	0.1878	-0.668
Mof_O 	O 	0.83726	0.2372	0.14248	-0.508
Mof_O 	O 	0.84249	0.27435	0.12213	-0.553
Mof_O 	O 	0.71415	0.24523	0.17128	-0.432
Mof_O 	O 	0.63836	0.21079	0.17968	-0.433
Mof_C 	C 	0.9137	0.2138	0.146	0.413
Mof_C 	C 	0.9296	0.1939	0.1603	-0.182
Mof_C 	C 	0.9568	0.1922	0.1582	0.114
Mof_C 	C 	0.82804	0.2585	0.13448	0.374
Mof_C 	C 	0.79981	0.26599	0.13951	-0.149
Mof_C 	C 	0.78214	0.24781	0.15093	0.126
Mof_O 	O 	0.89009	0.71619	0.65065	-0.61
Mof_O 	O 	0.92443	0.72847	0.62885	-0.43
Mof_O 	O 	0.01114	0.6568	0.6878	-0.668
Mof_O 	O 	0.83726	0.7372	0.64248	-0.508
Mof_O 	O 	0.84249	0.77435	0.62213	-0.553
Mof_O 	O 	0.71415	0.74523	0.67128	-0.432
Mof_O 	O 	0.63836	0.71079	0.67968	-0.433
Mof_C 	C 	0.9137	0.7138	0.646	0.413
Mof_C 	C 	0.9296	0.6939	0.6603	-0.182
Mof_C 	C 	0.9568	0.6922	0.6582	0.114
Mof_C 	C 	0.82804	0.7585	0.63448	0.374
Mof_C 	C 	0.79981	0.76599	0.63951	-0.149
Mof_C 	C 	0.78214	0.74781	0.65093	0.126
Mof_O 	O 	0.89009	0.03381	0.09935	-0.609
Mof_O 	O 	0.92443	0.02153	0.12115	-0.431
Mof_O 	O 	0.01114	0.0932	0.0622	-0.668
Mof_O 	O 	0.83726	0.0128	0.10752	-0.509
Mof_O 	O 	0.84249	0.97565	0.12787	-0.552
Mof_O 	O 	0.71415	0.00477	0.07872	-0.432
Mof_O 	O 	0.63836	0.03921	0.07032	-0.434
Mof_C 	C 	0.9137	0.0362	0.104	0.413
Mof_C 	C 	0.9296	0.0561	0.0897	-0.182
Mof_C 	C 	0.9568	0.0578	0.0918	0.114
Mof_C 	C 	0.82804	0.9915	0.11552	0.375
Mof_C 	C 	0.79981	0.98401	0.11049	-0.146
Mof_C 	C 	0.78214	0.00219	0.09907	0.122
Mof_O 	O 	0.89009	0.53381	0.59935	-0.61
Mof_O 	O 	0.92443	0.52153	0.62115	-0.43
Mof_O 	O 	0.01114	0.5932	0.5622	-0.668
Mof_O 	O 	0.83726	0.5128	0.60752	-0.508
Mof_O 	O 	0.84249	0.47565	0.62787	-0.553
Mof_O 	O 	0.71415	0.50477	0.57872	-0.432
Mof_O 	O 	0.63836	0.53921	0.57032	-0.433
Mof_C 	C 	0.9137	0.5362	0.604	0.413
Mof_C 	C 	0.9296	0.5561	0.5897	-0.182
Mof_C 	C 	0.9568	0.5578	0.5918	0.114
Mof_C 	C 	0.82804	0.4915	0.61552	0.374
Mof_C 	C 	0.79981	0.48401	0.61049	-0.149
Mof_C 	C 	0.78214	0.50219	0.59907	0.126
Mof_O 	O 	0.39009	0.03381	0.59935	-0.609
Mof_O 	O 	0.42443	0.02153	0.62115	-0.431
Mof_O 	O 	0.51114	0.0932	0.5622	-0.668
Mof_O 	O 	0.33726	0.0128	0.60752	-0.509
Mof_O 	O 	0.34249	0.97565	0.62787	-0.552
Mof_O 	O 	0.21415	0.00477	0.57872	-0.432
Mof_O 	O 	0.13836	0.03921	0.57032	-0.433
Mof_C 	C 	0.4137	0.0362	0.604	0.413
Mof_C 	C 	0.4296	0.0561	0.5897	-0.182
Mof_C 	C 	0.4568	0.0578	0.5918	0.114
Mof_C 	C 	0.32804	0.9915	0.61552	0.376
Mof_C 	C 	0.29981	0.98401	0.61049	-0.146
Mof_C 	C 	0.28214	0.00219	0.59907	0.122
Mof_O 	O 	0.39009	0.53381	0.09935	-0.61
Mof_O 	O 	0.42443	0.52153	0.12115	-0.431
Mof_O 	O 	0.51114	0.5932	0.0622	-0.668
Mof_O 	O 	0.33726	0.5128	0.10752	-0.508
Mof_O 	O 	0.34249	0.47565	0.12787	-0.553
Mof_O 	O 	0.21415	0.50477	0.07872	-0.432
Mof_O 	O 	0.13836	0.53921	0.07032	-0.433
Mof_C 	C 	0.4137	0.5362	0.104	0.413
Mof_C 	C 	0.4296	0.5561	0.0897	-0.182
Mof_C 	C 	0.4568	0.5578	0.0918	0.114
Mof_C 	C 	0.32804	0.4915	0.11552	0.374
Mof_C 	C 	0.29981	0.48401	0.11049	-0.149
Mof_C 	C 	0.28214	0.50219	0.09907	0.126
Mof_O 	O 	0.85991	0.53381	0.15065	-0.61
Mof_O 	O 	0.82557	0.52153	0.12885	-0.431
Mof_O 	O 	0.73886	0.5932	0.1878	-0.668
Mof_O 	O 	0.91274	0.5128	0.14248	-0.508
Mof_O 	O 	0.90751	0.47565	0.12213	-0.553
Mof_O 	O 	0.03585	0.50477	0.17128	-0.431
Mof_O 	O 	0.11164	0.53921	0.17968	-0.433
Mof_C 	C 	0.8363	0.5362	0.146	0.413
Mof_C 	C 	0.8204	0.5561	0.1603	-0.182
Mof_C 	C 	0.7932	0.5578	0.1582	0.114
Mof_C 	C 	0.92196	0.4915	0.13448	0.374
Mof_C 	C 	0.95019	0.48401	0.13951	-0.148
Mof_C 	C 	0.96786	0.50219	0.15093	0.125
Mof_O 	O 	0.85991	0.03381	0.65065	-0.609
Mof_O 	O 	0.82557	0.02153	0.62885	-0.431
Mof_O 	O 	0.73886	0.0932	0.6878	-0.668
Mof_O 	O 	0.91274	0.0128	0.64248	-0.509
Mof_O 	O 	0.90751	0.97565	0.62213	-0.552
Mof_O 	O 	0.03585	0.00477	0.67128	-0.431
Mof_O 	O 	0.11164	0.03921	0.67968	-0.433
Mof_C 	C 	0.8363	0.0362	0.646	0.413
Mof_C 	C 	0.8204	0.0561	0.6603	-0.182
Mof_C 	C 	0.7932	0.0578	0.6582	0.114
Mof_C 	C 	0.92196	0.9915	0.63448	0.375
Mof_C 	C 	0.95019	0.98401	0.63951	-0.145
Mof_C 	C 	0.96786	0.00219	0.65093	0.121
Mof_O 	O 	0.35991	0.53381	0.65065	-0.61
Mof_O 	O 	0.32557	0.52153	0.62885	-0.431
Mof_O 	O 	0.23886	0.5932	0.6878	-0.668
Mof_O 	O 	0.41274	0.5128	0.64248	-0.508
Mof_O 	O 	0.40751	0.47565	0.62213	-0.553
Mof_O 	O 	0.53585	0.50477	0.67128	-0.432
Mof_O 	O 	0.61164	0.53921	0.67968	-0.433
Mof_C 	C 	0.3363	0.5362	0.646	0.413
Mof_C 	C 	0.3204	0.5561	0.6603	-0.182
Mof_C 	C 	0.2932	0.5578	0.6582	0.114
Mof_C 	C 	0.42196	0.4915	0.63448	0.374
Mof_C 	C 	0.45019	0.48401	0.63951	-0.149
Mof_C 	C 	0.46786	0.50219	0.65093	0.126
Mof_O 	O 	0.35991	0.03381	0.15065	-0.609
Mof_O 	O 	0.32557	0.02153	0.12885	-0.431
Mof_O 	O 	0.23886	0.0932	0.1878	-0.668
Mof_O 	O 	0.41274	0.0128	0.14248	-0.509
Mof_O 	O 	0.40751	0.97565	0.12213	-0.552
Mof_O 	O 	0.53585	0.00477	0.17128	-0.432
Mof_O 	O 	0.61164	0.03921	0.17968	-0.433
Mof_C 	C 	0.3363	0.0362	0.146	0.413
Mof_C 	C 	0.3204	0.0561	0.1603	-0.182
Mof_C 	C 	0.2932	0.0578	0.1582	0.114
Mof_C 	C 	0.42196	0.9915	0.13448	0.376
Mof_C 	C 	0.45019	0.98401	0.13951	-0.146
Mof_C 	C 	0.46786	0.00219	0.15093	0.122
Mof_O 	O 	0.21619	0.65065	0.39009	-0.61
Mof_O 	O 	0.22847	0.62885	0.42443	-0.431
Mof_O 	O 	0.1568	0.6878	0.51114	-0.668
Mof_O 	O 	0.2372	0.64248	0.33726	-0.508
Mof_O 	O 	0.27435	0.62213	0.34249	-0.553
Mof_O 	O 	0.24523	0.67128	0.21415	-0.432
Mof_O 	O 	0.21079	0.67968	0.13836	-0.433
Mof_C 	C 	0.2138	0.646	0.4137	0.413
Mof_C 	C 	0.1939	0.6603	0.4296	-0.182
Mof_C 	C 	0.1922	0.6582	0.4568	0.114
Mof_C 	C 	0.2585	0.63448	0.32804	0.374
Mof_C 	C 	0.26599	0.63951	0.29981	-0.149
Mof_C 	C 	0.24781	0.65093	0.28214	0.126
Mof_O 	O 	0.21619	0.15065	0.89009	-0.61
Mof_O 	O 	0.22847	0.12885	0.92443	-0.43
Mof_O 	O 	0.1568	0.1878	0.01114	-0.668
Mof_O 	O 	0.2372	0.14248	0.83726	-0.508
Mof_O 	O 	0.27435	0.12213	0.84249	-0.553
Mof_O 	O 	0.24523	0.17128	0.71415	-0.432
Mof_O 	O 	0.21079	0.17968	0.63836	-0.433
Mof_C 	C 	0.2138	0.146	0.9137	0.413
Mof_C 	C 	0.1939	0.1603	0.9296	-0.182
Mof_C 	C 	0.1922	0.1582	0.9568	0.114
Mof_C 	C 	0.2585	0.13448	0.82804	0.374
Mof_C 	C 	0.26599	0.13951	0.79981	-0.149
Mof_C 	C 	0.24781	0.15093	0.78214	0.126
Mof_O 	O 	0.71619	0.65065	0.89009	-0.61
Mof_O 	O 	0.72847	0.62885	0.92443	-0.43
Mof_O 	O 	0.6568	0.6878	0.01114	-0.668
Mof_O 	O 	0.7372	0.64248	0.83726	-0.508
Mof_O 	O 	0.77435	0.62213	0.84249	-0.553
Mof_O 	O 	0.74523	0.67128	0.71415	-0.432
Mof_O 	O 	0.71079	0.67968	0.63836	-0.433
Mof_C 	C 	0.7138	0.646	0.9137	0.413
Mof_C 	C 	0.6939	0.6603	0.9296	-0.182
Mof_C 	C 	0.6922	0.6582	0.9568	0.114
Mof_C 	C 	0.7585	0.63448	0.82804	0.374
Mof_C 	C 	0.76599	0.63951	0.79981	-0.149
Mof_C 	C 	0.74781	0.65093	0.78214	0.126
Mof_O 	O 	0.71619	0.15065	0.39009	-0.61
Mof_O 	O 	0.72847	0.12885	0.42443	-0.431
Mof_O 	O 	0.6568	0.1878	0.51114	-0.668
Mof_O 	O 	0.7372	0.14248	0.33726	-0.508
Mof_O 	O 	0.77435	0.12213	0.34249	-0.553
Mof_O 	O 	0.74523	0.17128	0.21415	-0.432
Mof_O 	O 	0.71079	0.17968	0.13836	-0.433
Mof_C 	C 	0.7138	0.146	0.4137	0.413
Mof_C 	C 	0.6939	0.1603	0.4296	-0.182
Mof_C 	C 	0.6922	0.1582	0.4568	0.114
Mof_C 	C 	0.7585	0.13448	0.32804	0.374
Mof_C 	C 	0.76599	0.13951	0.29981	-0.149
Mof_C 	C 	0.74781	0.15093	0.28214	0.126
Mof_O 	O 	0.71619	0.59935	0.35991	-0.61
Mof_O 	O 	0.72847	0.62115	0.32557	-0.431
Mof_O 	O 	0.6568	0.5622	0.23886	-0.668
Mof_O 	O 	0.7372	0.60752	0.41274	-0.508
Mof_O 	O 	0.77435	0.62787	0.40751	-0.553
Mof_O 	O 	0.74523	0.57872	0.53585	-0.432
Mof_O 	O 	0.71079	0.57032	0.61164	-0.433
Mof_C 	C 	0.7138	0.604	0.3363	0.413
Mof_C 	C 	0.6939	0.5897	0.3204	-0.182
Mof_C 	C 	0.6922	0.5918	0.2932	0.114
Mof_C 	C 	0.7585	0.61552	0.42196	0.374
Mof_C 	C 	0.76599	0.61049	0.45019	-0.149
Mof_C 	C 	0.74781	0.59907	0.46786	0.126
Mof_O 	O 	0.71619	0.09935	0.85991	-0.61
Mof_O 	O 	0.72847	0.12115	0.82557	-0.431
Mof_O 	O 	0.6568	0.0622	0.73886	-0.668
Mof_O 	O 	0.7372	0.10752	0.91274	-0.508
Mof_O 	O 	0.77435	0.12787	0.90751	-0.553
Mof_O 	O 	0.74523	0.07872	0.03585	-0.431
Mof_O 	O 	0.71079	0.07032	0.11164	-0.433
Mof_C 	C 	0.7138	0.104	0.8363	0.413
Mof_C 	C 	0.6939	0.0897	0.8204	-0.182
Mof_C 	C 	0.6922	0.0918	0.7932	0.114
Mof_C 	C 	0.7585	0.11552	0.92196	0.374
Mof_C 	C 	0.76599	0.11049	0.95019	-0.148
Mof_C 	C 	0.74781	0.09907	0.96786	0.125
Mof_O 	O 	0.21619	0.59935	0.85991	-0.61
Mof_O 	O 	0.22847	0.62115	0.82557	-0.431
Mof_O 	O 	0.1568	0.5622	0.73886	-0.668
Mof_O 	O 	0.2372	0.60752	0.91274	-0.508
Mof_O 	O 	0.27435	0.62787	0.90751	-0.553
Mof_O 	O 	0.24523	0.57872	0.03585	-0.431
Mof_O 	O 	0.21079	0.57032	0.11164	-0.433
Mof_C 	C 	0.2138	0.604	0.8363	0.413
Mof_C 	C 	0.1939	0.5897	0.8204	-0.182
Mof_C 	C 	0.1922	0.5918	0.7932	0.114
Mof_C 	C 	0.2585	0.61552	0.92196	0.374
Mof_C 	C 	0.26599	0.61049	0.95019	-0.148
Mof_C 	C 	0.24781	0.59907	0.96786	0.125
Mof_O 	O 	0.21619	0.09935	0.35991	-0.61
Mof_O 	O 	0.22847	0.12115	0.32557	-0.431
Mof_O 	O 	0.1568	0.0622	0.23886	-0.668
Mof_O 	O 	0.2372	0.10752	0.41274	-0.508
Mof_O 	O 	0.27435	0.12787	0.40751	-0.553
Mof_O 	O 	0.24523	0.07872	0.53585	-0.432
Mof_O 	O 	0.21079	0.07032	0.61164	-0.433
Mof_C 	C 	0.2138	0.104	0.3363	0.413
Mof_C 	C 	0.1939	0.0897	0.3204	-0.182
Mof_C 	C 	0.1922	0.0918	0.2932	0.114
Mof_C 	C 	0.2585	0.11552	0.42196	0.374
Mof_C 	C 	0.26599	0.11049	0.45019	-0.149
Mof_C 	C 	0.24781	0.09907	0.46786	0.126
Mof_O 	O 	0.53381	0.15065	0.85991	-0.61
Mof_O 	O 	0.52153	0.12885	0.82557	-0.431
Mof_O 	O 	0.5932	0.1878	0.73886	-0.668
Mof_O 	O 	0.5128	0.14248	0.91274	-0.508
Mof_O 	O 	0.47565	0.12213	0.90751	-0.553
Mof_O 	O 	0.50477	0.17128	0.03585	-0.431
Mof_O 	O 	0.53921	0.17968	0.11164	-0.433
Mof_C 	C 	0.5362	0.146	0.8363	0.413
Mof_C 	C 	0.5561	0.1603	0.8204	-0.182
Mof_C 	C 	0.5578	0.1582	0.7932	0.114
Mof_C 	C 	0.4915	0.13448	0.92196	0.374
Mof_C 	C 	0.48401	0.13951	0.95019	-0.148
Mof_C 	C 	0.50219	0.15093	0.96786	0.125
Mof_O 	O 	0.53381	0.65065	0.35991	-0.61
Mof_O 	O 	0.52153	0.62885	0.32557	-0.431
Mof_O 	O 	0.5932	0.6878	0.23886	-0.668
Mof_O 	O 	0.5128	0.64248	0.41274	-0.508
Mof_O 	O 	0.47565	0.62213	0.40751	-0.553
Mof_O 	O 	0.50477	0.67128	0.53585	-0.432
Mof_O 	O 	0.53921	0.67968	0.61164	-0.433
Mof_C 	C 	0.5362	0.646	0.3363	0.413
Mof_C 	C 	0.5561	0.6603	0.3204	-0.182
Mof_C 	C 	0.5578	0.6582	0.2932	0.114
Mof_C 	C 	0.4915	0.63448	0.42196	0.374
Mof_C 	C 	0.48401	0.63951	0.45019	-0.149
Mof_C 	C 	0.50219	0.65093	0.46786	0.126
Mof_O 	O 	0.03381	0.15065	0.35991	-0.609
Mof_O 	O 	0.02153	0.12885	0.32557	-0.431
Mof_O 	O 	0.0932	0.1878	0.23886	-0.668
Mof_O 	O 	0.0128	0.14248	0.41274	-0.509
Mof_O 	O 	0.97565	0.12213	0.40751	-0.552
Mof_O 	O 	0.00477	0.17128	0.53585	-0.432
Mof_O 	O 	0.03921	0.17968	0.61164	-0.433
Mof_C 	C 	0.0362	0.146	0.3363	0.413
Mof_C 	C 	0.0561	0.1603	0.3204	-0.182
Mof_C 	C 	0.0578	0.1582	0.2932	0.114
Mof_C 	C 	0.9915	0.13448	0.42196	0.376
Mof_C 	C 	0.98401	0.13951	0.45019	-0.146
Mof_C 	C 	0.00219	0.15093	0.46786	0.122
Mof_O 	O 	0.03381	0.65065	0.85991	-0.609
Mof_O 	O 	0.02153	0.62885	0.82557	-0.431
Mof_O 	O 	0.0932	0.6878	0.73886	-0.668
Mof_O 	O 	0.0128	0.64248	0.91274	-0.509
Mof_O 	O 	0.97565	0.62213	0.90751	-0.552
Mof_O 	O 	0.00477	0.67128	0.03585	-0.431
Mof_O 	O 	0.03921	0.67968	0.11164	-0.433
Mof_C 	C 	0.0362	0.646	0.8363	0.413
Mof_C 	C 	0.0561	0.6603	0.8204	-0.182
Mof_C 	C 	0.0578	0.6582	0.7932	0.114
Mof_C 	C 	0.9915	0.63448	0.92196	0.375
Mof_C 	C 	0.98401	0.63951	0.95019	-0.145
Mof_C 	C 	0.00219	0.65093	0.96786	0.121
Mof_O 	O 	0.03381	0.09935	0.89009	-0.609
Mof_O 	O 	0.02153	0.12115	0.92443	-0.431
Mof_O 	O 	0.0932	0.0622	0.01114	-0.668
Mof_O 	O 	0.0128	0.10752	0.83726	-0.509
Mof_O 	O 	0.97565	0.12787	0.84249	-0.552
Mof_O 	O 	0.00477	0.07872	0.71415	-0.432
Mof_O 	O 	0.03921	0.07032	0.63836	-0.434
Mof_C 	C 	0.0362	0.104	0.9137	0.413
Mof_C 	C 	0.0561	0.0897	0.9296	-0.182
Mof_C 	C 	0.0578	0.0918	0.9568	0.114
Mof_C 	C 	0.9915	0.11552	0.82804	0.375
Mof_C 	C 	0.98401	0.11049	0.79981	-0.146
Mof_C 	C 	0.00219	0.09907	0.78214	0.122
Mof_O 	O 	0.03381	0.59935	0.39009	-0.609
Mof_O 	O 	0.02153	0.62115	0.42443	-0.431
Mof_O 	O 	0.0932	0.5622	0.51114	-0.668
Mof_O 	O 	0.0128	0.60752	0.33726	-0.509
Mof_O 	O 	0.97565	0.62787	0.34249	-0.552
Mof_O 	O 	0.00477	0.57872	0.21415	-0.432
Mof_O 	O 	0.03921	0.57032	0.13836	-0.433
Mof_C 	C 	0.0362	0.604	0.4137	0.413
Mof_C 	C 	0.0561	0.5897	0.4296	-0.182
Mof_C 	C 	0.0578	0.5918	0.4568	0.114
Mof_C 	C 	0.9915	0.61552	0.32804	0.376
Mof_C 	C 	0.98401	0.61049	0.29981	-0.146
Mof_C 	C 	0.00219	0.59907	0.28214	0.122
Mof_O 	O 	0.53381	0.09935	0.39009	-0.61
Mof_O 	O 	0.52153	0.12115	0.42443	-0.431
Mof_O 	O 	0.5932	0.0622	0.51114	-0.668
Mof_O 	O 	0.5128	0.10752	0.33726	-0.508
Mof_O 	O 	0.47565	0.12787	0.34249	-0.553
Mof_O 	O 	0.50477	0.07872	0.21415	-0.432
Mof_O 	O 	0.53921	0.07032	0.13836	-0.433
Mof_C 	C 	0.5362	0.104	0.4137	0.413
Mof_C 	C 	0.5561	0.0897	0.4296	-0.182
Mof_C 	C 	0.5578	0.0918	0.4568	0.114
Mof_C 	C 	0.4915	0.11552	0.32804	0.374
Mof_C 	C 	0.48401	0.11049	0.29981	-0.149
Mof_C 	C 	0.50219	0.09907	0.28214	0.126
Mof_O 	O 	0.53381	0.59935	0.89009	-0.61
Mof_O 	O 	0.52153	0.62115	0.92443	-0.43
Mof_O 	O 	0.5932	0.5622	0.01114	-0.668
Mof_O 	O 	0.5128	0.60752	0.83726	-0.508
Mof_O 	O 	0.47565	0.62787	0.84249	-0.553
Mof_O 	O 	0.50477	0.57872	0.71415	-0.432
Mof_O 	O 	0.53921	0.57032	0.63836	-0.433
Mof_C 	C 	0.5362	0.604	0.9137	0.413
Mof_C 	C 	0.5561	0.5897	0.9296	-0.182
Mof_C 	C 	0.5578	0.5918	0.9568	0.114
Mof_C 	C 	0.4915	0.61552	0.82804	0.374
Mof_C 	C 	0.48401	0.61049	0.79981	-0.149
Mof_C 	C 	0.50219	0.59907	0.78214	0.126
Mof_In	In	0.87809	0.12191	-0	2.592
Mof_In	In	0.87809	0.62191	0.5	2.598
Mof_In	In	0.37809	0.12191	0.5	2.598
Mof_In	In	0.37809	0.62191	-0	2.592
Mof_In	In	0.87191	0.12809	0.5	2.598
Mof_In	In	0.87191	0.62809	-0	2.592
Mof_In	In	0.37191	0.12809	-0	2.592
Mof_In	In	0.37191	0.62809	0.5	2.598
Mof_In	In	0.37191	0.62191	0.75	2.598
Mof_In	In	0.37191	0.12191	0.25	2.598
Mof_In	In	0.87191	0.62191	0.25	2.598
Mof_In	In	0.87191	0.12191	0.75	2.598
Mof_In	In	0.37809	0.62809	0.25	2.598
Mof_In	In	0.37809	0.12809	0.75	2.598
Mof_In	In	0.87809	0.62809	0.75	2.598
Mof_In	In	0.87809	0.12809	0.25	2.598
Mof_In	In	2.0231e-33	0.87809	0.12191	2.592
Mof_In	In	8.59582e-33	0.37809	0.62191	2.592
Mof_In	In	0.5	0.87809	0.62191	2.598
Mof_In	In	0.5	0.37809	0.12191	2.598
Mof_In	In	0.5	0.87191	0.12809	2.598
Mof_In	In	0.5	0.37191	0.62809	2.598
Mof_In	In	2.74111e-32	0.87191	0.62809	2.592
Mof_In	In	6.74429e-33	0.37191	0.12809	2.592
Mof_In	In	0.75	0.37191	0.62191	2.598
Mof_In	In	0.75	0.87191	0.12191	2.598
Mof_In	In	0.25	0.37191	0.12191	2.598
Mof_In	In	0.25	0.87191	0.62191	2.598
Mof_In	In	0.25	0.37809	0.62809	2.598
Mof_In	In	0.25	0.87809	0.12809	2.598
Mof_In	In	0.75	0.37809	0.12809	2.598
Mof_In	In	0.75	0.87809	0.62809	2.598
Mof_In	In	0.12191	0	0.87809	2.592
Mof_In	In	0.12191	0.5	0.37809	2.598
Mof_In	In	0.62191	3.13201e-33	0.37809	2.592
Mof_In	In	0.62191	0.5	0.87809	2.598
Mof_In	In	0.12809	0.5	0.87191	2.598
Mof_In	In	0.12809	0	0.37191	2.592
Mof_In	In	0.62809	0.5	0.37191	2.598
Mof_In	In	0.62809	6.26403e-33	0.87191	2.592
Mof_In	In	0.62191	0.75	0.37191	2.598
Mof_In	In	0.62191	0.25	0.87191	2.598
Mof_In	In	0.12191	0.75	0.87191	2.598
Mof_In	In	0.12191	0.25	0.37191	2.598
Mof_In	In	0.62809	0.25	0.37809	2.598
Mof_In	In	0.62809	0.75	0.87809	2.598
Mof_In	In	0.12809	0.25	0.87809	2.598
Mof_In	In	0.12809	0.75	0.37809	2.598
Mof_In	In	0.12191	0.87809	-0	2.592
Mof_In	In	0.12191	0.37809	0.5	2.598
Mof_In	In	0.62191	0.87809	0.5	2.598
Mof_In	In	0.62191	0.37809	-0	2.592
Mof_In	In	0.12809	0.87191	0.5	2.598
Mof_In	In	0.12809	0.37191	-0	2.592
Mof_In	In	0.62809	0.87191	-0	2.592
Mof_In	In	0.62809	0.37191	0.5	2.598
Mof_In	In	0.62809	0.37809	0.25	2.598
Mof_In	In	0.62809	0.87809	0.75	2.598
Mof_In	In	0.12809	0.37809	0.75	2.598
Mof_In	In	0.12809	0.87809	0.25	2.598
Mof_In	In	0.62191	0.37191	0.75	2.598
Mof_In	In	0.62191	0.87191	0.25	2.598
Mof_In	In	0.12191	0.37191	0.25	2.598
Mof_In	In	0.12191	0.87191	0.75	2.598
Mof_In	In	3.29231e-33	0.12191	0.87809	2.592
Mof_In	In	1.39457e-32	0.62191	0.37809	2.592
Mof_In	In	0.5	0.12191	0.37809	2.598
Mof_In	In	0.5	0.62191	0.87809	2.598
Mof_In	In	0.5	0.12809	0.87191	2.598
Mof_In	In	0.5	0.62809	0.37191	2.598
Mof_In	In	7.65847e-33	0.12809	0.37191	2.592
Mof_In	In	2.20612e-32	0.62809	0.87191	2.592
Mof_In	In	0.25	0.62809	0.37809	2.598
Mof_In	In	0.25	0.12809	0.87809	2.598
Mof_In	In	0.75	0.62809	0.87809	2.598
Mof_In	In	0.75	0.12809	0.37809	2.598
Mof_In	In	0.75	0.62191	0.37191	2.598
Mof_In	In	0.75	0.12191	0.87191	2.598
Mof_In	In	0.25	0.62191	0.87191	2.598
Mof_In	In	0.25	0.12191	0.37191	2.598
Mof_In	In	0.87809	1.56601e-33	0.12191	2.592
Mof_In	In	0.87809	0.5	0.62191	2.598
Mof_In	In	0.37809	0	0.62191	2.592
Mof_In	In	0.37809	0.5	0.12191	2.598
Mof_In	In	0.87191	0.5	0.12809	2.598
Mof_In	In	0.87191	0	0.62809	2.592
Mof_In	In	0.37191	0.5	0.62809	2.598
Mof_In	In	0.37191	1.56601e-33	0.12809	2.592
Mof_In	In	0.37809	0.25	0.62809	2.598
Mof_In	In	0.37809	0.75	0.12809	2.598
Mof_In	In	0.87809	0.25	0.12809	2.598
Mof_In	In	0.87809	0.75	0.62809	2.598
Mof_In	In	0.37191	0.75	0.62191	2.598
Mof_In	In	0.37191	0.25	0.12191	2.598
Mof_In	In	0.87191	0.75	0.12191	2.598
Mof_In	In	0.87191	0.25	0.62191	2.598
Mof_Co	Co	0.67661	0.07339	0.02312	1.173
Mof_Co	Co	0.67661	0.57339	0.52312	1.173
Mof_Co	Co	0.07339	0.17661	0.52312	1.173
Mof_Co	Co	0.57339	0.17661	0.02312	1.173
Mof_Co	Co	0.57339	0.67661	0.52312	1.173
Mof_Co	Co	0.57339	0.57339	0.72688	1.173
Mof_Co	Co	0.57339	0.07339	0.22688	1.173
Mof_Co	Co	0.07339	0.57339	0.22688	1.173
Mof_Co	Co	0.07339	0.07339	0.72688	1.173
Mof_Co	Co	0.17661	0.67661	0.22688	1.173
Mof_Co	Co	0.17661	0.17661	0.72688	1.173
Mof_Co	Co	0.02312	0.67661	0.07339	1.173
Mof_Co	Co	0.02312	0.17661	0.57339	1.173
Mof_Co	Co	0.52312	0.67661	0.57339	1.173
Mof_Co	Co	0.52312	0.07339	0.17661	1.173
Mof_Co	Co	0.52312	0.57339	0.67661	1.173
Mof_Co	Co	0.72688	0.57339	0.57339	1.173
Mof_Co	Co	0.72688	0.07339	0.07339	1.173
Mof_Co	Co	0.22688	0.57339	0.07339	1.173
Mof_Co	Co	0.22688	0.07339	0.57339	1.173
Mof_Co	Co	0.22688	0.17661	0.67661	1.173
Mof_Co	Co	0.72688	0.17661	0.17661	1.173
Mof_Co	Co	0.07339	0.02312	0.67661	1.173
Mof_Co	Co	0.57339	0.02312	0.17661	1.173
Mof_Co	Co	0.57339	0.52312	0.67661	1.173
Mof_Co	Co	0.17661	0.52312	0.07339	1.173
Mof_Co	Co	0.17661	0.02312	0.57339	1.173
Mof_Co	Co	0.67661	0.52312	0.57339	1.173
Mof_Co	Co	0.57339	0.72688	0.57339	1.173
Mof_Co	Co	0.57339	0.22688	0.07339	1.173
Mof_Co	Co	0.07339	0.72688	0.07339	1.173
Mof_Co	Co	0.07339	0.22688	0.57339	1.173
Mof_Co	Co	0.67661	0.22688	0.17661	1.173
Mof_Co	Co	0.67661	0.72688	0.67661	1.173
Mof_Co	Co	0.17661	0.72688	0.17661	1.173
Mof_Co	Co	0.82339	0.92661	0.47688	1.173
Mof_Co	Co	0.82339	0.42661	0.97688	1.174
Mof_Co	Co	0.92661	0.32339	0.97688	1.174
Mof_Co	Co	0.42661	0.32339	0.47688	1.173
Mof_Co	Co	0.32339	0.82339	0.77312	1.173
Mof_Co	Co	0.32339	0.32339	0.27312	1.173
Mof_Co	Co	0.42661	0.42661	0.27312	1.173
Mof_Co	Co	0.42661	0.92661	0.77312	1.173
Mof_Co	Co	0.92661	0.42661	0.77312	1.173
Mof_Co	Co	0.92661	0.92661	0.27312	1.173
Mof_Co	Co	0.42661	0.27312	0.42661	1.173
Mof_Co	Co	0.42661	0.77312	0.92661	1.173
Mof_Co	Co	0.92661	0.27312	0.92661	1.173
Mof_Co	Co	0.92661	0.77312	0.42661	1.173
Mof_Co	Co	0.82339	0.77312	0.32339	1.173
Mof_Co	Co	0.82339	0.27312	0.82339	1.173
Mof_Co	Co	0.32339	0.27312	0.32339	1.173
Mof_Co	Co	0.32339	0.97688	0.92661	1.174
Mof_Co	Co	0.32339	0.47688	0.42661	1.173
Mof_Co	Co	0.92661	0.47688	0.82339	1.173
Mof_Co	Co	0.42661	0.47688	0.32339	1.173
Mof_Co	Co	0.77312	0.32339	0.82339	1.173
Mof_Co	Co	0.27312	0.32339	0.32339	1.173
Mof_Co	Co	0.27312	0.42661	0.42661	1.173
Mof_Co	Co	0.27312	0.92661	0.92661	1.173
Mof_Co	Co	0.77312	0.42661	0.92661	1.173
Mof_Co	Co	0.77312	0.92661	0.42661	1.173
Mof_Co	Co	0.47688	0.82339	0.92661	1.173
Mof_Co	Co	0.47688	0.32339	0.42661	1.173
Mof_Co	Co	0.97688	0.92661	0.32339	1.174
Mof_Co	Co	0.97688	0.42661	0.82339	1.174
Mof_Co	Co	0.32339	0.92661	0.97688	1.174
Mof_Co	Co	0.32339	0.42661	0.47688	1.173
Mof_Co	Co	0.92661	0.82339	0.47688	1.173
Mof_Co	Co	0.42661	0.82339	0.97688	1.174
Mof_Co	Co	0.82339	0.32339	0.77312	1.173
Mof_Co	Co	0.82339	0.82339	0.27312	1.173
Mof_Co	Co	0.97688	0.32339	0.92661	1.174
Mof_Co	Co	0.97688	0.82339	0.42661	1.174
Mof_Co	Co	0.47688	0.92661	0.82339	1.173
Mof_Co	Co	0.47688	0.42661	0.32339	1.173
Mof_Co	Co	0.77312	0.82339	0.32339	1.173
Mof_Co	Co	0.27312	0.82339	0.82339	1.173
Mof_Co	Co	0.92661	0.97688	0.32339	1.174
Mof_Co	Co	0.42661	0.97688	0.82339	1.174
Mof_Co	Co	0.82339	0.47688	0.92661	1.173
Mof_Co	Co	0.82339	0.97688	0.42661	1.174
Mof_Co	Co	0.32339	0.77312	0.82339	1.173
Mof_Co	Co	0.17661	0.07339	0.52312	1.173
Mof_Co	Co	0.17661	0.57339	0.02312	1.173
Mof_Co	Co	0.07339	0.67661	0.02312	1.173
Mof_Co	Co	0.67661	0.17661	0.22688	1.173
Mof_Co	Co	0.67661	0.67661	0.72688	1.173
Mof_Co	Co	0.17661	0.22688	0.67661	1.173
Mof_Co	Co	0.67661	0.02312	0.07339	1.173
Mof_Co	Co	0.07339	0.52312	0.17661	1.173
Mof_Co	Co	0.22688	0.67661	0.17661	1.173
Mof_Co	Co	0.72688	0.67661	0.67661	1.173
Mof_Co	Co	0.52312	0.17661	0.07339	1.173
Mof_Co	Co	0.02312	0.07339	0.67661	1.173
Mof_Co	Co	0.02312	0.57339	0.17661	1.173
Mof_Co	Co	0.03986	0.03986	0.09408	0.769
Mof_Co	Co	0.05171	0.05171	0.09465	0.579
Mof_Co	Co	0.03986	0.53986	0.59408	0.769
Mof_Co	Co	0.05171	0.55171	0.59465	0.579
Mof_Co	Co	0.53986	0.03986	0.59408	0.769
Mof_Co	Co	0.55171	0.05171	0.59465	0.579
Mof_Co	Co	0.53986	0.53986	0.09408	0.769
Mof_Co	Co	0.55171	0.55171	0.09465	0.579
Mof_Co	Co	0.71014	0.21014	0.59408	0.769
Mof_Co	Co	0.69829	0.19829	0.59465	0.579
Mof_Co	Co	0.71014	0.71014	0.09408	0.769
Mof_Co	Co	0.69829	0.69829	0.09465	0.579
Mof_Co	Co	0.21014	0.53986	0.65592	0.769
Mof_Co	Co	0.19829	0.55171	0.65535	0.579
Mof_Co	Co	0.21014	0.03986	0.15592	0.769
Mof_Co	Co	0.19829	0.05171	0.15535	0.579
Mof_Co	Co	0.53986	0.71014	0.15592	0.769
Mof_Co	Co	0.55171	0.69829	0.15535	0.579
Mof_Co	Co	0.03986	0.71014	0.65592	0.769
Mof_Co	Co	0.05171	0.69829	0.65535	0.579
Mof_Co	Co	0.09408	0.03986	0.03986	0.769
Mof_Co	Co	0.09465	0.05171	0.05171	0.579
Mof_Co	Co	0.09408	0.53986	0.53986	0.769
Mof_Co	Co	0.09465	0.55171	0.55171	0.579
Mof_Co	Co	0.59408	0.03986	0.53986	0.769
Mof_Co	Co	0.59465	0.05171	0.55171	0.579
Mof_Co	Co	0.59408	0.53986	0.03986	0.769
Mof_Co	Co	0.59465	0.55171	0.05171	0.579
Mof_Co	Co	0.59408	0.71014	0.21014	0.769
Mof_Co	Co	0.59465	0.69829	0.19829	0.579
Mof_Co	Co	0.09408	0.71014	0.71014	0.769
Mof_Co	Co	0.09465	0.69829	0.69829	0.579
Mof_Co	Co	0.65592	0.21014	0.53986	0.769
Mof_Co	Co	0.65535	0.19829	0.55171	0.579
Mof_Co	Co	0.65592	0.71014	0.03986	0.769
Mof_Co	Co	0.65535	0.69829	0.05171	0.579
Mof_Co	Co	0.15592	0.53986	0.71014	0.769
Mof_Co	Co	0.15535	0.55171	0.69829	0.579
Mof_Co	Co	0.15592	0.03986	0.21014	0.769
Mof_Co	Co	0.15535	0.05171	0.19829	0.579
Mof_Co	Co	0.03986	0.09408	0.03986	0.769
Mof_Co	Co	0.05171	0.09465	0.05171	0.579
Mof_Co	Co	0.03986	0.59408	0.53986	0.769
Mof_Co	Co	0.05171	0.59465	0.55171	0.579
Mof_Co	Co	0.53986	0.09408	0.53986	0.769
Mof_Co	Co	0.55171	0.09465	0.55171	0.579
Mof_Co	Co	0.53986	0.59408	0.03986	0.769
Mof_Co	Co	0.55171	0.59465	0.05171	0.579
Mof_Co	Co	0.21014	0.59408	0.71014	0.769
Mof_Co	Co	0.19829	0.59465	0.69829	0.579
Mof_Co	Co	0.21014	0.09408	0.21014	0.769
Mof_Co	Co	0.19829	0.09465	0.19829	0.579
Mof_Co	Co	0.53986	0.65592	0.21014	0.769
Mof_Co	Co	0.55171	0.65535	0.19829	0.579
Mof_Co	Co	0.03986	0.65592	0.71014	0.769
Mof_Co	Co	0.05171	0.65535	0.69829	0.579
Mof_Co	Co	0.71014	0.15592	0.53986	0.769
Mof_Co	Co	0.69829	0.15535	0.55171	0.579
Mof_Co	Co	0.71014	0.65592	0.03986	0.769
Mof_Co	Co	0.69829	0.65535	0.05171	0.579
Mof_Co	Co	0.78986	0.28986	0.40592	0.769
Mof_Co	Co	0.80171	0.30171	0.40535	0.579
Mof_Co	Co	0.78986	0.78986	0.90592	0.769
Mof_Co	Co	0.80171	0.80171	0.90535	0.579
Mof_Co	Co	0.96014	0.96014	0.90592	0.769
Mof_Co	Co	0.94829	0.94829	0.90535	0.579
Mof_Co	Co	0.96014	0.46014	0.40592	0.769
Mof_Co	Co	0.94829	0.44829	0.40535	0.579
Mof_Co	Co	0.46014	0.96014	0.40592	0.769
Mof_Co	Co	0.44829	0.94829	0.40535	0.579
Mof_Co	Co	0.46014	0.46014	0.90592	0.769
Mof_Co	Co	0.44829	0.44829	0.90535	0.579
Mof_Co	Co	0.28986	0.46014	0.84408	0.769
Mof_Co	Co	0.30171	0.44829	0.84465	0.579
Mof_Co	Co	0.28986	0.96014	0.34408	0.769
Mof_Co	Co	0.30171	0.94829	0.34465	0.579
Mof_Co	Co	0.46014	0.78986	0.34408	0.769
Mof_Co	Co	0.44829	0.80171	0.34465	0.579
Mof_Co	Co	0.96014	0.78986	0.84408	0.769
Mof_Co	Co	0.94829	0.80171	0.84465	0.579
Mof_Co	Co	0.78986	0.34408	0.46014	0.769
Mof_Co	Co	0.80171	0.34465	0.44829	0.579
Mof_Co	Co	0.78986	0.84408	0.96014	0.769
Mof_Co	Co	0.80171	0.84465	0.94829	0.579
Mof_Co	Co	0.46014	0.84408	0.28986	0.769
Mof_Co	Co	0.44829	0.84465	0.30171	0.579
Mof_Co	Co	0.96014	0.84408	0.78986	0.769
Mof_Co	Co	0.94829	0.84465	0.80171	0.579
Mof_Co	Co	0.96014	0.90592	0.96014	0.769
Mof_Co	Co	0.94829	0.90535	0.94829	0.579
Mof_Co	Co	0.96014	0.40592	0.46014	0.769
Mof_Co	Co	0.94829	0.40535	0.44829	0.579
Mof_Co	Co	0.46014	0.90592	0.46014	0.769
Mof_Co	Co	0.44829	0.90535	0.44829	0.579
Mof_Co	Co	0.46014	0.40592	0.96014	0.769
Mof_Co	Co	0.44829	0.40535	0.94829	0.579
Mof_Co	Co	0.28986	0.40592	0.78986	0.769
Mof_Co	Co	0.30171	0.40535	0.80171	0.579
Mof_Co	Co	0.28986	0.90592	0.28986	0.769
Mof_Co	Co	0.30171	0.90535	0.30171	0.579
Mof_Co	Co	0.84408	0.28986	0.46014	0.769
Mof_Co	Co	0.84465	0.30171	0.44829	0.579
Mof_Co	Co	0.84408	0.78986	0.96014	0.769
Mof_Co	Co	0.84465	0.80171	0.94829	0.579
Mof_Co	Co	0.34408	0.46014	0.78986	0.769
Mof_Co	Co	0.34465	0.44829	0.80171	0.579
Mof_Co	Co	0.34408	0.96014	0.28986	0.769
Mof_Co	Co	0.34465	0.94829	0.30171	0.579
Mof_Co	Co	0.40592	0.78986	0.28986	0.769
Mof_Co	Co	0.40535	0.80171	0.30171	0.579
Mof_Co	Co	0.90592	0.78986	0.78986	0.769
Mof_Co	Co	0.90535	0.80171	0.80171	0.579
Mof_Co	Co	0.90592	0.96014	0.96014	0.769
Mof_Co	Co	0.90535	0.94829	0.94829	0.579
Mof_Co	Co	0.90592	0.46014	0.46014	0.769
Mof_Co	Co	0.90535	0.44829	0.44829	0.579
Mof_Co	Co	0.40592	0.96014	0.46014	0.769
Mof_Co	Co	0.40535	0.94829	0.44829	0.579
Mof_Co	Co	0.40592	0.46014	0.96014	0.769
Mof_Co	Co	0.40535	0.44829	0.94829	0.579
Mof_Co	Co	0.28986	0.78986	0.40592	0.769
Mof_Co	Co	0.30171	0.80171	0.40535	0.579
Mof_Co	Co	0.28986	0.28986	0.90592	0.769
Mof_Co	Co	0.30171	0.30171	0.90535	0.579
Mof_Co	Co	0.78986	0.46014	0.34408	0.769
Mof_Co	Co	0.80171	0.44829	0.34465	0.579
Mof_Co	Co	0.78986	0.96014	0.84408	0.769
Mof_Co	Co	0.80171	0.94829	0.84465	0.579
Mof_Co	Co	0.46014	0.28986	0.84408	0.769
Mof_Co	Co	0.44829	0.30171	0.84465	0.579
Mof_Co	Co	0.96014	0.28986	0.34408	0.769
Mof_Co	Co	0.94829	0.30171	0.34465	0.579
Mof_Co	Co	0.40592	0.28986	0.78986	0.769
Mof_Co	Co	0.40535	0.30171	0.80171	0.579
Mof_Co	Co	0.90592	0.28986	0.28986	0.769
Mof_Co	Co	0.90535	0.30171	0.30171	0.579
Mof_Co	Co	0.34408	0.78986	0.46014	0.769
Mof_Co	Co	0.34465	0.80171	0.44829	0.579
Mof_Co	Co	0.34408	0.28986	0.96014	0.769
Mof_Co	Co	0.34465	0.30171	0.94829	0.579
Mof_Co	Co	0.84408	0.46014	0.28986	0.769
Mof_Co	Co	0.84465	0.44829	0.30171	0.579
Mof_Co	Co	0.84408	0.96014	0.78986	0.769
Mof_Co	Co	0.84465	0.94829	0.80171	0.579
Mof_Co	Co	0.78986	0.40592	0.28986	0.769
Mof_Co	Co	0.80171	0.40535	0.30171	0.579
Mof_Co	Co	0.78986	0.90592	0.78986	0.769
Mof_Co	Co	0.80171	0.90535	0.80171	0.579
Mof_Co	Co	0.46014	0.34408	0.78986	0.769
Mof_Co	Co	0.44829	0.34465	0.80171	0.579
Mof_Co	Co	0.96014	0.34408	0.28986	0.769
Mof_Co	Co	0.94829	0.34465	0.30171	0.579
Mof_Co	Co	0.28986	0.84408	0.46014	0.769
Mof_Co	Co	0.30171	0.84465	0.44829	0.579
Mof_Co	Co	0.28986	0.34408	0.96014	0.769
Mof_Co	Co	0.30171	0.34465	0.94829	0.579
Mof_Co	Co	0.21014	0.71014	0.59408	0.769
Mof_Co	Co	0.19829	0.69829	0.59465	0.579
Mof_Co	Co	0.21014	0.21014	0.09408	0.769
Mof_Co	Co	0.19829	0.19829	0.09465	0.579
Mof_Co	Co	0.71014	0.53986	0.15592	0.769
Mof_Co	Co	0.69829	0.55171	0.15535	0.579
Mof_Co	Co	0.71014	0.03986	0.65592	0.769
Mof_Co	Co	0.69829	0.05171	0.65535	0.579
Mof_Co	Co	0.53986	0.21014	0.65592	0.769
Mof_Co	Co	0.55171	0.19829	0.65535	0.579
Mof_Co	Co	0.03986	0.21014	0.15592	0.769
Mof_Co	Co	0.05171	0.19829	0.15535	0.579
Mof_Co	Co	0.21014	0.65592	0.53986	0.769
Mof_Co	Co	0.19829	0.65535	0.55171	0.579
Mof_Co	Co	0.21014	0.15592	0.03986	0.769
Mof_Co	Co	0.19829	0.15535	0.05171	0.579
Mof_Co	Co	0.53986	0.15592	0.71014	0.769
Mof_Co	Co	0.55171	0.15535	0.69829	0.579
Mof_Co	Co	0.03986	0.15592	0.21014	0.769
Mof_Co	Co	0.05171	0.15535	0.19829	0.579
Mof_Co	Co	0.71014	0.59408	0.21014	0.769
Mof_Co	Co	0.69829	0.59465	0.19829	0.579
Mof_Co	Co	0.71014	0.09408	0.71014	0.769
Mof_Co	Co	0.69829	0.09465	0.69829	0.579
Mof_Co	Co	0.15592	0.71014	0.53986	0.769
Mof_Co	Co	0.15535	0.69829	0.55171	0.579
Mof_Co	Co	0.15592	0.21014	0.03986	0.769
Mof_Co	Co	0.15535	0.19829	0.05171	0.579
Mof_Co	Co	0.65592	0.53986	0.21014	0.769
Mof_Co	Co	0.65535	0.55171	0.19829	0.579
Mof_Co	Co	0.65592	0.03986	0.71014	0.769
Mof_Co	Co	0.65535	0.05171	0.69829	0.579
Mof_Co	Co	0.59408	0.21014	0.71014	0.769
Mof_Co	Co	0.59465	0.19829	0.69829	0.579
Mof_Co	Co	0.09408	0.21014	0.21014	0.769
Mof_Co	Co	0.09465	0.19829	0.19829	0.579
Mof_O 	O 	0.69537	0.05463	0.05463	-0.559
Mof_O 	O 	0.05463	0.19537	0.55463	-0.559
Mof_O 	O 	0.55463	0.55463	0.69537	-0.559
Mof_O 	O 	0.19537	0.69537	0.19537	-0.559
Mof_O 	O 	0.05463	0.69537	0.05463	-0.559
Mof_O 	O 	0.55463	0.05463	0.19537	-0.559
Mof_O 	O 	0.69537	0.55463	0.55463	-0.559
Mof_O 	O 	0.19537	0.19537	0.69537	-0.559
Mof_O 	O 	0.05463	0.05463	0.69537	-0.559
Mof_O 	O 	0.19537	0.55463	0.05463	-0.559
Mof_O 	O 	0.55463	0.69537	0.55463	-0.559
Mof_O 	O 	0.69537	0.19537	0.19537	-0.559
Mof_O 	O 	0.69537	0.69537	0.69537	-0.559
Mof_O 	O 	0.80463	0.94537	0.44537	-0.559
Mof_O 	O 	0.94537	0.30463	0.94537	-0.559
Mof_O 	O 	0.30463	0.80463	0.80463	-0.559
Mof_O 	O 	0.30463	0.30463	0.30463	-0.559
Mof_O 	O 	0.44537	0.44537	0.30463	-0.559
Mof_O 	O 	0.44537	0.30463	0.44537	-0.559
Mof_O 	O 	0.80463	0.80463	0.30463	-0.559
Mof_O 	O 	0.30463	0.94537	0.94537	-0.559
Mof_O 	O 	0.94537	0.44537	0.80463	-0.559
Mof_O 	O 	0.80463	0.30463	0.80463	-0.559
Mof_O 	O 	0.30463	0.44537	0.44537	-0.559
Mof_O 	O 	0.44537	0.80463	0.94537	-0.559
Mof_O 	O 	0.94537	0.94537	0.30463	-0.559
Mof_O 	O 	0.94537	0.80463	0.44537	-0.559
Mof_O 	O 	0.44537	0.94537	0.80463	-0.559
Mof_O 	O 	0.80463	0.44537	0.94537	-0.559
Mof_O 	O 	0.19537	0.05463	0.55463	-0.559
Mof_O 	O 	0.05463	0.55463	0.19537	-0.559
Mof_O 	O 	0.55463	0.19537	0.05463	-0.559
Mof_O 	O 	0.05216	0.05216	0.05216	-0.734
Mof_O 	O 	0.05216	0.55216	0.55216	-0.734
Mof_O 	O 	0.55216	0.05216	0.55216	-0.734
Mof_O 	O 	0.55216	0.55216	0.05216	-0.734
Mof_O 	O 	0.69784	0.19784	0.55216	-0.734
Mof_O 	O 	0.69784	0.69784	0.05216	-0.734
Mof_O 	O 	0.19784	0.55216	0.69784	-0.734
Mof_O 	O 	0.19784	0.05216	0.19784	-0.734
Mof_O 	O 	0.55216	0.69784	0.19784	-0.734
Mof_O 	O 	0.05216	0.69784	0.69784	-0.734
Mof_O 	O 	0.69784	0.05216	0.69784	-0.734
Mof_O 	O 	0.80216	0.30216	0.44784	-0.734
Mof_O 	O 	0.80216	0.80216	0.94784	-0.733
Mof_O 	O 	0.94784	0.94784	0.94784	-0.733
Mof_O 	O 	0.94784	0.44784	0.44784	-0.733
Mof_O 	O 	0.44784	0.94784	0.44784	-0.733
Mof_O 	O 	0.44784	0.44784	0.94784	-0.733
Mof_O 	O 	0.30216	0.44784	0.80216	-0.734
Mof_O 	O 	0.30216	0.94784	0.30216	-0.733
Mof_O 	O 	0.44784	0.80216	0.30216	-0.734
Mof_O 	O 	0.94784	0.80216	0.80216	-0.733
Mof_O 	O 	0.94784	0.30216	0.30216	-0.733
Mof_O 	O 	0.80216	0.94784	0.80216	-0.733
Mof_O 	O 	0.30216	0.80216	0.44784	-0.734
Mof_O 	O 	0.30216	0.30216	0.94784	-0.733
Mof_O 	O 	0.80216	0.44784	0.30216	-0.734
Mof_O 	O 	0.44784	0.30216	0.80216	-0.734
Mof_O 	O 	0.19784	0.69784	0.55216	-0.734
Mof_O 	O 	0.19784	0.19784	0.05216	-0.734
Mof_O 	O 	0.69784	0.55216	0.19784	-0.734
Mof_O 	O 	0.55216	0.19784	0.69784	-0.734
Mof_O 	O 	0.05216	0.19784	0.19784	-0.734
Mof_C 	C 	0.9149	0.07121	0.07121	0.143
Mof_C 	C 	0.9695	0.0755	0.0755	-0.209
Mof_C 	C 	0.0005	0.0776	0.0776	0.493
Mof_C 	C 	0.62799	0.05885	0.05885	0.432
Mof_C 	C 	0.6031	0.06864	0.06864	-0.218
Mof_C 	C 	0.9149	0.57121	0.57121	0.143
Mof_C 	C 	0.9695	0.5755	0.5755	-0.209
Mof_C 	C 	0.0005	0.5776	0.5776	0.493
Mof_C 	C 	0.62799	0.55885	0.55885	0.432
Mof_C 	C 	0.6031	0.56864	0.56864	-0.218
Mof_C 	C 	0.4149	0.07121	0.57121	0.143
Mof_C 	C 	0.4695	0.0755	0.5755	-0.21
Mof_C 	C 	0.5005	0.0776	0.5776	0.495
Mof_C 	C 	0.12799	0.05885	0.55885	0.432
Mof_C 	C 	0.1031	0.06864	0.56864	-0.218
Mof_C 	C 	0.4149	0.57121	0.07121	0.143
Mof_C 	C 	0.4695	0.5755	0.0755	-0.21
Mof_C 	C 	0.5005	0.5776	0.0776	0.495
Mof_C 	C 	0.12799	0.55885	0.05885	0.432
Mof_C 	C 	0.1031	0.56864	0.06864	-0.218
Mof_C 	C 	0.8351	0.17879	0.57121	0.143
Mof_C 	C 	0.7805	0.1745	0.5755	-0.21
Mof_C 	C 	0.7495	0.1724	0.5776	0.495
Mof_C 	C 	0.12201	0.19115	0.55885	0.432
Mof_C 	C 	0.1469	0.18136	0.56864	-0.218
Mof_C 	C 	0.8351	0.67879	0.07121	0.143
Mof_C 	C 	0.7805	0.6745	0.0755	-0.21
Mof_C 	C 	0.7495	0.6724	0.0776	0.495
Mof_C 	C 	0.12201	0.69115	0.05885	0.432
Mof_C 	C 	0.1469	0.68136	0.06864	-0.218
Mof_C 	C 	0.3351	0.57121	0.67879	0.143
Mof_C 	C 	0.2805	0.5755	0.6745	-0.21
Mof_C 	C 	0.2495	0.5776	0.6724	0.495
Mof_C 	C 	0.62201	0.55885	0.69115	0.432
Mof_C 	C 	0.6469	0.56864	0.68136	-0.218
Mof_C 	C 	0.3351	0.07121	0.17879	0.143
Mof_C 	C 	0.2805	0.0755	0.1745	-0.21
Mof_C 	C 	0.2495	0.0776	0.1724	0.495
Mof_C 	C 	0.62201	0.05885	0.19115	0.432
Mof_C 	C 	0.6469	0.06864	0.18136	-0.218
Mof_C 	C 	0.4149	0.67879	0.17879	0.143
Mof_C 	C 	0.4695	0.6745	0.1745	-0.21
Mof_C 	C 	0.5005	0.6724	0.1724	0.495
Mof_C 	C 	0.12799	0.69115	0.19115	0.432
Mof_C 	C 	0.1031	0.68136	0.18136	-0.218
Mof_C 	C 	0.9149	0.67879	0.67879	0.143
Mof_C 	C 	0.9695	0.6745	0.6745	-0.209
Mof_C 	C 	0.0005	0.6724	0.6724	0.493
Mof_C 	C 	0.62799	0.69115	0.69115	0.432
Mof_C 	C 	0.6031	0.68136	0.68136	-0.218
Mof_C 	C 	0.9149	0.17879	0.17879	0.143
Mof_C 	C 	0.9695	0.1745	0.1745	-0.209
Mof_C 	C 	0.0005	0.1724	0.1724	0.493
Mof_C 	C 	0.62799	0.19115	0.19115	0.432
Mof_C 	C 	0.6031	0.18136	0.18136	-0.218
Mof_C 	C 	0.07121	0.9149	0.07121	0.143
Mof_C 	C 	0.0755	0.9695	0.0755	-0.209
Mof_C 	C 	0.0776	0.0005	0.0776	0.493
Mof_C 	C 	0.05885	0.62799	0.05885	0.432
Mof_C 	C 	0.06864	0.6031	0.06864	-0.218
Mof_C 	C 	0.07121	0.4149	0.57121	0.143
Mof_C 	C 	0.0755	0.4695	0.5755	-0.21
Mof_C 	C 	0.0776	0.5005	0.5776	0.495
Mof_C 	C 	0.05885	0.12799	0.55885	0.432
Mof_C 	C 	0.06864	0.1031	0.56864	-0.218
Mof_C 	C 	0.57121	0.9149	0.57121	0.143
Mof_C 	C 	0.5755	0.9695	0.5755	-0.209
Mof_C 	C 	0.5776	0.0005	0.5776	0.493
Mof_C 	C 	0.55885	0.62799	0.55885	0.432
Mof_C 	C 	0.56864	0.6031	0.56864	-0.218
Mof_C 	C 	0.57121	0.4149	0.07121	0.143
Mof_C 	C 	0.5755	0.4695	0.0755	-0.21
Mof_C 	C 	0.5776	0.5005	0.0776	0.495
Mof_C 	C 	0.55885	0.12799	0.05885	0.432
Mof_C 	C 	0.56864	0.1031	0.06864	-0.218
Mof_C 	C 	0.57121	0.8351	0.17879	0.143
Mof_C 	C 	0.5755	0.7805	0.1745	-0.21
Mof_C 	C 	0.5776	0.7495	0.1724	0.495
Mof_C 	C 	0.55885	0.12201	0.19115	0.432
Mof_C 	C 	0.56864	0.1469	0.18136	-0.218
Mof_C 	C 	0.07121	0.8351	0.67879	0.143
Mof_C 	C 	0.0755	0.7805	0.6745	-0.21
Mof_C 	C 	0.0776	0.7495	0.6724	0.495
Mof_C 	C 	0.05885	0.12201	0.69115	0.432
Mof_C 	C 	0.06864	0.1469	0.68136	-0.218
Mof_C 	C 	0.67879	0.3351	0.57121	0.143
Mof_C 	C 	0.6745	0.2805	0.5755	-0.21
Mof_C 	C 	0.6724	0.2495	0.5776	0.495
Mof_C 	C 	0.69115	0.62201	0.55885	0.432
Mof_C 	C 	0.68136	0.6469	0.56864	-0.218
Mof_C 	C 	0.67879	0.8351	0.07121	0.143
Mof_C 	C 	0.6745	0.7805	0.0755	-0.21
Mof_C 	C 	0.6724	0.7495	0.0776	0.495
Mof_C 	C 	0.69115	0.12201	0.05885	0.432
Mof_C 	C 	0.68136	0.1469	0.06864	-0.218
Mof_C 	C 	0.17879	0.4149	0.67879	0.143
Mof_C 	C 	0.1745	0.4695	0.6745	-0.21
Mof_C 	C 	0.1724	0.5005	0.6724	0.495
Mof_C 	C 	0.19115	0.12799	0.69115	0.432
Mof_C 	C 	0.18136	0.1031	0.68136	-0.218
Mof_C 	C 	0.17879	0.9149	0.17879	0.143
Mof_C 	C 	0.1745	0.9695	0.1745	-0.209
Mof_C 	C 	0.1724	0.0005	0.1724	0.493
Mof_C 	C 	0.19115	0.62799	0.19115	0.432
Mof_C 	C 	0.18136	0.6031	0.18136	-0.218
Mof_C 	C 	0.07121	0.07121	0.9149	0.143
Mof_C 	C 	0.0755	0.0755	0.9695	-0.209
Mof_C 	C 	0.0776	0.0776	0.0005	0.493
Mof_C 	C 	0.05885	0.05885	0.62799	0.432
Mof_C 	C 	0.06864	0.06864	0.6031	-0.218
Mof_C 	C 	0.07121	0.57121	0.4149	0.143
Mof_C 	C 	0.0755	0.5755	0.4695	-0.21
Mof_C 	C 	0.0776	0.5776	0.5005	0.495
Mof_C 	C 	0.05885	0.55885	0.12799	0.432
Mof_C 	C 	0.06864	0.56864	0.1031	-0.218
Mof_C 	C 	0.57121	0.07121	0.4149	0.143
Mof_C 	C 	0.5755	0.0755	0.4695	-0.21
Mof_C 	C 	0.5776	0.0776	0.5005	0.495
Mof_C 	C 	0.55885	0.05885	0.12799	0.432
Mof_C 	C 	0.56864	0.06864	0.1031	-0.218
Mof_C 	C 	0.57121	0.57121	0.9149	0.143
Mof_C 	C 	0.5755	0.5755	0.9695	-0.209
Mof_C 	C 	0.5776	0.5776	0.0005	0.493
Mof_C 	C 	0.55885	0.55885	0.62799	0.432
Mof_C 	C 	0.56864	0.56864	0.6031	-0.218
Mof_C 	C 	0.17879	0.57121	0.8351	0.143
Mof_C 	C 	0.1745	0.5755	0.7805	-0.21
Mof_C 	C 	0.1724	0.5776	0.7495	0.495
Mof_C 	C 	0.19115	0.55885	0.12201	0.432
Mof_C 	C 	0.18136	0.56864	0.1469	-0.218
Mof_C 	C 	0.17879	0.07121	0.3351	0.143
Mof_C 	C 	0.1745	0.0755	0.2805	-0.21
Mof_C 	C 	0.1724	0.0776	0.2495	0.495
Mof_C 	C 	0.19115	0.05885	0.62201	0.432
Mof_C 	C 	0.18136	0.06864	0.6469	-0.218
Mof_C 	C 	0.57121	0.67879	0.3351	0.143
Mof_C 	C 	0.5755	0.6745	0.2805	-0.21
Mof_C 	C 	0.5776	0.6724	0.2495	0.495
Mof_C 	C 	0.55885	0.69115	0.62201	0.432
Mof_C 	C 	0.56864	0.68136	0.6469	-0.218
Mof_C 	C 	0.07121	0.67879	0.8351	0.143
Mof_C 	C 	0.0755	0.6745	0.7805	-0.21
Mof_C 	C 	0.0776	0.6724	0.7495	0.495
Mof_C 	C 	0.05885	0.69115	0.12201	0.432
Mof_C 	C 	0.06864	0.68136	0.1469	-0.218
Mof_C 	C 	0.67879	0.17879	0.4149	0.143
Mof_C 	C 	0.6745	0.1745	0.4695	-0.21
Mof_C 	C 	0.6724	0.1724	0.5005	0.495
Mof_C 	C 	0.69115	0.19115	0.12799	0.432
Mof_C 	C 	0.68136	0.18136	0.1031	-0.218
Mof_C 	C 	0.67879	0.67879	0.9149	0.143
Mof_C 	C 	0.6745	0.6745	0.9695	-0.209
Mof_C 	C 	0.6724	0.6724	0.0005	0.493
Mof_C 	C 	0.69115	0.69115	0.62799	0.432
Mof_C 	C 	0.68136	0.68136	0.6031	-0.218
Mof_C 	C 	0.17879	0.17879	0.9149	0.143
Mof_C 	C 	0.1745	0.1745	0.9695	-0.209
Mof_C 	C 	0.1724	0.1724	0.0005	0.493
Mof_C 	C 	0.19115	0.19115	0.62799	0.432
Mof_C 	C 	0.18136	0.18136	0.6031	-0.218
Mof_C 	C 	0.82121	0.1649	0.42879	0.143
Mof_C 	C 	0.8255	0.2195	0.4245	-0.21
Mof_C 	C 	0.8276	0.2505	0.4224	0.495
Mof_C 	C 	0.80885	0.87799	0.44115	0.432
Mof_C 	C 	0.81864	0.8531	0.43136	-0.218
Mof_C 	C 	0.82121	0.6649	0.92879	0.143
Mof_C 	C 	0.8255	0.7195	0.9245	-0.21
Mof_C 	C 	0.8276	0.7505	0.9224	0.495
Mof_C 	C 	0.80885	0.37799	0.94115	0.432
Mof_C 	C 	0.81864	0.3531	0.93136	-0.218
Mof_C 	C 	0.92879	0.0851	0.92879	0.143
Mof_C 	C 	0.9245	0.0305	0.9245	-0.211
Mof_C 	C 	0.9224	0.9995	0.9224	0.497
Mof_C 	C 	0.94115	0.37201	0.94115	0.432
Mof_C 	C 	0.93136	0.3969	0.93136	-0.218
Mof_C 	C 	0.92879	0.5851	0.42879	0.143
Mof_C 	C 	0.9245	0.5305	0.4245	-0.21
Mof_C 	C 	0.9224	0.4995	0.4224	0.495
Mof_C 	C 	0.94115	0.87201	0.44115	0.432
Mof_C 	C 	0.93136	0.8969	0.43136	-0.218
Mof_C 	C 	0.42879	0.0851	0.42879	0.143
Mof_C 	C 	0.4245	0.0305	0.4245	-0.211
Mof_C 	C 	0.4224	0.9995	0.4224	0.497
Mof_C 	C 	0.44115	0.37201	0.44115	0.432
Mof_C 	C 	0.43136	0.3969	0.43136	-0.218
Mof_C 	C 	0.42879	0.5851	0.92879	0.143
Mof_C 	C 	0.4245	0.5305	0.9245	-0.21
Mof_C 	C 	0.4224	0.4995	0.9224	0.495
Mof_C 	C 	0.44115	0.87201	0.94115	0.432
Mof_C 	C 	0.43136	0.8969	0.93136	-0.218
Mof_C 	C 	0.32121	0.5851	0.82121	0.143
Mof_C 	C 	0.3255	0.5305	0.8255	-0.21
Mof_C 	C 	0.3276	0.4995	0.8276	0.495
Mof_C 	C 	0.30885	0.87201	0.80885	0.432
Mof_C 	C 	0.31864	0.8969	0.81864	-0.218
Mof_C 	C 	0.32121	0.0851	0.32121	0.143
Mof_C 	C 	0.3255	0.0305	0.3255	-0.211
Mof_C 	C 	0.3276	0.9995	0.3276	0.497
Mof_C 	C 	0.30885	0.37201	0.30885	0.432
Mof_C 	C 	0.31864	0.3969	0.31864	-0.218
Mof_C 	C 	0.42879	0.6649	0.32121	0.143
Mof_C 	C 	0.4245	0.7195	0.3255	-0.21
Mof_C 	C 	0.4224	0.7505	0.3276	0.495
Mof_C 	C 	0.44115	0.37799	0.30885	0.432
Mof_C 	C 	0.43136	0.3531	0.31864	-0.218
Mof_C 	C 	0.92879	0.6649	0.82121	0.143
Mof_C 	C 	0.9245	0.7195	0.8255	-0.21
Mof_C 	C 	0.9224	0.7505	0.8276	0.495
Mof_C 	C 	0.94115	0.37799	0.80885	0.432
Mof_C 	C 	0.93136	0.3531	0.81864	-0.218
Mof_C 	C 	0.6649	0.32121	0.42879	0.143
Mof_C 	C 	0.7195	0.3255	0.4245	-0.21
Mof_C 	C 	0.7505	0.3276	0.4224	0.495
Mof_C 	C 	0.37799	0.30885	0.44115	0.432
Mof_C 	C 	0.3531	0.31864	0.43136	-0.218
Mof_C 	C 	0.6649	0.82121	0.92879	0.143
Mof_C 	C 	0.7195	0.8255	0.9245	-0.21
Mof_C 	C 	0.7505	0.8276	0.9224	0.495
Mof_C 	C 	0.37799	0.80885	0.94115	0.432
Mof_C 	C 	0.3531	0.81864	0.93136	-0.218
Mof_C 	C 	0.5851	0.82121	0.32121	0.143
Mof_C 	C 	0.5305	0.8255	0.3255	-0.21
Mof_C 	C 	0.4995	0.8276	0.3276	0.495
Mof_C 	C 	0.87201	0.80885	0.30885	0.432
Mof_C 	C 	0.8969	0.81864	0.31864	-0.218
Mof_C 	C 	0.0851	0.82121	0.82121	0.143
Mof_C 	C 	0.0305	0.8255	0.8255	-0.211
Mof_C 	C 	0.9995	0.8276	0.8276	0.497
Mof_C 	C 	0.37201	0.80885	0.80885	0.432
Mof_C 	C 	0.3969	0.81864	0.81864	-0.218
Mof_C 	C 	0.0851	0.32121	0.32121	0.143
Mof_C 	C 	0.0305	0.3255	0.3255	-0.211
Mof_C 	C 	0.9995	0.3276	0.3276	0.497
Mof_C 	C 	0.37201	0.30885	0.30885	0.432
Mof_C 	C 	0.3969	0.31864	0.31864	-0.218
Mof_C 	C 	0.0851	0.92879	0.92879	0.143
Mof_C 	C 	0.0305	0.9245	0.9245	-0.211
Mof_C 	C 	0.9995	0.9224	0.9224	0.497
Mof_C 	C 	0.37201	0.94115	0.94115	0.432
Mof_C 	C 	0.3969	0.93136	0.93136	-0.218
Mof_C 	C 	0.0851	0.42879	0.42879	0.143
Mof_C 	C 	0.0305	0.4245	0.4245	-0.211
Mof_C 	C 	0.9995	0.4224	0.4224	0.497
Mof_C 	C 	0.37201	0.44115	0.44115	0.432
Mof_C 	C 	0.3969	0.43136	0.43136	-0.218
Mof_C 	C 	0.5851	0.92879	0.42879	0.143
Mof_C 	C 	0.5305	0.9245	0.4245	-0.21
Mof_C 	C 	0.4995	0.9224	0.4224	0.495
Mof_C 	C 	0.87201	0.94115	0.44115	0.432
Mof_C 	C 	0.8969	0.93136	0.43136	-0.218
Mof_C 	C 	0.5851	0.42879	0.92879	0.143
Mof_C 	C 	0.5305	0.4245	0.9245	-0.21
Mof_C 	C 	0.4995	0.4224	0.9224	0.495
Mof_C 	C 	0.87201	0.44115	0.94115	0.432
Mof_C 	C 	0.8969	0.43136	0.93136	-0.218
Mof_C 	C 	0.1649	0.42879	0.82121	0.143
Mof_C 	C 	0.2195	0.4245	0.8255	-0.21
Mof_C 	C 	0.2505	0.4224	0.8276	0.495
Mof_C 	C 	0.87799	0.44115	0.80885	0.432
Mof_C 	C 	0.8531	0.43136	0.81864	-0.218
Mof_C 	C 	0.1649	0.92879	0.32121	0.143
Mof_C 	C 	0.2195	0.9245	0.3255	-0.21
Mof_C 	C 	0.2505	0.9224	0.3276	0.495
Mof_C 	C 	0.87799	0.94115	0.30885	0.432
Mof_C 	C 	0.8531	0.93136	0.31864	-0.218
Mof_C 	C 	0.82121	0.32121	0.5851	0.143
Mof_C 	C 	0.8255	0.3255	0.5305	-0.21
Mof_C 	C 	0.8276	0.3276	0.4995	0.495
Mof_C 	C 	0.80885	0.30885	0.87201	0.432
Mof_C 	C 	0.81864	0.31864	0.8969	-0.218
Mof_C 	C 	0.82121	0.82121	0.0851	0.143
Mof_C 	C 	0.8255	0.8255	0.0305	-0.211
Mof_C 	C 	0.8276	0.8276	0.9995	0.497
Mof_C 	C 	0.80885	0.80885	0.37201	0.432
Mof_C 	C 	0.81864	0.81864	0.3969	-0.218
Mof_C 	C 	0.32121	0.32121	0.0851	0.143
Mof_C 	C 	0.3255	0.3255	0.0305	-0.211
Mof_C 	C 	0.3276	0.3276	0.9995	0.497
Mof_C 	C 	0.30885	0.30885	0.37201	0.432
Mof_C 	C 	0.31864	0.31864	0.3969	-0.218
Mof_C 	C 	0.32121	0.42879	0.6649	0.143
Mof_C 	C 	0.3255	0.4245	0.7195	-0.21
Mof_C 	C 	0.3276	0.4224	0.7505	0.495
Mof_C 	C 	0.30885	0.44115	0.37799	0.432
Mof_C 	C 	0.31864	0.43136	0.3531	-0.218
Mof_C 	C 	0.32121	0.92879	0.1649	0.143
Mof_C 	C 	0.3255	0.9245	0.2195	-0.21
Mof_C 	C 	0.3276	0.9224	0.2505	0.495
Mof_C 	C 	0.30885	0.94115	0.87799	0.432
Mof_C 	C 	0.31864	0.93136	0.8531	-0.218
Mof_C 	C 	0.42879	0.82121	0.1649	0.143
Mof_C 	C 	0.4245	0.8255	0.2195	-0.21
Mof_C 	C 	0.4224	0.8276	0.2505	0.495
Mof_C 	C 	0.44115	0.80885	0.87799	0.432
Mof_C 	C 	0.43136	0.81864	0.8531	-0.218
Mof_C 	C 	0.92879	0.82121	0.6649	0.143
Mof_C 	C 	0.9245	0.8255	0.7195	-0.21
Mof_C 	C 	0.9224	0.8276	0.7505	0.495
Mof_C 	C 	0.94115	0.80885	0.37799	0.432
Mof_C 	C 	0.93136	0.81864	0.3531	-0.218
Mof_C 	C 	0.92879	0.92879	0.0851	0.143
Mof_C 	C 	0.9245	0.9245	0.0305	-0.211
Mof_C 	C 	0.9224	0.9224	0.9995	0.497
Mof_C 	C 	0.94115	0.94115	0.37201	0.432
Mof_C 	C 	0.93136	0.93136	0.3969	-0.218
Mof_C 	C 	0.92879	0.42879	0.5851	0.143
Mof_C 	C 	0.9245	0.4245	0.5305	-0.21
Mof_C 	C 	0.9224	0.4224	0.4995	0.495
Mof_C 	C 	0.94115	0.44115	0.87201	0.432
Mof_C 	C 	0.93136	0.43136	0.8969	-0.218
Mof_C 	C 	0.42879	0.92879	0.5851	0.143
Mof_C 	C 	0.4245	0.9245	0.5305	-0.21
Mof_C 	C 	0.4224	0.9224	0.4995	0.495
Mof_C 	C 	0.44115	0.94115	0.87201	0.432
Mof_C 	C 	0.43136	0.93136	0.8969	-0.218
Mof_C 	C 	0.42879	0.42879	0.0851	0.143
Mof_C 	C 	0.4245	0.4245	0.0305	-0.211
Mof_C 	C 	0.4224	0.4224	0.9995	0.497
Mof_C 	C 	0.44115	0.44115	0.37201	0.432
Mof_C 	C 	0.43136	0.43136	0.3969	-0.218
Mof_C 	C 	0.1649	0.82121	0.42879	0.143
Mof_C 	C 	0.2195	0.8255	0.4245	-0.21
Mof_C 	C 	0.2505	0.8276	0.4224	0.495
Mof_C 	C 	0.87799	0.80885	0.44115	0.432
Mof_C 	C 	0.8531	0.81864	0.43136	-0.218
Mof_C 	C 	0.1649	0.32121	0.92879	0.143
Mof_C 	C 	0.2195	0.3255	0.9245	-0.21
Mof_C 	C 	0.2505	0.3276	0.9224	0.495
Mof_C 	C 	0.87799	0.30885	0.94115	0.432
Mof_C 	C 	0.8531	0.31864	0.93136	-0.218
Mof_C 	C 	0.6649	0.42879	0.32121	0.143
Mof_C 	C 	0.7195	0.4245	0.3255	-0.21
Mof_C 	C 	0.7505	0.4224	0.3276	0.495
Mof_C 	C 	0.37799	0.44115	0.30885	0.432
Mof_C 	C 	0.3531	0.43136	0.31864	-0.218
Mof_C 	C 	0.6649	0.92879	0.82121	0.143
Mof_C 	C 	0.7195	0.9245	0.8255	-0.21
Mof_C 	C 	0.7505	0.9224	0.8276	0.495
Mof_C 	C 	0.37799	0.94115	0.80885	0.432
Mof_C 	C 	0.3531	0.93136	0.81864	-0.218
Mof_C 	C 	0.5851	0.32121	0.82121	0.143
Mof_C 	C 	0.5305	0.3255	0.8255	-0.21
Mof_C 	C 	0.4995	0.3276	0.8276	0.495
Mof_C 	C 	0.87201	0.30885	0.80885	0.432
Mof_C 	C 	0.8969	0.31864	0.81864	-0.218
Mof_C 	C 	0.42879	0.1649	0.82121	0.143
Mof_C 	C 	0.4245	0.2195	0.8255	-0.21
Mof_C 	C 	0.4224	0.2505	0.8276	0.495
Mof_C 	C 	0.44115	0.87799	0.80885	0.432
Mof_C 	C 	0.43136	0.8531	0.81864	-0.218
Mof_C 	C 	0.92879	0.1649	0.32121	0.143
Mof_C 	C 	0.9245	0.2195	0.3255	-0.21
Mof_C 	C 	0.9224	0.2505	0.3276	0.495
Mof_C 	C 	0.94115	0.87799	0.30885	0.432
Mof_C 	C 	0.93136	0.8531	0.31864	-0.218
Mof_C 	C 	0.32121	0.6649	0.42879	0.143
Mof_C 	C 	0.3255	0.7195	0.4245	-0.21
Mof_C 	C 	0.3276	0.7505	0.4224	0.495
Mof_C 	C 	0.30885	0.37799	0.44115	0.432
Mof_C 	C 	0.31864	0.3531	0.43136	-0.218
Mof_C 	C 	0.32121	0.1649	0.92879	0.143
Mof_C 	C 	0.3255	0.2195	0.9245	-0.21
Mof_C 	C 	0.3276	0.2505	0.9224	0.495
Mof_C 	C 	0.30885	0.87799	0.94115	0.432
Mof_C 	C 	0.31864	0.8531	0.93136	-0.218
Mof_C 	C 	0.82121	0.5851	0.32121	0.143
Mof_C 	C 	0.8255	0.5305	0.3255	-0.21
Mof_C 	C 	0.8276	0.4995	0.3276	0.495
Mof_C 	C 	0.80885	0.87201	0.30885	0.432
Mof_C 	C 	0.81864	0.8969	0.31864	-0.218
Mof_C 	C 	0.82121	0.0851	0.82121	0.143
Mof_C 	C 	0.8255	0.0305	0.8255	-0.211
Mof_C 	C 	0.8276	0.9995	0.8276	0.497
Mof_C 	C 	0.80885	0.37201	0.80885	0.432
Mof_C 	C 	0.81864	0.3969	0.81864	-0.218
Mof_C 	C 	0.82121	0.42879	0.1649	0.143
Mof_C 	C 	0.8255	0.4245	0.2195	-0.21
Mof_C 	C 	0.8276	0.4224	0.2505	0.495
Mof_C 	C 	0.80885	0.44115	0.87799	0.432
Mof_C 	C 	0.81864	0.43136	0.8531	-0.218
Mof_C 	C 	0.82121	0.92879	0.6649	0.143
Mof_C 	C 	0.8255	0.9245	0.7195	-0.21
Mof_C 	C 	0.8276	0.9224	0.7505	0.495
Mof_C 	C 	0.80885	0.94115	0.37799	0.432
Mof_C 	C 	0.81864	0.93136	0.3531	-0.218
Mof_C 	C 	0.42879	0.32121	0.6649	0.143
Mof_C 	C 	0.4245	0.3255	0.7195	-0.21
Mof_C 	C 	0.4224	0.3276	0.7505	0.495
Mof_C 	C 	0.44115	0.30885	0.37799	0.432
Mof_C 	C 	0.43136	0.31864	0.3531	-0.218
Mof_C 	C 	0.92879	0.32121	0.1649	0.143
Mof_C 	C 	0.9245	0.3255	0.2195	-0.21
Mof_C 	C 	0.9224	0.3276	0.2505	0.495
Mof_C 	C 	0.94115	0.30885	0.87799	0.432
Mof_C 	C 	0.93136	0.31864	0.8531	-0.218
Mof_C 	C 	0.32121	0.82121	0.5851	0.143
Mof_C 	C 	0.3255	0.8255	0.5305	-0.21
Mof_C 	C 	0.3276	0.8276	0.4995	0.495
Mof_C 	C 	0.30885	0.80885	0.87201	0.432
Mof_C 	C 	0.31864	0.81864	0.8969	-0.218
Mof_C 	C 	0.17879	0.8351	0.57121	0.143
Mof_C 	C 	0.1745	0.7805	0.5755	-0.21
Mof_C 	C 	0.1724	0.7495	0.5776	0.495
Mof_C 	C 	0.19115	0.12201	0.55885	0.432
Mof_C 	C 	0.18136	0.1469	0.56864	-0.218
Mof_C 	C 	0.17879	0.3351	0.07121	0.143
Mof_C 	C 	0.1745	0.2805	0.0755	-0.21
Mof_C 	C 	0.1724	0.2495	0.0776	0.495
Mof_C 	C 	0.19115	0.62201	0.05885	0.432
Mof_C 	C 	0.18136	0.6469	0.06864	-0.218
Mof_C 	C 	0.67879	0.4149	0.17879	0.143
Mof_C 	C 	0.6745	0.4695	0.1745	-0.21
Mof_C 	C 	0.6724	0.5005	0.1724	0.495
Mof_C 	C 	0.69115	0.12799	0.19115	0.432
Mof_C 	C 	0.68136	0.1031	0.18136	-0.218
Mof_C 	C 	0.67879	0.9149	0.67879	0.143
Mof_C 	C 	0.6745	0.9695	0.6745	-0.209
Mof_C 	C 	0.6724	0.0005	0.6724	0.493
Mof_C 	C 	0.69115	0.62799	0.69115	0.432
Mof_C 	C 	0.68136	0.6031	0.68136	-0.218
Mof_C 	C 	0.57121	0.3351	0.67879	0.143
Mof_C 	C 	0.5755	0.2805	0.6745	-0.21
Mof_C 	C 	0.5776	0.2495	0.6724	0.495
Mof_C 	C 	0.55885	0.62201	0.69115	0.432
Mof_C 	C 	0.56864	0.6469	0.68136	-0.218
Mof_C 	C 	0.07121	0.3351	0.17879	0.143
Mof_C 	C 	0.0755	0.2805	0.1745	-0.21
Mof_C 	C 	0.0776	0.2495	0.1724	0.495
Mof_C 	C 	0.05885	0.62201	0.19115	0.432
Mof_C 	C 	0.06864	0.6469	0.18136	-0.218
Mof_C 	C 	0.3351	0.67879	0.57121	0.143
Mof_C 	C 	0.2805	0.6745	0.5755	-0.21
Mof_C 	C 	0.2495	0.6724	0.5776	0.495
Mof_C 	C 	0.62201	0.69115	0.55885	0.432
Mof_C 	C 	0.6469	0.68136	0.56864	-0.218
Mof_C 	C 	0.3351	0.17879	0.07121	0.143
Mof_C 	C 	0.2805	0.1745	0.0755	-0.21
Mof_C 	C 	0.2495	0.1724	0.0776	0.495
Mof_C 	C 	0.62201	0.19115	0.05885	0.432
Mof_C 	C 	0.6469	0.18136	0.06864	-0.218
Mof_C 	C 	0.4149	0.17879	0.67879	0.143
Mof_C 	C 	0.4695	0.1745	0.6745	-0.21
Mof_C 	C 	0.5005	0.1724	0.6724	0.495
Mof_C 	C 	0.12799	0.19115	0.69115	0.432
Mof_C 	C 	0.1031	0.18136	0.68136	-0.218
Mof_C 	C 	0.8351	0.57121	0.17879	0.143
Mof_C 	C 	0.7805	0.5755	0.1745	-0.21
Mof_C 	C 	0.7495	0.5776	0.1724	0.495
Mof_C 	C 	0.12201	0.55885	0.19115	0.432
Mof_C 	C 	0.1469	0.56864	0.18136	-0.218
Mof_C 	C 	0.8351	0.07121	0.67879	0.143
Mof_C 	C 	0.7805	0.0755	0.6745	-0.21
Mof_C 	C 	0.7495	0.0776	0.6724	0.495
Mof_C 	C 	0.12201	0.05885	0.69115	0.432
Mof_C 	C 	0.1469	0.06864	0.68136	-0.218
Mof_C 	C 	0.17879	0.67879	0.4149	0.143
Mof_C 	C 	0.1745	0.6745	0.4695	-0.21
Mof_C 	C 	0.1724	0.6724	0.5005	0.495
Mof_C 	C 	0.19115	0.69115	0.12799	0.432
Mof_C 	C 	0.18136	0.68136	0.1031	-0.218
Mof_C 	C 	0.67879	0.57121	0.3351	0.143
Mof_C 	C 	0.6745	0.5755	0.2805	-0.21
Mof_C 	C 	0.6724	0.5776	0.2495	0.495
Mof_C 	C 	0.69115	0.55885	0.62201	0.432
Mof_C 	C 	0.68136	0.56864	0.6469	-0.218
Mof_C 	C 	0.67879	0.07121	0.8351	0.143
Mof_C 	C 	0.6745	0.0755	0.7805	-0.21
Mof_C 	C 	0.6724	0.0776	0.7495	0.495
Mof_C 	C 	0.69115	0.05885	0.12201	0.432
Mof_C 	C 	0.68136	0.06864	0.1469	-0.218
Mof_C 	C 	0.57121	0.17879	0.8351	0.143
Mof_C 	C 	0.5755	0.1745	0.7805	-0.21
Mof_C 	C 	0.5776	0.1724	0.7495	0.495
Mof_C 	C 	0.55885	0.19115	0.12201	0.432
Mof_C 	C 	0.56864	0.18136	0.1469	-0.218
Mof_C 	C 	0.07121	0.17879	0.3351	0.143
Mof_C 	C 	0.0755	0.1745	0.2805	-0.21
Mof_C 	C 	0.0776	0.1724	0.2495	0.495
Mof_C 	C 	0.05885	0.19115	0.62201	0.432
Mof_C 	C 	0.06864	0.18136	0.6469	-0.218
Mof_C 	C 	0.792	0.1167	0.958	0.125
Mof_C 	C 	0.75615	0.094	0.99385	-0.173
Mof_C 	C 	0.73686	0.0821	0.01314	0.436
Mof_C 	C 	0.292	0.1167	0.458	0.126
Mof_C 	C 	0.25615	0.094	0.49385	-0.178
Mof_C 	C 	0.23686	0.0821	0.51314	0.438
Mof_C 	C 	0.958	0.1333	0.458	0.125
Mof_C 	C 	0.99385	0.156	0.49385	-0.173
Mof_C 	C 	0.01314	0.1679	0.51314	0.436
Mof_C 	C 	0.958	0.6333	0.958	0.125
Mof_C 	C 	0.99385	0.656	0.99385	-0.169
Mof_C 	C 	0.01314	0.6679	0.01314	0.434
Mof_C 	C 	0.458	0.6167	0.792	0.126
Mof_C 	C 	0.49385	0.594	0.75615	-0.178
Mof_C 	C 	0.51314	0.5821	0.73686	0.438
Mof_C 	C 	0.458	0.1167	0.292	0.126
Mof_C 	C 	0.49385	0.094	0.25615	-0.178
Mof_C 	C 	0.51314	0.0821	0.23686	0.438
Mof_C 	C 	0.292	0.6333	0.292	0.126
Mof_C 	C 	0.25615	0.656	0.25615	-0.178
Mof_C 	C 	0.23686	0.6679	0.23686	0.438
Mof_C 	C 	0.292	0.1333	0.792	0.126
Mof_C 	C 	0.25615	0.156	0.75615	-0.178
Mof_C 	C 	0.23686	0.1679	0.73686	0.438
Mof_C 	C 	0.792	0.6333	0.792	0.126
Mof_C 	C 	0.75615	0.656	0.75615	-0.178
Mof_C 	C 	0.73686	0.6679	0.73686	0.438
Mof_C 	C 	0.792	0.1333	0.292	0.126
Mof_C 	C 	0.75615	0.156	0.25615	-0.178
Mof_C 	C 	0.73686	0.1679	0.23686	0.438
Mof_C 	C 	0.958	0.792	0.1167	0.125
Mof_C 	C 	0.99385	0.75615	0.094	-0.173
Mof_C 	C 	0.01314	0.73686	0.0821	0.436
Mof_C 	C 	0.958	0.292	0.6167	0.125
Mof_C 	C 	0.99385	0.25615	0.594	-0.173
Mof_C 	C 	0.01314	0.23686	0.5821	0.436
Mof_C 	C 	0.458	0.958	0.1333	0.125
Mof_C 	C 	0.49385	0.99385	0.156	-0.173
Mof_C 	C 	0.51314	0.01314	0.1679	0.436
Mof_C 	C 	0.458	0.458	0.6333	0.126
Mof_C 	C 	0.49385	0.49385	0.656	-0.178
Mof_C 	C 	0.51314	0.51314	0.6679	0.438
Mof_C 	C 	0.958	0.958	0.6333	0.125
Mof_C 	C 	0.99385	0.99385	0.656	-0.169
Mof_C 	C 	0.01314	0.01314	0.6679	0.434
Mof_C 	C 	0.792	0.458	0.6167	0.126
Mof_C 	C 	0.75615	0.49385	0.594	-0.178
Mof_C 	C 	0.73686	0.51314	0.5821	0.438
Mof_C 	C 	0.292	0.458	0.1167	0.126
Mof_C 	C 	0.25615	0.49385	0.094	-0.178
Mof_C 	C 	0.23686	0.51314	0.0821	0.438
Mof_C 	C 	0.292	0.292	0.6333	0.126
Mof_C 	C 	0.25615	0.25615	0.656	-0.178
Mof_C 	C 	0.23686	0.23686	0.6679	0.438
Mof_C 	C 	0.292	0.792	0.1333	0.126
Mof_C 	C 	0.25615	0.75615	0.156	-0.178
Mof_C 	C 	0.23686	0.73686	0.1679	0.438
Mof_C 	C 	0.792	0.292	0.1333	0.126
Mof_C 	C 	0.75615	0.25615	0.156	-0.178
Mof_C 	C 	0.73686	0.23686	0.1679	0.438
Mof_C 	C 	0.792	0.792	0.6333	0.126
Mof_C 	C 	0.75615	0.75615	0.656	-0.178
Mof_C 	C 	0.73686	0.73686	0.6679	0.438
Mof_C 	C 	0.1167	0.958	0.792	0.125
Mof_C 	C 	0.094	0.99385	0.75615	-0.173
Mof_C 	C 	0.0821	0.01314	0.73686	0.436
Mof_C 	C 	0.1167	0.458	0.292	0.126
Mof_C 	C 	0.094	0.49385	0.25615	-0.178
Mof_C 	C 	0.0821	0.51314	0.23686	0.438
Mof_C 	C 	0.1333	0.458	0.958	0.125
Mof_C 	C 	0.156	0.49385	0.99385	-0.173
Mof_C 	C 	0.1679	0.51314	0.01314	0.436
Mof_C 	C 	0.6333	0.458	0.458	0.126
Mof_C 	C 	0.656	0.49385	0.49385	-0.178
Mof_C 	C 	0.6679	0.51314	0.51314	0.438
Mof_C 	C 	0.6333	0.958	0.958	0.125
Mof_C 	C 	0.656	0.99385	0.99385	-0.169
Mof_C 	C 	0.6679	0.01314	0.01314	0.434
Mof_C 	C 	0.6167	0.792	0.458	0.126
Mof_C 	C 	0.594	0.75615	0.49385	-0.178
Mof_C 	C 	0.5821	0.73686	0.51314	0.438
Mof_C 	C 	0.6167	0.292	0.958	0.125
Mof_C 	C 	0.594	0.25615	0.99385	-0.173
Mof_C 	C 	0.5821	0.23686	0.01314	0.436
Mof_C 	C 	0.6333	0.292	0.292	0.126
Mof_C 	C 	0.656	0.25615	0.25615	-0.178
Mof_C 	C 	0.6679	0.23686	0.23686	0.438
Mof_C 	C 	0.6333	0.792	0.792	0.126
Mof_C 	C 	0.656	0.75615	0.75615	-0.178
Mof_C 	C 	0.6679	0.73686	0.73686	0.438
Mof_C 	C 	0.1333	0.292	0.792	0.126
Mof_C 	C 	0.156	0.25615	0.75615	-0.178
Mof_C 	C 	0.1679	0.23686	0.73686	0.438
Mof_C 	C 	0.1333	0.792	0.292	0.126
Mof_C 	C 	0.156	0.75615	0.25615	-0.178
Mof_C 	C 	0.1679	0.73686	0.23686	0.438
Mof_C 	C 	0.8667	0.042	0.542	0.127
Mof_C 	C 	0.844	0.00615	0.50615	-0.182
Mof_C 	C 	0.8321	0.98686	0.48686	0.441
Mof_C 	C 	0.3667	0.042	0.042	0.128
Mof_C 	C 	0.344	0.00615	0.00615	-0.186
Mof_C 	C 	0.3321	0.98686	0.98686	0.443
Mof_C 	C 	0.3667	0.542	0.542	0.126
Mof_C 	C 	0.344	0.50615	0.50615	-0.178
Mof_C 	C 	0.3321	0.48686	0.48686	0.438
Mof_C 	C 	0.8833	0.208	0.042	0.127
Mof_C 	C 	0.906	0.24385	0.00615	-0.182
Mof_C 	C 	0.9179	0.26314	0.98686	0.441
Mof_C 	C 	0.8833	0.708	0.542	0.126
Mof_C 	C 	0.906	0.74385	0.50615	-0.178
Mof_C 	C 	0.9179	0.76314	0.48686	0.438
Mof_C 	C 	0.3833	0.208	0.542	0.126
Mof_C 	C 	0.406	0.24385	0.50615	-0.178
Mof_C 	C 	0.4179	0.26314	0.48686	0.438
Mof_C 	C 	0.3667	0.708	0.708	0.126
Mof_C 	C 	0.344	0.74385	0.74385	-0.178
Mof_C 	C 	0.3321	0.76314	0.76314	0.438
Mof_C 	C 	0.3667	0.208	0.208	0.126
Mof_C 	C 	0.344	0.24385	0.24385	-0.178
Mof_C 	C 	0.3321	0.26314	0.26314	0.438
Mof_C 	C 	0.8667	0.708	0.208	0.126
Mof_C 	C 	0.844	0.74385	0.24385	-0.178
Mof_C 	C 	0.8321	0.76314	0.26314	0.438
Mof_C 	C 	0.8667	0.208	0.708	0.126
Mof_C 	C 	0.844	0.24385	0.74385	-0.178
Mof_C 	C 	0.8321	0.26314	0.76314	0.438
Mof_C 	C 	0.3833	0.542	0.208	0.126
Mof_C 	C 	0.406	0.50615	0.24385	-0.178
Mof_C 	C 	0.4179	0.48686	0.26314	0.438
Mof_C 	C 	0.3833	0.042	0.708	0.127
Mof_C 	C 	0.406	0.00615	0.74385	-0.182
Mof_C 	C 	0.4179	0.98686	0.76314	0.441
Mof_C 	C 	0.542	0.208	0.3833	0.126
Mof_C 	C 	0.50615	0.24385	0.406	-0.178
Mof_C 	C 	0.48686	0.26314	0.4179	0.438
Mof_C 	C 	0.542	0.708	0.8833	0.126
Mof_C 	C 	0.50615	0.74385	0.906	-0.178
Mof_C 	C 	0.48686	0.76314	0.9179	0.438
Mof_C 	C 	0.708	0.708	0.3667	0.126
Mof_C 	C 	0.74385	0.74385	0.344	-0.178
Mof_C 	C 	0.76314	0.76314	0.3321	0.438
Mof_C 	C 	0.708	0.208	0.8667	0.126
Mof_C 	C 	0.74385	0.24385	0.844	-0.178
Mof_C 	C 	0.76314	0.26314	0.8321	0.438
Mof_C 	C 	0.208	0.708	0.8667	0.126
Mof_C 	C 	0.24385	0.74385	0.844	-0.178
Mof_C 	C 	0.26314	0.76314	0.8321	0.438
Mof_C 	C 	0.208	0.208	0.3667	0.126
Mof_C 	C 	0.24385	0.24385	0.344	-0.178
Mof_C 	C 	0.26314	0.26314	0.3321	0.438
Mof_C 	C 	0.208	0.042	0.8833	0.127
Mof_C 	C 	0.24385	0.00615	0.906	-0.182
Mof_C 	C 	0.26314	0.98686	0.9179	0.441
Mof_C 	C 	0.208	0.542	0.3833	0.126
Mof_C 	C 	0.24385	0.50615	0.406	-0.178
Mof_C 	C 	0.26314	0.48686	0.4179	0.438
Mof_C 	C 	0.708	0.042	0.3833	0.127
Mof_C 	C 	0.74385	0.00615	0.406	-0.182
Mof_C 	C 	0.76314	0.98686	0.4179	0.441
Mof_C 	C 	0.042	0.542	0.8667	0.127
Mof_C 	C 	0.00615	0.50615	0.844	-0.182
Mof_C 	C 	0.98686	0.48686	0.8321	0.441
Mof_C 	C 	0.042	0.042	0.3667	0.128
Mof_C 	C 	0.00615	0.00615	0.344	-0.186
Mof_C 	C 	0.98686	0.98686	0.3321	0.443
Mof_C 	C 	0.542	0.542	0.3667	0.126
Mof_C 	C 	0.50615	0.50615	0.344	-0.178
Mof_C 	C 	0.48686	0.48686	0.3321	0.438
Mof_C 	C 	0.708	0.3667	0.708	0.126
Mof_C 	C 	0.74385	0.344	0.74385	-0.178
Mof_C 	C 	0.76314	0.3321	0.76314	0.438
Mof_C 	C 	0.708	0.8667	0.208	0.126
Mof_C 	C 	0.74385	0.844	0.24385	-0.178
Mof_C 	C 	0.76314	0.8321	0.26314	0.438
Mof_C 	C 	0.208	0.3667	0.208	0.126
Mof_C 	C 	0.24385	0.344	0.24385	-0.178
Mof_C 	C 	0.26314	0.3321	0.26314	0.438
Mof_C 	C 	0.208	0.8667	0.708	0.126
Mof_C 	C 	0.24385	0.844	0.74385	-0.178
Mof_C 	C 	0.26314	0.8321	0.76314	0.438
Mof_C 	C 	0.208	0.3833	0.542	0.126
Mof_C 	C 	0.24385	0.406	0.50615	-0.178
Mof_C 	C 	0.26314	0.4179	0.48686	0.438
Mof_C 	C 	0.708	0.3833	0.042	0.127
Mof_C 	C 	0.74385	0.406	0.00615	-0.182
Mof_C 	C 	0.76314	0.4179	0.98686	0.441
Mof_C 	C 	0.542	0.8667	0.042	0.127
Mof_C 	C 	0.50615	0.844	0.00615	-0.182
Mof_C 	C 	0.48686	0.8321	0.98686	0.441
Mof_C 	C 	0.542	0.3667	0.542	0.126
Mof_C 	C 	0.50615	0.344	0.50615	-0.178
Mof_C 	C 	0.48686	0.3321	0.48686	0.438
Mof_C 	C 	0.042	0.8833	0.208	0.127
Mof_C 	C 	0.00615	0.906	0.24385	-0.182
Mof_C 	C 	0.98686	0.9179	0.26314	0.441
Mof_C 	C 	0.042	0.3833	0.708	0.127
Mof_C 	C 	0.00615	0.406	0.74385	-0.182
Mof_C 	C 	0.98686	0.4179	0.76314	0.441
Mof_C 	C 	0.542	0.3833	0.208	0.126
Mof_C 	C 	0.50615	0.406	0.24385	-0.178
Mof_C 	C 	0.48686	0.4179	0.26314	0.438
Mof_C 	C 	0.208	0.8833	0.042	0.127
Mof_C 	C 	0.24385	0.906	0.00615	-0.182
Mof_C 	C 	0.26314	0.9179	0.98686	0.441
Mof_C 	C 	0.708	0.8833	0.542	0.126
Mof_C 	C 	0.74385	0.906	0.50615	-0.178
Mof_C 	C 	0.76314	0.9179	0.48686	0.438
Mof_C 	C 	0.042	0.8667	0.542	0.127
Mof_C 	C 	0.00615	0.844	0.50615	-0.182
Mof_C 	C 	0.98686	0.8321	0.48686	0.441
Mof_C 	C 	0.042	0.3667	0.042	0.128
Mof_C 	C 	0.00615	0.344	0.00615	-0.186
Mof_C 	C 	0.98686	0.3321	0.98686	0.443
Mof_C 	C 	0.542	0.8833	0.708	0.126
Mof_C 	C 	0.50615	0.906	0.74385	-0.178
Mof_C 	C 	0.48686	0.9179	0.76314	0.438
Mof_C 	C 	0.042	0.208	0.8833	0.127
Mof_C 	C 	0.00615	0.24385	0.906	-0.182
Mof_C 	C 	0.98686	0.26314	0.9179	0.441
Mof_C 	C 	0.042	0.708	0.3833	0.127
Mof_C 	C 	0.00615	0.74385	0.406	-0.182
Mof_C 	C 	0.98686	0.76314	0.4179	0.441
Mof_C 	C 	0.542	0.042	0.8667	0.127
Mof_C 	C 	0.50615	0.00615	0.844	-0.182
Mof_C 	C 	0.48686	0.98686	0.8321	0.441
Mof_C 	C 	0.708	0.542	0.8833	0.126
Mof_C 	C 	0.74385	0.50615	0.906	-0.178
Mof_C 	C 	0.76314	0.48686	0.9179	0.438
Mof_C 	C 	0.8833	0.042	0.208	0.127
Mof_C 	C 	0.906	0.00615	0.24385	-0.182
Mof_C 	C 	0.9179	0.98686	0.26314	0.441
Mof_C 	C 	0.8833	0.542	0.708	0.126
Mof_C 	C 	0.906	0.50615	0.74385	-0.178
Mof_C 	C 	0.9179	0.48686	0.76314	0.438
Mof_C 	C 	0.8667	0.542	0.042	0.127
Mof_C 	C 	0.844	0.50615	0.00615	-0.182
Mof_C 	C 	0.8321	0.48686	0.98686	0.441
Mof_C 	C 	0.3833	0.708	0.042	0.127
Mof_C 	C 	0.406	0.74385	0.00615	-0.182
Mof_C 	C 	0.4179	0.76314	0.98686	0.441
Mof_C 	C 	0.1333	0.958	0.458	0.125
Mof_C 	C 	0.156	0.99385	0.49385	-0.173
Mof_C 	C 	0.1679	0.01314	0.51314	0.436
Mof_C 	C 	0.1167	0.792	0.958	0.125
Mof_C 	C 	0.094	0.75615	0.99385	-0.173
Mof_C 	C 	0.0821	0.73686	0.01314	0.436
Mof_C 	C 	0.1167	0.292	0.458	0.126
Mof_C 	C 	0.094	0.25615	0.49385	-0.178
Mof_C 	C 	0.0821	0.23686	0.51314	0.438
Mof_C 	C 	0.6167	0.458	0.792	0.126
Mof_C 	C 	0.594	0.49385	0.75615	-0.178
Mof_C 	C 	0.5821	0.51314	0.73686	0.438
Mof_C 	C 	0.6167	0.958	0.292	0.125
Mof_C 	C 	0.594	0.99385	0.25615	-0.173
Mof_C 	C 	0.5821	0.01314	0.23686	0.436
Mof_C 	C 	0.458	0.792	0.6167	0.126
Mof_C 	C 	0.49385	0.75615	0.594	-0.178
Mof_C 	C 	0.51314	0.73686	0.5821	0.438
Mof_C 	C 	0.458	0.292	0.1167	0.126
Mof_C 	C 	0.49385	0.25615	0.094	-0.178
Mof_C 	C 	0.51314	0.23686	0.0821	0.438
Mof_C 	C 	0.792	0.958	0.1167	0.125
Mof_C 	C 	0.75615	0.99385	0.094	-0.173
Mof_C 	C 	0.73686	0.01314	0.0821	0.436
Mof_C 	C 	0.292	0.958	0.6167	0.125
Mof_C 	C 	0.25615	0.99385	0.594	-0.173
Mof_C 	C 	0.23686	0.01314	0.5821	0.436
Mof_C 	C 	0.958	0.458	0.1333	0.125
Mof_C 	C 	0.99385	0.49385	0.156	-0.173
Mof_C 	C 	0.01314	0.51314	0.1679	0.436
Mof_C 	C 	0.792	0.6167	0.458	0.126
Mof_C 	C 	0.75615	0.594	0.49385	-0.178
Mof_C 	C 	0.73686	0.5821	0.51314	0.438
Mof_C 	C 	0.292	0.6167	0.958	0.125
Mof_C 	C 	0.25615	0.594	0.99385	-0.173
Mof_C 	C 	0.23686	0.5821	0.01314	0.436
Mof_C 	C 	0.458	0.1333	0.958	0.125
Mof_C 	C 	0.49385	0.156	0.99385	-0.173
Mof_C 	C 	0.51314	0.1679	0.01314	0.436
Mof_C 	C 	0.458	0.6333	0.458	0.126
Mof_C 	C 	0.49385	0.656	0.49385	-0.178
Mof_C 	C 	0.51314	0.6679	0.51314	0.438
Mof_C 	C 	0.958	0.1167	0.792	0.125
Mof_C 	C 	0.99385	0.094	0.75615	-0.173
Mof_C 	C 	0.01314	0.0821	0.73686	0.436
Mof_C 	C 	0.958	0.6167	0.292	0.125
Mof_C 	C 	0.99385	0.594	0.25615	-0.173
Mof_C 	C 	0.01314	0.5821	0.23686	0.436
Mof_C 	C 	0.59078	0.09078	0.05785	0.157
Mof_C 	C 	0.59078	0.59078	0.55785	0.157
Mof_C 	C 	0.15922	0.15922	0.55785	0.157
Mof_C 	C 	0.15922	0.65922	0.05785	0.157
Mof_C 	C 	0.65922	0.15922	0.05785	0.157
Mof_C 	C 	0.65922	0.65922	0.55785	0.157
Mof_C 	C 	0.65922	0.59078	0.69215	0.157
Mof_C 	C 	0.15922	0.59078	0.19215	0.157
Mof_C 	C 	0.09078	0.65922	0.19215	0.157
Mof_C 	C 	0.09078	0.15922	0.69215	0.157
Mof_C 	C 	0.05785	0.59078	0.09078	0.157
Mof_C 	C 	0.55785	0.59078	0.59078	0.157
Mof_C 	C 	0.55785	0.15922	0.15922	0.157
Mof_C 	C 	0.55785	0.65922	0.65922	0.157
Mof_C 	C 	0.05785	0.15922	0.65922	0.157
Mof_C 	C 	0.05785	0.65922	0.15922	0.157
Mof_C 	C 	0.69215	0.65922	0.59078	0.157
Mof_C 	C 	0.69215	0.15922	0.09078	0.157
Mof_C 	C 	0.19215	0.09078	0.65922	0.157
Mof_C 	C 	0.19215	0.59078	0.15922	0.157
Mof_C 	C 	0.09078	0.05785	0.59078	0.157
Mof_C 	C 	0.09078	0.55785	0.09078	0.157
Mof_C 	C 	0.15922	0.55785	0.15922	0.157
Mof_C 	C 	0.15922	0.05785	0.65922	0.157
Mof_C 	C 	0.65922	0.55785	0.65922	0.157
Mof_C 	C 	0.65922	0.05785	0.15922	0.157
Mof_C 	C 	0.59078	0.69215	0.65922	0.157
Mof_C 	C 	0.59078	0.19215	0.15922	0.157
Mof_C 	C 	0.65922	0.19215	0.09078	0.157
Mof_C 	C 	0.15922	0.19215	0.59078	0.157
Mof_C 	C 	0.84078	0.84078	0.44215	0.157
Mof_C 	C 	0.84078	0.34078	0.94215	0.158
Mof_C 	C 	0.34078	0.84078	0.94215	0.158
Mof_C 	C 	0.34078	0.34078	0.44215	0.157
Mof_C 	C 	0.90922	0.40922	0.94215	0.158
Mof_C 	C 	0.90922	0.90922	0.44215	0.158
Mof_C 	C 	0.34078	0.90922	0.80785	0.158
Mof_C 	C 	0.84078	0.90922	0.30785	0.158
Mof_C 	C 	0.40922	0.34078	0.30785	0.157
Mof_C 	C 	0.40922	0.84078	0.80785	0.157
Mof_C 	C 	0.34078	0.30785	0.40922	0.157
Mof_C 	C 	0.84078	0.30785	0.90922	0.158
Mof_C 	C 	0.90922	0.80785	0.34078	0.158
Mof_C 	C 	0.90922	0.30785	0.84078	0.158
Mof_C 	C 	0.40922	0.94215	0.90922	0.158
Mof_C 	C 	0.40922	0.44215	0.40922	0.157
Mof_C 	C 	0.84078	0.44215	0.84078	0.157
Mof_C 	C 	0.84078	0.94215	0.34078	0.158
Mof_C 	C 	0.34078	0.44215	0.34078	0.157
Mof_C 	C 	0.34078	0.94215	0.84078	0.158
Mof_C 	C 	0.80785	0.34078	0.90922	0.158
Mof_C 	C 	0.80785	0.84078	0.40922	0.157
Mof_C 	C 	0.30785	0.40922	0.34078	0.157
Mof_C 	C 	0.30785	0.90922	0.84078	0.158
Mof_C 	C 	0.44215	0.84078	0.84078	0.157
Mof_C 	C 	0.44215	0.34078	0.34078	0.157
Mof_C 	C 	0.94215	0.84078	0.34078	0.158
Mof_C 	C 	0.94215	0.34078	0.84078	0.158
Mof_C 	C 	0.94215	0.90922	0.40922	0.158
Mof_C 	C 	0.44215	0.90922	0.90922	0.158
Mof_C 	C 	0.40922	0.90922	0.94215	0.158
Mof_C 	C 	0.40922	0.40922	0.44215	0.157
Mof_C 	C 	0.34078	0.40922	0.30785	0.157
Mof_C 	C 	0.84078	0.40922	0.80785	0.157
Mof_C 	C 	0.90922	0.34078	0.80785	0.158
Mof_C 	C 	0.90922	0.84078	0.30785	0.158
Mof_C 	C 	0.94215	0.40922	0.90922	0.158
Mof_C 	C 	0.44215	0.40922	0.40922	0.157
Mof_C 	C 	0.30785	0.34078	0.40922	0.157
Mof_C 	C 	0.30785	0.84078	0.90922	0.158
Mof_C 	C 	0.80785	0.90922	0.34078	0.158
Mof_C 	C 	0.80785	0.40922	0.84078	0.157
Mof_C 	C 	0.90922	0.94215	0.40922	0.158
Mof_C 	C 	0.90922	0.44215	0.90922	0.158
Mof_C 	C 	0.40922	0.30785	0.34078	0.157
Mof_C 	C 	0.40922	0.80785	0.84078	0.157
Mof_C 	C 	0.34078	0.80785	0.90922	0.158
Mof_C 	C 	0.84078	0.80785	0.40922	0.157
Mof_C 	C 	0.09078	0.59078	0.05785	0.157
Mof_C 	C 	0.09078	0.09078	0.55785	0.157
Mof_C 	C 	0.65922	0.09078	0.19215	0.157
Mof_C 	C 	0.15922	0.09078	0.69215	0.157
Mof_C 	C 	0.59078	0.65922	0.69215	0.157
Mof_C 	C 	0.59078	0.15922	0.19215	0.157
Mof_C 	C 	0.65922	0.69215	0.59078	0.157
Mof_C 	C 	0.15922	0.69215	0.09078	0.157
Mof_C 	C 	0.09078	0.19215	0.65922	0.157
Mof_C 	C 	0.09078	0.69215	0.15922	0.157
Mof_C 	C 	0.59078	0.05785	0.09078	0.157
Mof_C 	C 	0.59078	0.55785	0.59078	0.157
Mof_C 	C 	0.19215	0.65922	0.09078	0.157
Mof_C 	C 	0.19215	0.15922	0.59078	0.157
Mof_C 	C 	0.69215	0.59078	0.65922	0.157
Mof_C 	C 	0.69215	0.09078	0.15922	0.157
Mof_C 	C 	0.05785	0.09078	0.59078	0.157
Mof_C 	C 	0.55785	0.09078	0.09078	0.157
_end
