# CIF file generated by openbabel 3.1.0, see https://openbabel.org
data_I
_chemical_name_common 'image0'
_cell_length_a 12.79
_cell_length_b 12.79
_cell_length_c 11.191
_cell_angle_alpha 90
_cell_angle_beta 90
_cell_angle_gamma 90
_space_group_name_H-M_alt 'P 1'
_space_group_name_Hall 'P 1'
loop_
    _symmetry_equiv_pos_as_xyz
    x,y,z
loop_
    _atom_site_label
    _atom_site_type_symbol
    _atom_site_fract_x
    _atom_site_fract_y
    _atom_site_fract_z
    _atom_site_occupancy
    C1       C        0.87960    0.91130    0.77390    1.000
    H1       H        0.95010    0.91550    0.80770    1.000
    C2       C        0.81050    0.99150    0.83680    1.000
    H2       H        0.81720    0.06630    0.83550    1.000
    C3       C        0.70700    0.01000    0.77670    1.000
    H3       H        0.66360    0.95080    0.79480    1.000
    C4       C        0.71740    0.02180    0.64260    1.000
    H4       H        0.65050    0.01440    0.60450    1.000
    C5       C        0.78500    0.93650    0.59330    1.000
    H5       H        0.75000    0.86990    0.60370    1.000
    H6       H        0.79490    0.94770    0.50830    1.000
    O1       O        0.83840    0.81090    0.79830    1.000
    H7       H        0.83600    0.76000    0.73900    1.000
    O2       O        0.79400    0.95740    0.95710    1.000
    H8       H        0.79140    0.00450    0.01670    1.000
    O3       O        0.66090    0.10230    0.82380    1.000
    H9       H        0.60790    0.09870    0.88050    1.000
    O4       O        0.75910    0.12380    0.62270    1.000
    O5       O        0.88550    0.93270    0.65100    1.000
    C6       C        0.12040    0.08870    0.27390    1.000
    H10      H        0.04990    0.08450    0.30770    1.000
    C7       C        0.18950    0.00850    0.33680    1.000
    H11      H        0.18280    0.93370    0.33550    1.000
    C8       C        0.29300    0.99000    0.27670    1.000
    H12      H        0.33640    0.04920    0.29480    1.000
    C9       C        0.28260    0.97820    0.14260    1.000
    H13      H        0.34950    0.98560    0.10450    1.000
    C10      C        0.21500    0.06350    0.09330    1.000
    H14      H        0.25000    0.13010    0.10370    1.000
    H15      H        0.20510    0.05230    0.00830    1.000
    O6       O        0.16160    0.18910    0.29830    1.000
    H16      H        0.16400    0.24000    0.23900    1.000
    O7       O        0.20600    0.04260    0.45710    1.000
    H17      H        0.20860    0.99550    0.51670    1.000
    O8       O        0.33910    0.89770    0.32380    1.000
    H18      H        0.39210    0.90130    0.38050    1.000
    O9       O        0.24090    0.87620    0.12270    1.000
    O10      O        0.11450    0.06730    0.15100    1.000
    C11      C        0.58870    0.37960    0.52390    1.000
    H19      H        0.58450    0.45010    0.55770    1.000
    C12      C        0.50850    0.31050    0.58680    1.000
    H20      H        0.43370    0.31720    0.58550    1.000
    C13      C        0.49000    0.20700    0.52670    1.000
    H21      H        0.54920    0.16360    0.54480    1.000
    C14      C        0.47820    0.21740    0.39260    1.000
    H22      H        0.48560    0.15050    0.35450    1.000
    C15      C        0.56350    0.28500    0.34330    1.000
    H23      H        0.63010    0.25000    0.35370    1.000
    H24      H        0.55230    0.29490    0.25830    1.000
    O11      O        0.68910    0.33840    0.54830    1.000
    H25      H        0.74000    0.33600    0.48900    1.000
    O12      O        0.54260    0.29400    0.70710    1.000
    H26      H        0.49550    0.29140    0.76670    1.000
    O13      O        0.39770    0.16090    0.57380    1.000
    H27      H        0.40130    0.10790    0.63050    1.000
    O14      O        0.37620    0.25910    0.37270    1.000
    O15      O        0.56730    0.38550    0.40100    1.000
    C16      C        0.41130    0.62040    0.02390    1.000
    H28      H        0.41550    0.54990    0.05770    1.000
    C17      C        0.49150    0.68950    0.08680    1.000
    H29      H        0.56630    0.68280    0.08550    1.000
    C18      C        0.51000    0.79300    0.02670    1.000
    H30      H        0.45080    0.83640    0.04480    1.000
    C19      C        0.52180    0.78260    0.89260    1.000
    H31      H        0.51440    0.84950    0.85450    1.000
    C20      C        0.43650    0.71500    0.84330    1.000
    H32      H        0.36990    0.75000    0.85370    1.000
    H33      H        0.44770    0.70510    0.75830    1.000
    O16      O        0.31090    0.66160    0.04830    1.000
    H34      H        0.26000    0.66400    0.98900    1.000
    O17      O        0.45740    0.70600    0.20710    1.000
    H35      H        0.50450    0.70860    0.26670    1.000
    O18      O        0.60230    0.83910    0.07380    1.000
    H36      H        0.59870    0.89210    0.13050    1.000
    O19      O        0.62380    0.74090    0.87270    1.000
    O20      O        0.43270    0.61450    0.90100    1.000
    C21      C        0.62040    0.41130    0.97610    1.000
    H37      H        0.54990    0.41550    0.94230    1.000
    C22      C        0.68950    0.49150    0.91320    1.000
    H38      H        0.68280    0.56630    0.91450    1.000
    C23      C        0.79300    0.51000    0.97330    1.000
    H39      H        0.83640    0.45080    0.95520    1.000
    C24      C        0.78260    0.52180    0.10740    1.000
    H40      H        0.84950    0.51440    0.14550    1.000
    C25      C        0.71500    0.43650    0.15670    1.000
    H41      H        0.75000    0.36990    0.14630    1.000
    H42      H        0.70510    0.44770    0.24170    1.000
    O21      O        0.66160    0.31090    0.95170    1.000
    H43      H        0.66400    0.26000    0.01100    1.000
    O22      O        0.70600    0.45740    0.79290    1.000
    H44      H        0.70860    0.50450    0.73330    1.000
    O23      O        0.83910    0.60230    0.92620    1.000
    H45      H        0.89210    0.59870    0.86950    1.000
    O24      O        0.74090    0.62380    0.12730    1.000
    O25      O        0.61450    0.43270    0.09900    1.000
    C26      C        0.37960    0.58870    0.47610    1.000
    H46      H        0.45010    0.58450    0.44230    1.000
    C27      C        0.31050    0.50850    0.41320    1.000
    H47      H        0.31720    0.43370    0.41450    1.000
    C28      C        0.20700    0.49000    0.47330    1.000
    H48      H        0.16360    0.54920    0.45520    1.000
    C29      C        0.21740    0.47820    0.60740    1.000
    H49      H        0.15050    0.48560    0.64550    1.000
    C30      C        0.28500    0.56350    0.65670    1.000
    H50      H        0.25000    0.63010    0.64630    1.000
    H51      H        0.29490    0.55230    0.74170    1.000
    O26      O        0.33840    0.68910    0.45170    1.000
    H52      H        0.33600    0.74000    0.51100    1.000
    O27      O        0.29400    0.54260    0.29290    1.000
    H53      H        0.29140    0.49550    0.23330    1.000
    O28      O        0.16090    0.39770    0.42620    1.000
    H54      H        0.10790    0.40130    0.36950    1.000
    O29      O        0.25910    0.37620    0.62730    1.000
    O30      O        0.38550    0.56730    0.59900    1.000
    C31      C        0.91130    0.87960    0.22610    1.000
    H55      H        0.91550    0.95010    0.19230    1.000
    C32      C        0.99150    0.81050    0.16320    1.000
    H56      H        0.06630    0.81720    0.16450    1.000
    C33      C        0.01000    0.70700    0.22330    1.000
    H57      H        0.95080    0.66360    0.20520    1.000
    C34      C        0.02180    0.71740    0.35740    1.000
    H58      H        0.01440    0.65050    0.39550    1.000
    C35      C        0.93650    0.78500    0.40670    1.000
    H59      H        0.86990    0.75000    0.39630    1.000
    H60      H        0.94770    0.79490    0.49170    1.000
    O31      O        0.81090    0.83840    0.20170    1.000
    H61      H        0.76000    0.83600    0.26100    1.000
    O32      O        0.95740    0.79400    0.04290    1.000
    H62      H        0.00450    0.79140    0.98330    1.000
    O33      O        0.10230    0.66090    0.17620    1.000
    H63      H        0.09870    0.60790    0.11950    1.000
    O34      O        0.12380    0.75910    0.37730    1.000
    O35      O        0.93270    0.88550    0.34900    1.000
    C36      C        0.08870    0.12040    0.72610    1.000
    H64      H        0.08450    0.04990    0.69230    1.000
    C37      C        0.00850    0.18950    0.66320    1.000
    H65      H        0.93370    0.18280    0.66450    1.000
    C38      C        0.99000    0.29300    0.72330    1.000
    H66      H        0.04920    0.33640    0.70520    1.000
    C39      C        0.97820    0.28260    0.85740    1.000
    H67      H        0.98560    0.34950    0.89550    1.000
    C40      C        0.06350    0.21500    0.90670    1.000
    H68      H        0.13010    0.25000    0.89630    1.000
    H69      H        0.05230    0.20510    0.99170    1.000
    O36      O        0.18910    0.16160    0.70170    1.000
    H70      H        0.24000    0.16400    0.76100    1.000
    O37      O        0.04260    0.20600    0.54290    1.000
    H71      H        0.99550    0.20860    0.48330    1.000
    O38      O        0.89770    0.33910    0.67620    1.000
    H72      H        0.90130    0.39210    0.61950    1.000
    O39      O        0.87620    0.24090    0.87730    1.000
    O40      O        0.06730    0.11450    0.84900    1.000
    Ca1      Ca       0.77380    0.77380    0.00000    1.000
    Ca2      Ca       0.22620    0.22620    0.50000    1.000
    Ca3      Ca       0.72620    0.27380    0.75000    1.000
    Ca4      Ca       0.27380    0.72620    0.25000    1.000
