data_functionalizedCrystal
_audit_creation_method	'EQeq! by Chris Wilmer'
_symmetry_space_group_name_H-M	'P1'
_symmetry_Int_Tables_number	1
_symmetry_cell_setting	triclinic
loop_
_symmetry_equiv_pos_as_xyz
  x,y,z
_cell_length_a	25.122
_cell_length_b	25.122
_cell_length_c	23.412
_cell_angle_alpha	90
_cell_angle_beta	90
_cell_angle_gamma	90
loop_
_atom_site_label
_atom_site_type_symbol
_atom_site_fract_x
_atom_site_fract_y
_atom_site_fract_z
_atom_site_charge
Mof_C 	C 	0.598	0.15	0.12	0.364
Mof_C 	C 	0.61	0.198	0.154	-0.184
Mof_C 	C 	0.578	0.224	0.185	0.122
Mof_H 	H 	0.544	0.2098	0.19	-0.001
Mof_C 	C 	0.7346	0.4658	0.1763	0.022
Mof_H 	H 	0.7061	0.4668	0.1484	0.04
Mof_H 	H 	0.7557	0.4339	0.1709	0.016
Mof_C 	C 	0.7702	0.5188	0.1749	0.003
Mof_H 	H 	0.7843	0.528	0.2122	0.057
Mof_H 	H 	0.7988	0.5168	0.1472	-0.001
Mof_C 	C 	0.751	0.601	0.143	0.012
Mof_H 	H 	0.749	0.6041	0.1021	0.028
Mof_H 	H 	0.7889	0.5992	0.1526	0.034
Mof_C 	C 	0.732	0.65	0.166	0.002
Mof_H 	H 	0.6965	0.6551	0.1519	0.042
Mof_H 	H 	0.7543	0.6781	0.151	0.031
Mof_C 	C 	0.704	0.655	0.401	0.048
Mof_H 	H 	0.6662	0.6509	0.4101	0.035
Mof_H 	H 	0.7156	0.6897	0.4148	0.018
Mof_C 	C 	0.74	0.607	0.427	-0.072
Mof_H 	H 	0.7739	0.6036	0.4077	0.073
Mof_H 	H 	0.7452	0.6101	0.4677	0.063
Mof_C 	C 	0.73	0.514	0.424	-0.018
Mof_H 	H 	0.7358	0.5109	0.4647	0.046
Mof_H 	H 	0.7648	0.5153	0.4051	0.056
Mof_C 	C 	0.699	0.471	0.402	0.009
Mof_H 	H 	0.7117	0.4372	0.417	0.03
Mof_H 	H 	0.6617	0.475	0.4139	0.048
Mof_C 	C 	0.645	0.824	0.207	0.054
Mof_C 	C 	0.594	0.83	0.192	-0.113
Mof_H 	H 	0.5682	0.8061	0.2052	0.073
Mof_C 	C 	0.58	0.874	0.156	0.045
Mof_H 	H 	0.5454	0.8774	0.1432	0.048
Mof_C 	C 	0.615	0.91	0.14	-0.128
Mof_C 	C 	0.664	0.907	0.158	0.045
Mof_H 	H 	0.6868	0.9344	0.1493	0.043
Mof_C 	C 	0.685	0.862	0.192	-0.113
Mof_H 	H 	0.7204	0.8586	0.2019	0.078
Mof_C 	C 	0.599	0.959	0.106	0.398
Mof_O 	O 	0.634	0.122	0.1	-0.465
Mof_O 	O 	0.548	0.138	0.118	-0.29
Mof_O 	O 	0.716	0.47	0.231	-0.185
Mof_O 	O 	0.729	0.553	0.158	-0.167
Mof_O 	O 	0.731	0.654	0.226	-0.192
Mof_O 	O 	0.712	0.651	0.342	-0.187
Mof_O 	O 	0.702	0.56	0.412	-0.139
Mof_O 	O 	0.703	0.472	0.341	-0.163
Mof_O 	O 	0.563	0.166	0.49	-0.504
Mof_O 	O 	0.621	0.116	0.444	-0.521
Mof_O 	O 	0.5456	0.96	0.465	-0.566
Mof_O 	O 	0.477	0.927	0.422	-0.501
Mof_O 	O 	0.633	0.991	0.092	-0.481
Mof_O 	O 	0.549	0.962	0.0934	-0.42
Mof_C 	C 	0.661	0.22	0.152	0.112
Mof_H 	H 	0.6882	0.2019	0.1319	0.012
Mof_C 	C 	0.672	0.268	0.179	-0.207
Mof_H 	H 	0.704	0.2842	0.1718	0.104
Mof_C 	C 	0.64	0.291	0.213	0.134
Mof_C 	C 	0.591	0.273	0.214	-0.192
Mof_H 	H 	0.5643	0.2914	0.2335	0.101
Mof_C 	C 	0.656	0.338	0.248	0.007
Mof_C 	C 	0.678	0.382	0.224	-0.147
Mof_H 	H 	0.6844	0.3817	0.1851	0.083
Mof_C 	C 	0.692	0.425	0.252	0.128
Mof_C 	C 	0.685	0.425	0.313	0.08
Mof_C 	C 	0.661	0.385	0.341	-0.089
Mof_H 	H 	0.6541	0.3877	0.3797	0.066
Mof_C 	C 	0.645	0.338	0.309	-0.052
Mof_C 	C 	0.633	0.291	0.342	0.189
Mof_C 	C 	0.592	0.293	0.381	-0.297
Mof_H 	H 	0.5712	0.3229	0.3849	0.139
Mof_C 	C 	0.583	0.249	0.413	0.244
Mof_H 	H 	0.556	0.251	0.4406	-0.037
Mof_C 	C 	0.607	0.205	0.41	-0.288
Mof_C 	C 	0.645	0.201	0.371	0.199
Mof_H 	H 	0.6638	0.1696	0.3674	-0.033
Mof_C 	C 	0.658	0.244	0.335	-0.261
Mof_H 	H 	0.6837	0.239	0.3067	0.129
Mof_C 	C 	0.596	0.157	0.45	0.472
Mof_C 	C 	0.696	0.691	0.312	0.102
Mof_C 	C 	0.705	0.693	0.251	0.139
Mof_C 	C 	0.686	0.733	0.222	-0.157
Mof_H 	H 	0.6875	0.7297	0.1828	0.091
Mof_C 	C 	0.662	0.781	0.244	0.02
Mof_C 	C 	0.651	0.778	0.303	-0.035
Mof_C 	C 	0.667	0.735	0.337	-0.101
Mof_H 	H 	0.6588	0.7348	0.3753	0.07
Mof_C 	C 	0.618	0.82	0.33	0.147
Mof_C 	C 	0.567	0.817	0.329	-0.208
Mof_H 	H 	0.5506	0.7926	0.3058	0.107
Mof_C 	C 	0.535	0.852	0.364	0.121
Mof_H 	H 	0.4987	0.8466	0.3664	0.003
Mof_C 	C 	0.56	0.894	0.395	-0.224
Mof_C 	C 	0.614	0.897	0.396	0.119
Mof_H 	H 	0.6328	0.9191	0.4205	-0.041
Mof_C 	C 	0.641	0.861	0.356	-0.192
Mof_H 	H 	0.6765	0.8683	0.3469	0.094
Mof_C 	C 	0.526	0.929	0.429	0.459
Mof_O 	O 	0.546	0.065	0.033	-0.673
Mof_Zn	Zn	0.5375	0.093	0.9515	1.181
Mof_Zn	Zn	0.6193	0.0582	0.0545	1.232
Mof_C 	C 	0.402	0.85	0.12	0.365
Mof_C 	C 	0.39	0.802	0.154	-0.18
Mof_C 	C 	0.422	0.776	0.185	0.122
Mof_H 	H 	0.456	0.7902	0.19	0.001
Mof_C 	C 	0.2654	0.5342	0.1763	0.021
Mof_H 	H 	0.2939	0.5332	0.1484	0.041
Mof_H 	H 	0.2443	0.5661	0.1709	0.018
Mof_C 	C 	0.2298	0.4812	0.1749	0.006
Mof_H 	H 	0.2157	0.472	0.2122	0.056
Mof_H 	H 	0.2012	0.4832	0.1472	-0.002
Mof_C 	C 	0.249	0.399	0.143	0.013
Mof_H 	H 	0.251	0.3959	0.1021	0.028
Mof_H 	H 	0.2111	0.4008	0.1526	0.033
Mof_C 	C 	0.268	0.35	0.166	0.002
Mof_H 	H 	0.3035	0.3449	0.1519	0.042
Mof_H 	H 	0.2457	0.3219	0.151	0.031
Mof_C 	C 	0.296	0.345	0.401	0.049
Mof_H 	H 	0.3338	0.3491	0.4101	0.035
Mof_H 	H 	0.2844	0.3103	0.4148	0.017
Mof_C 	C 	0.26	0.393	0.427	-0.072
Mof_H 	H 	0.2261	0.3964	0.4077	0.073
Mof_H 	H 	0.2548	0.3899	0.4677	0.062
Mof_C 	C 	0.27	0.486	0.424	-0.018
Mof_H 	H 	0.2642	0.4891	0.4647	0.046
Mof_H 	H 	0.2352	0.4847	0.4051	0.056
Mof_C 	C 	0.301	0.529	0.402	0.009
Mof_H 	H 	0.2883	0.5628	0.417	0.03
Mof_H 	H 	0.3383	0.525	0.4139	0.048
Mof_C 	C 	0.355	0.176	0.207	0.058
Mof_C 	C 	0.406	0.17	0.192	-0.121
Mof_H 	H 	0.4318	0.1939	0.2052	0.075
Mof_C 	C 	0.42	0.126	0.156	0.051
Mof_H 	H 	0.4546	0.1226	0.1432	0.044
Mof_C 	C 	0.385	0.09	0.14	-0.141
Mof_C 	C 	0.336	0.093	0.158	0.053
Mof_H 	H 	0.3132	0.0656	0.1493	0.033
Mof_C 	C 	0.315	0.138	0.192	-0.122
Mof_H 	H 	0.2796	0.1414	0.2019	0.08
Mof_C 	C 	0.401	0.041	0.106	0.404
Mof_O 	O 	0.366	0.878	0.1	-0.459
Mof_O 	O 	0.452	0.862	0.118	-0.286
Mof_O 	O 	0.284	0.53	0.231	-0.185
Mof_O 	O 	0.271	0.447	0.158	-0.167
Mof_O 	O 	0.269	0.346	0.226	-0.192
Mof_O 	O 	0.288	0.349	0.342	-0.187
Mof_O 	O 	0.298	0.44	0.412	-0.139
Mof_O 	O 	0.297	0.528	0.341	-0.164
Mof_O 	O 	0.437	0.834	0.49	-0.504
Mof_O 	O 	0.379	0.884	0.444	-0.517
Mof_O 	O 	0.4544	0.04	0.465	-0.589
Mof_O 	O 	0.523	0.073	0.422	-0.511
Mof_O 	O 	0.367	0.009	0.092	-0.51
Mof_O 	O 	0.451	0.038	0.0934	-0.439
Mof_C 	C 	0.339	0.78	0.152	0.111
Mof_H 	H 	0.3118	0.7981	0.1319	0.013
Mof_C 	C 	0.328	0.732	0.179	-0.206
Mof_H 	H 	0.296	0.7158	0.1718	0.103
Mof_C 	C 	0.36	0.709	0.213	0.133
Mof_C 	C 	0.409	0.727	0.214	-0.19
Mof_H 	H 	0.4357	0.7086	0.2335	0.1
Mof_C 	C 	0.344	0.662	0.248	0.007
Mof_C 	C 	0.322	0.618	0.224	-0.147
Mof_H 	H 	0.3156	0.6183	0.1851	0.083
Mof_C 	C 	0.308	0.575	0.252	0.128
Mof_C 	C 	0.315	0.575	0.313	0.08
Mof_C 	C 	0.339	0.615	0.341	-0.089
Mof_H 	H 	0.3459	0.6123	0.3797	0.066
Mof_C 	C 	0.355	0.662	0.309	-0.052
Mof_C 	C 	0.367	0.709	0.342	0.188
Mof_C 	C 	0.408	0.707	0.381	-0.295
Mof_H 	H 	0.4288	0.6771	0.3849	0.139
Mof_C 	C 	0.417	0.751	0.413	0.242
Mof_H 	H 	0.444	0.749	0.4406	-0.036
Mof_C 	C 	0.393	0.795	0.41	-0.285
Mof_C 	C 	0.355	0.799	0.371	0.198
Mof_H 	H 	0.3362	0.8304	0.3674	-0.031
Mof_C 	C 	0.342	0.756	0.335	-0.259
Mof_H 	H 	0.3163	0.761	0.3067	0.128
Mof_C 	C 	0.404	0.843	0.45	0.47
Mof_C 	C 	0.304	0.309	0.312	0.102
Mof_C 	C 	0.295	0.307	0.251	0.138
Mof_C 	C 	0.314	0.267	0.222	-0.156
Mof_H 	H 	0.3125	0.2703	0.1828	0.09
Mof_C 	C 	0.338	0.219	0.244	0.019
Mof_C 	C 	0.349	0.222	0.303	-0.037
Mof_C 	C 	0.333	0.265	0.337	-0.1
Mof_H 	H 	0.3412	0.2652	0.3753	0.07
Mof_C 	C 	0.382	0.18	0.33	0.15
Mof_C 	C 	0.433	0.183	0.329	-0.213
Mof_H 	H 	0.4494	0.2074	0.3058	0.108
Mof_C 	C 	0.465	0.148	0.364	0.124
Mof_H 	H 	0.5013	0.1534	0.3664	0.001
Mof_C 	C 	0.44	0.106	0.395	-0.234
Mof_C 	C 	0.386	0.103	0.396	0.122
Mof_H 	H 	0.3672	0.0809	0.4205	-0.052
Mof_C 	C 	0.359	0.139	0.356	-0.199
Mof_H 	H 	0.3235	0.1317	0.3469	0.092
Mof_C 	C 	0.474	0.071	0.429	0.463
Mof_O 	O 	0.454	0.935	0.033	-0.659
Mof_Zn	Zn	0.4625	0.907	0.9515	1.181
Mof_Zn	Zn	0.3807	0.9418	0.0545	1.24
Mof_C 	C 	0.35	0.902	0.62	0.362
Mof_C 	C 	0.302	0.89	0.654	-0.175
Mof_C 	C 	0.276	0.922	0.685	0.118
Mof_H 	H 	0.2902	0.956	0.69	0.008
Mof_C 	C 	0.0342	0.7654	0.6763	-0.006
Mof_H 	H 	0.0332	0.7939	0.6484	0.044
Mof_H 	H 	0.0661	0.7443	0.6709	0.022
Mof_C 	C 	0.9812	0.7298	0.6749	0.031
Mof_H 	H 	0.972	0.7157	0.7122	0.056
Mof_H 	H 	0.9832	0.7012	0.6472	-0.002
Mof_C 	C 	0.899	0.749	0.643	0.011
Mof_H 	H 	0.8959	0.751	0.6021	0.032
Mof_H 	H 	0.9008	0.7111	0.6526	0.035
Mof_C 	C 	0.85	0.768	0.666	0.004
Mof_H 	H 	0.8449	0.8035	0.6519	0.045
Mof_H 	H 	0.8219	0.7457	0.651	0.031
Mof_C 	C 	0.845	0.796	0.901	0.045
Mof_H 	H 	0.8491	0.8338	0.9101	0.04
Mof_H 	H 	0.8103	0.7844	0.9148	0.019
Mof_C 	C 	0.893	0.76	0.927	-0.069
Mof_H 	H 	0.8964	0.7261	0.9077	0.073
Mof_H 	H 	0.8899	0.7548	0.9677	0.062
Mof_C 	C 	0.986	0.77	0.924	0.029
Mof_H 	H 	0.9891	0.7642	0.9647	0.039
Mof_H 	H 	0.9847	0.7352	0.9051	0.052
Mof_C 	C 	0.029	0.801	0.902	-0.039
Mof_H 	H 	0.0628	0.7883	0.917	0.041
Mof_H 	H 	0.025	0.8383	0.9139	0.056
Mof_C 	C 	0.676	0.855	0.707	0.049
Mof_C 	C 	0.67	0.906	0.692	-0.109
Mof_H 	H 	0.6939	0.9318	0.7052	0.076
Mof_C 	C 	0.626	0.92	0.656	0.043
Mof_H 	H 	0.6226	0.9546	0.6432	0.055
Mof_C 	C 	0.59	0.885	0.64	-0.127
Mof_C 	C 	0.593	0.836	0.658	0.044
Mof_H 	H 	0.5656	0.8132	0.6493	0.04
Mof_C 	C 	0.638	0.815	0.692	-0.112
Mof_H 	H 	0.6414	0.7796	0.7019	0.077
Mof_C 	C 	0.541	0.901	0.606	0.398
Mof_O 	O 	0.378	0.866	0.6	-0.46
Mof_O 	O 	0.362	0.952	0.618	-0.279
Mof_O 	O 	0.03	0.784	0.731	-0.187
Mof_O 	O 	0.947	0.771	0.658	-0.161
Mof_O 	O 	0.846	0.769	0.726	-0.191
Mof_O 	O 	0.849	0.788	0.842	-0.182
Mof_O 	O 	0.94	0.798	0.912	-0.14
Mof_O 	O 	0.028	0.797	0.841	-0.162
Mof_O 	O 	0.334	0.937	0.99	-0.499
Mof_O 	O 	0.384	0.879	0.944	-0.518
Mof_O 	O 	0.54	0.9544	0.965	-0.584
Mof_O 	O 	0.573	0.023	0.922	-0.534
Mof_O 	O 	0.509	0.867	0.592	-0.494
Mof_O 	O 	0.538	0.951	0.5934	-0.42
Mof_C 	C 	0.28	0.839	0.652	0.108
Mof_H 	H 	0.2981	0.8118	0.6319	0.014
Mof_C 	C 	0.232	0.828	0.679	-0.202
Mof_H 	H 	0.2158	0.796	0.6718	0.102
Mof_C 	C 	0.209	0.86	0.713	0.13
Mof_C 	C 	0.227	0.909	0.714	-0.186
Mof_H 	H 	0.2086	0.9357	0.7335	0.102
Mof_C 	C 	0.162	0.844	0.748	0.009
Mof_C 	C 	0.118	0.822	0.724	-0.148
Mof_H 	H 	0.1183	0.8156	0.6851	0.083
Mof_C 	C 	0.075	0.808	0.752	0.128
Mof_C 	C 	0.075	0.815	0.813	0.077
Mof_C 	C 	0.115	0.839	0.841	-0.087
Mof_H 	H 	0.1123	0.8459	0.8797	0.065
Mof_C 	C 	0.162	0.855	0.809	-0.052
Mof_C 	C 	0.209	0.867	0.842	0.188
Mof_C 	C 	0.207	0.908	0.881	-0.293
Mof_H 	H 	0.1771	0.9288	0.8849	0.14
Mof_C 	C 	0.251	0.917	0.913	0.241
Mof_H 	H 	0.249	0.944	0.9406	-0.033
Mof_C 	C 	0.295	0.893	0.91	-0.284
Mof_C 	C 	0.299	0.855	0.871	0.197
Mof_H 	H 	0.3304	0.8362	0.8674	-0.031
Mof_C 	C 	0.256	0.842	0.835	-0.258
Mof_H 	H 	0.261	0.8163	0.8067	0.128
Mof_C 	C 	0.343	0.904	0.95	0.469
Mof_C 	C 	0.809	0.804	0.812	0.098
Mof_C 	C 	0.807	0.795	0.751	0.144
Mof_C 	C 	0.767	0.814	0.722	-0.162
Mof_H 	H 	0.7703	0.8125	0.6828	0.094
Mof_C 	C 	0.719	0.838	0.744	0.03
Mof_C 	C 	0.722	0.849	0.803	-0.054
Mof_C 	C 	0.765	0.833	0.837	-0.088
Mof_H 	H 	0.7652	0.8412	0.8753	0.067
Mof_C 	C 	0.68	0.882	0.83	0.193
Mof_C 	C 	0.683	0.933	0.829	-0.272
Mof_H 	H 	0.7074	0.9494	0.8058	0.137
Mof_C 	C 	0.648	0.965	0.864	0.213
Mof_H 	H 	0.6534	0.0013	0.8664	-0.045
Mof_C 	C 	0.606	0.94	0.895	-0.278
Mof_C 	C 	0.603	0.886	0.896	0.162
Mof_H 	H 	0.5809	0.8672	0.9205	-0.061
Mof_C 	C 	0.639	0.859	0.856	-0.234
Mof_H 	H 	0.6317	0.8235	0.8469	0.106
Mof_C 	C 	0.571	0.974	0.929	0.51
Mof_O 	O 	0.435	0.954	0.533	-0.658
Mof_Zn	Zn	0.407	0.9625	0.4515	1.186
Mof_Zn	Zn	0.4418	0.8807	0.5545	1.236
Mof_C 	C 	0.65	0.098	0.62	0.368
Mof_C 	C 	0.698	0.11	0.654	-0.187
Mof_C 	C 	0.724	0.078	0.685	0.127
Mof_H 	H 	0.7098	0.044	0.69	-0.007
Mof_C 	C 	0.9658	0.2346	0.6763	0.05
Mof_H 	H 	0.9668	0.2061	0.6484	0.038
Mof_H 	H 	0.9339	0.2557	0.6709	0.012
Mof_C 	C 	0.0188	0.2702	0.6749	-0.021
Mof_H 	H 	0.028	0.2843	0.7122	0.057
Mof_H 	H 	0.0168	0.2988	0.6472	-0.001
Mof_C 	C 	0.101	0.251	0.643	0.015
Mof_H 	H 	0.1041	0.249	0.6021	0.024
Mof_H 	H 	0.0992	0.2889	0.6526	0.032
Mof_C 	C 	0.15	0.232	0.666	0
Mof_H 	H 	0.1551	0.1965	0.6519	0.04
Mof_H 	H 	0.1781	0.2543	0.651	0.031
Mof_C 	C 	0.155	0.204	0.901	0.052
Mof_H 	H 	0.1509	0.1662	0.9101	0.031
Mof_H 	H 	0.1897	0.2156	0.9148	0.016
Mof_C 	C 	0.107	0.24	0.927	-0.075
Mof_H 	H 	0.1036	0.2739	0.9077	0.072
Mof_H 	H 	0.1101	0.2452	0.9677	0.063
Mof_C 	C 	0.014	0.23	0.924	-0.065
Mof_H 	H 	0.0109	0.2358	0.9647	0.053
Mof_H 	H 	0.0153	0.2648	0.9051	0.061
Mof_C 	C 	0.971	0.199	0.902	0.056
Mof_H 	H 	0.9372	0.2117	0.917	0.02
Mof_H 	H 	0.975	0.1617	0.9139	0.039
Mof_C 	C 	0.324	0.145	0.707	0.063
Mof_C 	C 	0.33	0.094	0.692	-0.126
Mof_H 	H 	0.3061	0.0682	0.7052	0.072
Mof_C 	C 	0.374	0.08	0.656	0.054
Mof_H 	H 	0.3774	0.0454	0.6432	0.037
Mof_C 	C 	0.41	0.115	0.64	-0.142
Mof_C 	C 	0.407	0.164	0.658	0.054
Mof_H 	H 	0.4344	0.1868	0.6493	0.036
Mof_C 	C 	0.362	0.185	0.692	-0.123
Mof_H 	H 	0.3586	0.2204	0.7019	0.081
Mof_C 	C 	0.459	0.099	0.606	0.403
Mof_O 	O 	0.622	0.134	0.6	-0.464
Mof_O 	O 	0.638	0.048	0.618	-0.297
Mof_O 	O 	0.97	0.216	0.731	-0.182
Mof_O 	O 	0.053	0.229	0.658	-0.172
Mof_O 	O 	0.154	0.231	0.726	-0.192
Mof_O 	O 	0.151	0.212	0.842	-0.192
Mof_O 	O 	0.06	0.202	0.912	-0.137
Mof_O 	O 	0.972	0.203	0.841	-0.165
Mof_O 	O 	0.666	0.063	0.99	-0.509
Mof_O 	O 	0.616	0.121	0.944	-0.519
Mof_O 	O 	0.46	0.0456	0.965	-0.571
Mof_O 	O 	0.427	0.977	0.922	-0.478
Mof_O 	O 	0.491	0.133	0.592	-0.498
Mof_O 	O 	0.462	0.049	0.5934	-0.439
Mof_C 	C 	0.72	0.161	0.652	0.116
Mof_H 	H 	0.7019	0.1882	0.6319	0.011
Mof_C 	C 	0.768	0.172	0.679	-0.211
Mof_H 	H 	0.7842	0.204	0.6718	0.105
Mof_C 	C 	0.791	0.14	0.713	0.137
Mof_C 	C 	0.773	0.091	0.714	-0.197
Mof_H 	H 	0.7914	0.0643	0.7335	0.099
Mof_C 	C 	0.838	0.156	0.748	0.005
Mof_C 	C 	0.882	0.178	0.724	-0.146
Mof_H 	H 	0.8817	0.1844	0.6851	0.083
Mof_C 	C 	0.925	0.192	0.752	0.129
Mof_C 	C 	0.925	0.185	0.813	0.083
Mof_C 	C 	0.885	0.161	0.841	-0.09
Mof_H 	H 	0.8877	0.1541	0.8797	0.067
Mof_C 	C 	0.838	0.145	0.809	-0.052
Mof_C 	C 	0.791	0.133	0.842	0.189
Mof_C 	C 	0.793	0.092	0.881	-0.298
Mof_H 	H 	0.8229	0.0712	0.8849	0.138
Mof_C 	C 	0.749	0.083	0.913	0.245
Mof_H 	H 	0.751	0.056	0.9406	-0.04
Mof_C 	C 	0.705	0.107	0.91	-0.289
Mof_C 	C 	0.701	0.145	0.871	0.2
Mof_H 	H 	0.6696	0.1638	0.8674	-0.033
Mof_C 	C 	0.744	0.158	0.835	-0.261
Mof_H 	H 	0.739	0.1837	0.8067	0.129
Mof_C 	C 	0.657	0.096	0.95	0.473
Mof_C 	C 	0.191	0.196	0.812	0.106
Mof_C 	C 	0.193	0.205	0.751	0.132
Mof_C 	C 	0.233	0.186	0.722	-0.15
Mof_H 	H 	0.2297	0.1875	0.6828	0.087
Mof_C 	C 	0.281	0.162	0.744	0.009
Mof_C 	C 	0.278	0.151	0.803	-0.017
Mof_C 	C 	0.235	0.167	0.837	-0.113
Mof_H 	H 	0.2348	0.1588	0.8753	0.073
Mof_C 	C 	0.32	0.118	0.83	0.104
Mof_C 	C 	0.317	0.067	0.829	-0.149
Mof_H 	H 	0.2926	0.0506	0.8058	0.079
Mof_C 	C 	0.352	0.035	0.864	0.032
Mof_H 	H 	0.3466	0.9987	0.8664	0.049
Mof_C 	C 	0.394	0.06	0.895	-0.181
Mof_C 	C 	0.397	0.114	0.896	0.079
Mof_H 	H 	0.4191	0.1328	0.9205	-0.032
Mof_C 	C 	0.361	0.141	0.856	-0.157
Mof_H 	H 	0.3683	0.1765	0.8469	0.08
Mof_C 	C 	0.429	0.026	0.929	0.412
Mof_O 	O 	0.565	0.046	0.533	-0.674
Mof_Zn	Zn	0.593	0.0375	0.4515	1.177
Mof_Zn	Zn	0.5582	0.1193	0.5545	1.236
Mof_Zn	Zn	0.5	0	0.0325	1.224
Mof_Zn	Zn	0.5	0	0.5325	1.224
Mof_C 	C 	0.15	0.402	0.88	0.365
Mof_C 	C 	0.198	0.39	0.846	-0.183
Mof_C 	C 	0.224	0.422	0.815	0.123
Mof_H 	H 	0.2098	0.456	0.81	-0
Mof_C 	C 	0.4658	0.2654	0.8237	0.021
Mof_H 	H 	0.4668	0.2939	0.8516	0.042
Mof_H 	H 	0.4339	0.2443	0.8291	0.018
Mof_C 	C 	0.5188	0.2298	0.8251	0.006
Mof_H 	H 	0.528	0.2157	0.7878	0.056
Mof_H 	H 	0.5168	0.2012	0.8528	-0.002
Mof_C 	C 	0.601	0.249	0.857	0.013
Mof_H 	H 	0.6041	0.251	0.8979	0.028
Mof_H 	H 	0.5992	0.2111	0.8474	0.033
Mof_C 	C 	0.65	0.268	0.834	0.002
Mof_H 	H 	0.6551	0.3035	0.8481	0.042
Mof_H 	H 	0.6781	0.2457	0.849	0.031
Mof_C 	C 	0.655	0.296	0.599	0.048
Mof_H 	H 	0.6509	0.3338	0.5899	0.035
Mof_H 	H 	0.6897	0.2844	0.5852	0.018
Mof_C 	C 	0.607	0.26	0.573	-0.072
Mof_H 	H 	0.6036	0.2261	0.5923	0.073
Mof_H 	H 	0.6101	0.2548	0.5323	0.062
Mof_C 	C 	0.514	0.27	0.576	-0.018
Mof_H 	H 	0.5109	0.2642	0.5353	0.046
Mof_H 	H 	0.5153	0.2352	0.5949	0.056
Mof_C 	C 	0.471	0.301	0.598	0.009
Mof_H 	H 	0.4372	0.2883	0.583	0.03
Mof_H 	H 	0.475	0.3383	0.5861	0.048
Mof_C 	C 	0.824	0.355	0.793	0.054
Mof_C 	C 	0.83	0.406	0.808	-0.113
Mof_H 	H 	0.8061	0.4318	0.7948	0.073
Mof_C 	C 	0.874	0.42	0.844	0.045
Mof_H 	H 	0.8774	0.4546	0.8568	0.048
Mof_C 	C 	0.91	0.385	0.86	-0.128
Mof_C 	C 	0.907	0.336	0.842	0.045
Mof_H 	H 	0.9344	0.3132	0.8507	0.043
Mof_C 	C 	0.862	0.315	0.808	-0.114
Mof_H 	H 	0.8586	0.2796	0.7981	0.078
Mof_C 	C 	0.959	0.401	0.894	0.398
Mof_O 	O 	0.122	0.366	0.9	-0.465
Mof_O 	O 	0.138	0.452	0.882	-0.29
Mof_O 	O 	0.47	0.284	0.769	-0.185
Mof_O 	O 	0.553	0.271	0.842	-0.167
Mof_O 	O 	0.654	0.269	0.774	-0.192
Mof_O 	O 	0.651	0.288	0.658	-0.187
Mof_O 	O 	0.56	0.298	0.588	-0.139
Mof_O 	O 	0.472	0.297	0.659	-0.164
Mof_O 	O 	0.166	0.437	0.51	-0.504
Mof_O 	O 	0.116	0.379	0.556	-0.521
Mof_O 	O 	0.96	0.4544	0.535	-0.567
Mof_O 	O 	0.927	0.523	0.578	-0.501
Mof_O 	O 	0.991	0.367	0.908	-0.481
Mof_O 	O 	0.962	0.451	0.9066	-0.42
Mof_C 	C 	0.22	0.339	0.848	0.112
Mof_H 	H 	0.2019	0.3118	0.8681	0.012
Mof_C 	C 	0.268	0.328	0.821	-0.207
Mof_H 	H 	0.2842	0.296	0.8282	0.104
Mof_C 	C 	0.291	0.36	0.787	0.134
Mof_C 	C 	0.273	0.409	0.786	-0.192
Mof_H 	H 	0.2914	0.4357	0.7665	0.101
Mof_C 	C 	0.338	0.344	0.752	0.007
Mof_C 	C 	0.382	0.322	0.776	-0.147
Mof_H 	H 	0.3817	0.3156	0.8149	0.083
Mof_C 	C 	0.425	0.308	0.748	0.128
Mof_C 	C 	0.425	0.315	0.687	0.08
Mof_C 	C 	0.385	0.339	0.659	-0.089
Mof_H 	H 	0.3877	0.3459	0.6203	0.066
Mof_C 	C 	0.338	0.355	0.691	-0.052
Mof_C 	C 	0.291	0.367	0.658	0.189
Mof_C 	C 	0.293	0.408	0.619	-0.297
Mof_H 	H 	0.3229	0.4288	0.6151	0.139
Mof_C 	C 	0.249	0.417	0.587	0.244
Mof_H 	H 	0.251	0.444	0.5594	-0.037
Mof_C 	C 	0.205	0.393	0.59	-0.288
Mof_C 	C 	0.201	0.355	0.629	0.199
Mof_H 	H 	0.1696	0.3362	0.6326	-0.033
Mof_C 	C 	0.244	0.342	0.665	-0.261
Mof_H 	H 	0.239	0.3163	0.6933	0.129
Mof_C 	C 	0.157	0.404	0.55	0.472
Mof_C 	C 	0.691	0.304	0.688	0.102
Mof_C 	C 	0.693	0.295	0.749	0.139
Mof_C 	C 	0.733	0.314	0.778	-0.157
Mof_H 	H 	0.7297	0.3125	0.8172	0.091
Mof_C 	C 	0.781	0.338	0.756	0.02
Mof_C 	C 	0.778	0.349	0.697	-0.035
Mof_C 	C 	0.735	0.333	0.663	-0.101
Mof_H 	H 	0.7348	0.3412	0.6247	0.07
Mof_C 	C 	0.82	0.382	0.67	0.147
Mof_C 	C 	0.817	0.433	0.671	-0.208
Mof_H 	H 	0.7926	0.4494	0.6942	0.107
Mof_C 	C 	0.852	0.465	0.636	0.121
Mof_H 	H 	0.8466	0.5013	0.6336	0.003
Mof_C 	C 	0.894	0.44	0.605	-0.225
Mof_C 	C 	0.897	0.386	0.604	0.119
Mof_H 	H 	0.9191	0.3672	0.5795	-0.042
Mof_C 	C 	0.861	0.359	0.644	-0.192
Mof_H 	H 	0.8683	0.3235	0.6531	0.094
Mof_C 	C 	0.929	0.474	0.571	0.459
Mof_O 	O 	0.065	0.454	0.967	-0.673
Mof_Zn	Zn	0.093	0.4625	0.0485	1.181
Mof_Zn	Zn	0.0582	0.3807	0.9455	1.232
Mof_C 	C 	0.85	0.598	0.88	0.365
Mof_C 	C 	0.802	0.61	0.846	-0.18
Mof_C 	C 	0.776	0.578	0.815	0.121
Mof_H 	H 	0.7902	0.544	0.81	0.002
Mof_C 	C 	0.5342	0.7346	0.8237	0.023
Mof_H 	H 	0.5332	0.7061	0.8516	0.041
Mof_H 	H 	0.5661	0.7557	0.8291	0.016
Mof_C 	C 	0.4812	0.7702	0.8251	0.004
Mof_H 	H 	0.472	0.7843	0.7878	0.058
Mof_H 	H 	0.4832	0.7988	0.8528	-0.001
Mof_C 	C 	0.399	0.751	0.857	0.012
Mof_H 	H 	0.3959	0.749	0.8979	0.028
Mof_H 	H 	0.4008	0.7889	0.8474	0.034
Mof_C 	C 	0.35	0.732	0.834	0.002
Mof_H 	H 	0.3449	0.6965	0.8481	0.042
Mof_H 	H 	0.3219	0.7543	0.849	0.03
Mof_C 	C 	0.345	0.704	0.599	0.048
Mof_H 	H 	0.3491	0.6662	0.5899	0.035
Mof_H 	H 	0.3103	0.7156	0.5852	0.018
Mof_C 	C 	0.393	0.74	0.573	-0.072
Mof_H 	H 	0.3964	0.7739	0.5923	0.073
Mof_H 	H 	0.3899	0.7452	0.5323	0.062
Mof_C 	C 	0.486	0.73	0.576	-0.018
Mof_H 	H 	0.4891	0.7358	0.5353	0.046
Mof_H 	H 	0.4847	0.7648	0.5949	0.056
Mof_C 	C 	0.529	0.699	0.598	0.009
Mof_H 	H 	0.5628	0.7117	0.583	0.031
Mof_H 	H 	0.525	0.6617	0.5861	0.048
Mof_C 	C 	0.176	0.645	0.793	0.058
Mof_C 	C 	0.17	0.594	0.808	-0.121
Mof_H 	H 	0.1939	0.5682	0.7948	0.075
Mof_C 	C 	0.126	0.58	0.844	0.051
Mof_H 	H 	0.1226	0.5454	0.8568	0.044
Mof_C 	C 	0.09	0.615	0.86	-0.141
Mof_C 	C 	0.093	0.664	0.842	0.053
Mof_H 	H 	0.0656	0.6868	0.8507	0.033
Mof_C 	C 	0.138	0.685	0.808	-0.122
Mof_H 	H 	0.1414	0.7204	0.7981	0.08
Mof_C 	C 	0.041	0.599	0.894	0.404
Mof_O 	O 	0.878	0.634	0.9	-0.459
Mof_O 	O 	0.862	0.548	0.882	-0.286
Mof_O 	O 	0.53	0.716	0.769	-0.185
Mof_O 	O 	0.447	0.729	0.842	-0.167
Mof_O 	O 	0.346	0.731	0.774	-0.191
Mof_O 	O 	0.349	0.712	0.658	-0.187
Mof_O 	O 	0.44	0.702	0.588	-0.139
Mof_O 	O 	0.528	0.703	0.659	-0.163
Mof_O 	O 	0.834	0.563	0.51	-0.504
Mof_O 	O 	0.884	0.621	0.556	-0.516
Mof_O 	O 	0.04	0.5456	0.535	-0.589
Mof_O 	O 	0.073	0.477	0.578	-0.511
Mof_O 	O 	0.009	0.633	0.908	-0.51
Mof_O 	O 	0.038	0.549	0.9066	-0.439
Mof_C 	C 	0.78	0.661	0.848	0.111
Mof_H 	H 	0.7981	0.6882	0.8681	0.013
Mof_C 	C 	0.732	0.672	0.821	-0.205
Mof_H 	H 	0.7158	0.704	0.8282	0.103
Mof_C 	C 	0.709	0.64	0.787	0.133
Mof_C 	C 	0.727	0.591	0.786	-0.19
Mof_H 	H 	0.7086	0.5643	0.7665	0.1
Mof_C 	C 	0.662	0.656	0.752	0.007
Mof_C 	C 	0.618	0.678	0.776	-0.148
Mof_H 	H 	0.6183	0.6844	0.8149	0.083
Mof_C 	C 	0.575	0.692	0.748	0.128
Mof_C 	C 	0.575	0.685	0.687	0.08
Mof_C 	C 	0.615	0.661	0.659	-0.089
Mof_H 	H 	0.6123	0.6541	0.6203	0.066
Mof_C 	C 	0.662	0.645	0.691	-0.052
Mof_C 	C 	0.709	0.633	0.658	0.188
Mof_C 	C 	0.707	0.592	0.619	-0.295
Mof_H 	H 	0.6771	0.5712	0.6151	0.139
Mof_C 	C 	0.751	0.583	0.587	0.242
Mof_H 	H 	0.749	0.556	0.5594	-0.036
Mof_C 	C 	0.795	0.607	0.59	-0.285
Mof_C 	C 	0.799	0.645	0.629	0.198
Mof_H 	H 	0.8304	0.6638	0.6326	-0.031
Mof_C 	C 	0.756	0.658	0.665	-0.259
Mof_H 	H 	0.761	0.6837	0.6933	0.128
Mof_C 	C 	0.843	0.596	0.55	0.47
Mof_C 	C 	0.309	0.696	0.688	0.102
Mof_C 	C 	0.307	0.705	0.749	0.138
Mof_C 	C 	0.267	0.686	0.778	-0.156
Mof_H 	H 	0.2703	0.6875	0.8172	0.09
Mof_C 	C 	0.219	0.662	0.756	0.019
Mof_C 	C 	0.222	0.651	0.697	-0.036
Mof_C 	C 	0.265	0.667	0.663	-0.1
Mof_H 	H 	0.2652	0.6588	0.6247	0.07
Mof_C 	C 	0.18	0.618	0.67	0.15
Mof_C 	C 	0.183	0.567	0.671	-0.213
Mof_H 	H 	0.2074	0.5506	0.6942	0.108
Mof_C 	C 	0.148	0.535	0.636	0.124
Mof_H 	H 	0.1534	0.4987	0.6336	0.001
Mof_C 	C 	0.106	0.56	0.605	-0.234
Mof_C 	C 	0.103	0.614	0.604	0.122
Mof_H 	H 	0.0809	0.6328	0.5795	-0.051
Mof_C 	C 	0.139	0.641	0.644	-0.199
Mof_H 	H 	0.1317	0.6765	0.6531	0.092
Mof_C 	C 	0.071	0.526	0.571	0.463
Mof_O 	O 	0.935	0.546	0.967	-0.659
Mof_Zn	Zn	0.907	0.5375	0.0485	1.181
Mof_Zn	Zn	0.9418	0.6193	0.9455	1.24
Mof_C 	C 	0.902	0.65	0.38	0.363
Mof_C 	C 	0.89	0.698	0.346	-0.176
Mof_C 	C 	0.922	0.724	0.315	0.12
Mof_H 	H 	0.956	0.7098	0.31	0.008
Mof_C 	C 	0.7654	0.9658	0.3237	0.048
Mof_H 	H 	0.7939	0.9668	0.3516	0.042
Mof_H 	H 	0.7443	0.9339	0.3291	0.013
Mof_C 	C 	0.7298	0.0188	0.3251	-0.021
Mof_H 	H 	0.7157	0.028	0.2878	0.058
Mof_H 	H 	0.7012	0.0168	0.3528	-0.001
Mof_C 	C 	0.749	0.101	0.357	0.015
Mof_H 	H 	0.751	0.1041	0.3979	0.026
Mof_H 	H 	0.7111	0.0992	0.3474	0.032
Mof_C 	C 	0.768	0.15	0.334	0.001
Mof_H 	H 	0.8035	0.1551	0.3481	0.043
Mof_H 	H 	0.7457	0.1781	0.349	0.031
Mof_C 	C 	0.796	0.155	0.099	0.047
Mof_H 	H 	0.8338	0.1509	0.0899	0.036
Mof_H 	H 	0.7844	0.1897	0.0852	0.018
Mof_C 	C 	0.76	0.107	0.073	-0.073
Mof_H 	H 	0.7261	0.1036	0.0923	0.071
Mof_H 	H 	0.7548	0.1101	0.0323	0.062
Mof_C 	C 	0.77	0.014	0.076	-0.064
Mof_H 	H 	0.7642	0.0109	0.0353	0.054
Mof_H 	H 	0.7352	0.0153	0.0949	0.061
Mof_C 	C 	0.801	0.971	0.098	0.053
Mof_H 	H 	0.7883	0.9372	0.083	0.021
Mof_H 	H 	0.8383	0.975	0.0861	0.044
Mof_C 	C 	0.855	0.324	0.293	0.049
Mof_C 	C 	0.906	0.33	0.308	-0.109
Mof_H 	H 	0.9318	0.3061	0.2948	0.075
Mof_C 	C 	0.92	0.374	0.344	0.042
Mof_H 	H 	0.9546	0.3774	0.3568	0.055
Mof_C 	C 	0.885	0.41	0.36	-0.127
Mof_C 	C 	0.836	0.407	0.342	0.044
Mof_H 	H 	0.8132	0.4344	0.3507	0.04
Mof_C 	C 	0.815	0.362	0.308	-0.112
Mof_H 	H 	0.7796	0.3586	0.2981	0.077
Mof_C 	C 	0.901	0.459	0.394	0.398
Mof_O 	O 	0.866	0.622	0.4	-0.461
Mof_O 	O 	0.952	0.638	0.382	-0.278
Mof_O 	O 	0.784	0.97	0.269	-0.181
Mof_O 	O 	0.771	0.053	0.342	-0.169
Mof_O 	O 	0.769	0.154	0.274	-0.194
Mof_O 	O 	0.788	0.151	0.158	-0.187
Mof_O 	O 	0.798	0.06	0.088	-0.135
Mof_O 	O 	0.797	0.972	0.159	-0.163
Mof_O 	O 	0.937	0.666	0.01	-0.499
Mof_O 	O 	0.879	0.616	0.056	-0.518
Mof_O 	O 	0.9544	0.46	0.035	-0.584
Mof_O 	O 	0.023	0.427	0.078	-0.534
Mof_O 	O 	0.867	0.491	0.408	-0.494
Mof_O 	O 	0.951	0.462	0.4066	-0.42
Mof_C 	C 	0.839	0.72	0.348	0.11
Mof_H 	H 	0.8118	0.7019	0.3681	0.013
Mof_C 	C 	0.828	0.768	0.321	-0.204
Mof_H 	H 	0.796	0.7842	0.3282	0.103
Mof_C 	C 	0.86	0.791	0.287	0.133
Mof_C 	C 	0.909	0.773	0.286	-0.187
Mof_H 	H 	0.9357	0.7914	0.2665	0.105
Mof_C 	C 	0.844	0.838	0.252	0.009
Mof_C 	C 	0.822	0.882	0.276	-0.147
Mof_H 	H 	0.8156	0.8817	0.3149	0.085
Mof_C 	C 	0.808	0.925	0.248	0.131
Mof_C 	C 	0.815	0.925	0.187	0.084
Mof_C 	C 	0.839	0.885	0.159	-0.089
Mof_H 	H 	0.8459	0.8877	0.1203	0.069
Mof_C 	C 	0.855	0.838	0.191	-0.05
Mof_C 	C 	0.867	0.791	0.158	0.188
Mof_C 	C 	0.908	0.793	0.119	-0.294
Mof_H 	H 	0.9288	0.8229	0.1151	0.144
Mof_C 	C 	0.917	0.749	0.087	0.243
Mof_H 	H 	0.944	0.751	0.0594	-0.033
Mof_C 	C 	0.893	0.705	0.09	-0.285
Mof_C 	C 	0.855	0.701	0.129	0.198
Mof_H 	H 	0.8362	0.6696	0.1326	-0.032
Mof_C 	C 	0.842	0.744	0.165	-0.259
Mof_H 	H 	0.8163	0.739	0.1933	0.128
Mof_C 	C 	0.904	0.657	0.05	0.469
Mof_C 	C 	0.804	0.191	0.188	0.097
Mof_C 	C 	0.795	0.193	0.249	0.143
Mof_C 	C 	0.814	0.233	0.278	-0.162
Mof_H 	H 	0.8125	0.2297	0.3172	0.093
Mof_C 	C 	0.838	0.281	0.256	0.029
Mof_C 	C 	0.849	0.278	0.197	-0.054
Mof_C 	C 	0.833	0.235	0.163	-0.09
Mof_H 	H 	0.8412	0.2348	0.1247	0.067
Mof_C 	C 	0.882	0.32	0.17	0.192
Mof_C 	C 	0.933	0.317	0.171	-0.272
Mof_H 	H 	0.9494	0.2926	0.1942	0.135
Mof_C 	C 	0.965	0.352	0.136	0.213
Mof_H 	H 	0.0013	0.3466	0.1336	-0.045
Mof_C 	C 	0.94	0.394	0.105	-0.278
Mof_C 	C 	0.886	0.397	0.104	0.162
Mof_H 	H 	0.8672	0.4191	0.0795	-0.061
Mof_C 	C 	0.859	0.361	0.144	-0.234
Mof_H 	H 	0.8235	0.3683	0.1531	0.106
Mof_C 	C 	0.974	0.429	0.071	0.51
Mof_O 	O 	0.954	0.565	0.467	-0.658
Mof_Zn	Zn	0.9625	0.593	0.5485	1.186
Mof_Zn	Zn	0.8807	0.5582	0.4455	1.236
Mof_C 	C 	0.098	0.35	0.38	0.367
Mof_C 	C 	0.11	0.302	0.346	-0.186
Mof_C 	C 	0.078	0.276	0.315	0.125
Mof_H 	H 	0.044	0.2902	0.31	-0.006
Mof_C 	C 	0.2346	0.0342	0.3237	-0.004
Mof_H 	H 	0.2061	0.0332	0.3516	0.041
Mof_H 	H 	0.2557	0.0661	0.3291	0.021
Mof_C 	C 	0.2702	0.9812	0.3251	0.031
Mof_H 	H 	0.2843	0.972	0.2878	0.056
Mof_H 	H 	0.2988	0.9832	0.3528	-0.003
Mof_C 	C 	0.251	0.899	0.357	0.011
Mof_H 	H 	0.249	0.8959	0.3979	0.03
Mof_H 	H 	0.2889	0.9008	0.3474	0.035
Mof_C 	C 	0.232	0.85	0.334	0.003
Mof_H 	H 	0.1965	0.8449	0.3481	0.042
Mof_H 	H 	0.2543	0.8219	0.349	0.03
Mof_C 	C 	0.204	0.845	0.099	0.05
Mof_H 	H 	0.1662	0.8491	0.0899	0.035
Mof_H 	H 	0.2156	0.8103	0.0852	0.017
Mof_C 	C 	0.24	0.893	0.073	-0.071
Mof_H 	H 	0.2739	0.8964	0.0923	0.074
Mof_H 	H 	0.2452	0.8899	0.0323	0.063
Mof_C 	C 	0.23	0.986	0.076	0.027
Mof_H 	H 	0.2358	0.9891	0.0353	0.039
Mof_H 	H 	0.2648	0.9847	0.0949	0.052
Mof_C 	C 	0.199	0.029	0.098	-0.036
Mof_H 	H 	0.2117	0.0628	0.083	0.04
Mof_H 	H 	0.1617	0.025	0.0861	0.051
Mof_C 	C 	0.145	0.676	0.293	0.063
Mof_C 	C 	0.094	0.67	0.308	-0.125
Mof_H 	H 	0.0682	0.6939	0.2948	0.073
Mof_C 	C 	0.08	0.626	0.344	0.054
Mof_H 	H 	0.0454	0.6226	0.3568	0.037
Mof_C 	C 	0.115	0.59	0.36	-0.142
Mof_C 	C 	0.164	0.593	0.342	0.054
Mof_H 	H 	0.1868	0.5656	0.3507	0.036
Mof_C 	C 	0.185	0.638	0.308	-0.123
Mof_H 	H 	0.2204	0.6414	0.2981	0.081
Mof_C 	C 	0.099	0.541	0.394	0.404
Mof_O 	O 	0.134	0.378	0.4	-0.464
Mof_O 	O 	0.048	0.362	0.382	-0.298
Mof_O 	O 	0.216	0.03	0.269	-0.189
Mof_O 	O 	0.229	0.947	0.342	-0.164
Mof_O 	O 	0.231	0.846	0.274	-0.189
Mof_O 	O 	0.212	0.849	0.158	-0.187
Mof_O 	O 	0.202	0.94	0.088	-0.142
Mof_O 	O 	0.203	0.028	0.159	-0.164
Mof_O 	O 	0.063	0.334	0.01	-0.509
Mof_O 	O 	0.121	0.384	0.056	-0.519
Mof_O 	O 	0.0456	0.54	0.035	-0.571
Mof_O 	O 	0.977	0.573	0.078	-0.478
Mof_O 	O 	0.133	0.509	0.408	-0.498
Mof_O 	O 	0.049	0.538	0.4066	-0.439
Mof_C 	C 	0.161	0.28	0.348	0.113
Mof_H 	H 	0.1882	0.2981	0.3681	0.011
Mof_C 	C 	0.172	0.232	0.321	-0.209
Mof_H 	H 	0.204	0.2158	0.3282	0.104
Mof_C 	C 	0.14	0.209	0.287	0.134
Mof_C 	C 	0.091	0.227	0.286	-0.195
Mof_H 	H 	0.0643	0.2086	0.2665	0.096
Mof_C 	C 	0.156	0.162	0.252	0.005
Mof_C 	C 	0.178	0.118	0.276	-0.148
Mof_H 	H 	0.1844	0.1183	0.3149	0.081
Mof_C 	C 	0.192	0.075	0.248	0.126
Mof_C 	C 	0.185	0.075	0.187	0.076
Mof_C 	C 	0.161	0.115	0.159	-0.089
Mof_H 	H 	0.1541	0.1123	0.1203	0.063
Mof_C 	C 	0.145	0.162	0.191	-0.054
Mof_C 	C 	0.133	0.209	0.158	0.188
Mof_C 	C 	0.092	0.207	0.119	-0.298
Mof_H 	H 	0.0712	0.1771	0.1151	0.134
Mof_C 	C 	0.083	0.251	0.087	0.243
Mof_H 	H 	0.056	0.249	0.0594	-0.041
Mof_C 	C 	0.107	0.295	0.09	-0.288
Mof_C 	C 	0.145	0.299	0.129	0.199
Mof_H 	H 	0.1638	0.3304	0.1326	-0.033
Mof_C 	C 	0.158	0.256	0.165	-0.261
Mof_H 	H 	0.1837	0.261	0.1933	0.129
Mof_C 	C 	0.096	0.343	0.05	0.473
Mof_C 	C 	0.196	0.809	0.188	0.106
Mof_C 	C 	0.205	0.807	0.249	0.134
Mof_C 	C 	0.186	0.767	0.278	-0.15
Mof_H 	H 	0.1875	0.7703	0.3172	0.088
Mof_C 	C 	0.162	0.719	0.256	0.01
Mof_C 	C 	0.151	0.722	0.197	-0.018
Mof_C 	C 	0.167	0.765	0.163	-0.112
Mof_H 	H 	0.1588	0.7652	0.1247	0.073
Mof_C 	C 	0.118	0.68	0.17	0.104
Mof_C 	C 	0.067	0.683	0.171	-0.15
Mof_H 	H 	0.0506	0.7074	0.1942	0.08
Mof_C 	C 	0.035	0.648	0.136	0.032
Mof_H 	H 	0.9987	0.6534	0.1336	0.049
Mof_C 	C 	0.06	0.606	0.105	-0.181
Mof_C 	C 	0.114	0.603	0.104	0.079
Mof_H 	H 	0.1328	0.5809	0.0795	-0.032
Mof_C 	C 	0.141	0.639	0.144	-0.157
Mof_H 	H 	0.1765	0.6317	0.1531	0.08
Mof_C 	C 	0.026	0.571	0.071	0.412
Mof_O 	O 	0.046	0.435	0.467	-0.675
Mof_Zn	Zn	0.0375	0.407	0.5485	1.177
Mof_Zn	Zn	0.1193	0.4418	0.4455	1.236
Mof_Zn	Zn	-1.0287e-32	0.5	0.9675	1.224
Mof_Zn	Zn	-5.20029e-33	0.5	0.4675	1.224
_end
