data_functionalizedCrystal
_audit_creation_method	'EQeq! by Chris Wilmer'
_symmetry_space_group_name_H-M	'P1'
_symmetry_Int_Tables_number	1
_symmetry_cell_setting	triclinic
loop_
_symmetry_equiv_pos_as_xyz
  x,y,z
_cell_length_a	13.745
_cell_length_b	22.346
_cell_length_c	22.592
_cell_angle_alpha	90
_cell_angle_beta	90
_cell_angle_gamma	90
loop_
_atom_site_label
_atom_site_type_symbol
_atom_site_fract_x
_atom_site_fract_y
_atom_site_fract_z
_atom_site_charge
Mof_Mn	Mn	0.82973	0.99513	0.17733	1.037
Mof_Mn	Mn	0.7182	0.12232	0.17888	1.12
Mof_Mn	Mn	0.63109	0.00993	0.11174	0.843
Mof_O 	O 	0.7104	0.0382	0.1881	-0.751
Mof_O 	O 	0.9508	0.9566	0.1682	-0.475
Mof_O 	O 	0.7728	0.9699	0.1065	-0.481
Mof_O 	O 	0.7262	0.2064	0.1743	-0.48
Mof_O 	O 	0.6469	0.1093	0.1096	-0.472
Mof_O 	O 	0.5446	0.988	0.1887	-0.478
Mof_N 	N 	0.8765	0.0928	0.1487	-0.234
Mof_N 	N 	0.9228	0.1088	0.1076	-0.046
Mof_N 	N 	0.9716	0.1236	0.0675	-0.072
Mof_N 	N 	0.5522	0.9907	0.0357	-0.166
Mof_C 	C 	0.1227	0.1682	0.2715	-0.076
Mof_C 	C 	0.9897	0.9293	0.1147	0.158
Mof_C 	C 	0.9264	0.9427	0.0647	-0.077
Mof_C 	C 	0.8134	0.9325	0.0599	0.147
Mof_C 	C 	0.0821	0.9441	0.1032	-0.054
Mof_C 	C 	0.771	0.9414	0.0066	-0.056
Mof_C 	C 	0.6882	0.2416	0.1241	0.205
Mof_C 	C 	0.6744	0.2066	0.0775	-0.167
Mof_C 	C 	0.621	0.1585	0.0713	0.215
Mof_C 	C 	0.7126	0.2985	0.1337	-0.077
Mof_C 	C 	0.5675	0.1406	0.0245	-0.074
Mof_C 	C 	0.4549	0.9528	0.1938	0.131
Mof_C 	C 	0.3963	0.9639	0.1486	-0.046
Mof_Mn	Mn	0.17027	0.00487	0.67733	1.036
Mof_Mn	Mn	0.2818	0.87768	0.67888	1.119
Mof_Mn	Mn	0.36891	0.99007	0.61174	0.842
Mof_O 	O 	0.2896	0.9618	0.6881	-0.752
Mof_O 	O 	0.0492	0.0434	0.6682	-0.476
Mof_O 	O 	0.2272	0.0301	0.6065	-0.482
Mof_O 	O 	0.2738	0.7936	0.6743	-0.481
Mof_O 	O 	0.3531	0.8907	0.6096	-0.473
Mof_O 	O 	0.4554	0.012	0.6887	-0.479
Mof_N 	N 	0.1235	0.9072	0.6487	-0.235
Mof_N 	N 	0.0772	0.8912	0.6076	-0.047
Mof_N 	N 	0.0284	0.8764	0.5675	-0.073
Mof_N 	N 	0.4478	0.0093	0.5357	-0.166
Mof_C 	C 	0.8773	0.8318	0.7715	-0.076
Mof_C 	C 	0.0103	0.0707	0.6147	0.158
Mof_C 	C 	0.0736	0.0573	0.5647	-0.077
Mof_C 	C 	0.1866	0.0675	0.5599	0.147
Mof_C 	C 	0.9179	0.0559	0.6032	-0.054
Mof_C 	C 	0.229	0.0586	0.5066	-0.056
Mof_C 	C 	0.3118	0.7584	0.6241	0.205
Mof_C 	C 	0.3256	0.7934	0.5775	-0.167
Mof_C 	C 	0.379	0.8415	0.5713	0.215
Mof_C 	C 	0.2874	0.7015	0.6337	-0.077
Mof_C 	C 	0.4325	0.8594	0.5245	-0.073
Mof_C 	C 	0.5451	0.0472	0.6938	0.131
Mof_C 	C 	0.6037	0.0361	0.6486	-0.046
Mof_Mn	Mn	0.17027	0.49513	0.32267	1.034
Mof_Mn	Mn	0.2818	0.62232	0.32112	1.119
Mof_Mn	Mn	0.36891	0.50993	0.38826	0.842
Mof_O 	O 	0.2896	0.5382	0.3119	-0.752
Mof_O 	O 	0.0492	0.4566	0.3318	-0.476
Mof_O 	O 	0.2272	0.4699	0.3935	-0.482
Mof_O 	O 	0.2738	0.7064	0.3257	-0.481
Mof_O 	O 	0.3531	0.6093	0.3904	-0.473
Mof_O 	O 	0.4554	0.488	0.3113	-0.479
Mof_N 	N 	0.1235	0.5928	0.3513	-0.235
Mof_N 	N 	0.0772	0.6088	0.3924	-0.047
Mof_N 	N 	0.0284	0.6236	0.4325	-0.073
Mof_N 	N 	0.4478	0.4907	0.4643	-0.167
Mof_C 	C 	0.8773	0.6682	0.2285	-0.076
Mof_C 	C 	0.0103	0.4293	0.3853	0.158
Mof_C 	C 	0.0736	0.4427	0.4353	-0.078
Mof_C 	C 	0.1866	0.4325	0.4401	0.148
Mof_C 	C 	0.9179	0.4441	0.3968	-0.053
Mof_C 	C 	0.229	0.4414	0.4934	-0.057
Mof_C 	C 	0.3118	0.7416	0.3759	0.205
Mof_C 	C 	0.3256	0.7066	0.4225	-0.167
Mof_C 	C 	0.379	0.6585	0.4287	0.215
Mof_C 	C 	0.2874	0.7985	0.3663	-0.077
Mof_C 	C 	0.4325	0.6406	0.4755	-0.073
Mof_C 	C 	0.5451	0.4528	0.3062	0.132
Mof_C 	C 	0.6037	0.4639	0.3514	-0.047
Mof_Mn	Mn	0.82973	0.50487	0.82267	1.034
Mof_Mn	Mn	0.7182	0.37768	0.82112	1.119
Mof_Mn	Mn	0.63109	0.49007	0.88826	0.842
Mof_O 	O 	0.7104	0.4618	0.8119	-0.752
Mof_O 	O 	0.9508	0.5434	0.8318	-0.476
Mof_O 	O 	0.7728	0.5301	0.8935	-0.482
Mof_O 	O 	0.7262	0.2936	0.8257	-0.481
Mof_O 	O 	0.6469	0.3907	0.8904	-0.473
Mof_O 	O 	0.5446	0.512	0.8113	-0.479
Mof_N 	N 	0.8765	0.4072	0.8513	-0.235
Mof_N 	N 	0.9228	0.3912	0.8924	-0.047
Mof_N 	N 	0.9716	0.3764	0.9325	-0.073
Mof_N 	N 	0.5522	0.5093	0.9643	-0.167
Mof_C 	C 	0.1227	0.3318	0.7285	-0.076
Mof_C 	C 	0.9897	0.5707	0.8853	0.158
Mof_C 	C 	0.9264	0.5573	0.9353	-0.078
Mof_C 	C 	0.8134	0.5675	0.9401	0.148
Mof_C 	C 	0.0821	0.5559	0.8968	-0.054
Mof_C 	C 	0.771	0.5586	0.9934	-0.058
Mof_C 	C 	0.6882	0.2584	0.8759	0.205
Mof_C 	C 	0.6744	0.2934	0.9225	-0.167
Mof_C 	C 	0.621	0.3415	0.9287	0.215
Mof_C 	C 	0.7126	0.2015	0.8663	-0.077
Mof_C 	C 	0.5675	0.3594	0.9755	-0.074
Mof_C 	C 	0.4549	0.5472	0.8062	0.132
Mof_C 	C 	0.3963	0.5361	0.8514	-0.047
Mof_Mn	Mn	0.17027	0.00487	0.82267	1.037
Mof_Mn	Mn	0.2818	0.87768	0.82112	1.119
Mof_Mn	Mn	0.36891	0.99007	0.88826	0.842
Mof_O 	O 	0.2896	0.9618	0.8119	-0.752
Mof_O 	O 	0.0492	0.0434	0.8318	-0.476
Mof_O 	O 	0.2272	0.0301	0.8935	-0.482
Mof_O 	O 	0.2738	0.7936	0.8257	-0.481
Mof_O 	O 	0.3531	0.8907	0.8904	-0.473
Mof_O 	O 	0.4554	0.012	0.8113	-0.478
Mof_N 	N 	0.1235	0.9072	0.8513	-0.235
Mof_N 	N 	0.0772	0.8912	0.8924	-0.047
Mof_N 	N 	0.0284	0.8764	0.9325	-0.073
Mof_N 	N 	0.4478	0.0093	0.9643	-0.166
Mof_C 	C 	0.8773	0.8318	0.7285	-0.076
Mof_C 	C 	0.0103	0.0707	0.8853	0.158
Mof_C 	C 	0.0736	0.0573	0.9353	-0.077
Mof_C 	C 	0.1866	0.0675	0.9401	0.147
Mof_C 	C 	0.9179	0.0559	0.8968	-0.054
Mof_C 	C 	0.229	0.0586	0.9934	-0.057
Mof_C 	C 	0.3118	0.7584	0.8759	0.205
Mof_C 	C 	0.3256	0.7934	0.9225	-0.167
Mof_C 	C 	0.379	0.8415	0.9287	0.215
Mof_C 	C 	0.2874	0.7015	0.8663	-0.077
Mof_C 	C 	0.4325	0.8594	0.9755	-0.074
Mof_C 	C 	0.5451	0.0472	0.8062	0.131
Mof_C 	C 	0.6037	0.0361	0.8514	-0.046
Mof_Mn	Mn	0.82973	0.99513	0.32267	1.036
Mof_Mn	Mn	0.7182	0.12232	0.32112	1.119
Mof_Mn	Mn	0.63109	0.00993	0.38826	0.843
Mof_O 	O 	0.7104	0.0382	0.3119	-0.752
Mof_O 	O 	0.9508	0.9566	0.3318	-0.476
Mof_O 	O 	0.7728	0.9699	0.3935	-0.482
Mof_O 	O 	0.7262	0.2064	0.3257	-0.481
Mof_O 	O 	0.6469	0.1093	0.3904	-0.473
Mof_O 	O 	0.5446	0.988	0.3113	-0.479
Mof_N 	N 	0.8765	0.0928	0.3513	-0.235
Mof_N 	N 	0.9228	0.1088	0.3924	-0.047
Mof_N 	N 	0.9716	0.1236	0.4325	-0.073
Mof_N 	N 	0.5522	0.9907	0.4643	-0.167
Mof_C 	C 	0.1227	0.1682	0.2285	-0.076
Mof_C 	C 	0.9897	0.9293	0.3853	0.158
Mof_C 	C 	0.9264	0.9427	0.4353	-0.077
Mof_C 	C 	0.8134	0.9325	0.4401	0.147
Mof_C 	C 	0.0821	0.9441	0.3968	-0.054
Mof_C 	C 	0.771	0.9414	0.4934	-0.056
Mof_C 	C 	0.6882	0.2416	0.3759	0.205
Mof_C 	C 	0.6744	0.2066	0.4225	-0.167
Mof_C 	C 	0.621	0.1585	0.4287	0.215
Mof_C 	C 	0.7126	0.2985	0.3663	-0.077
Mof_C 	C 	0.5675	0.1406	0.4755	-0.073
Mof_C 	C 	0.4549	0.9528	0.3062	0.132
Mof_C 	C 	0.3963	0.9639	0.3514	-0.047
Mof_Mn	Mn	0.82973	0.50487	0.67733	1.034
Mof_Mn	Mn	0.7182	0.37768	0.67888	1.119
Mof_Mn	Mn	0.63109	0.49007	0.61174	0.842
Mof_O 	O 	0.7104	0.4618	0.6881	-0.752
Mof_O 	O 	0.9508	0.5434	0.6682	-0.476
Mof_O 	O 	0.7728	0.5301	0.6065	-0.482
Mof_O 	O 	0.7262	0.2936	0.6743	-0.481
Mof_O 	O 	0.6469	0.3907	0.6096	-0.473
Mof_O 	O 	0.5446	0.512	0.6887	-0.479
Mof_N 	N 	0.8765	0.4072	0.6487	-0.235
Mof_N 	N 	0.9228	0.3912	0.6076	-0.047
Mof_N 	N 	0.9716	0.3764	0.5675	-0.073
Mof_N 	N 	0.5522	0.5093	0.5357	-0.167
Mof_C 	C 	0.1227	0.3318	0.7715	-0.076
Mof_C 	C 	0.9897	0.5707	0.6147	0.158
Mof_C 	C 	0.9264	0.5573	0.5647	-0.078
Mof_C 	C 	0.8134	0.5675	0.5599	0.148
Mof_C 	C 	0.0821	0.5559	0.6032	-0.053
Mof_C 	C 	0.771	0.5586	0.5066	-0.057
Mof_C 	C 	0.6882	0.2584	0.6241	0.205
Mof_C 	C 	0.6744	0.2934	0.5775	-0.167
Mof_C 	C 	0.621	0.3415	0.5713	0.215
Mof_C 	C 	0.7126	0.2015	0.6337	-0.077
Mof_C 	C 	0.5675	0.3594	0.5245	-0.073
Mof_C 	C 	0.4549	0.5472	0.6938	0.132
Mof_C 	C 	0.3963	0.5361	0.6486	-0.047
Mof_Mn	Mn	0.17027	0.49513	0.17733	1.034
Mof_Mn	Mn	0.2818	0.62232	0.17888	1.119
Mof_Mn	Mn	0.36891	0.50993	0.11174	0.842
Mof_O 	O 	0.2896	0.5382	0.1881	-0.752
Mof_O 	O 	0.0492	0.4566	0.1682	-0.476
Mof_O 	O 	0.2272	0.4699	0.1065	-0.482
Mof_O 	O 	0.2738	0.7064	0.1743	-0.481
Mof_O 	O 	0.3531	0.6093	0.1096	-0.473
Mof_O 	O 	0.4554	0.488	0.1887	-0.479
Mof_N 	N 	0.1235	0.5928	0.1487	-0.235
Mof_N 	N 	0.0772	0.6088	0.1076	-0.047
Mof_N 	N 	0.0284	0.6236	0.0675	-0.073
Mof_N 	N 	0.4478	0.4907	0.0357	-0.167
Mof_C 	C 	0.8773	0.6682	0.2715	-0.076
Mof_C 	C 	0.0103	0.4293	0.1147	0.158
Mof_C 	C 	0.0736	0.4427	0.0647	-0.078
Mof_C 	C 	0.1866	0.4325	0.0599	0.148
Mof_C 	C 	0.9179	0.4441	0.1032	-0.054
Mof_C 	C 	0.229	0.4414	0.0066	-0.057
Mof_C 	C 	0.3118	0.7416	0.1241	0.205
Mof_C 	C 	0.3256	0.7066	0.0775	-0.167
Mof_C 	C 	0.379	0.6585	0.0713	0.215
Mof_C 	C 	0.2874	0.7985	0.1337	-0.077
Mof_C 	C 	0.4325	0.6406	0.0245	-0.073
Mof_C 	C 	0.5451	0.4528	0.1938	0.132
Mof_C 	C 	0.6037	0.4639	0.1486	-0.047
Mof_Mn	Mn	0.92142	0.1054	0.25	1.115
Mof_Mn	Mn	0.62591	0.01044	0.25	1.043
Mof_Mn	Mn	0.0223	0.97947	0.25	0.86
Mof_Mn	Mn	0.81261	0.22937	0.25	0.873
Mof_O 	O 	0.8847	0.0231	0.25	-0.754
Mof_O 	O 	0.7916	0.1347	0.25	-0.751
Mof_O 	O 	0.0488	0.0735	0.25	-0.47
Mof_O 	O 	0.955	0.1873	0.25	-0.499
Mof_N 	N 	0.5893	0.1142	0.25	-0.231
Mof_N 	N 	0.5144	0.1342	0.25	-0.046
Mof_N 	N 	0.427	0.1514	0.25	-0.079
Mof_N 	N 	0.1413	0.9221	0.25	-0.162
Mof_N 	N 	0.1609	0.8731	0.25	-0.023
Mof_N 	N 	0.8107	0.3227	0.25	-0.164
Mof_C 	C 	0.1435	0.1085	0.25	0.19
Mof_C 	C 	0.0473	0.2103	0.25	0.232
Mof_C 	C 	0.2137	0.0735	0.25	-0.074
Mof_C 	C 	0.0514	0.2707	0.25	-0.12
Mof_C 	C 	0.4097	0.9774	0.25	-0.058
Mof_Mn	Mn	0.07858	0.8946	0.75	1.115
Mof_Mn	Mn	0.37409	0.98956	0.75	1.043
Mof_Mn	Mn	0.9777	0.02053	0.75	0.86
Mof_Mn	Mn	0.18739	0.77063	0.75	0.873
Mof_O 	O 	0.1153	0.9769	0.75	-0.754
Mof_O 	O 	0.2084	0.8653	0.75	-0.751
Mof_O 	O 	0.9512	0.9265	0.75	-0.47
Mof_O 	O 	0.045	0.8127	0.75	-0.499
Mof_N 	N 	0.4107	0.8858	0.75	-0.231
Mof_N 	N 	0.4856	0.8658	0.75	-0.046
Mof_N 	N 	0.573	0.8486	0.75	-0.079
Mof_N 	N 	0.8587	0.0779	0.75	-0.162
Mof_N 	N 	0.8391	0.1269	0.75	-0.023
Mof_N 	N 	0.1893	0.6773	0.75	-0.164
Mof_C 	C 	0.8565	0.8915	0.75	0.19
Mof_C 	C 	0.9527	0.7897	0.75	0.232
Mof_C 	C 	0.7863	0.9265	0.75	-0.074
Mof_C 	C 	0.9486	0.7293	0.75	-0.12
Mof_C 	C 	0.5903	0.0226	0.75	-0.058
Mof_Mn	Mn	0.07858	0.6054	0.25	1.115
Mof_Mn	Mn	0.37409	0.51044	0.25	1.043
Mof_Mn	Mn	0.9777	0.47947	0.25	0.861
Mof_Mn	Mn	0.18739	0.72937	0.25	0.872
Mof_O 	O 	0.1153	0.5231	0.25	-0.753
Mof_O 	O 	0.2084	0.6347	0.25	-0.751
Mof_O 	O 	0.9512	0.5735	0.25	-0.471
Mof_O 	O 	0.045	0.6873	0.25	-0.499
Mof_N 	N 	0.4107	0.6142	0.25	-0.231
Mof_N 	N 	0.4856	0.6342	0.25	-0.046
Mof_N 	N 	0.573	0.6514	0.25	-0.079
Mof_N 	N 	0.8587	0.4221	0.25	-0.162
Mof_N 	N 	0.8391	0.3731	0.25	-0.023
Mof_N 	N 	0.1893	0.8227	0.25	-0.164
Mof_C 	C 	0.8565	0.6085	0.25	0.19
Mof_C 	C 	0.9527	0.7103	0.25	0.232
Mof_C 	C 	0.7863	0.5735	0.25	-0.075
Mof_C 	C 	0.9486	0.7707	0.25	-0.12
Mof_C 	C 	0.5903	0.4774	0.25	-0.058
Mof_Mn	Mn	0.92142	0.3946	0.75	1.115
Mof_Mn	Mn	0.62591	0.48956	0.75	1.043
Mof_Mn	Mn	0.0223	0.52053	0.75	0.861
Mof_Mn	Mn	0.81261	0.27063	0.75	0.872
Mof_O 	O 	0.8847	0.4769	0.75	-0.753
Mof_O 	O 	0.7916	0.3653	0.75	-0.751
Mof_O 	O 	0.0488	0.4265	0.75	-0.471
Mof_O 	O 	0.955	0.3127	0.75	-0.499
Mof_N 	N 	0.5893	0.3858	0.75	-0.231
Mof_N 	N 	0.5144	0.3658	0.75	-0.046
Mof_N 	N 	0.427	0.3486	0.75	-0.079
Mof_N 	N 	0.1413	0.5779	0.75	-0.162
Mof_N 	N 	0.1609	0.6269	0.75	-0.023
Mof_N 	N 	0.8107	0.1773	0.75	-0.164
Mof_C 	C 	0.1435	0.3915	0.75	0.19
Mof_C 	C 	0.0473	0.2897	0.75	0.232
Mof_C 	C 	0.2137	0.4265	0.75	-0.075
Mof_C 	C 	0.0514	0.2293	0.75	-0.12
Mof_C 	C 	0.4097	0.5226	0.75	-0.058
Mof_N 	N 	0.5	0	-0	-0.007
Mof_N 	N 	0.5	0	0.5	-0.006
Mof_N 	N 	0.5	0.5	0.5	-0.006
Mof_N 	N 	0.5	0.5	-0	-0.006
_end
