# CIF file generated by openbabel 3.1.0, see https://openbabel.org
data_I
_chemical_name_common 'LAGNOY_clean'
_cell_length_a 10.7471
_cell_length_b 10.7471
_cell_length_c 18.761
_cell_angle_alpha 73.8124
_cell_angle_beta 73.8124
_cell_angle_gamma 64.5024
_space_group_name_H-M_alt 'P 1'
_space_group_name_Hall 'P 1'
loop_
    _symmetry_equiv_pos_as_xyz
    x,y,z
loop_
    _atom_site_label
    _atom_site_type_symbol
    _atom_site_fract_x
    _atom_site_fract_y
    _atom_site_fract_z
    _atom_site_occupancy
    Y1       Y        0.56503    0.43719    0.39565    1.000
    Y2       Y        0.56281    0.43497    0.10435    1.000
    Y3       Y        0.43497    0.56281    0.60435    1.000
    Y4       Y        0.43719    0.56503    0.89565    1.000
    H1       H        0.20180    0.45660    0.40930    1.000
    H2       H        0.89760    0.51060    0.26990    1.000
    H3       H        0.98970    0.56770    0.60900    1.000
    H4       H        0.79980    0.61640    0.06470    1.000
    H5       H        0.01710    0.62350    0.01130    1.000
    H6       H        0.11630    0.51490    0.21610    1.000
    H7       H        0.54340    0.79820    0.09070    1.000
    H8       H        0.48940    0.10240    0.23010    1.000
    H9       H        0.43230    0.01030    0.89100    1.000
    H10      H        0.38360    0.20020    0.43530    1.000
    H11      H        0.37650    0.98290    0.48870    1.000
    H12      H        0.48510    0.88370    0.28390    1.000
    H13      H        0.79820    0.54340    0.59070    1.000
    H14      H        0.10240    0.48940    0.73010    1.000
    H15      H        0.01030    0.43230    0.39100    1.000
    H16      H        0.20020    0.38360    0.93530    1.000
    H17      H        0.98290    0.37650    0.98870    1.000
    H18      H        0.88370    0.48510    0.78390    1.000
    H19      H        0.45660    0.20180    0.90930    1.000
    H20      H        0.51060    0.89760    0.76990    1.000
    H21      H        0.56770    0.98970    0.10900    1.000
    H22      H        0.61640    0.79980    0.56470    1.000
    H23      H        0.62350    0.01710    0.51130    1.000
    H24      H        0.51490    0.11630    0.71610    1.000
    C1       C        0.68910    0.54330    0.20690    1.000
    C2       C        0.11580    0.51480    0.51120    1.000
    C3       C        0.09120    0.56580    0.10700    1.000
    C4       C        0.23840    0.55400    0.07110    1.000
    C5       C        0.82720    0.55960    0.17280    1.000
    C6       C        0.24060    0.52900    0.52330    1.000
    C7       C        0.12060    0.47420    0.44590    1.000
    C8       C        0.92230    0.53150    0.21770    1.000
    C9       C        0.99430    0.54050    0.56510    1.000
    C10      C        0.86380    0.59500    0.09530    1.000
    C11      C        0.99420    0.59840    0.06340    1.000
    C12      C        0.05290    0.53410    0.18550    1.000
    C13      C        0.45670    0.31090    0.29310    1.000
    C14      C        0.48520    0.88420    0.98880    1.000
    C15      C        0.43420    0.90880    0.39300    1.000
    C16      C        0.44600    0.76160    0.42890    1.000
    C17      C        0.44040    0.17280    0.32720    1.000
    C18      C        0.47100    0.75940    0.97670    1.000
    C19      C        0.52580    0.87940    0.05410    1.000
    C20      C        0.46850    0.07770    0.28230    1.000
    C21      C        0.45950    0.00570    0.93490    1.000
    C22      C        0.40500    0.13620    0.40470    1.000
    C23      C        0.40160    0.00580    0.43660    1.000
    C24      C        0.46590    0.94710    0.31450    1.000
    C25      C        0.31090    0.45670    0.79310    1.000
    C26      C        0.88420    0.48520    0.48880    1.000
    C27      C        0.90880    0.43420    0.89300    1.000
    C28      C        0.76160    0.44600    0.92890    1.000
    C29      C        0.17280    0.44040    0.82720    1.000
    C30      C        0.75940    0.47100    0.47670    1.000
    C31      C        0.87940    0.52580    0.55410    1.000
    C32      C        0.07770    0.46850    0.78230    1.000
    C33      C        0.00570    0.45950    0.43490    1.000
    C34      C        0.13620    0.40500    0.90470    1.000
    C35      C        0.00580    0.40160    0.93660    1.000
    C36      C        0.94710    0.46590    0.81450    1.000
    C37      C        0.54330    0.68910    0.70690    1.000
    C38      C        0.51480    0.11580    0.01120    1.000
    C39      C        0.56580    0.09120    0.60700    1.000
    C40      C        0.55400    0.23840    0.57110    1.000
    C41      C        0.55960    0.82720    0.67280    1.000
    C42      C        0.52900    0.24060    0.02330    1.000
    C43      C        0.47420    0.12060    0.94590    1.000
    C44      C        0.53150    0.92230    0.71770    1.000
    C45      C        0.54050    0.99430    0.06510    1.000
    C46      C        0.59500    0.86380    0.59530    1.000
    C47      C        0.59840    0.99420    0.56340    1.000
    C48      C        0.53410    0.05290    0.68550    1.000
    O1       O        0.66050    0.51510    0.27707    1.000
    O2       O        0.61190    0.55970    0.16298    1.000
    O3       O        0.35190    0.49670    0.47600    1.000
    O4       O        0.32660    0.50860    0.11270    1.000
    O5       O        0.22850    0.57190    0.58140    1.000
    O6       O        0.26110    0.59130    0.00068    1.000
    O7       O        0.48490    0.33950    0.22293    1.000
    O8       O        0.44030    0.38810    0.33702    1.000
    O9       O        0.50330    0.64810    0.02400    1.000
    O10      O        0.49140    0.67340    0.38730    1.000
    O11      O        0.42810    0.77150    0.91860    1.000
    O12      O        0.40870    0.73890    0.49932    1.000
    O13      O        0.33950    0.48490    0.72293    1.000
    O14      O        0.38810    0.44030    0.83702    1.000
    O15      O        0.64810    0.50330    0.52400    1.000
    O16      O        0.67340    0.49140    0.88730    1.000
    O17      O        0.77150    0.42810    0.41860    1.000
    O18      O        0.73890    0.40870    0.99932    1.000
    O19      O        0.51510    0.66050    0.77707    1.000
    O20      O        0.55970    0.61190    0.66298    1.000
    O21      O        0.49670    0.35190    0.97600    1.000
    O22      O        0.50860    0.32660    0.61270    1.000
    O23      O        0.57190    0.22850    0.08140    1.000
    O24      O        0.59130    0.26110    0.50068    1.000
