data_functionalizedCrystal
_audit_creation_method	'EQeq! by Chris Wilmer'
_symmetry_space_group_name_H-M	'P1'
_symmetry_Int_Tables_number	1
_symmetry_cell_setting	triclinic
loop_
_symmetry_equiv_pos_as_xyz
  x,y,z
_cell_length_a	10.2072
_cell_length_b	11.7561
_cell_length_c	14.9614
_cell_angle_alpha	91.8639
_cell_angle_beta	90
_cell_angle_gamma	90
loop_
_atom_site_label
_atom_site_type_symbol
_atom_site_fract_x
_atom_site_fract_y
_atom_site_fract_z
_atom_site_charge
Mof_Mn	Mn	0.91931	0.75679	0.13165	1.116
Mof_Mn	Mn	0.10688	0.73916	0.31282	0.986
Mof_Mn	Mn	0.41931	0.74321	0.36835	1.021
Mof_Mn	Mn	0.60688	0.76084	0.18718	1.03
Mof_Mn	Mn	0.08069	0.24321	0.86835	0.909
Mof_Mn	Mn	0.89312	0.26084	0.68718	1.061
Mof_Mn	Mn	0.58069	0.25679	0.63165	1.002
Mof_Mn	Mn	0.39312	0.23916	0.81282	1.015
Mof_Mn	Mn	-7.03409e-33	0.5	-0	0.823
Mof_Mn	Mn	0.5	0	0.5	0.964
Mof_Mn	Mn	-0	0	-0	0.758
Mof_Mn	Mn	0.5	0.5	0.5	1.054
Mof_H 	H 	0.753	0.8468	0.3708	-0.089
Mof_H 	H 	0.034	0.4833	0.2653	-0.117
Mof_H 	H 	0.615	0.5661	0.0411	-0.1
Mof_H 	H 	0.214	0.9618	0.2238	-0.108
Mof_H 	H 	0.153	0.6968	0.9258	-0.128
Mof_H 	H 	0.707	0.9963	0.0273	-0.148
Mof_H 	H 	0.253	0.6532	0.1292	-0.117
Mof_H 	H 	0.534	0.0167	0.2347	-0.198
Mof_H 	H 	0.115	0.9339	0.4589	-0.084
Mof_H 	H 	0.714	0.5382	0.2762	-0.085
Mof_H 	H 	0.653	0.8032	0.5742	-0.09
Mof_H 	H 	0.207	0.5037	0.4727	-0.173
Mof_H 	H 	0.247	0.1532	0.6292	-0.116
Mof_H 	H 	0.966	0.5167	0.7347	-0.067
Mof_H 	H 	0.385	0.4339	0.9589	-0.051
Mof_H 	H 	0.786	0.0382	0.7762	-0.065
Mof_H 	H 	0.847	0.3032	0.0742	-0.05
Mof_H 	H 	0.293	0.0037	0.9727	-0.139
Mof_H 	H 	0.747	0.3468	0.8708	-0.082
Mof_H 	H 	0.466	0.9833	0.7653	0.01
Mof_H 	H 	0.885	0.0661	0.5411	-0.073
Mof_H 	H 	0.286	0.4618	0.7238	-0.101
Mof_H 	H 	0.347	0.1968	0.4258	-0.12
Mof_H 	H 	0.793	0.4963	0.5273	-0.146
Mof_C 	C 	0.8254	0.82406	0.33146	0.48
Mof_C 	C 	0.0186	0.51989	0.20859	0.495
Mof_C 	C 	0.7124	0.57689	0.04999	0.461
Mof_C 	C 	0.1404	0.94108	0.18048	0.547
Mof_C 	C 	0.0971	0.74053	0.96413	0.607
Mof_C 	C 	0.7245	0.93679	0.05969	0.569
Mof_C 	C 	0.3254	0.67594	0.16854	0.484
Mof_C 	C 	0.5186	0.98011	0.29141	0.683
Mof_C 	C 	0.2124	0.92311	0.45001	0.452
Mof_C 	C 	0.6404	0.55892	0.31952	0.469
Mof_C 	C 	0.5971	0.75947	0.53587	0.499
Mof_C 	C 	0.2245	0.56321	0.44031	0.598
Mof_C 	C 	0.1746	0.17594	0.66854	0.483
Mof_C 	C 	0.9814	0.48011	0.79141	0.456
Mof_C 	C 	0.2876	0.42311	0.95001	0.431
Mof_C 	C 	0.8596	0.05892	0.81952	0.354
Mof_C 	C 	0.9029	0.25947	0.03587	0.335
Mof_C 	C 	0.2755	0.06321	0.94031	0.565
Mof_C 	C 	0.6746	0.32406	0.83146	0.477
Mof_C 	C 	0.4814	0.01989	0.70859	0.283
Mof_C 	C 	0.7876	0.07689	0.54999	0.458
Mof_C 	C 	0.3596	0.44108	0.68048	0.473
Mof_C 	C 	0.4029	0.24053	0.46413	0.511
Mof_C 	C 	0.7755	0.43679	0.55969	0.584
Mof_O 	O 	0.79934	0.80393	0.24918	-0.475
Mof_O 	O 	0.9331	0.81176	0.36781	-0.358
Mof_O 	O 	0.00751	0.62768	0.21629	-0.522
Mof_O 	O 	0.0021	0.46197	0.13988	-0.437
Mof_O 	O 	0.74211	0.65519	0.10712	-0.489
Mof_O 	O 	0.79002	0.52016	0.00331	-0.393
Mof_O 	O 	0.08066	0.849	0.19604	-0.531
Mof_O 	O 	0.1189	0.00457	0.1186	-0.479
Mof_O 	O 	0.0289	0.68666	0.02076	-0.585
Mof_O 	O 	0.09836	0.84413	0.95566	-0.371
Mof_O 	O 	0.84242	0.90292	0.06436	-0.476
Mof_O 	O 	0.62893	0.89514	0.09719	-0.432
Mof_O 	O 	0.29934	0.69607	0.25082	-0.485
Mof_O 	O 	0.4331	0.68824	0.13219	-0.424
Mof_O 	O 	0.50751	0.87232	0.28371	-0.53
Mof_O 	O 	0.5021	0.03803	0.36012	-0.497
Mof_O 	O 	0.24211	0.84481	0.39288	-0.483
Mof_O 	O 	0.29002	0.97984	0.49669	-0.361
Mof_O 	O 	0.58066	0.651	0.30396	-0.486
Mof_O 	O 	0.6189	0.49543	0.3814	-0.403
Mof_O 	O 	0.5289	0.81334	0.47924	-0.473
Mof_O 	O 	0.59836	0.65587	0.54434	-0.404
Mof_O 	O 	0.34242	0.59708	0.43564	-0.527
Mof_O 	O 	0.12893	0.60486	0.40281	-0.456
Mof_O 	O 	0.20066	0.19607	0.75082	-0.495
Mof_O 	O 	0.0669	0.18824	0.63219	-0.462
Mof_O 	O 	0.99249	0.37232	0.78371	-0.438
Mof_O 	O 	0.9979	0.53803	0.86012	-0.311
Mof_O 	O 	0.25789	0.34481	0.89288	-0.47
Mof_O 	O 	0.20998	0.47984	0.99669	-0.331
Mof_O 	O 	0.91934	0.151	0.80396	-0.419
Mof_O 	O 	0.8811	0.99543	0.8814	-0.234
Mof_O 	O 	0.9711	0.31334	0.97924	-0.314
Mof_O 	O 	0.90164	0.15587	0.04434	-0.345
Mof_O 	O 	0.15758	0.09708	0.93564	-0.478
Mof_O 	O 	0.37107	0.10486	0.90281	-0.43
Mof_O 	O 	0.70066	0.30393	0.74918	-0.484
Mof_O 	O 	0.5669	0.31176	0.86781	-0.392
Mof_O 	O 	0.49249	0.12768	0.71629	-0.441
Mof_O 	O 	0.4979	0.96197	0.63988	-0.297
Mof_O 	O 	0.75789	0.15519	0.60712	-0.486
Mof_O 	O 	0.70998	0.02016	0.50331	-0.406
Mof_O 	O 	0.41934	0.349	0.69604	-0.488
Mof_O 	O 	0.3811	0.50457	0.6186	-0.409
Mof_O 	O 	0.4711	0.18666	0.52076	-0.492
Mof_O 	O 	0.40164	0.34413	0.45566	-0.419
Mof_O 	O 	0.65758	0.40292	0.56436	-0.516
Mof_O 	O 	0.87107	0.39514	0.59719	-0.422
_end
