data_functionalizedCrystal
_audit_creation_method	'EQeq! by Chris Wilmer'
_symmetry_space_group_name_H-M	'P1'
_symmetry_Int_Tables_number	1
_symmetry_cell_setting	triclinic
loop_
_symmetry_equiv_pos_as_xyz
  x,y,z
_cell_length_a	10.406
_cell_length_b	27.2442
_cell_length_c	13.1722
_cell_angle_alpha	90
_cell_angle_beta	102.395
_cell_angle_gamma	90
loop_
_atom_site_label
_atom_site_type_symbol
_atom_site_fract_x
_atom_site_fract_y
_atom_site_fract_z
_atom_site_charge
Mof_Cd	Cd	0.02664	0.07005	0.38025	0.441
Mof_Cd	Cd	0.26989	0.88271	0.8024	0.417
Mof_Cd	Cd	0.22885	0.18832	0.1592	0.471
Mof_Si	Si	0.65068	0.04853	0.81434	1.373
Mof_O 	O 	0.6731	0.23202	0.6827	-0.275
Mof_O 	O 	0.6235	0.28386	0.7929	-0.278
Mof_O 	O 	0.3903	0.2045	0.0746	-0.278
Mof_O 	O 	0.5237	0.14437	0.1488	-0.305
Mof_O 	O 	0.0499	0.1571	0.045	-0.274
Mof_O 	O 	0.2249	0.11033	0.0769	-0.299
Mof_O 	O 	0.239	0.95432	0.8882	-0.331
Mof_O 	O 	0.0587	0.92446	0.7887	-0.317
Mof_O 	O 	0.8734	0.07113	0.4776	-0.293
Mof_O 	O 	0.7121	0.0712	0.3363	-0.317
Mof_O 	O 	0.2499	0.07545	0.3719	-0.288
Mof_O 	O 	0.2022	0.04967	0.5167	-0.28
Mof_C 	C 	0.5671	0.99708	0.8665	-1.654
Mof_H 	H 	0.5826	0.9996	0.9409	0.503
Mof_H 	H 	0.6014	0.9664	0.8479	0.527
Mof_H 	H 	0.4743	0.9986	0.8378	0.515
Mof_C 	C 	0.6007	0.11004	0.8553	-0.514
Mof_C 	C 	0.6229	0.15127	0.7976	0.257
Mof_H 	H 	0.6556	0.1466	0.7379	-0.053
Mof_C 	C 	0.5977	0.19876	0.8264	-0.212
Mof_C 	C 	0.5457	0.20595	0.9144	0.153
Mof_H 	H 	0.5252	0.2374	0.9331	0.007
Mof_C 	C 	0.5245	0.16583	0.9741	-0.23
Mof_C 	C 	0.5531	0.11871	0.9445	0.276
Mof_H 	H 	0.5399	0.0922	0.9857	-0.084
Mof_C 	C 	0.4769	0.17231	0.0731	0.36
Mof_C 	C 	0.6317	0.24054	0.7633	0.352
Mof_C 	C 	0.8347	0.04512	0.8583	-0.499
Mof_C 	C 	0.9046	0.08272	0.919	0.258
Mof_H 	H 	0.8597	0.1105	0.9332	-0.055
Mof_C 	C 	0.039	0.07936	0.9583	-0.219
Mof_C 	C 	0.1083	0.03902	0.9346	0.163
Mof_H 	H 	0.1987	0.037	0.9601	-0.024
Mof_C 	C 	0.0426	0.00161	0.873	-0.23
Mof_C 	C 	0.9066	0.00445	0.8362	0.256
Mof_H 	H 	0.8628	0.9789	0.7964	-0.06
Mof_C 	C 	0.1095	0.1178	0.0305	0.354
Mof_C 	C 	0.1187	0.95823	0.8485	0.358
Mof_C 	C 	0.6032	0.05079	0.669	-0.509
Mof_C 	C 	0.6944	0.05741	0.6062	0.276
Mof_H 	H 	0.7837	0.0579	0.6367	-0.06
Mof_C 	C 	0.6551	0.06324	0.4996	-0.225
Mof_C 	C 	0.5218	0.06346	0.4532	0.158
Mof_H 	H 	0.4949	0.067	0.3815	-0.004
Mof_C 	C 	0.4293	0.05846	0.5139	-0.216
Mof_C 	C 	0.4695	0.05117	0.6204	0.261
Mof_H 	H 	0.4067	0.0465	0.6601	-0.066
Mof_C 	C 	0.7531	0.06909	0.4318	0.377
Mof_C 	C 	0.2854	0.06106	0.4647	0.344
Mof_Cd	Cd	0.47336	0.57005	0.11975	0.439
Mof_Cd	Cd	0.23011	0.38271	0.6976	0.416
Mof_Cd	Cd	0.27115	0.68832	0.3408	0.47
Mof_Si	Si	0.84932	0.54853	0.68566	1.378
Mof_O 	O 	0.8269	0.73202	0.8173	-0.276
Mof_O 	O 	0.8765	0.78386	0.7071	-0.279
Mof_O 	O 	0.1097	0.7045	0.4254	-0.278
Mof_O 	O 	0.9763	0.64437	0.3512	-0.304
Mof_O 	O 	0.4501	0.6571	0.455	-0.276
Mof_O 	O 	0.2751	0.61033	0.4231	-0.301
Mof_O 	O 	0.261	0.45432	0.6118	-0.333
Mof_O 	O 	0.4413	0.42446	0.7113	-0.319
Mof_O 	O 	0.6266	0.57113	0.0224	-0.293
Mof_O 	O 	0.7879	0.5712	0.1637	-0.317
Mof_O 	O 	0.2501	0.57545	0.1281	-0.288
Mof_O 	O 	0.2978	0.54967	0.9833	-0.279
Mof_C 	C 	0.9329	0.49708	0.6335	-1.661
Mof_H 	H 	0.9174	0.4996	0.5591	0.505
Mof_H 	H 	0.8986	0.4664	0.6521	0.529
Mof_H 	H 	0.0257	0.4986	0.6622	0.518
Mof_C 	C 	0.8993	0.61004	0.6447	-0.515
Mof_C 	C 	0.8771	0.65127	0.7024	0.257
Mof_H 	H 	0.8444	0.6466	0.7621	-0.054
Mof_C 	C 	0.9023	0.69876	0.6736	-0.212
Mof_C 	C 	0.9543	0.70595	0.5856	0.152
Mof_H 	H 	0.9748	0.7374	0.5669	0.008
Mof_C 	C 	0.9755	0.66583	0.5259	-0.227
Mof_C 	C 	0.9469	0.61871	0.5555	0.276
Mof_H 	H 	0.9601	0.5922	0.5143	-0.083
Mof_C 	C 	0.0231	0.67231	0.4269	0.357
Mof_C 	C 	0.8683	0.74054	0.7367	0.352
Mof_C 	C 	0.6653	0.54512	0.6417	-0.505
Mof_C 	C 	0.5954	0.58272	0.581	0.267
Mof_H 	H 	0.6403	0.6105	0.5668	-0.057
Mof_C 	C 	0.461	0.57936	0.5417	-0.228
Mof_C 	C 	0.3917	0.53902	0.5654	0.169
Mof_H 	H 	0.3013	0.537	0.5399	-0.027
Mof_C 	C 	0.4574	0.50161	0.627	-0.237
Mof_C 	C 	0.5934	0.50445	0.6638	0.265
Mof_H 	H 	0.6372	0.4789	0.7036	-0.064
Mof_C 	C 	0.3905	0.6178	0.4695	0.358
Mof_C 	C 	0.3813	0.45823	0.6515	0.36
Mof_C 	C 	0.8968	0.55079	0.831	-0.513
Mof_C 	C 	0.8056	0.55741	0.8938	0.277
Mof_H 	H 	0.7163	0.5579	0.8633	-0.06
Mof_C 	C 	0.8449	0.56324	0.0004	-0.226
Mof_C 	C 	0.9782	0.56346	0.0468	0.164
Mof_H 	H 	0.0051	0.567	0.1185	-0.008
Mof_C 	C 	0.0707	0.55846	0.9861	-0.217
Mof_C 	C 	0.0305	0.55117	0.8796	0.265
Mof_H 	H 	0.0933	0.5465	0.8399	-0.067
Mof_C 	C 	0.7469	0.56909	0.0682	0.377
Mof_C 	C 	0.2146	0.56106	0.0353	0.343
Mof_Cd	Cd	0.97336	0.92995	0.61975	0.44
Mof_Cd	Cd	0.73011	0.11729	0.1976	0.416
Mof_Cd	Cd	0.77115	0.81168	0.8408	0.47
Mof_Si	Si	0.34932	0.95147	0.18566	1.372
Mof_O 	O 	0.3269	0.76798	0.3173	-0.276
Mof_O 	O 	0.3765	0.71614	0.2071	-0.279
Mof_O 	O 	0.6097	0.7955	0.9254	-0.279
Mof_O 	O 	0.4763	0.85563	0.8512	-0.306
Mof_O 	O 	0.9501	0.8429	0.955	-0.275
Mof_O 	O 	0.7751	0.88967	0.9231	-0.3
Mof_O 	O 	0.761	0.04568	0.1118	-0.332
Mof_O 	O 	0.9413	0.07554	0.2113	-0.318
Mof_O 	O 	0.1266	0.92887	0.5224	-0.293
Mof_O 	O 	0.2879	0.9288	0.6637	-0.317
Mof_O 	O 	0.7501	0.92455	0.6281	-0.288
Mof_O 	O 	0.7978	0.95033	0.4833	-0.28
Mof_C 	C 	0.4329	0.00292	0.1335	-1.654
Mof_H 	H 	0.4174	0.0004	0.0591	0.503
Mof_H 	H 	0.3986	0.0336	0.1521	0.527
Mof_H 	H 	0.5257	0.0014	0.1622	0.515
Mof_C 	C 	0.3993	0.88996	0.1447	-0.514
Mof_C 	C 	0.3771	0.84873	0.2024	0.257
Mof_H 	H 	0.3444	0.8534	0.2621	-0.053
Mof_C 	C 	0.4023	0.80124	0.1736	-0.212
Mof_C 	C 	0.4543	0.79405	0.0856	0.153
Mof_H 	H 	0.4748	0.7626	0.0669	0.007
Mof_C 	C 	0.4755	0.83417	0.0259	-0.23
Mof_C 	C 	0.4469	0.88129	0.0555	0.276
Mof_H 	H 	0.4601	0.9078	0.0143	-0.084
Mof_C 	C 	0.5231	0.82769	0.9269	0.36
Mof_C 	C 	0.3683	0.75946	0.2367	0.352
Mof_C 	C 	0.1653	0.95488	0.1417	-0.499
Mof_C 	C 	0.0954	0.91728	0.081	0.258
Mof_H 	H 	0.1403	0.8895	0.0668	-0.055
Mof_C 	C 	0.961	0.92064	0.0417	-0.219
Mof_C 	C 	0.8917	0.96098	0.0654	0.163
Mof_H 	H 	0.8013	0.963	0.0399	-0.024
Mof_C 	C 	0.9574	0.99839	0.127	-0.23
Mof_C 	C 	0.0934	0.99555	0.1638	0.256
Mof_H 	H 	0.1372	0.0211	0.2036	-0.06
Mof_C 	C 	0.8905	0.8822	0.9695	0.354
Mof_C 	C 	0.8813	0.04177	0.1515	0.358
Mof_C 	C 	0.3968	0.94921	0.331	-0.509
Mof_C 	C 	0.3056	0.94259	0.3938	0.276
Mof_H 	H 	0.2163	0.9421	0.3633	-0.06
Mof_C 	C 	0.3449	0.93676	0.5004	-0.225
Mof_C 	C 	0.4782	0.93654	0.5468	0.158
Mof_H 	H 	0.5051	0.933	0.6185	-0.004
Mof_C 	C 	0.5707	0.94154	0.4861	-0.216
Mof_C 	C 	0.5305	0.94883	0.3796	0.261
Mof_H 	H 	0.5933	0.9535	0.3399	-0.066
Mof_C 	C 	0.2469	0.93091	0.5682	0.377
Mof_C 	C 	0.7146	0.93894	0.5353	0.344
Mof_Cd	Cd	0.52664	0.42995	0.88025	0.439
Mof_Cd	Cd	0.76989	0.61729	0.3024	0.416
Mof_Cd	Cd	0.72885	0.31168	0.6592	0.47
Mof_Si	Si	0.15068	0.45147	0.31434	1.378
Mof_O 	O 	0.1731	0.26798	0.1827	-0.276
Mof_O 	O 	0.1235	0.21614	0.2929	-0.279
Mof_O 	O 	0.8903	0.2955	0.5746	-0.278
Mof_O 	O 	0.0237	0.35563	0.6488	-0.304
Mof_O 	O 	0.5499	0.3429	0.545	-0.276
Mof_O 	O 	0.7249	0.38967	0.5769	-0.301
Mof_O 	O 	0.739	0.54568	0.3882	-0.333
Mof_O 	O 	0.5587	0.57554	0.2887	-0.319
Mof_O 	O 	0.3734	0.42887	0.9776	-0.293
Mof_O 	O 	0.2121	0.4288	0.8363	-0.317
Mof_O 	O 	0.7499	0.42455	0.8719	-0.288
Mof_O 	O 	0.7022	0.45033	0.0167	-0.279
Mof_C 	C 	0.0671	0.50292	0.3665	-1.661
Mof_H 	H 	0.0826	0.5004	0.4409	0.505
Mof_H 	H 	0.1014	0.5336	0.3479	0.529
Mof_H 	H 	0.9743	0.5014	0.3378	0.518
Mof_C 	C 	0.1007	0.38996	0.3553	-0.515
Mof_C 	C 	0.1229	0.34873	0.2976	0.257
Mof_H 	H 	0.1556	0.3534	0.2379	-0.054
Mof_C 	C 	0.0977	0.30124	0.3264	-0.212
Mof_C 	C 	0.0457	0.29405	0.4144	0.152
Mof_H 	H 	0.0252	0.2626	0.4331	0.008
Mof_C 	C 	0.0245	0.33417	0.4741	-0.227
Mof_C 	C 	0.0531	0.38129	0.4445	0.276
Mof_H 	H 	0.0399	0.4078	0.4857	-0.083
Mof_C 	C 	0.9769	0.32769	0.5731	0.357
Mof_C 	C 	0.1317	0.25946	0.2633	0.352
Mof_C 	C 	0.3347	0.45488	0.3583	-0.505
Mof_C 	C 	0.4046	0.41728	0.419	0.267
Mof_H 	H 	0.3597	0.3895	0.4332	-0.057
Mof_C 	C 	0.539	0.42064	0.4583	-0.228
Mof_C 	C 	0.6083	0.46098	0.4346	0.169
Mof_H 	H 	0.6987	0.463	0.4601	-0.027
Mof_C 	C 	0.5426	0.49839	0.373	-0.237
Mof_C 	C 	0.4066	0.49555	0.3362	0.265
Mof_H 	H 	0.3628	0.5211	0.2964	-0.064
Mof_C 	C 	0.6095	0.3822	0.5305	0.358
Mof_C 	C 	0.6187	0.54177	0.3485	0.36
Mof_C 	C 	0.1032	0.44921	0.169	-0.513
Mof_C 	C 	0.1944	0.44259	0.1062	0.277
Mof_H 	H 	0.2837	0.4421	0.1367	-0.06
Mof_C 	C 	0.1551	0.43676	0.9996	-0.226
Mof_C 	C 	0.0218	0.43654	0.9532	0.164
Mof_H 	H 	0.9949	0.433	0.8815	-0.008
Mof_C 	C 	0.9293	0.44154	0.0139	-0.217
Mof_C 	C 	0.9695	0.44883	0.1204	0.265
Mof_H 	H 	0.9067	0.4535	0.1601	-0.067
Mof_C 	C 	0.2531	0.43091	0.9318	0.377
Mof_C 	C 	0.7854	0.43894	0.9647	0.343
_end
