data_functionalizedCrystal
_audit_creation_method	'EQeq! by Chris Wilmer'
_symmetry_space_group_name_H-M	'P1'
_symmetry_Int_Tables_number	1
_symmetry_cell_setting	triclinic
loop_
_symmetry_equiv_pos_as_xyz
  x,y,z
_cell_length_a	28.1043
_cell_length_b	28.1043
_cell_length_c	28.1043
_cell_angle_alpha	109.471
_cell_angle_beta	109.471
_cell_angle_gamma	109.471
loop_
_atom_site_label
_atom_site_type_symbol
_atom_site_fract_x
_atom_site_fract_y
_atom_site_fract_z
_atom_site_charge
Mof_Cu	Cu	0.5	0	-0	0.859
Mof_Cu	Cu	-0	0.5	-0	0.859
Mof_Cu	Cu	-0	0	0.5	0.859
Mof_Cu	Cu	0.5	0.5	0.5	0.88
Mof_Cu	Cu	2.66116e-17	0.76109	0.76109	0.849
Mof_Cu	Cu	-6.65289e-18	0.23891	0.23891	0.848
Mof_Cu	Cu	0.23891	0	0.23891	0.848
Mof_Cu	Cu	0.76109	-1.06446e-16	0.76109	0.849
Mof_Cu	Cu	0.23891	0.23891	-0	0.848
Mof_Cu	Cu	0.76109	0.76109	-0	0.849
Mof_H 	H 	0.2048	0.9175	0.9035	0.153
Mof_H 	H 	0.2805	0.9424	0.8845	0.175
Mof_H 	H 	0.1085	0.857	0.8709	-0.009
Mof_H 	H 	0.3564	0.0047	0.8007	0.044
Mof_H 	H 	0.1729	0.8387	0.7372	0.136
Mof_H 	H 	0.3664	0.944	0.9124	0.016
Mof_H 	H 	0.4552	0.0721	0.8605	0.061
Mof_H 	H 	0.0775	0.7817	0.709	-0.032
Mof_H 	H 	0.014	0.3013	0.0965	0.127
Mof_H 	H 	0.0579	0.396	0.1155	0.165
Mof_H 	H 	0.9861	0.2376	0.1291	0.027
Mof_H 	H 	0.204	0.5557	0.1993	0.036
Mof_H 	H 	0.1015	0.4357	0.2628	0.13
Mof_H 	H 	0.0316	0.454	0.0876	0.006
Mof_H 	H 	0.2116	0.5947	0.1395	0.07
Mof_H 	H 	0.0727	0.3685	0.291	-0.026
Mof_H 	H 	0.986	0.0825	0.2873	0.163
Mof_H 	H 	0.9421	0.0576	0.3381	0.17
Mof_H 	H 	0.0139	0.143	0.2515	-0.048
Mof_H 	H 	0.796	0.9953	0.3517	0.03
Mof_H 	H 	0.8985	0.1613	0.3342	0.14
Mof_H 	H 	0.9684	0.056	0.4224	0.025
Mof_H 	H 	0.7884	0.9279	0.3831	0.079
Mof_H 	H 	0.9273	0.2183	0.2958	-0.025
Mof_H 	H 	0.7952	0.6987	0.7127	0.147
Mof_H 	H 	0.7195	0.604	0.6619	0.17
Mof_H 	H 	0.8915	0.7624	0.7485	-0.005
Mof_H 	H 	0.6436	0.4443	0.6483	0.037
Mof_H 	H 	0.8271	0.5643	0.6658	0.137
Mof_H 	H 	0.6336	0.546	0.5776	0.015
Mof_H 	H 	0.5448	0.4053	0.6169	0.07
Mof_H 	H 	0.9225	0.6315	0.7042	-0.019
Mof_H 	H 	0.2873	0.986	0.0825	0.163
Mof_H 	H 	0.3381	0.9421	0.0576	0.17
Mof_H 	H 	0.2515	0.0139	0.143	-0.048
Mof_H 	H 	0.3517	0.796	0.9953	0.03
Mof_H 	H 	0.3342	0.8985	0.1613	0.14
Mof_H 	H 	0.4224	0.9684	0.056	0.025
Mof_H 	H 	0.3831	0.7884	0.9279	0.079
Mof_H 	H 	0.2958	0.9273	0.2183	-0.025
Mof_H 	H 	0.7127	0.7952	0.6987	0.147
Mof_H 	H 	0.6619	0.7195	0.604	0.17
Mof_H 	H 	0.7485	0.8915	0.7624	-0.005
Mof_H 	H 	0.6483	0.6436	0.4443	0.037
Mof_H 	H 	0.6658	0.8271	0.5643	0.137
Mof_H 	H 	0.5776	0.6336	0.546	0.015
Mof_H 	H 	0.6169	0.5448	0.4053	0.07
Mof_H 	H 	0.7042	0.9225	0.6315	-0.019
Mof_H 	H 	0.9035	0.2048	0.9175	0.154
Mof_H 	H 	0.8845	0.2805	0.9424	0.175
Mof_H 	H 	0.8709	0.1085	0.857	-0.009
Mof_H 	H 	0.8007	0.3564	0.0047	0.044
Mof_H 	H 	0.7372	0.1729	0.8387	0.136
Mof_H 	H 	0.9124	0.3664	0.944	0.016
Mof_H 	H 	0.8605	0.4552	0.0721	0.061
Mof_H 	H 	0.709	0.0775	0.7817	-0.032
Mof_H 	H 	0.0965	0.014	0.3013	0.127
Mof_H 	H 	0.1155	0.0579	0.396	0.165
Mof_H 	H 	0.1291	0.9861	0.2376	0.027
Mof_H 	H 	0.1993	0.204	0.5557	0.036
Mof_H 	H 	0.2628	0.1015	0.4357	0.13
Mof_H 	H 	0.0876	0.0316	0.454	0.006
Mof_H 	H 	0.1395	0.2116	0.5947	0.07
Mof_H 	H 	0.291	0.0727	0.3685	-0.026
Mof_H 	H 	0.3013	0.0965	0.014	0.127
Mof_H 	H 	0.396	0.1155	0.0579	0.165
Mof_H 	H 	0.2376	0.1291	0.9861	0.027
Mof_H 	H 	0.5557	0.1993	0.204	0.036
Mof_H 	H 	0.4357	0.2628	0.1015	0.13
Mof_H 	H 	0.454	0.0876	0.0316	0.006
Mof_H 	H 	0.5947	0.1395	0.2116	0.07
Mof_H 	H 	0.3685	0.291	0.0727	-0.026
Mof_H 	H 	0.9175	0.9035	0.2048	0.154
Mof_H 	H 	0.9424	0.8845	0.2805	0.175
Mof_H 	H 	0.857	0.8709	0.1085	-0.009
Mof_H 	H 	0.0047	0.8007	0.3564	0.044
Mof_H 	H 	0.8387	0.7372	0.1729	0.136
Mof_H 	H 	0.944	0.9124	0.3664	0.016
Mof_H 	H 	0.0721	0.8605	0.4552	0.061
Mof_H 	H 	0.7817	0.709	0.0775	-0.032
Mof_H 	H 	0.6987	0.7127	0.7952	0.147
Mof_H 	H 	0.604	0.6619	0.7195	0.17
Mof_H 	H 	0.7624	0.7485	0.8915	-0.005
Mof_H 	H 	0.4443	0.6483	0.6436	0.037
Mof_H 	H 	0.5643	0.6658	0.8271	0.137
Mof_H 	H 	0.546	0.5776	0.6336	0.015
Mof_H 	H 	0.4053	0.6169	0.5448	0.07
Mof_H 	H 	0.6315	0.7042	0.9225	-0.019
Mof_H 	H 	0.0825	0.2873	0.986	0.163
Mof_H 	H 	0.0576	0.3381	0.9421	0.17
Mof_H 	H 	0.143	0.2515	0.0139	-0.048
Mof_H 	H 	0.9953	0.3517	0.796	0.03
Mof_H 	H 	0.1613	0.3342	0.8985	0.14
Mof_H 	H 	0.056	0.4224	0.9684	0.025
Mof_H 	H 	0.9279	0.3831	0.7884	0.079
Mof_H 	H 	0.2183	0.2958	0.9273	-0.025
Mof_H 	H 	0.0825	0.7952	0.0965	0.142
Mof_H 	H 	0.0576	0.7195	0.1155	0.165
Mof_H 	H 	0.143	0.8915	0.1291	-0.009
Mof_H 	H 	0.9953	0.6436	0.1993	0.03
Mof_H 	H 	0.1613	0.8271	0.2628	0.136
Mof_H 	H 	0.056	0.6336	0.0876	0.016
Mof_H 	H 	0.9279	0.5448	0.1395	0.079
Mof_H 	H 	0.2183	0.9225	0.291	-0.019
Mof_H 	H 	0.6987	0.986	0.9035	0.168
Mof_H 	H 	0.604	0.9421	0.8845	0.175
Mof_H 	H 	0.7624	0.0139	0.8709	-0.043
Mof_H 	H 	0.4443	0.796	0.8007	0.038
Mof_H 	H 	0.5643	0.8985	0.7372	0.141
Mof_H 	H 	0.546	0.9684	0.9124	0.025
Mof_H 	H 	0.4053	0.7884	0.8605	0.07
Mof_H 	H 	0.6315	0.9273	0.709	-0.025
Mof_H 	H 	0.9175	0.014	0.7127	0.134
Mof_H 	H 	0.9424	0.0579	0.6619	0.17
Mof_H 	H 	0.857	0.9861	0.7485	0.029
Mof_H 	H 	0.0047	0.204	0.6483	0.044
Mof_H 	H 	0.8387	0.1015	0.6658	0.132
Mof_H 	H 	0.944	0.0316	0.5776	0.007
Mof_H 	H 	0.0721	0.2116	0.6169	0.061
Mof_H 	H 	0.7817	0.0727	0.7042	-0.026
Mof_H 	H 	0.3013	0.2048	0.2873	0.148
Mof_H 	H 	0.396	0.2805	0.3381	0.17
Mof_H 	H 	0.2376	0.1085	0.2515	-0.012
Mof_H 	H 	0.5557	0.3564	0.3517	0.037
Mof_H 	H 	0.4357	0.1729	0.3342	0.134
Mof_H 	H 	0.454	0.3664	0.4224	0.015
Mof_H 	H 	0.5947	0.4552	0.3831	0.07
Mof_H 	H 	0.3685	0.0775	0.2958	-0.032
Mof_H 	H 	0.014	0.7127	0.9175	0.134
Mof_H 	H 	0.0579	0.6619	0.9424	0.17
Mof_H 	H 	0.9861	0.7485	0.857	0.029
Mof_H 	H 	0.204	0.6483	0.0047	0.044
Mof_H 	H 	0.1015	0.6658	0.8387	0.132
Mof_H 	H 	0.0316	0.5776	0.944	0.007
Mof_H 	H 	0.2116	0.6169	0.0721	0.061
Mof_H 	H 	0.0727	0.7042	0.7817	-0.026
Mof_H 	H 	0.2048	0.2873	0.3013	0.148
Mof_H 	H 	0.2805	0.3381	0.396	0.17
Mof_H 	H 	0.1085	0.2515	0.2376	-0.012
Mof_H 	H 	0.3564	0.3517	0.5557	0.037
Mof_H 	H 	0.1729	0.3342	0.4357	0.134
Mof_H 	H 	0.3664	0.4224	0.454	0.015
Mof_H 	H 	0.4552	0.3831	0.5947	0.07
Mof_H 	H 	0.0775	0.2958	0.3685	-0.032
Mof_H 	H 	0.7952	0.0965	0.0825	0.142
Mof_H 	H 	0.7195	0.1155	0.0576	0.165
Mof_H 	H 	0.8915	0.1291	0.143	-0.009
Mof_H 	H 	0.6436	0.1993	0.9953	0.03
Mof_H 	H 	0.8271	0.2628	0.1613	0.136
Mof_H 	H 	0.6336	0.0876	0.056	0.016
Mof_H 	H 	0.5448	0.1395	0.9279	0.079
Mof_H 	H 	0.9225	0.291	0.2183	-0.019
Mof_H 	H 	0.986	0.9035	0.6987	0.168
Mof_H 	H 	0.9421	0.8845	0.604	0.175
Mof_H 	H 	0.0139	0.8709	0.7624	-0.043
Mof_H 	H 	0.796	0.8007	0.4443	0.038
Mof_H 	H 	0.8985	0.7372	0.5643	0.141
Mof_H 	H 	0.9684	0.9124	0.546	0.025
Mof_H 	H 	0.7884	0.8605	0.4053	0.07
Mof_H 	H 	0.9273	0.709	0.6315	-0.025
Mof_H 	H 	0.9035	0.6987	0.986	0.168
Mof_H 	H 	0.8845	0.604	0.9421	0.175
Mof_H 	H 	0.8709	0.7624	0.0139	-0.043
Mof_H 	H 	0.8007	0.4443	0.796	0.038
Mof_H 	H 	0.7372	0.5643	0.8985	0.141
Mof_H 	H 	0.9124	0.546	0.9684	0.025
Mof_H 	H 	0.8605	0.4053	0.7884	0.07
Mof_H 	H 	0.709	0.6315	0.9273	-0.025
Mof_H 	H 	0.0965	0.0825	0.7952	0.142
Mof_H 	H 	0.1155	0.0576	0.7195	0.165
Mof_H 	H 	0.1291	0.143	0.8915	-0.009
Mof_H 	H 	0.1993	0.9953	0.6436	0.03
Mof_H 	H 	0.2628	0.1613	0.8271	0.136
Mof_H 	H 	0.0876	0.056	0.6336	0.016
Mof_H 	H 	0.1395	0.9279	0.5448	0.079
Mof_H 	H 	0.291	0.2183	0.9225	-0.019
Mof_H 	H 	0.2873	0.3013	0.2048	0.148
Mof_H 	H 	0.3381	0.396	0.2805	0.17
Mof_H 	H 	0.2515	0.2376	0.1085	-0.012
Mof_H 	H 	0.3517	0.5557	0.3564	0.037
Mof_H 	H 	0.3342	0.4357	0.1729	0.134
Mof_H 	H 	0.4224	0.454	0.3664	0.015
Mof_H 	H 	0.3831	0.5947	0.4552	0.07
Mof_H 	H 	0.2958	0.3685	0.0775	-0.032
Mof_H 	H 	0.7127	0.9175	0.014	0.134
Mof_H 	H 	0.6619	0.9424	0.0579	0.17
Mof_H 	H 	0.7485	0.857	0.9861	0.029
Mof_H 	H 	0.6483	0.0047	0.204	0.044
Mof_H 	H 	0.6658	0.8387	0.1015	0.132
Mof_H 	H 	0.5776	0.944	0.0316	0.007
Mof_H 	H 	0.6169	0.0721	0.2116	0.061
Mof_H 	H 	0.7042	0.7817	0.0727	-0.026
Mof_C 	C 	0.17933	0.88929	0.86328	-0.231
Mof_C 	C 	0.12178	0.85332	0.84364	0.14
Mof_C 	C 	0.37822	0.00622	0.83574	-0.005
Mof_C 	C 	0.46837	0.04312	0.91847	0.043
Mof_C 	C 	0.16068	0.84316	0.76534	-0.229
Mof_C 	C 	0.2008	0.88482	0.82478	0.245
Mof_C 	C 	0.38491	0.97014	0.90159	0.087
Mof_C 	C 	0.43654	0.04457	0.86989	-0.082
Mof_C 	C 	0.1042	0.80944	0.74912	0.13
Mof_C 	C 	0.28556	0.92705	0.81505	0.256
Mof_C 	C 	0.35124	0.9699	0.85228	-0.058
Mof_C 	C 	0.02601	0.31605	0.13672	-0.198
Mof_C 	C 	0.00968	0.27814	0.15636	0.076
Mof_C 	C 	0.17048	0.54248	0.16426	0.041
Mof_C 	C 	0.12465	0.5499	0.08153	0.056
Mof_C 	C 	0.07782	0.39534	0.23466	-0.217
Mof_C 	C 	0.06004	0.37602	0.17522	0.222
Mof_C 	C 	0.06855	0.48332	0.09841	0.07
Mof_C 	C 	0.17468	0.56665	0.13011	-0.106
Mof_C 	C 	0.06032	0.35508	0.25088	0.119
Mof_C 	C 	0.112	0.47051	0.18495	0.258
Mof_C 	C 	0.11762	0.49896	0.14772	-0.094
Mof_C 	C 	0.97399	0.11071	0.29004	-0.26
Mof_C 	C 	0.99032	0.14668	0.26846	0.196
Mof_C 	C 	0.82952	0.99378	0.372	0.088
Mof_C 	C 	0.87535	0.95688	0.42525	0.069
Mof_C 	C 	0.92218	0.15684	0.31752	-0.236
Mof_C 	C 	0.93996	0.11518	0.31598	0.255
Mof_C 	C 	0.93145	0.02986	0.41477	0.057
Mof_C 	C 	0.82532	0.95543	0.39197	-0.122
Mof_C 	C 	0.93968	0.19056	0.29476	0.137
Mof_C 	C 	0.888	0.07295	0.35851	0.268
Mof_C 	C 	0.88238	0.0301	0.38134	-0.123
Mof_C 	C 	0.82067	0.68395	0.70996	-0.227
Mof_C 	C 	0.87822	0.72186	0.73154	0.136
Mof_C 	C 	0.62178	0.45752	0.628	0.041
Mof_C 	C 	0.53163	0.4501	0.57475	0.056
Mof_C 	C 	0.83932	0.60466	0.68248	-0.225
Mof_C 	C 	0.7992	0.62398	0.68402	0.241
Mof_C 	C 	0.61509	0.51668	0.58523	0.072
Mof_C 	C 	0.56346	0.43335	0.60803	-0.103
Mof_C 	C 	0.8958	0.64492	0.70524	0.13
Mof_C 	C 	0.71444	0.52949	0.64149	0.261
Mof_C 	C 	0.64876	0.50104	0.61866	-0.091
Mof_C 	C 	0.29004	0.97399	0.11071	-0.26
Mof_C 	C 	0.26846	0.99032	0.14668	0.196
Mof_C 	C 	0.372	0.82952	0.99378	0.088
Mof_C 	C 	0.42525	0.87535	0.95688	0.069
Mof_C 	C 	0.31752	0.92218	0.15684	-0.236
Mof_C 	C 	0.31598	0.93996	0.11518	0.255
Mof_C 	C 	0.41477	0.93145	0.02986	0.057
Mof_C 	C 	0.39197	0.82532	0.95543	-0.122
Mof_C 	C 	0.29476	0.93968	0.19056	0.137
Mof_C 	C 	0.35851	0.888	0.07295	0.268
Mof_C 	C 	0.38134	0.88238	0.0301	-0.123
Mof_C 	C 	0.70996	0.82067	0.68395	-0.227
Mof_C 	C 	0.73154	0.87822	0.72186	0.136
Mof_C 	C 	0.628	0.62178	0.45752	0.041
Mof_C 	C 	0.57475	0.53163	0.4501	0.056
Mof_C 	C 	0.68248	0.83932	0.60466	-0.225
Mof_C 	C 	0.68402	0.7992	0.62398	0.241
Mof_C 	C 	0.58523	0.61509	0.51668	0.072
Mof_C 	C 	0.60803	0.56346	0.43335	-0.103
Mof_C 	C 	0.70524	0.8958	0.64492	0.13
Mof_C 	C 	0.64149	0.71444	0.52949	0.261
Mof_C 	C 	0.61866	0.64876	0.50104	-0.091
Mof_C 	C 	0.86328	0.17933	0.88929	-0.231
Mof_C 	C 	0.84364	0.12178	0.85332	0.14
Mof_C 	C 	0.83574	0.37822	0.00622	-0.005
Mof_C 	C 	0.91847	0.46837	0.04312	0.043
Mof_C 	C 	0.76534	0.16068	0.84316	-0.229
Mof_C 	C 	0.82478	0.2008	0.88482	0.245
Mof_C 	C 	0.90159	0.38491	0.97014	0.087
Mof_C 	C 	0.86989	0.43654	0.04457	-0.082
Mof_C 	C 	0.74912	0.1042	0.80944	0.13
Mof_C 	C 	0.81505	0.28556	0.92705	0.256
Mof_C 	C 	0.85228	0.35124	0.9699	-0.058
Mof_C 	C 	0.13672	0.02601	0.31605	-0.198
Mof_C 	C 	0.15636	0.00968	0.27814	0.076
Mof_C 	C 	0.16426	0.17048	0.54248	0.041
Mof_C 	C 	0.08153	0.12465	0.5499	0.056
Mof_C 	C 	0.23466	0.07782	0.39534	-0.217
Mof_C 	C 	0.17522	0.06004	0.37602	0.222
Mof_C 	C 	0.09841	0.06855	0.48332	0.07
Mof_C 	C 	0.13011	0.17468	0.56665	-0.106
Mof_C 	C 	0.25088	0.06032	0.35508	0.119
Mof_C 	C 	0.18495	0.112	0.47051	0.258
Mof_C 	C 	0.14772	0.11762	0.49896	-0.094
Mof_C 	C 	0.31605	0.13672	0.02601	-0.198
Mof_C 	C 	0.27814	0.15636	0.00968	0.076
Mof_C 	C 	0.54248	0.16426	0.17048	0.041
Mof_C 	C 	0.5499	0.08153	0.12465	0.056
Mof_C 	C 	0.39534	0.23466	0.07782	-0.217
Mof_C 	C 	0.37602	0.17522	0.06004	0.222
Mof_C 	C 	0.48332	0.09841	0.06855	0.07
Mof_C 	C 	0.56665	0.13011	0.17468	-0.106
Mof_C 	C 	0.35508	0.25088	0.06032	0.119
Mof_C 	C 	0.47051	0.18495	0.112	0.258
Mof_C 	C 	0.49896	0.14772	0.11762	-0.094
Mof_C 	C 	0.88929	0.86328	0.17933	-0.231
Mof_C 	C 	0.85332	0.84364	0.12178	0.14
Mof_C 	C 	0.00622	0.83574	0.37822	-0.005
Mof_C 	C 	0.04312	0.91847	0.46837	0.043
Mof_C 	C 	0.84316	0.76534	0.16068	-0.229
Mof_C 	C 	0.88482	0.82478	0.2008	0.245
Mof_C 	C 	0.97014	0.90159	0.38491	0.087
Mof_C 	C 	0.04457	0.86989	0.43654	-0.082
Mof_C 	C 	0.80944	0.74912	0.1042	0.13
Mof_C 	C 	0.92705	0.81505	0.28556	0.256
Mof_C 	C 	0.9699	0.85228	0.35124	-0.058
Mof_C 	C 	0.68395	0.70996	0.82067	-0.227
Mof_C 	C 	0.72186	0.73154	0.87822	0.136
Mof_C 	C 	0.45752	0.628	0.62178	0.041
Mof_C 	C 	0.4501	0.57475	0.53163	0.056
Mof_C 	C 	0.60466	0.68248	0.83932	-0.225
Mof_C 	C 	0.62398	0.68402	0.7992	0.241
Mof_C 	C 	0.51668	0.58523	0.61509	0.072
Mof_C 	C 	0.43335	0.60803	0.56346	-0.103
Mof_C 	C 	0.64492	0.70524	0.8958	0.13
Mof_C 	C 	0.52949	0.64149	0.71444	0.261
Mof_C 	C 	0.50104	0.61866	0.64876	-0.091
Mof_C 	C 	0.11071	0.29004	0.97399	-0.26
Mof_C 	C 	0.14668	0.26846	0.99032	0.196
Mof_C 	C 	0.99378	0.372	0.82952	0.088
Mof_C 	C 	0.95688	0.42525	0.87535	0.069
Mof_C 	C 	0.15684	0.31752	0.92218	-0.236
Mof_C 	C 	0.11518	0.31598	0.93996	0.255
Mof_C 	C 	0.02986	0.41477	0.93145	0.057
Mof_C 	C 	0.95543	0.39197	0.82532	-0.122
Mof_C 	C 	0.19056	0.29476	0.93968	0.137
Mof_C 	C 	0.07295	0.35851	0.888	0.268
Mof_C 	C 	0.0301	0.38134	0.88238	-0.123
Mof_C 	C 	0.11071	0.82067	0.13672	-0.228
Mof_C 	C 	0.14668	0.87822	0.15636	0.134
Mof_C 	C 	0.99378	0.62178	0.16426	0.088
Mof_C 	C 	0.95688	0.53163	0.08153	0.07
Mof_C 	C 	0.15684	0.83932	0.23466	-0.225
Mof_C 	C 	0.11518	0.7992	0.17522	0.237
Mof_C 	C 	0.02986	0.61509	0.09841	0.055
Mof_C 	C 	0.95543	0.56346	0.13011	-0.125
Mof_C 	C 	0.19056	0.8958	0.25088	0.128
Mof_C 	C 	0.07295	0.71444	0.18495	0.266
Mof_C 	C 	0.0301	0.64876	0.14772	-0.126
Mof_C 	C 	0.68395	0.97399	0.86328	-0.259
Mof_C 	C 	0.72186	0.99032	0.84364	0.196
Mof_C 	C 	0.45752	0.82952	0.83574	0.041
Mof_C 	C 	0.4501	0.87535	0.91847	0.056
Mof_C 	C 	0.60466	0.92218	0.76534	-0.236
Mof_C 	C 	0.62398	0.93996	0.82478	0.258
Mof_C 	C 	0.51668	0.93145	0.90159	0.073
Mof_C 	C 	0.43335	0.82532	0.86989	-0.1
Mof_C 	C 	0.64492	0.93968	0.74912	0.139
Mof_C 	C 	0.52949	0.888	0.81505	0.264
Mof_C 	C 	0.50104	0.88238	0.85228	-0.09
Mof_C 	C 	0.88929	0.02601	0.70996	-0.199
Mof_C 	C 	0.85332	0.00968	0.73154	0.08
Mof_C 	C 	0.00622	0.17048	0.628	-0.005
Mof_C 	C 	0.04312	0.12465	0.57475	0.043
Mof_C 	C 	0.84316	0.07782	0.68248	-0.218
Mof_C 	C 	0.88482	0.06004	0.68402	0.227
Mof_C 	C 	0.97014	0.06855	0.58523	0.086
Mof_C 	C 	0.04457	0.17468	0.60803	-0.085
Mof_C 	C 	0.80944	0.06032	0.70524	0.121
Mof_C 	C 	0.92705	0.112	0.64149	0.254
Mof_C 	C 	0.9699	0.11762	0.61866	-0.06
Mof_C 	C 	0.31605	0.17933	0.29004	-0.23
Mof_C 	C 	0.27814	0.12178	0.26846	0.137
Mof_C 	C 	0.54248	0.37822	0.372	0.041
Mof_C 	C 	0.5499	0.46837	0.42525	0.056
Mof_C 	C 	0.39534	0.16068	0.31752	-0.229
Mof_C 	C 	0.37602	0.2008	0.31598	0.241
Mof_C 	C 	0.48332	0.38491	0.41477	0.072
Mof_C 	C 	0.56665	0.43654	0.39197	-0.103
Mof_C 	C 	0.35508	0.1042	0.29476	0.128
Mof_C 	C 	0.47051	0.28556	0.35851	0.261
Mof_C 	C 	0.49896	0.35124	0.38134	-0.092
Mof_C 	C 	0.02601	0.70996	0.88929	-0.199
Mof_C 	C 	0.00968	0.73154	0.85332	0.08
Mof_C 	C 	0.17048	0.628	0.00622	-0.005
Mof_C 	C 	0.12465	0.57475	0.04312	0.043
Mof_C 	C 	0.07782	0.68248	0.84316	-0.218
Mof_C 	C 	0.06004	0.68402	0.88482	0.227
Mof_C 	C 	0.06855	0.58523	0.97014	0.086
Mof_C 	C 	0.17468	0.60803	0.04457	-0.085
Mof_C 	C 	0.06032	0.70524	0.80944	0.121
Mof_C 	C 	0.112	0.64149	0.92705	0.254
Mof_C 	C 	0.11762	0.61866	0.9699	-0.06
Mof_C 	C 	0.17933	0.29004	0.31605	-0.23
Mof_C 	C 	0.12178	0.26846	0.27814	0.137
Mof_C 	C 	0.37822	0.372	0.54248	0.041
Mof_C 	C 	0.46837	0.42525	0.5499	0.056
Mof_C 	C 	0.16068	0.31752	0.39534	-0.229
Mof_C 	C 	0.2008	0.31598	0.37602	0.241
Mof_C 	C 	0.38491	0.41477	0.48332	0.072
Mof_C 	C 	0.43654	0.39197	0.56665	-0.103
Mof_C 	C 	0.1042	0.29476	0.35508	0.128
Mof_C 	C 	0.28556	0.35851	0.47051	0.261
Mof_C 	C 	0.35124	0.38134	0.49896	-0.092
Mof_C 	C 	0.82067	0.13672	0.11071	-0.228
Mof_C 	C 	0.87822	0.15636	0.14668	0.134
Mof_C 	C 	0.62178	0.16426	0.99378	0.088
Mof_C 	C 	0.53163	0.08153	0.95688	0.07
Mof_C 	C 	0.83932	0.23466	0.15684	-0.225
Mof_C 	C 	0.7992	0.17522	0.11518	0.237
Mof_C 	C 	0.61509	0.09841	0.02986	0.055
Mof_C 	C 	0.56346	0.13011	0.95543	-0.125
Mof_C 	C 	0.8958	0.25088	0.19056	0.128
Mof_C 	C 	0.71444	0.18495	0.07295	0.266
Mof_C 	C 	0.64876	0.14772	0.0301	-0.126
Mof_C 	C 	0.97399	0.86328	0.68395	-0.259
Mof_C 	C 	0.99032	0.84364	0.72186	0.196
Mof_C 	C 	0.82952	0.83574	0.45752	0.041
Mof_C 	C 	0.87535	0.91847	0.4501	0.056
Mof_C 	C 	0.92218	0.76534	0.60466	-0.236
Mof_C 	C 	0.93996	0.82478	0.62398	0.258
Mof_C 	C 	0.93145	0.90159	0.51668	0.073
Mof_C 	C 	0.82532	0.86989	0.43335	-0.1
Mof_C 	C 	0.93968	0.74912	0.64492	0.139
Mof_C 	C 	0.888	0.81505	0.52949	0.264
Mof_C 	C 	0.88238	0.85228	0.50104	-0.09
Mof_C 	C 	0.86328	0.68395	0.97399	-0.259
Mof_C 	C 	0.84364	0.72186	0.99032	0.196
Mof_C 	C 	0.83574	0.45752	0.82952	0.041
Mof_C 	C 	0.91847	0.4501	0.87535	0.056
Mof_C 	C 	0.76534	0.60466	0.92218	-0.236
Mof_C 	C 	0.82478	0.62398	0.93996	0.258
Mof_C 	C 	0.90159	0.51668	0.93145	0.073
Mof_C 	C 	0.86989	0.43335	0.82532	-0.1
Mof_C 	C 	0.74912	0.64492	0.93968	0.139
Mof_C 	C 	0.81505	0.52949	0.888	0.264
Mof_C 	C 	0.85228	0.50104	0.88238	-0.09
Mof_C 	C 	0.13672	0.11071	0.82067	-0.228
Mof_C 	C 	0.15636	0.14668	0.87822	0.134
Mof_C 	C 	0.16426	0.99378	0.62178	0.088
Mof_C 	C 	0.08153	0.95688	0.53163	0.07
Mof_C 	C 	0.23466	0.15684	0.83932	-0.225
Mof_C 	C 	0.17522	0.11518	0.7992	0.237
Mof_C 	C 	0.09841	0.02986	0.61509	0.055
Mof_C 	C 	0.13011	0.95543	0.56346	-0.125
Mof_C 	C 	0.25088	0.19056	0.8958	0.128
Mof_C 	C 	0.18495	0.07295	0.71444	0.266
Mof_C 	C 	0.14772	0.0301	0.64876	-0.126
Mof_C 	C 	0.29004	0.31605	0.17933	-0.23
Mof_C 	C 	0.26846	0.27814	0.12178	0.137
Mof_C 	C 	0.372	0.54248	0.37822	0.041
Mof_C 	C 	0.42525	0.5499	0.46837	0.056
Mof_C 	C 	0.31752	0.39534	0.16068	-0.229
Mof_C 	C 	0.31598	0.37602	0.2008	0.241
Mof_C 	C 	0.41477	0.48332	0.38491	0.072
Mof_C 	C 	0.39197	0.56665	0.43654	-0.103
Mof_C 	C 	0.29476	0.35508	0.1042	0.128
Mof_C 	C 	0.35851	0.47051	0.28556	0.261
Mof_C 	C 	0.38134	0.49896	0.35124	-0.092
Mof_C 	C 	0.70996	0.88929	0.02601	-0.199
Mof_C 	C 	0.73154	0.85332	0.00968	0.08
Mof_C 	C 	0.628	0.00622	0.17048	-0.005
Mof_C 	C 	0.57475	0.04312	0.12465	0.043
Mof_C 	C 	0.68248	0.84316	0.07782	-0.218
Mof_C 	C 	0.68402	0.88482	0.06004	0.227
Mof_C 	C 	0.58523	0.97014	0.06855	0.086
Mof_C 	C 	0.60803	0.04457	0.17468	-0.085
Mof_C 	C 	0.70524	0.80944	0.06032	0.121
Mof_C 	C 	0.64149	0.92705	0.112	0.254
Mof_C 	C 	0.61866	0.9699	0.11762	-0.06
Mof_N 	N 	0.44205	0.00577	0.93402	-0.212
Mof_N 	N 	0.08363	0.8131	0.78719	-0.256
Mof_N 	N 	0.25855	0.92091	0.84636	-0.271
Mof_N 	N 	0.07175	0.50803	0.06598	-0.212
Mof_N 	N 	0.02591	0.29644	0.21281	-0.247
Mof_N 	N 	0.07455	0.41219	0.15364	-0.268
Mof_N 	N 	0.92825	0.99423	0.43628	-0.186
Mof_N 	N 	0.97409	0.1869	0.27053	-0.257
Mof_N 	N 	0.92545	0.07909	0.33764	-0.276
Mof_N 	N 	0.55795	0.49197	0.56372	-0.206
Mof_N 	N 	0.91637	0.70356	0.72947	-0.247
Mof_N 	N 	0.74145	0.58781	0.66236	-0.271
Mof_N 	N 	0.43628	0.92825	0.99423	-0.186
Mof_N 	N 	0.27053	0.97409	0.1869	-0.257
Mof_N 	N 	0.33764	0.92545	0.07909	-0.276
Mof_N 	N 	0.56372	0.55795	0.49197	-0.206
Mof_N 	N 	0.72947	0.91637	0.70356	-0.247
Mof_N 	N 	0.66236	0.74145	0.58781	-0.271
Mof_N 	N 	0.93402	0.44205	0.00577	-0.212
Mof_N 	N 	0.78719	0.08363	0.8131	-0.256
Mof_N 	N 	0.84636	0.25855	0.92091	-0.271
Mof_N 	N 	0.06598	0.07175	0.50803	-0.212
Mof_N 	N 	0.21281	0.02591	0.29644	-0.247
Mof_N 	N 	0.15364	0.07455	0.41219	-0.268
Mof_N 	N 	0.50803	0.06598	0.07175	-0.212
Mof_N 	N 	0.29644	0.21281	0.02591	-0.247
Mof_N 	N 	0.41219	0.15364	0.07455	-0.268
Mof_N 	N 	0.00577	0.93402	0.44205	-0.212
Mof_N 	N 	0.8131	0.78719	0.08363	-0.256
Mof_N 	N 	0.92091	0.84636	0.25855	-0.271
Mof_N 	N 	0.49197	0.56372	0.55795	-0.206
Mof_N 	N 	0.70356	0.72947	0.91637	-0.247
Mof_N 	N 	0.58781	0.66236	0.74145	-0.271
Mof_N 	N 	0.99423	0.43628	0.92825	-0.186
Mof_N 	N 	0.1869	0.27053	0.97409	-0.257
Mof_N 	N 	0.07909	0.33764	0.92545	-0.276
Mof_N 	N 	0.99423	0.55795	0.06598	-0.194
Mof_N 	N 	0.1869	0.91637	0.21281	-0.247
Mof_N 	N 	0.07909	0.74145	0.15364	-0.272
Mof_N 	N 	0.49197	0.92825	0.93402	-0.195
Mof_N 	N 	0.70356	0.97409	0.78719	-0.257
Mof_N 	N 	0.58781	0.92545	0.84636	-0.275
Mof_N 	N 	0.00577	0.07175	0.56372	-0.221
Mof_N 	N 	0.8131	0.02591	0.72947	-0.247
Mof_N 	N 	0.92091	0.07455	0.66236	-0.268
Mof_N 	N 	0.50803	0.44205	0.43628	-0.206
Mof_N 	N 	0.29644	0.08363	0.27053	-0.256
Mof_N 	N 	0.41219	0.25855	0.33764	-0.272
Mof_N 	N 	0.07175	0.56372	0.00577	-0.221
Mof_N 	N 	0.02591	0.72947	0.8131	-0.247
Mof_N 	N 	0.07455	0.66236	0.92091	-0.268
Mof_N 	N 	0.44205	0.43628	0.50803	-0.206
Mof_N 	N 	0.08363	0.27053	0.29644	-0.256
Mof_N 	N 	0.25855	0.33764	0.41219	-0.272
Mof_N 	N 	0.55795	0.06598	0.99423	-0.194
Mof_N 	N 	0.91637	0.21281	0.1869	-0.247
Mof_N 	N 	0.74145	0.15364	0.07909	-0.272
Mof_N 	N 	0.92825	0.93402	0.49197	-0.195
Mof_N 	N 	0.97409	0.78719	0.70356	-0.257
Mof_N 	N 	0.92545	0.84636	0.58781	-0.275
Mof_N 	N 	0.93402	0.49197	0.92825	-0.195
Mof_N 	N 	0.78719	0.70356	0.97409	-0.257
Mof_N 	N 	0.84636	0.58781	0.92545	-0.275
Mof_N 	N 	0.06598	0.99423	0.55795	-0.194
Mof_N 	N 	0.21281	0.1869	0.91637	-0.247
Mof_N 	N 	0.15364	0.07909	0.74145	-0.272
Mof_N 	N 	0.43628	0.50803	0.44205	-0.206
Mof_N 	N 	0.27053	0.29644	0.08363	-0.256
Mof_N 	N 	0.33764	0.41219	0.25855	-0.272
Mof_N 	N 	0.56372	0.00577	0.07175	-0.221
Mof_N 	N 	0.72947	0.8131	0.02591	-0.247
Mof_N 	N 	0.66236	0.92091	0.07455	-0.268
Mof_O 	O 	0.26239	0.90454	0.76313	-0.235
Mof_O 	O 	0.14141	0.49926	0.23687	-0.243
Mof_O 	O 	0.85859	0.09546	0.35785	-0.248
Mof_O 	O 	0.73761	0.50074	0.64215	-0.24
Mof_O 	O 	0.35785	0.85859	0.09546	-0.248
Mof_O 	O 	0.64215	0.73761	0.50074	-0.24
Mof_O 	O 	0.76313	0.26239	0.90454	-0.235
Mof_O 	O 	0.23687	0.14141	0.49926	-0.243
Mof_O 	O 	0.49926	0.23687	0.14141	-0.243
Mof_O 	O 	0.90454	0.76313	0.26239	-0.235
Mof_O 	O 	0.50074	0.64215	0.73761	-0.24
Mof_O 	O 	0.09546	0.35785	0.85859	-0.248
Mof_O 	O 	0.09546	0.73761	0.23687	-0.248
Mof_O 	O 	0.50074	0.85859	0.76313	-0.24
Mof_O 	O 	0.90454	0.14141	0.64215	-0.235
Mof_O 	O 	0.49926	0.26239	0.35785	-0.243
Mof_O 	O 	0.14141	0.64215	0.90454	-0.235
Mof_O 	O 	0.26239	0.35785	0.49926	-0.243
Mof_O 	O 	0.73761	0.23687	0.09546	-0.248
Mof_O 	O 	0.85859	0.76313	0.50074	-0.24
Mof_O 	O 	0.76313	0.50074	0.85859	-0.24
Mof_O 	O 	0.23687	0.09546	0.73761	-0.248
Mof_O 	O 	0.35785	0.49926	0.26239	-0.243
Mof_O 	O 	0.64215	0.90454	0.14141	-0.235
Mof_N 	N 	0.33388	0	-0	0.011
Mof_O 	O 	0.3295	0.02005	0.96635	-0.132
Mof_O 	O 	0.30945	0.9463	0.97995	-0.108
Mof_O 	O 	0.36315	0.03365	0.0537	-0.155
Mof_N 	N 	0.1944	0	-0	0.012
Mof_O 	O 	0.18144	0.01018	0.95926	-0.095
Mof_O 	O 	0.17126	0.94908	0.98982	-0.066
Mof_O 	O 	0.22218	0.04074	0.05092	-0.115
Mof_N 	N 	-1.33058e-17	0.33388	-0	0.011
Mof_O 	O 	0.0537	0.36315	0.03365	-0.155
Mof_O 	O 	0.96635	0.3295	0.02005	-0.132
Mof_O 	O 	0.97995	0.30945	0.9463	-0.108
Mof_N 	N 	-1.33058e-17	0.1944	-0	0.012
Mof_O 	O 	0.05092	0.22218	0.04074	-0.115
Mof_O 	O 	0.95926	0.18144	0.01018	-0.095
Mof_O 	O 	0.98982	0.17126	0.94908	-0.066
Mof_N 	N 	-6.65289e-18	0	0.33388	0.011
Mof_O 	O 	0.9463	0.97995	0.30945	-0.108
Mof_O 	O 	0.03365	0.0537	0.36315	-0.155
Mof_O 	O 	0.02005	0.96635	0.3295	-0.132
Mof_N 	N 	-0	0	0.1944	0.012
Mof_O 	O 	0.94908	0.98982	0.17126	-0.066
Mof_O 	O 	0.04074	0.05092	0.22218	-0.115
Mof_O 	O 	0.01018	0.95926	0.18144	-0.095
Mof_N 	N 	0.66612	0.66612	0.66612	0.048
Mof_O 	O 	0.6705	0.63685	0.69055	-0.145
Mof_O 	O 	0.69055	0.6705	0.63685	-0.145
Mof_O 	O 	0.63685	0.69055	0.6705	-0.145
Mof_N 	N 	0.8056	0.8056	0.8056	0.049
Mof_O 	O 	0.81856	0.77782	0.82874	-0.099
Mof_O 	O 	0.82874	0.81856	0.77782	-0.099
Mof_O 	O 	0.77782	0.82874	0.81856	-0.099
Mof_N 	N 	-0	0.66612	-0	0.011
Mof_O 	O 	0.97995	0.6705	0.03365	-0.131
Mof_O 	O 	0.0537	0.69055	0.02005	-0.156
Mof_O 	O 	0.96635	0.63685	0.9463	-0.109
Mof_N 	N 	-0	0.8056	-0	0.013
Mof_O 	O 	0.98982	0.81856	0.04074	-0.085
Mof_O 	O 	0.05092	0.82874	0.01018	-0.115
Mof_O 	O 	0.95926	0.77782	0.94908	-0.067
Mof_N 	N 	0.66612	0	-0	0.011
Mof_O 	O 	0.63685	0.9463	0.96635	-0.109
Mof_O 	O 	0.6705	0.03365	0.97995	-0.131
Mof_O 	O 	0.69055	0.02005	0.0537	-0.156
Mof_N 	N 	0.8056	0	-0	0.013
Mof_O 	O 	0.77782	0.94908	0.95926	-0.067
Mof_O 	O 	0.81856	0.04074	0.98982	-0.085
Mof_O 	O 	0.82874	0.01018	0.05092	-0.115
Mof_N 	N 	1.33058e-17	0	0.66612	0.011
Mof_O 	O 	0.02005	0.0537	0.69055	-0.156
Mof_O 	O 	0.9463	0.96635	0.63685	-0.109
Mof_O 	O 	0.03365	0.97995	0.6705	-0.131
Mof_N 	N 	-0	-5.32231e-17	0.8056	0.013
Mof_O 	O 	0.01018	0.05092	0.82874	-0.115
Mof_O 	O 	0.94908	0.95926	0.77782	-0.067
Mof_O 	O 	0.04074	0.98982	0.81856	-0.085
Mof_N 	N 	0.33388	0.33388	0.33388	0.048
Mof_O 	O 	0.36315	0.3295	0.30945	-0.145
Mof_O 	O 	0.3295	0.30945	0.36315	-0.145
Mof_O 	O 	0.30945	0.36315	0.3295	-0.145
Mof_N 	N 	0.1944	0.1944	0.1944	0.05
Mof_O 	O 	0.22218	0.18144	0.17126	-0.108
Mof_O 	O 	0.18144	0.17126	0.22218	-0.108
Mof_O 	O 	0.17126	0.22218	0.18144	-0.108
_end
