# CIF file generated by openbabel 3.1.0, see https://openbabel.org
data_I
_chemical_name_common 'image0'
_cell_length_a 11.8429
_cell_length_b 13.4829
_cell_length_c 11.6921
_cell_angle_alpha 90
_cell_angle_beta 90
_cell_angle_gamma 90
_space_group_name_H-M_alt 'P 1'
_space_group_name_Hall 'P 1'
loop_
    _symmetry_equiv_pos_as_xyz
    x,y,z
loop_
    _atom_site_label
    _atom_site_type_symbol
    _atom_site_fract_x
    _atom_site_fract_y
    _atom_site_fract_z
    _atom_site_occupancy
    S1       S        0.96153    0.74019    0.27910    1.000
    O1       O        0.03580    0.82750    0.28470    1.000
    O2       O        0.91590    0.71420    0.38900    1.000
    O3       O        0.87820    0.74960    0.19140    1.000
    C1       C        0.04930    0.64070    0.24080    1.000
    C2       C        0.10840    0.57760    0.31490    1.000
    H1       H        0.10760    0.58050    0.39430    1.000
    C3       C        0.16960    0.50900    0.24800    1.000
    H2       H        0.21620    0.45910    0.27590    1.000
    C4       C        0.14760    0.52930    0.13050    1.000
    H3       H        0.17590    0.49350    0.06880    1.000
    C5       C        0.07500    0.61340    0.12320    1.000
    H4       H        0.04950    0.64440    0.05700    1.000
    S2       S        0.03847    0.25981    0.27910    1.000
    O4       O        0.96420    0.17250    0.28470    1.000
    O5       O        0.08410    0.28580    0.38900    1.000
    O6       O        0.12180    0.25040    0.19140    1.000
    C6       C        0.95070    0.35930    0.24080    1.000
    C7       C        0.89160    0.42240    0.31490    1.000
    H5       H        0.89240    0.41950    0.39430    1.000
    C8       C        0.83040    0.49100    0.24800    1.000
    H6       H        0.78380    0.54090    0.27590    1.000
    C9       C        0.85240    0.47070    0.13050    1.000
    H7       H        0.82410    0.50650    0.06880    1.000
    C10      C        0.92500    0.38660    0.12320    1.000
    H8       H        0.95050    0.35560    0.05700    1.000
    Fe1      Fe       0.00000    0.50000    0.21339    1.000
    S3       S        0.53847    0.24019    0.72090    1.000
    O7       O        0.46420    0.32750    0.71530    1.000
    O8       O        0.58410    0.21420    0.61100    1.000
    O9       O        0.62180    0.24960    0.80860    1.000
    C11      C        0.45070    0.14070    0.75920    1.000
    C12      C        0.39160    0.07760    0.68510    1.000
    H9       H        0.39240    0.08050    0.60570    1.000
    C13      C        0.33040    0.00900    0.75200    1.000
    H10      H        0.28380    0.95910    0.72410    1.000
    C14      C        0.35240    0.02930    0.86950    1.000
    H11      H        0.32410    0.99350    0.93120    1.000
    C15      C        0.42500    0.11340    0.87680    1.000
    H12      H        0.45050    0.14440    0.94300    1.000
    S4       S        0.46153    0.75981    0.72090    1.000
    O10      O        0.53580    0.67250    0.71530    1.000
    O11      O        0.41590    0.78580    0.61100    1.000
    O12      O        0.37820    0.75040    0.80860    1.000
    C16      C        0.54930    0.85930    0.75920    1.000
    C17      C        0.60840    0.92240    0.68510    1.000
    H13      H        0.60760    0.91950    0.60570    1.000
    C18      C        0.66960    0.99100    0.75200    1.000
    H14      H        0.71620    0.04090    0.72410    1.000
    C19      C        0.64760    0.97070    0.86950    1.000
    H15      H        0.67590    0.00650    0.93120    1.000
    C20      C        0.57500    0.88660    0.87680    1.000
    H16      H        0.54950    0.85560    0.94300    1.000
    Fe2      Fe       0.50000    0.00000    0.78661    1.000
    C21      C        0.04610    0.92350    0.02570    1.000
    H17      H        0.07860    0.87110    0.06550    1.000
    C22      C        0.04570    0.92210    0.90700    1.000
    H18      H        0.07640    0.86830    0.86820    1.000
    C23      C        0.94970    0.92440    0.65860    1.000
    H19      H        0.91510    0.87210    0.69680    1.000
    C24      C        0.95070    0.92640    0.54000    1.000
    H20      H        0.91610    0.87510    0.50000    1.000
    C25      C        0.95390    0.07650    0.02570    1.000
    H21      H        0.92140    0.12890    0.06550    1.000
    C26      C        0.95430    0.07790    0.90700    1.000
    H22      H        0.92360    0.13170    0.86820    1.000
    C27      C        0.05030    0.07560    0.65860    1.000
    H23      H        0.08490    0.12790    0.69680    1.000
    C28      C        0.04930    0.07360    0.54000    1.000
    H24      H        0.08390    0.12490    0.50000    1.000
    Cu1      Cu       0.00000    0.00000    0.28270    1.000
    N1       N        0.00000    0.00000    0.08450    1.000
    N2       N        0.00000    0.00000    0.48130    1.000
    C29      C        0.00000    0.00000    0.84610    1.000
    C30      C        0.00000    0.00000    0.72050    1.000
    C31      C        0.45390    0.42350    0.97430    1.000
    H25      H        0.42140    0.37110    0.93450    1.000
    C32      C        0.45430    0.42210    0.09300    1.000
    H26      H        0.42360    0.36830    0.13180    1.000
    C33      C        0.55030    0.42440    0.34140    1.000
    H27      H        0.58490    0.37210    0.30320    1.000
    C34      C        0.54930    0.42640    0.46000    1.000
    H28      H        0.58390    0.37510    0.50000    1.000
    C35      C        0.54610    0.57650    0.97430    1.000
    H29      H        0.57860    0.62890    0.93450    1.000
    C36      C        0.54570    0.57790    0.09300    1.000
    H30      H        0.57640    0.63170    0.13180    1.000
    C37      C        0.44970    0.57560    0.34140    1.000
    H31      H        0.41510    0.62790    0.30320    1.000
    C38      C        0.45070    0.57360    0.46000    1.000
    H32      H        0.41610    0.62490    0.50000    1.000
    Cu2      Cu       0.50000    0.50000    0.71730    1.000
    N3       N        0.50000    0.50000    0.91550    1.000
    N4       N        0.50000    0.50000    0.51870    1.000
    C39      C        0.50000    0.50000    0.15390    1.000
    C40      C        0.50000    0.50000    0.27950    1.000
    N5       N        0.79810    0.99530    0.28530    1.000
    C41      C        0.73820    0.95540    0.20280    1.000
    H33      H        0.77610    0.92360    0.14360    1.000
    C42      C        0.62120    0.95820    0.19950    1.000
    H34      H        0.58250    0.93140    0.13750    1.000
    C43      C        0.56330    0.00040    0.28760    1.000
    C44      C        0.62440    0.04210    0.37470    1.000
    H35      H        0.58750    0.07110    0.43640    1.000
    C45      C        0.74250    0.04090    0.37040    1.000
    H36      H        0.78340    0.07250    0.42770    1.000
    N6       N        0.20190    0.00470    0.28530    1.000
    C46      C        0.26180    0.04460    0.20280    1.000
    H37      H        0.22390    0.07640    0.14360    1.000
    C47      C        0.37880    0.04180    0.19950    1.000
    H38      H        0.41750    0.06860    0.13750    1.000
    C48      C        0.43670    0.99960    0.28760    1.000
    C49      C        0.37560    0.95790    0.37470    1.000
    H39      H        0.41250    0.92890    0.43640    1.000
    C50      C        0.25750    0.95910    0.37040    1.000
    H40      H        0.21660    0.92750    0.42770    1.000
    N7       N        0.70190    0.49530    0.71470    1.000
    C51      C        0.76180    0.45540    0.79720    1.000
    H41      H        0.72390    0.42360    0.85640    1.000
    C52      C        0.87880    0.45820    0.80050    1.000
    H42      H        0.91750    0.43140    0.86250    1.000
    C53      C        0.93670    0.50040    0.71240    1.000
    C54      C        0.87560    0.54210    0.62530    1.000
    H43      H        0.91250    0.57110    0.56360    1.000
    C55      C        0.75750    0.54090    0.62960    1.000
    H44      H        0.71660    0.57250    0.57230    1.000
    N8       N        0.29810    0.50470    0.71470    1.000
    C56      C        0.23820    0.54460    0.79720    1.000
    H45      H        0.27610    0.57640    0.85640    1.000
    C57      C        0.12120    0.54180    0.80050    1.000
    H46      H        0.08250    0.56860    0.86250    1.000
    C58      C        0.06330    0.49960    0.71240    1.000
    C59      C        0.12440    0.45790    0.62530    1.000
    H47      H        0.08750    0.42890    0.56360    1.000
    C60      C        0.24250    0.45910    0.62960    1.000
    H48      H        0.28340    0.42750    0.57230    1.000
