# CIF file generated by openbabel 3.1.0, see https://openbabel.org
data_I
_chemical_name_common 'image0'
_cell_length_a 14.053
_cell_length_b 14.053
_cell_length_c 29.781
_cell_angle_alpha 90
_cell_angle_beta 90
_cell_angle_gamma 90
_space_group_name_H-M_alt 'P 1'
_space_group_name_Hall 'P 1'
loop_
    _symmetry_equiv_pos_as_xyz
    x,y,z
loop_
    _atom_site_label
    _atom_site_type_symbol
    _atom_site_fract_x
    _atom_site_fract_y
    _atom_site_fract_z
    _atom_site_occupancy
    Co1      Co       0.42915    0.16248    0.08823    1.000
    O1       O        0.42350    0.30920    0.09251    1.000
    N1       N        0.42230    0.15440    0.01789    1.000
    C1       C        0.39980    0.14540    0.98151    1.000
    N2       N        0.38320    0.13110    0.93912    1.000
    N3       N        0.27890    0.14100    0.09002    1.000
    C2       C        0.29510    0.13860    0.92520    1.000
    C3       C        0.35870    0.36020    0.06340    1.000
    Co2      Co       0.92915    0.66248    0.58823    1.000
    O2       O        0.92350    0.80920    0.59251    1.000
    N4       N        0.92230    0.65440    0.51789    1.000
    C4       C        0.89980    0.64540    0.48151    1.000
    N5       N        0.88320    0.63110    0.43912    1.000
    N6       N        0.77890    0.64100    0.59002    1.000
    C5       C        0.79510    0.63860    0.42520    1.000
    C6       C        0.85870    0.86020    0.56340    1.000
    Co3      Co       0.07085    0.83752    0.58823    1.000
    O3       O        0.07650    0.69080    0.59251    1.000
    N7       N        0.07770    0.84560    0.51789    1.000
    C7       C        0.10020    0.85460    0.48151    1.000
    N8       N        0.11680    0.86890    0.43912    1.000
    N9       N        0.22110    0.85900    0.59002    1.000
    C8       C        0.20490    0.86140    0.42520    1.000
    C9       C        0.14130    0.63980    0.56340    1.000
    Co4      Co       0.57085    0.33752    0.08823    1.000
    O4       O        0.57650    0.19080    0.09251    1.000
    N10      N        0.57770    0.34560    0.01789    1.000
    C10      C        0.60020    0.35460    0.98151    1.000
    N11      N        0.61680    0.36890    0.93912    1.000
    N12      N        0.72110    0.35900    0.09002    1.000
    C11      C        0.70490    0.36140    0.92520    1.000
    C12      C        0.64130    0.13980    0.06340    1.000
    Co5      Co       0.07085    0.16248    0.91177    1.000
    O5       O        0.07650    0.30920    0.90749    1.000
    N13      N        0.07770    0.15440    0.98211    1.000
    C13      C        0.10020    0.14540    0.01849    1.000
    N14      N        0.11680    0.13110    0.06088    1.000
    N15      N        0.22110    0.14100    0.90998    1.000
    C14      C        0.20490    0.13860    0.07480    1.000
    C15      C        0.14130    0.36020    0.93660    1.000
    Co6      Co       0.57085    0.66248    0.41177    1.000
    O6       O        0.57650    0.80920    0.40749    1.000
    N16      N        0.57770    0.65440    0.48211    1.000
    C16      C        0.60020    0.64540    0.51849    1.000
    N17      N        0.61680    0.63110    0.56088    1.000
    N18      N        0.72110    0.64100    0.40998    1.000
    C17      C        0.70490    0.63860    0.57480    1.000
    C18      C        0.64130    0.86020    0.43660    1.000
    Co7      Co       0.42915    0.83752    0.41177    1.000
    O7       O        0.42350    0.69080    0.40749    1.000
    N19      N        0.42230    0.84560    0.48211    1.000
    C19      C        0.39980    0.85460    0.51849    1.000
    N20      N        0.38320    0.86890    0.56088    1.000
    N21      N        0.27890    0.85900    0.40998    1.000
    C20      C        0.29510    0.86140    0.57480    1.000
    C21      C        0.35870    0.63980    0.43660    1.000
    Co8      Co       0.92915    0.33752    0.91177    1.000
    O8       O        0.92350    0.19080    0.90749    1.000
    N22      N        0.92230    0.34560    0.98211    1.000
    C22      C        0.89980    0.35460    0.01849    1.000
    N23      N        0.88320    0.36890    0.06088    1.000
    N24      N        0.77890    0.35900    0.90998    1.000
    C23      C        0.79510    0.36140    0.07480    1.000
    C24      C        0.85870    0.13980    0.93660    1.000
    Co9      Co       0.91248    0.82085    0.66177    1.000
    O9       O        0.05920    0.82650    0.65749    1.000
    N25      N        0.90440    0.82770    0.73211    1.000
    C25      C        0.89540    0.85020    0.76849    1.000
    N26      N        0.88110    0.86680    0.81088    1.000
    N27      N        0.89100    0.97110    0.65998    1.000
    C26      C        0.88860    0.95490    0.82480    1.000
    C27      C        0.11020    0.89130    0.68660    1.000
    Co10     Co       0.41248    0.32085    0.16177    1.000
    O10      O        0.55920    0.32650    0.15749    1.000
    N28      N        0.40440    0.32770    0.23211    1.000
    C28      C        0.39540    0.35020    0.26849    1.000
    N29      N        0.38110    0.36680    0.31088    1.000
    N30      N        0.39100    0.47110    0.15998    1.000
    C29      C        0.38860    0.45490    0.32480    1.000
    C30      C        0.61020    0.39130    0.18660    1.000
    Co11     Co       0.58752    0.17915    0.16177    1.000
    O11      O        0.44080    0.17350    0.15749    1.000
    N31      N        0.59560    0.17230    0.23211    1.000
    C31      C        0.60460    0.14980    0.26849    1.000
    N32      N        0.61890    0.13320    0.31088    1.000
    N33      N        0.60900    0.02890    0.15998    1.000
    C32      C        0.61140    0.04510    0.32480    1.000
    C33      C        0.38980    0.10870    0.18660    1.000
    Co12     Co       0.08752    0.67915    0.66177    1.000
    O12      O        0.94080    0.67350    0.65749    1.000
    N34      N        0.09560    0.67230    0.73211    1.000
    C34      C        0.10460    0.64980    0.76849    1.000
    N35      N        0.11890    0.63320    0.81088    1.000
    N36      N        0.10900    0.52890    0.65998    1.000
    C35      C        0.11140    0.54510    0.82480    1.000
    C36      C        0.88980    0.60870    0.68660    1.000
    Co13     Co       0.58752    0.82085    0.33823    1.000
    O13      O        0.44080    0.82650    0.34251    1.000
    N37      N        0.59560    0.82770    0.26789    1.000
    C37      C        0.60460    0.85020    0.23151    1.000
    N38      N        0.61890    0.86680    0.18912    1.000
    N39      N        0.60900    0.97110    0.34002    1.000
    C38      C        0.61140    0.95490    0.17520    1.000
    C39      C        0.38980    0.89130    0.31340    1.000
    Co14     Co       0.08752    0.32085    0.83823    1.000
    O14      O        0.94080    0.32650    0.84251    1.000
    N40      N        0.09560    0.32770    0.76789    1.000
    C40      C        0.10460    0.35020    0.73151    1.000
    N41      N        0.11890    0.36680    0.68912    1.000
    N42      N        0.10900    0.47110    0.84002    1.000
    C41      C        0.11140    0.45490    0.67520    1.000
    C42      C        0.88980    0.39130    0.81340    1.000
    Co15     Co       0.91248    0.17915    0.83823    1.000
    O15      O        0.05920    0.17350    0.84251    1.000
    N43      N        0.90440    0.17230    0.76789    1.000
    C43      C        0.89540    0.14980    0.73151    1.000
    N44      N        0.88110    0.13320    0.68912    1.000
    N45      N        0.89100    0.02890    0.84002    1.000
    C44      C        0.88860    0.04510    0.67520    1.000
    C45      C        0.11020    0.10870    0.81340    1.000
    Co16     Co       0.41248    0.67915    0.33823    1.000
    O16      O        0.55920    0.67350    0.34251    1.000
    N46      N        0.40440    0.67230    0.26789    1.000
    C46      C        0.39540    0.64980    0.23151    1.000
    N47      N        0.38110    0.63320    0.18912    1.000
    N48      N        0.39100    0.52890    0.34002    1.000
    C47      C        0.38860    0.54510    0.17520    1.000
    C48      C        0.61020    0.60870    0.31340    1.000
    Co17     Co       0.08752    0.17915    0.33823    1.000
    O17      O        0.94080    0.17350    0.34251    1.000
    N49      N        0.09560    0.17230    0.26789    1.000
    C49      C        0.10460    0.14980    0.23151    1.000
    N50      N        0.11890    0.13320    0.18912    1.000
    N51      N        0.10900    0.02890    0.34002    1.000
    C50      C        0.11140    0.04510    0.17520    1.000
    C51      C        0.88980    0.10870    0.31340    1.000
    Co18     Co       0.58752    0.67915    0.83823    1.000
    O18      O        0.44080    0.67350    0.84251    1.000
    N52      N        0.59560    0.67230    0.76789    1.000
    C52      C        0.60460    0.64980    0.73151    1.000
    N53      N        0.61890    0.63320    0.68912    1.000
    N54      N        0.60900    0.52890    0.84002    1.000
    C53      C        0.61140    0.54510    0.67520    1.000
    C54      C        0.38980    0.60870    0.81340    1.000
    Co19     Co       0.41248    0.82085    0.83823    1.000
    O19      O        0.55920    0.82650    0.84251    1.000
    N55      N        0.40440    0.82770    0.76789    1.000
    C55      C        0.39540    0.85020    0.73151    1.000
    N56      N        0.38110    0.86680    0.68912    1.000
    N57      N        0.39100    0.97110    0.84002    1.000
    C56      C        0.38860    0.95490    0.67520    1.000
    C57      C        0.61020    0.89130    0.81340    1.000
    Co20     Co       0.91248    0.32085    0.33823    1.000
    O20      O        0.05920    0.32650    0.34251    1.000
    N58      N        0.90440    0.32770    0.26789    1.000
    C58      C        0.89540    0.35020    0.23151    1.000
    N59      N        0.88110    0.36680    0.18912    1.000
    N60      N        0.89100    0.47110    0.34002    1.000
    C59      C        0.88860    0.45490    0.17520    1.000
    C60      C        0.11020    0.39130    0.31340    1.000
    Co21     Co       0.41248    0.17915    0.66177    1.000
    O21      O        0.55920    0.17350    0.65749    1.000
    N61      N        0.40440    0.17230    0.73211    1.000
    C61      C        0.39540    0.14980    0.76849    1.000
    N62      N        0.38110    0.13320    0.81088    1.000
    N63      N        0.39100    0.02890    0.65998    1.000
    C62      C        0.38860    0.04510    0.82480    1.000
    C63      C        0.61020    0.10870    0.68660    1.000
    Co22     Co       0.91248    0.67915    0.16177    1.000
    O22      O        0.05920    0.67350    0.15749    1.000
    N64      N        0.90440    0.67230    0.23211    1.000
    C64      C        0.89540    0.64980    0.26849    1.000
    N65      N        0.88110    0.63320    0.31088    1.000
    N66      N        0.89100    0.52890    0.15998    1.000
    C65      C        0.88860    0.54510    0.32480    1.000
    C66      C        0.11020    0.60870    0.18660    1.000
    Co23     Co       0.08752    0.82085    0.16177    1.000
    O23      O        0.94080    0.82650    0.15749    1.000
    N67      N        0.09560    0.82770    0.23211    1.000
    C67      C        0.10460    0.85020    0.26849    1.000
    N68      N        0.11890    0.86680    0.31088    1.000
    N69      N        0.10900    0.97110    0.15998    1.000
    C68      C        0.11140    0.95490    0.32480    1.000
    C69      C        0.88980    0.89130    0.18660    1.000
    Co24     Co       0.58752    0.32085    0.66177    1.000
    O24      O        0.44080    0.32650    0.65749    1.000
    N70      N        0.59560    0.32770    0.73211    1.000
    C70      C        0.60460    0.35020    0.76849    1.000
    N71      N        0.61890    0.36680    0.81088    1.000
    N72      N        0.60900    0.47110    0.65998    1.000
    C71      C        0.61140    0.45490    0.82480    1.000
    C72      C        0.38980    0.39130    0.68660    1.000
    Co25     Co       0.57085    0.83752    0.91177    1.000
    O25      O        0.57650    0.69080    0.90749    1.000
    N73      N        0.57770    0.84560    0.98211    1.000
    C73      C        0.60020    0.85460    0.01849    1.000
    N74      N        0.61680    0.86890    0.06088    1.000
    N75      N        0.72110    0.85900    0.90998    1.000
    C74      C        0.70490    0.86140    0.07480    1.000
    C75      C        0.64130    0.63980    0.93660    1.000
    Co26     Co       0.07085    0.33752    0.41177    1.000
    O26      O        0.07650    0.19080    0.40749    1.000
    N76      N        0.07770    0.34560    0.48211    1.000
    C76      C        0.10020    0.35460    0.51849    1.000
    N77      N        0.11680    0.36890    0.56088    1.000
    N78      N        0.22110    0.35900    0.40998    1.000
    C77      C        0.20490    0.36140    0.57480    1.000
    C78      C        0.14130    0.13980    0.43660    1.000
    Co27     Co       0.92915    0.16248    0.41177    1.000
    O27      O        0.92350    0.30920    0.40749    1.000
    N79      N        0.92230    0.15440    0.48211    1.000
    C79      C        0.89980    0.14540    0.51849    1.000
    N80      N        0.88320    0.13110    0.56088    1.000
    N81      N        0.77890    0.14100    0.40998    1.000
    C80      C        0.79510    0.13860    0.57480    1.000
    C81      C        0.85870    0.36020    0.43660    1.000
    Co28     Co       0.42915    0.66248    0.91177    1.000
    O28      O        0.42350    0.80920    0.90749    1.000
    N82      N        0.42230    0.65440    0.98211    1.000
    C82      C        0.39980    0.64540    0.01849    1.000
    N83      N        0.38320    0.63110    0.06088    1.000
    N84      N        0.27890    0.64100    0.90998    1.000
    C83      C        0.29510    0.63860    0.07480    1.000
    C84      C        0.35870    0.86020    0.93660    1.000
    Co29     Co       0.92915    0.83752    0.08823    1.000
    O29      O        0.92350    0.69080    0.09251    1.000
    N85      N        0.92230    0.84560    0.01789    1.000
    C85      C        0.89980    0.85460    0.98151    1.000
    N86      N        0.88320    0.86890    0.93912    1.000
    N87      N        0.77890    0.85900    0.09002    1.000
    C86      C        0.79510    0.86140    0.92520    1.000
    C87      C        0.85870    0.63980    0.06340    1.000
    Co30     Co       0.42915    0.33752    0.58823    1.000
    O30      O        0.42350    0.19080    0.59251    1.000
    N88      N        0.42230    0.34560    0.51789    1.000
    C88      C        0.39980    0.35460    0.48151    1.000
    N89      N        0.38320    0.36890    0.43912    1.000
    N90      N        0.27890    0.35900    0.59002    1.000
    C89      C        0.29510    0.36140    0.42520    1.000
    C90      C        0.35870    0.13980    0.56340    1.000
    Co31     Co       0.57085    0.16248    0.58823    1.000
    O31      O        0.57650    0.30920    0.59251    1.000
    N91      N        0.57770    0.15440    0.51789    1.000
    C91      C        0.60020    0.14540    0.48151    1.000
    N92      N        0.61680    0.13110    0.43912    1.000
    N93      N        0.72110    0.14100    0.59002    1.000
    C92      C        0.70490    0.13860    0.42520    1.000
    C93      C        0.64130    0.36020    0.56340    1.000
    Co32     Co       0.07085    0.66248    0.08823    1.000
    O32      O        0.07650    0.80920    0.09251    1.000
    N94      N        0.07770    0.65440    0.01789    1.000
    C94      C        0.10020    0.64540    0.98151    1.000
    N95      N        0.11680    0.63110    0.93912    1.000
    N96      N        0.22110    0.64100    0.09002    1.000
    C95      C        0.20490    0.63860    0.92520    1.000
    C96      C        0.14130    0.86020    0.06340    1.000
