# CIF file generated by openbabel 3.1.0, see https://openbabel.org
data_I
_chemical_name_common 'image0'
_cell_length_a 8.3425
_cell_length_b 11.9337
_cell_length_c 21.6641
_cell_angle_alpha 90
_cell_angle_beta 90
_cell_angle_gamma 90
_space_group_name_H-M_alt 'P 1'
_space_group_name_Hall 'P 1'
loop_
    _symmetry_equiv_pos_as_xyz
    x,y,z
loop_
    _atom_site_label
    _atom_site_type_symbol
    _atom_site_fract_x
    _atom_site_fract_y
    _atom_site_fract_z
    _atom_site_occupancy
    Cu1      Cu       0.52683    0.35891    0.50162    1.000
    Cu2      Cu       0.94142    0.35636    0.49905    1.000
    Cu3      Cu       0.75900    0.52245    0.74610    1.000
    N1       N        0.82210    0.40660    0.57510    1.000
    N2       N        0.84630    0.59180    0.92670    1.000
    N3       N        0.68420    0.60040    0.92250    1.000
    C1       C        0.30390    0.33440    0.49930    1.000
    N4       N        0.65630    0.40520    0.57420    1.000
    N5       N        0.72710    0.46140    0.66350    1.000
    N6       N        0.90940    0.56900    0.87290    1.000
    C2       C        0.65230    0.58000    0.86450    1.000
    N7       N        0.78610    0.56040    0.83340    1.000
    N8       N        0.60050    0.43840    0.62680    1.000
    C3       C        0.86080    0.44180    0.63120    1.000
    N9       N        0.16770    0.33520    0.49810    1.000
    N10      N        0.52520    0.53200    0.76760    1.000
    C4       C        0.02180    0.46230    0.66010    1.000
    H1       H        0.07508    0.52377    0.63823    1.000
    C5       C        0.49800    0.57630    0.83100    1.000
    H2       H        0.45750    0.65308    0.82737    1.000
    C6       C        0.12830    0.36120    0.65890    1.000
    H3       H        0.07682    0.30052    0.68020    1.000
    H4       H        0.22803    0.37848    0.67890    1.000
    H5       H        0.14845    0.33982    0.61690    1.000
    C7       C        0.36890    0.50530    0.86260    1.000
    H6       H        0.40330    0.42859    0.86424    1.000
    H7       H        0.27073    0.51028    0.83964    1.000
    H8       H        0.35169    0.53253    0.90378    1.000
    N11      N        0.98910    0.49760    0.72500    1.000
    H9       H        0.04245    0.56084    0.73227    1.000
    H10      H        0.02814    0.44556    0.75027    1.000
    Cu4      Cu       0.97317    0.64109    0.00162    1.000
    Cu5      Cu       0.55858    0.64364    0.99905    1.000
    Cu6      Cu       0.74100    0.47755    0.24610    1.000
    N12      N        0.67790    0.59340    0.07510    1.000
    N13      N        0.65370    0.40820    0.42670    1.000
    N14      N        0.81580    0.39960    0.42250    1.000
    C8       C        0.19610    0.66560    0.99930    1.000
    N15      N        0.84370    0.59480    0.07420    1.000
    N16      N        0.77290    0.53860    0.16350    1.000
    N17      N        0.59060    0.43100    0.37290    1.000
    C9       C        0.84770    0.42000    0.36450    1.000
    N18      N        0.71390    0.43960    0.33340    1.000
    N19      N        0.89950    0.56160    0.12680    1.000
    C10      C        0.63920    0.55820    0.13120    1.000
    N20      N        0.33230    0.66480    0.99810    1.000
    N21      N        0.97480    0.46800    0.26760    1.000
    C11      C        0.47820    0.53770    0.16010    1.000
    H11      H        0.42492    0.47623    0.13823    1.000
    C12      C        0.00200    0.42370    0.33100    1.000
    H12      H        0.04250    0.34692    0.32737    1.000
    C13      C        0.37170    0.63880    0.15890    1.000
    H13      H        0.42318    0.69948    0.18020    1.000
    H14      H        0.27197    0.62152    0.17890    1.000
    H15      H        0.35155    0.66018    0.11690    1.000
    C14      C        0.13110    0.49470    0.36260    1.000
    H16      H        0.09670    0.57141    0.36424    1.000
    H17      H        0.22927    0.48972    0.33964    1.000
    H18      H        0.14831    0.46747    0.40378    1.000
    N22      N        0.51090    0.50240    0.22500    1.000
    H19      H        0.45755    0.43916    0.23227    1.000
    H20      H        0.47186    0.55444    0.25027    1.000
    Cu7      Cu       0.47317    0.85891    0.99838    1.000
    Cu8      Cu       0.05858    0.85636    0.00095    1.000
    Cu9      Cu       0.24100    0.02245    0.75390    1.000
    N23      N        0.17790    0.90660    0.92490    1.000
    N24      N        0.15370    0.09180    0.57330    1.000
    N25      N        0.31580    0.10040    0.57750    1.000
    C15      C        0.69610    0.83440    0.00070    1.000
    N26      N        0.34370    0.90520    0.92580    1.000
    N27      N        0.27290    0.96140    0.83650    1.000
    N28      N        0.09060    0.06900    0.62710    1.000
    C16      C        0.34770    0.08000    0.63550    1.000
    N29      N        0.21390    0.06040    0.66660    1.000
    N30      N        0.39950    0.93840    0.87320    1.000
    C17      C        0.13920    0.94180    0.86880    1.000
    N31      N        0.83230    0.83520    0.00190    1.000
    N32      N        0.47480    0.03200    0.73240    1.000
    C18      C        0.97820    0.96230    0.83990    1.000
    H21      H        0.92492    0.02377    0.86177    1.000
    C19      C        0.50200    0.07630    0.66900    1.000
    H22      H        0.54250    0.15308    0.67263    1.000
    C20      C        0.87170    0.86120    0.84110    1.000
    H23      H        0.92318    0.80052    0.81980    1.000
    H24      H        0.77197    0.87848    0.82110    1.000
    H25      H        0.85155    0.83982    0.88310    1.000
    C21      C        0.63110    0.00530    0.63740    1.000
    H26      H        0.59670    0.92859    0.63576    1.000
    H27      H        0.72927    0.01028    0.66036    1.000
    H28      H        0.64831    0.03253    0.59622    1.000
    N33      N        0.01090    0.99760    0.77500    1.000
    H29      H        0.95755    0.06084    0.76773    1.000
    H30      H        0.97186    0.94556    0.74973    1.000
    Cu10     Cu       0.02683    0.14109    0.49838    1.000
    Cu11     Cu       0.44142    0.14364    0.50095    1.000
    Cu12     Cu       0.25900    0.97755    0.25390    1.000
    N34      N        0.32210    0.09340    0.42490    1.000
    N35      N        0.34630    0.90820    0.07330    1.000
    N36      N        0.18420    0.89960    0.07750    1.000
    C22      C        0.80390    0.16560    0.50070    1.000
    N37      N        0.15630    0.09480    0.42580    1.000
    N38      N        0.22710    0.03860    0.33650    1.000
    N39      N        0.40940    0.93100    0.12710    1.000
    C23      C        0.15230    0.92000    0.13550    1.000
    N40      N        0.28610    0.93960    0.16660    1.000
    N41      N        0.10050    0.06160    0.37320    1.000
    C24      C        0.36080    0.05820    0.36880    1.000
    N42      N        0.66770    0.16480    0.50190    1.000
    N43      N        0.02520    0.96800    0.23240    1.000
    C25      C        0.52180    0.03770    0.33990    1.000
    H31      H        0.57508    0.97623    0.36177    1.000
    C26      C        0.99800    0.92370    0.16900    1.000
    H32      H        0.95750    0.84692    0.17263    1.000
    C27      C        0.62830    0.13880    0.34110    1.000
    H33      H        0.57682    0.19948    0.31980    1.000
    H34      H        0.72803    0.12152    0.32110    1.000
    H35      H        0.64845    0.16018    0.38310    1.000
    C28      C        0.86890    0.99470    0.13740    1.000
    H36      H        0.90330    0.07141    0.13576    1.000
    H37      H        0.77073    0.98972    0.16036    1.000
    H38      H        0.85169    0.96747    0.09622    1.000
    N44      N        0.48910    0.00240    0.27500    1.000
    H39      H        0.54245    0.93916    0.26773    1.000
    H40      H        0.52814    0.05444    0.24973    1.000
