# CIF file generated by openbabel 3.1.0, see https://openbabel.org
data_I
_chemical_name_common 'image0'
_cell_length_a 9.28814
_cell_length_b 14.7113
_cell_length_c 19.8471
_cell_angle_alpha 74.9706
_cell_angle_beta 76.4678
_cell_angle_gamma 71.5981
_space_group_name_H-M_alt 'P 1'
_space_group_name_Hall 'P 1'
loop_
    _symmetry_equiv_pos_as_xyz
    x,y,z
loop_
    _atom_site_label
    _atom_site_type_symbol
    _atom_site_fract_x
    _atom_site_fract_y
    _atom_site_fract_z
    _atom_site_occupancy
    Yb1      Yb       0.49616    0.53187    0.62487    1.000
    Yb2      Yb       0.65290    0.96813    0.87513    1.000
    Yb3      Yb       0.50384    0.46813    0.37513    1.000
    Yb4      Yb       0.34710    0.03187    0.12487    1.000
    H1       H        0.52250    0.78510    0.51290    1.000
    H2       H        0.44290    0.75450    0.33030    1.000
    H3       H        0.44510    0.01690    0.35210    1.000
    H4       H        0.71600    0.52800    0.73480    1.000
    H5       H        0.89180    0.67010    0.78130    1.000
    H6       H        0.81500    0.58560    0.82120    1.000
    H7       H        0.94870    0.56960    0.75680    1.000
    H8       H        0.76660    0.78520    0.71580    1.000
    H9       H        0.74450    0.76180    0.64680    1.000
    H10      H        0.60430    0.78190    0.70790    1.000
    H11      H        0.79840    0.37120    0.55100    1.000
    H12      H        0.20040    0.31220    0.51720    1.000
    H13      H        0.08260    0.24950    0.53550    1.000
    H14      H        0.07390    0.33670    0.47010    1.000
    H15      H        0.17940    0.40410    0.57670    1.000
    H16      H        0.04090    0.49830    0.56990    1.000
    H17      H        0.04320    0.41930    0.64010    1.000
    H18      H        0.82050    0.71490    0.98710    1.000
    H19      H        0.52770    0.74550    0.16970    1.000
    H20      H        0.81410    0.48310    0.14790    1.000
    H21      H        0.97880    0.97200    0.76520    1.000
    H22      H        0.34320    0.82990    0.71870    1.000
    H23      H        0.22180    0.91440    0.67880    1.000
    H24      H        0.27510    0.93040    0.74320    1.000
    H25      H        0.26760    0.71480    0.78420    1.000
    H26      H        0.15310    0.73820    0.85320    1.000
    H27      H        0.09410    0.71810    0.79210    1.000
    H28      H        0.72060    0.12880    0.94900    1.000
    H29      H        0.02980    0.18780    0.98280    1.000
    H30      H        0.86760    0.25050    0.96450    1.000
    H31      H        0.88070    0.16330    0.02990    1.000
    H32      H        0.16020    0.09590    0.92330    1.000
    H33      H        0.10910    0.00170    0.93010    1.000
    H34      H        0.10260    0.08070    0.85990    1.000
    H35      H        0.47750    0.21490    0.48710    1.000
    H36      H        0.55710    0.24550    0.66970    1.000
    H37      H        0.55490    0.98310    0.64790    1.000
    H38      H        0.28400    0.47200    0.26520    1.000
    H39      H        0.10820    0.32990    0.21870    1.000
    H40      H        0.18500    0.41440    0.17880    1.000
    H41      H        0.05130    0.43040    0.24320    1.000
    H42      H        0.23340    0.21480    0.28420    1.000
    H43      H        0.25550    0.23820    0.35320    1.000
    H44      H        0.39570    0.21810    0.29210    1.000
    H45      H        0.20160    0.62880    0.44900    1.000
    H46      H        0.79960    0.68780    0.48280    1.000
    H47      H        0.91740    0.75050    0.46450    1.000
    H48      H        0.92610    0.66330    0.52990    1.000
    H49      H        0.82060    0.59590    0.42330    1.000
    H50      H        0.95910    0.50170    0.43010    1.000
    H51      H        0.95680    0.58070    0.35990    1.000
    H52      H        0.17950    0.28510    0.01290    1.000
    H53      H        0.47230    0.25450    0.83030    1.000
    H54      H        0.18590    0.51690    0.85210    1.000
    H55      H        0.02120    0.02800    0.23480    1.000
    H56      H        0.65680    0.17010    0.28130    1.000
    H57      H        0.77820    0.08560    0.32120    1.000
    H58      H        0.72490    0.06960    0.25680    1.000
    H59      H        0.73240    0.28520    0.21580    1.000
    H60      H        0.84690    0.26180    0.14680    1.000
    H61      H        0.90590    0.28190    0.20790    1.000
    H62      H        0.27940    0.87120    0.05100    1.000
    H63      H        0.97020    0.81220    0.01720    1.000
    H64      H        0.13240    0.74950    0.03550    1.000
    H65      H        0.11930    0.83670    0.97010    1.000
    H66      H        0.83980    0.90410    0.07670    1.000
    H67      H        0.89090    0.99830    0.06990    1.000
    H68      H        0.89740    0.91930    0.14010    1.000
    C1       C        0.48790    0.91080    0.44020    1.000
    C2       C        0.50350    0.81170    0.46690    1.000
    C3       C        0.49110    0.75240    0.42600    1.000
    C4       C        0.45530    0.79350    0.35750    1.000
    C5       C        0.43870    0.89180    0.33120    1.000
    C6       C        0.45530    0.95060    0.37100    1.000
    C7       C        0.49820    0.97290    0.48270    1.000
    C8       C        0.51960    0.64410    0.45430    1.000
    C9       C        0.40300    0.93940    0.25780    1.000
    C10      C        0.68610    0.59370    0.71350    1.000
    C11      C        0.86060    0.61630    0.77590    1.000
    C12      C        0.71320    0.75350    0.69710    1.000
    C13      C        0.84230    0.40310    0.57210    1.000
    C14      C        0.09630    0.31400    0.51740    1.000
    C15      C        0.07030    0.42970    0.58950    1.000
    C16      C        0.83890    0.58920    0.05980    1.000
    C17      C        0.78210    0.68830    0.03310    1.000
    C18      C        0.66950    0.74760    0.07400    1.000
    C19      C        0.60630    0.70650    0.14250    1.000
    C20      C        0.66170    0.60820    0.16880    1.000
    C21      C        0.77690    0.54940    0.12900    1.000
    C22      C        0.95380    0.52710    0.01730    1.000
    C23      C        0.61800    0.85590    0.04570    1.000
    C24      C        0.60020    0.56060    0.24220    1.000
    C25      C        0.99330    0.90630    0.78650    1.000
    C26      C        0.25280    0.88370    0.72410    1.000
    C27      C        0.16380    0.74650    0.80290    1.000
    C28      C        0.81750    0.09690    0.92790    1.000
    C29      C        0.92770    0.18600    0.98260    1.000
    C30      C        0.08950    0.07030    0.91050    1.000
    C31      C        0.51210    0.08920    0.55980    1.000
    C32      C        0.49650    0.18830    0.53310    1.000
    C33      C        0.50890    0.24760    0.57400    1.000
    C34      C        0.54470    0.20650    0.64250    1.000
    C35      C        0.56130    0.10820    0.66880    1.000
    C36      C        0.54470    0.04940    0.62900    1.000
    C37      C        0.50180    0.02710    0.51730    1.000
    C38      C        0.48040    0.35590    0.54570    1.000
    C39      C        0.59700    0.06060    0.74220    1.000
    C40      C        0.31390    0.40630    0.28650    1.000
    C41      C        0.13940    0.38370    0.22410    1.000
    C42      C        0.28680    0.24650    0.30290    1.000
    C43      C        0.15770    0.59690    0.42790    1.000
    C44      C        0.90370    0.68600    0.48260    1.000
    C45      C        0.92970    0.57030    0.41050    1.000
    C46      C        0.16110    0.41080    0.94020    1.000
    C47      C        0.21790    0.31170    0.96690    1.000
    C48      C        0.33050    0.25240    0.92600    1.000
    C49      C        0.39370    0.29350    0.85750    1.000
    C50      C        0.33830    0.39180    0.83120    1.000
    C51      C        0.22310    0.45060    0.87100    1.000
    C52      C        0.04620    0.47290    0.98270    1.000
    C53      C        0.38200    0.14410    0.95430    1.000
    C54      C        0.39980    0.43940    0.75780    1.000
    C55      C        0.00670    0.09370    0.21350    1.000
    C56      C        0.74720    0.11630    0.27590    1.000
    C57      C        0.83620    0.25350    0.19710    1.000
    C58      C        0.18250    0.90310    0.07210    1.000
    C59      C        0.07230    0.81400    0.01740    1.000
    C60      C        0.91050    0.92970    0.08950    1.000
    N1       N        0.74880    0.65240    0.72800    1.000
    N2       N        0.99150    0.38030    0.56230    1.000
    N3       N        0.21810    0.67170    0.60510    1.000
    N4       N        0.12920    0.84760    0.77200    1.000
    N5       N        0.93410    0.11970    0.93770    1.000
    N6       N        0.49490    0.82830    0.89490    1.000
    N7       N        0.25120    0.34760    0.27200    1.000
    N8       N        0.00850    0.61970    0.43770    1.000
    N9       N        0.78190    0.32830    0.39490    1.000
    N10      N        0.87080    0.15240    0.22800    1.000
    N11      N        0.06590    0.88030    0.06230    1.000
    N12      N        0.50510    0.17170    0.10510    1.000
    O1       O        0.55730    0.61160    0.51460    1.000
    O2       O        0.50600    0.59350    0.41590    1.000
    O3       O        0.43850    0.01710    0.22770    1.000
    O4       O        0.33990    0.90220    0.22740    1.000
    O5       O        0.59250    0.61740    0.67460    1.000
    O6       O        0.75540    0.46170    0.60570    1.000
    O7       O        0.25000    0.59000    0.58540    1.000
    O8       O        0.31460    0.69250    0.62490    1.000
    O9       O        0.08470    0.72490    0.60170    1.000
    O10      O        0.68350    0.88840    0.98540    1.000
    O11      O        0.51540    0.90650    0.08410    1.000
    O12      O        0.68330    0.48290    0.27230    1.000
    O13      O        0.46950    0.59780    0.27260    1.000
    O14      O        0.88450    0.88260    0.82540    1.000
    O15      O        0.82280    0.03830    0.89430    1.000
    O16      O        0.42540    0.91000    0.91460    1.000
    O17      O        0.63200    0.80750    0.87510    1.000
    O18      O        0.41130    0.77510    0.89830    1.000
    O19      O        0.44270    0.38840    0.48540    1.000
    O20      O        0.49400    0.40650    0.58410    1.000
    O21      O        0.56150    0.98290    0.77230    1.000
    O22      O        0.66010    0.09780    0.77260    1.000
    O23      O        0.40750    0.38260    0.32540    1.000
    O24      O        0.24460    0.53830    0.39430    1.000
    O25      O        0.75000    0.41000    0.41460    1.000
    O26      O        0.68540    0.30750    0.37510    1.000
    O27      O        0.91530    0.27510    0.39830    1.000
    O28      O        0.31650    0.11160    0.01460    1.000
    O29      O        0.48460    0.09350    0.91590    1.000
    O30      O        0.31670    0.51710    0.72770    1.000
    O31      O        0.53050    0.40220    0.72740    1.000
    O32      O        0.11550    0.11740    0.17460    1.000
    O33      O        0.17720    0.96170    0.10570    1.000
    O34      O        0.57460    0.09000    0.08540    1.000
    O35      O        0.36800    0.19250    0.12490    1.000
    O36      O        0.58870    0.22490    0.10170    1.000
