# CIF file generated by openbabel 3.1.0, see https://openbabel.org
data_I
_chemical_name_common 'image0'
_cell_length_a 34.0297
_cell_length_b 34.0297
_cell_length_c 8.3643
_cell_angle_alpha 90
_cell_angle_beta 90
_cell_angle_gamma 120
_space_group_name_H-M_alt 'P 1'
_space_group_name_Hall 'P 1'
loop_
    _symmetry_equiv_pos_as_xyz
    x,y,z
loop_
    _atom_site_label
    _atom_site_type_symbol
    _atom_site_fract_x
    _atom_site_fract_y
    _atom_site_fract_z
    _atom_site_occupancy
    Ag1      Ag       0.14786    0.32077    0.50677    1.000
    O1       O        0.33501    0.32789    0.77960    1.000
    N1       N        0.20660    0.33997    0.66160    1.000
    N2       N        0.27824    0.19639    0.61130    1.000
    C1       C        0.22036    0.37545    0.76080    1.000
    H1       H        0.20390    0.39130    0.76130    1.000
    C2       C        0.25715    0.39023    0.86230    1.000
    H2       H        0.26540    0.41530    0.93150    1.000
    C3       C        0.28159    0.36796    0.86120    1.000
    H3       H        0.30770    0.37800    0.92670    1.000
    C4       C        0.26699    0.33006    0.76110    1.000
    C5       C        0.22959    0.31716    0.66500    1.000
    H4       H        0.21960    0.29120    0.59860    1.000
    C6       C        0.29437    0.30682    0.75580    1.000
    C7       C        0.27121    0.25724    0.72390    1.000
    C8       C        0.22811    0.22701    0.78080    1.000
    H5       H        0.21090    0.23740    0.83820    1.000
    C9       C        0.21080    0.18096    0.75120    1.000
    H6       H        0.18150    0.15920    0.78870    1.000
    C10      C        0.23688    0.16719    0.66660    1.000
    H7       H        0.22480    0.13570    0.64710    1.000
    C11      C        0.29508    0.24043    0.64060    1.000
    H8       H        0.32470    0.26130    0.60290    1.000
    Ag2      Ag       0.81452    0.65410    0.84010    1.000
    O2       O        0.00168    0.66122    0.11293    1.000
    N3       N        0.87327    0.67330    0.99493    1.000
    N4       N        0.94491    0.52972    0.94463    1.000
    C12      C        0.88703    0.70878    0.09413    1.000
    H9       H        0.87057    0.72463    0.09463    1.000
    C13      C        0.92382    0.72356    0.19563    1.000
    H10      H        0.93207    0.74863    0.26483    1.000
    C14      C        0.94826    0.70129    0.19453    1.000
    H11      H        0.97437    0.71133    0.26003    1.000
    C15      C        0.93366    0.66339    0.09443    1.000
    C16      C        0.89626    0.65049    0.99833    1.000
    H12      H        0.88627    0.62453    0.93193    1.000
    C17      C        0.96104    0.64015    0.08913    1.000
    C18      C        0.93788    0.59057    0.05723    1.000
    C19      C        0.89478    0.56034    0.11413    1.000
    H13      H        0.87757    0.57073    0.17153    1.000
    C20      C        0.87747    0.51429    0.08453    1.000
    H14      H        0.84817    0.49253    0.12203    1.000
    C21      C        0.90355    0.50052    0.99993    1.000
    H15      H        0.89147    0.46903    0.98043    1.000
    C22      C        0.96175    0.57376    0.97393    1.000
    H16      H        0.99137    0.59463    0.93623    1.000
    Ag3      Ag       0.48119    0.98744    0.17344    1.000
    O3       O        0.66834    0.99456    0.44627    1.000
    N5       N        0.53993    0.00664    0.32827    1.000
    N6       N        0.61157    0.86306    0.27797    1.000
    C23      C        0.55369    0.04212    0.42747    1.000
    H17      H        0.53723    0.05797    0.42797    1.000
    C24      C        0.59048    0.05690    0.52897    1.000
    H18      H        0.59873    0.08197    0.59817    1.000
    C25      C        0.61492    0.03463    0.52787    1.000
    H19      H        0.64103    0.04467    0.59337    1.000
    C26      C        0.60032    0.99673    0.42777    1.000
    C27      C        0.56292    0.98383    0.33167    1.000
    H20      H        0.55293    0.95787    0.26527    1.000
    C28      C        0.62770    0.97349    0.42247    1.000
    C29      C        0.60454    0.92391    0.39057    1.000
    C30      C        0.56144    0.89368    0.44747    1.000
    H21      H        0.54423    0.90407    0.50487    1.000
    C31      C        0.54413    0.84763    0.41787    1.000
    H22      H        0.51483    0.82587    0.45537    1.000
    C32      C        0.57021    0.83386    0.33327    1.000
    H23      H        0.55813    0.80237    0.31377    1.000
    C33      C        0.62841    0.90710    0.30727    1.000
    H24      H        0.65803    0.92797    0.26957    1.000
    Ag4      Ag       0.67923    0.82709    0.50677    1.000
    O4       O        0.67211    0.00712    0.77960    1.000
    N7       N        0.66003    0.86663    0.66160    1.000
    N8       N        0.80361    0.08185    0.61130    1.000
    C34      C        0.62455    0.84491    0.76080    1.000
    H25      H        0.60870    0.81260    0.76130    1.000
    C35      C        0.60977    0.86692    0.86230    1.000
    H26      H        0.58470    0.85010    0.93150    1.000
    C36      C        0.63204    0.91363    0.86120    1.000
    H27      H        0.62200    0.92970    0.92670    1.000
    C37      C        0.66994    0.93693    0.76110    1.000
    C38      C        0.68284    0.91243    0.66500    1.000
    H28      H        0.70880    0.92840    0.59860    1.000
    C39      C        0.69318    0.98755    0.75580    1.000
    C40      C        0.74276    0.01397    0.72390    1.000
    C41      C        0.77299    0.00110    0.78080    1.000
    H29      H        0.76260    0.97350    0.83820    1.000
    C42      C        0.81904    0.02984    0.75120    1.000
    H30      H        0.84080    0.02230    0.78870    1.000
    C43      C        0.83281    0.06969    0.66660    1.000
    H31      H        0.86430    0.08910    0.64710    1.000
    C44      C        0.75957    0.05465    0.64060    1.000
    H32      H        0.73870    0.06340    0.60290    1.000
    Ag5      Ag       0.34590    0.16042    0.84010    1.000
    O5       O        0.33878    0.34045    0.11293    1.000
    N9       N        0.32670    0.19996    0.99493    1.000
    N10      N        0.47028    0.41518    0.94463    1.000
    C45      C        0.29122    0.17824    0.09413    1.000
    H33      H        0.27537    0.14593    0.09463    1.000
    C46      C        0.27644    0.20025    0.19563    1.000
    H34      H        0.25137    0.18343    0.26483    1.000
    C47      C        0.29871    0.24696    0.19453    1.000
    H35      H        0.28867    0.26303    0.26003    1.000
    C48      C        0.33661    0.27026    0.09443    1.000
    C49      C        0.34951    0.24576    0.99833    1.000
    H36      H        0.37547    0.26173    0.93193    1.000
    C50      C        0.35985    0.32088    0.08913    1.000
    C51      C        0.40943    0.34730    0.05723    1.000
    C52      C        0.43966    0.33443    0.11413    1.000
    H37      H        0.42927    0.30683    0.17153    1.000
    C53      C        0.48571    0.36317    0.08453    1.000
    H38      H        0.50747    0.35563    0.12203    1.000
    C54      C        0.49948    0.40302    0.99993    1.000
    H39      H        0.53097    0.42243    0.98043    1.000
    C55      C        0.42624    0.38798    0.97393    1.000
    H40      H        0.40537    0.39673    0.93623    1.000
    Ag6      Ag       0.01256    0.49375    0.17344    1.000
    O6       O        0.00544    0.67379    0.44627    1.000
    N11      N        0.99336    0.53330    0.32827    1.000
    N12      N        0.13694    0.74852    0.27797    1.000
    C56      C        0.95788    0.51158    0.42747    1.000
    H41      H        0.94203    0.47927    0.42797    1.000
    C57      C        0.94310    0.53359    0.52897    1.000
    H42      H        0.91803    0.51677    0.59817    1.000
    C58      C        0.96537    0.58030    0.52787    1.000
    H43      H        0.95533    0.59637    0.59337    1.000
    C59      C        0.00327    0.60360    0.42777    1.000
    C60      C        0.01617    0.57910    0.33167    1.000
    H44      H        0.04213    0.59507    0.26527    1.000
    C61      C        0.02651    0.65422    0.42247    1.000
    C62      C        0.07609    0.68064    0.39057    1.000
    C63      C        0.10632    0.66777    0.44747    1.000
    H45      H        0.09593    0.64017    0.50487    1.000
    C64      C        0.15237    0.69651    0.41787    1.000
    H46      H        0.17413    0.68897    0.45537    1.000
    C65      C        0.16614    0.73636    0.33327    1.000
    H47      H        0.19763    0.75577    0.31377    1.000
    C66      C        0.09290    0.72132    0.30727    1.000
    H48      H        0.07203    0.73007    0.26957    1.000
    Ag7      Ag       0.17291    0.85214    0.50677    1.000
    O7       O        0.99288    0.66499    0.77960    1.000
    N13      N        0.13337    0.79340    0.66160    1.000
    N14      N        0.91815    0.72176    0.61130    1.000
    C67      C        0.15509    0.77964    0.76080    1.000
    H49      H        0.18740    0.79610    0.76130    1.000
    C68      C        0.13308    0.74285    0.86230    1.000
    H50      H        0.14990    0.73460    0.93150    1.000
    C69      C        0.08637    0.71841    0.86120    1.000
    H51      H        0.07030    0.69230    0.92670    1.000
    C70      C        0.06307    0.73301    0.76110    1.000
    C71      C        0.08757    0.77041    0.66500    1.000
    H52      H        0.07160    0.78040    0.59860    1.000
    C72      C        0.01245    0.70563    0.75580    1.000
    C73      C        0.98603    0.72879    0.72390    1.000
    C74      C        0.99890    0.77189    0.78080    1.000
    H53      H        0.02650    0.78910    0.83820    1.000
    C75      C        0.97016    0.78920    0.75120    1.000
    H54      H        0.97770    0.81850    0.78870    1.000
    C76      C        0.93031    0.76312    0.66660    1.000
    H55      H        0.91090    0.77520    0.64710    1.000
    C77      C        0.94535    0.70492    0.64060    1.000
    H56      H        0.93660    0.67530    0.60290    1.000
    Ag8      Ag       0.83958    0.18548    0.84010    1.000
    O8       O        0.65955    0.99832    0.11293    1.000
    N15      N        0.80004    0.12673    0.99493    1.000
    N16      N        0.58482    0.05509    0.94463    1.000
    C78      C        0.82176    0.11297    0.09413    1.000
    H57      H        0.85407    0.12943    0.09463    1.000
    C79      C        0.79975    0.07618    0.19563    1.000
    H58      H        0.81657    0.06793    0.26483    1.000
    C80      C        0.75304    0.05174    0.19453    1.000
    H59      H        0.73697    0.02563    0.26003    1.000
    C81      C        0.72974    0.06634    0.09443    1.000
    C82      C        0.75424    0.10374    0.99833    1.000
    H60      H        0.73827    0.11373    0.93193    1.000
    C83      C        0.67912    0.03896    0.08913    1.000
    C84      C        0.65270    0.06212    0.05723    1.000
    C85      C        0.66557    0.10522    0.11413    1.000
    H61      H        0.69317    0.12243    0.17153    1.000
    C86      C        0.63683    0.12253    0.08453    1.000
    H62      H        0.64437    0.15183    0.12203    1.000
    C87      C        0.59698    0.09645    0.99993    1.000
    H63      H        0.57757    0.10853    0.98043    1.000
    C88      C        0.61202    0.03825    0.97393    1.000
    H64      H        0.60327    0.00863    0.93623    1.000
    Ag9      Ag       0.50625    0.51881    0.17344    1.000
    O9       O        0.32621    0.33166    0.44627    1.000
    N17      N        0.46670    0.46007    0.32827    1.000
    N18      N        0.25148    0.38843    0.27797    1.000
    C89      C        0.48842    0.44631    0.42747    1.000
    H65      H        0.52073    0.46277    0.42797    1.000
    C90      C        0.46641    0.40952    0.52897    1.000
    H66      H        0.48323    0.40127    0.59817    1.000
    C91      C        0.41970    0.38508    0.52787    1.000
    H67      H        0.40363    0.35897    0.59337    1.000
    C92      C        0.39640    0.39968    0.42777    1.000
    C93      C        0.42090    0.43708    0.33167    1.000
    H68      H        0.40493    0.44707    0.26527    1.000
    C94      C        0.34578    0.37230    0.42247    1.000
    C95      C        0.31936    0.39546    0.39057    1.000
    C96      C        0.33223    0.43856    0.44747    1.000
    H69      H        0.35983    0.45577    0.50487    1.000
    C97      C        0.30349    0.45587    0.41787    1.000
    H70      H        0.31103    0.48517    0.45537    1.000
    C98      C        0.26364    0.42979    0.33327    1.000
    H71      H        0.24423    0.44187    0.31377    1.000
    C99      C        0.27868    0.37159    0.30727    1.000
    H72      H        0.26993    0.34197    0.26957    1.000
    Ag10     Ag       0.85214    0.67923    0.49323    1.000
    O10      O        0.66499    0.67211    0.22040    1.000
    N19      N        0.79340    0.66003    0.33840    1.000
    N20      N        0.72176    0.80361    0.38870    1.000
    C100     C        0.77964    0.62455    0.23920    1.000
    H73      H        0.79610    0.60870    0.23870    1.000
    C101     C        0.74285    0.60977    0.13770    1.000
    H74      H        0.73460    0.58470    0.06850    1.000
    C102     C        0.71841    0.63204    0.13880    1.000
    H75      H        0.69230    0.62200    0.07330    1.000
    C103     C        0.73301    0.66994    0.23890    1.000
    C104     C        0.77041    0.68284    0.33500    1.000
    H76      H        0.78040    0.70880    0.40140    1.000
    C105     C        0.70563    0.69318    0.24420    1.000
    C106     C        0.72879    0.74276    0.27610    1.000
    C107     C        0.77189    0.77299    0.21920    1.000
    H77      H        0.78910    0.76260    0.16180    1.000
    C108     C        0.78920    0.81904    0.24880    1.000
    H78      H        0.81850    0.84080    0.21130    1.000
    C109     C        0.76312    0.83281    0.33340    1.000
    H79      H        0.77520    0.86430    0.35290    1.000
    C110     C        0.70492    0.75957    0.35940    1.000
    H80      H        0.67530    0.73870    0.39710    1.000
    Ag11     Ag       0.51881    0.01256    0.82656    1.000
    O11      O        0.33166    0.00544    0.55373    1.000
    N21      N        0.46007    0.99336    0.67173    1.000
    N22      N        0.38843    0.13694    0.72203    1.000
    C111     C        0.44631    0.95788    0.57253    1.000
    H81      H        0.46277    0.94203    0.57203    1.000
    C112     C        0.40952    0.94310    0.47103    1.000
    H82      H        0.40127    0.91803    0.40183    1.000
    C113     C        0.38508    0.96537    0.47213    1.000
    H83      H        0.35897    0.95533    0.40663    1.000
    C114     C        0.39968    0.00327    0.57223    1.000
    C115     C        0.43708    0.01617    0.66833    1.000
    H84      H        0.44707    0.04213    0.73473    1.000
    C116     C        0.37230    0.02651    0.57753    1.000
    C117     C        0.39546    0.07609    0.60943    1.000
    C118     C        0.43856    0.10632    0.55253    1.000
    H85      H        0.45577    0.09593    0.49513    1.000
    C119     C        0.45587    0.15237    0.58213    1.000
    H86      H        0.48517    0.17413    0.54463    1.000
    C120     C        0.42979    0.16614    0.66673    1.000
    H87      H        0.44187    0.19763    0.68623    1.000
    C121     C        0.37159    0.09290    0.69273    1.000
    H88      H        0.34197    0.07203    0.73043    1.000
    Ag12     Ag       0.18548    0.34590    0.15990    1.000
    O12      O        0.99832    0.33878    0.88707    1.000
    N23      N        0.12673    0.32670    0.00507    1.000
    N24      N        0.05509    0.47028    0.05537    1.000
    C122     C        0.11297    0.29122    0.90587    1.000
    H89      H        0.12943    0.27537    0.90537    1.000
    C123     C        0.07618    0.27644    0.80437    1.000
    H90      H        0.06793    0.25137    0.73517    1.000
    C124     C        0.05174    0.29871    0.80547    1.000
    H91      H        0.02563    0.28867    0.73997    1.000
    C125     C        0.06634    0.33661    0.90557    1.000
    C126     C        0.10374    0.34951    0.00167    1.000
    H92      H        0.11373    0.37547    0.06807    1.000
    C127     C        0.03896    0.35985    0.91087    1.000
    C128     C        0.06212    0.40943    0.94277    1.000
    C129     C        0.10522    0.43966    0.88587    1.000
    H93      H        0.12243    0.42927    0.82847    1.000
    C130     C        0.12253    0.48571    0.91547    1.000
    H94      H        0.15183    0.50747    0.87797    1.000
    C131     C        0.09645    0.49948    0.00007    1.000
    H95      H        0.10853    0.53097    0.01957    1.000
    C132     C        0.03825    0.42624    0.02607    1.000
    H96      H        0.00863    0.40537    0.06377    1.000
    Ag13     Ag       0.32077    0.17291    0.49323    1.000
    O13      O        0.32789    0.99288    0.22040    1.000
    N25      N        0.33997    0.13337    0.33840    1.000
    N26      N        0.19639    0.91815    0.38870    1.000
    C133     C        0.37545    0.15509    0.23920    1.000
    H97      H        0.39130    0.18740    0.23870    1.000
    C134     C        0.39023    0.13308    0.13770    1.000
    H98      H        0.41530    0.14990    0.06850    1.000
    C135     C        0.36796    0.08637    0.13880    1.000
    H99      H        0.37800    0.07030    0.07330    1.000
    C136     C        0.33006    0.06307    0.23890    1.000
    C137     C        0.31716    0.08757    0.33500    1.000
    H100     H        0.29120    0.07160    0.40140    1.000
    C138     C        0.30682    0.01245    0.24420    1.000
    C139     C        0.25724    0.98603    0.27610    1.000
    C140     C        0.22701    0.99890    0.21920    1.000
    H101     H        0.23740    0.02650    0.16180    1.000
    C141     C        0.18096    0.97016    0.24880    1.000
    H102     H        0.15920    0.97770    0.21130    1.000
    C142     C        0.16719    0.93031    0.33340    1.000
    H103     H        0.13570    0.91090    0.35290    1.000
    C143     C        0.24043    0.94535    0.35940    1.000
    H104     H        0.26130    0.93660    0.39710    1.000
    Ag14     Ag       0.98744    0.50625    0.82656    1.000
    O14      O        0.99456    0.32621    0.55373    1.000
    N27      N        0.00664    0.46670    0.67173    1.000
    N28      N        0.86306    0.25148    0.72203    1.000
    C144     C        0.04212    0.48842    0.57253    1.000
    H105     H        0.05797    0.52073    0.57203    1.000
    C145     C        0.05690    0.46641    0.47103    1.000
    H106     H        0.08197    0.48323    0.40183    1.000
    C146     C        0.03463    0.41970    0.47213    1.000
    H107     H        0.04467    0.40363    0.40663    1.000
    C147     C        0.99673    0.39640    0.57223    1.000
    C148     C        0.98383    0.42090    0.66833    1.000
    H108     H        0.95787    0.40493    0.73473    1.000
    C149     C        0.97349    0.34578    0.57753    1.000
    C150     C        0.92391    0.31936    0.60943    1.000
    C151     C        0.89368    0.33223    0.55253    1.000
    H109     H        0.90407    0.35983    0.49513    1.000
    C152     C        0.84763    0.30349    0.58213    1.000
    H110     H        0.82587    0.31103    0.54463    1.000
    C153     C        0.83386    0.26364    0.66673    1.000
    H111     H        0.80237    0.24423    0.68623    1.000
    C154     C        0.90710    0.27868    0.69273    1.000
    H112     H        0.92797    0.26993    0.73043    1.000
    Ag15     Ag       0.65410    0.83958    0.15990    1.000
    O15      O        0.66122    0.65955    0.88707    1.000
    N29      N        0.67330    0.80004    0.00507    1.000
    N30      N        0.52972    0.58482    0.05537    1.000
    C155     C        0.70878    0.82176    0.90587    1.000
    H113     H        0.72463    0.85407    0.90537    1.000
    C156     C        0.72356    0.79975    0.80437    1.000
    H114     H        0.74863    0.81657    0.73517    1.000
    C157     C        0.70129    0.75304    0.80547    1.000
    H115     H        0.71133    0.73697    0.73997    1.000
    C158     C        0.66339    0.72974    0.90557    1.000
    C159     C        0.65049    0.75424    0.00167    1.000
    H116     H        0.62453    0.73827    0.06807    1.000
    C160     C        0.64015    0.67912    0.91087    1.000
    C161     C        0.59057    0.65270    0.94277    1.000
    C162     C        0.56034    0.66557    0.88587    1.000
    H117     H        0.57073    0.69317    0.82847    1.000
    C163     C        0.51429    0.63683    0.91547    1.000
    H118     H        0.49253    0.64437    0.87797    1.000
    C164     C        0.50052    0.59698    0.00007    1.000
    H119     H        0.46903    0.57757    0.01957    1.000
    C165     C        0.57376    0.61202    0.02607    1.000
    H120     H        0.59463    0.60327    0.06377    1.000
    Ag16     Ag       0.82709    0.14786    0.49323    1.000
    O16      O        0.00712    0.33501    0.22040    1.000
    N31      N        0.86663    0.20660    0.33840    1.000
    N32      N        0.08185    0.27824    0.38870    1.000
    C166     C        0.84491    0.22036    0.23920    1.000
    H121     H        0.81260    0.20390    0.23870    1.000
    C167     C        0.86692    0.25715    0.13770    1.000
    H122     H        0.85010    0.26540    0.06850    1.000
    C168     C        0.91363    0.28159    0.13880    1.000
    H123     H        0.92970    0.30770    0.07330    1.000
    C169     C        0.93693    0.26699    0.23890    1.000
    C170     C        0.91243    0.22959    0.33500    1.000
    H124     H        0.92840    0.21960    0.40140    1.000
    C171     C        0.98755    0.29437    0.24420    1.000
    C172     C        0.01397    0.27121    0.27610    1.000
    C173     C        0.00110    0.22811    0.21920    1.000
    H125     H        0.97350    0.21090    0.16180    1.000
    C174     C        0.02984    0.21080    0.24880    1.000
    H126     H        0.02230    0.18150    0.21130    1.000
    C175     C        0.06969    0.23688    0.33340    1.000
    H127     H        0.08910    0.22480    0.35290    1.000
    C176     C        0.05465    0.29508    0.35940    1.000
    H128     H        0.06340    0.32470    0.39710    1.000
    Ag17     Ag       0.49375    0.48119    0.82656    1.000
    O17      O        0.67379    0.66834    0.55373    1.000
    N33      N        0.53330    0.53993    0.67173    1.000
    N34      N        0.74852    0.61157    0.72203    1.000
    C177     C        0.51158    0.55369    0.57253    1.000
    H129     H        0.47927    0.53723    0.57203    1.000
    C178     C        0.53359    0.59048    0.47103    1.000
    H130     H        0.51677    0.59873    0.40183    1.000
    C179     C        0.58030    0.61492    0.47213    1.000
    H131     H        0.59637    0.64103    0.40663    1.000
    C180     C        0.60360    0.60032    0.57223    1.000
    C181     C        0.57910    0.56292    0.66833    1.000
    H132     H        0.59507    0.55293    0.73473    1.000
    C182     C        0.65422    0.62770    0.57753    1.000
    C183     C        0.68064    0.60454    0.60943    1.000
    C184     C        0.66777    0.56144    0.55253    1.000
    H133     H        0.64017    0.54423    0.49513    1.000
    C185     C        0.69651    0.54413    0.58213    1.000
    H134     H        0.68897    0.51483    0.54463    1.000
    C186     C        0.73636    0.57021    0.66673    1.000
    H135     H        0.75577    0.55813    0.68623    1.000
    C187     C        0.72132    0.62841    0.69273    1.000
    H136     H        0.73007    0.65803    0.73043    1.000
    Ag18     Ag       0.16042    0.81452    0.15990    1.000
    O18      O        0.34045    0.00168    0.88707    1.000
    N35      N        0.19996    0.87327    0.00507    1.000
    N36      N        0.41518    0.94491    0.05537    1.000
    C188     C        0.17824    0.88703    0.90587    1.000
    H137     H        0.14593    0.87057    0.90537    1.000
    C189     C        0.20025    0.92382    0.80437    1.000
    H138     H        0.18343    0.93207    0.73517    1.000
    C190     C        0.24696    0.94826    0.80547    1.000
    H139     H        0.26303    0.97437    0.73997    1.000
    C191     C        0.27026    0.93366    0.90557    1.000
    C192     C        0.24576    0.89626    0.00167    1.000
    H140     H        0.26173    0.88627    0.06807    1.000
    C193     C        0.32088    0.96104    0.91087    1.000
    C194     C        0.34730    0.93788    0.94277    1.000
    C195     C        0.33443    0.89478    0.88587    1.000
    H141     H        0.30683    0.87757    0.82847    1.000
    C196     C        0.36317    0.87747    0.91547    1.000
    H142     H        0.35563    0.84817    0.87797    1.000
    C197     C        0.40302    0.90355    0.00007    1.000
    H143     H        0.42243    0.89147    0.01957    1.000
    C198     C        0.38798    0.96175    0.02607    1.000
    H144     H        0.39673    0.99137    0.06377    1.000
