data_functionalizedCrystal
_audit_creation_method	'EQeq! by Chris Wilmer'
_symmetry_space_group_name_H-M	'P1'
_symmetry_Int_Tables_number	1
_symmetry_cell_setting	triclinic
loop_
_symmetry_equiv_pos_as_xyz
  x,y,z
_cell_length_a	11.08
_cell_length_b	16.583
_cell_length_c	16.6
_cell_angle_alpha	68.533
_cell_angle_beta	89.208
_cell_angle_gamma	89.167
loop_
_atom_site_label
_atom_site_type_symbol
_atom_site_fract_x
_atom_site_fract_y
_atom_site_fract_z
_atom_site_charge
Mof_Ni	Ni	0.64014	0.00459	0.49658	1.101
Mof_Ni	Ni	0.49827	0.81226	0.50446	1.079
Mof_O 	O 	0.3568	0.90845	0.62862	-0.417
Mof_C 	C 	0.1082	0.7217	0.4872	-0.027
Mof_H 	H 	0.1812	0.6935	0.4867	0.05
Mof_C 	C 	0.0379	0.5204	0.5712	0.034
Mof_C 	C 	0.0021	0.5857	0.4964	-0.046
Mof_C 	C 	0.0351	0.431	0.5761	0.037
Mof_C 	C 	0.4081	0.8361	0.6668	0.368
Mof_C 	C 	0.3951	0.7973	0.763	-0.095
Mof_C 	C 	0.5785	0.5569	0.9398	0.036
Mof_C 	C 	0.4254	0.711	0.8084	-0.037
Mof_H 	H 	0.448	0.6761	0.7777	0.051
Mof_C 	C 	0.4606	0.5837	0.9492	-0.045
Mof_O 	O 	0.8573	0.6283	0.8065	-0.154
Mof_C 	C 	0.0004	0.6774	0.4921	0.016
Mof_C 	C 	0.0696	0.3654	0.6554	-0.143
Mof_H 	H 	0.066	0.3079	0.6599	0.086
Mof_C 	C 	0.0788	0.5352	0.6457	-0.133
Mof_H 	H 	0.0823	0.5919	0.6438	0.085
Mof_O 	O 	0.157	0.479	0.7915	-0.136
Mof_C 	C 	0.6187	0.4728	0.9918	0.031
Mof_O 	O 	0.9335	0.4819	0.91	-0.136
Mof_C 	C 	0.4229	0.6754	0.8977	0.021
Mof_C 	C 	0.359	0.8485	0.8089	0.027
Mof_H 	H 	0.3394	0.9065	0.779	0.05
Mof_O 	O 	0.3189	0.80585	0.4853	-0.465
Mof_C 	C 	0.1126	0.4705	0.7185	0.099
Mof_O 	O 	0.1335	0.3228	0.8029	-0.152
Mof_C 	C 	0.387	0.7296	0.942	-0.042
Mof_H 	H 	0.3868	0.7076	0.0022	0.064
Mof_C 	C 	0.107	0.3821	0.7241	0.108
Mof_C 	C 	0.741	0.447	0.9833	-0.124
Mof_H 	H 	0.7685	0.3927	0.0194	0.078
Mof_C 	C 	0.6636	0.6118	0.8781	-0.138
Mof_H 	H 	0.6407	0.6683	0.8449	0.086
Mof_C 	C 	0.3126	0.8673	0.9505	0.374
Mof_C 	C 	0.7754	0.5837	0.8673	0.106
Mof_C 	C 	0.8172	0.5009	0.9231	0.095
Mof_C 	C 	0.8088	0.705	0.735	-0.261
Mof_H 	H 	0.8672	0.7242	0.6888	0.121
Mof_H 	H 	0.7921	0.7508	0.7561	0.112
Mof_H 	H 	0.7357	0.6896	0.714	0.119
Mof_O 	O 	0.2831	0.947	0.9065	-0.487
Mof_H 	H 	0.2625	0.9711	0.9397	0.28
Mof_C 	C 	0.1679	0.5656	0.7888	-0.267
Mof_H 	H 	0.22	0.5975	0.7415	0.115
Mof_H 	H 	0.2014	0.5647	0.8421	0.126
Mof_H 	H 	0.0897	0.5929	0.7808	0.133
Mof_O 	O 	0.3009	0.8341	0.029	-0.282
Mof_C 	C 	0.9753	0.3968	0.963	-0.258
Mof_H 	H 	0.0607	0.3924	0.9548	0.135
Mof_H 	H 	0.9347	0.3543	0.9468	0.126
Mof_H 	H 	0.9584	0.3869	0.0227	0.119
Mof_C 	C 	0.3516	0.8153	0.8983	-0.087
Mof_C 	C 	0.1176	0.2343	0.8154	-0.232
Mof_H 	H 	0.1743	0.2179	0.7798	0.105
Mof_H 	H 	0.0369	0.2259	0.7999	0.108
Mof_H 	H 	0.1308	0.1992	0.8751	0.111
Mof_C 	C 	0.8918	0.7204	0.4938	-0.033
Mof_H 	H 	0.8194	0.6916	0.4973	0.047
Mof_C 	C 	0.8896	0.8055	0.4902	-0.094
Mof_C 	C 	0.9994	0.8482	0.485	0.03
Mof_H 	H 	0.9988	0.9051	0.4829	0.05
Mof_C 	C 	0.1089	0.8073	0.4831	-0.103
Mof_O 	O 	0.4701	0.79492	0.6316	-0.443
Mof_O 	O 	0.5024	0.93993	0.46513	-0.687
Mof_H 	H 	0.5001	0.9615	0.4017	0.144
Mof_O 	O 	0.2233	0.928	0.4754	-0.427
Mof_C 	C 	0.771	0.8482	0.4929	0.349
Mof_O 	O 	0.7699	0.93023	0.4661	-0.402
Mof_O 	O 	0.6829	0.79949	0.524	-0.448
Mof_C 	C 	0.2259	0.8506	0.482	0.394
Mof_Ni	Ni	0.35986	0.99541	0.50342	1.1
Mof_Ni	Ni	0.50173	0.18774	0.49554	1.078
Mof_O 	O 	0.6432	0.09155	0.37138	-0.418
Mof_C 	C 	0.8918	0.2783	0.5128	-0.028
Mof_H 	H 	0.8188	0.3065	0.5133	0.049
Mof_C 	C 	0.9621	0.4796	0.4288	0.033
Mof_C 	C 	0.9979	0.4143	0.5036	-0.047
Mof_C 	C 	0.9649	0.569	0.4239	0.036
Mof_C 	C 	0.5919	0.1639	0.3332	0.367
Mof_C 	C 	0.6049	0.2027	0.237	-0.096
Mof_C 	C 	0.4215	0.4431	0.0602	0.036
Mof_C 	C 	0.5746	0.289	0.1916	-0.037
Mof_H 	H 	0.552	0.3239	0.2223	0.051
Mof_C 	C 	0.5394	0.4163	0.0508	-0.045
Mof_O 	O 	0.1427	0.3717	0.1935	-0.154
Mof_C 	C 	0.9996	0.3226	0.5079	0.016
Mof_C 	C 	0.9304	0.6346	0.3446	-0.143
Mof_H 	H 	0.934	0.6921	0.3401	0.086
Mof_C 	C 	0.9212	0.4648	0.3543	-0.133
Mof_H 	H 	0.9177	0.4081	0.3562	0.085
Mof_O 	O 	0.843	0.521	0.2085	-0.136
Mof_C 	C 	0.3813	0.5272	0.0082	0.031
Mof_O 	O 	0.0665	0.5181	0.09	-0.136
Mof_C 	C 	0.5771	0.3246	0.1023	0.021
Mof_C 	C 	0.641	0.1515	0.1911	0.027
Mof_H 	H 	0.6606	0.0935	0.221	0.05
Mof_O 	O 	0.6811	0.19415	0.5147	-0.465
Mof_C 	C 	0.8874	0.5295	0.2815	0.099
Mof_O 	O 	0.8665	0.6772	0.1971	-0.152
Mof_C 	C 	0.613	0.2704	0.058	-0.042
Mof_H 	H 	0.6132	0.2924	0.9978	0.064
Mof_C 	C 	0.893	0.6179	0.2759	0.108
Mof_C 	C 	0.259	0.553	0.0167	-0.124
Mof_H 	H 	0.2315	0.6073	0.9806	0.078
Mof_C 	C 	0.3364	0.3882	0.1219	-0.138
Mof_H 	H 	0.3593	0.3317	0.1551	0.086
Mof_C 	C 	0.6874	0.1327	0.0495	0.374
Mof_C 	C 	0.2246	0.4163	0.1327	0.106
Mof_C 	C 	0.1828	0.4991	0.0769	0.095
Mof_C 	C 	0.1912	0.295	0.265	-0.261
Mof_H 	H 	0.1328	0.2758	0.3112	0.121
Mof_H 	H 	0.2079	0.2492	0.2439	0.112
Mof_H 	H 	0.2643	0.3104	0.286	0.119
Mof_O 	O 	0.7169	0.053	0.0935	-0.487
Mof_H 	H 	0.7375	0.0289	0.0603	0.28
Mof_C 	C 	0.8321	0.4344	0.2112	-0.267
Mof_H 	H 	0.78	0.4025	0.2585	0.115
Mof_H 	H 	0.7986	0.4353	0.1579	0.126
Mof_H 	H 	0.9103	0.4071	0.2192	0.133
Mof_O 	O 	0.6991	0.1659	0.971	-0.282
Mof_C 	C 	0.0247	0.6032	0.037	-0.258
Mof_H 	H 	0.9393	0.6076	0.0452	0.135
Mof_H 	H 	0.0653	0.6457	0.0532	0.126
Mof_H 	H 	0.0416	0.6131	0.9773	0.119
Mof_C 	C 	0.6484	0.1847	0.1017	-0.087
Mof_C 	C 	0.8824	0.7657	0.1846	-0.232
Mof_H 	H 	0.8257	0.7821	0.2202	0.105
Mof_H 	H 	0.9631	0.7741	0.2001	0.108
Mof_H 	H 	0.8692	0.8008	0.1249	0.111
Mof_C 	C 	0.1082	0.2796	0.5062	-0.033
Mof_H 	H 	0.1806	0.3084	0.5027	0.047
Mof_C 	C 	0.1104	0.1945	0.5098	-0.094
Mof_C 	C 	0.0006	0.1518	0.515	0.03
Mof_H 	H 	0.0012	0.0949	0.5171	0.05
Mof_C 	C 	0.8911	0.1927	0.5169	-0.103
Mof_O 	O 	0.5299	0.20508	0.3684	-0.443
Mof_O 	O 	0.4976	0.06007	0.53487	-0.687
Mof_H 	H 	0.4999	0.0385	0.5983	0.144
Mof_O 	O 	0.7767	0.072	0.5246	-0.427
Mof_C 	C 	0.229	0.1518	0.5071	0.349
Mof_O 	O 	0.2301	0.06977	0.5339	-0.402
Mof_O 	O 	0.3171	0.20051	0.476	-0.448
Mof_C 	C 	0.7741	0.1494	0.518	0.394
_end
