data_functionalizedCrystal
_audit_creation_method	'EQeq! by Chris Wilmer'
_symmetry_space_group_name_H-M	'P1'
_symmetry_Int_Tables_number	1
_symmetry_cell_setting	triclinic
loop_
_symmetry_equiv_pos_as_xyz
  x,y,z
_cell_length_a	12.474
_cell_length_b	15.248
_cell_length_c	16.899
_cell_angle_alpha	90
_cell_angle_beta	90
_cell_angle_gamma	90
loop_
_atom_site_label
_atom_site_type_symbol
_atom_site_fract_x
_atom_site_fract_y
_atom_site_fract_z
_atom_site_charge
Mof_O 	O 	0.6321	0.9509	0.1771	-0.403
Mof_C 	C 	0.5486	0.9092	0.1581	0.42
Mof_O 	O 	0.4961	0.9136	0.0952	-0.439
Mof_O 	O 	0.3383	0.4865	0.5036	-0.474
Mof_O 	O 	0.4842	0.6039	0.4258	-0.51
Mof_C 	C 	0.417	0.6405	0.3846	0.467
Mof_O 	O 	0.3194	0.6216	0.3847	-0.488
Mof_C 	C 	0.4521	0.7121	0.3287	-0.13
Mof_C 	C 	0.5555	0.7506	0.3326	0.171
Mof_N 	N 	0.6203	0.7322	0.3972	-0.327
Mof_H 	H 	0.6785	0.7613	0.4044	0.169
Mof_H 	H 	0.6022	0.6917	0.43	0.196
Mof_C 	C 	0.583	0.8163	0.2783	-0.085
Mof_H 	H 	0.649	0.8443	0.2827	0.097
Mof_C 	C 	0.513	0.8405	0.2175	-0.089
Mof_C 	C 	0.4161	0.7962	0.2089	0.163
Mof_C 	C 	0.3846	0.7334	0.265	-0.062
Mof_H 	H 	0.3185	0.7056	0.2599	0.07
Mof_N 	N 	0.3551	0.8057	0.1411	-0.32
Mof_H 	H 	0.3769	0.8393	0.1035	0.208
Mof_H 	H 	0.2953	0.778	0.1365	0.159
Mof_O 	O 	0.1321	0.5491	0.3229	-0.49
Mof_C 	C 	0.0486	0.5908	0.3419	0.38
Mof_O 	O 	0.9961	0.5864	0.4048	-0.415
Mof_O 	O 	0.8383	0.0135	0.9964	-0.477
Mof_O 	O 	0.9842	0.8961	0.0742	-0.423
Mof_C 	C 	0.917	0.8595	0.1154	0.431
Mof_O 	O 	0.8194	0.8784	0.1153	-0.453
Mof_C 	C 	0.9521	0.7879	0.1713	-0.008
Mof_C 	C 	0.0555	0.7494	0.1674	0.043
Mof_N 	N 	0.1203	0.7678	0.1028	-0.287
Mof_H 	H 	0.1785	0.7387	0.0956	0.12
Mof_H 	H 	0.1022	0.8083	0.07	0.149
Mof_C 	C 	0.083	0.6837	0.2217	-0
Mof_H 	H 	0.149	0.6557	0.2173	0.04
Mof_C 	C 	0.013	0.6595	0.2825	-0.217
Mof_C 	C 	0.9161	0.7038	0.2911	0.267
Mof_C 	C 	0.8846	0.7666	0.235	-0.14
Mof_H 	H 	0.8185	0.7944	0.2401	0.105
Mof_N 	N 	0.8551	0.6943	0.3589	-0.341
Mof_H 	H 	0.8769	0.6607	0.3965	0.214
Mof_H 	H 	0.7953	0.722	0.3635	0.169
Mof_O 	O 	0.8679	0.0491	0.1771	-0.601
Mof_C 	C 	0.9514	0.0908	0.1581	0.484
Mof_O 	O 	0.0039	0.0864	0.0952	-0.632
Mof_O 	O 	0.1617	0.5135	0.5036	-0.485
Mof_O 	O 	0.0158	0.3961	0.4258	-0.556
Mof_C 	C 	0.083	0.3595	0.3846	0.493
Mof_O 	O 	0.1806	0.3784	0.3847	-0.509
Mof_C 	C 	0.0479	0.2879	0.3287	-0.252
Mof_C 	C 	0.9445	0.2494	0.3326	0.247
Mof_N 	N 	0.8797	0.2678	0.3972	-0.341
Mof_H 	H 	0.8215	0.2387	0.4044	0.139
Mof_H 	H 	0.8978	0.3083	0.43	0.206
Mof_C 	C 	0.917	0.1837	0.2783	-0.142
Mof_H 	H 	0.851	0.1557	0.2827	0.072
Mof_C 	C 	0.987	0.1595	0.2175	-0.047
Mof_C 	C 	0.0839	0.2038	0.2089	0.038
Mof_C 	C 	0.1154	0.2666	0.265	-0.002
Mof_H 	H 	0.1815	0.2944	0.2599	0.036
Mof_N 	N 	0.1449	0.1943	0.1411	-0.295
Mof_H 	H 	0.1231	0.1607	0.1035	0.156
Mof_H 	H 	0.2047	0.222	0.1365	0.131
Mof_O 	O 	0.3679	0.4509	0.3229	-0.498
Mof_C 	C 	0.4514	0.4092	0.3419	0.425
Mof_O 	O 	0.5039	0.4136	0.4048	-0.485
Mof_O 	O 	0.6617	0.9865	0.9964	-0.205
Mof_O 	O 	0.5158	0.1039	0.0742	-0.606
Mof_C 	C 	0.583	0.1405	0.1154	0.459
Mof_O 	O 	0.6806	0.1216	0.1153	-0.575
Mof_C 	C 	0.5479	0.2121	0.1713	-0.154
Mof_C 	C 	0.4445	0.2506	0.1674	0.137
Mof_N 	N 	0.3797	0.2322	0.1028	-0.312
Mof_H 	H 	0.3215	0.2613	0.0956	0.124
Mof_H 	H 	0.3978	0.1917	0.07	0.161
Mof_C 	C 	0.417	0.3163	0.2217	-0.081
Mof_H 	H 	0.351	0.3443	0.2173	0.064
Mof_C 	C 	0.487	0.3405	0.2825	-0.123
Mof_C 	C 	0.5839	0.2962	0.2911	0.143
Mof_C 	C 	0.6154	0.2334	0.235	-0.074
Mof_H 	H 	0.6815	0.2056	0.2401	0.055
Mof_N 	N 	0.6449	0.3057	0.3589	-0.319
Mof_H 	H 	0.6231	0.3393	0.3965	0.191
Mof_H 	H 	0.7047	0.278	0.3635	0.145
Mof_O 	O 	0.3679	0.0491	0.8229	-0.567
Mof_C 	C 	0.4514	0.0908	0.8419	0.433
Mof_O 	O 	0.5039	0.0864	0.9048	-0.495
Mof_O 	O 	0.6617	0.5135	0.4964	-0.472
Mof_O 	O 	0.5158	0.3961	0.5742	-0.511
Mof_C 	C 	0.583	0.3595	0.6154	0.46
Mof_O 	O 	0.6806	0.3784	0.6153	-0.493
Mof_C 	C 	0.5479	0.2879	0.6713	-0.132
Mof_C 	C 	0.4445	0.2494	0.6674	0.138
Mof_N 	N 	0.3797	0.2678	0.6028	-0.314
Mof_H 	H 	0.3215	0.2387	0.5956	0.127
Mof_H 	H 	0.3978	0.3083	0.57	0.178
Mof_C 	C 	0.417	0.1837	0.7217	-0.067
Mof_H 	H 	0.351	0.1557	0.7173	0.048
Mof_C 	C 	0.487	0.1595	0.7825	-0.137
Mof_C 	C 	0.5839	0.2038	0.7911	0.157
Mof_C 	C 	0.6154	0.2666	0.735	-0.075
Mof_H 	H 	0.6815	0.2944	0.7401	0.069
Mof_N 	N 	0.6449	0.1943	0.8589	-0.323
Mof_H 	H 	0.6231	0.1607	0.8965	0.205
Mof_H 	H 	0.7047	0.222	0.8635	0.16
Mof_O 	O 	0.8679	0.4509	0.6771	-0.495
Mof_C 	C 	0.9514	0.4092	0.6581	0.475
Mof_O 	O 	0.0039	0.4136	0.5952	-0.545
Mof_O 	O 	0.1617	0.9865	0.0036	-0.329
Mof_O 	O 	0.0158	0.1039	0.9258	-0.57
Mof_C 	C 	0.083	0.1405	0.8846	0.489
Mof_O 	O 	0.1806	0.1216	0.8847	-0.513
Mof_C 	C 	0.0479	0.2121	0.8287	-0.25
Mof_C 	C 	0.9445	0.2506	0.8326	0.269
Mof_N 	N 	0.8797	0.2322	0.8972	-0.354
Mof_H 	H 	0.8215	0.2613	0.9044	0.178
Mof_H 	H 	0.8978	0.1917	0.93	0.235
Mof_C 	C 	0.917	0.3163	0.7783	-0.15
Mof_H 	H 	0.851	0.3443	0.7827	0.103
Mof_C 	C 	0.987	0.3405	0.7175	-0.016
Mof_C 	C 	0.0839	0.2962	0.7089	0.045
Mof_C 	C 	0.1154	0.2334	0.765	0.003
Mof_H 	H 	0.1815	0.2056	0.7599	0.033
Mof_N 	N 	0.1449	0.3057	0.6411	-0.299
Mof_H 	H 	0.1231	0.3393	0.6035	0.179
Mof_H 	H 	0.2047	0.278	0.6365	0.139
Mof_O 	O 	0.1321	0.9509	0.8229	-0.377
Mof_C 	C 	0.0486	0.9092	0.8419	0.37
Mof_O 	O 	0.9961	0.9136	0.9048	-0.313
Mof_O 	O 	0.8383	0.4865	0.4964	-0.459
Mof_O 	O 	0.9842	0.6039	0.5742	-0.463
Mof_C 	C 	0.917	0.6405	0.6154	0.434
Mof_O 	O 	0.8194	0.6216	0.6153	-0.472
Mof_C 	C 	0.9521	0.7121	0.6713	-0.011
Mof_C 	C 	0.0555	0.7506	0.6674	0.062
Mof_N 	N 	0.1203	0.7322	0.6028	-0.301
Mof_H 	H 	0.1785	0.7613	0.5956	0.157
Mof_H 	H 	0.1022	0.6917	0.57	0.168
Mof_C 	C 	0.083	0.8163	0.7217	-0.01
Mof_H 	H 	0.149	0.8443	0.7173	0.071
Mof_C 	C 	0.013	0.8405	0.7825	-0.182
Mof_C 	C 	0.9161	0.7962	0.7911	0.28
Mof_C 	C 	0.8846	0.7334	0.735	-0.135
Mof_H 	H 	0.8185	0.7056	0.7401	0.103
Mof_N 	N 	0.8551	0.8057	0.8589	-0.348
Mof_H 	H 	0.8769	0.8393	0.8965	0.252
Mof_H 	H 	0.7953	0.778	0.8635	0.186
Mof_O 	O 	0.6321	0.5491	0.6771	-0.486
Mof_C 	C 	0.5486	0.5908	0.6581	0.43
Mof_O 	O 	0.4961	0.5864	0.5952	-0.477
Mof_O 	O 	0.3383	0.0135	0.0036	-0.621
Mof_O 	O 	0.4842	0.8961	0.9258	-0.396
Mof_C 	C 	0.417	0.8595	0.8846	0.463
Mof_O 	O 	0.3194	0.8784	0.8847	-0.398
Mof_C 	C 	0.4521	0.7879	0.8287	-0.107
Mof_C 	C 	0.5555	0.7494	0.8326	0.175
Mof_N 	N 	0.6203	0.7678	0.8972	-0.328
Mof_H 	H 	0.6785	0.7387	0.9044	0.173
Mof_H 	H 	0.6022	0.8083	0.93	0.219
Mof_C 	C 	0.583	0.6837	0.7783	-0.071
Mof_H 	H 	0.649	0.6557	0.7827	0.078
Mof_C 	C 	0.513	0.6595	0.7175	-0.109
Mof_C 	C 	0.4161	0.7038	0.7089	0.167
Mof_C 	C 	0.3846	0.7666	0.765	-0.062
Mof_H 	H 	0.3185	0.7944	0.7599	0.083
Mof_N 	N 	0.3551	0.6943	0.6411	-0.321
Mof_H 	H 	0.3769	0.6607	0.6035	0.202
Mof_H 	H 	0.2953	0.722	0.6365	0.164
Mof_Mg	Mg	0.25	0.5	0.39148	1.477
Mof_N 	N 	0.25	0.5	0.542	0.086
Mof_O 	O 	0.25	0.5	0.6216	-0.131
Mof_Mg	Mg	0.75	0	0.10852	1.45
Mof_N 	N 	0.75	7.85364e-33	0.958	-0.026
Mof_O 	O 	0.75	0	0.8784	-0.217
Mof_Mg	Mg	0.75	0.5	0.60852	1.478
Mof_N 	N 	0.75	0.5	0.458	0.084
Mof_O 	O 	0.75	0.5	0.3784	-0.127
Mof_Mg	Mg	0.25	0	0.89148	1.463
Mof_N 	N 	0.25	-4.90852e-34	0.042	-0.022
Mof_O 	O 	0.25	0	0.1216	-0.24
Mof_Mg	Mg	0.5	0.5	0.5	1.481
Mof_Mg	Mg	-0	0	-0	1.443
Mof_Mg	Mg	-5.31391e-33	0.5	0.5	1.475
Mof_Mg	Mg	0.5	0	-0	1.448
_end
