data_functionalizedCrystal
_audit_creation_method	'EQeq! by Chris Wilmer'
_symmetry_space_group_name_H-M	'P1'
_symmetry_Int_Tables_number	1
_symmetry_cell_setting	triclinic
loop_
_symmetry_equiv_pos_as_xyz
  x,y,z
_cell_length_a	27.246
_cell_length_b	10.443
_cell_length_c	9.361
_cell_angle_alpha	90
_cell_angle_beta	101.743
_cell_angle_gamma	90
loop_
_atom_site_label
_atom_site_type_symbol
_atom_site_fract_x
_atom_site_fract_y
_atom_site_fract_z
_atom_site_charge
Mof_N 	N 	0.14628	0.2724	0.5731	-0.079
Mof_C 	C 	0.14984	0.1651	0.5786	-0.311
Mof_N 	N 	0.64628	0.7724	0.5731	-0.044
Mof_C 	C 	0.64984	0.6651	0.5786	-0.289
Mof_N 	N 	0.85372	0.2724	0.4269	-0.077
Mof_C 	C 	0.85016	0.1651	0.4214	-0.311
Mof_N 	N 	0.35372	0.7724	0.4269	-0.043
Mof_C 	C 	0.35016	0.6651	0.4214	-0.287
Mof_N 	N 	0.85372	0.7276	0.4269	-0.083
Mof_C 	C 	0.85016	0.8349	0.4214	-0.216
Mof_N 	N 	0.35372	0.2276	0.4269	-0.078
Mof_C 	C 	0.35016	0.3349	0.4214	-0.304
Mof_N 	N 	0.14628	0.7276	0.5731	-0.083
Mof_C 	C 	0.14984	0.8349	0.5786	-0.216
Mof_N 	N 	0.64628	0.2276	0.5731	-0.079
Mof_C 	C 	0.64984	0.3349	0.5786	-0.306
Mof_Cd	Cd	-0	0	-0	0.325
Mof_Cd	Cd	0.5	0.5	-0	0.369
Mof_Cd	Cd	0.14004	0.5	0.55635	0.341
Mof_Cu	Cu	0.04689	0.5	0.00484	0.813
Mof_N 	N 	0.0993	0.5	0.3299	-0.103
Mof_N 	N 	0.1018	0.5	0.7458	-0.099
Mof_C 	C 	0.0829	0.5	0.2098	-0.18
Mof_C 	C 	0.0808	0.5	0.8391	-0.201
Mof_Cd	Cd	0.64004	-4.84012e-33	0.55635	0.288
Mof_Cu	Cu	0.54689	-3.78134e-35	0.00484	0.792
Mof_N 	N 	0.5993	-4.84012e-33	0.3299	-0.112
Mof_N 	N 	0.6018	0	0.7458	-0.109
Mof_C 	C 	0.5829	0	0.2098	-0.222
Mof_C 	C 	0.5808	0	0.8391	-0.242
Mof_Cd	Cd	0.85996	0.5	0.44365	0.342
Mof_Cu	Cu	0.95311	0.5	0.99516	0.785
Mof_N 	N 	0.9007	0.5	0.6701	-0.103
Mof_N 	N 	0.8982	0.5	0.2542	-0.101
Mof_C 	C 	0.9171	0.5	0.7902	-0.203
Mof_C 	C 	0.9192	0.5	0.1609	-0.174
Mof_Cd	Cd	0.35996	-4.84012e-33	0.44365	0.291
Mof_Cu	Cu	0.45311	-9.68024e-33	0.99516	0.769
Mof_N 	N 	0.4007	0	0.6701	-0.112
Mof_N 	N 	0.3982	-2.42006e-33	0.2542	-0.111
Mof_C 	C 	0.4171	-9.68024e-33	0.7902	-0.239
Mof_C 	C 	0.4192	0	0.1609	-0.212
Mof_Cu	Cu	0.16489	0	0.44574	0.786
Mof_Cu	Cu	0.14867	0	0.70516	0.787
Mof_N 	N 	0.2778	0	0.4375	-0.106
Mof_N 	N 	0.2411	-9.68024e-33	0.9644	-0.094
Mof_N 	N 	0.0765	-2.42006e-33	0.179	-0.1
Mof_N 	N 	0.0504	-9.68024e-33	0.8245	-0.112
Mof_C 	C 	0.2358	-4.84012e-33	0.4448	-0.237
Mof_C 	C 	0.2083	-9.68024e-33	0.8667	-0.227
Mof_C 	C 	0.1114	-2.42006e-33	0.2724	-0.225
Mof_C 	C 	0.085	-9.68024e-33	0.7743	-0.219
Mof_Cu	Cu	0.66489	0.5	0.44574	0.806
Mof_Cu	Cu	0.64867	0.5	0.70516	0.808
Mof_N 	N 	0.7778	0.5	0.4375	-0.095
Mof_N 	N 	0.7411	0.5	0.9644	-0.079
Mof_N 	N 	0.5765	0.5	0.179	-0.09
Mof_N 	N 	0.5504	0.5	0.8245	-0.104
Mof_C 	C 	0.7358	0.5	0.4448	-0.198
Mof_C 	C 	0.7083	0.5	0.8667	-0.19
Mof_C 	C 	0.6114	0.5	0.2724	-0.186
Mof_C 	C 	0.585	0.5	0.7743	-0.181
Mof_Cu	Cu	0.83511	-4.84012e-33	0.55426	0.784
Mof_Cu	Cu	0.85133	0	0.29484	0.789
Mof_N 	N 	0.7222	-9.68024e-33	0.5625	-0.107
Mof_N 	N 	0.7589	-3.02508e-34	0.0356	-0.079
Mof_N 	N 	0.9235	0	0.821	-0.114
Mof_N 	N 	0.9496	0	0.1755	-0.107
Mof_C 	C 	0.7642	0	0.5552	-0.241
Mof_C 	C 	0.7917	0	0.1333	-0.214
Mof_C 	C 	0.8886	0	0.7276	-0.236
Mof_C 	C 	0.915	-2.42006e-33	0.2257	-0.212
Mof_Cu	Cu	0.33511	0.5	0.55426	0.805
Mof_Cu	Cu	0.35133	0.5	0.29484	0.811
Mof_N 	N 	0.2222	0.5	0.5625	-0.097
Mof_N 	N 	0.2589	0.5	0.0356	-0.063
Mof_N 	N 	0.4235	0.5	0.821	-0.101
Mof_N 	N 	0.4496	0.5	0.1755	-0.094
Mof_C 	C 	0.2642	0.5	0.5552	-0.202
Mof_C 	C 	0.2917	0.5	0.1333	-0.176
Mof_C 	C 	0.3886	0.5	0.7276	-0.196
Mof_C 	C 	0.415	0.5	0.2257	-0.172
Mof_N 	N 	-0	0.2232	-0	-0.077
Mof_C 	C 	-0	0.3325	-0	-0.279
Mof_N 	N 	0.5	0.7232	-0	-0.083
Mof_C 	C 	0.5	0.8325	-0	-0.197
Mof_N 	N 	-2.42006e-33	0.7768	-0	-0.042
Mof_C 	C 	-0	0.6675	-0	-0.263
Mof_N 	N 	0.5	0.2768	-0	-0.078
Mof_C 	C 	0.5	0.1675	-0	-0.289
_end
