data_functionalizedCrystal
_audit_creation_method	'EQeq! by Chris Wilmer'
_symmetry_space_group_name_H-M	'P1'
_symmetry_Int_Tables_number	1
_symmetry_cell_setting	triclinic
loop_
_symmetry_equiv_pos_as_xyz
  x,y,z
_cell_length_a	26.3034
_cell_length_b	26.3034
_cell_length_c	26.3034
_cell_angle_alpha	90
_cell_angle_beta	90
_cell_angle_gamma	90
loop_
_atom_site_label
_atom_site_type_symbol
_atom_site_fract_x
_atom_site_fract_y
_atom_site_fract_z
_atom_site_charge
Mof_O 	O 	0.0523	0.25667	0.81681	-0.419
Mof_O 	O 	0.0523	0.75667	0.31681	-0.421
Mof_O 	O 	0.5523	0.25667	0.31681	-0.408
Mof_O 	O 	0.5523	0.75667	0.81681	-0.399
Mof_O 	O 	0.9477	0.74333	0.81681	-0.366
Mof_O 	O 	0.9477	0.24333	0.31681	-0.375
Mof_O 	O 	0.4477	0.74333	0.31681	-0.403
Mof_O 	O 	0.4477	0.24333	0.81681	-0.401
Mof_O 	O 	0.9477	0.25667	0.18319	-0.381
Mof_O 	O 	0.9477	0.75667	0.68319	-0.373
Mof_O 	O 	0.4477	0.25667	0.68319	-0.408
Mof_O 	O 	0.4477	0.75667	0.18319	-0.41
Mof_O 	O 	0.0523	0.74333	0.18319	-0.423
Mof_O 	O 	0.0523	0.24333	0.68319	-0.422
Mof_O 	O 	0.5523	0.74333	0.68319	-0.402
Mof_O 	O 	0.5523	0.24333	0.18319	-0.411
Mof_O 	O 	0.81681	0.0523	0.25667	-0.418
Mof_O 	O 	0.81681	0.5523	0.75667	-0.398
Mof_O 	O 	0.31681	0.0523	0.75667	-0.42
Mof_O 	O 	0.31681	0.5523	0.25667	-0.407
Mof_O 	O 	0.81681	0.9477	0.74333	-0.365
Mof_O 	O 	0.81681	0.4477	0.24333	-0.4
Mof_O 	O 	0.31681	0.9477	0.24333	-0.374
Mof_O 	O 	0.31681	0.4477	0.74333	-0.402
Mof_O 	O 	0.18319	0.9477	0.25667	-0.38
Mof_O 	O 	0.18319	0.4477	0.75667	-0.409
Mof_O 	O 	0.68319	0.9477	0.75667	-0.372
Mof_O 	O 	0.68319	0.4477	0.25667	-0.407
Mof_O 	O 	0.18319	0.0523	0.74333	-0.423
Mof_O 	O 	0.18319	0.5523	0.24333	-0.411
Mof_O 	O 	0.68319	0.0523	0.24333	-0.422
Mof_O 	O 	0.68319	0.5523	0.74333	-0.402
Mof_O 	O 	0.25667	0.81681	0.0523	-0.418
Mof_O 	O 	0.25667	0.31681	0.5523	-0.407
Mof_O 	O 	0.75667	0.81681	0.5523	-0.398
Mof_O 	O 	0.75667	0.31681	0.0523	-0.42
Mof_O 	O 	0.74333	0.81681	0.9477	-0.365
Mof_O 	O 	0.74333	0.31681	0.4477	-0.402
Mof_O 	O 	0.24333	0.81681	0.4477	-0.4
Mof_O 	O 	0.24333	0.31681	0.9477	-0.374
Mof_O 	O 	0.25667	0.18319	0.9477	-0.38
Mof_O 	O 	0.25667	0.68319	0.4477	-0.407
Mof_O 	O 	0.75667	0.18319	0.4477	-0.409
Mof_O 	O 	0.75667	0.68319	0.9477	-0.372
Mof_O 	O 	0.74333	0.18319	0.0523	-0.423
Mof_O 	O 	0.74333	0.68319	0.5523	-0.402
Mof_O 	O 	0.24333	0.18319	0.5523	-0.411
Mof_O 	O 	0.24333	0.68319	0.0523	-0.422
Mof_O 	O 	0.25667	0.0523	0.18319	-0.428
Mof_O 	O 	0.25667	0.5523	0.68319	-0.407
Mof_O 	O 	0.75667	0.0523	0.68319	-0.42
Mof_O 	O 	0.75667	0.5523	0.18319	-0.409
Mof_O 	O 	0.74333	0.9477	0.18319	-0.375
Mof_O 	O 	0.74333	0.4477	0.68319	-0.402
Mof_O 	O 	0.24333	0.9477	0.68319	-0.374
Mof_O 	O 	0.24333	0.4477	0.18319	-0.411
Mof_O 	O 	0.25667	0.9477	0.81681	-0.37
Mof_O 	O 	0.25667	0.4477	0.31681	-0.407
Mof_O 	O 	0.75667	0.9477	0.31681	-0.372
Mof_O 	O 	0.75667	0.4477	0.81681	-0.398
Mof_O 	O 	0.74333	0.0523	0.81681	-0.414
Mof_O 	O 	0.74333	0.5523	0.31681	-0.402
Mof_O 	O 	0.24333	0.0523	0.31681	-0.422
Mof_O 	O 	0.24333	0.5523	0.81681	-0.4
Mof_O 	O 	0.0523	0.81681	0.74333	-0.414
Mof_O 	O 	0.0523	0.31681	0.24333	-0.422
Mof_O 	O 	0.5523	0.81681	0.24333	-0.4
Mof_O 	O 	0.5523	0.31681	0.74333	-0.402
Mof_O 	O 	0.9477	0.81681	0.25667	-0.37
Mof_O 	O 	0.9477	0.31681	0.75667	-0.372
Mof_O 	O 	0.4477	0.81681	0.75667	-0.398
Mof_O 	O 	0.4477	0.31681	0.25667	-0.407
Mof_O 	O 	0.9477	0.18319	0.74333	-0.375
Mof_O 	O 	0.9477	0.68319	0.24333	-0.374
Mof_O 	O 	0.4477	0.18319	0.24333	-0.411
Mof_O 	O 	0.4477	0.68319	0.74333	-0.402
Mof_O 	O 	0.0523	0.18319	0.25667	-0.428
Mof_O 	O 	0.0523	0.68319	0.75667	-0.42
Mof_O 	O 	0.5523	0.18319	0.75667	-0.409
Mof_O 	O 	0.5523	0.68319	0.25667	-0.407
Mof_O 	O 	0.81681	0.25667	0.9477	-0.37
Mof_O 	O 	0.81681	0.75667	0.4477	-0.398
Mof_O 	O 	0.31681	0.25667	0.4477	-0.407
Mof_O 	O 	0.31681	0.75667	0.9477	-0.372
Mof_O 	O 	0.81681	0.74333	0.0523	-0.414
Mof_O 	O 	0.81681	0.24333	0.5523	-0.4
Mof_O 	O 	0.31681	0.74333	0.5523	-0.402
Mof_O 	O 	0.31681	0.24333	0.0523	-0.422
Mof_O 	O 	0.18319	0.25667	0.0523	-0.428
Mof_O 	O 	0.18319	0.75667	0.5523	-0.409
Mof_O 	O 	0.68319	0.25667	0.5523	-0.407
Mof_O 	O 	0.68319	0.75667	0.0523	-0.42
Mof_O 	O 	0.18319	0.74333	0.9477	-0.375
Mof_O 	O 	0.18319	0.24333	0.4477	-0.411
Mof_O 	O 	0.68319	0.74333	0.4477	-0.402
Mof_O 	O 	0.68319	0.24333	0.9477	-0.374
Mof_O 	O 	0.9477	0.74333	0.18319	-0.375
Mof_O 	O 	0.9477	0.24333	0.68319	-0.374
Mof_O 	O 	0.4477	0.74333	0.68319	-0.402
Mof_O 	O 	0.4477	0.24333	0.18319	-0.411
Mof_O 	O 	0.0523	0.25667	0.18319	-0.428
Mof_O 	O 	0.0523	0.75667	0.68319	-0.42
Mof_O 	O 	0.5523	0.25667	0.68319	-0.407
Mof_O 	O 	0.5523	0.75667	0.18319	-0.409
Mof_O 	O 	0.0523	0.74333	0.81681	-0.414
Mof_O 	O 	0.0523	0.24333	0.31681	-0.422
Mof_O 	O 	0.5523	0.74333	0.31681	-0.402
Mof_O 	O 	0.5523	0.24333	0.81681	-0.4
Mof_O 	O 	0.9477	0.25667	0.81681	-0.37
Mof_O 	O 	0.9477	0.75667	0.31681	-0.372
Mof_O 	O 	0.4477	0.25667	0.31681	-0.407
Mof_O 	O 	0.4477	0.75667	0.81681	-0.398
Mof_O 	O 	0.18319	0.9477	0.74333	-0.375
Mof_O 	O 	0.18319	0.4477	0.24333	-0.411
Mof_O 	O 	0.68319	0.9477	0.24333	-0.374
Mof_O 	O 	0.68319	0.4477	0.74333	-0.402
Mof_O 	O 	0.18319	0.0523	0.25667	-0.428
Mof_O 	O 	0.18319	0.5523	0.75667	-0.409
Mof_O 	O 	0.68319	0.0523	0.75667	-0.42
Mof_O 	O 	0.68319	0.5523	0.25667	-0.407
Mof_O 	O 	0.81681	0.0523	0.74333	-0.414
Mof_O 	O 	0.81681	0.5523	0.24333	-0.4
Mof_O 	O 	0.31681	0.0523	0.24333	-0.422
Mof_O 	O 	0.31681	0.5523	0.74333	-0.402
Mof_O 	O 	0.81681	0.9477	0.25667	-0.37
Mof_O 	O 	0.81681	0.4477	0.75667	-0.398
Mof_O 	O 	0.31681	0.9477	0.75667	-0.372
Mof_O 	O 	0.31681	0.4477	0.25667	-0.407
Mof_O 	O 	0.74333	0.18319	0.9477	-0.375
Mof_O 	O 	0.74333	0.68319	0.4477	-0.402
Mof_O 	O 	0.24333	0.18319	0.4477	-0.411
Mof_O 	O 	0.24333	0.68319	0.9477	-0.374
Mof_O 	O 	0.25667	0.18319	0.0523	-0.428
Mof_O 	O 	0.25667	0.68319	0.5523	-0.407
Mof_O 	O 	0.75667	0.18319	0.5523	-0.409
Mof_O 	O 	0.75667	0.68319	0.0523	-0.42
Mof_O 	O 	0.74333	0.81681	0.0523	-0.414
Mof_O 	O 	0.74333	0.31681	0.5523	-0.402
Mof_O 	O 	0.24333	0.81681	0.5523	-0.4
Mof_O 	O 	0.24333	0.31681	0.0523	-0.422
Mof_O 	O 	0.25667	0.81681	0.9477	-0.37
Mof_O 	O 	0.25667	0.31681	0.4477	-0.407
Mof_O 	O 	0.75667	0.81681	0.4477	-0.398
Mof_O 	O 	0.75667	0.31681	0.9477	-0.372
Mof_O 	O 	0.74333	0.9477	0.81681	-0.365
Mof_O 	O 	0.74333	0.4477	0.31681	-0.402
Mof_O 	O 	0.24333	0.9477	0.31681	-0.374
Mof_O 	O 	0.24333	0.4477	0.81681	-0.4
Mof_O 	O 	0.25667	0.0523	0.81681	-0.418
Mof_O 	O 	0.25667	0.5523	0.31681	-0.407
Mof_O 	O 	0.75667	0.0523	0.31681	-0.42
Mof_O 	O 	0.75667	0.5523	0.81681	-0.398
Mof_O 	O 	0.74333	0.0523	0.18319	-0.423
Mof_O 	O 	0.74333	0.5523	0.68319	-0.402
Mof_O 	O 	0.24333	0.0523	0.68319	-0.422
Mof_O 	O 	0.24333	0.5523	0.18319	-0.411
Mof_O 	O 	0.25667	0.9477	0.18319	-0.38
Mof_O 	O 	0.25667	0.4477	0.68319	-0.407
Mof_O 	O 	0.75667	0.9477	0.68319	-0.372
Mof_O 	O 	0.75667	0.4477	0.18319	-0.409
Mof_O 	O 	0.9477	0.18319	0.25667	-0.38
Mof_O 	O 	0.9477	0.68319	0.75667	-0.372
Mof_O 	O 	0.4477	0.18319	0.75667	-0.409
Mof_O 	O 	0.4477	0.68319	0.25667	-0.407
Mof_O 	O 	0.0523	0.18319	0.74333	-0.423
Mof_O 	O 	0.0523	0.68319	0.24333	-0.422
Mof_O 	O 	0.5523	0.18319	0.24333	-0.411
Mof_O 	O 	0.5523	0.68319	0.74333	-0.402
Mof_O 	O 	0.0523	0.81681	0.25667	-0.418
Mof_O 	O 	0.0523	0.31681	0.75667	-0.42
Mof_O 	O 	0.5523	0.81681	0.75667	-0.398
Mof_O 	O 	0.5523	0.31681	0.25667	-0.407
Mof_O 	O 	0.9477	0.81681	0.74333	-0.365
Mof_O 	O 	0.9477	0.31681	0.24333	-0.374
Mof_O 	O 	0.4477	0.81681	0.24333	-0.4
Mof_O 	O 	0.4477	0.31681	0.74333	-0.402
Mof_O 	O 	0.18319	0.74333	0.0523	-0.423
Mof_O 	O 	0.18319	0.24333	0.5523	-0.411
Mof_O 	O 	0.68319	0.74333	0.5523	-0.402
Mof_O 	O 	0.68319	0.24333	0.0523	-0.422
Mof_O 	O 	0.18319	0.25667	0.9477	-0.38
Mof_O 	O 	0.18319	0.75667	0.4477	-0.409
Mof_O 	O 	0.68319	0.25667	0.4477	-0.407
Mof_O 	O 	0.68319	0.75667	0.9477	-0.372
Mof_O 	O 	0.81681	0.74333	0.9477	-0.365
Mof_O 	O 	0.81681	0.24333	0.4477	-0.4
Mof_O 	O 	0.31681	0.74333	0.4477	-0.402
Mof_O 	O 	0.31681	0.24333	0.9477	-0.374
Mof_O 	O 	0.81681	0.25667	0.0523	-0.418
Mof_O 	O 	0.81681	0.75667	0.5523	-0.398
Mof_O 	O 	0.31681	0.25667	0.5523	-0.407
Mof_O 	O 	0.31681	0.75667	0.0523	-0.42
Mof_Cu	Cu	-2.60454e-33	0.21482	0.78518	0.88
Mof_Cu	Cu	-4.47924e-33	0.71482	0.28518	0.88
Mof_Cu	Cu	0.5	0.21482	0.28518	0.907
Mof_Cu	Cu	0.5	0.71482	0.78518	0.911
Mof_Cu	Cu	2.94395e-33	0.78518	0.78518	0.883
Mof_Cu	Cu	-1.70499e-33	0.28518	0.28518	0.88
Mof_Cu	Cu	0.5	0.78518	0.28518	0.911
Mof_Cu	Cu	0.5	0.28518	0.78518	0.911
Mof_Cu	Cu	8.05446e-34	0.21482	0.21482	0.876
Mof_Cu	Cu	2.68015e-33	0.71482	0.71482	0.88
Mof_Cu	Cu	0.5	0.21482	0.71482	0.907
Mof_Cu	Cu	0.5	0.71482	0.21482	0.907
Mof_Cu	Cu	-1.9688e-33	0.78518	0.21482	0.88
Mof_Cu	Cu	-2.86834e-33	0.28518	0.71482	0.88
Mof_Cu	Cu	0.5	0.78518	0.71482	0.911
Mof_Cu	Cu	0.5	0.28518	0.21482	0.907
Mof_Cu	Cu	0.78518	0	0.21482	0.88
Mof_Cu	Cu	0.78518	0.5	0.71482	0.911
Mof_Cu	Cu	0.28518	0	0.71482	0.88
Mof_Cu	Cu	0.28518	0.5	0.21482	0.907
Mof_Cu	Cu	0.78518	0	0.78518	0.883
Mof_Cu	Cu	0.78518	0.5	0.28518	0.911
Mof_Cu	Cu	0.28518	0	0.28518	0.88
Mof_Cu	Cu	0.28518	0.5	0.78518	0.911
Mof_Cu	Cu	0.21482	0	0.21482	0.876
Mof_Cu	Cu	0.21482	0.5	0.71482	0.907
Mof_Cu	Cu	0.71482	0	0.71482	0.88
Mof_Cu	Cu	0.71482	0.5	0.21482	0.907
Mof_Cu	Cu	0.21482	0	0.78518	0.88
Mof_Cu	Cu	0.21482	0.5	0.28518	0.907
Mof_Cu	Cu	0.71482	0	0.28518	0.88
Mof_Cu	Cu	0.71482	0.5	0.78518	0.911
Mof_Cu	Cu	0.21482	0.78518	-0	0.88
Mof_Cu	Cu	0.21482	0.28518	0.5	0.907
Mof_Cu	Cu	0.71482	0.78518	0.5	0.911
Mof_Cu	Cu	0.71482	0.28518	-0	0.88
Mof_Cu	Cu	0.78518	0.78518	-0	0.883
Mof_Cu	Cu	0.78518	0.28518	0.5	0.911
Mof_Cu	Cu	0.28518	0.78518	0.5	0.911
Mof_Cu	Cu	0.28518	0.28518	-0	0.88
Mof_Cu	Cu	0.21482	0.21482	-0	0.876
Mof_Cu	Cu	0.21482	0.71482	0.5	0.907
Mof_Cu	Cu	0.71482	0.21482	0.5	0.907
Mof_Cu	Cu	0.71482	0.71482	-0	0.88
Mof_Cu	Cu	0.78518	0.21482	-0	0.88
Mof_Cu	Cu	0.78518	0.71482	0.5	0.911
Mof_Cu	Cu	0.28518	0.21482	0.5	0.907
Mof_Cu	Cu	0.28518	0.71482	-0	0.88
Mof_C 	C 	0.0689	0.29752	0.79752	0.385
Mof_C 	C 	0.1122	0.32324	0.82324	-0.175
Mof_C 	C 	0.5689	0.29752	0.29752	0.387
Mof_C 	C 	0.6122	0.32324	0.32324	-0.173
Mof_C 	C 	0.9311	0.70248	0.79752	0.384
Mof_C 	C 	0.8878	0.67676	0.82324	-0.167
Mof_C 	C 	0.9311	0.20248	0.29752	0.382
Mof_C 	C 	0.8878	0.17676	0.32324	-0.168
Mof_C 	C 	0.4311	0.70248	0.29752	0.386
Mof_C 	C 	0.3878	0.67676	0.32324	-0.173
Mof_C 	C 	0.9311	0.29752	0.20248	0.382
Mof_C 	C 	0.8878	0.32324	0.17676	-0.168
Mof_C 	C 	0.4311	0.29752	0.70248	0.386
Mof_C 	C 	0.3878	0.32324	0.67676	-0.173
Mof_C 	C 	0.0689	0.70248	0.20248	0.382
Mof_C 	C 	0.1122	0.67676	0.17676	-0.176
Mof_C 	C 	0.5689	0.70248	0.70248	0.385
Mof_C 	C 	0.6122	0.67676	0.67676	-0.173
Mof_C 	C 	0.5689	0.20248	0.20248	0.384
Mof_C 	C 	0.6122	0.17676	0.17676	-0.174
Mof_C 	C 	0.79752	0.0689	0.29752	0.385
Mof_C 	C 	0.82324	0.1122	0.32324	-0.175
Mof_C 	C 	0.79752	0.5689	0.79752	0.388
Mof_C 	C 	0.82324	0.6122	0.82324	-0.171
Mof_C 	C 	0.29752	0.5689	0.29752	0.387
Mof_C 	C 	0.32324	0.6122	0.32324	-0.173
Mof_C 	C 	0.79752	0.9311	0.70248	0.384
Mof_C 	C 	0.82324	0.8878	0.67676	-0.167
Mof_C 	C 	0.79752	0.4311	0.20248	0.386
Mof_C 	C 	0.82324	0.3878	0.17676	-0.172
Mof_C 	C 	0.29752	0.9311	0.20248	0.382
Mof_C 	C 	0.32324	0.8878	0.17676	-0.168
Mof_C 	C 	0.20248	0.9311	0.29752	0.382
Mof_C 	C 	0.17676	0.8878	0.32324	-0.168
Mof_C 	C 	0.20248	0.4311	0.79752	0.386
Mof_C 	C 	0.17676	0.3878	0.82324	-0.172
Mof_C 	C 	0.20248	0.0689	0.70248	0.382
Mof_C 	C 	0.17676	0.1122	0.67676	-0.176
Mof_C 	C 	0.20248	0.5689	0.20248	0.384
Mof_C 	C 	0.17676	0.6122	0.17676	-0.174
Mof_C 	C 	0.29752	0.79752	0.0689	0.385
Mof_C 	C 	0.32324	0.82324	0.1122	-0.175
Mof_C 	C 	0.29752	0.29752	0.5689	0.387
Mof_C 	C 	0.32324	0.32324	0.6122	-0.173
Mof_C 	C 	0.70248	0.79752	0.9311	0.384
Mof_C 	C 	0.67676	0.82324	0.8878	-0.167
Mof_C 	C 	0.70248	0.29752	0.4311	0.386
Mof_C 	C 	0.67676	0.32324	0.3878	-0.173
Mof_C 	C 	0.20248	0.29752	0.9311	0.382
Mof_C 	C 	0.17676	0.32324	0.8878	-0.168
Mof_C 	C 	0.29752	0.20248	0.9311	0.382
Mof_C 	C 	0.32324	0.17676	0.8878	-0.168
Mof_C 	C 	0.29752	0.70248	0.4311	0.386
Mof_C 	C 	0.32324	0.67676	0.3878	-0.173
Mof_C 	C 	0.70248	0.20248	0.0689	0.382
Mof_C 	C 	0.67676	0.17676	0.1122	-0.176
Mof_C 	C 	0.70248	0.70248	0.5689	0.385
Mof_C 	C 	0.67676	0.67676	0.6122	-0.173
Mof_C 	C 	0.20248	0.20248	0.5689	0.384
Mof_C 	C 	0.17676	0.17676	0.6122	-0.174
Mof_C 	C 	0.29752	0.0689	0.20248	0.383
Mof_C 	C 	0.32324	0.1122	0.17676	-0.176
Mof_C 	C 	0.29752	0.5689	0.70248	0.386
Mof_C 	C 	0.32324	0.6122	0.67676	-0.173
Mof_C 	C 	0.70248	0.9311	0.20248	0.381
Mof_C 	C 	0.67676	0.8878	0.17676	-0.168
Mof_C 	C 	0.70248	0.4311	0.70248	0.385
Mof_C 	C 	0.67676	0.3878	0.67676	-0.172
Mof_C 	C 	0.20248	0.4311	0.20248	0.384
Mof_C 	C 	0.17676	0.3878	0.17676	-0.174
Mof_C 	C 	0.29752	0.9311	0.79752	0.384
Mof_C 	C 	0.32324	0.8878	0.82324	-0.167
Mof_C 	C 	0.29752	0.4311	0.29752	0.387
Mof_C 	C 	0.32324	0.3878	0.32324	-0.173
Mof_C 	C 	0.70248	0.0689	0.79752	0.385
Mof_C 	C 	0.67676	0.1122	0.82324	-0.175
Mof_C 	C 	0.70248	0.5689	0.29752	0.386
Mof_C 	C 	0.67676	0.6122	0.32324	-0.173
Mof_C 	C 	0.20248	0.0689	0.29752	0.383
Mof_C 	C 	0.17676	0.1122	0.32324	-0.176
Mof_C 	C 	0.0689	0.79752	0.70248	0.385
Mof_C 	C 	0.1122	0.82324	0.67676	-0.175
Mof_C 	C 	0.0689	0.29752	0.20248	0.383
Mof_C 	C 	0.1122	0.32324	0.17676	-0.176
Mof_C 	C 	0.5689	0.79752	0.20248	0.386
Mof_C 	C 	0.6122	0.82324	0.17676	-0.172
Mof_C 	C 	0.9311	0.79752	0.29752	0.384
Mof_C 	C 	0.8878	0.82324	0.32324	-0.167
Mof_C 	C 	0.4311	0.79752	0.79752	0.388
Mof_C 	C 	0.3878	0.82324	0.82324	-0.171
Mof_C 	C 	0.4311	0.29752	0.29752	0.387
Mof_C 	C 	0.3878	0.32324	0.32324	-0.173
Mof_C 	C 	0.9311	0.20248	0.70248	0.381
Mof_C 	C 	0.8878	0.17676	0.67676	-0.168
Mof_C 	C 	0.4311	0.20248	0.20248	0.384
Mof_C 	C 	0.3878	0.17676	0.17676	-0.174
Mof_C 	C 	0.0689	0.20248	0.29752	0.383
Mof_C 	C 	0.1122	0.17676	0.32324	-0.176
Mof_C 	C 	0.5689	0.20248	0.79752	0.386
Mof_C 	C 	0.6122	0.17676	0.82324	-0.172
Mof_C 	C 	0.79752	0.29752	0.9311	0.384
Mof_C 	C 	0.82324	0.32324	0.8878	-0.167
Mof_C 	C 	0.79752	0.79752	0.4311	0.388
Mof_C 	C 	0.82324	0.82324	0.3878	-0.171
Mof_C 	C 	0.29752	0.29752	0.4311	0.387
Mof_C 	C 	0.32324	0.32324	0.3878	-0.173
Mof_C 	C 	0.79752	0.70248	0.0689	0.385
Mof_C 	C 	0.82324	0.67676	0.1122	-0.175
Mof_C 	C 	0.79752	0.20248	0.5689	0.386
Mof_C 	C 	0.82324	0.17676	0.6122	-0.172
Mof_C 	C 	0.29752	0.20248	0.0689	0.383
Mof_C 	C 	0.32324	0.17676	0.1122	-0.176
Mof_C 	C 	0.20248	0.29752	0.0689	0.383
Mof_C 	C 	0.17676	0.32324	0.1122	-0.176
Mof_C 	C 	0.20248	0.79752	0.5689	0.386
Mof_C 	C 	0.17676	0.82324	0.6122	-0.172
Mof_C 	C 	0.20248	0.70248	0.9311	0.381
Mof_C 	C 	0.17676	0.67676	0.8878	-0.168
Mof_C 	C 	0.20248	0.20248	0.4311	0.384
Mof_C 	C 	0.17676	0.17676	0.3878	-0.174
Mof_C 	C 	0.9311	0.70248	0.20248	0.381
Mof_C 	C 	0.8878	0.67676	0.17676	-0.168
Mof_C 	C 	0.4311	0.70248	0.70248	0.385
Mof_C 	C 	0.3878	0.67676	0.67676	-0.172
Mof_C 	C 	0.5689	0.29752	0.70248	0.386
Mof_C 	C 	0.6122	0.32324	0.67676	-0.173
Mof_C 	C 	0.0689	0.70248	0.79752	0.385
Mof_C 	C 	0.1122	0.67676	0.82324	-0.175
Mof_C 	C 	0.5689	0.70248	0.29752	0.386
Mof_C 	C 	0.6122	0.67676	0.32324	-0.173
Mof_C 	C 	0.9311	0.29752	0.79752	0.384
Mof_C 	C 	0.8878	0.32324	0.82324	-0.167
Mof_C 	C 	0.20248	0.9311	0.70248	0.381
Mof_C 	C 	0.17676	0.8878	0.67676	-0.168
Mof_C 	C 	0.20248	0.5689	0.79752	0.386
Mof_C 	C 	0.17676	0.6122	0.82324	-0.172
Mof_C 	C 	0.79752	0.0689	0.70248	0.385
Mof_C 	C 	0.82324	0.1122	0.67676	-0.175
Mof_C 	C 	0.79752	0.5689	0.20248	0.386
Mof_C 	C 	0.82324	0.6122	0.17676	-0.172
Mof_C 	C 	0.79752	0.9311	0.29752	0.384
Mof_C 	C 	0.82324	0.8878	0.32324	-0.167
Mof_C 	C 	0.79752	0.4311	0.79752	0.388
Mof_C 	C 	0.82324	0.3878	0.82324	-0.171
Mof_C 	C 	0.70248	0.20248	0.9311	0.381
Mof_C 	C 	0.67676	0.17676	0.8878	-0.168
Mof_C 	C 	0.70248	0.70248	0.4311	0.385
Mof_C 	C 	0.67676	0.67676	0.3878	-0.172
Mof_C 	C 	0.29752	0.70248	0.5689	0.386
Mof_C 	C 	0.32324	0.67676	0.6122	-0.173
Mof_C 	C 	0.70248	0.79752	0.0689	0.385
Mof_C 	C 	0.67676	0.82324	0.1122	-0.175
Mof_C 	C 	0.70248	0.29752	0.5689	0.386
Mof_C 	C 	0.67676	0.32324	0.6122	-0.173
Mof_C 	C 	0.29752	0.79752	0.9311	0.384
Mof_C 	C 	0.32324	0.82324	0.8878	-0.167
Mof_C 	C 	0.70248	0.9311	0.79752	0.384
Mof_C 	C 	0.67676	0.8878	0.82324	-0.167
Mof_C 	C 	0.70248	0.4311	0.29752	0.386
Mof_C 	C 	0.67676	0.3878	0.32324	-0.173
Mof_C 	C 	0.29752	0.0689	0.79752	0.385
Mof_C 	C 	0.32324	0.1122	0.82324	-0.175
Mof_C 	C 	0.70248	0.0689	0.20248	0.382
Mof_C 	C 	0.67676	0.1122	0.17676	-0.176
Mof_C 	C 	0.70248	0.5689	0.70248	0.385
Mof_C 	C 	0.67676	0.6122	0.67676	-0.173
Mof_C 	C 	0.29752	0.4311	0.70248	0.386
Mof_C 	C 	0.32324	0.3878	0.67676	-0.173
Mof_C 	C 	0.4311	0.20248	0.79752	0.386
Mof_C 	C 	0.3878	0.17676	0.82324	-0.172
Mof_C 	C 	0.0689	0.20248	0.70248	0.382
Mof_C 	C 	0.1122	0.17676	0.67676	-0.176
Mof_C 	C 	0.0689	0.79752	0.29752	0.385
Mof_C 	C 	0.1122	0.82324	0.32324	-0.175
Mof_C 	C 	0.5689	0.79752	0.79752	0.388
Mof_C 	C 	0.6122	0.82324	0.82324	-0.171
Mof_C 	C 	0.9311	0.79752	0.70248	0.384
Mof_C 	C 	0.8878	0.82324	0.67676	-0.167
Mof_C 	C 	0.4311	0.79752	0.20248	0.386
Mof_C 	C 	0.3878	0.82324	0.17676	-0.172
Mof_C 	C 	0.20248	0.70248	0.0689	0.382
Mof_C 	C 	0.17676	0.67676	0.1122	-0.176
Mof_C 	C 	0.20248	0.79752	0.4311	0.386
Mof_C 	C 	0.17676	0.82324	0.3878	-0.172
Mof_C 	C 	0.79752	0.70248	0.9311	0.384
Mof_C 	C 	0.82324	0.67676	0.8878	-0.167
Mof_C 	C 	0.79752	0.20248	0.4311	0.386
Mof_C 	C 	0.82324	0.17676	0.3878	-0.172
Mof_C 	C 	0.79752	0.29752	0.0689	0.385
Mof_C 	C 	0.82324	0.32324	0.1122	-0.175
Mof_C 	C 	0.79752	0.79752	0.5689	0.388
Mof_C 	C 	0.82324	0.82324	0.6122	-0.171
Mof_C 	C 	0.1336	0.3664	0.8017	0.137
Mof_C 	C 	0.1336	0.8664	0.3017	0.14
Mof_C 	C 	0.8664	0.6336	0.8017	0.152
Mof_C 	C 	0.8664	0.1336	0.3017	0.14
Mof_C 	C 	0.3664	0.1336	0.8017	0.137
Mof_C 	C 	0.8664	0.3664	0.1983	0.146
Mof_C 	C 	0.8664	0.8664	0.6983	0.159
Mof_C 	C 	0.3664	0.3664	0.6983	0.143
Mof_C 	C 	0.1336	0.6336	0.1983	0.131
Mof_C 	C 	0.1336	0.1336	0.6983	0.128
Mof_C 	C 	0.8017	0.1336	0.3664	0.137
Mof_C 	C 	0.3017	0.1336	0.8664	0.14
Mof_C 	C 	0.8017	0.8664	0.6336	0.152
Mof_C 	C 	0.8017	0.3664	0.1336	0.137
Mof_C 	C 	0.3017	0.8664	0.1336	0.14
Mof_C 	C 	0.1983	0.8664	0.3664	0.146
Mof_C 	C 	0.6983	0.8664	0.8664	0.159
Mof_C 	C 	0.6983	0.3664	0.3664	0.143
Mof_C 	C 	0.1983	0.1336	0.6336	0.131
Mof_C 	C 	0.6983	0.1336	0.1336	0.128
Mof_C 	C 	0.3664	0.8017	0.1336	0.137
Mof_C 	C 	0.3664	0.3017	0.6336	0.14
Mof_C 	C 	0.6336	0.8017	0.8664	0.152
Mof_C 	C 	0.6336	0.3017	0.3664	0.14
Mof_C 	C 	0.1336	0.8017	0.3664	0.137
Mof_C 	C 	0.3664	0.1983	0.8664	0.146
Mof_C 	C 	0.3664	0.6983	0.3664	0.143
Mof_C 	C 	0.6336	0.1983	0.1336	0.131
Mof_C 	C 	0.6336	0.6983	0.6336	0.144
Mof_C 	C 	0.1336	0.6983	0.1336	0.128
Mof_C 	C 	0.3664	0.1336	0.1983	0.131
Mof_C 	C 	0.3664	0.6336	0.6983	0.143
Mof_C 	C 	0.6336	0.8664	0.1983	0.147
Mof_C 	C 	0.6336	0.3664	0.6983	0.143
Mof_C 	C 	0.1336	0.3664	0.1983	0.131
Mof_C 	C 	0.3664	0.8664	0.8017	0.152
Mof_C 	C 	0.3664	0.3664	0.3017	0.14
Mof_C 	C 	0.6336	0.1336	0.8017	0.137
Mof_C 	C 	0.6336	0.6336	0.3017	0.14
Mof_C 	C 	0.1336	0.1336	0.3017	0.125
Mof_C 	C 	0.1336	0.8017	0.6336	0.137
Mof_C 	C 	0.1336	0.3017	0.1336	0.125
Mof_C 	C 	0.8664	0.8017	0.3664	0.152
Mof_C 	C 	0.8664	0.3017	0.8664	0.155
Mof_C 	C 	0.3664	0.3017	0.3664	0.14
Mof_C 	C 	0.8664	0.1983	0.6336	0.147
Mof_C 	C 	0.8664	0.6983	0.1336	0.143
Mof_C 	C 	0.3664	0.1983	0.1336	0.131
Mof_C 	C 	0.1336	0.1983	0.3664	0.131
Mof_C 	C 	0.1336	0.6983	0.8664	0.143
Mof_C 	C 	0.8017	0.3664	0.8664	0.152
Mof_C 	C 	0.3017	0.3664	0.3664	0.14
Mof_C 	C 	0.8017	0.6336	0.1336	0.137
Mof_C 	C 	0.3017	0.6336	0.6336	0.14
Mof_C 	C 	0.3017	0.1336	0.1336	0.125
Mof_C 	C 	0.1983	0.3664	0.1336	0.131
Mof_C 	C 	0.6983	0.3664	0.6336	0.143
Mof_C 	C 	0.1983	0.6336	0.8664	0.147
Mof_C 	C 	0.1983	0.1336	0.3664	0.131
Mof_C 	C 	0.6983	0.6336	0.3664	0.143
Mof_C 	C 	0.8664	0.6336	0.1983	0.147
Mof_C 	C 	0.8664	0.1336	0.6983	0.143
Mof_C 	C 	0.1336	0.8664	0.6983	0.143
Mof_C 	C 	0.1336	0.6336	0.8017	0.137
Mof_C 	C 	0.8664	0.3664	0.8017	0.152
Mof_C 	C 	0.8664	0.8664	0.3017	0.155
Mof_C 	C 	0.1983	0.8664	0.6336	0.147
Mof_C 	C 	0.6983	0.8664	0.1336	0.143
Mof_C 	C 	0.6983	0.1336	0.8664	0.143
Mof_C 	C 	0.8017	0.1336	0.6336	0.137
Mof_C 	C 	0.8017	0.8664	0.3664	0.152
Mof_C 	C 	0.3017	0.8664	0.8664	0.155
Mof_C 	C 	0.6336	0.1983	0.8664	0.147
Mof_C 	C 	0.6336	0.6983	0.3664	0.143
Mof_C 	C 	0.3664	0.6983	0.6336	0.143
Mof_C 	C 	0.6336	0.8017	0.1336	0.137
Mof_C 	C 	0.6336	0.3017	0.6336	0.14
Mof_C 	C 	0.3664	0.8017	0.8664	0.152
Mof_C 	C 	0.6336	0.8664	0.8017	0.152
Mof_C 	C 	0.6336	0.3664	0.3017	0.14
Mof_C 	C 	0.3664	0.6336	0.3017	0.14
Mof_C 	C 	0.6336	0.1336	0.1983	0.131
Mof_C 	C 	0.6336	0.6336	0.6983	0.144
Mof_C 	C 	0.3664	0.8664	0.1983	0.146
Mof_C 	C 	0.8664	0.1983	0.3664	0.146
Mof_C 	C 	0.8664	0.6983	0.8664	0.159
Mof_C 	C 	0.1336	0.1983	0.6336	0.131
Mof_C 	C 	0.1336	0.3017	0.8664	0.14
Mof_C 	C 	0.8664	0.8017	0.6336	0.152
Mof_C 	C 	0.8664	0.3017	0.1336	0.14
Mof_C 	C 	0.1983	0.6336	0.1336	0.131
Mof_C 	C 	0.6983	0.6336	0.6336	0.144
Mof_C 	C 	0.1983	0.3664	0.8664	0.146
Mof_C 	C 	0.8017	0.6336	0.8664	0.152
Mof_C 	C 	0.3017	0.6336	0.3664	0.14
Mof_C 	C 	0.3017	0.3664	0.6336	0.14
_end
