# CIF file generated by openbabel 3.1.0, see https://openbabel.org
data_I
_chemical_name_common 'image0'
_cell_length_a 5.9953
_cell_length_b 11.9355
_cell_length_c 23.368
_cell_angle_alpha 90
_cell_angle_beta 97.076
_cell_angle_gamma 90
_space_group_name_H-M_alt 'P 1'
_space_group_name_Hall 'P 1'
loop_
    _symmetry_equiv_pos_as_xyz
    x,y,z
loop_
    _atom_site_label
    _atom_site_type_symbol
    _atom_site_fract_x
    _atom_site_fract_y
    _atom_site_fract_z
    _atom_site_occupancy
    Gd1      Gd       0.61423    0.14572    0.04399    1.000
    O1       O        0.50800    0.83490    0.15480    1.000
    O2       O        0.62100    0.93270    0.03550    1.000
    O3       O        0.84500    0.00700    0.10680    1.000
    O4       O        0.29500    0.72020    0.02930    1.000
    O5       O        0.12300    0.88310    0.02800    1.000
    O6       O        0.53900    0.74430    0.41190    1.000
    O7       O        0.82700    0.73280    0.36140    1.000
    C1       C        0.68400    0.76440    0.14390    1.000
    C2       C        0.82400    0.80970    0.10520    1.000
    C3       C        0.99900    0.74160    0.09080    1.000
    C4       C        0.04400    0.63900    0.11520    1.000
    H1       H        0.17260    0.59790    0.10800    1.000
    C5       C        0.89600    0.59690    0.15090    1.000
    H2       H        0.92060    0.52400    0.16680    1.000
    C6       C        0.71600    0.65800    0.16390    1.000
    H3       H        0.61220    0.62550    0.18690    1.000
    C7       C        0.76200    0.92160    0.08050    1.000
    C8       C        0.15200    0.78450    0.04820    1.000
    C9       C        0.44200    0.83720    0.20950    1.000
    C10      C        0.57400    0.79630    0.25980    1.000
    H4       H        0.71880    0.76470    0.25830    1.000
    C11      C        0.48100    0.80480    0.31150    1.000
    C12      C        0.27200    0.85000    0.31420    1.000
    H5       H        0.20850    0.85150    0.34940    1.000
    C13      C        0.15500    0.89360    0.26310    1.000
    H6       H        0.01390    0.92890    0.26500    1.000
    C14      C        0.23500    0.88760    0.21200    1.000
    H7       H        0.15100    0.91710    0.17820    1.000
    C15      C        0.61500    0.75910    0.36240    1.000
    Gd2      Gd       0.88577    0.64572    0.45601    1.000
    O8       O        0.99200    0.33490    0.34520    1.000
    O9       O        0.87900    0.43270    0.46450    1.000
    O10      O        0.65500    0.50700    0.39320    1.000
    O11      O        0.20500    0.22020    0.47070    1.000
    O12      O        0.37700    0.38310    0.47200    1.000
    O13      O        0.96100    0.24430    0.08810    1.000
    O14      O        0.67300    0.23280    0.13860    1.000
    C16      C        0.81600    0.26440    0.35610    1.000
    C17      C        0.67600    0.30970    0.39480    1.000
    C18      C        0.50100    0.24160    0.40920    1.000
    C19      C        0.45600    0.13900    0.38480    1.000
    H8       H        0.32740    0.09790    0.39200    1.000
    C20      C        0.60400    0.09690    0.34910    1.000
    H9       H        0.57940    0.02400    0.33320    1.000
    C21      C        0.78400    0.15800    0.33610    1.000
    H10      H        0.88780    0.12550    0.31310    1.000
    C22      C        0.73800    0.42160    0.41950    1.000
    C23      C        0.34800    0.28450    0.45180    1.000
    C24      C        0.05800    0.33720    0.29050    1.000
    C25      C        0.92600    0.29630    0.24020    1.000
    H11      H        0.78120    0.26470    0.24170    1.000
    C26      C        0.01900    0.30480    0.18850    1.000
    C27      C        0.22800    0.35000    0.18580    1.000
    H12      H        0.29150    0.35150    0.15060    1.000
    C28      C        0.34500    0.39360    0.23690    1.000
    H13      H        0.48610    0.42890    0.23500    1.000
    C29      C        0.26500    0.38760    0.28800    1.000
    H14      H        0.34900    0.41710    0.32180    1.000
    C30      C        0.88500    0.25910    0.13760    1.000
    Gd3      Gd       0.38577    0.85428    0.95601    1.000
    O15      O        0.49200    0.16510    0.84520    1.000
    O16      O        0.37900    0.06730    0.96450    1.000
    O17      O        0.15500    0.99300    0.89320    1.000
    O18      O        0.70500    0.27980    0.97070    1.000
    O19      O        0.87700    0.11690    0.97200    1.000
    O20      O        0.46100    0.25570    0.58810    1.000
    O21      O        0.17300    0.26720    0.63860    1.000
    C31      C        0.31600    0.23560    0.85610    1.000
    C32      C        0.17600    0.19030    0.89480    1.000
    C33      C        0.00100    0.25840    0.90920    1.000
    C34      C        0.95600    0.36100    0.88480    1.000
    H15      H        0.82740    0.40210    0.89200    1.000
    C35      C        0.10400    0.40310    0.84910    1.000
    H16      H        0.07940    0.47600    0.83320    1.000
    C36      C        0.28400    0.34200    0.83610    1.000
    H17      H        0.38780    0.37450    0.81310    1.000
    C37      C        0.23800    0.07840    0.91950    1.000
    C38      C        0.84800    0.21550    0.95180    1.000
    C39      C        0.55800    0.16280    0.79050    1.000
    C40      C        0.42600    0.20370    0.74020    1.000
    H18      H        0.28120    0.23530    0.74170    1.000
    C41      C        0.51900    0.19520    0.68850    1.000
    C42      C        0.72800    0.15000    0.68580    1.000
    H19      H        0.79150    0.14850    0.65060    1.000
    C43      C        0.84500    0.10640    0.73690    1.000
    H20      H        0.98610    0.07110    0.73500    1.000
    C44      C        0.76500    0.11240    0.78800    1.000
    H21      H        0.84900    0.08290    0.82180    1.000
    C45      C        0.38500    0.24090    0.63760    1.000
    Gd4      Gd       0.11423    0.35428    0.54399    1.000
    O22      O        0.00800    0.66510    0.65480    1.000
    O23      O        0.12100    0.56730    0.53550    1.000
    O24      O        0.34500    0.49300    0.60680    1.000
    O25      O        0.79500    0.77980    0.52930    1.000
    O26      O        0.62300    0.61690    0.52800    1.000
    O27      O        0.03900    0.75570    0.91190    1.000
    O28      O        0.32700    0.76720    0.86140    1.000
    C46      C        0.18400    0.73560    0.64390    1.000
    C47      C        0.32400    0.69030    0.60520    1.000
    C48      C        0.49900    0.75840    0.59080    1.000
    C49      C        0.54400    0.86100    0.61520    1.000
    H22      H        0.67260    0.90210    0.60800    1.000
    C50      C        0.39600    0.90310    0.65090    1.000
    H23      H        0.42060    0.97600    0.66680    1.000
    C51      C        0.21600    0.84200    0.66390    1.000
    H24      H        0.11220    0.87450    0.68690    1.000
    C52      C        0.26200    0.57840    0.58050    1.000
    C53      C        0.65200    0.71550    0.54820    1.000
    C54      C        0.94200    0.66280    0.70950    1.000
    C55      C        0.07400    0.70370    0.75980    1.000
    H25      H        0.21880    0.73530    0.75830    1.000
    C56      C        0.98100    0.69520    0.81150    1.000
    C57      C        0.77200    0.65000    0.81420    1.000
    H26      H        0.70850    0.64850    0.84940    1.000
    C58      C        0.65500    0.60640    0.76310    1.000
    H27      H        0.51390    0.57110    0.76500    1.000
    C59      C        0.73500    0.61240    0.71200    1.000
    H28      H        0.65100    0.58290    0.67820    1.000
    C60      C        0.11500    0.74090    0.86240    1.000
