data_functionalizedCrystal
_audit_creation_method	'EQeq! by Chris Wilmer'
_symmetry_space_group_name_H-M	'P1'
_symmetry_Int_Tables_number	1
_symmetry_cell_setting	triclinic
loop_
_symmetry_equiv_pos_as_xyz
  x,y,z
_cell_length_a	18.586
_cell_length_b	18.586
_cell_length_c	38.461
_cell_angle_alpha	90
_cell_angle_beta	90
_cell_angle_gamma	120
loop_
_atom_site_label
_atom_site_type_symbol
_atom_site_fract_x
_atom_site_fract_y
_atom_site_fract_z
_atom_site_charge
Mof_C 	C 	0.3598	0.9073	0.97298	0.362
Mof_C 	C 	0.2806	0.8491	0.95601	-0.083
Mof_C 	C 	0.2652	0.8636	0.9223	-0.013
Mof_H 	H 	0.304	0.9134	0.9108	0.063
Mof_C 	C 	0.5478	0.9074	0.97298	0.362
Mof_C 	C 	0.5687	0.849	0.95606	-0.082
Mof_C 	C 	0.5537	0.7767	0.97311	0.034
Mof_H 	H 	0.5334	0.7665	0.9963	0.056
Mof_C 	C 	0.5984	0.8636	0.92225	-0.015
Mof_H 	H 	0.609	0.9132	0.9108	0.063
Mof_C 	C 	0.6127	0.8065	0.90501	0.015
Mof_C 	C 	0.6405	0.8203	0.86797	0.007
Mof_C 	C 	0.7036	0.8968	0.857	0.073
Mof_C 	C 	0.7047	0.8074	0.8575	0.074
Mof_C 	C 	0.6049	0.8489	0.8444	-0.088
Mof_H 	H 	0.5641	0.8619	0.852	0.079
Mof_C 	C 	0.605	0.7554	0.8446	-0.087
Mof_H 	H 	0.5642	0.7015	0.8521	0.078
Mof_N 	N 	0.7578	0.7896	0.8808	-0.09
Mof_N 	N 	0.7568	0.969	0.8808	-0.089
Mof_O 	O 	0.51812	0.88967	0.00346	-0.4
Mof_O 	O 	0.58856	0.03039	0.044	-0.404
Mof_O 	O 	0.44177	0.03045	0.04401	-0.404
Mof_O 	O 	0.37163	0.88979	0.00349	-0.401
Mof_Cu	Cu	0.47633	0.95271	0.02832	0.91
Mof_C 	C 	0.02647	0.24063	0.30631	0.361
Mof_C 	C 	0.94727	0.18243	0.28934	-0.083
Mof_C 	C 	0.93187	0.19693	0.25563	-0.015
Mof_H 	H 	0.97067	0.24673	0.24413	0.062
Mof_C 	C 	0.21447	0.24073	0.30631	0.361
Mof_C 	C 	0.23537	0.18233	0.28939	-0.083
Mof_C 	C 	0.22037	0.11003	0.30644	0.033
Mof_H 	H 	0.20007	0.09983	0.32963	0.055
Mof_C 	C 	0.26507	0.19693	0.25558	-0.016
Mof_H 	H 	0.27567	0.24653	0.24413	0.062
Mof_C 	C 	0.27937	0.13983	0.23834	0.014
Mof_C 	C 	0.30717	0.15363	0.2013	0.006
Mof_C 	C 	0.37027	0.23013	0.19033	0.072
Mof_C 	C 	0.37137	0.14073	0.19083	0.073
Mof_C 	C 	0.27157	0.18223	0.17773	-0.089
Mof_H 	H 	0.23077	0.19523	0.18533	0.077
Mof_C 	C 	0.27167	0.08873	0.17793	-0.088
Mof_H 	H 	0.23087	0.03483	0.18543	0.077
Mof_N 	N 	0.42447	0.12293	0.21413	-0.091
Mof_N 	N 	0.42347	0.30233	0.21413	-0.09
Mof_O 	O 	0.18479	0.223	0.33679	-0.4
Mof_O 	O 	0.25523	0.36372	0.37733	-0.404
Mof_O 	O 	0.10844	0.36378	0.37734	-0.404
Mof_O 	O 	0.0383	0.22312	0.33682	-0.401
Mof_Cu	Cu	0.143	0.28604	0.36165	0.91
Mof_C 	C 	0.69313	0.57397	0.63965	0.361
Mof_C 	C 	0.61393	0.51577	0.62268	-0.084
Mof_C 	C 	0.59853	0.53027	0.58897	-0.015
Mof_H 	H 	0.63733	0.58007	0.57747	0.062
Mof_C 	C 	0.88113	0.57407	0.63965	0.361
Mof_C 	C 	0.90203	0.51567	0.62273	-0.083
Mof_C 	C 	0.88703	0.44337	0.63978	0.033
Mof_H 	H 	0.86673	0.43317	0.66297	0.055
Mof_C 	C 	0.93173	0.53027	0.58892	-0.016
Mof_H 	H 	0.94233	0.57987	0.57747	0.062
Mof_C 	C 	0.94603	0.47317	0.57168	0.014
Mof_C 	C 	0.97383	0.48697	0.53464	0.006
Mof_C 	C 	0.03693	0.56347	0.52367	0.072
Mof_C 	C 	0.03803	0.47407	0.52417	0.073
Mof_C 	C 	0.93823	0.51557	0.51107	-0.089
Mof_H 	H 	0.89743	0.52857	0.51867	0.077
Mof_C 	C 	0.93833	0.42207	0.51127	-0.088
Mof_H 	H 	0.89753	0.36817	0.51877	0.077
Mof_N 	N 	0.09113	0.45627	0.54747	-0.091
Mof_N 	N 	0.09013	0.63567	0.54747	-0.09
Mof_O 	O 	0.85145	0.55634	0.67013	-0.4
Mof_O 	O 	0.92189	0.69706	0.71067	-0.404
Mof_O 	O 	0.7751	0.69712	0.71068	-0.404
Mof_O 	O 	0.70496	0.55646	0.67016	-0.401
Mof_Cu	Cu	0.80966	0.61938	0.69498	0.91
Mof_C 	C 	0.0927	0.4525	0.97298	0.361
Mof_C 	C 	0.1509	0.4315	0.95601	-0.084
Mof_C 	C 	0.1364	0.4016	0.9223	-0.014
Mof_H 	H 	0.0866	0.3906	0.9108	0.062
Mof_C 	C 	0.0926	0.6404	0.97298	0.361
Mof_C 	C 	0.151	0.7197	0.95606	-0.083
Mof_C 	C 	0.2233	0.777	0.97311	0.033
Mof_H 	H 	0.2335	0.7669	0.9963	0.055
Mof_C 	C 	0.1364	0.7348	0.92225	-0.016
Mof_H 	H 	0.0868	0.6958	0.9108	0.062
Mof_C 	C 	0.1935	0.8062	0.90501	0.014
Mof_C 	C 	0.1797	0.8202	0.86797	0.006
Mof_C 	C 	0.1032	0.8068	0.857	0.072
Mof_C 	C 	0.1926	0.8973	0.8575	0.073
Mof_C 	C 	0.1511	0.756	0.8444	-0.089
Mof_H 	H 	0.1381	0.7022	0.852	0.078
Mof_C 	C 	0.2446	0.8496	0.8446	-0.088
Mof_H 	H 	0.2985	0.8627	0.8521	0.077
Mof_N 	N 	0.2104	0.9682	0.8808	-0.091
Mof_N 	N 	0.031	0.7878	0.8808	-0.09
Mof_O 	O 	0.11033	0.62845	0.00346	-0.4
Mof_O 	O 	0.96961	0.55817	0.044	-0.404
Mof_O 	O 	0.96955	0.41132	0.04401	-0.404
Mof_O 	O 	0.11021	0.48184	0.00349	-0.401
Mof_Cu	Cu	0.04729	0.52362	0.02832	0.91
Mof_C 	C 	0.75937	0.78583	0.30631	0.361
Mof_C 	C 	0.81757	0.76483	0.28934	-0.084
Mof_C 	C 	0.80307	0.73493	0.25563	-0.015
Mof_H 	H 	0.75327	0.72393	0.24413	0.062
Mof_C 	C 	0.75927	0.97373	0.30631	0.36
Mof_C 	C 	0.81767	0.05303	0.28939	-0.083
Mof_C 	C 	0.88997	0.11033	0.30644	0.033
Mof_H 	H 	0.90017	0.10023	0.32963	0.055
Mof_C 	C 	0.80307	0.06813	0.25558	-0.016
Mof_H 	H 	0.75347	0.02913	0.24413	0.063
Mof_C 	C 	0.86017	0.13953	0.23834	0.014
Mof_C 	C 	0.84637	0.15353	0.2013	0.006
Mof_C 	C 	0.76987	0.14013	0.19033	0.072
Mof_C 	C 	0.85927	0.23063	0.19083	0.073
Mof_C 	C 	0.81777	0.08933	0.17773	-0.089
Mof_H 	H 	0.80477	0.03553	0.18533	0.078
Mof_C 	C 	0.91127	0.18293	0.17793	-0.088
Mof_H 	H 	0.96517	0.19603	0.18543	0.077
Mof_N 	N 	0.87707	0.30153	0.21413	-0.091
Mof_N 	N 	0.69767	0.12113	0.21413	-0.09
Mof_O 	O 	0.777	0.96178	0.33679	-0.4
Mof_O 	O 	0.63628	0.8915	0.37733	-0.404
Mof_O 	O 	0.63622	0.74465	0.37734	-0.404
Mof_O 	O 	0.77688	0.81517	0.33682	-0.401
Mof_Cu	Cu	0.71396	0.85695	0.36165	0.91
Mof_C 	C 	0.42603	0.11917	0.63965	0.361
Mof_C 	C 	0.48423	0.09817	0.62268	-0.084
Mof_C 	C 	0.46973	0.06827	0.58897	-0.015
Mof_H 	H 	0.41993	0.05727	0.57747	0.062
Mof_C 	C 	0.42593	0.30707	0.63965	0.361
Mof_C 	C 	0.48433	0.38637	0.62273	-0.083
Mof_C 	C 	0.55663	0.44367	0.63978	0.033
Mof_H 	H 	0.56683	0.43357	0.66297	0.055
Mof_C 	C 	0.46973	0.40147	0.58892	-0.016
Mof_H 	H 	0.42013	0.36247	0.57747	0.062
Mof_C 	C 	0.52683	0.47287	0.57168	0.014
Mof_C 	C 	0.51303	0.48687	0.53464	0.006
Mof_C 	C 	0.43653	0.47347	0.52367	0.072
Mof_C 	C 	0.52593	0.56397	0.52417	0.073
Mof_C 	C 	0.48443	0.42267	0.51107	-0.089
Mof_H 	H 	0.47143	0.36887	0.51867	0.077
Mof_C 	C 	0.57793	0.51627	0.51127	-0.088
Mof_H 	H 	0.63183	0.52937	0.51877	0.077
Mof_N 	N 	0.54373	0.63487	0.54747	-0.091
Mof_N 	N 	0.36433	0.45447	0.54747	-0.09
Mof_O 	O 	0.44366	0.29512	0.67013	-0.4
Mof_O 	O 	0.30294	0.22484	0.71067	-0.404
Mof_O 	O 	0.30288	0.07799	0.71068	-0.404
Mof_O 	O 	0.44354	0.14851	0.67016	-0.401
Mof_Cu	Cu	0.38062	0.19029	0.69498	0.91
Mof_C 	C 	0.5475	0.6402	0.97298	0.361
Mof_C 	C 	0.5685	0.7194	0.95601	-0.084
Mof_C 	C 	0.5984	0.7348	0.9223	-0.014
Mof_H 	H 	0.6094	0.696	0.9108	0.062
Mof_C 	C 	0.3596	0.4522	0.97298	0.361
Mof_C 	C 	0.2803	0.4313	0.95606	-0.083
Mof_C 	C 	0.223	0.4463	0.97311	0.033
Mof_H 	H 	0.2331	0.4666	0.9963	0.055
Mof_C 	C 	0.2652	0.4016	0.92225	-0.016
Mof_H 	H 	0.3042	0.391	0.9108	0.062
Mof_C 	C 	0.1938	0.3873	0.90501	0.014
Mof_C 	C 	0.1798	0.3595	0.86797	0.006
Mof_C 	C 	0.1932	0.2964	0.857	0.072
Mof_C 	C 	0.1027	0.2953	0.8575	0.073
Mof_C 	C 	0.244	0.3951	0.8444	-0.089
Mof_H 	H 	0.2978	0.4359	0.852	0.077
Mof_C 	C 	0.1504	0.395	0.8446	-0.088
Mof_H 	H 	0.1373	0.4358	0.8521	0.077
Mof_N 	N 	0.0318	0.2422	0.8808	-0.091
Mof_N 	N 	0.2122	0.2432	0.8808	-0.09
Mof_O 	O 	0.37155	0.48188	0.00346	-0.4
Mof_O 	O 	0.44183	0.41144	0.044	-0.404
Mof_O 	O 	0.58868	0.55823	0.04401	-0.404
Mof_O 	O 	0.51816	0.62837	0.00349	-0.401
Mof_Cu	Cu	0.47638	0.52367	0.02832	0.91
Mof_C 	C 	0.21417	0.97353	0.30631	0.361
Mof_C 	C 	0.23517	0.05273	0.28934	-0.083
Mof_C 	C 	0.26507	0.06813	0.25563	-0.015
Mof_H 	H 	0.27607	0.02933	0.24413	0.062
Mof_C 	C 	0.02627	0.78553	0.30631	0.36
Mof_C 	C 	0.94697	0.76463	0.28939	-0.083
Mof_C 	C 	0.88967	0.77963	0.30644	0.033
Mof_H 	H 	0.89977	0.79993	0.32963	0.055
Mof_C 	C 	0.93187	0.73493	0.25558	-0.016
Mof_H 	H 	0.97087	0.72433	0.24413	0.063
Mof_C 	C 	0.86047	0.72063	0.23834	0.014
Mof_C 	C 	0.84647	0.69283	0.2013	0.006
Mof_C 	C 	0.85987	0.62973	0.19033	0.072
Mof_C 	C 	0.76937	0.62863	0.19083	0.073
Mof_C 	C 	0.91067	0.72843	0.17773	-0.089
Mof_H 	H 	0.96447	0.76923	0.18533	0.077
Mof_C 	C 	0.81707	0.72833	0.17793	-0.088
Mof_H 	H 	0.80397	0.76913	0.18543	0.077
Mof_N 	N 	0.69847	0.57553	0.21413	-0.091
Mof_N 	N 	0.87887	0.57653	0.21413	-0.09
Mof_O 	O 	0.03822	0.81521	0.33679	-0.4
Mof_O 	O 	0.1085	0.74477	0.37733	-0.404
Mof_O 	O 	0.25535	0.89156	0.37734	-0.404
Mof_O 	O 	0.18483	0.9617	0.33682	-0.401
Mof_Cu	Cu	0.14305	0.857	0.36165	0.91
Mof_C 	C 	0.88083	0.30687	0.63965	0.361
Mof_C 	C 	0.90183	0.38607	0.62268	-0.084
Mof_C 	C 	0.93173	0.40147	0.58897	-0.015
Mof_H 	H 	0.94273	0.36267	0.57747	0.062
Mof_C 	C 	0.69293	0.11887	0.63965	0.361
Mof_C 	C 	0.61363	0.09797	0.62273	-0.083
Mof_C 	C 	0.55633	0.11297	0.63978	0.033
Mof_H 	H 	0.56643	0.13327	0.66297	0.055
Mof_C 	C 	0.59853	0.06827	0.58892	-0.016
Mof_H 	H 	0.63753	0.05767	0.57747	0.062
Mof_C 	C 	0.52713	0.05397	0.57168	0.014
Mof_C 	C 	0.51313	0.02617	0.53464	0.006
Mof_C 	C 	0.52653	0.96307	0.52367	0.072
Mof_C 	C 	0.43603	0.96197	0.52417	0.073
Mof_C 	C 	0.57733	0.06177	0.51107	-0.089
Mof_H 	H 	0.63113	0.10257	0.51867	0.077
Mof_C 	C 	0.48373	0.06167	0.51127	-0.088
Mof_H 	H 	0.47063	0.10247	0.51877	0.077
Mof_N 	N 	0.36513	0.90887	0.54747	-0.091
Mof_N 	N 	0.54553	0.90987	0.54747	-0.09
Mof_O 	O 	0.70488	0.14855	0.67013	-0.4
Mof_O 	O 	0.77516	0.07811	0.71067	-0.404
Mof_O 	O 	0.92201	0.2249	0.71068	-0.404
Mof_O 	O 	0.85149	0.29504	0.67016	-0.401
Mof_Cu	Cu	0.80971	0.19034	0.69498	0.91
Mof_C 	C 	0.6402	0.0927	0.02702	0.361
Mof_C 	C 	0.7194	0.1509	0.04399	-0.084
Mof_C 	C 	0.7348	0.1364	0.0777	-0.014
Mof_H 	H 	0.696	0.0866	0.0892	0.062
Mof_C 	C 	0.4522	0.0926	0.02702	0.361
Mof_C 	C 	0.4313	0.151	0.04394	-0.083
Mof_C 	C 	0.4463	0.2233	0.02689	0.033
Mof_H 	H 	0.4666	0.2335	0.0037	0.055
Mof_C 	C 	0.4016	0.1364	0.07775	-0.016
Mof_H 	H 	0.391	0.0868	0.0892	0.062
Mof_C 	C 	0.3873	0.1935	0.09499	0.014
Mof_C 	C 	0.3595	0.1797	0.13203	0.006
Mof_C 	C 	0.2964	0.1032	0.143	0.072
Mof_C 	C 	0.2953	0.1926	0.1425	0.073
Mof_C 	C 	0.3951	0.1511	0.1556	-0.089
Mof_H 	H 	0.4359	0.1381	0.148	0.078
Mof_C 	C 	0.395	0.2446	0.1554	-0.088
Mof_H 	H 	0.4358	0.2985	0.1479	0.077
Mof_N 	N 	0.2422	0.2104	0.1192	-0.091
Mof_N 	N 	0.2432	0.031	0.1192	-0.09
Mof_O 	O 	0.48188	0.11033	0.99654	-0.4
Mof_O 	O 	0.41144	0.96961	0.956	-0.404
Mof_O 	O 	0.55823	0.96955	0.95599	-0.404
Mof_O 	O 	0.62837	0.11021	0.99651	-0.401
Mof_Cu	Cu	0.52367	0.04729	0.97168	0.91
Mof_C 	C 	0.30687	0.42603	0.36035	0.361
Mof_C 	C 	0.38607	0.48423	0.37732	-0.084
Mof_C 	C 	0.40147	0.46973	0.41103	-0.015
Mof_H 	H 	0.36267	0.41993	0.42253	0.062
Mof_C 	C 	0.11887	0.42593	0.36035	0.361
Mof_C 	C 	0.09797	0.48433	0.37727	-0.083
Mof_C 	C 	0.11297	0.55663	0.36022	0.033
Mof_H 	H 	0.13327	0.56683	0.33703	0.055
Mof_C 	C 	0.06827	0.46973	0.41108	-0.016
Mof_H 	H 	0.05767	0.42013	0.42253	0.062
Mof_C 	C 	0.05397	0.52683	0.42832	0.014
Mof_C 	C 	0.02617	0.51303	0.46536	0.006
Mof_C 	C 	0.96307	0.43653	0.47633	0.072
Mof_C 	C 	0.96197	0.52593	0.47583	0.073
Mof_C 	C 	0.06177	0.48443	0.48893	-0.089
Mof_H 	H 	0.10257	0.47143	0.48133	0.077
Mof_C 	C 	0.06167	0.57793	0.48873	-0.088
Mof_H 	H 	0.10247	0.63183	0.48123	0.077
Mof_N 	N 	0.90887	0.54373	0.45253	-0.091
Mof_N 	N 	0.90987	0.36433	0.45253	-0.09
Mof_O 	O 	0.14855	0.44366	0.32987	-0.4
Mof_O 	O 	0.07811	0.30294	0.28933	-0.404
Mof_O 	O 	0.2249	0.30288	0.28932	-0.404
Mof_O 	O 	0.29504	0.44354	0.32984	-0.401
Mof_Cu	Cu	0.19034	0.38062	0.30502	0.91
Mof_C 	C 	0.97353	0.75937	0.69369	0.361
Mof_C 	C 	0.05273	0.81757	0.71066	-0.083
Mof_C 	C 	0.06813	0.80307	0.74437	-0.015
Mof_H 	H 	0.02933	0.75327	0.75587	0.062
Mof_C 	C 	0.78553	0.75927	0.69369	0.361
Mof_C 	C 	0.76463	0.81767	0.71061	-0.083
Mof_C 	C 	0.77963	0.88997	0.69356	0.033
Mof_H 	H 	0.79993	0.90017	0.67037	0.055
Mof_C 	C 	0.73493	0.80307	0.74442	-0.016
Mof_H 	H 	0.72433	0.75347	0.75587	0.062
Mof_C 	C 	0.72063	0.86017	0.76166	0.014
Mof_C 	C 	0.69283	0.84637	0.7987	0.006
Mof_C 	C 	0.62973	0.76987	0.80967	0.072
Mof_C 	C 	0.62863	0.85927	0.80917	0.073
Mof_C 	C 	0.72843	0.81777	0.82227	-0.089
Mof_H 	H 	0.76923	0.80477	0.81467	0.077
Mof_C 	C 	0.72833	0.91127	0.82207	-0.088
Mof_H 	H 	0.76913	0.96517	0.81457	0.077
Mof_N 	N 	0.57553	0.87707	0.78587	-0.091
Mof_N 	N 	0.57653	0.69767	0.78587	-0.09
Mof_O 	O 	0.81521	0.777	0.66321	-0.4
Mof_O 	O 	0.74477	0.63628	0.62267	-0.404
Mof_O 	O 	0.89156	0.63622	0.62266	-0.404
Mof_O 	O 	0.9617	0.77688	0.66318	-0.401
Mof_Cu	Cu	0.857	0.71396	0.63835	0.91
Mof_C 	C 	0.9073	0.5475	0.02702	0.361
Mof_C 	C 	0.8491	0.5685	0.04399	-0.084
Mof_C 	C 	0.8636	0.5984	0.0777	-0.014
Mof_H 	H 	0.9134	0.6094	0.0892	0.062
Mof_C 	C 	0.9074	0.3596	0.02702	0.361
Mof_C 	C 	0.849	0.2803	0.04394	-0.083
Mof_C 	C 	0.7767	0.223	0.02689	0.033
Mof_H 	H 	0.7665	0.2331	0.0037	0.055
Mof_C 	C 	0.8636	0.2652	0.07775	-0.016
Mof_H 	H 	0.9132	0.3042	0.0892	0.062
Mof_C 	C 	0.8065	0.1938	0.09499	0.014
Mof_C 	C 	0.8203	0.1798	0.13203	0.006
Mof_C 	C 	0.8968	0.1932	0.143	0.072
Mof_C 	C 	0.8074	0.1027	0.1425	0.073
Mof_C 	C 	0.8489	0.244	0.1556	-0.089
Mof_H 	H 	0.8619	0.2978	0.148	0.078
Mof_C 	C 	0.7554	0.1504	0.1554	-0.088
Mof_H 	H 	0.7015	0.1373	0.1479	0.077
Mof_N 	N 	0.7896	0.0318	0.1192	-0.091
Mof_N 	N 	0.969	0.2122	0.1192	-0.09
Mof_O 	O 	0.88967	0.37155	0.99654	-0.4
Mof_O 	O 	0.03039	0.44183	0.956	-0.404
Mof_O 	O 	0.03045	0.58868	0.95599	-0.404
Mof_O 	O 	0.88979	0.51816	0.99651	-0.401
Mof_Cu	Cu	0.95271	0.47638	0.97168	0.91
Mof_C 	C 	0.57397	0.88083	0.36035	0.361
Mof_C 	C 	0.51577	0.90183	0.37732	-0.084
Mof_C 	C 	0.53027	0.93173	0.41103	-0.015
Mof_H 	H 	0.58007	0.94273	0.42253	0.062
Mof_C 	C 	0.57407	0.69293	0.36035	0.361
Mof_C 	C 	0.51567	0.61363	0.37727	-0.083
Mof_C 	C 	0.44337	0.55633	0.36022	0.033
Mof_H 	H 	0.43317	0.56643	0.33703	0.055
Mof_C 	C 	0.53027	0.59853	0.41108	-0.016
Mof_H 	H 	0.57987	0.63753	0.42253	0.062
Mof_C 	C 	0.47317	0.52713	0.42832	0.014
Mof_C 	C 	0.48697	0.51313	0.46536	0.006
Mof_C 	C 	0.56347	0.52653	0.47633	0.072
Mof_C 	C 	0.47407	0.43603	0.47583	0.073
Mof_C 	C 	0.51557	0.57733	0.48893	-0.089
Mof_H 	H 	0.52857	0.63113	0.48133	0.077
Mof_C 	C 	0.42207	0.48373	0.48873	-0.088
Mof_H 	H 	0.36817	0.47063	0.48123	0.077
Mof_N 	N 	0.45627	0.36513	0.45253	-0.091
Mof_N 	N 	0.63567	0.54553	0.45253	-0.09
Mof_O 	O 	0.55634	0.70488	0.32987	-0.4
Mof_O 	O 	0.69706	0.77516	0.28933	-0.404
Mof_O 	O 	0.69712	0.92201	0.28932	-0.404
Mof_O 	O 	0.55646	0.85149	0.32984	-0.401
Mof_Cu	Cu	0.61938	0.80971	0.30502	0.91
Mof_C 	C 	0.24063	0.21417	0.69369	0.361
Mof_C 	C 	0.18243	0.23517	0.71066	-0.084
Mof_C 	C 	0.19693	0.26507	0.74437	-0.015
Mof_H 	H 	0.24673	0.27607	0.75587	0.062
Mof_C 	C 	0.24073	0.02627	0.69369	0.36
Mof_C 	C 	0.18233	0.94697	0.71061	-0.083
Mof_C 	C 	0.11003	0.88967	0.69356	0.033
Mof_H 	H 	0.09983	0.89977	0.67037	0.055
Mof_C 	C 	0.19693	0.93187	0.74442	-0.016
Mof_H 	H 	0.24653	0.97087	0.75587	0.063
Mof_C 	C 	0.13983	0.86047	0.76166	0.014
Mof_C 	C 	0.15363	0.84647	0.7987	0.006
Mof_C 	C 	0.23013	0.85987	0.80967	0.072
Mof_C 	C 	0.14073	0.76937	0.80917	0.073
Mof_C 	C 	0.18223	0.91067	0.82227	-0.089
Mof_H 	H 	0.19523	0.96447	0.81467	0.078
Mof_C 	C 	0.08873	0.81707	0.82207	-0.088
Mof_H 	H 	0.03483	0.80397	0.81457	0.077
Mof_N 	N 	0.12293	0.69847	0.78587	-0.091
Mof_N 	N 	0.30233	0.87887	0.78587	-0.09
Mof_O 	O 	0.223	0.03822	0.66321	-0.4
Mof_O 	O 	0.36372	0.1085	0.62267	-0.404
Mof_O 	O 	0.36378	0.25535	0.62266	-0.404
Mof_O 	O 	0.22312	0.18483	0.66318	-0.401
Mof_Cu	Cu	0.28604	0.14305	0.63835	0.91
Mof_C 	C 	0.4525	0.3598	0.02702	0.361
Mof_C 	C 	0.4315	0.2806	0.04399	-0.084
Mof_C 	C 	0.4016	0.2652	0.0777	-0.014
Mof_H 	H 	0.3906	0.304	0.0892	0.062
Mof_C 	C 	0.6404	0.5478	0.02702	0.361
Mof_C 	C 	0.7197	0.5687	0.04394	-0.083
Mof_C 	C 	0.777	0.5537	0.02689	0.033
Mof_H 	H 	0.7669	0.5334	0.0037	0.055
Mof_C 	C 	0.7348	0.5984	0.07775	-0.016
Mof_H 	H 	0.6958	0.609	0.0892	0.062
Mof_C 	C 	0.8062	0.6127	0.09499	0.014
Mof_C 	C 	0.8202	0.6405	0.13203	0.006
Mof_C 	C 	0.8068	0.7036	0.143	0.072
Mof_C 	C 	0.8973	0.7047	0.1425	0.073
Mof_C 	C 	0.756	0.6049	0.1556	-0.089
Mof_H 	H 	0.7022	0.5641	0.148	0.077
Mof_C 	C 	0.8496	0.605	0.1554	-0.088
Mof_H 	H 	0.8627	0.5642	0.1479	0.077
Mof_N 	N 	0.9682	0.7578	0.1192	-0.091
Mof_N 	N 	0.7878	0.7568	0.1192	-0.09
Mof_O 	O 	0.62845	0.51812	0.99654	-0.4
Mof_O 	O 	0.55817	0.58856	0.956	-0.404
Mof_O 	O 	0.41132	0.44177	0.95599	-0.404
Mof_O 	O 	0.48184	0.37163	0.99651	-0.401
Mof_Cu	Cu	0.52362	0.47633	0.97168	0.91
Mof_C 	C 	0.11917	0.69313	0.36035	0.361
Mof_C 	C 	0.09817	0.61393	0.37732	-0.084
Mof_C 	C 	0.06827	0.59853	0.41103	-0.015
Mof_H 	H 	0.05727	0.63733	0.42253	0.062
Mof_C 	C 	0.30707	0.88113	0.36035	0.361
Mof_C 	C 	0.38637	0.90203	0.37727	-0.083
Mof_C 	C 	0.44367	0.88703	0.36022	0.033
Mof_H 	H 	0.43357	0.86673	0.33703	0.055
Mof_C 	C 	0.40147	0.93173	0.41108	-0.016
Mof_H 	H 	0.36247	0.94233	0.42253	0.062
Mof_C 	C 	0.47287	0.94603	0.42832	0.014
Mof_C 	C 	0.48687	0.97383	0.46536	0.006
Mof_C 	C 	0.47347	0.03693	0.47633	0.072
Mof_C 	C 	0.56397	0.03803	0.47583	0.073
Mof_C 	C 	0.42267	0.93823	0.48893	-0.089
Mof_H 	H 	0.36887	0.89743	0.48133	0.077
Mof_C 	C 	0.51627	0.93833	0.48873	-0.088
Mof_H 	H 	0.52937	0.89753	0.48123	0.077
Mof_N 	N 	0.63487	0.09113	0.45253	-0.091
Mof_N 	N 	0.45447	0.09013	0.45253	-0.09
Mof_O 	O 	0.29512	0.85145	0.32987	-0.4
Mof_O 	O 	0.22484	0.92189	0.28933	-0.404
Mof_O 	O 	0.07799	0.7751	0.28932	-0.404
Mof_O 	O 	0.14851	0.70496	0.32984	-0.401
Mof_Cu	Cu	0.19029	0.80966	0.30502	0.91
Mof_C 	C 	0.78583	0.02647	0.69369	0.361
Mof_C 	C 	0.76483	0.94727	0.71066	-0.083
Mof_C 	C 	0.73493	0.93187	0.74437	-0.015
Mof_H 	H 	0.72393	0.97067	0.75587	0.062
Mof_C 	C 	0.97373	0.21447	0.69369	0.36
Mof_C 	C 	0.05303	0.23537	0.71061	-0.083
Mof_C 	C 	0.11033	0.22037	0.69356	0.033
Mof_H 	H 	0.10023	0.20007	0.67037	0.055
Mof_C 	C 	0.06813	0.26507	0.74442	-0.016
Mof_H 	H 	0.02913	0.27567	0.75587	0.063
Mof_C 	C 	0.13953	0.27937	0.76166	0.014
Mof_C 	C 	0.15353	0.30717	0.7987	0.006
Mof_C 	C 	0.14013	0.37027	0.80967	0.072
Mof_C 	C 	0.23063	0.37137	0.80917	0.073
Mof_C 	C 	0.08933	0.27157	0.82227	-0.089
Mof_H 	H 	0.03553	0.23077	0.81467	0.077
Mof_C 	C 	0.18293	0.27167	0.82207	-0.088
Mof_H 	H 	0.19603	0.23087	0.81457	0.077
Mof_N 	N 	0.30153	0.42447	0.78587	-0.091
Mof_N 	N 	0.12113	0.42347	0.78587	-0.09
Mof_O 	O 	0.96178	0.18479	0.66321	-0.4
Mof_O 	O 	0.8915	0.25523	0.62267	-0.404
Mof_O 	O 	0.74465	0.10844	0.62266	-0.404
Mof_O 	O 	0.81517	0.0383	0.66318	-0.401
Mof_Cu	Cu	0.85695	0.143	0.63835	0.91
_end
