data_functionalizedCrystal
_audit_creation_method	'EQeq! by Chris Wilmer'
_symmetry_space_group_name_H-M	'P1'
_symmetry_Int_Tables_number	1
_symmetry_cell_setting	triclinic
loop_
_symmetry_equiv_pos_as_xyz
  x,y,z
_cell_length_a	13.39
_cell_length_b	24.074
_cell_length_c	13.179
_cell_angle_alpha	90
_cell_angle_beta	90
_cell_angle_gamma	90
loop_
_atom_site_label
_atom_site_type_symbol
_atom_site_fract_x
_atom_site_fract_y
_atom_site_fract_z
_atom_site_charge
Mof_O 	O 	0.2986	0.1124	0.2086	-0.464
Mof_O 	O 	0.4325	0.0612	0.2118	-0.571
Mof_C 	C 	0.3413	0.0699	0.2315	0.376
Mof_Sm	Sm	0.44108	0.84298	0.61653	2.031
Mof_O 	O 	0.513	0.7388	0.6259	-0.42
Mof_O 	O 	0.3536	0.7574	0.6103	-0.482
Mof_C 	C 	0.3355	0.5523	0.5845	-0.02
Mof_H 	H 	0.3159	0.5158	0.5729	0.067
Mof_C 	C 	0.3971	0.6615	0.6098	-0.067
Mof_C 	C 	0.2631	0.5933	0.5966	-0.146
Mof_C 	C 	0.2986	0.6476	0.6043	0.043
Mof_H 	H 	0.2519	0.6762	0.6058	0.026
Mof_O 	O 	0.1313	0.5323	0.588	-0.51
Mof_C 	C 	0.1565	0.5816	0.5998	0.491
Mof_C 	C 	0.469	0.6192	0.6031	-0.069
Mof_H 	H 	0.5366	0.6277	0.6077	0.076
Mof_C 	C 	0.4392	0.5656	0.5897	0.08
Mof_C 	C 	0.4268	0.723	0.6215	0.309
Mof_C 	C 	0.3406	0.9095	0.4673	0.276
Mof_C 	C 	0.3381	0.9889	0.3485	0.045
Mof_H 	H 	0.4073	0.991	0.3533	0.03
Mof_O 	O 	0.0992	0.6221	0.615	-0.638
Mof_N 	N 	0.5152	0.5239	0.585	-0.081
Mof_C 	C 	0.2834	0.0273	0.289	-0.117
Mof_C 	C 	0.2843	0.9476	0.4002	-0.039
Mof_O 	O 	0.3026	0.8636	0.4961	-0.416
Mof_O 	O 	0.4289	0.9255	0.5005	-0.471
Mof_C 	C 	0.1792	0.9434	0.3904	-0.098
Mof_H 	H 	0.1451	0.9138	0.4198	0.084
Mof_C 	C 	0.1793	0.0268	0.2887	-0.117
Mof_H 	H 	0.1437	0.055	0.2567	0.086
Mof_C 	C 	0.1287	0.9828	0.3377	0.156
Mof_N 	N 	0.0241	0.9769	0.3363	-0.096
Mof_O 	O 	0.7986	0.6124	0.7086	-0.46
Mof_O 	O 	0.9325	0.5612	0.7118	-0.545
Mof_C 	C 	0.8413	0.5699	0.7315	0.368
Mof_Sm	Sm	0.94108	0.34298	0.11653	2.089
Mof_O 	O 	0.013	0.2388	0.1259	-0.485
Mof_O 	O 	0.8536	0.2574	0.1103	-0.505
Mof_C 	C 	0.8355	0.0523	0.0845	-0.002
Mof_H 	H 	0.8159	0.0158	0.0729	0.039
Mof_C 	C 	0.8971	0.1615	0.1098	-0.126
Mof_C 	C 	0.7631	0.0933	0.0966	-0.173
Mof_C 	C 	0.7986	0.1476	0.1043	0.081
Mof_H 	H 	0.7519	0.1762	0.1058	0.014
Mof_O 	O 	0.6313	0.0323	0.088	-0.526
Mof_C 	C 	0.6565	0.0816	0.0998	0.495
Mof_C 	C 	0.969	0.1192	0.1031	0.04
Mof_H 	H 	0.0366	0.1277	0.1077	0.008
Mof_C 	C 	0.9392	0.0656	0.0897	0.058
Mof_C 	C 	0.9268	0.223	0.1215	0.384
Mof_C 	C 	0.8406	0.4095	0.9673	0.298
Mof_C 	C 	0.8381	0.4889	0.8485	-0.017
Mof_H 	H 	0.9073	0.491	0.8533	0.05
Mof_O 	O 	0.5992	0.1221	0.115	-0.611
Mof_N 	N 	0.0152	0.0239	0.085	-0.139
Mof_C 	C 	0.7834	0.5273	0.789	-0.063
Mof_C 	C 	0.7843	0.4476	0.9002	-0.031
Mof_O 	O 	0.8026	0.3636	0.9961	-0.407
Mof_O 	O 	0.9289	0.4255	0.0005	-0.493
Mof_C 	C 	0.6792	0.4434	0.8904	-0.09
Mof_H 	H 	0.6451	0.4138	0.9198	0.091
Mof_C 	C 	0.6793	0.5268	0.7887	-0.067
Mof_H 	H 	0.6437	0.555	0.7567	0.084
Mof_C 	C 	0.6287	0.4828	0.8377	0.113
Mof_N 	N 	0.5241	0.4769	0.8363	-0.083
Mof_O 	O 	0.7014	0.8876	0.2086	-0.455
Mof_O 	O 	0.5675	0.9388	0.2118	-0.54
Mof_C 	C 	0.6587	0.9301	0.2315	0.363
Mof_Sm	Sm	0.55892	0.15702	0.61653	2.027
Mof_O 	O 	0.487	0.2612	0.6259	-0.42
Mof_O 	O 	0.6464	0.2426	0.6103	-0.478
Mof_C 	C 	0.6645	0.4477	0.5845	-0.026
Mof_H 	H 	0.6841	0.4842	0.5729	0.069
Mof_C 	C 	0.6029	0.3385	0.6098	-0.061
Mof_C 	C 	0.7369	0.4067	0.5966	-0.133
Mof_C 	C 	0.7014	0.3524	0.6043	0.035
Mof_H 	H 	0.7481	0.3238	0.6058	0.034
Mof_O 	O 	0.8687	0.4677	0.588	-0.485
Mof_C 	C 	0.8435	0.4184	0.5998	0.475
Mof_C 	C 	0.531	0.3808	0.6031	-0.073
Mof_H 	H 	0.4634	0.3723	0.6077	0.078
Mof_C 	C 	0.5608	0.4344	0.5897	0.084
Mof_C 	C 	0.5732	0.277	0.6215	0.307
Mof_C 	C 	0.6594	0.0905	0.4673	0.266
Mof_C 	C 	0.6619	0.0111	0.3485	-0.078
Mof_H 	H 	0.5927	0.009	0.3533	0.039
Mof_O 	O 	0.9008	0.3779	0.615	-0.576
Mof_N 	N 	0.4848	0.4761	0.585	-0.081
Mof_C 	C 	0.7166	0.9727	0.289	-0.028
Mof_C 	C 	0.7157	0.0524	0.4002	-0.031
Mof_O 	O 	0.6974	0.1364	0.4961	-0.413
Mof_O 	O 	0.5711	0.0745	0.5005	-0.487
Mof_C 	C 	0.8208	0.0566	0.3904	-0.084
Mof_H 	H 	0.8549	0.0862	0.4198	0.085
Mof_C 	C 	0.8207	0.9732	0.2887	-0.013
Mof_H 	H 	0.8563	0.945	0.2567	0.076
Mof_C 	C 	0.8713	0.0172	0.3377	0.058
Mof_N 	N 	0.9759	0.0231	0.3363	-0.075
Mof_O 	O 	0.2014	0.3876	0.7086	-0.453
Mof_O 	O 	0.0675	0.4388	0.7118	-0.568
Mof_C 	C 	0.1587	0.4301	0.7315	0.375
Mof_Sm	Sm	0.05892	0.65702	0.11653	1.914
Mof_O 	O 	0.987	0.7612	0.1259	-0.362
Mof_O 	O 	0.1464	0.7426	0.1103	-0.463
Mof_C 	C 	0.1645	0.9477	0.0845	-0.04
Mof_H 	H 	0.1841	0.9842	0.0729	0.085
Mof_C 	C 	0.1029	0.8385	0.1098	-0.016
Mof_C 	C 	0.2369	0.9067	0.0966	-0.117
Mof_C 	C 	0.2014	0.8524	0.1043	0.001
Mof_H 	H 	0.2481	0.8238	0.1058	0.039
Mof_O 	O 	0.3687	0.9677	0.088	-0.477
Mof_C 	C 	0.3435	0.9184	0.0998	0.468
Mof_C 	C 	0.031	0.8808	0.1031	-0.177
Mof_H 	H 	0.9634	0.8723	0.1077	0.135
Mof_C 	C 	0.0608	0.9344	0.0897	0.092
Mof_C 	C 	0.0732	0.777	0.1215	0.232
Mof_C 	C 	0.1594	0.5905	0.9673	0.303
Mof_C 	C 	0.1619	0.5111	0.8485	-0.004
Mof_H 	H 	0.0927	0.509	0.8533	0.025
Mof_O 	O 	0.4008	0.8779	0.115	-0.602
Mof_N 	N 	0.9848	0.9761	0.085	-0.028
Mof_C 	C 	0.2166	0.4727	0.789	-0.078
Mof_C 	C 	0.2157	0.5524	0.9002	-0.045
Mof_O 	O 	0.1974	0.6364	0.9961	-0.401
Mof_O 	O 	0.0711	0.5745	0.0005	-0.511
Mof_C 	C 	0.3208	0.5566	0.8904	-0.081
Mof_H 	H 	0.3549	0.5862	0.9198	0.087
Mof_C 	C 	0.3207	0.4732	0.7887	-0.059
Mof_H 	H 	0.3563	0.445	0.7567	0.081
Mof_C 	C 	0.3713	0.5172	0.8377	0.107
Mof_N 	N 	0.4759	0.5231	0.8363	-0.083
Mof_O 	O 	0.7986	0.3876	0.2086	-0.464
Mof_O 	O 	0.9325	0.4388	0.2118	-0.544
Mof_C 	C 	0.8413	0.4301	0.2315	0.366
Mof_Sm	Sm	0.94108	0.65702	0.61653	2.117
Mof_O 	O 	0.013	0.7612	0.6259	-0.48
Mof_O 	O 	0.8536	0.7426	0.6103	-0.501
Mof_C 	C 	0.8355	0.9477	0.5845	-0.014
Mof_H 	H 	0.8159	0.9842	0.5729	0.085
Mof_C 	C 	0.8971	0.8385	0.6098	-0.11
Mof_C 	C 	0.7631	0.9067	0.5966	-0.146
Mof_C 	C 	0.7986	0.8524	0.6043	0.067
Mof_H 	H 	0.7519	0.8238	0.6058	0.022
Mof_O 	O 	0.6313	0.9677	0.588	-0.476
Mof_C 	C 	0.6565	0.9184	0.5998	0.484
Mof_C 	C 	0.969	0.8808	0.6031	0.027
Mof_H 	H 	0.0366	0.8723	0.6077	0.02
Mof_C 	C 	0.9392	0.9344	0.5897	0.086
Mof_C 	C 	0.9268	0.777	0.6215	0.38
Mof_C 	C 	0.8406	0.5905	0.4673	0.269
Mof_C 	C 	0.8381	0.5111	0.3485	-0.023
Mof_H 	H 	0.9073	0.509	0.3533	0.047
Mof_O 	O 	0.5992	0.8779	0.615	-0.606
Mof_N 	N 	0.0152	0.9761	0.585	-0.087
Mof_C 	C 	0.7834	0.4727	0.289	-0.065
Mof_C 	C 	0.7843	0.5524	0.4002	-0.028
Mof_O 	O 	0.8026	0.6364	0.4961	-0.418
Mof_O 	O 	0.9289	0.5745	0.5005	-0.47
Mof_C 	C 	0.6792	0.5566	0.3904	-0.095
Mof_H 	H 	0.6451	0.5862	0.4198	0.086
Mof_C 	C 	0.6793	0.4732	0.2887	-0.07
Mof_H 	H 	0.6437	0.445	0.2567	0.082
Mof_C 	C 	0.6287	0.5172	0.3377	0.11
Mof_N 	N 	0.5241	0.5231	0.3363	-0.087
Mof_O 	O 	0.2986	0.8876	0.7086	-0.455
Mof_O 	O 	0.4325	0.9388	0.7118	-0.541
Mof_C 	C 	0.3413	0.9301	0.7315	0.366
Mof_Sm	Sm	0.44108	0.15702	0.11653	1.998
Mof_O 	O 	0.513	0.2612	0.1259	-0.423
Mof_O 	O 	0.3536	0.2426	0.1103	-0.486
Mof_C 	C 	0.3355	0.4477	0.0845	-0.018
Mof_H 	H 	0.3159	0.4842	0.0729	0.061
Mof_C 	C 	0.3971	0.3385	0.1098	-0.074
Mof_C 	C 	0.2631	0.4067	0.0966	-0.151
Mof_C 	C 	0.2986	0.3524	0.1043	0.045
Mof_H 	H 	0.2519	0.3238	0.1058	0.023
Mof_O 	O 	0.1313	0.4677	0.088	-0.514
Mof_C 	C 	0.1565	0.4184	0.0998	0.49
Mof_C 	C 	0.469	0.3808	0.1031	-0.067
Mof_H 	H 	0.5366	0.3723	0.1077	0.071
Mof_C 	C 	0.4392	0.4344	0.0897	0.073
Mof_C 	C 	0.4268	0.277	0.1215	0.308
Mof_C 	C 	0.3406	0.0905	0.9673	0.298
Mof_C 	C 	0.3381	0.0111	0.8485	-0.068
Mof_H 	H 	0.4073	0.009	0.8533	0.041
Mof_O 	O 	0.0992	0.3779	0.115	-0.637
Mof_N 	N 	0.5152	0.4761	0.085	-0.084
Mof_C 	C 	0.2834	0.9727	0.789	-0.031
Mof_C 	C 	0.2843	0.0524	0.9002	-0.038
Mof_O 	O 	0.3026	0.1364	0.9961	-0.405
Mof_O 	O 	0.4289	0.0745	0.0005	-0.511
Mof_C 	C 	0.1792	0.0566	0.8904	-0.074
Mof_H 	H 	0.1451	0.0862	0.9198	0.078
Mof_C 	C 	0.1793	0.9732	0.7887	-0.011
Mof_H 	H 	0.1437	0.945	0.7567	0.065
Mof_C 	C 	0.1287	0.0172	0.8377	0.049
Mof_N 	N 	0.0241	0.0231	0.8363	-0.119
Mof_O 	O 	0.2014	0.6124	0.2086	-0.457
Mof_O 	O 	0.0675	0.5612	0.2118	-0.568
Mof_C 	C 	0.1587	0.5699	0.2315	0.373
Mof_Sm	Sm	0.05892	0.34298	0.61653	1.944
Mof_O 	O 	0.987	0.2388	0.6259	-0.359
Mof_O 	O 	0.1464	0.2574	0.6103	-0.46
Mof_C 	C 	0.1645	0.0523	0.5845	-0.032
Mof_H 	H 	0.1841	0.0158	0.5729	0.051
Mof_C 	C 	0.1029	0.1615	0.6098	-0.019
Mof_C 	C 	0.2369	0.0933	0.5966	-0.132
Mof_C 	C 	0.2014	0.1476	0.6043	0.011
Mof_H 	H 	0.2481	0.1762	0.6058	0.039
Mof_O 	O 	0.3687	0.0323	0.588	-0.519
Mof_C 	C 	0.3435	0.0816	0.5998	0.482
Mof_C 	C 	0.031	0.1192	0.6031	-0.168
Mof_H 	H 	0.9634	0.1277	0.6077	0.134
Mof_C 	C 	0.0608	0.0656	0.5897	0.079
Mof_C 	C 	0.0732	0.223	0.6215	0.235
Mof_C 	C 	0.1594	0.4095	0.4673	0.274
Mof_C 	C 	0.1619	0.4889	0.3485	-0.011
Mof_H 	H 	0.0927	0.491	0.3533	0.022
Mof_O 	O 	0.4008	0.1221	0.615	-0.608
Mof_N 	N 	0.9848	0.0239	0.585	-0.075
Mof_C 	C 	0.2166	0.5273	0.289	-0.08
Mof_C 	C 	0.2157	0.4476	0.4002	-0.042
Mof_O 	O 	0.1974	0.3636	0.4961	-0.412
Mof_O 	O 	0.0711	0.4255	0.5005	-0.488
Mof_C 	C 	0.3208	0.4434	0.3904	-0.087
Mof_H 	H 	0.3549	0.4138	0.4198	0.083
Mof_C 	C 	0.3207	0.5268	0.2887	-0.061
Mof_H 	H 	0.3563	0.555	0.2567	0.079
Mof_C 	C 	0.3713	0.4828	0.3377	0.104
Mof_N 	N 	0.4759	0.4769	0.3363	-0.086
Mof_O 	O 	0.7014	0.1124	0.7086	-0.458
Mof_O 	O 	0.5675	0.0612	0.7118	-0.571
Mof_C 	C 	0.6587	0.0699	0.7315	0.376
Mof_Sm	Sm	0.55892	0.84298	0.11653	2.001
Mof_O 	O 	0.487	0.7388	0.1259	-0.424
Mof_O 	O 	0.6464	0.7574	0.1103	-0.483
Mof_C 	C 	0.6645	0.5523	0.0845	-0.024
Mof_H 	H 	0.6841	0.5158	0.0729	0.063
Mof_C 	C 	0.6029	0.6615	0.1098	-0.068
Mof_C 	C 	0.7369	0.5933	0.0966	-0.138
Mof_C 	C 	0.7014	0.6476	0.1043	0.037
Mof_H 	H 	0.7481	0.6762	0.1058	0.03
Mof_O 	O 	0.8687	0.5323	0.088	-0.489
Mof_C 	C 	0.8435	0.5816	0.0998	0.474
Mof_C 	C 	0.531	0.6192	0.1031	-0.071
Mof_H 	H 	0.4634	0.6277	0.1077	0.072
Mof_C 	C 	0.5608	0.5656	0.0897	0.077
Mof_C 	C 	0.5732	0.723	0.1215	0.307
Mof_C 	C 	0.6594	0.9095	0.9673	0.303
Mof_C 	C 	0.6619	0.9889	0.8485	0.047
Mof_H 	H 	0.5927	0.991	0.8533	0.034
Mof_O 	O 	0.9008	0.6221	0.115	-0.576
Mof_N 	N 	0.4848	0.5239	0.085	-0.084
Mof_C 	C 	0.7166	0.0273	0.789	-0.111
Mof_C 	C 	0.7157	0.9476	0.9002	-0.038
Mof_O 	O 	0.6974	0.8636	0.9961	-0.403
Mof_O 	O 	0.5711	0.9255	0.0005	-0.493
Mof_C 	C 	0.8208	0.9434	0.8904	-0.097
Mof_H 	H 	0.8549	0.9138	0.9198	0.099
Mof_C 	C 	0.8207	0.0268	0.7887	-0.115
Mof_H 	H 	0.8563	0.055	0.7567	0.1
Mof_C 	C 	0.8713	0.9828	0.8377	0.17
Mof_N 	N 	0.9759	0.9769	0.8363	-0.046
Mof_Zn	Zn	2.28025e-33	0.5	0.6179	1.213
Mof_Zn	Zn	0.5	0	0.1179	1.211
Mof_Zn	Zn	0.5	2.97104e-33	0.6179	1.212
Mof_Zn	Zn	1.23193e-32	0.5	0.1179	1.213
_end
