data_functionalizedCrystal
_audit_creation_method	'EQeq! by Chris Wilmer'
_symmetry_space_group_name_H-M	'P1'
_symmetry_Int_Tables_number	1
_symmetry_cell_setting	triclinic
loop_
_symmetry_equiv_pos_as_xyz
  x,y,z
_cell_length_a	18.2623
_cell_length_b	18.2623
_cell_length_c	39.6543
_cell_angle_alpha	90
_cell_angle_beta	90
_cell_angle_gamma	120
loop_
_atom_site_label
_atom_site_type_symbol
_atom_site_fract_x
_atom_site_fract_y
_atom_site_fract_z
_atom_site_charge
Mof_O 	O 	0.37097	0.47962	0.50031	-0.397
Mof_O 	O 	0.41319	0.43776	0.4549	-0.38
Mof_C 	C 	0.3609	0.4498	0.47115	0.347
Mof_C 	C 	0.2801	0.4289	0.45386	-0.045
Mof_C 	C 	0.2706	0.4115	0.4194	-0.043
Mof_H 	H 	0.3137	0.4096	0.4077	0.062
Mof_C 	C 	0.1374	0.3861	0.3454	0.096
Mof_C 	C 	0.0987	0.3093	0.357	-0.049
Mof_C 	C 	0.0077	0.2818	0.3586	0.323
Mof_O 	O 	0.0902	0.4933	0.3567	-0.118
Mof_C 	C 	0.0906	0.4326	0.3395	0.089
Mof_O 	O 	0.961	0.2673	0.3834	-0.215
Mof_C 	C 	0.2593	0.385	0.4232	-0.015
Mof_H 	H 	0.295	0.3685	0.4134	0.052
Mof_O 	O 	0.03764	0.81295	0.83364	-0.396
Mof_O 	O 	0.07986	0.77109	0.78823	-0.38
Mof_C 	C 	0.02757	0.78313	0.80448	0.355
Mof_C 	C 	0.94677	0.76223	0.78719	-0.054
Mof_C 	C 	0.93727	0.74483	0.75273	-0.04
Mof_H 	H 	0.98037	0.74293	0.74103	0.061
Mof_C 	C 	0.80407	0.71943	0.67873	0.09
Mof_C 	C 	0.76537	0.64263	0.69033	-0.041
Mof_C 	C 	0.67437	0.61513	0.69193	0.305
Mof_O 	O 	0.75687	0.82663	0.69003	-0.121
Mof_C 	C 	0.75727	0.76593	0.67283	0.09
Mof_O 	O 	0.62767	0.60063	0.71673	-0.206
Mof_C 	C 	0.92597	0.71833	0.75653	-0.014
Mof_H 	H 	0.96167	0.70183	0.74673	0.051
Mof_O 	O 	0.7043	0.14629	0.16698	-0.395
Mof_O 	O 	0.74652	0.10443	0.12157	-0.379
Mof_C 	C 	0.69423	0.11647	0.13782	0.348
Mof_C 	C 	0.61343	0.09557	0.12053	-0.043
Mof_C 	C 	0.60393	0.07817	0.08607	-0.041
Mof_H 	H 	0.64703	0.07627	0.07437	0.063
Mof_C 	C 	0.47073	0.05277	0.01207	0.096
Mof_C 	C 	0.43203	0.97597	0.02367	-0.046
Mof_C 	C 	0.34103	0.94847	0.02527	0.302
Mof_O 	O 	0.42353	0.15997	0.02337	-0.119
Mof_C 	C 	0.42393	0.09927	0.00617	0.095
Mof_O 	O 	0.29433	0.93397	0.05007	-0.206
Mof_C 	C 	0.59263	0.05167	0.08987	-0.015
Mof_H 	H 	0.62833	0.03517	0.08007	0.054
Mof_O 	O 	0.52038	0.89135	0.50031	-0.397
Mof_O 	O 	0.56224	0.97543	0.4549	-0.382
Mof_C 	C 	0.5502	0.9111	0.47115	0.348
Mof_C 	C 	0.5711	0.8512	0.45386	-0.045
Mof_C 	C 	0.5885	0.8591	0.4194	-0.043
Mof_H 	H 	0.5904	0.9041	0.4077	0.065
Mof_C 	C 	0.6139	0.7513	0.3454	0.091
Mof_C 	C 	0.6907	0.7894	0.357	-0.042
Mof_C 	C 	0.7182	0.7259	0.3586	0.305
Mof_O 	O 	0.5067	0.5969	0.3567	-0.119
Mof_C 	C 	0.5674	0.658	0.3395	0.091
Mof_O 	O 	0.7327	0.6937	0.3834	-0.206
Mof_C 	C 	0.615	0.8743	0.4232	-0.014
Mof_H 	H 	0.6315	0.9265	0.4134	0.049
Mof_O 	O 	0.18705	0.22468	0.83364	-0.395
Mof_O 	O 	0.22891	0.30876	0.78823	-0.379
Mof_C 	C 	0.21687	0.24443	0.80448	0.347
Mof_C 	C 	0.23777	0.18453	0.78719	-0.041
Mof_C 	C 	0.25517	0.19243	0.75273	-0.045
Mof_H 	H 	0.25707	0.23743	0.74103	0.065
Mof_C 	C 	0.28057	0.08463	0.67873	0.103
Mof_C 	C 	0.35737	0.12273	0.69033	-0.048
Mof_C 	C 	0.38487	0.05923	0.69193	0.309
Mof_O 	O 	0.17337	0.93023	0.69003	-0.116
Mof_C 	C 	0.23407	0.99133	0.67283	0.076
Mof_O 	O 	0.39937	0.02703	0.71673	-0.205
Mof_C 	C 	0.28167	0.20763	0.75653	-0.013
Mof_H 	H 	0.29817	0.25983	0.74673	0.051
Mof_O 	O 	0.85371	0.55802	0.16698	-0.397
Mof_O 	O 	0.89557	0.6421	0.12157	-0.381
Mof_C 	C 	0.88353	0.57777	0.13782	0.348
Mof_C 	C 	0.90443	0.51787	0.12053	-0.045
Mof_C 	C 	0.92183	0.52577	0.08607	-0.043
Mof_H 	H 	0.92373	0.57077	0.07437	0.064
Mof_C 	C 	0.94723	0.41797	0.01207	0.084
Mof_C 	C 	0.02403	0.45607	0.02367	-0.026
Mof_C 	C 	0.05153	0.39257	0.02527	0.301
Mof_O 	O 	0.84003	0.26357	0.02337	-0.12
Mof_C 	C 	0.90073	0.32467	0.00617	0.097
Mof_O 	O 	0.06603	0.36037	0.05007	-0.2
Mof_C 	C 	0.94833	0.54097	0.08987	-0.013
Mof_H 	H 	0.96483	0.59317	0.08007	0.049
Mof_O 	O 	0.10865	0.62903	0.50031	-0.395
Mof_O 	O 	0.02457	0.58681	0.4549	-0.377
Mof_C 	C 	0.0889	0.6391	0.47115	0.348
Mof_C 	C 	0.1488	0.7199	0.45386	-0.044
Mof_C 	C 	0.1409	0.7294	0.4194	-0.043
Mof_H 	H 	0.0959	0.6863	0.4077	0.064
Mof_C 	C 	0.2487	0.8626	0.3454	0.088
Mof_C 	C 	0.2106	0.9013	0.357	-0.035
Mof_C 	C 	0.2741	0.9923	0.3586	0.288
Mof_O 	O 	0.4031	0.9098	0.3567	-0.12
Mof_C 	C 	0.342	0.9094	0.3395	0.092
Mof_O 	O 	0.3063	0.039	0.3834	-0.196
Mof_C 	C 	0.1257	0.7407	0.4232	-0.014
Mof_H 	H 	0.0735	0.705	0.4134	0.053
Mof_O 	O 	0.77532	0.96236	0.83364	-0.397
Mof_O 	O 	0.69124	0.92014	0.78823	-0.38
Mof_C 	C 	0.75557	0.97243	0.80448	0.342
Mof_C 	C 	0.81547	0.05323	0.78719	-0.038
Mof_C 	C 	0.80757	0.06273	0.75273	-0.043
Mof_H 	H 	0.76257	0.01963	0.74103	0.066
Mof_C 	C 	0.91537	0.19593	0.67873	0.081
Mof_C 	C 	0.87727	0.23463	0.69033	-0.037
Mof_C 	C 	0.94077	0.32563	0.69193	0.302
Mof_O 	O 	0.06977	0.24313	0.69003	-0.121
Mof_C 	C 	0.00867	0.24273	0.67283	0.106
Mof_O 	O 	0.97297	0.37233	0.71673	-0.207
Mof_C 	C 	0.79237	0.07403	0.75653	-0.015
Mof_H 	H 	0.74017	0.03833	0.74673	0.052
Mof_O 	O 	0.44198	0.2957	0.16698	-0.396
Mof_O 	O 	0.3579	0.25348	0.12157	-0.379
Mof_C 	C 	0.42223	0.30577	0.13782	0.348
Mof_C 	C 	0.48213	0.38657	0.12053	-0.044
Mof_C 	C 	0.47423	0.39607	0.08607	-0.043
Mof_H 	H 	0.42923	0.35297	0.07437	0.064
Mof_C 	C 	0.58203	0.52927	0.01207	0.092
Mof_C 	C 	0.54393	0.56797	0.02367	-0.038
Mof_C 	C 	0.60743	0.65897	0.02527	0.307
Mof_O 	O 	0.73643	0.57647	0.02337	-0.12
Mof_C 	C 	0.67533	0.57607	0.00617	0.096
Mof_O 	O 	0.63963	0.70567	0.05007	-0.206
Mof_C 	C 	0.45903	0.40737	0.08987	-0.014
Mof_H 	H 	0.40683	0.37167	0.08007	0.052
Mof_O 	O 	0.47962	0.37097	0.49969	-0.396
Mof_O 	O 	0.43776	0.41319	0.5451	-0.379
Mof_C 	C 	0.4498	0.3609	0.52885	0.348
Mof_C 	C 	0.4289	0.2801	0.54614	-0.044
Mof_C 	C 	0.4115	0.2706	0.5806	-0.042
Mof_H 	H 	0.4096	0.3137	0.5923	0.063
Mof_C 	C 	0.3861	0.1374	0.6546	0.096
Mof_C 	C 	0.3093	0.0987	0.643	-0.049
Mof_C 	C 	0.2818	0.0077	0.6414	0.323
Mof_O 	O 	0.4933	0.0902	0.6433	-0.118
Mof_C 	C 	0.4326	0.0906	0.6605	0.089
Mof_O 	O 	0.2673	0.961	0.6166	-0.215
Mof_C 	C 	0.385	0.2593	0.5768	-0.015
Mof_H 	H 	0.3685	0.295	0.5866	0.052
Mof_O 	O 	0.14629	0.7043	0.83302	-0.395
Mof_O 	O 	0.10443	0.74652	0.87843	-0.379
Mof_C 	C 	0.11647	0.69423	0.86218	0.348
Mof_C 	C 	0.09557	0.61343	0.87947	-0.043
Mof_C 	C 	0.07817	0.60393	0.91393	-0.041
Mof_H 	H 	0.07627	0.64703	0.92563	0.063
Mof_C 	C 	0.05277	0.47073	0.98793	0.091
Mof_C 	C 	0.97597	0.43203	0.97633	-0.05
Mof_C 	C 	0.94847	0.34103	0.97473	0.291
Mof_O 	O 	0.15997	0.42353	0.97663	-0.118
Mof_C 	C 	0.09927	0.42393	0.99383	0.085
Mof_O 	O 	0.93397	0.29433	0.94993	-0.206
Mof_C 	C 	0.05167	0.59263	0.91013	-0.015
Mof_H 	H 	0.03517	0.62833	0.91993	0.054
Mof_O 	O 	0.81295	0.03764	0.16636	-0.396
Mof_O 	O 	0.77109	0.07986	0.21177	-0.38
Mof_C 	C 	0.78313	0.02757	0.19552	0.355
Mof_C 	C 	0.76223	0.94677	0.21281	-0.053
Mof_C 	C 	0.74483	0.93727	0.24727	-0.04
Mof_H 	H 	0.74293	0.98037	0.25897	0.061
Mof_C 	C 	0.71943	0.80407	0.32127	0.09
Mof_C 	C 	0.64263	0.76537	0.30967	-0.041
Mof_C 	C 	0.61513	0.67437	0.30807	0.305
Mof_O 	O 	0.82663	0.75687	0.30997	-0.121
Mof_C 	C 	0.76593	0.75727	0.32717	0.09
Mof_O 	O 	0.60063	0.62767	0.28327	-0.206
Mof_C 	C 	0.71833	0.92597	0.24347	-0.014
Mof_H 	H 	0.70183	0.96167	0.25327	0.051
Mof_O 	O 	0.89135	0.52038	0.49969	-0.397
Mof_O 	O 	0.97543	0.56224	0.5451	-0.382
Mof_C 	C 	0.9111	0.5502	0.52885	0.348
Mof_C 	C 	0.8512	0.5711	0.54614	-0.045
Mof_C 	C 	0.8591	0.5885	0.5806	-0.043
Mof_H 	H 	0.9041	0.5904	0.5923	0.065
Mof_C 	C 	0.7513	0.6139	0.6546	0.091
Mof_C 	C 	0.7894	0.6907	0.643	-0.042
Mof_C 	C 	0.7259	0.7182	0.6414	0.305
Mof_O 	O 	0.5969	0.5067	0.6433	-0.119
Mof_C 	C 	0.658	0.5674	0.6605	0.091
Mof_O 	O 	0.6937	0.7327	0.6166	-0.206
Mof_C 	C 	0.8743	0.615	0.5768	-0.014
Mof_H 	H 	0.9265	0.6315	0.5866	0.049
Mof_O 	O 	0.55802	0.85371	0.83302	-0.397
Mof_O 	O 	0.6421	0.89557	0.87843	-0.381
Mof_C 	C 	0.57777	0.88353	0.86218	0.348
Mof_C 	C 	0.51787	0.90443	0.87947	-0.045
Mof_C 	C 	0.52577	0.92183	0.91393	-0.044
Mof_H 	H 	0.57077	0.92373	0.92563	0.065
Mof_C 	C 	0.41797	0.94723	0.98793	0.079
Mof_C 	C 	0.45607	0.02403	0.97633	-0.031
Mof_C 	C 	0.39257	0.05153	0.97473	0.29
Mof_O 	O 	0.26357	0.84003	0.97663	-0.12
Mof_C 	C 	0.32467	0.90073	0.99383	0.086
Mof_O 	O 	0.36037	0.06603	0.94993	-0.2
Mof_C 	C 	0.54097	0.94833	0.91013	-0.013
Mof_H 	H 	0.59317	0.96483	0.91993	0.049
Mof_O 	O 	0.22468	0.18705	0.16636	-0.394
Mof_O 	O 	0.30876	0.22891	0.21177	-0.379
Mof_C 	C 	0.24443	0.21687	0.19552	0.347
Mof_C 	C 	0.18453	0.23777	0.21281	-0.041
Mof_C 	C 	0.19243	0.25517	0.24727	-0.045
Mof_H 	H 	0.23743	0.25707	0.25897	0.065
Mof_C 	C 	0.08463	0.28057	0.32127	0.103
Mof_C 	C 	0.12273	0.35737	0.30967	-0.048
Mof_C 	C 	0.05923	0.38487	0.30807	0.309
Mof_O 	O 	0.93023	0.17337	0.30997	-0.116
Mof_C 	C 	0.99133	0.23407	0.32717	0.076
Mof_O 	O 	0.02703	0.39937	0.28327	-0.205
Mof_C 	C 	0.20763	0.28167	0.24347	-0.014
Mof_H 	H 	0.25983	0.29817	0.25327	0.051
Mof_O 	O 	0.62903	0.10865	0.49969	-0.395
Mof_O 	O 	0.58681	0.02457	0.5451	-0.377
Mof_C 	C 	0.6391	0.0889	0.52885	0.348
Mof_C 	C 	0.7199	0.1488	0.54614	-0.043
Mof_C 	C 	0.7294	0.1409	0.5806	-0.043
Mof_H 	H 	0.6863	0.0959	0.5923	0.064
Mof_C 	C 	0.8626	0.2487	0.6546	0.088
Mof_C 	C 	0.9013	0.2106	0.643	-0.035
Mof_C 	C 	0.9923	0.2741	0.6414	0.288
Mof_O 	O 	0.9098	0.4031	0.6433	-0.12
Mof_C 	C 	0.9094	0.342	0.6605	0.092
Mof_O 	O 	0.039	0.3063	0.6166	-0.196
Mof_C 	C 	0.7407	0.1257	0.5768	-0.014
Mof_H 	H 	0.705	0.0735	0.5866	0.053
Mof_O 	O 	0.2957	0.44198	0.83302	-0.396
Mof_O 	O 	0.25348	0.3579	0.87843	-0.379
Mof_C 	C 	0.30577	0.42223	0.86218	0.348
Mof_C 	C 	0.38657	0.48213	0.87947	-0.044
Mof_C 	C 	0.39607	0.47423	0.91393	-0.043
Mof_H 	H 	0.35297	0.42923	0.92563	0.064
Mof_C 	C 	0.52927	0.58203	0.98793	0.087
Mof_C 	C 	0.56797	0.54393	0.97633	-0.043
Mof_C 	C 	0.65897	0.60743	0.97473	0.296
Mof_O 	O 	0.57647	0.73643	0.97663	-0.12
Mof_C 	C 	0.57607	0.67533	0.99383	0.085
Mof_O 	O 	0.70567	0.63963	0.94993	-0.205
Mof_C 	C 	0.40737	0.45903	0.91013	-0.014
Mof_H 	H 	0.37167	0.40683	0.91993	0.051
Mof_O 	O 	0.96236	0.77532	0.16636	-0.397
Mof_O 	O 	0.92014	0.69124	0.21177	-0.38
Mof_C 	C 	0.97243	0.75557	0.19552	0.341
Mof_C 	C 	0.05323	0.81547	0.21281	-0.038
Mof_C 	C 	0.06273	0.80757	0.24727	-0.043
Mof_H 	H 	0.01963	0.76257	0.25897	0.066
Mof_C 	C 	0.19593	0.91537	0.32127	0.081
Mof_C 	C 	0.23463	0.87727	0.30967	-0.037
Mof_C 	C 	0.32563	0.94077	0.30807	0.302
Mof_O 	O 	0.24313	0.06977	0.30997	-0.121
Mof_C 	C 	0.24273	0.00867	0.32717	0.107
Mof_O 	O 	0.37233	0.97297	0.28327	-0.207
Mof_C 	C 	0.07403	0.79237	0.24347	-0.015
Mof_H 	H 	0.03833	0.74017	0.25327	0.052
Mof_O 	O 	0.62903	0.52038	0.49969	-0.396
Mof_O 	O 	0.58681	0.56224	0.5451	-0.38
Mof_C 	C 	0.6391	0.5502	0.52885	0.348
Mof_C 	C 	0.7199	0.5711	0.54614	-0.045
Mof_C 	C 	0.7294	0.5885	0.5806	-0.043
Mof_H 	H 	0.6863	0.5904	0.5923	0.064
Mof_C 	C 	0.8626	0.6139	0.6546	0.087
Mof_C 	C 	0.9013	0.6907	0.643	-0.035
Mof_C 	C 	0.9923	0.7182	0.6414	0.288
Mof_O 	O 	0.9098	0.5067	0.6433	-0.12
Mof_C 	C 	0.9094	0.5674	0.6605	0.092
Mof_O 	O 	0.039	0.7327	0.6166	-0.196
Mof_C 	C 	0.7407	0.615	0.5768	-0.014
Mof_H 	H 	0.705	0.6315	0.5866	0.051
Mof_O 	O 	0.2957	0.85371	0.83302	-0.396
Mof_O 	O 	0.25348	0.89557	0.87843	-0.381
Mof_C 	C 	0.30577	0.88353	0.86218	0.348
Mof_C 	C 	0.38657	0.90443	0.87947	-0.045
Mof_C 	C 	0.39607	0.92183	0.91393	-0.044
Mof_H 	H 	0.35297	0.92373	0.92563	0.065
Mof_C 	C 	0.52927	0.94723	0.98793	0.079
Mof_C 	C 	0.56797	0.02403	0.97633	-0.032
Mof_C 	C 	0.65897	0.05153	0.97473	0.291
Mof_O 	O 	0.57647	0.84003	0.97663	-0.12
Mof_C 	C 	0.57607	0.90073	0.99383	0.086
Mof_O 	O 	0.70567	0.06603	0.94993	-0.201
Mof_C 	C 	0.40737	0.94833	0.91013	-0.013
Mof_H 	H 	0.37167	0.96483	0.91993	0.049
Mof_O 	O 	0.96236	0.18705	0.16636	-0.396
Mof_O 	O 	0.92014	0.22891	0.21177	-0.379
Mof_C 	C 	0.97243	0.21687	0.19552	0.34
Mof_C 	C 	0.05323	0.23777	0.21281	-0.035
Mof_C 	C 	0.06273	0.25517	0.24727	-0.045
Mof_H 	H 	0.01963	0.25707	0.25897	0.067
Mof_C 	C 	0.19593	0.28057	0.32127	0.093
Mof_C 	C 	0.23463	0.35737	0.30967	-0.043
Mof_C 	C 	0.32563	0.38487	0.30807	0.306
Mof_O 	O 	0.24313	0.17337	0.30997	-0.118
Mof_C 	C 	0.24273	0.23407	0.32717	0.091
Mof_O 	O 	0.37233	0.39937	0.28327	-0.206
Mof_C 	C 	0.07403	0.28167	0.24347	-0.015
Mof_H 	H 	0.03833	0.29817	0.25327	0.052
Mof_O 	O 	0.47962	0.10865	0.49969	-0.394
Mof_O 	O 	0.43776	0.02457	0.5451	-0.377
Mof_C 	C 	0.4498	0.0889	0.52885	0.348
Mof_C 	C 	0.4289	0.1488	0.54614	-0.043
Mof_C 	C 	0.4115	0.1409	0.5806	-0.042
Mof_H 	H 	0.4096	0.0959	0.5923	0.063
Mof_C 	C 	0.3861	0.2487	0.6546	0.092
Mof_C 	C 	0.3093	0.2106	0.643	-0.042
Mof_C 	C 	0.2818	0.2741	0.6414	0.306
Mof_O 	O 	0.4933	0.4031	0.6433	-0.119
Mof_C 	C 	0.4326	0.342	0.6605	0.09
Mof_O 	O 	0.2673	0.3063	0.6166	-0.205
Mof_C 	C 	0.385	0.1257	0.5768	-0.015
Mof_H 	H 	0.3685	0.0735	0.5866	0.053
Mof_O 	O 	0.14629	0.44198	0.83302	-0.395
Mof_O 	O 	0.10443	0.3579	0.87843	-0.378
Mof_C 	C 	0.11647	0.42223	0.86218	0.348
Mof_C 	C 	0.09557	0.48213	0.87947	-0.043
Mof_C 	C 	0.07817	0.47423	0.91393	-0.041
Mof_H 	H 	0.07627	0.42923	0.92563	0.063
Mof_C 	C 	0.05277	0.58203	0.98793	0.091
Mof_C 	C 	0.97597	0.54393	0.97633	-0.051
Mof_C 	C 	0.94847	0.60743	0.97473	0.291
Mof_O 	O 	0.15997	0.73643	0.97663	-0.119
Mof_C 	C 	0.09927	0.67533	0.99383	0.085
Mof_O 	O 	0.93397	0.63963	0.94993	-0.207
Mof_C 	C 	0.05167	0.45903	0.91013	-0.015
Mof_H 	H 	0.03517	0.40683	0.91993	0.054
Mof_O 	O 	0.81295	0.77532	0.16636	-0.397
Mof_O 	O 	0.77109	0.69124	0.21177	-0.38
Mof_C 	C 	0.78313	0.75557	0.19552	0.349
Mof_C 	C 	0.76223	0.81547	0.21281	-0.047
Mof_C 	C 	0.74483	0.80757	0.24727	-0.041
Mof_H 	H 	0.74293	0.76257	0.25897	0.063
Mof_C 	C 	0.71943	0.91537	0.32127	0.08
Mof_C 	C 	0.64263	0.87727	0.30967	-0.036
Mof_C 	C 	0.61513	0.94077	0.30807	0.302
Mof_O 	O 	0.82663	0.06977	0.30997	-0.122
Mof_C 	C 	0.76593	0.00867	0.32717	0.106
Mof_O 	O 	0.60063	0.97297	0.28327	-0.207
Mof_C 	C 	0.71833	0.79237	0.24347	-0.015
Mof_H 	H 	0.70183	0.74017	0.25327	0.052
Mof_O 	O 	0.89135	0.37097	0.49969	-0.397
Mof_O 	O 	0.97543	0.41319	0.5451	-0.382
Mof_C 	C 	0.9111	0.3609	0.52885	0.348
Mof_C 	C 	0.8512	0.2801	0.54614	-0.045
Mof_C 	C 	0.8591	0.2706	0.5806	-0.043
Mof_H 	H 	0.9041	0.3137	0.5923	0.064
Mof_C 	C 	0.7513	0.1374	0.6546	0.095
Mof_C 	C 	0.7894	0.0987	0.643	-0.049
Mof_C 	C 	0.7259	0.0077	0.6414	0.322
Mof_O 	O 	0.5969	0.0902	0.6433	-0.118
Mof_C 	C 	0.658	0.0906	0.6605	0.089
Mof_O 	O 	0.6937	0.961	0.6166	-0.216
Mof_C 	C 	0.8743	0.2593	0.5768	-0.014
Mof_H 	H 	0.9265	0.295	0.5866	0.05
Mof_O 	O 	0.55802	0.7043	0.83302	-0.396
Mof_O 	O 	0.6421	0.74652	0.87843	-0.38
Mof_C 	C 	0.57777	0.69423	0.86218	0.348
Mof_C 	C 	0.51787	0.61343	0.87947	-0.044
Mof_C 	C 	0.52577	0.60393	0.91393	-0.043
Mof_H 	H 	0.57077	0.64703	0.92563	0.064
Mof_C 	C 	0.41797	0.47073	0.98793	0.087
Mof_C 	C 	0.45607	0.43203	0.97633	-0.042
Mof_C 	C 	0.39257	0.34103	0.97473	0.295
Mof_O 	O 	0.26357	0.42353	0.97663	-0.119
Mof_C 	C 	0.32467	0.42393	0.99383	0.086
Mof_O 	O 	0.36037	0.29433	0.94993	-0.204
Mof_C 	C 	0.54097	0.59263	0.91013	-0.014
Mof_H 	H 	0.59317	0.62833	0.91993	0.051
Mof_O 	O 	0.22468	0.03764	0.16636	-0.395
Mof_O 	O 	0.30876	0.07986	0.21177	-0.379
Mof_C 	C 	0.24443	0.02757	0.19552	0.355
Mof_C 	C 	0.18453	0.94677	0.21281	-0.051
Mof_C 	C 	0.19243	0.93727	0.24727	-0.042
Mof_H 	H 	0.23743	0.98037	0.25897	0.062
Mof_C 	C 	0.08463	0.80407	0.32127	0.101
Mof_C 	C 	0.12273	0.76537	0.30967	-0.047
Mof_C 	C 	0.05923	0.67437	0.30807	0.309
Mof_O 	O 	0.93023	0.75687	0.30997	-0.118
Mof_C 	C 	0.99133	0.75727	0.32717	0.076
Mof_O 	O 	0.02703	0.62767	0.28327	-0.205
Mof_C 	C 	0.20763	0.92597	0.24347	-0.013
Mof_H 	H 	0.25983	0.96167	0.25327	0.05
Mof_O 	O 	0.52038	0.62903	0.50031	-0.396
Mof_O 	O 	0.56224	0.58681	0.4549	-0.38
Mof_C 	C 	0.5502	0.6391	0.47115	0.348
Mof_C 	C 	0.5711	0.7199	0.45386	-0.045
Mof_C 	C 	0.5885	0.7294	0.4194	-0.043
Mof_H 	H 	0.5904	0.6863	0.4077	0.064
Mof_C 	C 	0.6139	0.8626	0.3454	0.087
Mof_C 	C 	0.6907	0.9013	0.357	-0.035
Mof_C 	C 	0.7182	0.9923	0.3586	0.288
Mof_O 	O 	0.5067	0.9098	0.3567	-0.12
Mof_C 	C 	0.5674	0.9094	0.3395	0.092
Mof_O 	O 	0.7327	0.039	0.3834	-0.196
Mof_C 	C 	0.615	0.7407	0.4232	-0.014
Mof_H 	H 	0.6315	0.705	0.4134	0.051
Mof_O 	O 	0.18705	0.96236	0.83364	-0.396
Mof_O 	O 	0.22891	0.92014	0.78823	-0.379
Mof_C 	C 	0.21687	0.97243	0.80448	0.341
Mof_C 	C 	0.23777	0.05323	0.78719	-0.035
Mof_C 	C 	0.25517	0.06273	0.75273	-0.045
Mof_H 	H 	0.25707	0.01963	0.74103	0.067
Mof_C 	C 	0.28057	0.19593	0.67873	0.093
Mof_C 	C 	0.35737	0.23463	0.69033	-0.043
Mof_C 	C 	0.38487	0.32563	0.69193	0.306
Mof_O 	O 	0.17337	0.24313	0.69003	-0.118
Mof_C 	C 	0.23407	0.24273	0.67283	0.091
Mof_O 	O 	0.39937	0.37233	0.71673	-0.206
Mof_C 	C 	0.28167	0.07403	0.75653	-0.014
Mof_H 	H 	0.29817	0.03833	0.74673	0.052
Mof_O 	O 	0.85371	0.2957	0.16698	-0.396
Mof_O 	O 	0.89557	0.25348	0.12157	-0.38
Mof_C 	C 	0.88353	0.30577	0.13782	0.348
Mof_C 	C 	0.90443	0.38657	0.12053	-0.045
Mof_C 	C 	0.92183	0.39607	0.08607	-0.043
Mof_H 	H 	0.92373	0.35297	0.07437	0.064
Mof_C 	C 	0.94723	0.52927	0.01207	0.084
Mof_C 	C 	0.02403	0.56797	0.02367	-0.027
Mof_C 	C 	0.05153	0.65897	0.02527	0.301
Mof_O 	O 	0.84003	0.57647	0.02337	-0.121
Mof_C 	C 	0.90073	0.57607	0.00617	0.096
Mof_O 	O 	0.06603	0.70567	0.05007	-0.201
Mof_C 	C 	0.94833	0.40737	0.08987	-0.014
Mof_H 	H 	0.96483	0.37167	0.08007	0.049
Mof_O 	O 	0.10865	0.47962	0.50031	-0.394
Mof_O 	O 	0.02457	0.43776	0.4549	-0.377
Mof_C 	C 	0.0889	0.4498	0.47115	0.348
Mof_C 	C 	0.1488	0.4289	0.45386	-0.043
Mof_C 	C 	0.1409	0.4115	0.4194	-0.042
Mof_H 	H 	0.0959	0.4096	0.4077	0.063
Mof_C 	C 	0.2487	0.3861	0.3454	0.092
Mof_C 	C 	0.2106	0.3093	0.357	-0.042
Mof_C 	C 	0.2741	0.2818	0.3586	0.306
Mof_O 	O 	0.4031	0.4933	0.3567	-0.119
Mof_C 	C 	0.342	0.4326	0.3395	0.09
Mof_O 	O 	0.3063	0.2673	0.3834	-0.205
Mof_C 	C 	0.1257	0.385	0.4232	-0.015
Mof_H 	H 	0.0735	0.3685	0.4134	0.053
Mof_O 	O 	0.77532	0.81295	0.83364	-0.397
Mof_O 	O 	0.69124	0.77109	0.78823	-0.38
Mof_C 	C 	0.75557	0.78313	0.80448	0.349
Mof_C 	C 	0.81547	0.76223	0.78719	-0.047
Mof_C 	C 	0.80757	0.74483	0.75273	-0.041
Mof_H 	H 	0.76257	0.74293	0.74103	0.063
Mof_C 	C 	0.91537	0.71943	0.67873	0.08
Mof_C 	C 	0.87727	0.64263	0.69033	-0.036
Mof_C 	C 	0.94077	0.61513	0.69193	0.302
Mof_O 	O 	0.06977	0.82663	0.69003	-0.122
Mof_C 	C 	0.00867	0.76593	0.67283	0.106
Mof_O 	O 	0.97297	0.60063	0.71673	-0.207
Mof_C 	C 	0.79237	0.71833	0.75653	-0.015
Mof_H 	H 	0.74017	0.70183	0.74673	0.052
Mof_O 	O 	0.44198	0.14629	0.16698	-0.395
Mof_O 	O 	0.3579	0.10443	0.12157	-0.378
Mof_C 	C 	0.42223	0.11647	0.13782	0.348
Mof_C 	C 	0.48213	0.09557	0.12053	-0.043
Mof_C 	C 	0.47423	0.07817	0.08607	-0.041
Mof_H 	H 	0.42923	0.07627	0.07437	0.063
Mof_C 	C 	0.58203	0.05277	0.01207	0.096
Mof_C 	C 	0.54393	0.97597	0.02367	-0.046
Mof_C 	C 	0.60743	0.94847	0.02527	0.302
Mof_O 	O 	0.73643	0.15997	0.02337	-0.119
Mof_C 	C 	0.67533	0.09927	0.00617	0.095
Mof_O 	O 	0.63963	0.93397	0.05007	-0.207
Mof_C 	C 	0.45903	0.05167	0.08987	-0.015
Mof_H 	H 	0.40683	0.03517	0.08007	0.054
Mof_O 	O 	0.37097	0.89135	0.50031	-0.397
Mof_O 	O 	0.41319	0.97543	0.4549	-0.382
Mof_C 	C 	0.3609	0.9111	0.47115	0.348
Mof_C 	C 	0.2801	0.8512	0.45386	-0.045
Mof_C 	C 	0.2706	0.8591	0.4194	-0.043
Mof_H 	H 	0.3137	0.9041	0.4077	0.064
Mof_C 	C 	0.1374	0.7513	0.3454	0.095
Mof_C 	C 	0.0987	0.7894	0.357	-0.049
Mof_C 	C 	0.0077	0.7259	0.3586	0.322
Mof_O 	O 	0.0902	0.5969	0.3567	-0.118
Mof_C 	C 	0.0906	0.658	0.3395	0.089
Mof_O 	O 	0.961	0.6937	0.3834	-0.216
Mof_C 	C 	0.2593	0.8743	0.4232	-0.014
Mof_H 	H 	0.295	0.9265	0.4134	0.05
Mof_O 	O 	0.03764	0.22468	0.83364	-0.395
Mof_O 	O 	0.07986	0.30876	0.78823	-0.379
Mof_C 	C 	0.02757	0.24443	0.80448	0.355
Mof_C 	C 	0.94677	0.18453	0.78719	-0.051
Mof_C 	C 	0.93727	0.19243	0.75273	-0.042
Mof_H 	H 	0.98037	0.23743	0.74103	0.062
Mof_C 	C 	0.80407	0.08463	0.67873	0.101
Mof_C 	C 	0.76537	0.12273	0.69033	-0.047
Mof_C 	C 	0.67437	0.05923	0.69193	0.309
Mof_O 	O 	0.75687	0.93023	0.69003	-0.118
Mof_C 	C 	0.75727	0.99133	0.67283	0.076
Mof_O 	O 	0.62767	0.02703	0.71673	-0.205
Mof_C 	C 	0.92597	0.20763	0.75653	-0.013
Mof_H 	H 	0.96167	0.25983	0.74673	0.05
Mof_O 	O 	0.7043	0.55802	0.16698	-0.396
Mof_O 	O 	0.74652	0.6421	0.12157	-0.38
Mof_C 	C 	0.69423	0.57777	0.13782	0.348
Mof_C 	C 	0.61343	0.51787	0.12053	-0.044
Mof_C 	C 	0.60393	0.52577	0.08607	-0.042
Mof_H 	H 	0.64703	0.57077	0.07437	0.064
Mof_C 	C 	0.47073	0.41797	0.01207	0.092
Mof_C 	C 	0.43203	0.45607	0.02367	-0.038
Mof_C 	C 	0.34103	0.39257	0.02527	0.306
Mof_O 	O 	0.42353	0.26357	0.02337	-0.119
Mof_C 	C 	0.42393	0.32467	0.00617	0.096
Mof_O 	O 	0.29433	0.36037	0.05007	-0.204
Mof_C 	C 	0.59263	0.54097	0.08987	-0.014
Mof_H 	H 	0.62833	0.59317	0.08007	0.051
Mof_Cu	Cu	0.47491	0.52509	0.52642	0.914
Mof_Cu	Cu	0.14158	0.85842	0.85975	0.914
Mof_Cu	Cu	0.80824	0.19176	0.19309	0.914
Mof_Cu	Cu	0.47491	0.94982	0.52642	0.912
Mof_Cu	Cu	0.14158	0.28315	0.85975	0.915
Mof_Cu	Cu	0.80824	0.61649	0.19309	0.914
Mof_Cu	Cu	0.05018	0.52509	0.52642	0.917
Mof_Cu	Cu	0.71685	0.85842	0.85975	0.914
Mof_Cu	Cu	0.38351	0.19176	0.19309	0.914
Mof_Cu	Cu	0.52509	0.47491	0.47358	0.914
Mof_Cu	Cu	0.19176	0.80824	0.80691	0.914
Mof_Cu	Cu	0.85842	0.14158	0.14025	0.914
Mof_Cu	Cu	0.94982	0.47491	0.47358	0.912
Mof_Cu	Cu	0.61649	0.80824	0.80691	0.914
Mof_Cu	Cu	0.28315	0.14158	0.14025	0.915
Mof_Cu	Cu	0.52509	0.05018	0.47358	0.917
Mof_Cu	Cu	0.19176	0.38351	0.80691	0.914
Mof_Cu	Cu	0.85842	0.71685	0.14025	0.914
Mof_C 	C 	0.22155	0.4431	0.47041	-0.001
Mof_H 	H 	0.23105	0.4621	0.4926	0.075
Mof_N 	N 	0.18925	0.3785	0.3668	-0.105
Mof_C 	C 	0.1985	0.397	0.4019	0.002
Mof_N 	N 	0.1684	0.3368	0.3743	-0.033
Mof_C 	C 	0.18345	0.3669	0.408	0.09
Mof_C 	C 	0.88822	0.77643	0.80374	0.003
Mof_H 	H 	0.89772	0.79543	0.82593	0.071
Mof_N 	N 	0.85592	0.71183	0.70013	-0.101
Mof_C 	C 	0.86517	0.73033	0.73523	0.003
Mof_N 	N 	0.83507	0.67013	0.70763	-0.038
Mof_C 	C 	0.85012	0.70023	0.74133	0.087
Mof_C 	C 	0.55488	0.10977	0.13708	-0.001
Mof_H 	H 	0.56438	0.12877	0.15927	0.075
Mof_N 	N 	0.52258	0.04517	0.03347	-0.108
Mof_C 	C 	0.53183	0.06367	0.06857	0.005
Mof_N 	N 	0.50173	0.00347	0.04097	-0.028
Mof_C 	C 	0.51678	0.03357	0.07467	0.089
Mof_C 	C 	0.5569	0.77845	0.47041	-0.001
Mof_H 	H 	0.5379	0.76895	0.4926	0.074
Mof_N 	N 	0.6215	0.81075	0.3668	-0.101
Mof_C 	C 	0.603	0.8015	0.4019	-0.001
Mof_N 	N 	0.6632	0.8316	0.3743	-0.04
Mof_C 	C 	0.6331	0.81655	0.408	0.093
Mof_C 	C 	0.22357	0.11178	0.80374	-0.005
Mof_H 	H 	0.20457	0.10228	0.82593	0.077
Mof_N 	N 	0.28817	0.14408	0.70013	-0.105
Mof_C 	C 	0.26967	0.13483	0.73523	-0.002
Mof_N 	N 	0.32987	0.16493	0.70763	-0.035
Mof_C 	C 	0.29977	0.14988	0.74133	0.096
Mof_C 	C 	0.89023	0.44512	0.13708	-0.001
Mof_H 	H 	0.87123	0.43562	0.15927	0.074
Mof_N 	N 	0.95483	0.47742	0.03347	-0.096
Mof_C 	C 	0.93633	0.46817	0.06857	-0.001
Mof_N 	N 	0.99653	0.49827	0.04097	-0.05
Mof_C 	C 	0.96643	0.48322	0.07467	0.092
Mof_C 	C 	0.22155	0.77845	0.47041	-0.001
Mof_H 	H 	0.23105	0.76895	0.4926	0.074
Mof_N 	N 	0.18925	0.81075	0.3668	-0.103
Mof_C 	C 	0.1985	0.8015	0.4019	0.001
Mof_N 	N 	0.1684	0.8316	0.3743	-0.037
Mof_C 	C 	0.18345	0.81655	0.408	0.092
Mof_C 	C 	0.88822	0.11178	0.80374	-0.001
Mof_H 	H 	0.89772	0.10228	0.82593	0.074
Mof_N 	N 	0.85592	0.14408	0.70013	-0.103
Mof_C 	C 	0.86517	0.13483	0.73523	0.001
Mof_N 	N 	0.83507	0.16493	0.70763	-0.037
Mof_C 	C 	0.85012	0.14988	0.74133	0.091
Mof_C 	C 	0.55488	0.44512	0.13708	-0.001
Mof_H 	H 	0.56438	0.43562	0.15927	0.074
Mof_N 	N 	0.52258	0.47742	0.03347	-0.103
Mof_C 	C 	0.53183	0.46817	0.06857	0.001
Mof_N 	N 	0.50173	0.49827	0.04097	-0.038
Mof_C 	C 	0.51678	0.48322	0.07467	0.091
Mof_C 	C 	0.4431	0.22155	0.52959	-0.001
Mof_H 	H 	0.4621	0.23105	0.5074	0.075
Mof_N 	N 	0.3785	0.18925	0.6332	-0.105
Mof_C 	C 	0.397	0.1985	0.5981	0.002
Mof_N 	N 	0.3368	0.1684	0.6257	-0.033
Mof_C 	C 	0.3669	0.18345	0.592	0.09
Mof_C 	C 	0.10977	0.55488	0.86292	-0.001
Mof_H 	H 	0.12877	0.56438	0.84073	0.075
Mof_N 	N 	0.04517	0.52258	0.96653	-0.106
Mof_C 	C 	0.06367	0.53183	0.93143	0.004
Mof_N 	N 	0.00347	0.50173	0.95903	-0.028
Mof_C 	C 	0.03357	0.51678	0.92533	0.089
Mof_C 	C 	0.77643	0.88822	0.19626	0.003
Mof_H 	H 	0.79543	0.89772	0.17407	0.071
Mof_N 	N 	0.71183	0.85592	0.29987	-0.101
Mof_C 	C 	0.73033	0.86517	0.26477	0.003
Mof_N 	N 	0.67013	0.83507	0.29237	-0.038
Mof_C 	C 	0.70023	0.85012	0.25867	0.087
Mof_C 	C 	0.77845	0.5569	0.52959	-0.001
Mof_H 	H 	0.76895	0.5379	0.5074	0.074
Mof_N 	N 	0.81075	0.6215	0.6332	-0.101
Mof_C 	C 	0.8015	0.603	0.5981	-0.001
Mof_N 	N 	0.8316	0.6632	0.6257	-0.04
Mof_C 	C 	0.81655	0.6331	0.592	0.093
Mof_C 	C 	0.44512	0.89023	0.86292	-0.001
Mof_H 	H 	0.43562	0.87123	0.84073	0.074
Mof_N 	N 	0.47742	0.95483	0.96653	-0.094
Mof_C 	C 	0.46817	0.93633	0.93143	-0.001
Mof_N 	N 	0.49827	0.99653	0.95903	-0.049
Mof_C 	C 	0.48322	0.96643	0.92533	0.092
Mof_C 	C 	0.11178	0.22357	0.19626	-0.005
Mof_H 	H 	0.10228	0.20457	0.17407	0.078
Mof_N 	N 	0.14408	0.28817	0.29987	-0.105
Mof_C 	C 	0.13483	0.26967	0.26477	-0.002
Mof_N 	N 	0.16493	0.32987	0.29237	-0.035
Mof_C 	C 	0.14988	0.29977	0.25867	0.096
Mof_C 	C 	0.77845	0.22155	0.52959	-0.001
Mof_H 	H 	0.76895	0.23105	0.5074	0.074
Mof_N 	N 	0.81075	0.18925	0.6332	-0.103
Mof_C 	C 	0.8015	0.1985	0.5981	0.001
Mof_N 	N 	0.8316	0.1684	0.6257	-0.037
Mof_C 	C 	0.81655	0.18345	0.592	0.092
Mof_C 	C 	0.44512	0.55488	0.86292	-0.001
Mof_H 	H 	0.43562	0.56438	0.84073	0.074
Mof_N 	N 	0.47742	0.52258	0.96653	-0.101
Mof_C 	C 	0.46817	0.53183	0.93143	0.001
Mof_N 	N 	0.49827	0.50173	0.95903	-0.038
Mof_C 	C 	0.48322	0.51678	0.92533	0.091
Mof_C 	C 	0.11178	0.88822	0.19626	-0.001
Mof_H 	H 	0.10228	0.89772	0.17407	0.074
Mof_N 	N 	0.14408	0.85592	0.29987	-0.103
Mof_C 	C 	0.13483	0.86517	0.26477	0.001
Mof_N 	N 	0.16493	0.83507	0.29237	-0.037
Mof_C 	C 	0.14988	0.85012	0.25867	0.091
Mof_O 	O 	0.03152	0.33333	0.33333	-0.356
Mof_O 	O 	0.66667	0.69818	0.33333	-0.354
Mof_O 	O 	0.30182	0.96848	0.33333	-0.353
Mof_O 	O 	0.33333	0.03152	0.66667	-0.356
Mof_O 	O 	3.97044e-17	0.36485	-0	-0.339
Mof_O 	O 	0.69818	0.66667	0.66667	-0.354
Mof_O 	O 	0.36485	0	-0	-0.339
Mof_O 	O 	0.96848	0.30182	0.66667	-0.353
Mof_O 	O 	0.63515	0.63515	-0	-0.347
Mof_O 	O 	0.96848	0.66667	0.66667	-0.353
Mof_O 	O 	0.63515	0	-0	-0.34
Mof_O 	O 	0.30182	0.33333	0.33333	-0.354
Mof_O 	O 	0.33333	0.30182	0.66667	-0.354
Mof_O 	O 	-0	0.63515	-0	-0.34
Mof_O 	O 	0.69818	0.03152	0.66667	-0.356
Mof_O 	O 	0.36485	0.36485	-0	-0.346
Mof_O 	O 	0.66667	0.96848	0.33333	-0.353
Mof_O 	O 	0.03152	0.69818	0.33333	-0.356
_end
