# CIF file generated by openbabel 3.1.0, see https://openbabel.org
data_I
_chemical_name_common 'IKEVAW_clean'
_cell_length_a 6.0535
_cell_length_b 9.9159
_cell_length_c 13.2903
_cell_angle_alpha 68.832
_cell_angle_beta 81.273
_cell_angle_gamma 76.875
_space_group_name_H-M_alt 'P 1'
_space_group_name_Hall 'P 1'
loop_
    _symmetry_equiv_pos_as_xyz
    x,y,z
loop_
    _atom_site_label
    _atom_site_type_symbol
    _atom_site_fract_x
    _atom_site_fract_y
    _atom_site_fract_z
    _atom_site_occupancy
    Dy1      Dy       0.83464    0.61382    0.19511    1.000
    Dy2      Dy       0.16536    0.38618    0.80489    1.000
    H1       H        0.32660    0.04760    0.02920    1.000
    H2       H        0.70550    0.32140    0.62860    1.000
    H3       H        0.67340    0.95240    0.97080    1.000
    H4       H        0.29450    0.67860    0.37140    1.000
    C1       C        0.28940    0.76470    0.14170    1.000
    C2       C        0.13660    0.89290    0.06960    1.000
    C3       C        0.19160    0.02960    0.01580    1.000
    C4       C        0.95080    0.38170    0.43870    1.000
    C5       C        0.71080    0.44480    0.47190    1.000
    C6       C        0.61820    0.39600    0.57690    1.000
    C7       C        0.08920    0.43900    0.03430    1.000
    C8       C        0.71060    0.23530    0.85830    1.000
    C9       C        0.86340    0.10710    0.93040    1.000
    C10      C        0.80840    0.97040    0.98420    1.000
    C11      C        0.04920    0.61830    0.56130    1.000
    C12      C        0.28920    0.55520    0.52810    1.000
    C13      C        0.38180    0.60400    0.42310    1.000
    C14      C        0.91080    0.56100    0.96570    1.000
    N1       N        0.93890    0.86390    0.05390    1.000
    N2       N        0.59300    0.54790    0.39300    1.000
    N3       N        0.06110    0.13610    0.94610    1.000
    N4       N        0.40700    0.45210    0.60700    1.000
    O1       O        0.21620    0.64690    0.18400    1.000
    O2       O        0.48340    0.78110    0.15250    1.000
    O3       O        0.01560    0.43250    0.34060    1.000
    O4       O        0.07180    0.28940    0.50930    1.000
    O5       O        0.08430    0.42930    0.13080    1.000
    O6       O        0.22570    0.36120    0.98680    1.000
    O7       O        0.78380    0.35310    0.81600    1.000
    O8       O        0.51660    0.21890    0.84750    1.000
    O9       O        0.98440    0.56750    0.65940    1.000
    O10      O        0.92820    0.71060    0.49070    1.000
    O11      O        0.91570    0.57070    0.86920    1.000
    O12      O        0.77430    0.63880    0.01320    1.000
