# CIF file generated by openbabel 3.1.0, see https://openbabel.org
data_I
_chemical_name_common 'image0'
_cell_length_a 34.8492
_cell_length_b 14.8584
_cell_length_c 31.0351
_cell_angle_alpha 90
_cell_angle_beta 101.858
_cell_angle_gamma 90
_space_group_name_H-M_alt 'P 1'
_space_group_name_Hall 'P 1'
loop_
    _symmetry_equiv_pos_as_xyz
    x,y,z
loop_
    _atom_site_label
    _atom_site_type_symbol
    _atom_site_fract_x
    _atom_site_fract_y
    _atom_site_fract_z
    _atom_site_occupancy
    C1       C        0.33790    0.54660    0.74760    1.000
    H1       H        0.35910    0.52130    0.76820    1.000
    C2       C        0.33340    0.63910    0.74710    1.000
    H2       H        0.35070    0.67600    0.76740    1.000
    C3       C        0.30330    0.67670    0.71650    1.000
    C4       C        0.27900    0.61910    0.68780    1.000
    H3       H        0.25800    0.64210    0.66610    1.000
    C5       C        0.28600    0.52700    0.69150    1.000
    H4       H        0.26950    0.48770    0.67170    1.000
    N1       N        0.31450    0.49200    0.72140    1.000
    C6       C        0.29620    0.77560    0.71660    1.000
    N2       N        0.32103    0.82100    0.74770    1.000
    C7       C        0.31180    0.90720    0.75090    1.000
    N3       N        0.28146    0.94830    0.72630    1.000
    C8       C        0.26000    0.89840    0.69440    1.000
    N4       N        0.26629    0.81040    0.68830    1.000
    C9       C        0.39450    0.97310    0.84270    1.000
    H5       H        0.41930    0.94970    0.85680    1.000
    C10      C        0.37130    0.92350    0.80930    1.000
    H6       H        0.37940    0.86570    0.80170    1.000
    C11      C        0.33690    0.95900    0.78780    1.000
    C12      C        0.32550    0.04250    0.80000    1.000
    H7       H        0.30150    0.06870    0.78510    1.000
    C13      C        0.34930    0.08730    0.83420    1.000
    H8       H        0.34140    0.14470    0.84260    1.000
    N5       N        0.38300    0.05280    0.85580    1.000
    C14      C        0.17440    0.94730    0.60270    1.000
    H9       H        0.15840    0.91640    0.57870    1.000
    C15      C        0.20360    0.90010    0.62960    1.000
    H10      H        0.20690    0.83780    0.62470    1.000
    C16      C        0.22780    0.94290    0.66370    1.000
    C17      C        0.22020    0.03400    0.66970    1.000
    H11      H        0.23610    0.06660    0.69310    1.000
    C18      C        0.18990    0.07620    0.64180    1.000
    H12      H        0.18490    0.13780    0.64670    1.000
    N6       N        0.16719    0.03380    0.60820    1.000
    C19      C        0.34610    0.28530    0.64420    1.000
    H13      H        0.32060    0.25960    0.63950    1.000
    C20      C        0.36920    0.26870    0.61370    1.000
    H14      H        0.36000    0.23200    0.58860    1.000
    C21      C        0.40630    0.30750    0.62070    1.000
    C22      C        0.41890    0.35850    0.65770    1.000
    H15      H        0.44420    0.38540    0.66340    1.000
    C23      C        0.39340    0.36990    0.68670    1.000
    H16      H        0.40220    0.40420    0.71270    1.000
    C24      C        0.43190    0.29450    0.58850    1.000
    C25      C        0.44810    0.21580    0.53320    1.000
    C26      C        0.48110    0.34100    0.55810    1.000
    C27      C        0.53300    0.40800    0.52270    1.000
    H17      H        0.52470    0.37120    0.49740    1.000
    C28      C        0.56370    0.46560    0.52500    1.000
    H18      H        0.57640    0.46830    0.50080    1.000
    C29      C        0.51390    0.40410    0.55780    1.000
    C30      C        0.52590    0.46330    0.59260    1.000
    H19      H        0.51250    0.46640    0.61630    1.000
    C31      C        0.55800    0.51740    0.59190    1.000
    H20      H        0.56680    0.55620    0.61630    1.000
    C32      C        0.46350    0.03850    0.45200    1.000
    H21      H        0.48200    0.02430    0.43450    1.000
    C33      C        0.46960    0.11500    0.47840    1.000
    H22      H        0.49160    0.15270    0.47860    1.000
    C34      C        0.44310    0.13460    0.50400    1.000
    C35      C        0.41140    0.07950    0.50250    1.000
    H23      H        0.39240    0.09230    0.51970    1.000
    C36      C        0.40760    0.00460    0.47530    1.000
    H24      H        0.38580    0.96580    0.47460    1.000
    N7       N        0.35800    0.33570    0.67970    1.000
    N8       N        0.42420    0.22340    0.56180    1.000
    N9       N        0.47610    0.27490    0.52864    1.000
    N10      N        0.46034    0.35430    0.58910    1.000
    N11      N        0.57700    0.51840    0.55960    1.000
    N12      N        0.43280    0.98460    0.45030    1.000
    Zn1      Zn       0.32610    0.35640    0.72940    1.000
    I1       I        0.37157    0.33100    0.80341    1.000
    I2       I        0.26312    0.26750    0.70295    1.000
    Zn2      Zn       0.12360    0.10360    0.56750    1.000
    I3       I        0.10764    0.24463    0.60669    1.000
    I4       I        0.14528    0.09880    0.49434    1.000
    Zn3      Zn       0.42060    0.87920    0.40544    1.000
    I5       I        0.48013    0.85576    0.37197    1.000
    I6       I        0.37893    0.76850    0.43640    1.000
    Zn4      Zn       0.31960    0.34890    0.71990    1.000
    I7       I        0.35920    0.31400    0.79660    1.000
    I8       I        0.25230    0.28210    0.68920    1.000
    Zn5      Zn       0.12790    0.09790    0.55720    1.000
    I9       I        0.11681    0.24970    0.59128    1.000
    I10      I        0.14817    0.07960    0.48365    1.000
    I11      I        0.38560    0.75970    0.44293    1.000
    C37      C        0.83790    0.04660    0.74760    1.000
    H25      H        0.85910    0.02130    0.76820    1.000
    C38      C        0.83340    0.13910    0.74710    1.000
    H26      H        0.85070    0.17600    0.76740    1.000
    C39      C        0.80330    0.17670    0.71650    1.000
    C40      C        0.77900    0.11910    0.68780    1.000
    H27      H        0.75800    0.14210    0.66610    1.000
    C41      C        0.78600    0.02700    0.69150    1.000
    H28      H        0.76950    0.98770    0.67170    1.000
    N13      N        0.81450    0.99200    0.72140    1.000
    C42      C        0.79620    0.27560    0.71660    1.000
    N14      N        0.82103    0.32100    0.74770    1.000
    C43      C        0.81180    0.40720    0.75090    1.000
    N15      N        0.78146    0.44830    0.72630    1.000
    C44      C        0.76000    0.39840    0.69440    1.000
    N16      N        0.76629    0.31040    0.68830    1.000
    C45      C        0.89450    0.47310    0.84270    1.000
    H29      H        0.91930    0.44970    0.85680    1.000
    C46      C        0.87130    0.42350    0.80930    1.000
    H30      H        0.87940    0.36570    0.80170    1.000
    C47      C        0.83690    0.45900    0.78780    1.000
    C48      C        0.82550    0.54250    0.80000    1.000
    H31      H        0.80150    0.56870    0.78510    1.000
    C49      C        0.84930    0.58730    0.83420    1.000
    H32      H        0.84140    0.64470    0.84260    1.000
    N17      N        0.88300    0.55280    0.85580    1.000
    C50      C        0.67440    0.44730    0.60270    1.000
    H33      H        0.65840    0.41640    0.57870    1.000
    C51      C        0.70360    0.40010    0.62960    1.000
    H34      H        0.70690    0.33780    0.62470    1.000
    C52      C        0.72780    0.44290    0.66370    1.000
    C53      C        0.72020    0.53400    0.66970    1.000
    H35      H        0.73610    0.56660    0.69310    1.000
    C54      C        0.68990    0.57620    0.64180    1.000
    H36      H        0.68490    0.63780    0.64670    1.000
    N18      N        0.66719    0.53380    0.60820    1.000
    C55      C        0.84610    0.78530    0.64420    1.000
    H37      H        0.82060    0.75960    0.63950    1.000
    C56      C        0.86920    0.76870    0.61370    1.000
    H38      H        0.86000    0.73200    0.58860    1.000
    C57      C        0.90630    0.80750    0.62070    1.000
    C58      C        0.91890    0.85850    0.65770    1.000
    H39      H        0.94420    0.88540    0.66340    1.000
    C59      C        0.89340    0.86990    0.68670    1.000
    H40      H        0.90220    0.90420    0.71270    1.000
    C60      C        0.93190    0.79450    0.58850    1.000
    C61      C        0.94810    0.71580    0.53320    1.000
    C62      C        0.98110    0.84100    0.55810    1.000
    C63      C        0.03300    0.90800    0.52270    1.000
    H41      H        0.02470    0.87120    0.49740    1.000
    C64      C        0.06370    0.96560    0.52500    1.000
    H42      H        0.07640    0.96830    0.50080    1.000
    C65      C        0.01390    0.90410    0.55780    1.000
    C66      C        0.02590    0.96330    0.59260    1.000
    H43      H        0.01250    0.96640    0.61630    1.000
    C67      C        0.05800    0.01740    0.59190    1.000
    H44      H        0.06680    0.05620    0.61630    1.000
    C68      C        0.96350    0.53850    0.45200    1.000
    H45      H        0.98200    0.52430    0.43450    1.000
    C69      C        0.96960    0.61500    0.47840    1.000
    H46      H        0.99160    0.65270    0.47860    1.000
    C70      C        0.94310    0.63460    0.50400    1.000
    C71      C        0.91140    0.57950    0.50250    1.000
    H47      H        0.89240    0.59230    0.51970    1.000
    C72      C        0.90760    0.50460    0.47530    1.000
    H48      H        0.88580    0.46580    0.47460    1.000
    N19      N        0.85800    0.83570    0.67970    1.000
    N20      N        0.92420    0.72340    0.56180    1.000
    N21      N        0.97610    0.77490    0.52864    1.000
    N22      N        0.96034    0.85430    0.58910    1.000
    N23      N        0.07700    0.01840    0.55960    1.000
    N24      N        0.93280    0.48460    0.45030    1.000
    Zn6      Zn       0.82610    0.85640    0.72940    1.000
    I12      I        0.87157    0.83100    0.80341    1.000
    I13      I        0.76312    0.76750    0.70295    1.000
    Zn7      Zn       0.62360    0.60360    0.56750    1.000
    I14      I        0.60764    0.74463    0.60669    1.000
    I15      I        0.64528    0.59880    0.49434    1.000
    Zn8      Zn       0.92060    0.37920    0.40544    1.000
    I16      I        0.98013    0.35576    0.37197    1.000
    I17      I        0.87893    0.26850    0.43640    1.000
    Zn9      Zn       0.81960    0.84890    0.71990    1.000
    I18      I        0.85920    0.81400    0.79660    1.000
    I19      I        0.75230    0.78210    0.68920    1.000
    Zn10     Zn       0.62790    0.59790    0.55720    1.000
    I20      I        0.61681    0.74970    0.59128    1.000
    I21      I        0.64817    0.57960    0.48365    1.000
    I22      I        0.88560    0.25970    0.44293    1.000
    C73      C        0.33790    0.45340    0.24760    1.000
    H49      H        0.35910    0.47870    0.26820    1.000
    C74      C        0.33340    0.36090    0.24710    1.000
    H50      H        0.35070    0.32400    0.26740    1.000
    C75      C        0.30330    0.32330    0.21650    1.000
    C76      C        0.27900    0.38090    0.18780    1.000
    H51      H        0.25800    0.35790    0.16610    1.000
    C77      C        0.28600    0.47300    0.19150    1.000
    H52      H        0.26950    0.51230    0.17170    1.000
    N25      N        0.31450    0.50800    0.22140    1.000
    C78      C        0.29620    0.22440    0.21660    1.000
    N26      N        0.32103    0.17900    0.24770    1.000
    C79      C        0.31180    0.09280    0.25090    1.000
    N27      N        0.28146    0.05170    0.22630    1.000
    C80      C        0.26000    0.10160    0.19440    1.000
    N28      N        0.26629    0.18960    0.18830    1.000
    C81      C        0.39450    0.02690    0.34270    1.000
    H53      H        0.41930    0.05030    0.35680    1.000
    C82      C        0.37130    0.07650    0.30930    1.000
    H54      H        0.37940    0.13430    0.30170    1.000
    C83      C        0.33690    0.04100    0.28780    1.000
    C84      C        0.32550    0.95750    0.30000    1.000
    H55      H        0.30150    0.93130    0.28510    1.000
    C85      C        0.34930    0.91270    0.33420    1.000
    H56      H        0.34140    0.85530    0.34260    1.000
    N29      N        0.38300    0.94720    0.35580    1.000
    C86      C        0.17440    0.05270    0.10270    1.000
    H57      H        0.15840    0.08360    0.07870    1.000
    C87      C        0.20360    0.09990    0.12960    1.000
    H58      H        0.20690    0.16220    0.12470    1.000
    C88      C        0.22780    0.05710    0.16370    1.000
    C89      C        0.22020    0.96600    0.16970    1.000
    H59      H        0.23610    0.93340    0.19310    1.000
    C90      C        0.18990    0.92380    0.14180    1.000
    H60      H        0.18490    0.86220    0.14670    1.000
    N30      N        0.16719    0.96620    0.10820    1.000
    C91      C        0.34610    0.71470    0.14420    1.000
    H61      H        0.32060    0.74040    0.13950    1.000
    C92      C        0.36920    0.73130    0.11370    1.000
    H62      H        0.36000    0.76800    0.08860    1.000
    C93      C        0.40630    0.69250    0.12070    1.000
    C94      C        0.41890    0.64150    0.15770    1.000
    H63      H        0.44420    0.61460    0.16340    1.000
    C95      C        0.39340    0.63010    0.18670    1.000
    H64      H        0.40220    0.59580    0.21270    1.000
    C96      C        0.43190    0.70550    0.08850    1.000
    C97      C        0.44810    0.78420    0.03320    1.000
    C98      C        0.48110    0.65900    0.05810    1.000
    C99      C        0.53300    0.59200    0.02270    1.000
    H65      H        0.52470    0.62880    0.99740    1.000
    C100     C        0.56370    0.53440    0.02500    1.000
    H66      H        0.57640    0.53170    0.00080    1.000
    C101     C        0.51390    0.59590    0.05780    1.000
    C102     C        0.52590    0.53670    0.09260    1.000
    H67      H        0.51250    0.53360    0.11630    1.000
    C103     C        0.55800    0.48260    0.09190    1.000
    H68      H        0.56680    0.44380    0.11630    1.000
    C104     C        0.46350    0.96150    0.95200    1.000
    H69      H        0.48200    0.97570    0.93450    1.000
    C105     C        0.46960    0.88500    0.97840    1.000
    H70      H        0.49160    0.84730    0.97860    1.000
    C106     C        0.44310    0.86540    0.00400    1.000
    C107     C        0.41140    0.92050    0.00250    1.000
    H71      H        0.39240    0.90770    0.01970    1.000
    C108     C        0.40760    0.99540    0.97530    1.000
    H72      H        0.38580    0.03420    0.97460    1.000
    N31      N        0.35800    0.66430    0.17970    1.000
    N32      N        0.42420    0.77660    0.06180    1.000
    N33      N        0.47610    0.72510    0.02864    1.000
    N34      N        0.46034    0.64570    0.08910    1.000
    N35      N        0.57700    0.48160    0.05960    1.000
    N36      N        0.43280    0.01540    0.95030    1.000
    Zn11     Zn       0.32610    0.64360    0.22940    1.000
    I23      I        0.37157    0.66900    0.30341    1.000
    I24      I        0.26312    0.73250    0.20295    1.000
    Zn12     Zn       0.12360    0.89640    0.06750    1.000
    I25      I        0.10764    0.75537    0.10669    1.000
    I26      I        0.14528    0.90120    0.99434    1.000
    Zn13     Zn       0.42060    0.12080    0.90544    1.000
    I27      I        0.48013    0.14424    0.87197    1.000
    I28      I        0.37893    0.23150    0.93640    1.000
    Zn14     Zn       0.31960    0.65110    0.21990    1.000
    I29      I        0.35920    0.68600    0.29660    1.000
    I30      I        0.25230    0.71790    0.18920    1.000
    Zn15     Zn       0.12790    0.90210    0.05720    1.000
    I31      I        0.11681    0.75030    0.09128    1.000
    I32      I        0.14817    0.92040    0.98365    1.000
    I33      I        0.38560    0.24030    0.94293    1.000
    C109     C        0.83790    0.95340    0.24760    1.000
    H73      H        0.85910    0.97870    0.26820    1.000
    C110     C        0.83340    0.86090    0.24710    1.000
    H74      H        0.85070    0.82400    0.26740    1.000
    C111     C        0.80330    0.82330    0.21650    1.000
    C112     C        0.77900    0.88090    0.18780    1.000
    H75      H        0.75800    0.85790    0.16610    1.000
    C113     C        0.78600    0.97300    0.19150    1.000
    H76      H        0.76950    0.01230    0.17170    1.000
    N37      N        0.81450    0.00800    0.22140    1.000
    C114     C        0.79620    0.72440    0.21660    1.000
    N38      N        0.82103    0.67900    0.24770    1.000
    C115     C        0.81180    0.59280    0.25090    1.000
    N39      N        0.78146    0.55170    0.22630    1.000
    C116     C        0.76000    0.60160    0.19440    1.000
    N40      N        0.76629    0.68960    0.18830    1.000
    C117     C        0.89450    0.52690    0.34270    1.000
    H77      H        0.91930    0.55030    0.35680    1.000
    C118     C        0.87130    0.57650    0.30930    1.000
    H78      H        0.87940    0.63430    0.30170    1.000
    C119     C        0.83690    0.54100    0.28780    1.000
    C120     C        0.82550    0.45750    0.30000    1.000
    H79      H        0.80150    0.43130    0.28510    1.000
    C121     C        0.84930    0.41270    0.33420    1.000
    H80      H        0.84140    0.35530    0.34260    1.000
    N41      N        0.88300    0.44720    0.35580    1.000
    C122     C        0.67440    0.55270    0.10270    1.000
    H81      H        0.65840    0.58360    0.07870    1.000
    C123     C        0.70360    0.59990    0.12960    1.000
    H82      H        0.70690    0.66220    0.12470    1.000
    C124     C        0.72780    0.55710    0.16370    1.000
    C125     C        0.72020    0.46600    0.16970    1.000
    H83      H        0.73610    0.43340    0.19310    1.000
    C126     C        0.68990    0.42380    0.14180    1.000
    H84      H        0.68490    0.36220    0.14670    1.000
    N42      N        0.66719    0.46620    0.10820    1.000
    C127     C        0.84610    0.21470    0.14420    1.000
    H85      H        0.82060    0.24040    0.13950    1.000
    C128     C        0.86920    0.23130    0.11370    1.000
    H86      H        0.86000    0.26800    0.08860    1.000
    C129     C        0.90630    0.19250    0.12070    1.000
    C130     C        0.91890    0.14150    0.15770    1.000
    H87      H        0.94420    0.11460    0.16340    1.000
    C131     C        0.89340    0.13010    0.18670    1.000
    H88      H        0.90220    0.09580    0.21270    1.000
    C132     C        0.93190    0.20550    0.08850    1.000
    C133     C        0.94810    0.28420    0.03320    1.000
    C134     C        0.98110    0.15900    0.05810    1.000
    C135     C        0.03300    0.09200    0.02270    1.000
    H89      H        0.02470    0.12880    0.99740    1.000
    C136     C        0.06370    0.03440    0.02500    1.000
    H90      H        0.07640    0.03170    0.00080    1.000
    C137     C        0.01390    0.09590    0.05780    1.000
    C138     C        0.02590    0.03670    0.09260    1.000
    H91      H        0.01250    0.03360    0.11630    1.000
    C139     C        0.05800    0.98260    0.09190    1.000
    H92      H        0.06680    0.94380    0.11630    1.000
    C140     C        0.96350    0.46150    0.95200    1.000
    H93      H        0.98200    0.47570    0.93450    1.000
    C141     C        0.96960    0.38500    0.97840    1.000
    H94      H        0.99160    0.34730    0.97860    1.000
    C142     C        0.94310    0.36540    0.00400    1.000
    C143     C        0.91140    0.42050    0.00250    1.000
    H95      H        0.89240    0.40770    0.01970    1.000
    C144     C        0.90760    0.49540    0.97530    1.000
    H96      H        0.88580    0.53420    0.97460    1.000
    N43      N        0.85800    0.16430    0.17970    1.000
    N44      N        0.92420    0.27660    0.06180    1.000
    N45      N        0.97610    0.22510    0.02864    1.000
    N46      N        0.96034    0.14570    0.08910    1.000
    N47      N        0.07700    0.98160    0.05960    1.000
    N48      N        0.93280    0.51540    0.95030    1.000
    Zn16     Zn       0.82610    0.14360    0.22940    1.000
    I34      I        0.87157    0.16900    0.30341    1.000
    I35      I        0.76312    0.23250    0.20295    1.000
    Zn17     Zn       0.62360    0.39640    0.06750    1.000
    I36      I        0.60764    0.25537    0.10669    1.000
    I37      I        0.64528    0.40120    0.99434    1.000
    Zn18     Zn       0.92060    0.62080    0.90544    1.000
    I38      I        0.98013    0.64424    0.87197    1.000
    I39      I        0.87893    0.73150    0.93640    1.000
    Zn19     Zn       0.81960    0.15110    0.21990    1.000
    I40      I        0.85920    0.18600    0.29660    1.000
    I41      I        0.75230    0.21790    0.18920    1.000
    Zn20     Zn       0.62790    0.40210    0.05720    1.000
    I42      I        0.61681    0.25030    0.09128    1.000
    I43      I        0.64817    0.42040    0.98365    1.000
    I44      I        0.88560    0.74030    0.94293    1.000
    C145     C        0.66210    0.54660    0.75240    1.000
    H97      H        0.64090    0.52130    0.73180    1.000
    C146     C        0.66660    0.63910    0.75290    1.000
    H98      H        0.64930    0.67600    0.73260    1.000
    C147     C        0.69670    0.67670    0.78350    1.000
    C148     C        0.72100    0.61910    0.81220    1.000
    H99      H        0.74200    0.64210    0.83390    1.000
    C149     C        0.71400    0.52700    0.80850    1.000
    H100     H        0.73050    0.48770    0.82830    1.000
    N49      N        0.68550    0.49200    0.77860    1.000
    C150     C        0.70380    0.77560    0.78340    1.000
    N50      N        0.67897    0.82100    0.75230    1.000
    C151     C        0.68820    0.90720    0.74910    1.000
    N51      N        0.71854    0.94830    0.77370    1.000
    C152     C        0.74000    0.89840    0.80560    1.000
    N52      N        0.73371    0.81040    0.81170    1.000
    C153     C        0.60550    0.97310    0.65730    1.000
    H101     H        0.58070    0.94970    0.64320    1.000
    C154     C        0.62870    0.92350    0.69070    1.000
    H102     H        0.62060    0.86570    0.69830    1.000
    C155     C        0.66310    0.95900    0.71220    1.000
    C156     C        0.67450    0.04250    0.70000    1.000
    H103     H        0.69850    0.06870    0.71490    1.000
    C157     C        0.65070    0.08730    0.66580    1.000
    H104     H        0.65860    0.14470    0.65740    1.000
    N53      N        0.61700    0.05280    0.64420    1.000
    C158     C        0.82560    0.94730    0.89730    1.000
    H105     H        0.84160    0.91640    0.92130    1.000
    C159     C        0.79640    0.90010    0.87040    1.000
    H106     H        0.79310    0.83780    0.87530    1.000
    C160     C        0.77220    0.94290    0.83630    1.000
    C161     C        0.77980    0.03400    0.83030    1.000
    H107     H        0.76390    0.06660    0.80690    1.000
    C162     C        0.81010    0.07620    0.85820    1.000
    H108     H        0.81510    0.13780    0.85330    1.000
    N54      N        0.83281    0.03380    0.89180    1.000
    C163     C        0.65390    0.28530    0.85580    1.000
    H109     H        0.67940    0.25960    0.86050    1.000
    C164     C        0.63080    0.26870    0.88630    1.000
    H110     H        0.64000    0.23200    0.91140    1.000
    C165     C        0.59370    0.30750    0.87930    1.000
    C166     C        0.58110    0.35850    0.84230    1.000
    H111     H        0.55580    0.38540    0.83660    1.000
    C167     C        0.60660    0.36990    0.81330    1.000
    H112     H        0.59780    0.40420    0.78730    1.000
    C168     C        0.56810    0.29450    0.91150    1.000
    C169     C        0.55190    0.21580    0.96680    1.000
    C170     C        0.51890    0.34100    0.94190    1.000
    C171     C        0.46700    0.40800    0.97730    1.000
    H113     H        0.47530    0.37120    0.00260    1.000
    C172     C        0.43630    0.46560    0.97500    1.000
    H114     H        0.42360    0.46830    0.99920    1.000
    C173     C        0.48610    0.40410    0.94220    1.000
    C174     C        0.47410    0.46330    0.90740    1.000
    H115     H        0.48750    0.46640    0.88370    1.000
    C175     C        0.44200    0.51740    0.90810    1.000
    H116     H        0.43320    0.55620    0.88370    1.000
    C176     C        0.53650    0.03850    0.04800    1.000
    H117     H        0.51800    0.02430    0.06550    1.000
    C177     C        0.53040    0.11500    0.02160    1.000
    H118     H        0.50840    0.15270    0.02140    1.000
    C178     C        0.55690    0.13460    0.99600    1.000
    C179     C        0.58860    0.07950    0.99750    1.000
    H119     H        0.60760    0.09230    0.98030    1.000
    C180     C        0.59240    0.00460    0.02470    1.000
    H120     H        0.61420    0.96580    0.02540    1.000
    N55      N        0.64200    0.33570    0.82030    1.000
    N56      N        0.57580    0.22340    0.93820    1.000
    N57      N        0.52390    0.27490    0.97136    1.000
    N58      N        0.53966    0.35430    0.91090    1.000
    N59      N        0.42300    0.51840    0.94040    1.000
    N60      N        0.56720    0.98460    0.04970    1.000
    Zn21     Zn       0.67390    0.35640    0.77060    1.000
    I45      I        0.62843    0.33100    0.69659    1.000
    I46      I        0.73688    0.26750    0.79705    1.000
    Zn22     Zn       0.87640    0.10360    0.93250    1.000
    I47      I        0.89236    0.24463    0.89331    1.000
    I48      I        0.85472    0.09880    0.00566    1.000
    Zn23     Zn       0.57940    0.87920    0.09456    1.000
    I49      I        0.51987    0.85576    0.12803    1.000
    I50      I        0.62107    0.76850    0.06360    1.000
    Zn24     Zn       0.68040    0.34890    0.78010    1.000
    I51      I        0.64080    0.31400    0.70340    1.000
    I52      I        0.74770    0.28210    0.81080    1.000
    Zn25     Zn       0.87210    0.09790    0.94280    1.000
    I53      I        0.88319    0.24970    0.90872    1.000
    I54      I        0.85183    0.07960    0.01635    1.000
    I55      I        0.61440    0.75970    0.05707    1.000
    C181     C        0.16210    0.04660    0.75240    1.000
    H121     H        0.14090    0.02130    0.73180    1.000
    C182     C        0.16660    0.13910    0.75290    1.000
    H122     H        0.14930    0.17600    0.73260    1.000
    C183     C        0.19670    0.17670    0.78350    1.000
    C184     C        0.22100    0.11910    0.81220    1.000
    H123     H        0.24200    0.14210    0.83390    1.000
    C185     C        0.21400    0.02700    0.80850    1.000
    H124     H        0.23050    0.98770    0.82830    1.000
    N61      N        0.18550    0.99200    0.77860    1.000
    C186     C        0.20380    0.27560    0.78340    1.000
    N62      N        0.17897    0.32100    0.75230    1.000
    C187     C        0.18820    0.40720    0.74910    1.000
    N63      N        0.21854    0.44830    0.77370    1.000
    C188     C        0.24000    0.39840    0.80560    1.000
    N64      N        0.23371    0.31040    0.81170    1.000
    C189     C        0.10550    0.47310    0.65730    1.000
    H125     H        0.08070    0.44970    0.64320    1.000
    C190     C        0.12870    0.42350    0.69070    1.000
    H126     H        0.12060    0.36570    0.69830    1.000
    C191     C        0.16310    0.45900    0.71220    1.000
    C192     C        0.17450    0.54250    0.70000    1.000
    H127     H        0.19850    0.56870    0.71490    1.000
    C193     C        0.15070    0.58730    0.66580    1.000
    H128     H        0.15860    0.64470    0.65740    1.000
    N65      N        0.11700    0.55280    0.64420    1.000
    C194     C        0.32560    0.44730    0.89730    1.000
    H129     H        0.34160    0.41640    0.92130    1.000
    C195     C        0.29640    0.40010    0.87040    1.000
    H130     H        0.29310    0.33780    0.87530    1.000
    C196     C        0.27220    0.44290    0.83630    1.000
    C197     C        0.27980    0.53400    0.83030    1.000
    H131     H        0.26390    0.56660    0.80690    1.000
    C198     C        0.31010    0.57620    0.85820    1.000
    H132     H        0.31510    0.63780    0.85330    1.000
    N66      N        0.33281    0.53380    0.89180    1.000
    C199     C        0.15390    0.78530    0.85580    1.000
    H133     H        0.17940    0.75960    0.86050    1.000
    C200     C        0.13080    0.76870    0.88630    1.000
    H134     H        0.14000    0.73200    0.91140    1.000
    C201     C        0.09370    0.80750    0.87930    1.000
    C202     C        0.08110    0.85850    0.84230    1.000
    H135     H        0.05580    0.88540    0.83660    1.000
    C203     C        0.10660    0.86990    0.81330    1.000
    H136     H        0.09780    0.90420    0.78730    1.000
    C204     C        0.06810    0.79450    0.91150    1.000
    C205     C        0.05190    0.71580    0.96680    1.000
    C206     C        0.01890    0.84100    0.94190    1.000
    C207     C        0.96700    0.90800    0.97730    1.000
    H137     H        0.97530    0.87120    0.00260    1.000
    C208     C        0.93630    0.96560    0.97500    1.000
    H138     H        0.92360    0.96830    0.99920    1.000
    C209     C        0.98610    0.90410    0.94220    1.000
    C210     C        0.97410    0.96330    0.90740    1.000
    H139     H        0.98750    0.96640    0.88370    1.000
    C211     C        0.94200    0.01740    0.90810    1.000
    H140     H        0.93320    0.05620    0.88370    1.000
    C212     C        0.03650    0.53850    0.04800    1.000
    H141     H        0.01800    0.52430    0.06550    1.000
    C213     C        0.03040    0.61500    0.02160    1.000
    H142     H        0.00840    0.65270    0.02140    1.000
    C214     C        0.05690    0.63460    0.99600    1.000
    C215     C        0.08860    0.57950    0.99750    1.000
    H143     H        0.10760    0.59230    0.98030    1.000
    C216     C        0.09240    0.50460    0.02470    1.000
    H144     H        0.11420    0.46580    0.02540    1.000
    N67      N        0.14200    0.83570    0.82030    1.000
    N68      N        0.07580    0.72340    0.93820    1.000
    N69      N        0.02390    0.77490    0.97136    1.000
    N70      N        0.03966    0.85430    0.91090    1.000
    N71      N        0.92300    0.01840    0.94040    1.000
    N72      N        0.06720    0.48460    0.04970    1.000
    Zn26     Zn       0.17390    0.85640    0.77060    1.000
    I56      I        0.12843    0.83100    0.69659    1.000
    I57      I        0.23688    0.76750    0.79705    1.000
    Zn27     Zn       0.37640    0.60360    0.93250    1.000
    I58      I        0.39236    0.74463    0.89331    1.000
    I59      I        0.35472    0.59880    0.00566    1.000
    Zn28     Zn       0.07940    0.37920    0.09456    1.000
    I60      I        0.01987    0.35576    0.12803    1.000
    I61      I        0.12107    0.26850    0.06360    1.000
    Zn29     Zn       0.18040    0.84890    0.78010    1.000
    I62      I        0.14080    0.81400    0.70340    1.000
    I63      I        0.24770    0.78210    0.81080    1.000
    Zn30     Zn       0.37210    0.59790    0.94280    1.000
    I64      I        0.38319    0.74970    0.90872    1.000
    I65      I        0.35183    0.57960    0.01635    1.000
    I66      I        0.11440    0.25970    0.05707    1.000
    C217     C        0.66210    0.45340    0.25240    1.000
    H145     H        0.64090    0.47870    0.23180    1.000
    C218     C        0.66660    0.36090    0.25290    1.000
    H146     H        0.64930    0.32400    0.23260    1.000
    C219     C        0.69670    0.32330    0.28350    1.000
    C220     C        0.72100    0.38090    0.31220    1.000
    H147     H        0.74200    0.35790    0.33390    1.000
    C221     C        0.71400    0.47300    0.30850    1.000
    H148     H        0.73050    0.51230    0.32830    1.000
    N73      N        0.68550    0.50800    0.27860    1.000
    C222     C        0.70380    0.22440    0.28340    1.000
    N74      N        0.67897    0.17900    0.25230    1.000
    C223     C        0.68820    0.09280    0.24910    1.000
    N75      N        0.71854    0.05170    0.27370    1.000
    C224     C        0.74000    0.10160    0.30560    1.000
    N76      N        0.73371    0.18960    0.31170    1.000
    C225     C        0.60550    0.02690    0.15730    1.000
    H149     H        0.58070    0.05030    0.14320    1.000
    C226     C        0.62870    0.07650    0.19070    1.000
    H150     H        0.62060    0.13430    0.19830    1.000
    C227     C        0.66310    0.04100    0.21220    1.000
    C228     C        0.67450    0.95750    0.20000    1.000
    H151     H        0.69850    0.93130    0.21490    1.000
    C229     C        0.65070    0.91270    0.16580    1.000
    H152     H        0.65860    0.85530    0.15740    1.000
    N77      N        0.61700    0.94720    0.14420    1.000
    C230     C        0.82560    0.05270    0.39730    1.000
    H153     H        0.84160    0.08360    0.42130    1.000
    C231     C        0.79640    0.09990    0.37040    1.000
    H154     H        0.79310    0.16220    0.37530    1.000
    C232     C        0.77220    0.05710    0.33630    1.000
    C233     C        0.77980    0.96600    0.33030    1.000
    H155     H        0.76390    0.93340    0.30690    1.000
    C234     C        0.81010    0.92380    0.35820    1.000
    H156     H        0.81510    0.86220    0.35330    1.000
    N78      N        0.83281    0.96620    0.39180    1.000
    C235     C        0.65390    0.71470    0.35580    1.000
    H157     H        0.67940    0.74040    0.36050    1.000
    C236     C        0.63080    0.73130    0.38630    1.000
    H158     H        0.64000    0.76800    0.41140    1.000
    C237     C        0.59370    0.69250    0.37930    1.000
    C238     C        0.58110    0.64150    0.34230    1.000
    H159     H        0.55580    0.61460    0.33660    1.000
    C239     C        0.60660    0.63010    0.31330    1.000
    H160     H        0.59780    0.59580    0.28730    1.000
    C240     C        0.56810    0.70550    0.41150    1.000
    C241     C        0.55190    0.78420    0.46680    1.000
    C242     C        0.51890    0.65900    0.44190    1.000
    C243     C        0.46700    0.59200    0.47730    1.000
    H161     H        0.47530    0.62880    0.50260    1.000
    C244     C        0.43630    0.53440    0.47500    1.000
    H162     H        0.42360    0.53170    0.49920    1.000
    C245     C        0.48610    0.59590    0.44220    1.000
    C246     C        0.47410    0.53670    0.40740    1.000
    H163     H        0.48750    0.53360    0.38370    1.000
    C247     C        0.44200    0.48260    0.40810    1.000
    H164     H        0.43320    0.44380    0.38370    1.000
    C248     C        0.53650    0.96150    0.54800    1.000
    H165     H        0.51800    0.97570    0.56550    1.000
    C249     C        0.53040    0.88500    0.52160    1.000
    H166     H        0.50840    0.84730    0.52140    1.000
    C250     C        0.55690    0.86540    0.49600    1.000
    C251     C        0.58860    0.92050    0.49750    1.000
    H167     H        0.60760    0.90770    0.48030    1.000
    C252     C        0.59240    0.99540    0.52470    1.000
    H168     H        0.61420    0.03420    0.52540    1.000
    N79      N        0.64200    0.66430    0.32030    1.000
    N80      N        0.57580    0.77660    0.43820    1.000
    N81      N        0.52390    0.72510    0.47136    1.000
    N82      N        0.53966    0.64570    0.41090    1.000
    N83      N        0.42300    0.48160    0.44040    1.000
    N84      N        0.56720    0.01540    0.54970    1.000
    Zn31     Zn       0.67390    0.64360    0.27060    1.000
    I67      I        0.62843    0.66900    0.19659    1.000
    I68      I        0.73688    0.73250    0.29705    1.000
    Zn32     Zn       0.87640    0.89640    0.43250    1.000
    I69      I        0.89236    0.75537    0.39331    1.000
    I70      I        0.85472    0.90120    0.50566    1.000
    Zn33     Zn       0.57940    0.12080    0.59456    1.000
    I71      I        0.51987    0.14424    0.62803    1.000
    I72      I        0.62107    0.23150    0.56360    1.000
    Zn34     Zn       0.68040    0.65110    0.28010    1.000
    I73      I        0.64080    0.68600    0.20340    1.000
    I74      I        0.74770    0.71790    0.31080    1.000
    Zn35     Zn       0.87210    0.90210    0.44280    1.000
    I75      I        0.88319    0.75030    0.40872    1.000
    I76      I        0.85183    0.92040    0.51635    1.000
    I77      I        0.61440    0.24030    0.55707    1.000
    C253     C        0.16210    0.95340    0.25240    1.000
    H169     H        0.14090    0.97870    0.23180    1.000
    C254     C        0.16660    0.86090    0.25290    1.000
    H170     H        0.14930    0.82400    0.23260    1.000
    C255     C        0.19670    0.82330    0.28350    1.000
    C256     C        0.22100    0.88090    0.31220    1.000
    H171     H        0.24200    0.85790    0.33390    1.000
    C257     C        0.21400    0.97300    0.30850    1.000
    H172     H        0.23050    0.01230    0.32830    1.000
    N85      N        0.18550    0.00800    0.27860    1.000
    C258     C        0.20380    0.72440    0.28340    1.000
    N86      N        0.17897    0.67900    0.25230    1.000
    C259     C        0.18820    0.59280    0.24910    1.000
    N87      N        0.21854    0.55170    0.27370    1.000
    C260     C        0.24000    0.60160    0.30560    1.000
    N88      N        0.23371    0.68960    0.31170    1.000
    C261     C        0.10550    0.52690    0.15730    1.000
    H173     H        0.08070    0.55030    0.14320    1.000
    C262     C        0.12870    0.57650    0.19070    1.000
    H174     H        0.12060    0.63430    0.19830    1.000
    C263     C        0.16310    0.54100    0.21220    1.000
    C264     C        0.17450    0.45750    0.20000    1.000
    H175     H        0.19850    0.43130    0.21490    1.000
    C265     C        0.15070    0.41270    0.16580    1.000
    H176     H        0.15860    0.35530    0.15740    1.000
    N89      N        0.11700    0.44720    0.14420    1.000
    C266     C        0.32560    0.55270    0.39730    1.000
    H177     H        0.34160    0.58360    0.42130    1.000
    C267     C        0.29640    0.59990    0.37040    1.000
    H178     H        0.29310    0.66220    0.37530    1.000
    C268     C        0.27220    0.55710    0.33630    1.000
    C269     C        0.27980    0.46600    0.33030    1.000
    H179     H        0.26390    0.43340    0.30690    1.000
    C270     C        0.31010    0.42380    0.35820    1.000
    H180     H        0.31510    0.36220    0.35330    1.000
    N90      N        0.33281    0.46620    0.39180    1.000
    C271     C        0.15390    0.21470    0.35580    1.000
    H181     H        0.17940    0.24040    0.36050    1.000
    C272     C        0.13080    0.23130    0.38630    1.000
    H182     H        0.14000    0.26800    0.41140    1.000
    C273     C        0.09370    0.19250    0.37930    1.000
    C274     C        0.08110    0.14150    0.34230    1.000
    H183     H        0.05580    0.11460    0.33660    1.000
    C275     C        0.10660    0.13010    0.31330    1.000
    H184     H        0.09780    0.09580    0.28730    1.000
    C276     C        0.06810    0.20550    0.41150    1.000
    C277     C        0.05190    0.28420    0.46680    1.000
    C278     C        0.01890    0.15900    0.44190    1.000
    C279     C        0.96700    0.09200    0.47730    1.000
    H185     H        0.97530    0.12880    0.50260    1.000
    C280     C        0.93630    0.03440    0.47500    1.000
    H186     H        0.92360    0.03170    0.49920    1.000
    C281     C        0.98610    0.09590    0.44220    1.000
    C282     C        0.97410    0.03670    0.40740    1.000
    H187     H        0.98750    0.03360    0.38370    1.000
    C283     C        0.94200    0.98260    0.40810    1.000
    H188     H        0.93320    0.94380    0.38370    1.000
    C284     C        0.03650    0.46150    0.54800    1.000
    H189     H        0.01800    0.47570    0.56550    1.000
    C285     C        0.03040    0.38500    0.52160    1.000
    H190     H        0.00840    0.34730    0.52140    1.000
    C286     C        0.05690    0.36540    0.49600    1.000
    C287     C        0.08860    0.42050    0.49750    1.000
    H191     H        0.10760    0.40770    0.48030    1.000
    C288     C        0.09240    0.49540    0.52470    1.000
    H192     H        0.11420    0.53420    0.52540    1.000
    N91      N        0.14200    0.16430    0.32030    1.000
    N92      N        0.07580    0.27660    0.43820    1.000
    N93      N        0.02390    0.22510    0.47136    1.000
    N94      N        0.03966    0.14570    0.41090    1.000
    N95      N        0.92300    0.98160    0.44040    1.000
    N96      N        0.06720    0.51540    0.54970    1.000
    Zn36     Zn       0.17390    0.14360    0.27060    1.000
    I78      I        0.12843    0.16900    0.19659    1.000
    I79      I        0.23688    0.23250    0.29705    1.000
    Zn37     Zn       0.37640    0.39640    0.43250    1.000
    I80      I        0.39236    0.25537    0.39331    1.000
    I81      I        0.35472    0.40120    0.50566    1.000
    Zn38     Zn       0.07940    0.62080    0.59456    1.000
    I82      I        0.01987    0.64424    0.62803    1.000
    I83      I        0.12107    0.73150    0.56360    1.000
    Zn39     Zn       0.18040    0.15110    0.28010    1.000
    I84      I        0.14080    0.18600    0.20340    1.000
    I85      I        0.24770    0.21790    0.31080    1.000
    Zn40     Zn       0.37210    0.40210    0.44280    1.000
    I86      I        0.38319    0.25030    0.40872    1.000
    I87      I        0.35183    0.42040    0.51635    1.000
    I88      I        0.11440    0.74030    0.55707    1.000
