data_functionalizedCrystal
_audit_creation_method	'EQeq! by Chris Wilmer'
_symmetry_space_group_name_H-M	'P1'
_symmetry_Int_Tables_number	1
_symmetry_cell_setting	triclinic
loop_
_symmetry_equiv_pos_as_xyz
  x,y,z
_cell_length_a	13.9671
_cell_length_b	26.2457
_cell_length_c	29.8116
_cell_angle_alpha	95.311
_cell_angle_beta	90
_cell_angle_gamma	90
loop_
_atom_site_label
_atom_site_type_symbol
_atom_site_fract_x
_atom_site_fract_y
_atom_site_fract_z
_atom_site_charge
Mof_Ni	Ni	0.37189	0.50099	0.75375	1.074
Mof_Ni	Ni	0.83374	0.76689	0.22335	1.075
Mof_Ni	Ni	0.62811	0.49901	0.24625	1.074
Mof_Ni	Ni	0.12811	0.00099	0.25375	1.074
Mof_Ni	Ni	0.16626	0.23311	0.77665	1.075
Mof_Ni	Ni	0.83443	0.76218	0.49187	1.075
Mof_Ni	Ni	0.11574	0.73372	0.78995	1.072
Mof_Ni	Ni	0.38426	0.23372	0.28995	1.072
Mof_Ni	Ni	0.16557	0.23782	0.50813	1.074
Mof_Ni	Ni	0.33443	0.73782	0.00813	1.074
Mof_Ni	Ni	0.87189	0.99901	0.74625	1.073
Mof_Ni	Ni	0.61574	0.76628	0.71005	1.071
Mof_Ni	Ni	0.66557	0.26218	0.99187	1.074
Mof_Ni	Ni	0.66626	0.26689	0.72335	1.074
Mof_Ni	Ni	0.88426	0.26628	0.21005	1.071
Mof_Ni	Ni	0.33374	0.73311	0.27665	1.074
Mof_H 	H 	0.3659	0.2684	0.4429	0.032
Mof_H 	H 	0.5973	0.4321	0.9476	0.037
Mof_H 	H 	0.1889	0.4874	0.6294	0.246
Mof_H 	H 	0.5074	0.2701	0.8206	0.009
Mof_H 	H 	0.2438	0.5428	0.0492	0.019
Mof_H 	H 	0.6664	0.9544	0.8586	0.236
Mof_H 	H 	0.4664	0.1507	0.4829	0.213
Mof_H 	H 	0.705	0.7111	0.1293	-0.015
Mof_H 	H 	0.9629	0.7165	0.1871	0.1
Mof_H 	H 	0.5739	0.3441	0.429	0.027
Mof_H 	H 	0.1773	0.3271	0.9019	0.093
Mof_H 	H 	0.5226	0.2034	0.0483	0.037
Mof_H 	H 	0.7795	0.6606	0.7424	0.027
Mof_H 	H 	0.6889	0.0126	0.8706	0.246
Mof_H 	H 	0.8036	0.0905	0.6223	0.217
Mof_H 	H 	0.6908	0.6012	0.6361	0.222
Mof_H 	H 	0.7562	0.4572	0.9508	0.019
Mof_H 	H 	0.635	0.9118	0.1905	0.038
Mof_H 	H 	0.3406	0.8379	0.6461	0.241
Mof_H 	H 	0.1826	0.278	0.1998	0.081
Mof_H 	H 	0.4027	0.5679	0.0524	0.037
Mof_H 	H 	0.554	0.6196	0.6031	0.033
Mof_H 	H 	0.0336	0.6507	0.9829	0.211
Mof_H 	H 	0.4188	0.2735	0.0146	0.036
Mof_H 	H 	0.9879	0.2906	0.0162	0.221
Mof_H 	H 	0.8974	0.6728	0.8991	0.23
Mof_H 	H 	0.0973	0.0679	0.5524	0.037
Mof_H 	H 	0.3174	0.778	0.6998	0.081
Mof_H 	H 	0.4853	0.192	0.9558	0.061
Mof_H 	H 	0.0823	0.3538	0.8469	0.01
Mof_H 	H 	0.2559	0.7525	0.4013	-0.008
Mof_H 	H 	0.9525	0.6135	0.7895	0.019
Mof_H 	H 	0.4549	0.3897	0.9384	0.204
Mof_H 	H 	0.2237	0.9006	0.8138	0.228
Mof_H 	H 	0.8909	0.1558	0.5485	0.211
Mof_H 	H 	0.5755	0.6134	0.0113	0.219
Mof_H 	H 	0.9788	0.972	0.1829	0.021
Mof_H 	H 	0.7849	0.5542	0.1133	0.218
Mof_H 	H 	0.5604	0.8942	0.6983	0.024
Mof_H 	H 	0.614	0.7908	0.7914	0.094
Mof_H 	H 	0.9695	0.4068	0.276	0.077
Mof_H 	H 	0.8626	0.6705	0.4791	0.087
Mof_H 	H 	0.1604	0.6278	0.696	0.029
Mof_H 	H 	0.619	0.2613	0.4104	0.039
Mof_H 	H 	0.4245	0.3866	0.9887	0.219
Mof_H 	H 	0.4396	0.1058	0.3017	0.024
Mof_H 	H 	0.9874	0.6473	0.2192	0.031
Mof_H 	H 	0.5121	0.7906	0.5162	0.224
Mof_H 	H 	0.5761	0.1255	0.3653	0.234
Mof_H 	H 	0.361	0.5144	0.2365	0.03
Mof_H 	H 	0.0266	0.494	0.7234	0.032
Mof_H 	H 	0.6084	0.0346	0.6489	0.027
Mof_H 	H 	0.8771	0.3625	0.6354	0.206
Mof_H 	H 	0.9549	0.1103	0.5616	0.204
Mof_H 	H 	0.0074	0.2299	0.6794	0.009
Mof_H 	H 	0.8924	0.7179	0.1122	0.108
Mof_H 	H 	0.6689	0.2063	0.2221	0.029
Mof_H 	H 	0.2004	0.2017	0.2353	0.031
Mof_H 	H 	0.3396	0.1278	0.196	0.029
Mof_H 	H 	0.0451	0.8897	0.4384	0.204
Mof_H 	H 	0.0755	0.8866	0.4887	0.219
Mof_H 	H 	0.6229	0.8625	0.1354	0.206
Mof_H 	H 	0.8227	0.6729	0.0981	0.093
Mof_H 	H 	0.4938	0.4499	0.3555	0.08
Mof_H 	H 	0.4239	0.8745	0.6347	0.234
Mof_H 	H 	0.1076	0.2821	0.8878	0.108
Mof_H 	H 	0.1844	0.3461	0.8257	0.004
Mof_H 	H 	0.9774	0.7034	0.5483	0.037
Mof_H 	H 	0.0212	0.028	0.8171	0.021
Mof_H 	H 	0.6889	0.1359	0.0405	0.026
Mof_H 	H 	0.48	0.4254	0.8336	0.004
Mof_H 	H 	0.7653	0.7993	0.8148	0.035
Mof_H 	H 	0.4879	0.2094	0.4838	0.224
Mof_H 	H 	0.3741	0.0938	0.5294	0.037
Mof_H 	H 	0.0981	0.6881	0.4901	0.071
Mof_H 	H 	0.4019	0.1881	0.9901	0.071
Mof_H 	H 	0.6091	0.6558	0.0485	0.211
Mof_H 	H 	0.4208	0.2826	0.4882	0.032
Mof_H 	H 	0.639	0.4856	0.7635	0.03
Mof_H 	H 	0.9808	0.6489	0.5219	0.03
Mof_H 	H 	0.0924	0.2679	0.6744	0.016
Mof_H 	H 	0.98	0.0746	0.6664	0.004
Mof_H 	H 	0.1335	0.9979	0.1364	0.032
Mof_H 	H 	0.3036	0.4095	0.8777	0.217
Mof_H 	H 	0.3955	0.6886	0.1343	0.285
Mof_H 	H 	0.6026	0.1728	0.3991	0.231
Mof_H 	H 	0.9245	0.1134	0.5113	0.219
Mof_H 	H 	0.8005	0.8433	0.3685	0.294
Mof_H 	H 	0.0121	0.7094	0.9838	0.221
Mof_H 	H 	0.4857	0.1831	0.5289	0.221
Mof_H 	H 	0.3904	0.5228	0.165	0.084
Mof_H 	H 	0.7151	0.0542	0.6133	0.218
Mof_H 	H 	0.3336	0.0456	0.1414	0.236
Mof_H 	H 	0.1229	0.6375	0.3646	0.206
Mof_H 	H 	0.5981	0.8119	0.0099	0.071
Mof_H 	H 	0.5062	0.5501	0.6445	0.08
Mof_H 	H 	0.2562	0.0428	0.5492	0.019
Mof_H 	H 	0.3974	0.8272	0.6009	0.231
Mof_H 	H 	0.4682	0.1863	0.7855	0.097
Mof_H 	H 	0.1045	0.1886	0.6343	0.285
Mof_H 	H 	0.6844	0.1539	0.6743	0.004
Mof_H 	H 	0.2441	0.2525	0.9013	-0.008
Mof_H 	H 	0.0475	0.3865	0.2105	0.019
Mof_H 	H 	0.1374	0.3295	0.5209	0.087
Mof_H 	H 	0.8156	0.6539	0.1743	0.004
Mof_H 	H 	0.8111	0.6359	0.5405	0.025
Mof_H 	H 	0.9694	0.9248	0.8093	0.08
Mof_H 	H 	0.8659	0.2316	0.0571	0.033
Mof_H 	H 	0.7559	0.7475	0.0987	-0.008
Mof_H 	H 	0.8907	0.6559	0.2459	0.029
Mof_H 	H 	0.5143	0.8169	0.4711	0.221
Mof_H 	H 	0.3371	0.5558	0.6426	0.023
Mof_H 	H 	0.7871	0.6273	0.6526	0.231
Mof_H 	H 	0.054	0.8804	0.8969	0.032
Mof_H 	H 	0.3999	0.4856	0.3088	0.022
Mof_H 	H 	0.3227	0.8271	0.4019	0.093
Mof_H 	H 	0.7205	0.1606	0.2424	0.027
Mof_H 	H 	0.8406	0.6621	0.8539	0.24
Mof_H 	H 	0.8916	0.5346	0.1489	0.028
Mof_H 	H 	0.3983	0.2663	0.9627	0.016
Mof_H 	H 	0.7438	0.9572	0.4508	0.019
Mof_H 	H 	0.0604	0.6058	0.8017	0.024
Mof_H 	H 	0.8111	0.5126	0.3706	0.246
Mof_H 	H 	0.1964	0.9095	0.3777	0.217
Mof_H 	H 	0.1995	0.1567	0.6315	0.294
Mof_H 	H 	0.5451	0.6103	0.0616	0.204
Mof_H 	H 	0.6076	0.2179	0.6122	0.107
Mof_H 	H 	0.1084	0.4654	0.8511	0.028
Mof_H 	H 	0.6001	0.5144	0.6912	0.022
Mof_H 	H 	0.2151	0.4458	0.8867	0.218
Mof_H 	H 	0.4992	0.8497	0.7752	0.077
Mof_H 	H 	0.135	0.5882	0.3095	0.037
Mof_H 	H 	0.0761	0.3745	0.1347	0.233
Mof_H 	H 	0.9682	0.3137	0.7145	0.096
Mof_H 	H 	0.2066	0.7838	0.703	0.081
Mof_H 	H 	0.8983	0.2337	0.5373	0.016
Mof_H 	H 	0.8092	0.1012	0.1361	0.223
Mof_H 	H 	0.1001	0.9856	0.8088	0.02
Mof_H 	H 	0.4597	0.2275	0.7516	0.089
Mof_H 	H 	0.2347	0.2007	0.1852	0.035
Mof_H 	H 	0.4874	0.8527	0.2808	0.031
Mof_H 	H 	0.861	0.9856	0.2635	0.029
Mof_H 	H 	0.8311	0.7063	0.7221	0.029
Mof_H 	H 	0.7996	0.1622	0.9861	0.083
Mof_H 	H 	0.6341	0.7316	0.5571	0.032
Mof_H 	H 	0.6604	0.8722	0.804	0.029
Mof_H 	H 	0.8945	0.3057	0.6159	0.205
Mof_H 	H 	0.2996	0.7017	0.7353	0.031
Mof_H 	H 	0.4808	0.8511	0.9781	0.03
Mof_H 	H 	0.3468	0.0521	0.7343	0.023
Mof_H 	H 	0.2205	0.3394	0.2576	0.027
Mof_H 	H 	0.5924	0.2321	0.8256	0.016
Mof_H 	H 	0.5266	0.006	0.7766	0.031
Mof_H 	H 	0.0371	0.2835	0.8129	0.1
Mof_H 	H 	0.0318	0.6863	0.2855	0.096
Mof_H 	H 	0.365	0.0882	0.8095	0.038
Mof_H 	H 	0.1954	0.6645	0.3993	0.207
Mof_H 	H 	0.5305	0.9068	0.776	0.077
Mof_H 	H 	0.6055	0.8057	0.1159	0.205
Mof_H 	H 	0.4943	0.0248	0.7029	0.029
Mof_H 	H 	0.5192	0.1489	0.0219	0.03
Mof_H 	H 	0.7996	0.7983	0.7647	0.031
Mof_H 	H 	0.3907	0.8441	0.2541	0.029
Mof_H 	H 	0.1615	0.8536	0.9682	0.083
Mof_H 	H 	0.9261	0.8441	0.929	0.028
Mof_H 	H 	0.6096	0.4772	0.835	0.084
Mof_H 	H 	0.1259	0.5938	0.0294	0.038
Mof_H 	H 	0.6259	0.9062	0.4706	0.037
Mof_H 	H 	0.4677	0.4717	0.8703	0.011
Mof_H 	H 	0.5966	0.9962	0.8431	0.236
Mof_H 	H 	0.1017	0.7663	0.4627	0.016
Mof_H 	H 	0.8974	0.8694	0.3572	0.28
Mof_H 	H 	0.1594	0.3379	0.1461	0.24
Mof_H 	H 	0.0792	0.7826	0.9882	0.033
Mof_H 	H 	0.9992	0.6503	0.7248	0.075
Mof_H 	H 	0.6995	0.3433	0.8685	0.294
Mof_H 	H 	0.3156	0.8461	0.3257	0.004
Mof_H 	H 	0.2934	0.2838	0.203	0.081
Mof_H 	H 	0.8904	0.9772	0.335	0.084
Mof_H 	H 	0.8396	0.3722	0.304	0.029
Mof_H 	H 	0.0812	0.7735	0.5146	0.036
Mof_H 	H 	0.0062	0.9499	0.8555	0.084
Mof_H 	H 	0.1629	0.0558	0.1426	0.022
Mof_H 	H 	0.0739	0.1559	0.071	0.028
Mof_H 	H 	0.7019	0.1911	0.0643	0.027
Mof_H 	H 	0.7441	0.2475	0.5987	-0.008
Mof_H 	H 	0.5812	0.7265	0.9854	0.036
Mof_H 	H 	0.3665	0.4979	0.6364	0.033
Mof_H 	H 	0.3005	0.6567	0.1315	0.294
Mof_H 	H 	0.5823	0.1462	0.6531	0.01
Mof_H 	H 	0.9027	0.9321	0.4476	0.037
Mof_H 	H 	0.4926	0.7299	0.1794	0.009
Mof_H 	H 	0.0323	0.9717	0.3703	0.011
Mof_H 	H 	0.8955	0.8114	0.3657	0.285
Mof_H 	H 	0.9926	0.7701	0.3206	0.009
Mof_H 	H 	0.3311	0.7937	0.7779	0.029
Mof_H 	H 	0.5265	0.5432	0.7536	0.096
Mof_H 	H 	0.1889	0.3641	0.4595	0.025
Mof_H 	H 	0.3092	0.3988	0.3639	0.222
Mof_H 	H 	0.7347	0.2993	0.3148	0.035
Mof_H 	H 	0.81	0.3718	0.2532	0.029
Mof_H 	H 	0.795	0.2111	0.6293	-0.015
Mof_H 	H 	0.3771	0.1375	0.8646	0.206
Mof_H 	H 	0.69	0.8718	0.7532	0.029
Mof_H 	H 	0.2129	0.3727	0.3474	0.231
Mof_H 	H 	0.6954	0.8355	0.1007	0.207
Mof_H 	H 	0.6826	0.222	0.3002	0.081
Mof_H 	H 	0.1908	0.8988	0.8639	0.223
Mof_H 	H 	0.0192	0.3511	0.4781	0.03
Mof_H 	H 	0.946	0.1196	0.1031	0.032
Mof_H 	H 	0.7626	0.4166	0.8202	0.04
Mof_H 	H 	0.8741	0.4062	0.9706	0.038
Mof_H 	H 	0.0305	0.5932	0.724	0.077
Mof_H 	H 	0.1093	0.3441	0.7541	0.029
Mof_H 	H 	0.0147	0.692	0.4558	0.061
Mof_H 	H 	0.6629	0.4442	0.3574	0.023
Mof_H 	H 	0.7129	0.1273	0.1526	0.232
Mof_H 	H 	0.1026	0.1306	0.6428	0.28
Mof_H 	H 	0.2996	0.3378	0.5139	0.085
Mof_H 	H 	0.9019	0.3119	0.5099	0.071
Mof_H 	H 	0.2981	0.8089	0.9357	0.027
Mof_H 	H 	0.7004	0.2983	0.2647	0.031
Mof_H 	H 	0.7763	0.0994	0.1862	0.228
Mof_H 	H 	0.3974	0.6306	0.1428	0.28
Mof_H 	H 	0.8336	0.4544	0.3586	0.236
Mof_H 	H 	0.9239	0.6255	0.8653	0.233
Mof_H 	H 	0.6374	0.1705	0.9791	0.086
Mof_H 	H 	0.1096	0.0228	0.665	0.084
Mof_H 	H 	0.9735	0.0432	0.2536	0.097
Mof_H 	H 	0.1026	0.3272	0.1009	0.23
Mof_H 	H 	0.139	0.0144	0.7365	0.029
Mof_H 	H 	0.3111	0.8641	0.9595	0.026
Mof_H 	H 	0.4774	0.7966	0.9517	0.037
Mof_H 	H 	0.5126	0.1473	0.7192	0.031
Mof_H 	H 	0.2795	0.8394	0.7576	0.027
Mof_H 	H 	0.2374	0.5834	0.1798	0.04
Mof_H 	H 	0.2871	0.8727	0.8474	0.232
Mof_H 	H 	0.6045	0.3114	0.8657	0.285
Mof_H 	H 	0.9188	0.2265	0.4854	0.036
Mof_H 	H 	0.9857	0.3169	0.9711	0.217
Mof_H 	H 	0.8172	0.0359	0.597	0.221
Mof_H 	H 	0.3945	0.1943	0.8841	0.205
Mof_H 	H 	0.6335	0.5021	0.3636	0.033
Mof_H 	H 	0.5318	0.8137	0.2145	0.097
Mof_H 	H 	0.1091	0.8442	0.4515	0.211
Mof_H 	H 	0.9597	0.2725	0.7484	0.087
Mof_H 	H 	0.0602	0.0571	0.7408	0.023
Mof_H 	H 	0.1664	0.5456	0.6414	0.236
Mof_H 	H 	0.9208	0.2174	0.0118	0.033
Mof_H 	H 	0.5602	0.4429	0.7592	0.023
Mof_H 	H 	0.8665	0.0021	0.8636	0.032
Mof_H 	H 	0.4694	0.5752	0.6907	0.078
Mof_H 	H 	0.6615	0.6464	0.5318	0.084
Mof_H 	H 	0.3924	0.7821	0.3878	0.107
Mof_H 	H 	0.3111	0.9874	0.1294	0.246
Mof_H 	H 	0.9398	0.9429	0.2592	0.023
Mof_H 	H 	0.7374	0.9166	0.3202	0.04
Mof_H 	H 	0.2653	0.7007	0.6852	0.035
Mof_H 	H 	0.0265	0.9568	0.7464	0.097
Mof_H 	H 	0.4788	0.528	0.3171	0.023
Mof_H 	H 	0.2626	0.0834	0.6798	0.04
Mof_H 	H 	0.6964	0.5905	0.1223	0.217
Mof_H 	H 	0.52	0.5746	0.1664	0.004
Mof_H 	H 	0.0453	0.9759	0.6732	0.094
Mof_H 	H 	0.2763	0.4006	0.3138	0.228
Mof_H 	H 	0.5147	0.808	0.0442	0.061
Mof_H 	H 	0.4734	0.994	0.2234	0.031
Mof_H 	H 	0.5475	0.1135	0.2895	0.02
Mof_H 	H 	0.7237	0.5994	0.6862	0.228
Mof_H 	H 	0.865	0.4118	0.6905	0.037
Mof_H 	H 	0.1828	0.9641	0.403	0.221
Mof_H 	H 	0.3916	0.9654	0.3511	0.027
Mof_H 	H 	0.381	0.7387	0.5896	0.039
Mof_H 	H 	0.6026	0.3694	0.8572	0.28
Mof_H 	H 	0.6828	0.5359	0.097	0.221
Mof_H 	H 	0.02	0.9254	0.3336	0.004
Mof_H 	H 	0.4398	0.5571	0.2408	0.023
Mof_H 	H 	0.2019	0.3089	0.4357	0.026
Mof_H 	H 	0.205	0.7889	0.3707	-0.015
Mof_H 	H 	0.5008	0.1503	0.2248	0.077
Mof_H 	H 	0.19	0.6282	0.7468	0.029
Mof_H 	H 	0.3046	0.1645	0.8993	0.207
Mof_H 	H 	0.5403	0.7725	0.2484	0.089
Mof_H 	H 	0.3172	0.4641	0.903	0.221
Mof_H 	H 	0.6093	0.1559	0.7459	0.029
Mof_H 	H 	0.6594	0.1621	0.3539	0.241
Mof_H 	H 	0.8468	0.4479	0.7657	0.022
Mof_H 	H 	0.0403	0.7275	0.2516	0.087
Mof_H 	H 	0.114	0.7092	0.7086	0.094
Mof_H 	H 	0.9853	0.308	0.5442	0.061
Mof_H 	H 	0.119	0.2387	0.0896	0.038
Mof_H 	H 	0.4547	0.4759	0.1732	0.093
Mof_H 	H 	0.5306	0.4248	0.3093	0.078
Mof_H 	H 	0.0226	0.2966	0.4517	0.037
Mof_H 	H 	0.881	0.7613	0.9104	0.038
Mof_H 	H 	0.4735	0.4568	0.2464	0.096
Mof_H 	H 	0.4034	0.0038	0.1569	0.236
Mof_H 	H 	0.7934	0.2162	0.297	0.081
Mof_H 	H 	0.0008	0.3497	0.2752	0.075
Mof_H 	H 	0.0966	0.5038	0.6569	0.235
Mof_H 	H 	0.5323	0.5283	0.1297	0.011
Mof_H 	H 	0.9177	0.6462	0.1531	0.01
Mof_H 	H 	0.31	0.1282	0.2468	0.029
Mof_H 	H 	0.9034	0.4962	0.3431	0.235
Mof_H 	H 	0.0306	0.0752	0.1907	0.08
Mof_H 	H 	0.8999	0.0144	0.1912	0.02
Mof_H 	H 	0.7981	0.6911	0.5643	0.026
Mof_H 	H 	0.9734	0.506	0.2766	0.032
Mof_H 	H 	0.5336	0.8493	0.5171	0.213
Mof_H 	H 	0.5057	0.9752	0.2971	0.029
Mof_H 	H 	0.386	0.2092	0.2086	0.094
Mof_H 	H 	0.295	0.2889	0.8707	-0.015
Mof_H 	H 	0.1532	0.5521	0.2343	0.022
Mof_H 	H 	0.8371	0.9442	0.8574	0.022
Mof_H 	H 	0.8046	0.3355	0.6007	0.207
Mof_H 	H 	0.7066	0.7162	0.797	0.081
Mof_H 	H 	0.8385	0.1464	0.0318	0.083
Mof_H 	H 	0.9076	0.7321	0.3256	0.016
Mof_H 	H 	0.0126	0.3527	0.7808	0.031
Mof_H 	H 	0.5371	0.2165	0.6871	0.1
Mof_H 	H 	0.446	0.3804	0.3969	0.033
Mof_H 	H 	0.1055	0.6943	0.3841	0.205
Mof_H 	H 	0.5792	0.7174	0.5118	0.032
Mof_H 	H 	0.2004	0.8378	0.0139	0.083
Mof_H 	H 	0.4261	0.6559	0.571	0.027
Mof_H 	H 	0.886	0.2908	0.2914	0.094
Mof_H 	H 	0.0143	0.6831	0.0289	0.217
Mof_H 	H 	0.4525	0.8865	0.7105	0.02
Mof_H 	H 	0.2849	0.9458	0.3867	0.218
Mof_H 	H 	0.3385	0.3536	0.4682	0.084
Mof_H 	H 	0.8174	0.722	0.8002	0.081
Mof_H 	H 	0.0057	0.5248	0.2029	0.027
Mof_H 	H 	0.3626	0.8295	0.0209	0.086
Mof_H 	H 	0.9938	0.0501	0.1445	0.084
Mof_H 	H 	0.9664	0.3493	0.0171	0.211
Mof_H 	H 	0.6532	0.9479	0.2657	0.023
Mof_H 	H 	0.5453	0.5241	0.8268	0.093
Mof_H 	H 	0.1341	0.7684	0.9429	0.033
Mof_H 	H 	0.4695	0.0932	0.224	0.077
Mof_H 	H 	0.7004	0.6622	0.4861	0.085
Mof_H 	H 	0.6773	0.1729	0.5981	0.093
Mof_H 	H 	0.9677	0.0283	0.6297	0.011
Mof_H 	H 	0.4629	0.7835	0.3129	0.1
Mof_H 	H 	0.4076	0.7679	0.1744	0.016
Mof_H 	H 	0.5212	0.472	0.6829	0.023
Mof_H 	H 	0.4177	0.8538	0.3469	0.01
Mof_H 	H 	0.9943	0.4752	0.7971	0.027
Mof_H 	H 	0.1689	0.2937	0.2779	0.029
Mof_H 	H 	0.9396	0.3942	0.1983	0.024
Mof_H 	H 	0.9547	0.0241	0.3268	0.094
Mof_H 	H 	0.3909	0.3442	0.9515	0.211
Mof_H 	H 	0.6017	0.7337	0.0373	0.016
Mof_W 	W 	0.96077	0.82152	0.65714	0.516
Mof_W 	W 	0.1576	0.82184	0.15198	0.519
Mof_W 	W 	0.6576	0.67816	0.34802	0.519
Mof_W 	W 	0.53923	0.32152	0.15714	0.517
Mof_W 	W 	0.3424	0.32184	0.65198	0.519
Mof_W 	W 	0.03923	0.17848	0.34286	0.516
Mof_W 	W 	0.8424	0.17816	0.84802	0.519
Mof_W 	W 	0.46077	0.67848	0.84286	0.517
Mof_C 	C 	0.1624	0.5121	0.6518	-0.726
Mof_C 	C 	0.1476	0.6948	0.0042	0.187
Mof_C 	C 	0.2164	0.5111	0.6939	0.212
Mof_C 	C 	0.7729	0.6963	0.7367	-0.002
Mof_C 	C 	0.973	0.8838	0.6161	-0.05
Mof_C 	C 	0.2858	0.1891	0.8338	0.191
Mof_C 	C 	0.0442	0.2613	0.3515	-0.048
Mof_C 	C 	0.1702	0.8312	0.8261	0.195
Mof_C 	C 	0.488	0.7534	0.6363	-0.029
Mof_C 	C 	0.2853	0.9771	0.3089	-0.025
Mof_C 	C 	0.3368	0.3835	0.6094	-0.049
Mof_C 	C 	0.2053	0.7937	0.214	-0.034
Mof_C 	C 	0.4279	0.5215	0.2309	-0.007
Mof_C 	C 	0.0113	0.2075	0.2782	-0.038
Mof_C 	C 	0.1739	0.4978	0.7362	-0.024
Mof_C 	C 	0.3261	0.9978	0.2362	-0.025
Mof_C 	C 	0.0878	0.8157	0.8544	-0.016
Mof_C 	C 	0.4472	0.5125	0.1806	-0.222
Mof_C 	C 	0.162	0.301	0.8778	-0.289
Mof_C 	C 	0.0721	0.0215	0.7309	-0.006
Mof_C 	C 	0.2405	0.0755	0.542	-0.012
Mof_C 	C 	0.3162	0.0832	0.7418	-0.004
Mof_C 	C 	0.375	0.9725	0.3222	-0.05
Mof_C 	C 	0.0746	0.491	0.7446	-0.052
Mof_C 	C 	0.2135	0.6518	0.2931	-0.009
Mof_C 	C 	0.942	0.5209	0.211	-0.021
Mof_C 	C 	0.5282	0.1925	0.345	0.212
Mof_C 	C 	0.8314	0.3962	0.7125	-0.074
Mof_C 	C 	0.8466	0.3307	0.6255	-0.624
Mof_C 	C 	0.8608	0.8384	0.3533	-0.876
Mof_C 	C 	0.533	0.5068	0.6958	-0.011
Mof_C 	C 	0.8702	0.6717	0.1631	0.043
Mof_C 	C 	0.8449	0.8253	0.3074	0.271
Mof_C 	C 	0.0545	0.7608	0.4857	-0.014
Mof_C 	C 	0.0367	0.7043	0.4857	-0.183
Mof_C 	C 	0.8261	0.5022	0.2638	-0.024
Mof_C 	C 	0.2992	0.4663	0.8352	0.208
Mof_C 	C 	0.1838	0.5832	0.2418	-0.004
Mof_C 	C 	0.7053	0.7063	0.286	-0.034
Mof_C 	C 	0.6739	0.0022	0.7638	-0.025
Mof_C 	C 	0.9718	0.6925	0.845	0.211
Mof_C 	C 	0.7615	0.7322	0.127	0.095
Mof_C 	C 	0.0528	0.0125	0.6806	-0.224
Mof_C 	C 	0.9795	0.185	0.8172	-0.032
Mof_C 	C 	0.4122	0.3157	0.3544	-0.014
Mof_C 	C 	0.7405	0.4245	0.958	-0.011
Mof_C 	C 	0.9022	0.6604	0.8679	-0.719
Mof_C 	C 	0.6551	0.3253	0.8074	0.271
Mof_C 	C 	0.9574	0.3727	0.2617	-0.194
Mof_C 	C 	0.6632	0.6165	0.3906	-0.049
Mof_C 	C 	0.5442	0.2387	0.1485	-0.048
Mof_C 	C 	0.9722	0.9568	0.8283	-0.218
Mof_C 	C 	0.2142	0.6891	0.3338	0.191
Mof_C 	C 	0.9334	0.7753	0.8967	-0.059
Mof_C 	C 	0.0278	0.0432	0.1717	-0.218
Mof_C 	C 	0.3376	0.0121	0.1518	-0.726
Mof_C 	C 	0.9945	0.7084	0.2679	-0.224
Mof_C 	C 	0.7531	0.7133	0.3985	-0.031
Mof_C 	C 	0.467	0.4932	0.3042	-0.011
Mof_C 	C 	0.6298	0.1717	0.6631	0.043
Mof_C 	C 	0.527	0.3838	0.1161	-0.05
Mof_C 	C 	0.7979	0.6442	0.3356	-0.047
Mof_C 	C 	0.5806	0.6345	0.8123	-0.052
Mof_C 	C 	0.1551	0.1747	0.6926	0.271
Mof_C 	C 	0.3987	0.6139	0.8023	-0.027
Mof_C 	C 	0.7836	0.4889	0.3061	0.212
Mof_C 	C 	0.7992	0.0337	0.6648	0.209
Mof_C 	C 	0.9635	0.1533	0.1117	-0.059
Mof_C 	C 	0.512	0.2466	0.3637	-0.029
Mof_C 	C 	0.9472	0.9875	0.3194	-0.224
Mof_C 	C 	0.8657	0.9718	0.8425	0.001
Mof_C 	C 	0.9422	0.133	0.5388	-0.657
Mof_C 	C 	0.7164	0.9889	0.8061	0.212
Mof_C 	C 	0.4675	0.8153	0.981	-0.029
Mof_C 	C 	0.8547	0.3578	0.2737	-0.026
Mof_C 	C 	0.9435	0.6731	0.2324	0.002
Mof_C 	C 	0.8019	0.1723	0.0182	-0.2
Mof_C 	C 	0.0426	0.6273	0.7383	-0.194
Mof_C 	C 	0.9576	0.3165	0.0005	-0.661
Mof_C 	C 	0.2521	0.7151	0.7157	-0.023
Mof_C 	C 	0.3669	0.2397	0.6469	-0.053
Mof_C 	C 	0.7379	0.229	0.2821	-0.2
Mof_C 	C 	0.1326	0.8892	0.1979	-0.021
Mof_C 	C 	0.8577	0.2224	0.0251	-0.008
Mof_C 	C 	0.7479	0.2849	0.2843	-0.023
Mof_C 	C 	0.9194	0.1345	0.3123	-0.051
Mof_C 	C 	0.5388	0.3245	0.4073	-0.015
Mof_C 	C 	0.0205	0.815	0.1828	-0.032
Mof_C 	C 	0.5424	0.8165	0.5005	-0.672
Mof_C 	C 	0.033	0.9932	0.8042	-0.004
Mof_C 	C 	0.5565	0.2501	0.8041	0.021
Mof_C 	C 	0.7201	0.3505	0.7761	-0.036
Mof_C 	C 	0.6013	0.3861	0.1977	-0.027
Mof_C 	C 	0.2615	0.7678	0.373	0.094
Mof_C 	C 	0.5205	0.685	0.3172	-0.031
Mof_C 	C 	0.2008	0.9663	0.3352	0.209
Mof_C 	C 	0.1686	0.6038	0.2875	-0.074
Mof_C 	C 	0.1423	0.7776	0.9749	-0.008
Mof_C 	C 	0.473	0.6162	0.8839	-0.05
Mof_C 	C 	0.8368	0.1165	0.8906	-0.049
Mof_C 	C 	0.2885	0.1548	0.5198	-0.012
Mof_C 	C 	0.6423	0.7224	0.5251	-0.006
Mof_C 	C 	0.7045	0.1709	0.0354	-0.018
Mof_C 	C 	0.2947	0.2937	0.714	-0.034
Mof_C 	C 	0.3736	0.6385	0.0328	-0.019
Mof_C 	C 	0.2045	0.3291	0.4646	-0.016
Mof_C 	C 	0.125	0.4725	0.8222	-0.052
Mof_C 	C 	0.0578	0.867	0.4612	-0.657
Mof_C 	C 	0.1013	0.1139	0.3023	-0.027
Mof_C 	C 	0.1889	0.6054	0.0304	-0.069
Mof_C 	C 	0.7823	0.0556	0.6203	-0.68
Mof_C 	C 	0.2227	0.8802	0.839	-0.69
Mof_C 	C 	0.2328	0.6	0.2087	-0.063
Mof_C 	C 	0.6702	0.6688	0.6739	0.194
Mof_C 	C 	0.5296	0.5379	0.1619	0.025
Mof_C 	C 	0.2729	0.8037	0.7633	-0.002
Mof_C 	C 	0.3466	0.1693	0.8745	-0.624
Mof_C 	C 	0.5557	0.6923	0.4024	-0.043
Mof_C 	C 	0.9279	0.9785	0.2691	-0.006
Mof_C 	C 	0.4795	0.315	0.6828	-0.031
Mof_C 	C 	0.5312	0.3361	0.969	0.184
Mof_C 	C 	0.4443	0.3077	0.5976	-0.043
Mof_C 	C 	0.5721	0.4785	0.7691	-0.007
Mof_C 	C 	0.5278	0.4568	0.3283	-0.209
Mof_C 	C 	0.6343	0.4718	0.3425	-0.003
Mof_C 	C 	0.7115	0.8452	0.4802	-0.012
Mof_C 	C 	0.1861	0.195	0.3297	-0.034
Mof_C 	C 	0.2021	0.3558	0.6644	-0.047
Mof_C 	C 	0.4022	0.8396	0.6321	-0.72
Mof_C 	C 	0.7858	0.3109	0.6662	0.191
Mof_C 	C 	0.0565	0.2499	0.6959	0.019
Mof_C 	C 	0.3019	0.3277	0.4818	-0.204
Mof_C 	C 	0.1037	0.1989	0.4077	-0.014
Mof_C 	C 	0.0557	0.8077	0.0976	-0.044
Mof_C 	C 	0.5365	0.6533	0.6117	-0.064
Mof_C 	C 	0.7672	0.4	0.7913	-0.063
Mof_C 	C 	0.967	0.0068	0.1958	-0.004
Mof_C 	C 	0.0312	0.1639	0.531	0.184
Mof_C 	C 	0.0871	0.7962	0.6197	-0.048
Mof_C 	C 	0.7799	0.8505	0.2761	-0.036
Mof_C 	C 	0.3298	0.3312	0.3261	0.194
Mof_C 	C 	0.1331	0.7397	0.1469	-0.053
Mof_C 	C 	0.7147	0.0229	0.6911	-0.025
Mof_C 	C 	0.3963	0.6989	0.9077	-0.014
Mof_C 	C 	0.4435	0.7499	0.1959	0.021
Mof_C 	C 	0.7021	0.1442	0.8356	-0.047
Mof_C 	C 	0.9254	0.509	0.2554	-0.052
Mof_C 	C 	0.8524	0.3052	0.9958	0.187
Mof_C 	C 	0.1981	0.8277	0.9818	-0.2
Mof_C 	C 	0.5163	0.8724	0.7129	0
Mof_C 	C 	0.8111	0.3946	0.9696	-0.069
Mof_C 	C 	0.3314	0.1038	0.7875	-0.074
Mof_C 	C 	0.988	0.7466	0.8637	-0.031
Mof_C 	C 	0.2836	0.0111	0.1939	0.212
Mof_C 	C 	0.7621	0.729	0.7821	-0.2
Mof_C 	C 	0.442	0.9791	0.289	-0.024
Mof_C 	C 	0.6331	0.7603	0.3531	-0.053
Mof_C 	C 	0.1298	0.3283	0.8369	0.043
Mof_C 	C 	0.2595	0.5755	0.042	-0.011
Mof_C 	C 	0.1632	0.8835	0.1094	-0.049
Mof_C 	C 	0.6889	0.8946	0.4696	-0.067
Mof_C 	C 	0.6686	0.8962	0.2125	-0.074
Mof_C 	C 	0.8736	0.8615	0.4672	-0.019
Mof_C 	C 	0.5978	0.1604	0.3679	-0.72
Mof_C 	C 	0.1534	0.6693	0.3745	-0.624
Mof_C 	C 	0.0978	0.3396	0.1321	-0.719
Mof_C 	C 	0.5545	0.7392	0.0143	-0.014
Mof_C 	C 	0.8669	0.2603	0.8531	-0.053
Mof_C 	C 	0.3449	0.6747	0.1926	0.271
Mof_C 	C 	0.7177	0.5556	0.1203	-0.68
Mof_C 	C 	0.3702	0.8283	0.3369	0.043
Mof_C 	C 	0.4633	0.2043	0.9857	-0.184
Mof_C 	C 	0.1453	0.0897	0.544	-0.072
Mof_C 	C 	0.1453	0.6422	0.7263	-0.026
Mof_C 	C 	0.0282	0.3075	0.155	0.211
Mof_C 	C 	0.2773	0.3802	0.339	-0.689
Mof_C 	C 	0.2955	0.8291	0.9646	-0.018
Mof_C 	C 	0.058	0.4791	0.789	-0.021
Mof_C 	C 	0.5426	0.8727	0.7617	-0.196
Mof_C 	C 	0.4254	0.991	0.2446	-0.051
Mof_C 	C 	0.6037	0.3011	0.0923	-0.014
Mof_C 	C 	0.7008	0.5337	0.1648	0.208
Mof_C 	C 	0.9558	0.7387	0.6485	-0.048
Mof_C 	C 	0.6264	0.3615	0.9672	-0.019
Mof_C 	C 	0.2385	0.2678	0.873	0.095
Mof_C 	C 	0.5578	0.633	0.0388	-0.658
Mof_C 	C 	0.3111	0.1054	0.5304	-0.067
Mof_C 	C 	0.4837	0.1276	0.2871	0
Mof_C 	C 	0.4704	0.4621	0.8381	0.025
Mof_C 	C 	0.9837	0.3724	0.2129	0.002
Mof_C 	C 	0.0388	0.1755	0.0927	-0.021
Mof_C 	C 	0.0666	0.2247	0.1033	-0.059
Mof_C 	C 	0.2823	0.4444	0.8797	-0.68
Mof_C 	C 	0.7773	0.1198	0.161	-0.69
Mof_C 	C 	0.6392	0.3384	0.8533	-0.876
Mof_C 	C 	0.2201	0.1495	0.7239	-0.036
Mof_C 	C 	0.9887	0.7925	0.7218	-0.038
Mof_C 	C 	0.2479	0.2151	0.2157	-0.023
Mof_C 	C 	0.8162	0.4168	0.7582	-0.004
Mof_C 	C 	0.1343	0.0282	0.1575	0.001
Mof_C 	C 	0.0296	0.9621	0.3381	0.026
Mof_C 	C 	0.838	0.699	0.1222	-0.289
Mof_C 	C 	0.625	0.0275	0.6778	-0.05
Mof_C 	C 	0.8987	0.8861	0.6977	-0.027
Mof_C 	C 	0.2177	0.9444	0.3797	-0.68
Mof_C 	C 	0.2271	0.3037	0.2633	-0.002
Mof_C 	C 	0.3547	0.1422	0.2263	-0.026
Mof_C 	C 	0.1392	0.1616	0.6467	-0.876
Mof_C 	C 	0.8139	0.805	0.6703	-0.034
Mof_C 	C 	0.6624	0.9879	0.8482	-0.726
Mof_C 	C 	0.662	0.199	0.6222	-0.288
Mof_C 	C 	0.1264	0.1385	0.5328	-0.019
Mof_C 	C 	0.0365	0.8467	0.8883	-0.059
Mof_C 	C 	0.5055	0.2084	0.7679	-0.227
Mof_C 	C 	0.7595	0.9245	0.458	-0.012
Mof_C 	C 	0.7469	0.2133	0.8985	-0.031
Mof_C 	C 	0.4455	0.2608	0.9857	-0.014
Mof_C 	C 	0.9612	0.8245	0.9073	-0.021
Mof_C 	C 	0.3524	0.1948	0.5042	0.191
Mof_C 	C 	0.3657	0.5282	0.6575	-0.003
Mof_C 	C 	0.4635	0.3467	0.3883	-0.064
Mof_C 	C 	0.2469	0.2867	0.6015	-0.031
Mof_C 	C 	0.5565	0.1731	0.7324	0.003
Mof_C 	C 	0.027	0.1162	0.3839	-0.05
Mof_C 	C 	0.2979	0.8558	0.1644	-0.047
Mof_C 	C 	0.7853	0.5229	0.1911	-0.024
Mof_C 	C 	0.7227	0.6198	0.661	-0.689
Mof_C 	C 	0.3547	0.5897	0.044	-0.073
Mof_C 	C 	0.4945	0.7916	0.2321	-0.227
Mof_C 	C 	0.7885	0.3452	0.9802	-0.01
Mof_C 	C 	0.012	0.2534	0.1363	-0.031
Mof_C 	C 	0.4334	0.7247	0.6033	-0.062
Mof_C 	C 	0.3577	0.2776	0.4749	-0.006
Mof_C 	C 	0.3608	0.6616	0.1467	-0.876
Mof_C 	C 	0.5325	0.1847	0.019	-0.029
Mof_C 	C 	0.9633	0.2957	0.5143	-0.183
Mof_C 	C 	0.5871	0.7038	0.8803	-0.049
Mof_C 	C 	0.7865	0.3482	0.7069	-0.009
Mof_C 	C 	0.4887	0.7075	0.7782	-0.036
Mof_C 	C 	0.4718	0.8075	0.655	0.212
Mof_C 	C 	0.5666	0.2753	0.3967	-0.062
Mof_C 	C 	0.6838	0.9168	0.2582	-0.004
Mof_C 	C 	0.5746	0.009	0.7554	-0.051
Mof_C 	C 	0.3139	0.695	0.8297	-0.034
Mof_C 	C 	0.9129	0.2038	0.3803	-0.048
Mof_C 	C 	0.2672	0.1	0.7087	-0.063
Mof_C 	C 	0.8547	0.9103	0.456	-0.072
Mof_C 	C 	0.7142	0.8109	0.1662	0.191
Mof_C 	C 	0.0565	0.3269	0.7676	0.002
Mof_C 	C 	0.4612	0.6755	0.5927	-0.015
Mof_C 	C 	0.2147	0.4771	0.8089	-0.024
Mof_C 	C 	0.0424	0.6835	0.9995	-0.661
Mof_C 	C 	0.4688	0.6639	0.031	0.184
Mof_C 	C 	0.6476	0.8052	0.4958	0.191
Mof_C 	C 	0.9455	0.2392	0.5143	-0.014
Mof_C 	C 	0.7955	0.6709	0.5354	-0.016
Mof_C 	C 	0.7521	0.7849	0.7843	-0.023
Mof_C 	C 	0.2621	0.771	0.7179	-0.2
Mof_C 	C 	0.0325	0.3153	0.481	-0.029
Mof_C 	C 	0.7328	0.9	0.2913	-0.063
Mof_C 	C 	0.9675	0.6847	0.519	-0.029
Mof_C 	C 	0.4576	0.1835	0.4995	-0.672
Mof_C 	C 	0.4574	0.1273	0.2383	-0.196
Mof_C 	C 	0.6981	0.6723	0.5182	-0.204
Mof_C 	C 	0.5367	0.7957	0.0143	-0.184
Mof_C 	C 	0.2799	0.6495	0.2239	-0.036
Mof_C 	C 	0.4194	0.3655	0.1877	-0.052
Mof_C 	C 	0.7947	0.2063	0.786	-0.034
Mof_C 	C 	0.4558	0.7613	0.8515	-0.048
Mof_C 	C 	0.4722	0.5432	0.6717	-0.209
Mof_C 	C 	0.0806	0.8655	0.6877	-0.051
Mof_C 	C 	0.3674	0.3892	0.6979	-0.021
Mof_C 	C 	0.9704	0.0379	0.6619	0.026
Mof_C 	C 	0.5528	0.4875	0.8194	-0.222
Mof_C 	C 	0.4129	0.2962	0.1197	-0.049
Mof_C 	C 	0.6861	0.305	0.1703	-0.034
Mof_C 	C 	0.5878	0.6843	0.6456	-0.014
Mof_C 	C 	0.8298	0.1688	0.1739	0.195
Mof_C 	C 	0.2379	0.271	0.2179	-0.2
Mof_C 	C 	0.4422	0.367	0.9612	-0.658
Mof_C 	C 	0.7385	0.2322	0.627	0.094
Mof_C 	C 	0.9122	0.1843	0.1456	-0.016
Mof_C 	C 	0.6326	0.6108	0.3021	-0.021
Mof_C 	C 	0.6453	0.8578	0.7737	-0.026
Mof_C 	C 	0.0163	0.6276	0.7871	0.002
Mof_C 	C 	0.558	0.0209	0.711	-0.024
Mof_C 	C 	0.9443	0.1923	0.9024	-0.044
Mof_C 	C 	0.7271	0.1963	0.2367	-0.002
Mof_C 	C 	0.4435	0.8269	0.2676	0.003
Mof_C 	C 	0.0055	0.2916	0.7321	-0.224
Mof_C 	C 	0.9435	0.7501	0.3041	0.019
Mof_C 	C 	0.8674	0.1108	0.8021	-0.021
Mof_C 	C 	0.7135	0.8482	0.2069	-0.009
Mof_C 	C 	0.2531	0.7867	0.1015	-0.031
Mof_C 	C 	0.6453	0.4103	0.956	-0.073
Mof_C 	C 	0.8963	0.8011	0.5923	-0.014
Mof_C 	C 	0.9688	0.8361	0.469	0.184
Mof_C 	C 	0.875	0.5275	0.1778	-0.052
Mof_C 	C 	0.338	0.801	0.3778	-0.288
Mof_C 	C 	0.2115	0.6548	0.0198	-0.01
Mof_C 	C 	0.8376	0.4879	0.3482	-0.726
Mof_C 	C 	0.6534	0.8307	0.1255	-0.624
Mof_C 	C 	0.2865	0.1518	0.7931	-0.009
Mof_C 	C 	0.5113	0.2925	0.2218	-0.036
Mof_N 	N 	0.2383	0.1716	0.762	-0.226
Mof_N 	N 	0.1411	0.8897	0.7049	-0.112
Mof_N 	N 	0.8467	0.2185	0.4004	-0.109
Mof_N 	N 	0.6986	0.3315	0.9777	-0.221
Mof_N 	N 	0.5001	0.3013	0.5701	-0.108
Mof_N 	N 	0.7283	0.7213	0.2528	-0.207
Mof_N 	N 	0.4811	0.1789	0.3101	-0.263
Mof_N 	N 	0.9683	0.7901	0.4774	-0.259
Mof_N 	N 	0.1375	0.2115	0.4417	-0.213
Mof_N 	N 	0.3444	0.1982	0.2291	-0.268
Mof_N 	N 	0.8786	0.0749	0.7774	-0.207
Mof_N 	N 	0.8777	0.0253	0.6821	-0.263
Mof_N 	N 	0.5189	0.8211	0.6899	-0.263
Mof_N 	N 	0.6685	0.5831	0.4128	-0.109
Mof_N 	N 	0.0317	0.2099	0.5226	-0.259
Mof_N 	N 	0.7631	0.5092	0.2323	-0.216
Mof_N 	N 	0.6196	0.8036	0.3559	-0.11
Mof_N 	N 	0.5075	0.7271	0.7471	-0.203
Mof_N 	N 	0.2666	0.2019	0.3215	-0.209
Mof_N 	N 	0.8804	0.3036	0.8559	-0.11
Mof_N 	N 	0.8018	0.7326	0.4256	-0.221
Mof_N 	N 	0.3101	0.5189	0.695	-0.258
Mof_N 	N 	0.3777	0.4747	0.8179	-0.263
Mof_N 	N 	0.7717	0.2213	0.7528	-0.207
Mof_N 	N 	0.6898	0.7639	0.5052	-0.254
Mof_N 	N 	0.8315	0.0831	0.9128	-0.109
Mof_N 	N 	0.1899	0.0189	0.195	-0.259
Mof_N 	N 	0.2283	0.7787	0.2472	-0.207
Mof_N 	N 	0.253	0.7263	0.338	-0.276
Mof_N 	N 	0.6314	0.1901	0.0058	-0.266
Mof_N 	N 	0.8703	0.9221	0.7174	-0.215
Mof_N 	N 	0.2369	0.4908	0.7677	-0.216
Mof_N 	N 	0.6937	0.7011	0.707	-0.26
Mof_N 	N 	0.3467	0.2815	0.0996	-0.109
Mof_N 	N 	0.4683	0.7099	0.0226	-0.259
Mof_N 	N 	0.0075	0.7729	0.7529	-0.202
Mof_N 	N 	0.4999	0.6987	0.4299	-0.108
Mof_N 	N 	0.1533	0.7815	0.5996	-0.109
Mof_N 	N 	0.6556	0.8018	0.7709	-0.268
Mof_N 	N 	0.7666	0.2981	0.1785	-0.209
Mof_N 	N 	0.4554	0.8051	0.8562	-0.113
Mof_N 	N 	0.3063	0.2989	0.293	-0.26
Mof_N 	N 	0.4089	0.7964	0.3011	-0.281
Mof_N 	N 	0.6982	0.2326	0.9256	-0.221
Mof_N 	N 	0.4779	0.583	0.9059	-0.106
Mof_N 	N 	0.4925	0.2729	0.2529	-0.203
Mof_N 	N 	0.1685	0.9169	0.0872	-0.109
Mof_N 	N 	0.3589	0.3897	0.2049	-0.112
Mof_N 	N 	0.1556	0.6982	0.7291	-0.268
Mof_N 	N 	0.3832	0.7178	0.2156	-0.283
Mof_N 	N 	0.3703	0.5779	0.7826	-0.214
Mof_N 	N 	0.247	0.2263	0.838	-0.276
Mof_N 	N 	0.1282	0.3753	0.6692	-0.107
Mof_N 	N 	0.1223	0.9747	0.3179	-0.263
Mof_N 	N 	0.8832	0.7822	0.2844	-0.282
Mof_N 	N 	0.7617	0.8284	0.238	-0.226
Mof_N 	N 	0.1314	0.3099	0.4942	-0.267
Mof_N 	N 	0.0529	0.1915	0.802	-0.211
Mof_N 	N 	0.2334	0.7019	0.8215	-0.209
Mof_N 	N 	0.7369	0.0092	0.7323	-0.216
Mof_N 	N 	0.2617	0.6716	0.262	-0.226
Mof_N 	N 	0.1196	0.6964	0.1441	-0.11
Mof_N 	N 	0.3804	0.1964	0.6441	-0.11
Mof_N 	N 	0.8686	0.6901	0.5058	-0.267
Mof_N 	N 	0.7383	0.3284	0.738	-0.226
Mof_N 	N 	0.0911	0.2964	0.8011	-0.28
Mof_N 	N 	0.5317	0.2901	0.9774	-0.259
Mof_N 	N 	0.1937	0.7989	0.793	-0.26
Mof_N 	N 	0.5446	0.1949	0.1438	-0.113
Mof_N 	N 	0.8014	0.8315	0.4777	-0.221
Mof_N 	N 	0.9779	0.917	0.5941	-0.106
Mof_N 	N 	0.1986	0.1685	0.5223	-0.221
Mof_N 	N 	0.8102	0.2639	0.0052	-0.252
Mof_N 	N 	0.3625	0.7115	0.9417	-0.213
Mof_N 	N 	0.2717	0.2787	0.7472	-0.207
Mof_N 	N 	0.1214	0.9251	0.2226	-0.207
Mof_N 	N 	0.8589	0.1103	0.2951	-0.112
Mof_N 	N 	0.8718	0.6247	0.3308	-0.107
Mof_N 	N 	0.938	0.2311	0.1552	-0.219
Mof_N 	N 	0.8625	0.7885	0.5583	-0.213
Mof_N 	N 	0.6899	0.4811	0.305	-0.258
Mof_N 	N 	0.0446	0.3051	0.3562	-0.113
Mof_N 	N 	0.2631	0.9908	0.2677	-0.216
Mof_N 	N 	0.3686	0.8099	0.9942	-0.266
Mof_N 	N 	0.5131	0.5103	0.7431	-0.275
Mof_N 	N 	0.9925	0.2271	0.2471	-0.202
Mof_N 	N 	0.747	0.2737	0.662	-0.276
Mof_N 	N 	0.3014	0.6685	0.0223	-0.221
Mof_N 	N 	0.6168	0.2822	0.7844	-0.283
Mof_N 	N 	0.0189	0.6789	0.8101	-0.263
Mof_N 	N 	0.6282	0.1247	0.8308	-0.107
Mof_N 	N 	0.062	0.7689	0.8448	-0.219
Mof_N 	N 	0.6411	0.6103	0.7951	-0.112
Mof_N 	N 	0.1898	0.7361	0.9948	-0.252
Mof_N 	N 	0.6533	0.7185	0.9004	-0.109
Mof_N 	N 	0.8101	0.9811	0.805	-0.259
Mof_N 	N 	0.4869	0.4897	0.2569	-0.275
Mof_N 	N 	0.438	0.2689	0.3448	-0.221
Mof_N 	N 	0.1168	0.2178	0.7156	-0.282
Mof_N 	N 	0.5221	0.417	0.0941	-0.106
Mof_N 	N 	0.6223	0.5253	0.1821	-0.263
Mof_N 	N 	0.3018	0.7674	0.0744	-0.221
Mof_N 	N 	0.9089	0.7036	0.1989	-0.28
Mof_N 	N 	0.8063	0.2011	0.207	-0.26
Mof_N 	N 	0.5529	0.3085	0.698	-0.212
Mof_N 	N 	0.1982	0.2674	0.5744	-0.221
Mof_N 	N 	0.0221	0.083	0.4059	-0.106
Mof_N 	N 	0.3718	0.8753	0.1692	-0.107
Mof_N 	N 	0.9554	0.6949	0.6438	-0.113
Mof_N 	N 	0.9811	0.3211	0.1899	-0.263
Mof_N 	N 	0.9471	0.8085	0.198	-0.211
Mof_N 	N 	0.6214	0.5749	0.2774	-0.207
Mof_N 	N 	0.0001	0.1987	0.9299	-0.107
Mof_N 	N 	0.5911	0.2036	0.6989	-0.281
Mof_N 	N 	0.3315	0.4169	0.5872	-0.109
Mof_N 	N 	0.9999	0.8013	0.0701	-0.107
Mof_N 	N 	0.9869	0.0103	0.2431	-0.275
Mof_N 	N 	0.1297	0.0779	0.2826	-0.215
Mof_N 	N 	0.8444	0.3018	0.2709	-0.268
Mof_N 	N 	0.753	0.7737	0.162	-0.276
Mof_N 	N 	0.3102	0.2361	0.4948	-0.254
Mof_N 	N 	0.0131	0.9897	0.7569	-0.275
Mof_N 	N 	0.6297	0.4221	0.2174	-0.214
Mof_N 	N 	0.7334	0.7981	0.6785	-0.209
Mof_N 	N 	0.4471	0.6915	0.302	-0.212
Mof_N 	N 	0.6375	0.2885	0.0583	-0.213
Mof_N 	N 	0.562	0.7311	0.6552	-0.221
Mof_N 	N 	0.3786	0.4251	0.7226	-0.207
_end
