data_functionalizedCrystal
_audit_creation_method	'EQeq! by Chris Wilmer'
_symmetry_space_group_name_H-M	'P1'
_symmetry_Int_Tables_number	1
_symmetry_cell_setting	triclinic
loop_
_symmetry_equiv_pos_as_xyz
  x,y,z
_cell_length_a	9.5152
_cell_length_b	33.144
_cell_length_c	9.6569
_cell_angle_alpha	90
_cell_angle_beta	93.211
_cell_angle_gamma	90
loop_
_atom_site_label
_atom_site_type_symbol
_atom_site_fract_x
_atom_site_fract_y
_atom_site_fract_z
_atom_site_charge
Mof_U 	U 	0.0805	0.24021	0.66336	0.04
Mof_U 	U 	0.18149	0.2406	0.2667	0.041
Mof_U 	U 	0.5494	0.00736	0.7998	0.04
Mof_U 	U 	0.94924	0.00763	0.69537	0.041
Mof_U 	U 	0.64402	0.13048	0.44288	0.042
Mof_P 	P 	0.7116	0.02024	0.4587	0.48
Mof_P 	P 	0.4282	0.22173	0.4949	0.477
Mof_P 	P 	0.785	0.02118	0.0387	0.476
Mof_P 	P 	0.8319	0.23074	0.4329	0.476
Mof_O 	O 	0.759	0.2592	0.3313	-0.14
Mof_O 	O 	0.6161	0.9898	0.3844	-0.139
Mof_O 	O 	0.6991	0.0178	0.6179	-0.125
Mof_O 	O 	0.883	0.9948	0.1266	-0.141
Mof_O 	O 	0.4358	0.2369	0.3449	-0.128
Mof_O 	O 	0.802	0.0169	0.8828	-0.128
Mof_O 	O 	0.8281	0.247	0.5839	-0.125
Mof_O 	O 	0.9944	0.2303	0.415	-0.122
Mof_O 	O 	0.5031	0.251	0.5939	-0.139
Mof_O 	O 	0.2654	0.2238	0.5126	-0.119
Mof_O 	O 	0.8681	0.0075	0.4484	-0.125
Mof_O 	O 	0.4803	0.1796	0.5121	-0.141
Mof_O 	O 	0.6317	0.0088	0.052	-0.13
Mof_O 	O 	0.6854	0.0614	0.405	-0.145
Mof_O 	O 	0.808	0.0659	0.0804	-0.124
Mof_O 	O 	0.7708	0.1894	0.4212	-0.143
Mof_U 	U 	0.4195	0.74021	0.83664	0.041
Mof_U 	U 	0.31851	0.7406	0.2333	0.039
Mof_U 	U 	0.9506	0.50736	0.7002	0.04
Mof_U 	U 	0.55076	0.50763	0.80463	0.041
Mof_U 	U 	0.85598	0.63048	0.05712	0.041
Mof_P 	P 	0.7884	0.52024	0.0413	0.48
Mof_P 	P 	0.0718	0.72173	0.0051	0.464
Mof_P 	P 	0.715	0.52118	0.4613	0.476
Mof_P 	P 	0.6681	0.73074	0.0671	0.473
Mof_O 	O 	0.741	0.7592	0.1687	-0.141
Mof_O 	O 	0.8839	0.4898	0.1156	-0.139
Mof_O 	O 	0.8009	0.5178	0.8821	-0.124
Mof_O 	O 	0.617	0.4948	0.3734	-0.141
Mof_O 	O 	0.0642	0.7369	0.1551	-0.129
Mof_O 	O 	0.698	0.5169	0.6172	-0.128
Mof_O 	O 	0.6719	0.747	0.9161	-0.12
Mof_O 	O 	0.5056	0.7303	0.085	-0.123
Mof_O 	O 	0.9969	0.751	0.9061	-0.133
Mof_O 	O 	0.2346	0.7238	0.9874	-0.113
Mof_O 	O 	0.6319	0.5075	0.0516	-0.124
Mof_O 	O 	0.0197	0.6796	0.9879	-0.135
Mof_O 	O 	0.8683	0.5088	0.448	-0.13
Mof_O 	O 	0.8146	0.5614	0.095	-0.146
Mof_O 	O 	0.692	0.5659	0.4196	-0.124
Mof_O 	O 	0.7292	0.6894	0.0788	-0.144
Mof_U 	U 	0.9195	0.75979	0.33664	0.04
Mof_U 	U 	0.81851	0.7594	0.7333	0.041
Mof_U 	U 	0.4506	0.99264	0.2002	0.04
Mof_U 	U 	0.05076	0.99237	0.30463	0.041
Mof_U 	U 	0.35598	0.86952	0.55712	0.042
Mof_P 	P 	0.2884	0.97976	0.5413	0.48
Mof_P 	P 	0.5718	0.77827	0.5051	0.477
Mof_P 	P 	0.215	0.97882	0.9613	0.476
Mof_P 	P 	0.1681	0.76926	0.5671	0.476
Mof_O 	O 	0.241	0.7408	0.6687	-0.14
Mof_O 	O 	0.3839	0.0102	0.6156	-0.139
Mof_O 	O 	0.3009	0.9822	0.3821	-0.125
Mof_O 	O 	0.117	0.0052	0.8734	-0.141
Mof_O 	O 	0.5642	0.7631	0.6551	-0.128
Mof_O 	O 	0.198	0.9831	0.1172	-0.128
Mof_O 	O 	0.1719	0.753	0.4161	-0.125
Mof_O 	O 	0.0056	0.7697	0.585	-0.122
Mof_O 	O 	0.4969	0.749	0.4061	-0.139
Mof_O 	O 	0.7346	0.7762	0.4874	-0.119
Mof_O 	O 	0.1319	0.9925	0.5516	-0.125
Mof_O 	O 	0.5197	0.8204	0.4879	-0.141
Mof_O 	O 	0.3683	0.9912	0.948	-0.13
Mof_O 	O 	0.3146	0.9386	0.595	-0.145
Mof_O 	O 	0.192	0.9341	0.9196	-0.124
Mof_O 	O 	0.2292	0.8106	0.5788	-0.143
Mof_U 	U 	0.5805	0.25979	0.16336	0.041
Mof_U 	U 	0.68149	0.2594	0.7667	0.039
Mof_U 	U 	0.0494	0.49264	0.2998	0.04
Mof_U 	U 	0.44924	0.49237	0.19537	0.041
Mof_U 	U 	0.14402	0.36952	0.94288	0.041
Mof_P 	P 	0.2116	0.47976	0.9587	0.48
Mof_P 	P 	0.9282	0.27827	0.9949	0.464
Mof_P 	P 	0.285	0.47882	0.5387	0.476
Mof_P 	P 	0.3319	0.26926	0.9329	0.473
Mof_O 	O 	0.259	0.2408	0.8313	-0.141
Mof_O 	O 	0.1161	0.5102	0.8844	-0.139
Mof_O 	O 	0.1991	0.4822	0.1179	-0.124
Mof_O 	O 	0.383	0.5052	0.6266	-0.141
Mof_O 	O 	0.9358	0.2631	0.8449	-0.129
Mof_O 	O 	0.302	0.4831	0.3828	-0.128
Mof_O 	O 	0.3281	0.253	0.0839	-0.12
Mof_O 	O 	0.4944	0.2697	0.915	-0.123
Mof_O 	O 	0.0031	0.249	0.0939	-0.133
Mof_O 	O 	0.7654	0.2762	0.0126	-0.113
Mof_O 	O 	0.3681	0.4925	0.9484	-0.124
Mof_O 	O 	0.9803	0.3204	0.0121	-0.135
Mof_O 	O 	0.1317	0.4912	0.552	-0.13
Mof_O 	O 	0.1854	0.4386	0.905	-0.146
Mof_O 	O 	0.308	0.4341	0.5804	-0.124
Mof_O 	O 	0.2708	0.3106	0.9212	-0.144
_end
