data_functionalizedCrystal
_audit_creation_method	'EQeq! by Chris Wilmer'
_symmetry_space_group_name_H-M	'P1'
_symmetry_Int_Tables_number	1
_symmetry_cell_setting	triclinic
loop_
_symmetry_equiv_pos_as_xyz
  x,y,z
_cell_length_a	33.894
_cell_length_b	13.229
_cell_length_c	8.937
_cell_angle_alpha	90
_cell_angle_beta	104.37
_cell_angle_gamma	90
loop_
_atom_site_label
_atom_site_type_symbol
_atom_site_fract_x
_atom_site_fract_y
_atom_site_fract_z
_atom_site_charge
Mof_Zn	Zn	0.14858	0.3957	0.16001	1.232
Mof_Zn	Zn	0.22932	0.64163	0.12724	1.238
Mof_P 	P 	0.1957	0.55164	0.40357	0.535
Mof_P 	P 	0.05163	0.38268	0.0666	0.484
Mof_H 	H 	0.057	0.285	0.107	-0.034
Mof_P 	P 	0.18005	0.20973	0.3846	0.473
Mof_H 	H 	0.1624	0.1189	0.388	-0.022
Mof_O 	O 	0.22471	0.627	0.3305	-0.411
Mof_O 	O 	0.15865	0.5196	0.2818	-0.477
Mof_O 	O 	0.2194	0.4578	0.477	-0.512
Mof_O 	O 	0.18442	0.62	0.5252	-0.438
Mof_O 	O 	0.09182	0.4117	0.042	-0.445
Mof_O 	O 	0.01799	0.3952	0.9226	-0.464
Mof_O 	O 	0.04392	0.4283	0.21	-0.46
Mof_O 	O 	0.21503	0.1923	0.3143	-0.463
Mof_O 	O 	0.14755	0.2747	0.2887	-0.44
Mof_O 	O 	0.19224	0.2428	0.5477	-0.444
Mof_Zn	Zn	0.64858	0.8957	0.16001	1.233
Mof_Zn	Zn	0.72932	0.14163	0.12724	1.237
Mof_P 	P 	0.6957	0.05164	0.40357	0.535
Mof_P 	P 	0.55163	0.88268	0.0666	0.486
Mof_H 	H 	0.557	0.785	0.107	-0.03
Mof_P 	P 	0.68005	0.70973	0.3846	0.474
Mof_H 	H 	0.6624	0.6189	0.388	-0.021
Mof_O 	O 	0.72471	0.127	0.3305	-0.41
Mof_O 	O 	0.65865	0.0196	0.2818	-0.477
Mof_O 	O 	0.7194	0.9578	0.477	-0.511
Mof_O 	O 	0.68442	0.12	0.5252	-0.438
Mof_O 	O 	0.59182	0.9117	0.042	-0.443
Mof_O 	O 	0.51799	0.8952	0.9226	-0.454
Mof_O 	O 	0.54392	0.9283	0.21	-0.453
Mof_O 	O 	0.71503	0.6923	0.3143	-0.462
Mof_O 	O 	0.64755	0.7747	0.2887	-0.438
Mof_O 	O 	0.69224	0.7428	0.5477	-0.443
Mof_Zn	Zn	0.85142	0.3957	0.33999	1.233
Mof_Zn	Zn	0.77068	0.64163	0.37276	1.238
Mof_P 	P 	0.8043	0.55164	0.09643	0.536
Mof_P 	P 	0.94837	0.38268	0.4334	0.484
Mof_H 	H 	0.943	0.285	0.393	-0.026
Mof_P 	P 	0.81995	0.20973	0.1154	0.473
Mof_H 	H 	0.8376	0.1189	0.112	-0.019
Mof_O 	O 	0.77529	0.627	0.1695	-0.41
Mof_O 	O 	0.84135	0.5196	0.2182	-0.476
Mof_O 	O 	0.7806	0.4578	0.023	-0.512
Mof_O 	O 	0.81558	0.62	0.9748	-0.439
Mof_O 	O 	0.90818	0.4117	0.458	-0.441
Mof_O 	O 	0.98201	0.3952	0.5774	-0.437
Mof_O 	O 	0.95608	0.4283	0.29	-0.443
Mof_O 	O 	0.78497	0.1923	0.1857	-0.462
Mof_O 	O 	0.85245	0.2747	0.2113	-0.437
Mof_O 	O 	0.80776	0.2428	0.9523	-0.442
Mof_Zn	Zn	0.35142	0.8957	0.33999	1.233
Mof_Zn	Zn	0.27068	0.14163	0.37276	1.238
Mof_P 	P 	0.3043	0.05164	0.09643	0.533
Mof_P 	P 	0.44837	0.88268	0.4334	0.484
Mof_H 	H 	0.443	0.785	0.393	-0.03
Mof_P 	P 	0.31995	0.70973	0.1154	0.475
Mof_H 	H 	0.3376	0.6189	0.112	-0.021
Mof_O 	O 	0.27529	0.127	0.1695	-0.411
Mof_O 	O 	0.34135	0.0196	0.2182	-0.477
Mof_O 	O 	0.2806	0.9578	0.023	-0.509
Mof_O 	O 	0.31558	0.12	0.9748	-0.437
Mof_O 	O 	0.40818	0.9117	0.458	-0.444
Mof_O 	O 	0.48201	0.8952	0.5774	-0.452
Mof_O 	O 	0.45608	0.9283	0.29	-0.453
Mof_O 	O 	0.28497	0.6923	0.1857	-0.462
Mof_O 	O 	0.35245	0.7747	0.2113	-0.438
Mof_O 	O 	0.30776	0.7428	0.9523	-0.445
Mof_Zn	Zn	0.85142	0.6043	0.83999	1.233
Mof_Zn	Zn	0.77068	0.35837	0.87276	1.238
Mof_P 	P 	0.8043	0.44836	0.59643	0.535
Mof_P 	P 	0.94837	0.61732	0.9334	0.482
Mof_H 	H 	0.943	0.715	0.893	-0.026
Mof_P 	P 	0.81995	0.79027	0.6154	0.474
Mof_H 	H 	0.8376	0.8811	0.612	-0.019
Mof_O 	O 	0.77529	0.373	0.6695	-0.41
Mof_O 	O 	0.84135	0.4804	0.7182	-0.476
Mof_O 	O 	0.7806	0.5422	0.523	-0.512
Mof_O 	O 	0.81558	0.38	0.4748	-0.437
Mof_O 	O 	0.90818	0.5883	0.958	-0.442
Mof_O 	O 	0.98201	0.6048	0.0774	-0.435
Mof_O 	O 	0.95608	0.5717	0.79	-0.443
Mof_O 	O 	0.78497	0.8077	0.6857	-0.462
Mof_O 	O 	0.85245	0.7253	0.7113	-0.437
Mof_O 	O 	0.80776	0.7572	0.4523	-0.442
Mof_Zn	Zn	0.35142	0.1043	0.83999	1.233
Mof_Zn	Zn	0.27068	0.85837	0.87276	1.237
Mof_P 	P 	0.3043	0.94836	0.59643	0.535
Mof_P 	P 	0.44837	0.11732	0.9334	0.485
Mof_H 	H 	0.443	0.215	0.893	-0.03
Mof_P 	P 	0.31995	0.29027	0.6154	0.474
Mof_H 	H 	0.3376	0.3811	0.612	-0.021
Mof_O 	O 	0.27529	0.873	0.6695	-0.411
Mof_O 	O 	0.34135	0.9804	0.7182	-0.477
Mof_O 	O 	0.2806	0.0422	0.523	-0.511
Mof_O 	O 	0.31558	0.88	0.4748	-0.438
Mof_O 	O 	0.40818	0.0883	0.958	-0.443
Mof_O 	O 	0.48201	0.1048	0.0774	-0.454
Mof_O 	O 	0.45608	0.0717	0.79	-0.453
Mof_O 	O 	0.28497	0.3077	0.6857	-0.462
Mof_O 	O 	0.35245	0.2253	0.7113	-0.438
Mof_O 	O 	0.30776	0.2572	0.4523	-0.443
Mof_Zn	Zn	0.14858	0.6043	0.66001	1.233
Mof_Zn	Zn	0.22932	0.35837	0.62724	1.238
Mof_P 	P 	0.1957	0.44836	0.90357	0.535
Mof_P 	P 	0.05163	0.61732	0.5666	0.483
Mof_H 	H 	0.057	0.715	0.607	-0.034
Mof_P 	P 	0.18005	0.79027	0.8846	0.472
Mof_H 	H 	0.1624	0.8811	0.888	-0.023
Mof_O 	O 	0.22471	0.373	0.8305	-0.411
Mof_O 	O 	0.15865	0.4804	0.7818	-0.478
Mof_O 	O 	0.2194	0.5422	0.977	-0.512
Mof_O 	O 	0.18442	0.38	0.0252	-0.439
Mof_O 	O 	0.09182	0.5883	0.542	-0.446
Mof_O 	O 	0.01799	0.6048	0.4226	-0.463
Mof_O 	O 	0.04392	0.5717	0.71	-0.461
Mof_O 	O 	0.21503	0.8077	0.8143	-0.463
Mof_O 	O 	0.14755	0.7253	0.7887	-0.44
Mof_O 	O 	0.19224	0.7572	0.0477	-0.442
Mof_Zn	Zn	0.64858	0.1043	0.66001	1.233
Mof_Zn	Zn	0.72932	0.85837	0.62724	1.238
Mof_P 	P 	0.6957	0.94836	0.90357	0.532
Mof_P 	P 	0.55163	0.11732	0.5666	0.484
Mof_H 	H 	0.557	0.215	0.607	-0.03
Mof_P 	P 	0.68005	0.29027	0.8846	0.474
Mof_H 	H 	0.6624	0.3811	0.888	-0.021
Mof_O 	O 	0.72471	0.873	0.8305	-0.411
Mof_O 	O 	0.65865	0.9804	0.7818	-0.477
Mof_O 	O 	0.7194	0.0422	0.977	-0.51
Mof_O 	O 	0.68442	0.88	0.0252	-0.436
Mof_O 	O 	0.59182	0.0883	0.542	-0.444
Mof_O 	O 	0.51799	0.1048	0.4226	-0.452
Mof_O 	O 	0.54392	0.0717	0.71	-0.453
Mof_O 	O 	0.71503	0.3077	0.8143	-0.463
Mof_O 	O 	0.64755	0.2253	0.7887	-0.438
Mof_O 	O 	0.69224	0.2572	0.0477	-0.444
Mof_Zn	Zn	9.25486e-34	0.48862	0.75	1.227
Mof_Zn	Zn	0.5	0.98862	0.75	1.235
Mof_Zn	Zn	1.83043e-18	0.51138	0.25	1.227
Mof_Zn	Zn	0.5	0.01138	0.25	1.235
_end
