# CIF file generated by openbabel 3.1.0, see https://openbabel.org
data_I
_chemical_name_common 'image0'
_cell_length_a 23.575
_cell_length_b 23.575
_cell_length_c 23.575
_cell_angle_alpha 90
_cell_angle_beta 90
_cell_angle_gamma 90
_space_group_name_H-M_alt 'P 1'
_space_group_name_Hall 'P 1'
loop_
    _symmetry_equiv_pos_as_xyz
    x,y,z
loop_
    _atom_site_label
    _atom_site_type_symbol
    _atom_site_fract_x
    _atom_site_fract_y
    _atom_site_fract_z
    _atom_site_occupancy
    N1       N        0.36320    0.43070    0.14780    1.000
    C1       C        0.20980    0.55420    0.16880    1.000
    C2       C        0.35240    0.39790    0.20160    1.000
    N2       N        0.86320    0.93070    0.64780    1.000
    C3       C        0.70980    0.05420    0.66880    1.000
    C4       C        0.85240    0.89790    0.70160    1.000
    N3       N        0.63680    0.56930    0.14780    1.000
    C5       C        0.79020    0.44580    0.16880    1.000
    C6       C        0.64760    0.60210    0.20160    1.000
    N4       N        0.13680    0.06930    0.64780    1.000
    C7       C        0.29020    0.94580    0.66880    1.000
    C8       C        0.14760    0.10210    0.70160    1.000
    N5       N        0.63680    0.43070    0.85220    1.000
    C9       C        0.79020    0.55420    0.83120    1.000
    C10      C        0.64760    0.39790    0.79840    1.000
    N6       N        0.13680    0.93070    0.35220    1.000
    C11      C        0.29020    0.05420    0.33120    1.000
    C12      C        0.14760    0.89790    0.29840    1.000
    N7       N        0.36320    0.56930    0.85220    1.000
    C13      C        0.20980    0.44580    0.83120    1.000
    C14      C        0.35240    0.60210    0.79840    1.000
    N8       N        0.86320    0.06930    0.35220    1.000
    C15      C        0.70980    0.94580    0.33120    1.000
    C16      C        0.85240    0.10210    0.29840    1.000
    N9       N        0.14780    0.36320    0.43070    1.000
    C17      C        0.16880    0.20980    0.55420    1.000
    C18      C        0.20160    0.35240    0.39790    1.000
    N10      N        0.64780    0.86320    0.93070    1.000
    C19      C        0.66880    0.70980    0.05420    1.000
    C20      C        0.70160    0.85240    0.89790    1.000
    N11      N        0.14780    0.63680    0.56930    1.000
    C21      C        0.16880    0.79020    0.44580    1.000
    C22      C        0.20160    0.64760    0.60210    1.000
    N12      N        0.64780    0.13680    0.06930    1.000
    C23      C        0.66880    0.29020    0.94580    1.000
    C24      C        0.70160    0.14760    0.10210    1.000
    N13      N        0.85220    0.63680    0.43070    1.000
    C25      C        0.83120    0.79020    0.55420    1.000
    C26      C        0.79840    0.64760    0.39790    1.000
    N14      N        0.35220    0.13680    0.93070    1.000
    C27      C        0.33120    0.29020    0.05420    1.000
    C28      C        0.29840    0.14760    0.89790    1.000
    N15      N        0.85220    0.36320    0.56930    1.000
    C29      C        0.83120    0.20980    0.44580    1.000
    C30      C        0.79840    0.35240    0.60210    1.000
    N16      N        0.35220    0.86320    0.06930    1.000
    C31      C        0.33120    0.70980    0.94580    1.000
    C32      C        0.29840    0.85240    0.10210    1.000
    N17      N        0.43070    0.14780    0.36320    1.000
    C33      C        0.55420    0.16880    0.20980    1.000
    C34      C        0.39790    0.20160    0.35240    1.000
    N18      N        0.93070    0.64780    0.86320    1.000
    C35      C        0.05420    0.66880    0.70980    1.000
    C36      C        0.89790    0.70160    0.85240    1.000
    N19      N        0.56930    0.14780    0.63680    1.000
    C37      C        0.44580    0.16880    0.79020    1.000
    C38      C        0.60210    0.20160    0.64760    1.000
    N20      N        0.06930    0.64780    0.13680    1.000
    C39      C        0.94580    0.66880    0.29020    1.000
    C40      C        0.10210    0.70160    0.14760    1.000
    N21      N        0.43070    0.85220    0.63680    1.000
    C41      C        0.55420    0.83120    0.79020    1.000
    C42      C        0.39790    0.79840    0.64760    1.000
    N22      N        0.93070    0.35220    0.13680    1.000
    C43      C        0.05420    0.33120    0.29020    1.000
    C44      C        0.89790    0.29840    0.14760    1.000
    N23      N        0.56930    0.85220    0.36320    1.000
    C45      C        0.44580    0.83120    0.20980    1.000
    C46      C        0.60210    0.79840    0.35240    1.000
    N24      N        0.06930    0.35220    0.86320    1.000
    C47      C        0.94580    0.33120    0.70980    1.000
    C48      C        0.10210    0.29840    0.85240    1.000
    N25      N        0.43070    0.36320    0.85220    1.000
    C49      C        0.55420    0.20980    0.83120    1.000
    C50      C        0.39790    0.35240    0.79840    1.000
    N26      N        0.93070    0.86320    0.35220    1.000
    C51      C        0.05420    0.70980    0.33120    1.000
    C52      C        0.89790    0.85240    0.29840    1.000
    N27      N        0.56930    0.63680    0.85220    1.000
    C53      C        0.44580    0.79020    0.83120    1.000
    C54      C        0.60210    0.64760    0.79840    1.000
    N28      N        0.06930    0.13680    0.35220    1.000
    C55      C        0.94580    0.29020    0.33120    1.000
    C56      C        0.10210    0.14760    0.29840    1.000
    N29      N        0.43070    0.63680    0.14780    1.000
    C57      C        0.55420    0.79020    0.16880    1.000
    C58      C        0.39790    0.64760    0.20160    1.000
    N30      N        0.93070    0.13680    0.64780    1.000
    C59      C        0.05420    0.29020    0.66880    1.000
    C60      C        0.89790    0.14760    0.70160    1.000
    N31      N        0.56930    0.36320    0.14780    1.000
    C61      C        0.44580    0.20980    0.16880    1.000
    C62      C        0.60210    0.35240    0.20160    1.000
    N32      N        0.06930    0.86320    0.64780    1.000
    C63      C        0.94580    0.70980    0.66880    1.000
    C64      C        0.10210    0.85240    0.70160    1.000
    N33      N        0.36320    0.14780    0.56930    1.000
    C65      C        0.20980    0.16880    0.44580    1.000
    C66      C        0.35240    0.20160    0.60210    1.000
    N34      N        0.86320    0.64780    0.06930    1.000
    C67      C        0.70980    0.66880    0.94580    1.000
    C68      C        0.85240    0.70160    0.10210    1.000
    N35      N        0.63680    0.14780    0.43070    1.000
    C69      C        0.79020    0.16880    0.55420    1.000
    C70      C        0.64760    0.20160    0.39790    1.000
    N36      N        0.13680    0.64780    0.93070    1.000
    C71      C        0.29020    0.66880    0.05420    1.000
    C72      C        0.14760    0.70160    0.89790    1.000
    N37      N        0.63680    0.85220    0.56930    1.000
    C73      C        0.79020    0.83120    0.44580    1.000
    C74      C        0.64760    0.79840    0.60210    1.000
    N38      N        0.13680    0.35220    0.06930    1.000
    C75      C        0.29020    0.33120    0.94580    1.000
    C76      C        0.14760    0.29840    0.10210    1.000
    N39      N        0.36320    0.85220    0.43070    1.000
    C77      C        0.20980    0.83120    0.55420    1.000
    C78      C        0.35240    0.79840    0.39790    1.000
    N40      N        0.86320    0.35220    0.93070    1.000
    C79      C        0.70980    0.33120    0.05420    1.000
    C80      C        0.85240    0.29840    0.89790    1.000
    N41      N        0.14780    0.43070    0.63680    1.000
    C81      C        0.16880    0.55420    0.79020    1.000
    C82      C        0.20160    0.39790    0.64760    1.000
    N42      N        0.64780    0.93070    0.13680    1.000
    C83      C        0.66880    0.05420    0.29020    1.000
    C84      C        0.70160    0.89790    0.14760    1.000
    N43      N        0.14780    0.56930    0.36320    1.000
    C85      C        0.16880    0.44580    0.20980    1.000
    C86      C        0.20160    0.60210    0.35240    1.000
    N44      N        0.64780    0.06930    0.86320    1.000
    C87      C        0.66880    0.94580    0.70980    1.000
    C88      C        0.70160    0.10210    0.85240    1.000
    N45      N        0.85220    0.43070    0.36320    1.000
    C89      C        0.83120    0.55420    0.20980    1.000
    C90      C        0.79840    0.39790    0.35240    1.000
    N46      N        0.35220    0.93070    0.86320    1.000
    C91      C        0.33120    0.05420    0.70980    1.000
    C92      C        0.29840    0.89790    0.85240    1.000
    N47      N        0.85220    0.56930    0.63680    1.000
    C93      C        0.83120    0.44580    0.79020    1.000
    C94      C        0.79840    0.60210    0.64760    1.000
    N48      N        0.35220    0.06930    0.13680    1.000
    C95      C        0.33120    0.94580    0.29020    1.000
    C96      C        0.29840    0.10210    0.14760    1.000
    N49      N        0.63680    0.56930    0.85220    1.000
    C97      C        0.79020    0.44580    0.83120    1.000
    C98      C        0.64760    0.60210    0.79840    1.000
    N50      N        0.13680    0.06930    0.35220    1.000
    C99      C        0.29020    0.94580    0.33120    1.000
    C100     C        0.14760    0.10210    0.29840    1.000
    N51      N        0.36320    0.43070    0.85220    1.000
    C101     C        0.20980    0.55420    0.83120    1.000
    C102     C        0.35240    0.39790    0.79840    1.000
    N52      N        0.86320    0.93070    0.35220    1.000
    C103     C        0.70980    0.05420    0.33120    1.000
    C104     C        0.85240    0.89790    0.29840    1.000
    N53      N        0.36320    0.56930    0.14780    1.000
    C105     C        0.20980    0.44580    0.16880    1.000
    C106     C        0.35240    0.60210    0.20160    1.000
    N54      N        0.86320    0.06930    0.64780    1.000
    C107     C        0.70980    0.94580    0.66880    1.000
    C108     C        0.85240    0.10210    0.70160    1.000
    N55      N        0.63680    0.43070    0.14780    1.000
    C109     C        0.79020    0.55420    0.16880    1.000
    C110     C        0.64760    0.39790    0.20160    1.000
    N56      N        0.13680    0.93070    0.64780    1.000
    C111     C        0.29020    0.05420    0.66880    1.000
    C112     C        0.14760    0.89790    0.70160    1.000
    N57      N        0.85220    0.63680    0.56930    1.000
    C113     C        0.83120    0.79020    0.44580    1.000
    C114     C        0.79840    0.64760    0.60210    1.000
    N58      N        0.35220    0.13680    0.06930    1.000
    C115     C        0.33120    0.29020    0.94580    1.000
    C116     C        0.29840    0.14760    0.10210    1.000
    N59      N        0.85220    0.36320    0.43070    1.000
    C117     C        0.83120    0.20980    0.55420    1.000
    C118     C        0.79840    0.35240    0.39790    1.000
    N60      N        0.35220    0.86320    0.93070    1.000
    C119     C        0.33120    0.70980    0.05420    1.000
    C120     C        0.29840    0.85240    0.89790    1.000
    N61      N        0.14780    0.36320    0.56930    1.000
    C121     C        0.16880    0.20980    0.44580    1.000
    C122     C        0.20160    0.35240    0.60210    1.000
    N62      N        0.64780    0.86320    0.06930    1.000
    C123     C        0.66880    0.70980    0.94580    1.000
    C124     C        0.70160    0.85240    0.10210    1.000
    N63      N        0.14780    0.63680    0.43070    1.000
    C125     C        0.16880    0.79020    0.55420    1.000
    C126     C        0.20160    0.64760    0.39790    1.000
    N64      N        0.64780    0.13680    0.93070    1.000
    C127     C        0.66880    0.29020    0.05420    1.000
    C128     C        0.70160    0.14760    0.89790    1.000
    N65      N        0.56930    0.85220    0.63680    1.000
    C129     C        0.44580    0.83120    0.79020    1.000
    C130     C        0.60210    0.79840    0.64760    1.000
    N66      N        0.06930    0.35220    0.13680    1.000
    C131     C        0.94580    0.33120    0.29020    1.000
    C132     C        0.10210    0.29840    0.14760    1.000
    N67      N        0.43070    0.85220    0.36320    1.000
    C133     C        0.55420    0.83120    0.20980    1.000
    C134     C        0.39790    0.79840    0.35240    1.000
    N68      N        0.93070    0.35220    0.86320    1.000
    C135     C        0.05420    0.33120    0.70980    1.000
    C136     C        0.89790    0.29840    0.85240    1.000
    N69      N        0.56930    0.14780    0.36320    1.000
    C137     C        0.44580    0.16880    0.20980    1.000
    C138     C        0.60210    0.20160    0.35240    1.000
    N70      N        0.06930    0.64780    0.86320    1.000
    C139     C        0.94580    0.66880    0.70980    1.000
    C140     C        0.10210    0.70160    0.85240    1.000
    N71      N        0.43070    0.14780    0.63680    1.000
    C141     C        0.55420    0.16880    0.79020    1.000
    C142     C        0.39790    0.20160    0.64760    1.000
    N72      N        0.93070    0.64780    0.13680    1.000
    C143     C        0.05420    0.66880    0.29020    1.000
    C144     C        0.89790    0.70160    0.14760    1.000
    N73      N        0.56930    0.63680    0.14780    1.000
    C145     C        0.44580    0.79020    0.16880    1.000
    C146     C        0.60210    0.64760    0.20160    1.000
    N74      N        0.06930    0.13680    0.64780    1.000
    C147     C        0.94580    0.29020    0.66880    1.000
    C148     C        0.10210    0.14760    0.70160    1.000
    N75      N        0.43070    0.36320    0.14780    1.000
    C149     C        0.55420    0.20980    0.16880    1.000
    C150     C        0.39790    0.35240    0.20160    1.000
    N76      N        0.93070    0.86320    0.64780    1.000
    C151     C        0.05420    0.70980    0.66880    1.000
    C152     C        0.89790    0.85240    0.70160    1.000
    N77      N        0.56930    0.36320    0.85220    1.000
    C153     C        0.44580    0.20980    0.83120    1.000
    C154     C        0.60210    0.35240    0.79840    1.000
    N78      N        0.06930    0.86320    0.35220    1.000
    C155     C        0.94580    0.70980    0.33120    1.000
    C156     C        0.10210    0.85240    0.29840    1.000
    N79      N        0.43070    0.63680    0.85220    1.000
    C157     C        0.55420    0.79020    0.83120    1.000
    C158     C        0.39790    0.64760    0.79840    1.000
    N80      N        0.93070    0.13680    0.35220    1.000
    C159     C        0.05420    0.29020    0.33120    1.000
    C160     C        0.89790    0.14760    0.29840    1.000
    N81      N        0.63680    0.85220    0.43070    1.000
    C161     C        0.79020    0.83120    0.55420    1.000
    C162     C        0.64760    0.79840    0.39790    1.000
    N82      N        0.13680    0.35220    0.93070    1.000
    C163     C        0.29020    0.33120    0.05420    1.000
    C164     C        0.14760    0.29840    0.89790    1.000
    N83      N        0.36320    0.85220    0.56930    1.000
    C165     C        0.20980    0.83120    0.44580    1.000
    C166     C        0.35240    0.79840    0.60210    1.000
    N84      N        0.86320    0.35220    0.06930    1.000
    C167     C        0.70980    0.33120    0.94580    1.000
    C168     C        0.85240    0.29840    0.10210    1.000
    N85      N        0.36320    0.14780    0.43070    1.000
    C169     C        0.20980    0.16880    0.55420    1.000
    C170     C        0.35240    0.20160    0.39790    1.000
    N86      N        0.86320    0.64780    0.93070    1.000
    C171     C        0.70980    0.66880    0.05420    1.000
    C172     C        0.85240    0.70160    0.89790    1.000
    N87      N        0.63680    0.14780    0.56930    1.000
    C173     C        0.79020    0.16880    0.44580    1.000
    C174     C        0.64760    0.20160    0.60210    1.000
    N88      N        0.13680    0.64780    0.06930    1.000
    C175     C        0.29020    0.66880    0.94580    1.000
    C176     C        0.14760    0.70160    0.10210    1.000
    N89      N        0.85220    0.56930    0.36320    1.000
    C177     C        0.83120    0.44580    0.20980    1.000
    C178     C        0.79840    0.60210    0.35240    1.000
    N90      N        0.35220    0.06930    0.86320    1.000
    C179     C        0.33120    0.94580    0.70980    1.000
    C180     C        0.29840    0.10210    0.85240    1.000
    N91      N        0.85220    0.43070    0.63680    1.000
    C181     C        0.83120    0.55420    0.79020    1.000
    C182     C        0.79840    0.39790    0.64760    1.000
    N92      N        0.35220    0.93070    0.13680    1.000
    C183     C        0.33120    0.05420    0.29020    1.000
    C184     C        0.29840    0.89790    0.14760    1.000
    N93      N        0.14780    0.56930    0.63680    1.000
    C185     C        0.16880    0.44580    0.79020    1.000
    C186     C        0.20160    0.60210    0.64760    1.000
    N94      N        0.64780    0.06930    0.13680    1.000
    C187     C        0.66880    0.94580    0.29020    1.000
    C188     C        0.70160    0.10210    0.14760    1.000
    N95      N        0.14780    0.43070    0.36320    1.000
    C189     C        0.16880    0.55420    0.20980    1.000
    C190     C        0.20160    0.39790    0.35240    1.000
    N96      N        0.64780    0.93070    0.86320    1.000
    C191     C        0.66880    0.05420    0.70980    1.000
    C192     C        0.70160    0.89790    0.85240    1.000
    W1       W        0.25000    0.50000    0.00000    1.000
    W2       W        0.75000    0.50000    0.00000    1.000
    W3       W        0.00000    0.25000    0.50000    1.000
    W4       W        0.00000    0.75000    0.50000    1.000
    W5       W        0.50000    0.25000    0.00000    1.000
    W6       W        0.50000    0.00000    0.25000    1.000
    W7       W        0.50000    0.00000    0.75000    1.000
    W8       W        0.50000    0.75000    0.00000    1.000
    W9       W        0.25000    0.00000    0.50000    1.000
    W10      W        0.75000    0.00000    0.50000    1.000
    W11      W        0.00000    0.50000    0.75000    1.000
    W12      W        0.00000    0.50000    0.25000    1.000
    Zn1      Zn       0.31984    0.50000    0.13859    1.000
    N97      N        0.24930    0.50000    0.18400    1.000
    O1       O        0.29300    0.50000    0.05910    1.000
    Zn2      Zn       0.81984    0.00000    0.63859    1.000
    N98      N        0.74930    0.00000    0.68400    1.000
    O2       O        0.79300    0.00000    0.55910    1.000
    Zn3      Zn       0.68016    0.50000    0.13859    1.000
    N99      N        0.75070    0.50000    0.18400    1.000
    O3       O        0.70700    0.50000    0.05910    1.000
    Zn4      Zn       0.18016    0.00000    0.63859    1.000
    N100     N        0.25070    0.00000    0.68400    1.000
    O4       O        0.20700    0.00000    0.55910    1.000
    Zn5      Zn       0.68016    0.50000    0.86141    1.000
    N101     N        0.75070    0.50000    0.81600    1.000
    O5       O        0.70700    0.50000    0.94090    1.000
    Zn6      Zn       0.18016    0.00000    0.36141    1.000
    N102     N        0.25070    0.00000    0.31600    1.000
    O6       O        0.20700    0.00000    0.44090    1.000
    Zn7      Zn       0.31984    0.50000    0.86141    1.000
    N103     N        0.24930    0.50000    0.81600    1.000
    O7       O        0.29300    0.50000    0.94090    1.000
    Zn8      Zn       0.81984    0.00000    0.36141    1.000
    N104     N        0.74930    0.00000    0.31600    1.000
    O8       O        0.79300    0.00000    0.44090    1.000
    Zn9      Zn       0.13859    0.31984    0.50000    1.000
    N105     N        0.18400    0.24930    0.50000    1.000
    O9       O        0.05910    0.29300    0.50000    1.000
    Zn10     Zn       0.63859    0.81984    0.00000    1.000
    N106     N        0.68400    0.74930    0.00000    1.000
    O10      O        0.55910    0.79300    0.00000    1.000
    Zn11     Zn       0.13859    0.68016    0.50000    1.000
    N107     N        0.18400    0.75070    0.50000    1.000
    O11      O        0.05910    0.70700    0.50000    1.000
    Zn12     Zn       0.63859    0.18016    0.00000    1.000
    N108     N        0.68400    0.25070    0.00000    1.000
    O12      O        0.55910    0.20700    0.00000    1.000
    Zn13     Zn       0.86141    0.68016    0.50000    1.000
    N109     N        0.81600    0.75070    0.50000    1.000
    O13      O        0.94090    0.70700    0.50000    1.000
    Zn14     Zn       0.36141    0.18016    0.00000    1.000
    N110     N        0.31600    0.25070    0.00000    1.000
    O14      O        0.44090    0.20700    0.00000    1.000
    Zn15     Zn       0.86141    0.31984    0.50000    1.000
    N111     N        0.81600    0.24930    0.50000    1.000
    O15      O        0.94090    0.29300    0.50000    1.000
    Zn16     Zn       0.36141    0.81984    0.00000    1.000
    N112     N        0.31600    0.74930    0.00000    1.000
    O16      O        0.44090    0.79300    0.00000    1.000
    Zn17     Zn       0.50000    0.13859    0.31984    1.000
    N113     N        0.50000    0.18400    0.24930    1.000
    O17      O        0.50000    0.05910    0.29300    1.000
    Zn18     Zn       0.00000    0.63859    0.81984    1.000
    N114     N        0.00000    0.68400    0.74930    1.000
    O18      O        0.00000    0.55910    0.79300    1.000
    Zn19     Zn       0.50000    0.13859    0.68016    1.000
    N115     N        0.50000    0.18400    0.75070    1.000
    O19      O        0.50000    0.05910    0.70700    1.000
    Zn20     Zn       0.00000    0.63859    0.18016    1.000
    N116     N        0.00000    0.68400    0.25070    1.000
    O20      O        0.00000    0.55910    0.20700    1.000
    Zn21     Zn       0.50000    0.86141    0.68016    1.000
    N117     N        0.50000    0.81600    0.75070    1.000
    O21      O        0.50000    0.94090    0.70700    1.000
    Zn22     Zn       0.00000    0.36141    0.18016    1.000
    N118     N        0.00000    0.31600    0.25070    1.000
    O22      O        0.00000    0.44090    0.20700    1.000
    Zn23     Zn       0.50000    0.86141    0.31984    1.000
    N119     N        0.50000    0.81600    0.24930    1.000
    O23      O        0.50000    0.94090    0.29300    1.000
    Zn24     Zn       0.00000    0.36141    0.81984    1.000
    N120     N        0.00000    0.31600    0.74930    1.000
    O24      O        0.00000    0.44090    0.79300    1.000
    Zn25     Zn       0.50000    0.31984    0.86141    1.000
    N121     N        0.50000    0.24930    0.81600    1.000
    O25      O        0.50000    0.29300    0.94090    1.000
    Zn26     Zn       0.00000    0.81984    0.36141    1.000
    N122     N        0.00000    0.74930    0.31600    1.000
    O26      O        0.00000    0.79300    0.44090    1.000
    Zn27     Zn       0.50000    0.68016    0.86141    1.000
    N123     N        0.50000    0.75070    0.81600    1.000
    O27      O        0.50000    0.70700    0.94090    1.000
    Zn28     Zn       0.00000    0.18016    0.36141    1.000
    N124     N        0.00000    0.25070    0.31600    1.000
    O28      O        0.00000    0.20700    0.44090    1.000
    Zn29     Zn       0.50000    0.68016    0.13859    1.000
    N125     N        0.50000    0.75070    0.18400    1.000
    O29      O        0.50000    0.70700    0.05910    1.000
    Zn30     Zn       0.00000    0.18016    0.63859    1.000
    N126     N        0.00000    0.25070    0.68400    1.000
    O30      O        0.00000    0.20700    0.55910    1.000
    Zn31     Zn       0.50000    0.31984    0.13859    1.000
    N127     N        0.50000    0.24930    0.18400    1.000
    O31      O        0.50000    0.29300    0.05910    1.000
    Zn32     Zn       0.00000    0.81984    0.63859    1.000
    N128     N        0.00000    0.74930    0.68400    1.000
    O32      O        0.00000    0.79300    0.55910    1.000
    Zn33     Zn       0.31984    0.13859    0.50000    1.000
    N129     N        0.24930    0.18400    0.50000    1.000
    O33      O        0.29300    0.05910    0.50000    1.000
    Zn34     Zn       0.81984    0.63859    0.00000    1.000
    N130     N        0.74930    0.68400    0.00000    1.000
    O34      O        0.79300    0.55910    0.00000    1.000
    Zn35     Zn       0.68016    0.13859    0.50000    1.000
    N131     N        0.75070    0.18400    0.50000    1.000
    O35      O        0.70700    0.05910    0.50000    1.000
    Zn36     Zn       0.18016    0.63859    0.00000    1.000
    N132     N        0.25070    0.68400    0.00000    1.000
    O36      O        0.20700    0.55910    0.00000    1.000
    Zn37     Zn       0.68016    0.86141    0.50000    1.000
    N133     N        0.75070    0.81600    0.50000    1.000
    O37      O        0.70700    0.94090    0.50000    1.000
    Zn38     Zn       0.18016    0.36141    0.00000    1.000
    N134     N        0.25070    0.31600    0.00000    1.000
    O38      O        0.20700    0.44090    0.00000    1.000
    Zn39     Zn       0.31984    0.86141    0.50000    1.000
    N135     N        0.24930    0.81600    0.50000    1.000
    O39      O        0.29300    0.94090    0.50000    1.000
    Zn40     Zn       0.81984    0.36141    0.00000    1.000
    N136     N        0.74930    0.31600    0.00000    1.000
    O40      O        0.79300    0.44090    0.00000    1.000
    Zn41     Zn       0.13859    0.50000    0.68016    1.000
    N137     N        0.18400    0.50000    0.75070    1.000
    O41      O        0.05910    0.50000    0.70700    1.000
    Zn42     Zn       0.63859    0.00000    0.18016    1.000
    N138     N        0.68400    0.00000    0.25070    1.000
    O42      O        0.55910    0.00000    0.20700    1.000
    Zn43     Zn       0.13859    0.50000    0.31984    1.000
    N139     N        0.18400    0.50000    0.24930    1.000
    O43      O        0.05910    0.50000    0.29300    1.000
    Zn44     Zn       0.63859    0.00000    0.81984    1.000
    N140     N        0.68400    0.00000    0.74930    1.000
    O44      O        0.55910    0.00000    0.79300    1.000
    Zn45     Zn       0.86141    0.50000    0.31984    1.000
    N141     N        0.81600    0.50000    0.24930    1.000
    O45      O        0.94090    0.50000    0.29300    1.000
    Zn46     Zn       0.36141    0.00000    0.81984    1.000
    N142     N        0.31600    0.00000    0.74930    1.000
    O46      O        0.44090    0.00000    0.79300    1.000
    Zn47     Zn       0.86141    0.50000    0.68016    1.000
    N143     N        0.81600    0.50000    0.75070    1.000
    O47      O        0.94090    0.50000    0.70700    1.000
    Zn48     Zn       0.36141    0.00000    0.18016    1.000
    N144     N        0.31600    0.00000    0.25070    1.000
    O48      O        0.44090    0.00000    0.20700    1.000
    C193     C        0.22930    0.50000    0.22930    1.000
    C194     C        0.72930    0.00000    0.72930    1.000
    C195     C        0.77070    0.50000    0.22930    1.000
    C196     C        0.27070    0.00000    0.72930    1.000
    C197     C        0.77070    0.50000    0.77070    1.000
    C198     C        0.27070    0.00000    0.27070    1.000
    C199     C        0.22930    0.50000    0.77070    1.000
    C200     C        0.72930    0.00000    0.27070    1.000
    C201     C        0.22930    0.22930    0.50000    1.000
    C202     C        0.72930    0.72930    0.00000    1.000
    C203     C        0.22930    0.77070    0.50000    1.000
    C204     C        0.72930    0.27070    0.00000    1.000
    C205     C        0.77070    0.77070    0.50000    1.000
    C206     C        0.27070    0.27070    0.00000    1.000
    C207     C        0.77070    0.22930    0.50000    1.000
    C208     C        0.27070    0.72930    0.00000    1.000
    C209     C        0.50000    0.22930    0.22930    1.000
    C210     C        0.00000    0.72930    0.72930    1.000
    C211     C        0.50000    0.22930    0.77070    1.000
    C212     C        0.00000    0.72930    0.27070    1.000
    C213     C        0.50000    0.77070    0.77070    1.000
    C214     C        0.00000    0.27070    0.27070    1.000
    C215     C        0.50000    0.77070    0.22930    1.000
    C216     C        0.00000    0.27070    0.72930    1.000
    C217     C        0.40910    0.40910    0.13880    1.000
    C218     C        0.90910    0.90910    0.63880    1.000
    C219     C        0.59090    0.59090    0.13880    1.000
    C220     C        0.09090    0.09090    0.63880    1.000
    C221     C        0.59090    0.40910    0.86120    1.000
    C222     C        0.09090    0.90910    0.36120    1.000
    C223     C        0.40910    0.59090    0.86120    1.000
    C224     C        0.90910    0.09090    0.36120    1.000
    C225     C        0.13880    0.40910    0.40910    1.000
    C226     C        0.63880    0.90910    0.90910    1.000
    C227     C        0.13880    0.59090    0.59090    1.000
    C228     C        0.63880    0.09090    0.09090    1.000
    C229     C        0.86120    0.59090    0.40910    1.000
    C230     C        0.36120    0.09090    0.90910    1.000
    C231     C        0.86120    0.40910    0.59090    1.000
    C232     C        0.36120    0.90910    0.09090    1.000
    C233     C        0.40910    0.13880    0.40910    1.000
    C234     C        0.90910    0.63880    0.90910    1.000
    C235     C        0.59090    0.13880    0.59090    1.000
    C236     C        0.09090    0.63880    0.09090    1.000
    C237     C        0.40910    0.86120    0.59090    1.000
    C238     C        0.90910    0.36120    0.09090    1.000
    C239     C        0.59090    0.86120    0.40910    1.000
    C240     C        0.09090    0.36120    0.90910    1.000
    C241     C        0.40910    0.40910    0.86120    1.000
    C242     C        0.90910    0.90910    0.36120    1.000
    C243     C        0.59090    0.59090    0.86120    1.000
    C244     C        0.09090    0.09090    0.36120    1.000
    C245     C        0.40910    0.59090    0.13880    1.000
    C246     C        0.90910    0.09090    0.63880    1.000
    C247     C        0.59090    0.40910    0.13880    1.000
    C248     C        0.09090    0.90910    0.63880    1.000
    C249     C        0.40910    0.13880    0.59090    1.000
    C250     C        0.90910    0.63880    0.09090    1.000
    C251     C        0.59090    0.13880    0.40910    1.000
    C252     C        0.09090    0.63880    0.90910    1.000
    C253     C        0.59090    0.86120    0.59090    1.000
    C254     C        0.09090    0.36120    0.09090    1.000
    C255     C        0.40910    0.86120    0.40910    1.000
    C256     C        0.90910    0.36120    0.90910    1.000
    C257     C        0.13880    0.40910    0.59090    1.000
    C258     C        0.63880    0.90910    0.09090    1.000
    C259     C        0.13880    0.59090    0.40910    1.000
    C260     C        0.63880    0.09090    0.90910    1.000
    C261     C        0.86120    0.40910    0.40910    1.000
    C262     C        0.36120    0.90910    0.90910    1.000
    C263     C        0.86120    0.59090    0.59090    1.000
    C264     C        0.36120    0.09090    0.09090    1.000
