data_functionalizedCrystal
_audit_creation_method	'EQeq! by Chris Wilmer'
_symmetry_space_group_name_H-M	'P1'
_symmetry_Int_Tables_number	1
_symmetry_cell_setting	triclinic
loop_
_symmetry_equiv_pos_as_xyz
  x,y,z
_cell_length_a	8.5607
_cell_length_b	14.1023
_cell_length_c	20.294
_cell_angle_alpha	88.5392
_cell_angle_beta	86.4998
_cell_angle_gamma	81.2519
loop_
_atom_site_label
_atom_site_type_symbol
_atom_site_fract_x
_atom_site_fract_y
_atom_site_fract_z
_atom_site_charge
Mof_C 	C 	0.2525	0.5883	0.09227	0.387
Mof_C 	C 	0.3873	0.5362	0.04726	-0.022
Mof_C 	C 	0.4905	0.4508	0.05874	-0.034
Mof_C 	C 	0.5043	0.3876	0.1218	0.42
Mof_C 	C 	0.1271	0.9327	0.09011	0.37
Mof_C 	C 	0.9776	0.9105	0.0619	-0.033
Mof_C 	C 	0.8216	0.9566	0.07765	-0.008
Mof_C 	C 	0.7238	0.8484	0.01594	0.027
Mof_C 	C 	0.8754	0.8038	0.99791	-0.034
Mof_C 	C 	0.919	0.7211	0.9502	0.329
Mof_C 	C 	0.7823	0.0455	0.1189	0.342
Mof_C 	C 	0.5756	0.8125	0.9972	0.284
Mof_C 	C 	0.2063	0.5822	0.40344	0.384
Mof_C 	C 	0.0915	0.5353	0.45065	-0.017
Mof_C 	C 	0.9825	0.5452	0.55902	-0.031
Mof_C 	C 	0.9899	0.5999	0.62193	0.407
Mof_C 	C 	0.4927	0.0215	0.3521	0.343
Mof_C 	C 	0.4813	0.9452	0.4064	-0.002
Mof_C 	C 	0.345	0.9054	0.42695	-0.035
Mof_C 	C 	0.4957	0.7991	0.49636	-0.024
Mof_C 	C 	0.631	0.8406	0.47433	0.023
Mof_C 	C 	0.7952	0.8044	0.497	0.298
Mof_C 	C 	0.4965	0.7173	0.54468	0.329
Mof_C 	C 	0.1776	0.9331	0.40563	0.357
Mof_N 	N 	0.0714	0.5777	0.50935	-0.148
Mof_N 	N 	0.3565	0.8335	0.47182	-0.176
Mof_N 	N 	0.0006	0.8358	0.02209	-0.169
Mof_N 	N 	0.6964	0.9236	0.05561	-0.092
Mof_N 	N 	0.6216	0.9137	0.43163	-0.093
Mof_O 	O 	0.2156	0.6757	0.07924	-0.447
Mof_O 	O 	0.1857	0.5426	0.13631	-0.429
Mof_N 	N 	0.4006	0.5826	0.98907	-0.16
Mof_O 	O 	0.4383	0.4198	0.17464	-0.464
Mof_O 	O 	0.5868	0.3067	0.11474	-0.442
Mof_O 	O 	0.065	0.6882	0.94271	-0.41
Mof_O 	O 	0.8089	0.6951	0.92119	-0.271
Mof_O 	O 	0.2549	0.8912	0.06385	-0.407
Mof_O 	O 	0.1098	0.9893	0.13775	-0.42
Mof_O 	O 	0.5306	0.7443	0.03041	-0.37
Mof_O 	O 	0.4975	0.8557	0.95153	-0.35
Mof_O 	O 	0.8301	0.121	0.09551	-0.427
Mof_O 	O 	0.7021	0.039	0.17163	-0.27
Mof_O 	O 	0.2785	0.5362	0.35698	-0.428
Mof_O 	O 	0.2246	0.666	0.41849	-0.418
Mof_O 	O 	0.0332	0.6811	0.61352	-0.439
Mof_O 	O 	0.9621	0.5603	0.67619	-0.463
Mof_O 	O 	0.4455	0.0039	0.29744	-0.415
Mof_O 	O 	0.5576	0.092	0.36598	-0.266
Mof_O 	O 	0.1493	0.0005	0.36364	-0.392
Mof_O 	O 	0.0767	0.8865	0.43284	-0.418
Mof_O 	O 	0.3618	0.6906	0.5586	-0.404
Mof_O 	O 	0.6244	0.6812	0.56684	-0.254
Mof_O 	O 	0.8457	0.8405	0.54451	-0.37
Mof_O 	O 	0.8761	0.7411	0.45989	-0.356
Mof_Gd	Gd	0.27504	0.76286	0.98096	1.813
Mof_Gd	Gd	0.23167	0.48581	0.24766	1.41
Mof_Gd	Gd	0.11899	0.75955	0.51428	1.665
Mof_Gd	Gd	0.21156	0.03019	0.24149	1.22
Mof_C 	C 	0.7475	0.4117	0.90773	0.387
Mof_C 	C 	0.6127	0.4638	0.95274	-0.022
Mof_C 	C 	0.5095	0.5492	0.94126	-0.034
Mof_C 	C 	0.4957	0.6124	0.8782	0.42
Mof_C 	C 	0.8729	0.0673	0.90989	0.37
Mof_C 	C 	0.0224	0.0895	0.9381	-0.033
Mof_C 	C 	0.1784	0.0434	0.92235	-0.008
Mof_C 	C 	0.2762	0.1516	0.98406	0.027
Mof_C 	C 	0.1246	0.1962	0.00209	-0.034
Mof_C 	C 	0.081	0.2789	0.0498	0.329
Mof_C 	C 	0.2177	0.9545	0.8811	0.342
Mof_C 	C 	0.4244	0.1875	0.0028	0.284
Mof_C 	C 	0.7937	0.4178	0.59656	0.384
Mof_C 	C 	0.9085	0.4647	0.54935	-0.017
Mof_C 	C 	0.0175	0.4548	0.44098	-0.031
Mof_C 	C 	0.0101	0.4001	0.37807	0.407
Mof_C 	C 	0.5073	0.9785	0.6479	0.343
Mof_C 	C 	0.5187	0.0548	0.5936	-0.002
Mof_C 	C 	0.655	0.0946	0.57305	-0.035
Mof_C 	C 	0.5043	0.2009	0.50364	-0.024
Mof_C 	C 	0.369	0.1594	0.52567	0.023
Mof_C 	C 	0.2048	0.1956	0.503	0.298
Mof_C 	C 	0.5035	0.2827	0.45532	0.329
Mof_C 	C 	0.8224	0.0669	0.59437	0.357
Mof_N 	N 	0.9286	0.4223	0.49065	-0.148
Mof_N 	N 	0.6435	0.1665	0.52818	-0.176
Mof_N 	N 	0.9994	0.1642	0.97791	-0.169
Mof_N 	N 	0.3036	0.0764	0.94439	-0.092
Mof_N 	N 	0.3784	0.0863	0.56837	-0.093
Mof_O 	O 	0.7844	0.3243	0.92076	-0.447
Mof_O 	O 	0.8143	0.4574	0.86369	-0.429
Mof_N 	N 	0.5994	0.4174	0.01093	-0.16
Mof_O 	O 	0.5617	0.5802	0.82536	-0.464
Mof_O 	O 	0.4132	0.6933	0.88526	-0.442
Mof_O 	O 	0.935	0.3118	0.05729	-0.41
Mof_O 	O 	0.1911	0.3049	0.07881	-0.271
Mof_O 	O 	0.7451	0.1088	0.93615	-0.407
Mof_O 	O 	0.8902	0.0107	0.86225	-0.42
Mof_O 	O 	0.4694	0.2557	0.96959	-0.37
Mof_O 	O 	0.5025	0.1443	0.04847	-0.35
Mof_O 	O 	0.1699	0.879	0.90449	-0.427
Mof_O 	O 	0.2979	0.961	0.82837	-0.27
Mof_O 	O 	0.7215	0.4638	0.64302	-0.428
Mof_O 	O 	0.7754	0.334	0.58151	-0.418
Mof_O 	O 	0.9668	0.3189	0.38648	-0.439
Mof_O 	O 	0.0379	0.4397	0.32381	-0.463
Mof_O 	O 	0.5545	0.9961	0.70256	-0.415
Mof_O 	O 	0.4424	0.908	0.63402	-0.266
Mof_O 	O 	0.8507	0.9995	0.63636	-0.392
Mof_O 	O 	0.9233	0.1135	0.56716	-0.418
Mof_O 	O 	0.6382	0.3094	0.4414	-0.404
Mof_O 	O 	0.3756	0.3188	0.43316	-0.254
Mof_O 	O 	0.1543	0.1595	0.45549	-0.37
Mof_O 	O 	0.1239	0.2589	0.54011	-0.356
Mof_Gd	Gd	0.72496	0.23714	0.01904	1.813
Mof_Gd	Gd	0.76833	0.51419	0.75234	1.41
Mof_Gd	Gd	0.88101	0.24045	0.48572	1.665
Mof_Gd	Gd	0.78844	0.96981	0.75851	1.22
_end
