# CIF file generated by openbabel 3.1.0, see https://openbabel.org
data_I
_chemical_name_common 'image0'
_cell_length_a 5.954
_cell_length_b 13.521
_cell_length_c 13.942
_cell_angle_alpha 95.02
_cell_angle_beta 94.33
_cell_angle_gamma 99.72
_space_group_name_H-M_alt 'P 1'
_space_group_name_Hall 'P 1'
loop_
    _symmetry_equiv_pos_as_xyz
    x,y,z
loop_
    _atom_site_label
    _atom_site_type_symbol
    _atom_site_fract_x
    _atom_site_fract_y
    _atom_site_fract_z
    _atom_site_occupancy
    Zn1      Zn       0.27390    0.05515    0.50156    1.000
    O1       O        0.24380    0.94930    0.39390    1.000
    C1       C        0.29410    0.86250    0.39770    1.000
    O2       O        0.46080    0.84430    0.45200    1.000
    C2       C        0.14980    0.77540    0.33640    1.000
    C3       C        0.93940    0.78470    0.29250    1.000
    H1       H        0.88830    0.84760    0.29920    1.000
    C4       C        0.80250    0.70220    0.23870    1.000
    H2       H        0.65640    0.70870    0.21030    1.000
    C5       C        0.87580    0.61060    0.22600    1.000
    C6       C        0.09010    0.60240    0.26730    1.000
    H3       H        0.14470    0.54060    0.25730    1.000
    C7       C        0.22600    0.68410    0.32330    1.000
    H4       H        0.37120    0.67740    0.35260    1.000
    C8       C        0.72260    0.51800    0.17200    1.000
    H5       H        0.65840    0.47300    0.21930    1.000
    H6       H        0.59350    0.53920    0.13500    1.000
    N1       N        0.84490    0.46290    0.10650    1.000
    C9       C        0.72150    0.35770    0.08280    1.000
    H7       H        0.77170    0.32880    0.02200    1.000
    H8       H        0.55530    0.35780    0.07220    1.000
    C10      C        0.76450    0.29270    0.16200    1.000
    C11      C        0.98410    0.30340    0.21100    1.000
    H9       H        0.10530    0.35170    0.19340    1.000
    C12      C        0.02510    0.24580    0.28290    1.000
    H10      H        0.17310    0.25620    0.31670    1.000
    C13      C        0.85210    0.17050    0.30830    1.000
    C14      C        0.63570    0.15970    0.26100    1.000
    H11      H        0.51610    0.10990    0.27750    1.000
    C15      C        0.59210    0.22040    0.19010    1.000
    H12      H        0.44130    0.21290    0.15950    1.000
    C16      C        0.90090    0.10680    0.38490    1.000
    O3       O        0.07710    0.13750    0.44360    1.000
    O4       O        0.76810    0.02180    0.38680    1.000
    C17      C        0.89590    0.51520    0.02180    1.000
    H13      H        0.92510    0.58890    0.04030    1.000
    H14      H        0.76220    0.49890    0.97290    1.000
    Zn2      Zn       0.72610    0.94485    0.49844    1.000
    O5       O        0.75620    0.05070    0.60610    1.000
    C18      C        0.70590    0.13750    0.60230    1.000
    O6       O        0.53920    0.15570    0.54800    1.000
    C19      C        0.85020    0.22460    0.66360    1.000
    C20      C        0.06060    0.21530    0.70750    1.000
    H15      H        0.11170    0.15240    0.70080    1.000
    C21      C        0.19750    0.29780    0.76130    1.000
    H16      H        0.34360    0.29130    0.78970    1.000
    C22      C        0.12420    0.38940    0.77400    1.000
    C23      C        0.90990    0.39760    0.73270    1.000
    H17      H        0.85530    0.45940    0.74270    1.000
    C24      C        0.77400    0.31590    0.67670    1.000
    H18      H        0.62880    0.32260    0.64740    1.000
    C25      C        0.27740    0.48200    0.82800    1.000
    H19      H        0.34160    0.52700    0.78070    1.000
    H20      H        0.40650    0.46080    0.86500    1.000
    N2       N        0.15510    0.53710    0.89350    1.000
    C26      C        0.27850    0.64230    0.91720    1.000
    H21      H        0.22830    0.67120    0.97800    1.000
    H22      H        0.44470    0.64220    0.92780    1.000
    C27      C        0.23550    0.70730    0.83800    1.000
    C28      C        0.01590    0.69660    0.78900    1.000
    H23      H        0.89470    0.64830    0.80660    1.000
    C29      C        0.97490    0.75420    0.71710    1.000
    H24      H        0.82690    0.74380    0.68330    1.000
    C30      C        0.14790    0.82950    0.69170    1.000
    C31      C        0.36430    0.84030    0.73900    1.000
    H25      H        0.48390    0.89010    0.72250    1.000
    C32      C        0.40790    0.77960    0.80990    1.000
    H26      H        0.55870    0.78710    0.84050    1.000
    C33      C        0.09910    0.89320    0.61510    1.000
    O7       O        0.92290    0.86250    0.55640    1.000
    O8       O        0.23190    0.97820    0.61320    1.000
    C34      C        0.10410    0.48480    0.97820    1.000
    H27      H        0.07490    0.41110    0.95970    1.000
    H28      H        0.23780    0.50110    0.02710    1.000
