data_functionalizedCrystal
_audit_creation_method	'EQeq! by Chris Wilmer'
_symmetry_space_group_name_H-M	'P1'
_symmetry_Int_Tables_number	1
_symmetry_cell_setting	triclinic
loop_
_symmetry_equiv_pos_as_xyz
  x,y,z
_cell_length_a	22.6655
_cell_length_b	18.8656
_cell_length_c	24.6036
_cell_angle_alpha	90
_cell_angle_beta	107.228
_cell_angle_gamma	90
loop_
_atom_site_label
_atom_site_type_symbol
_atom_site_fract_x
_atom_site_fract_y
_atom_site_fract_z
_atom_site_charge
Mof_Ag	Ag	0.23663	0.59538	0.94711	0.592
Mof_Ag	Ag	0.06788	0.07225	0.52235	0.476
Mof_Ag	Ag	0.8341	0.72747	0.48353	0.615
Mof_Cl	Cl	0.3102	0.67396	0.0314	-0.604
Mof_C 	C 	0.2301	0.5898	0.8234	0.076
Mof_H 	H 	0.2346	0.5422	0.8336	-0.018
Mof_C 	C 	0.2239	0.6079	0.7682	-0.141
Mof_H 	H 	0.2238	0.5733	0.7413	0.086
Mof_C 	C 	0.2176	0.6793	0.7528	0.065
Mof_C 	C 	0.2187	0.7293	0.7941	-0.151
Mof_H 	H 	0.216	0.7775	0.7855	0.085
Mof_C 	C 	0.224	0.7057	0.8487	0.089
Mof_H 	H 	0.2232	0.7392	0.8762	-0.026
Mof_C 	C 	0.1941	0.5576	0.4724	0.082
Mof_H 	H 	0.1805	0.5628	0.433	-0.013
Mof_C 	C 	0.1839	0.6132	0.5059	-0.139
Mof_H 	H 	0.162	0.6532	0.4892	0.081
Mof_C 	C 	0.2069	0.6075	0.5639	0.061
Mof_C 	C 	0.2371	0.546	0.5871	-0.13
Mof_H 	H 	0.252	0.5404	0.6264	0.08
Mof_C 	C 	0.2448	0.4931	0.5513	0.067
Mof_H 	H 	0.2664	0.4526	0.5673	0.005
Mof_C 	C 	0.1386	0.9696	0.6139	0.085
Mof_H 	H 	0.1336	0.0051	0.6384	-0.03
Mof_C 	C 	0.1617	0.9059	0.6369	-0.153
Mof_H 	H 	0.1725	0.8987	0.6761	0.083
Mof_C 	C 	0.1685	0.8524	0.601	0.063
Mof_C 	C 	0.1545	0.8673	0.5425	-0.14
Mof_H 	H 	0.16	0.8331	0.5171	0.083
Mof_C 	C 	0.1325	0.9339	0.5237	0.07
Mof_H 	H 	0.124	0.9444	0.4852	-0.024
Mof_C 	C 	0.2094	0.6988	0.693	0.094
Mof_C 	C 	0.2021	0.6647	0.6036	0.099
Mof_C 	C 	0.1862	0.7778	0.6214	0.097
Mof_C 	C 	0.0023	0.1562	0.4183	0.087
Mof_H 	H 	0.0106	0.1157	0.4003	-0.023
Mof_C 	C 	0.9806	0.2148	0.3868	-0.152
Mof_H 	H 	0.9751	0.2144	0.3478	0.088
Mof_C 	C 	0.9667	0.2743	0.4118	0.069
Mof_C 	C 	0.9724	0.2728	0.4699	-0.151
Mof_H 	H 	0.961	0.3115	0.4879	0.085
Mof_C 	C 	0.9955	0.2117	0.4996	0.078
Mof_H 	H 	0.9996	0.2099	0.5383	-0.028
Mof_C 	C 	0.9203	0.4497	0.1448	0.07
Mof_H 	H 	0.9224	0.4909	0.1248	0.002
Mof_C 	C 	0.9232	0.4558	0.2013	-0.137
Mof_H 	H 	0.9253	0.4998	0.2187	0.08
Mof_C 	C 	0.9227	0.3932	0.2315	0.067
Mof_C 	C 	0.92	0.3303	0.2052	-0.136
Mof_H 	H 	0.9215	0.2883	0.2253	0.086
Mof_C 	C 	0.9148	0.3292	0.1475	0.076
Mof_H 	H 	0.9114	0.2855	0.1294	-0.002
Mof_C 	C 	0.898	0.5866	0.4786	0.076
Mof_H 	H 	0.9109	0.5928	0.5179	-0.013
Mof_C 	C 	0.9166	0.5266	0.4556	-0.132
Mof_H 	H 	0.941	0.4927	0.4794	0.081
Mof_C 	C 	0.8988	0.517	0.3971	0.057
Mof_C 	C 	0.8613	0.5692	0.3633	-0.139
Mof_H 	H 	0.8478	0.5646	0.3239	0.08
Mof_C 	C 	0.8448	0.6277	0.3896	0.082
Mof_H 	H 	0.8207	0.6627	0.367	-0.022
Mof_C 	C 	0.9456	0.3401	0.3779	0.099
Mof_C 	C 	0.9252	0.396	0.2944	0.104
Mof_C 	C 	0.9166	0.4539	0.3707	0.1
Mof_N 	N 	0.2301	0.6386	0.8638	-0.221
Mof_N 	N 	0.2225	0.4972	0.494	-0.205
Mof_N 	N 	0.1231	0.984	0.559	-0.224
Mof_N 	N 	0.1981	0.7668	0.6775	-0.14
Mof_N 	N 	0.2112	0.6462	0.6572	-0.14
Mof_N 	N 	0.1873	0.73	0.5824	-0.141
Mof_N 	N 	0.0121	0.1552	0.4752	-0.217
Mof_N 	N 	0.9146	0.3873	0.117	-0.158
Mof_N 	N 	0.862	0.6359	0.4459	-0.221
Mof_N 	N 	0.9351	0.3982	0.4045	-0.139
Mof_N 	N 	0.9396	0.335	0.3222	-0.139
Mof_N 	N 	0.9123	0.4565	0.3154	-0.143
Mof_Ag	Ag	0.73663	0.09538	0.94711	0.588
Mof_Ag	Ag	0.56788	0.57225	0.52235	0.475
Mof_Ag	Ag	0.3341	0.22747	0.48353	0.614
Mof_Cl	Cl	0.8102	0.17396	0.0314	-0.603
Mof_C 	C 	0.7301	0.0898	0.8234	0.075
Mof_H 	H 	0.7346	0.0422	0.8336	-0.019
Mof_C 	C 	0.7239	0.1079	0.7682	-0.142
Mof_H 	H 	0.7238	0.0733	0.7413	0.085
Mof_C 	C 	0.7176	0.1793	0.7528	0.064
Mof_C 	C 	0.7187	0.2293	0.7941	-0.152
Mof_H 	H 	0.716	0.2775	0.7855	0.084
Mof_C 	C 	0.724	0.2057	0.8487	0.088
Mof_H 	H 	0.7232	0.2392	0.8762	-0.026
Mof_C 	C 	0.6941	0.0576	0.4724	0.082
Mof_H 	H 	0.6805	0.0628	0.433	-0.013
Mof_C 	C 	0.6839	0.1132	0.5059	-0.139
Mof_H 	H 	0.662	0.1532	0.4892	0.081
Mof_C 	C 	0.7069	0.1075	0.5639	0.061
Mof_C 	C 	0.7371	0.046	0.5871	-0.13
Mof_H 	H 	0.752	0.0404	0.6264	0.08
Mof_C 	C 	0.7448	0.9931	0.5513	0.067
Mof_H 	H 	0.7664	0.9526	0.5673	0.005
Mof_C 	C 	0.6386	0.4696	0.6139	0.084
Mof_H 	H 	0.6336	0.5051	0.6384	-0.029
Mof_C 	C 	0.6617	0.4059	0.6369	-0.152
Mof_H 	H 	0.6725	0.3987	0.6761	0.083
Mof_C 	C 	0.6685	0.3524	0.601	0.063
Mof_C 	C 	0.6545	0.3673	0.5425	-0.14
Mof_H 	H 	0.66	0.3331	0.5171	0.083
Mof_C 	C 	0.6325	0.4339	0.5237	0.07
Mof_H 	H 	0.624	0.4444	0.4852	-0.024
Mof_C 	C 	0.7094	0.1988	0.693	0.094
Mof_C 	C 	0.7021	0.1647	0.6036	0.099
Mof_C 	C 	0.6862	0.2778	0.6214	0.097
Mof_C 	C 	0.5023	0.6562	0.4183	0.087
Mof_H 	H 	0.5106	0.6157	0.4003	-0.023
Mof_C 	C 	0.4806	0.7148	0.3868	-0.152
Mof_H 	H 	0.4751	0.7144	0.3478	0.088
Mof_C 	C 	0.4667	0.7743	0.4118	0.069
Mof_C 	C 	0.4724	0.7728	0.4699	-0.152
Mof_H 	H 	0.461	0.8115	0.4879	0.085
Mof_C 	C 	0.4955	0.7117	0.4996	0.078
Mof_H 	H 	0.4996	0.7099	0.5383	-0.028
Mof_C 	C 	0.4203	0.9497	0.1448	0.07
Mof_H 	H 	0.4224	0.9909	0.1248	0.002
Mof_C 	C 	0.4232	0.9558	0.2013	-0.137
Mof_H 	H 	0.4253	0.9998	0.2187	0.08
Mof_C 	C 	0.4227	0.8932	0.2315	0.067
Mof_C 	C 	0.42	0.8303	0.2052	-0.136
Mof_H 	H 	0.4215	0.7883	0.2253	0.086
Mof_C 	C 	0.4148	0.8292	0.1475	0.076
Mof_H 	H 	0.4114	0.7855	0.1294	-0.002
Mof_C 	C 	0.398	0.0866	0.4786	0.076
Mof_H 	H 	0.4109	0.0928	0.5179	-0.013
Mof_C 	C 	0.4166	0.0266	0.4556	-0.133
Mof_H 	H 	0.441	0.9927	0.4794	0.082
Mof_C 	C 	0.3988	0.017	0.3971	0.057
Mof_C 	C 	0.3613	0.0692	0.3633	-0.139
Mof_H 	H 	0.3478	0.0646	0.3239	0.08
Mof_C 	C 	0.3448	0.1277	0.3896	0.082
Mof_H 	H 	0.3207	0.1627	0.367	-0.022
Mof_C 	C 	0.4456	0.8401	0.3779	0.099
Mof_C 	C 	0.4252	0.896	0.2944	0.104
Mof_C 	C 	0.4166	0.9539	0.3707	0.1
Mof_N 	N 	0.7301	0.1386	0.8638	-0.22
Mof_N 	N 	0.7225	0.9972	0.494	-0.205
Mof_N 	N 	0.6231	0.484	0.559	-0.224
Mof_N 	N 	0.6981	0.2668	0.6775	-0.14
Mof_N 	N 	0.7112	0.1462	0.6572	-0.14
Mof_N 	N 	0.6873	0.23	0.5824	-0.141
Mof_N 	N 	0.5121	0.6552	0.4752	-0.217
Mof_N 	N 	0.4146	0.8873	0.117	-0.158
Mof_N 	N 	0.362	0.1359	0.4459	-0.221
Mof_N 	N 	0.4351	0.8982	0.4045	-0.139
Mof_N 	N 	0.4396	0.835	0.3222	-0.139
Mof_N 	N 	0.4123	0.9565	0.3154	-0.143
Mof_Ag	Ag	0.23663	0.40462	0.44711	0.59
Mof_Ag	Ag	0.06788	0.92775	0.02235	0.473
Mof_Ag	Ag	0.8341	0.27253	0.98353	0.613
Mof_Cl	Cl	0.3102	0.32604	0.5314	-0.604
Mof_C 	C 	0.2301	0.4102	0.3234	0.075
Mof_H 	H 	0.2346	0.4578	0.3336	-0.019
Mof_C 	C 	0.2239	0.3921	0.2682	-0.142
Mof_H 	H 	0.2238	0.4267	0.2413	0.085
Mof_C 	C 	0.2176	0.3207	0.2528	0.064
Mof_C 	C 	0.2187	0.2707	0.2941	-0.152
Mof_H 	H 	0.216	0.2225	0.2855	0.084
Mof_C 	C 	0.224	0.2943	0.3487	0.088
Mof_H 	H 	0.2232	0.2608	0.3762	-0.026
Mof_C 	C 	0.1941	0.4424	0.9724	0.084
Mof_H 	H 	0.1805	0.4372	0.933	-0.013
Mof_C 	C 	0.1839	0.3868	0.0059	-0.141
Mof_H 	H 	0.162	0.3468	0.9892	0.083
Mof_C 	C 	0.2069	0.3925	0.0639	0.062
Mof_C 	C 	0.2371	0.454	0.0871	-0.13
Mof_H 	H 	0.252	0.4596	0.1264	0.08
Mof_C 	C 	0.2448	0.5069	0.0513	0.067
Mof_H 	H 	0.2664	0.5474	0.0673	0.005
Mof_C 	C 	0.1386	0.0304	0.1139	0.086
Mof_H 	H 	0.1336	0.9949	0.1384	-0.03
Mof_C 	C 	0.1617	0.0941	0.1369	-0.153
Mof_H 	H 	0.1725	0.1013	0.1761	0.083
Mof_C 	C 	0.1685	0.1476	0.101	0.063
Mof_C 	C 	0.1545	0.1327	0.0425	-0.14
Mof_H 	H 	0.16	0.1669	0.0171	0.083
Mof_C 	C 	0.1325	0.0661	0.0237	0.07
Mof_H 	H 	0.124	0.0556	0.9852	-0.024
Mof_C 	C 	0.2094	0.3012	0.193	0.095
Mof_C 	C 	0.2021	0.3353	0.1036	0.099
Mof_C 	C 	0.1862	0.2222	0.1214	0.097
Mof_C 	C 	0.0023	0.8438	0.9183	0.089
Mof_H 	H 	0.0106	0.8843	0.9003	-0.023
Mof_C 	C 	0.9806	0.7852	0.8868	-0.154
Mof_H 	H 	0.9751	0.7856	0.8478	0.089
Mof_C 	C 	0.9667	0.7257	0.9118	0.069
Mof_C 	C 	0.9724	0.7272	0.9699	-0.151
Mof_H 	H 	0.961	0.6885	0.9879	0.085
Mof_C 	C 	0.9955	0.7883	0.9996	0.075
Mof_H 	H 	0.9996	0.7901	0.0383	-0.027
Mof_C 	C 	0.9203	0.5503	0.6448	0.069
Mof_H 	H 	0.9224	0.5091	0.6248	0.002
Mof_C 	C 	0.9232	0.5442	0.7013	-0.137
Mof_H 	H 	0.9253	0.5002	0.7187	0.08
Mof_C 	C 	0.9227	0.6068	0.7315	0.067
Mof_C 	C 	0.92	0.6697	0.7052	-0.136
Mof_H 	H 	0.9215	0.7117	0.7253	0.086
Mof_C 	C 	0.9148	0.6708	0.6475	0.076
Mof_H 	H 	0.9114	0.7145	0.6294	-0.002
Mof_C 	C 	0.898	0.4134	0.9786	0.073
Mof_H 	H 	0.9109	0.4072	0.0179	-0.011
Mof_C 	C 	0.9166	0.4734	0.9556	-0.131
Mof_H 	H 	0.941	0.5073	0.9794	0.081
Mof_C 	C 	0.8988	0.483	0.8971	0.056
Mof_C 	C 	0.8613	0.4308	0.8633	-0.138
Mof_H 	H 	0.8478	0.4354	0.8239	0.08
Mof_C 	C 	0.8448	0.3723	0.8896	0.081
Mof_H 	H 	0.8207	0.3373	0.867	-0.022
Mof_C 	C 	0.9456	0.6599	0.8779	0.099
Mof_C 	C 	0.9252	0.604	0.7944	0.104
Mof_C 	C 	0.9166	0.5461	0.8707	0.1
Mof_N 	N 	0.2301	0.3614	0.3638	-0.22
Mof_N 	N 	0.2225	0.5028	0.994	-0.205
Mof_N 	N 	0.1231	0.016	0.059	-0.224
Mof_N 	N 	0.1981	0.2332	0.1775	-0.14
Mof_N 	N 	0.2112	0.3538	0.1572	-0.14
Mof_N 	N 	0.1873	0.27	0.0824	-0.141
Mof_N 	N 	0.0121	0.8448	0.9752	-0.216
Mof_N 	N 	0.9146	0.6127	0.617	-0.158
Mof_N 	N 	0.862	0.3641	0.9459	-0.22
Mof_N 	N 	0.9351	0.6018	0.9045	-0.14
Mof_N 	N 	0.9396	0.665	0.8222	-0.139
Mof_N 	N 	0.9123	0.5435	0.8154	-0.143
Mof_Ag	Ag	0.73663	0.90462	0.44711	0.59
Mof_Ag	Ag	0.56788	0.42775	0.02235	0.476
Mof_Ag	Ag	0.3341	0.77253	0.98353	0.616
Mof_Cl	Cl	0.8102	0.82604	0.5314	-0.604
Mof_C 	C 	0.7301	0.9102	0.3234	0.075
Mof_H 	H 	0.7346	0.9578	0.3336	-0.019
Mof_C 	C 	0.7239	0.8921	0.2682	-0.142
Mof_H 	H 	0.7238	0.9267	0.2413	0.085
Mof_C 	C 	0.7176	0.8207	0.2528	0.064
Mof_C 	C 	0.7187	0.7707	0.2941	-0.152
Mof_H 	H 	0.716	0.7225	0.2855	0.084
Mof_C 	C 	0.724	0.7943	0.3487	0.088
Mof_H 	H 	0.7232	0.7608	0.3762	-0.026
Mof_C 	C 	0.6941	0.9424	0.9724	0.085
Mof_H 	H 	0.6805	0.9372	0.933	-0.014
Mof_C 	C 	0.6839	0.8868	0.0059	-0.141
Mof_H 	H 	0.662	0.8468	0.9892	0.083
Mof_C 	C 	0.7069	0.8925	0.0639	0.063
Mof_C 	C 	0.7371	0.954	0.0871	-0.133
Mof_H 	H 	0.752	0.9596	0.1264	0.081
Mof_C 	C 	0.7448	0.0069	0.0513	0.071
Mof_H 	H 	0.7664	0.0474	0.0673	0.004
Mof_C 	C 	0.6386	0.5304	0.1139	0.084
Mof_H 	H 	0.6336	0.4949	0.1384	-0.029
Mof_C 	C 	0.6617	0.5941	0.1369	-0.152
Mof_H 	H 	0.6725	0.6013	0.1761	0.083
Mof_C 	C 	0.6685	0.6476	0.101	0.063
Mof_C 	C 	0.6545	0.6327	0.0425	-0.14
Mof_H 	H 	0.66	0.6669	0.0171	0.083
Mof_C 	C 	0.6325	0.5661	0.0237	0.07
Mof_H 	H 	0.624	0.5556	0.9852	-0.024
Mof_C 	C 	0.7094	0.8012	0.193	0.094
Mof_C 	C 	0.7021	0.8353	0.1036	0.098
Mof_C 	C 	0.6862	0.7222	0.1214	0.097
Mof_C 	C 	0.5023	0.3438	0.9183	0.087
Mof_H 	H 	0.5106	0.3843	0.9003	-0.023
Mof_C 	C 	0.4806	0.2852	0.8868	-0.152
Mof_H 	H 	0.4751	0.2856	0.8478	0.088
Mof_C 	C 	0.4667	0.2257	0.9118	0.069
Mof_C 	C 	0.4724	0.2272	0.9699	-0.151
Mof_H 	H 	0.461	0.1885	0.9879	0.085
Mof_C 	C 	0.4955	0.2883	0.9996	0.077
Mof_H 	H 	0.4996	0.2901	0.0383	-0.028
Mof_C 	C 	0.4203	0.0503	0.6448	0.069
Mof_H 	H 	0.4224	0.0091	0.6248	0.002
Mof_C 	C 	0.4232	0.0442	0.7013	-0.137
Mof_H 	H 	0.4253	0.0002	0.7187	0.08
Mof_C 	C 	0.4227	0.1068	0.7315	0.067
Mof_C 	C 	0.42	0.1697	0.7052	-0.136
Mof_H 	H 	0.4215	0.2117	0.7253	0.086
Mof_C 	C 	0.4148	0.1708	0.6475	0.076
Mof_H 	H 	0.4114	0.2145	0.6294	-0.002
Mof_C 	C 	0.398	0.9134	0.9786	0.077
Mof_H 	H 	0.4109	0.9072	0.0179	-0.014
Mof_C 	C 	0.4166	0.9734	0.9556	-0.132
Mof_H 	H 	0.441	0.0073	0.9794	0.081
Mof_C 	C 	0.3988	0.983	0.8971	0.057
Mof_C 	C 	0.3613	0.9308	0.8633	-0.139
Mof_H 	H 	0.3478	0.9354	0.8239	0.08
Mof_C 	C 	0.3448	0.8723	0.8896	0.082
Mof_H 	H 	0.3207	0.8373	0.867	-0.022
Mof_C 	C 	0.4456	0.1599	0.8779	0.099
Mof_C 	C 	0.4252	0.104	0.7944	0.104
Mof_C 	C 	0.4166	0.0461	0.8707	0.1
Mof_N 	N 	0.7301	0.8614	0.3638	-0.22
Mof_N 	N 	0.7225	0.0028	0.994	-0.207
Mof_N 	N 	0.6231	0.516	0.059	-0.224
Mof_N 	N 	0.6981	0.7332	0.1775	-0.14
Mof_N 	N 	0.7112	0.8538	0.1572	-0.14
Mof_N 	N 	0.6873	0.77	0.0824	-0.141
Mof_N 	N 	0.5121	0.3448	0.9752	-0.217
Mof_N 	N 	0.4146	0.1127	0.617	-0.158
Mof_N 	N 	0.362	0.8641	0.9459	-0.221
Mof_N 	N 	0.4351	0.1018	0.9045	-0.139
Mof_N 	N 	0.4396	0.165	0.8222	-0.139
Mof_N 	N 	0.4123	0.0435	0.8154	-0.143
Mof_Ag	Ag	0.76337	0.59538	0.55289	0.59
Mof_Ag	Ag	0.93212	0.07225	0.97765	0.473
Mof_Ag	Ag	0.1659	0.72747	0.01647	0.613
Mof_Cl	Cl	0.6898	0.67396	0.4686	-0.604
Mof_C 	C 	0.7699	0.5898	0.6766	0.075
Mof_H 	H 	0.7654	0.5422	0.6664	-0.019
Mof_C 	C 	0.7761	0.6079	0.7318	-0.142
Mof_H 	H 	0.7762	0.5733	0.7587	0.085
Mof_C 	C 	0.7824	0.6793	0.7472	0.064
Mof_C 	C 	0.7813	0.7293	0.7059	-0.152
Mof_H 	H 	0.784	0.7775	0.7145	0.084
Mof_C 	C 	0.776	0.7057	0.6513	0.088
Mof_H 	H 	0.7768	0.7392	0.6238	-0.026
Mof_C 	C 	0.8059	0.5576	0.0276	0.084
Mof_H 	H 	0.8195	0.5628	0.067	-0.013
Mof_C 	C 	0.8161	0.6132	0.9941	-0.141
Mof_H 	H 	0.838	0.6532	0.0108	0.083
Mof_C 	C 	0.7931	0.6075	0.9361	0.062
Mof_C 	C 	0.7629	0.546	0.9129	-0.13
Mof_H 	H 	0.748	0.5404	0.8736	0.08
Mof_C 	C 	0.7552	0.4931	0.9487	0.067
Mof_H 	H 	0.7336	0.4526	0.9327	0.005
Mof_C 	C 	0.8614	0.9696	0.8861	0.086
Mof_H 	H 	0.8664	0.0051	0.8616	-0.03
Mof_C 	C 	0.8383	0.9059	0.8631	-0.153
Mof_H 	H 	0.8275	0.8987	0.8239	0.083
Mof_C 	C 	0.8315	0.8524	0.899	0.063
Mof_C 	C 	0.8455	0.8673	0.9575	-0.14
Mof_H 	H 	0.84	0.8331	0.9829	0.083
Mof_C 	C 	0.8675	0.9339	0.9763	0.07
Mof_H 	H 	0.876	0.9444	0.0148	-0.024
Mof_C 	C 	0.7906	0.6988	0.807	0.095
Mof_C 	C 	0.7979	0.6647	0.8964	0.099
Mof_C 	C 	0.8138	0.7778	0.8786	0.097
Mof_C 	C 	0.9977	0.1562	0.0817	0.089
Mof_H 	H 	0.9894	0.1157	0.0997	-0.023
Mof_C 	C 	0.0194	0.2148	0.1132	-0.154
Mof_H 	H 	0.0249	0.2144	0.1522	0.089
Mof_C 	C 	0.0333	0.2743	0.0882	0.069
Mof_C 	C 	0.0276	0.2728	0.0301	-0.151
Mof_H 	H 	0.039	0.3115	0.0121	0.085
Mof_C 	C 	0.0045	0.2117	0.0004	0.075
Mof_H 	H 	0.0004	0.2099	0.9617	-0.027
Mof_C 	C 	0.0797	0.4497	0.3552	0.069
Mof_H 	H 	0.0776	0.4909	0.3752	0.002
Mof_C 	C 	0.0768	0.4558	0.2987	-0.137
Mof_H 	H 	0.0747	0.4998	0.2813	0.08
Mof_C 	C 	0.0773	0.3932	0.2685	0.067
Mof_C 	C 	0.08	0.3303	0.2948	-0.136
Mof_H 	H 	0.0785	0.2883	0.2747	0.086
Mof_C 	C 	0.0852	0.3292	0.3525	0.076
Mof_H 	H 	0.0886	0.2855	0.3706	-0.002
Mof_C 	C 	0.102	0.5866	0.0214	0.073
Mof_H 	H 	0.0891	0.5928	0.9821	-0.011
Mof_C 	C 	0.0834	0.5266	0.0444	-0.131
Mof_H 	H 	0.059	0.4927	0.0206	0.081
Mof_C 	C 	0.1012	0.517	0.1029	0.056
Mof_C 	C 	0.1387	0.5692	0.1367	-0.138
Mof_H 	H 	0.1522	0.5646	0.1761	0.08
Mof_C 	C 	0.1552	0.6277	0.1104	0.081
Mof_H 	H 	0.1793	0.6627	0.133	-0.022
Mof_C 	C 	0.0544	0.3401	0.1221	0.099
Mof_C 	C 	0.0748	0.396	0.2056	0.104
Mof_C 	C 	0.0834	0.4539	0.1293	0.1
Mof_N 	N 	0.7699	0.6386	0.6362	-0.22
Mof_N 	N 	0.7775	0.4972	0.006	-0.205
Mof_N 	N 	0.8769	0.984	0.941	-0.224
Mof_N 	N 	0.8019	0.7668	0.8225	-0.14
Mof_N 	N 	0.7888	0.6462	0.8428	-0.14
Mof_N 	N 	0.8127	0.73	0.9176	-0.141
Mof_N 	N 	0.9879	0.1552	0.0248	-0.216
Mof_N 	N 	0.0854	0.3873	0.383	-0.158
Mof_N 	N 	0.138	0.6359	0.0541	-0.22
Mof_N 	N 	0.0649	0.3982	0.0955	-0.14
Mof_N 	N 	0.0604	0.335	0.1778	-0.139
Mof_N 	N 	0.0877	0.4565	0.1846	-0.143
Mof_Ag	Ag	0.26337	0.09538	0.55289	0.59
Mof_Ag	Ag	0.43212	0.57225	0.97765	0.476
Mof_Ag	Ag	0.6659	0.22747	0.01647	0.616
Mof_Cl	Cl	0.1898	0.17396	0.4686	-0.604
Mof_C 	C 	0.2699	0.0898	0.6766	0.075
Mof_H 	H 	0.2654	0.0422	0.6664	-0.019
Mof_C 	C 	0.2761	0.1079	0.7318	-0.142
Mof_H 	H 	0.2762	0.0733	0.7587	0.085
Mof_C 	C 	0.2824	0.1793	0.7472	0.064
Mof_C 	C 	0.2813	0.2293	0.7059	-0.152
Mof_H 	H 	0.284	0.2775	0.7145	0.084
Mof_C 	C 	0.276	0.2057	0.6513	0.088
Mof_H 	H 	0.2768	0.2392	0.6238	-0.026
Mof_C 	C 	0.3059	0.0576	0.0276	0.085
Mof_H 	H 	0.3195	0.0628	0.067	-0.014
Mof_C 	C 	0.3161	0.1132	0.9941	-0.141
Mof_H 	H 	0.338	0.1532	0.0108	0.083
Mof_C 	C 	0.2931	0.1075	0.9361	0.063
Mof_C 	C 	0.2629	0.046	0.9129	-0.133
Mof_H 	H 	0.248	0.0404	0.8736	0.081
Mof_C 	C 	0.2552	0.9931	0.9487	0.071
Mof_H 	H 	0.2336	0.9526	0.9327	0.004
Mof_C 	C 	0.3614	0.4696	0.8861	0.084
Mof_H 	H 	0.3664	0.5051	0.8616	-0.029
Mof_C 	C 	0.3383	0.4059	0.8631	-0.152
Mof_H 	H 	0.3275	0.3987	0.8239	0.083
Mof_C 	C 	0.3315	0.3524	0.899	0.063
Mof_C 	C 	0.3455	0.3673	0.9575	-0.14
Mof_H 	H 	0.34	0.3331	0.9829	0.083
Mof_C 	C 	0.3675	0.4339	0.9763	0.07
Mof_H 	H 	0.376	0.4444	0.0148	-0.024
Mof_C 	C 	0.2906	0.1988	0.807	0.094
Mof_C 	C 	0.2979	0.1647	0.8964	0.098
Mof_C 	C 	0.3138	0.2778	0.8786	0.097
Mof_C 	C 	0.4977	0.6562	0.0817	0.087
Mof_H 	H 	0.4894	0.6157	0.0997	-0.023
Mof_C 	C 	0.5194	0.7148	0.1132	-0.152
Mof_H 	H 	0.5249	0.7144	0.1522	0.088
Mof_C 	C 	0.5333	0.7743	0.0882	0.069
Mof_C 	C 	0.5276	0.7728	0.0301	-0.151
Mof_H 	H 	0.539	0.8115	0.0121	0.085
Mof_C 	C 	0.5045	0.7117	0.0004	0.077
Mof_H 	H 	0.5004	0.7099	0.9617	-0.028
Mof_C 	C 	0.5797	0.9497	0.3552	0.069
Mof_H 	H 	0.5776	0.9909	0.3752	0.002
Mof_C 	C 	0.5768	0.9558	0.2987	-0.137
Mof_H 	H 	0.5747	0.9998	0.2813	0.08
Mof_C 	C 	0.5773	0.8932	0.2685	0.067
Mof_C 	C 	0.58	0.8303	0.2948	-0.136
Mof_H 	H 	0.5785	0.7883	0.2747	0.086
Mof_C 	C 	0.5852	0.8292	0.3525	0.076
Mof_H 	H 	0.5886	0.7855	0.3706	-0.002
Mof_C 	C 	0.602	0.0866	0.0214	0.077
Mof_H 	H 	0.5891	0.0928	0.9821	-0.014
Mof_C 	C 	0.5834	0.0266	0.0444	-0.132
Mof_H 	H 	0.559	0.9927	0.0206	0.081
Mof_C 	C 	0.6012	0.017	0.1029	0.057
Mof_C 	C 	0.6387	0.0692	0.1367	-0.139
Mof_H 	H 	0.6522	0.0646	0.1761	0.08
Mof_C 	C 	0.6552	0.1277	0.1104	0.082
Mof_H 	H 	0.6793	0.1627	0.133	-0.022
Mof_C 	C 	0.5544	0.8401	0.1221	0.099
Mof_C 	C 	0.5748	0.896	0.2056	0.104
Mof_C 	C 	0.5834	0.9539	0.1293	0.1
Mof_N 	N 	0.2699	0.1386	0.6362	-0.22
Mof_N 	N 	0.2775	0.9972	0.006	-0.207
Mof_N 	N 	0.3769	0.484	0.941	-0.224
Mof_N 	N 	0.3019	0.2668	0.8225	-0.14
Mof_N 	N 	0.2888	0.1462	0.8428	-0.14
Mof_N 	N 	0.3127	0.23	0.9176	-0.141
Mof_N 	N 	0.4879	0.6552	0.0248	-0.217
Mof_N 	N 	0.5854	0.8873	0.383	-0.158
Mof_N 	N 	0.638	0.1359	0.0541	-0.221
Mof_N 	N 	0.5649	0.8982	0.0955	-0.139
Mof_N 	N 	0.5604	0.835	0.1778	-0.139
Mof_N 	N 	0.5877	0.9565	0.1846	-0.143
Mof_Ag	Ag	0.76337	0.40462	0.05289	0.591
Mof_Ag	Ag	0.93212	0.92775	0.47765	0.475
Mof_Ag	Ag	0.1659	0.27253	0.51647	0.614
Mof_Cl	Cl	0.6898	0.32604	0.9686	-0.605
Mof_C 	C 	0.7699	0.4102	0.1766	0.075
Mof_H 	H 	0.7654	0.4578	0.1664	-0.019
Mof_C 	C 	0.7761	0.3921	0.2318	-0.142
Mof_H 	H 	0.7762	0.4267	0.2587	0.085
Mof_C 	C 	0.7824	0.3207	0.2472	0.064
Mof_C 	C 	0.7813	0.2707	0.2059	-0.152
Mof_H 	H 	0.784	0.2225	0.2145	0.084
Mof_C 	C 	0.776	0.2943	0.1513	0.088
Mof_H 	H 	0.7768	0.2608	0.1238	-0.026
Mof_C 	C 	0.8059	0.4424	0.5276	0.082
Mof_H 	H 	0.8195	0.4372	0.567	-0.013
Mof_C 	C 	0.8161	0.3868	0.4941	-0.139
Mof_H 	H 	0.838	0.3468	0.5108	0.081
Mof_C 	C 	0.7931	0.3925	0.4361	0.061
Mof_C 	C 	0.7629	0.454	0.4129	-0.13
Mof_H 	H 	0.748	0.4596	0.3736	0.08
Mof_C 	C 	0.7552	0.5069	0.4487	0.067
Mof_H 	H 	0.7336	0.5474	0.4327	0.005
Mof_C 	C 	0.8614	0.0304	0.3861	0.085
Mof_H 	H 	0.8664	0.9949	0.3616	-0.03
Mof_C 	C 	0.8383	0.0941	0.3631	-0.153
Mof_H 	H 	0.8275	0.1013	0.3239	0.083
Mof_C 	C 	0.8315	0.1476	0.399	0.063
Mof_C 	C 	0.8455	0.1327	0.4575	-0.14
Mof_H 	H 	0.84	0.1669	0.4829	0.083
Mof_C 	C 	0.8675	0.0661	0.4763	0.07
Mof_H 	H 	0.876	0.0556	0.5148	-0.024
Mof_C 	C 	0.7906	0.3012	0.307	0.094
Mof_C 	C 	0.7979	0.3353	0.3964	0.099
Mof_C 	C 	0.8138	0.2222	0.3786	0.097
Mof_C 	C 	0.9977	0.8438	0.5817	0.087
Mof_H 	H 	0.9894	0.8843	0.5997	-0.023
Mof_C 	C 	0.0194	0.7852	0.6132	-0.152
Mof_H 	H 	0.0249	0.7856	0.6522	0.088
Mof_C 	C 	0.0333	0.7257	0.5882	0.069
Mof_C 	C 	0.0276	0.7272	0.5301	-0.151
Mof_H 	H 	0.039	0.6885	0.5121	0.085
Mof_C 	C 	0.0045	0.7883	0.5004	0.078
Mof_H 	H 	0.0004	0.7901	0.4617	-0.028
Mof_C 	C 	0.0797	0.5503	0.8552	0.07
Mof_H 	H 	0.0776	0.5091	0.8752	0.002
Mof_C 	C 	0.0768	0.5442	0.7987	-0.137
Mof_H 	H 	0.0747	0.5002	0.7813	0.08
Mof_C 	C 	0.0773	0.6068	0.7685	0.067
Mof_C 	C 	0.08	0.6697	0.7948	-0.136
Mof_H 	H 	0.0785	0.7117	0.7747	0.086
Mof_C 	C 	0.0852	0.6708	0.8525	0.076
Mof_H 	H 	0.0886	0.7145	0.8706	-0.002
Mof_C 	C 	0.102	0.4134	0.5214	0.076
Mof_H 	H 	0.0891	0.4072	0.4821	-0.013
Mof_C 	C 	0.0834	0.4734	0.5444	-0.132
Mof_H 	H 	0.059	0.5073	0.5206	0.081
Mof_C 	C 	0.1012	0.483	0.6029	0.057
Mof_C 	C 	0.1387	0.4308	0.6367	-0.139
Mof_H 	H 	0.1522	0.4354	0.6761	0.08
Mof_C 	C 	0.1552	0.3723	0.6104	0.082
Mof_H 	H 	0.1793	0.3373	0.633	-0.022
Mof_C 	C 	0.0544	0.6599	0.6221	0.099
Mof_C 	C 	0.0748	0.604	0.7056	0.104
Mof_C 	C 	0.0834	0.5461	0.6293	0.1
Mof_N 	N 	0.7699	0.3614	0.1362	-0.221
Mof_N 	N 	0.7775	0.5028	0.506	-0.205
Mof_N 	N 	0.8769	0.016	0.441	-0.224
Mof_N 	N 	0.8019	0.2332	0.3225	-0.14
Mof_N 	N 	0.7888	0.3538	0.3428	-0.14
Mof_N 	N 	0.8127	0.27	0.4176	-0.141
Mof_N 	N 	0.9879	0.8448	0.5248	-0.217
Mof_N 	N 	0.0854	0.6127	0.883	-0.158
Mof_N 	N 	0.138	0.3641	0.5541	-0.221
Mof_N 	N 	0.0649	0.6018	0.5955	-0.139
Mof_N 	N 	0.0604	0.665	0.6778	-0.139
Mof_N 	N 	0.0877	0.5435	0.6846	-0.143
Mof_Ag	Ag	0.26337	0.90462	0.05289	0.588
Mof_Ag	Ag	0.43212	0.42775	0.47765	0.475
Mof_Ag	Ag	0.6659	0.77253	0.51647	0.614
Mof_Cl	Cl	0.1898	0.82604	0.9686	-0.603
Mof_C 	C 	0.2699	0.9102	0.1766	0.075
Mof_H 	H 	0.2654	0.9578	0.1664	-0.019
Mof_C 	C 	0.2761	0.8921	0.2318	-0.142
Mof_H 	H 	0.2762	0.9267	0.2587	0.085
Mof_C 	C 	0.2824	0.8207	0.2472	0.064
Mof_C 	C 	0.2813	0.7707	0.2059	-0.152
Mof_H 	H 	0.284	0.7225	0.2145	0.084
Mof_C 	C 	0.276	0.7943	0.1513	0.088
Mof_H 	H 	0.2768	0.7608	0.1238	-0.026
Mof_C 	C 	0.3059	0.9424	0.5276	0.082
Mof_H 	H 	0.3195	0.9372	0.567	-0.013
Mof_C 	C 	0.3161	0.8868	0.4941	-0.139
Mof_H 	H 	0.338	0.8468	0.5108	0.081
Mof_C 	C 	0.2931	0.8925	0.4361	0.061
Mof_C 	C 	0.2629	0.954	0.4129	-0.13
Mof_H 	H 	0.248	0.9596	0.3736	0.08
Mof_C 	C 	0.2552	0.0069	0.4487	0.067
Mof_H 	H 	0.2336	0.0474	0.4327	0.005
Mof_C 	C 	0.3614	0.5304	0.3861	0.084
Mof_H 	H 	0.3664	0.4949	0.3616	-0.029
Mof_C 	C 	0.3383	0.5941	0.3631	-0.152
Mof_H 	H 	0.3275	0.6013	0.3239	0.083
Mof_C 	C 	0.3315	0.6476	0.399	0.063
Mof_C 	C 	0.3455	0.6327	0.4575	-0.14
Mof_H 	H 	0.34	0.6669	0.4829	0.083
Mof_C 	C 	0.3675	0.5661	0.4763	0.07
Mof_H 	H 	0.376	0.5556	0.5148	-0.024
Mof_C 	C 	0.2906	0.8012	0.307	0.094
Mof_C 	C 	0.2979	0.8353	0.3964	0.099
Mof_C 	C 	0.3138	0.7222	0.3786	0.097
Mof_C 	C 	0.4977	0.3438	0.5817	0.087
Mof_H 	H 	0.4894	0.3843	0.5997	-0.023
Mof_C 	C 	0.5194	0.2852	0.6132	-0.152
Mof_H 	H 	0.5249	0.2856	0.6522	0.088
Mof_C 	C 	0.5333	0.2257	0.5882	0.069
Mof_C 	C 	0.5276	0.2272	0.5301	-0.152
Mof_H 	H 	0.539	0.1885	0.5121	0.085
Mof_C 	C 	0.5045	0.2883	0.5004	0.078
Mof_H 	H 	0.5004	0.2901	0.4617	-0.028
Mof_C 	C 	0.5797	0.0503	0.8552	0.07
Mof_H 	H 	0.5776	0.0091	0.8752	0.002
Mof_C 	C 	0.5768	0.0442	0.7987	-0.137
Mof_H 	H 	0.5747	0.0002	0.7813	0.08
Mof_C 	C 	0.5773	0.1068	0.7685	0.067
Mof_C 	C 	0.58	0.1697	0.7948	-0.136
Mof_H 	H 	0.5785	0.2117	0.7747	0.086
Mof_C 	C 	0.5852	0.1708	0.8525	0.076
Mof_H 	H 	0.5886	0.2145	0.8706	-0.002
Mof_C 	C 	0.602	0.9134	0.5214	0.076
Mof_H 	H 	0.5891	0.9072	0.4821	-0.013
Mof_C 	C 	0.5834	0.9734	0.5444	-0.133
Mof_H 	H 	0.559	0.0073	0.5206	0.082
Mof_C 	C 	0.6012	0.983	0.6029	0.057
Mof_C 	C 	0.6387	0.9308	0.6367	-0.139
Mof_H 	H 	0.6522	0.9354	0.6761	0.08
Mof_C 	C 	0.6552	0.8723	0.6104	0.082
Mof_H 	H 	0.6793	0.8373	0.633	-0.022
Mof_C 	C 	0.5544	0.1599	0.6221	0.099
Mof_C 	C 	0.5748	0.104	0.7056	0.104
Mof_C 	C 	0.5834	0.0461	0.6293	0.1
Mof_N 	N 	0.2699	0.8614	0.1362	-0.22
Mof_N 	N 	0.2775	0.0028	0.506	-0.205
Mof_N 	N 	0.3769	0.516	0.441	-0.224
Mof_N 	N 	0.3019	0.7332	0.3225	-0.14
Mof_N 	N 	0.2888	0.8538	0.3428	-0.14
Mof_N 	N 	0.3127	0.77	0.4176	-0.141
Mof_N 	N 	0.4879	0.3448	0.5248	-0.217
Mof_N 	N 	0.5854	0.1127	0.883	-0.158
Mof_N 	N 	0.638	0.8641	0.5541	-0.221
Mof_N 	N 	0.5649	0.1018	0.5955	-0.139
Mof_N 	N 	0.5604	0.165	0.6778	-0.139
Mof_N 	N 	0.5877	0.0435	0.6846	-0.143
_end
