# CIF file generated by openbabel 3.1.0, see https://openbabel.org
data_I
_chemical_name_common 'image0'
_cell_length_a 6.8096
_cell_length_b 12.27
_cell_length_c 14.134
_cell_angle_alpha 84.323
_cell_angle_beta 78.295
_cell_angle_gamma 79.696
_space_group_name_H-M_alt 'P 1'
_space_group_name_Hall 'P 1'
loop_
    _symmetry_equiv_pos_as_xyz
    x,y,z
loop_
    _atom_site_label
    _atom_site_type_symbol
    _atom_site_fract_x
    _atom_site_fract_y
    _atom_site_fract_z
    _atom_site_occupancy
    Zn1      Zn       0.37202    0.26792    0.69083    1.000
    N1       N        0.23670    0.17520    0.61430    1.000
    N2       N        0.58500    0.35930    0.60970    1.000
    O1       O        0.54000    0.15100    0.75700    1.000
    O2       O        0.16090    0.38270    0.75360    1.000
    C1       C        0.33470    0.12850    0.52840    1.000
    C2       C        0.05700    0.14840    0.65190    1.000
    C3       C        0.71540    0.32010    0.53050    1.000
    C4       C        0.62510    0.44250    0.65090    1.000
    C5       C        0.05870    0.34250    0.83260    1.000
    H1       H        0.46610    0.14290    0.50110    1.000
    C6       C        0.24710    0.06100    0.48050    1.000
    C7       C        0.95890    0.08020    0.61060    1.000
    H2       H        0.98970    0.17760    0.71110    1.000
    H3       H        0.69630    0.25540    0.50540    1.000
    C8       C        0.87810    0.37330    0.48480    1.000
    C9       C        0.78590    0.49900    0.61040    1.000
    H4       H        0.54220    0.46460    0.70970    1.000
    C10      C        0.91420    0.42580    0.89540    1.000
    O3       O        0.07140    0.24280    0.85780    1.000
    H5       H        0.31580    0.03240    0.42130    1.000
    C11      C        0.04990    0.03680    0.52420    1.000
    H6       H        0.83080    0.06420    0.64210    1.000
    H7       H        0.96560    0.34490    0.42920    1.000
    C12      C        0.91140    0.47150    0.52290    1.000
    H8       H        0.80970    0.55690    0.64320    1.000
    C13      C        0.80140    0.39940    0.98860    1.000
    C14      C        0.87670    0.54400    0.87920    1.000
    H9       H        0.79660    0.32740    0.01780    1.000
    C15      C        0.69740    0.49930    0.03020    1.000
    C16      C        0.74150    0.58750    0.96290    1.000
    H10      H        0.93120    0.58540    0.82360    1.000
    H11      H        0.61390    0.50530    0.09180    1.000
    H12      H        0.69050    0.66300    0.97140    1.000
    C17      C        0.42040    0.81750    0.16330    1.000
    C18      C        0.32770    0.90900    0.10020    1.000
    O4       O        0.45810    0.72090    0.13890    1.000
    C19      C        0.27260    0.02500    0.11720    1.000
    C20      C        0.29690    0.89710    0.00570    1.000
    H13      H        0.27760    0.05800    0.17380    1.000
    C21      C        0.20880    0.08100    0.03240    1.000
    C22      C        0.22530    0.00190    0.96440    1.000
    H14      H        0.32050    0.82980    0.97550    1.000
    H15      H        0.16350    0.15760    0.02350    1.000
    H16      H        0.19400    0.01660    0.90210    1.000
    C23      C        0.25100    0.17940    0.52230    1.000
    H17      H        0.32590    0.23130    0.48490    1.000
    C24      C        0.16300    0.11150    0.47280    1.000
    H18      H        0.18270    0.11790    0.40490    1.000
    C25      C        0.01020    0.04150    0.62550    1.000
    H19      H        0.91830    0.99910    0.66440    1.000
    C26      C        0.10700    0.10840    0.66770    1.000
    H20      H        0.08260    0.10830    0.73560    1.000
    C27      C        0.64390    0.37160    0.51360    1.000
    H21      H        0.57510    0.33950    0.47500    1.000
    C28      C        0.80050    0.42870    0.46620    1.000
    H22      H        0.83030    0.43800    0.39820    1.000
    C29      C        0.84370    0.47230    0.62050    1.000
    H23      H        0.90050    0.51180    0.65890    1.000
    C30      C        0.68800    0.41280    0.66180    1.000
    H24      H        0.64930    0.40860    0.72960    1.000
    Zn2      Zn       0.62798    0.73208    0.30917    1.000
    N3       N        0.76330    0.82480    0.38570    1.000
    N4       N        0.41500    0.64070    0.39030    1.000
    O5       O        0.46000    0.84900    0.24300    1.000
    O6       O        0.83910    0.61730    0.24640    1.000
    C31      C        0.66530    0.87150    0.47160    1.000
    C32      C        0.94300    0.85160    0.34810    1.000
    C33      C        0.28460    0.67990    0.46950    1.000
    C34      C        0.37490    0.55750    0.34910    1.000
    C35      C        0.94130    0.65750    0.16740    1.000
    H25      H        0.53390    0.85710    0.49890    1.000
    C36      C        0.75290    0.93900    0.51950    1.000
    C37      C        0.04110    0.91980    0.38940    1.000
    H26      H        0.01030    0.82240    0.28890    1.000
    H27      H        0.30370    0.74460    0.49460    1.000
    C38      C        0.12190    0.62670    0.51520    1.000
    C39      C        0.21410    0.50100    0.38960    1.000
    H28      H        0.45780    0.53540    0.29030    1.000
    C40      C        0.08580    0.57420    0.10460    1.000
    O7       O        0.92860    0.75720    0.14220    1.000
    H29      H        0.68420    0.96760    0.57870    1.000
    C41      C        0.95010    0.96320    0.47580    1.000
    H30      H        0.16920    0.93580    0.35790    1.000
    H31      H        0.03440    0.65510    0.57080    1.000
    C42      C        0.08860    0.52850    0.47710    1.000
    H32      H        0.19030    0.44310    0.35680    1.000
    C43      C        0.19860    0.60060    0.01140    1.000
    C44      C        0.12330    0.45600    0.12080    1.000
    H33      H        0.20340    0.67260    0.98220    1.000
    C45      C        0.30260    0.50070    0.96980    1.000
    C46      C        0.25850    0.41250    0.03710    1.000
    H34      H        0.06880    0.41460    0.17640    1.000
    H35      H        0.38610    0.49470    0.90820    1.000
    H36      H        0.30950    0.33700    0.02860    1.000
    C47      C        0.57960    0.18250    0.83670    1.000
    C48      C        0.67230    0.09100    0.89980    1.000
    O8       O        0.54190    0.27910    0.86110    1.000
    C49      C        0.72740    0.97500    0.88280    1.000
    C50      C        0.70310    0.10290    0.99430    1.000
    H37      H        0.72240    0.94200    0.82620    1.000
    C51      C        0.79120    0.91900    0.96760    1.000
    C52      C        0.77470    0.99810    0.03560    1.000
    H38      H        0.67950    0.17020    0.02450    1.000
    H39      H        0.83650    0.84240    0.97650    1.000
    H40      H        0.80600    0.98340    0.09790    1.000
    C53      C        0.74900    0.82060    0.47770    1.000
    H41      H        0.67410    0.76870    0.51510    1.000
    C54      C        0.83700    0.88850    0.52720    1.000
    H42      H        0.81730    0.88210    0.59510    1.000
    C55      C        0.98980    0.95850    0.37450    1.000
    H43      H        0.08170    0.00090    0.33560    1.000
    C56      C        0.89300    0.89160    0.33230    1.000
    H44      H        0.91740    0.89170    0.26440    1.000
    C57      C        0.35610    0.62840    0.48640    1.000
    H45      H        0.42490    0.66050    0.52500    1.000
    C58      C        0.19950    0.57130    0.53380    1.000
    H46      H        0.16970    0.56200    0.60180    1.000
    C59      C        0.15630    0.52770    0.37950    1.000
    H47      H        0.09950    0.48820    0.34110    1.000
    C60      C        0.31200    0.58720    0.33820    1.000
    H48      H        0.35070    0.59140    0.27040    1.000
    Co1      Co       0.00000    0.50000    0.00000    1.000
    Co2      Co       0.50000    0.00000    0.00000    1.000
