# CIF file generated by openbabel 3.1.0, see https://openbabel.org
data_I
_chemical_name_common 'image0'
_cell_length_a 22.466
_cell_length_b 22.466
_cell_length_c 13.387
_cell_angle_alpha 90
_cell_angle_beta 90
_cell_angle_gamma 90
_space_group_name_H-M_alt 'P 1'
_space_group_name_Hall 'P 1'
loop_
    _symmetry_equiv_pos_as_xyz
    x,y,z
loop_
    _atom_site_label
    _atom_site_type_symbol
    _atom_site_fract_x
    _atom_site_fract_y
    _atom_site_fract_z
    _atom_site_occupancy
    Ni1      Ni       0.18273    0.06580    0.72406    1.000
    C1       C        0.08444    0.36697    0.26580    1.000
    C2       C        0.09641    0.42715    0.26280    1.000
    H1       H        0.07540    0.45140    0.21900    1.000
    C3       C        0.13938    0.45192    0.32450    1.000
    H2       H        0.14690    0.49260    0.32270    1.000
    C4       C        0.17094    0.41535    0.38890    1.000
    C5       C        0.16136    0.35497    0.38830    1.000
    H3       H        0.18430    0.33030    0.42870    1.000
    C6       C        0.11823    0.33108    0.32840    1.000
    H4       H        0.11140    0.29030    0.32950    1.000
    C7       C        0.23118    0.41719    0.54390    1.000
    H5       H        0.21700    0.38130    0.56910    1.000
    C8       C        0.27890    0.49827    0.52770    1.000
    H6       H        0.30440    0.52990    0.54060    1.000
    C9       C        0.24420    0.49292    0.44550    1.000
    H7       H        0.24200    0.51940    0.39220    1.000
    C10      C        0.95866    0.39980    0.27660    1.000
    H8       H        0.97900    0.40090    0.33710    1.000
    C11      C        0.90368    0.42700    0.26810    1.000
    H9       H        0.88740    0.44650    0.32290    1.000
    C12      C        0.87285    0.42556    0.17920    1.000
    C13      C        0.89714    0.39670    0.09700    1.000
    H10      H        0.87630    0.39470    0.03710    1.000
    C14      C        0.95290    0.37091    0.10570    1.000
    H11      H        0.97020    0.35310    0.05010    1.000
    C15      C        0.98337    0.37113    0.19580    1.000
    C16      C        0.76654    0.42713    0.12540    1.000
    H12      H        0.76560    0.39230    0.08780    1.000
    C17      C        0.72092    0.46353    0.14460    1.000
    H13      H        0.68200    0.45750    0.12320    1.000
    C18      C        0.79647    0.50215    0.21590    1.000
    H14      H        0.82100    0.52750    0.25240    1.000
    C19      C        0.00824    0.24665    0.13370    1.000
    H15      H        0.97090    0.25110    0.16280    1.000
    C20      C        0.02000    0.19652    0.07540    1.000
    H16      H        0.99080    0.16780    0.06540    1.000
    C21      C        0.07554    0.19002    0.03280    1.000
    C22      C        0.11893    0.23155    0.05010    1.000
    H17      H        0.15690    0.22600    0.02390    1.000
    C23      C        0.10676    0.28179    0.10650    1.000
    H18      H        0.13600    0.31050    0.11600    1.000
    C24      C        0.05072    0.28935    0.14890    1.000
    C25      C        0.13007    0.13833    0.89780    1.000
    H19      H        0.15540    0.16990    0.88340    1.000
    C26      C        0.06010    0.08611    0.96810    1.000
    H20      H        0.02890    0.07380    0.00880    1.000
    C27      C        0.08711    0.05384    0.89400    1.000
    H21      H        0.07720    0.01510    0.87610    1.000
    C28      C        0.09312    0.03983    0.63070    1.000
    C29      C        0.04476    0.01926    0.56450    1.000
    C30      C        0.03716    0.95874    0.54570    1.000
    H22      H        0.06200    0.93100    0.57610    1.000
    C31      C        0.00752    0.06013    0.51840    1.000
    H23      H        0.01260    0.10060    0.53060    1.000
    N1       N        0.03897    0.34148    0.20500    1.000
    N2       N        0.21306    0.44093    0.45640    1.000
    N3       N        0.27074    0.44992    0.58940    1.000
    N4       N        0.81498    0.45138    0.17200    1.000
    N5       N        0.73985    0.51126    0.20080    1.000
    N6       N        0.08812    0.13977    0.96998    1.000
    N7       N        0.13087    0.08722    0.85030    1.000
    O1       O        0.10732    0.09384    0.63410    1.000
    O2       O        0.12131    0.00158    0.68279    1.000
    Ni2      Ni       0.31727    0.43420    0.72406    1.000
    C32      C        0.41556    0.13303    0.26580    1.000
    C33      C        0.40359    0.07285    0.26280    1.000
    H24      H        0.42460    0.04860    0.21900    1.000
    C34      C        0.36062    0.04808    0.32450    1.000
    H25      H        0.35310    0.00740    0.32270    1.000
    C35      C        0.32906    0.08465    0.38890    1.000
    C36      C        0.33864    0.14503    0.38830    1.000
    H26      H        0.31570    0.16970    0.42870    1.000
    C37      C        0.38177    0.16892    0.32840    1.000
    H27      H        0.38860    0.20970    0.32950    1.000
    C38      C        0.26882    0.08281    0.54390    1.000
    H28      H        0.28300    0.11870    0.56910    1.000
    C39      C        0.22110    0.00173    0.52770    1.000
    H29      H        0.19560    0.97010    0.54060    1.000
    C40      C        0.25580    0.00708    0.44550    1.000
    H30      H        0.25800    0.98060    0.39220    1.000
    C41      C        0.54134    0.10020    0.27660    1.000
    H31      H        0.52100    0.09910    0.33710    1.000
    C42      C        0.59632    0.07300    0.26810    1.000
    H32      H        0.61260    0.05350    0.32290    1.000
    C43      C        0.62715    0.07444    0.17920    1.000
    C44      C        0.60286    0.10330    0.09700    1.000
    H33      H        0.62370    0.10530    0.03710    1.000
    C45      C        0.54710    0.12909    0.10570    1.000
    H34      H        0.52980    0.14690    0.05010    1.000
    C46      C        0.51663    0.12887    0.19580    1.000
    C47      C        0.73346    0.07287    0.12540    1.000
    H35      H        0.73440    0.10770    0.08780    1.000
    C48      C        0.77908    0.03647    0.14460    1.000
    H36      H        0.81800    0.04250    0.12320    1.000
    C49      C        0.70353    0.99785    0.21590    1.000
    H37      H        0.67900    0.97250    0.25240    1.000
    C50      C        0.49176    0.25335    0.13370    1.000
    H38      H        0.52910    0.24890    0.16280    1.000
    C51      C        0.48000    0.30348    0.07540    1.000
    H39      H        0.50920    0.33220    0.06540    1.000
    C52      C        0.42446    0.30998    0.03280    1.000
    C53      C        0.38107    0.26845    0.05010    1.000
    H40      H        0.34310    0.27400    0.02390    1.000
    C54      C        0.39324    0.21821    0.10650    1.000
    H41      H        0.36400    0.18950    0.11600    1.000
    C55      C        0.44928    0.21065    0.14890    1.000
    C56      C        0.36993    0.36167    0.89780    1.000
    H42      H        0.34460    0.33010    0.88340    1.000
    C57      C        0.43990    0.41389    0.96810    1.000
    H43      H        0.47110    0.42620    0.00880    1.000
    C58      C        0.41289    0.44616    0.89400    1.000
    H44      H        0.42280    0.48490    0.87610    1.000
    C59      C        0.40688    0.46017    0.63070    1.000
    C60      C        0.45524    0.48074    0.56450    1.000
    C61      C        0.46284    0.54126    0.54570    1.000
    H45      H        0.43800    0.56900    0.57610    1.000
    C62      C        0.49248    0.43987    0.51840    1.000
    H46      H        0.48740    0.39940    0.53060    1.000
    N8       N        0.46103    0.15852    0.20500    1.000
    N9       N        0.28694    0.05907    0.45640    1.000
    N10      N        0.22926    0.05008    0.58940    1.000
    N11      N        0.68502    0.04862    0.17200    1.000
    N12      N        0.76015    0.98874    0.20080    1.000
    N13      N        0.41188    0.36023    0.96998    1.000
    N14      N        0.36913    0.41278    0.85030    1.000
    O3       O        0.39268    0.40616    0.63410    1.000
    O4       O        0.37869    0.49842    0.68279    1.000
    Ni3      Ni       0.81727    0.93420    0.27594    1.000
    C63      C        0.91556    0.63303    0.73420    1.000
    C64      C        0.90359    0.57285    0.73720    1.000
    H47      H        0.92460    0.54860    0.78100    1.000
    C65      C        0.86062    0.54808    0.67550    1.000
    H48      H        0.85310    0.50740    0.67730    1.000
    C66      C        0.82906    0.58465    0.61110    1.000
    C67      C        0.83864    0.64503    0.61170    1.000
    H49      H        0.81570    0.66970    0.57130    1.000
    C68      C        0.88177    0.66892    0.67160    1.000
    H50      H        0.88860    0.70970    0.67050    1.000
    C69      C        0.76882    0.58281    0.45610    1.000
    H51      H        0.78300    0.61870    0.43090    1.000
    C70      C        0.72110    0.50173    0.47230    1.000
    H52      H        0.69560    0.47010    0.45940    1.000
    C71      C        0.75580    0.50708    0.55450    1.000
    H53      H        0.75800    0.48060    0.60780    1.000
    C72      C        0.04134    0.60020    0.72340    1.000
    H54      H        0.02100    0.59910    0.66290    1.000
    C73      C        0.09632    0.57300    0.73190    1.000
    H55      H        0.11260    0.55350    0.67710    1.000
    C74      C        0.12715    0.57444    0.82080    1.000
    C75      C        0.10286    0.60330    0.90300    1.000
    H56      H        0.12370    0.60530    0.96290    1.000
    C76      C        0.04710    0.62909    0.89430    1.000
    H57      H        0.02980    0.64690    0.94990    1.000
    C77      C        0.01663    0.62887    0.80420    1.000
    C78      C        0.23346    0.57287    0.87460    1.000
    H58      H        0.23440    0.60770    0.91220    1.000
    C79      C        0.27908    0.53647    0.85540    1.000
    H59      H        0.31800    0.54250    0.87680    1.000
    C80      C        0.20353    0.49785    0.78410    1.000
    H60      H        0.17900    0.47250    0.74760    1.000
    C81      C        0.99176    0.75335    0.86630    1.000
    H61      H        0.02910    0.74890    0.83720    1.000
    C82      C        0.98000    0.80348    0.92460    1.000
    H62      H        0.00920    0.83220    0.93460    1.000
    C83      C        0.92446    0.80998    0.96720    1.000
    C84      C        0.88107    0.76845    0.94990    1.000
    H63      H        0.84310    0.77400    0.97610    1.000
    C85      C        0.89324    0.71821    0.89350    1.000
    H64      H        0.86400    0.68950    0.88400    1.000
    C86      C        0.94928    0.71065    0.85110    1.000
    C87      C        0.86993    0.86167    0.10220    1.000
    H65      H        0.84460    0.83010    0.11660    1.000
    C88      C        0.93990    0.91389    0.03190    1.000
    H66      H        0.97110    0.92620    0.99120    1.000
    C89      C        0.91289    0.94616    0.10600    1.000
    H67      H        0.92280    0.98490    0.12390    1.000
    C90      C        0.90688    0.96017    0.36930    1.000
    C91      C        0.95524    0.98074    0.43550    1.000
    C92      C        0.96284    0.04126    0.45430    1.000
    H68      H        0.93800    0.06900    0.42390    1.000
    C93      C        0.99248    0.93987    0.48160    1.000
    H69      H        0.98740    0.89940    0.46940    1.000
    N15      N        0.96103    0.65852    0.79500    1.000
    N16      N        0.78694    0.55907    0.54360    1.000
    N17      N        0.72926    0.55008    0.41060    1.000
    N18      N        0.18502    0.54862    0.82800    1.000
    N19      N        0.26015    0.48874    0.79920    1.000
    N20      N        0.91188    0.86023    0.03002    1.000
    N21      N        0.86913    0.91278    0.14970    1.000
    O5       O        0.89268    0.90616    0.36590    1.000
    O6       O        0.87869    0.99842    0.31721    1.000
    Ni4      Ni       0.68273    0.56580    0.27594    1.000
    C94      C        0.58444    0.86697    0.73420    1.000
    C95      C        0.59641    0.92715    0.73720    1.000
    H70      H        0.57540    0.95140    0.78100    1.000
    C96      C        0.63938    0.95192    0.67550    1.000
    H71      H        0.64690    0.99260    0.67730    1.000
    C97      C        0.67094    0.91535    0.61110    1.000
    C98      C        0.66136    0.85497    0.61170    1.000
    H72      H        0.68430    0.83030    0.57130    1.000
    C99      C        0.61823    0.83108    0.67160    1.000
    H73      H        0.61140    0.79030    0.67050    1.000
    C100     C        0.73118    0.91719    0.45610    1.000
    H74      H        0.71700    0.88130    0.43090    1.000
    C101     C        0.77890    0.99827    0.47230    1.000
    H75      H        0.80440    0.02990    0.45940    1.000
    C102     C        0.74420    0.99292    0.55450    1.000
    H76      H        0.74200    0.01940    0.60780    1.000
    C103     C        0.45866    0.89980    0.72340    1.000
    H77      H        0.47900    0.90090    0.66290    1.000
    C104     C        0.40368    0.92700    0.73190    1.000
    H78      H        0.38740    0.94650    0.67710    1.000
    C105     C        0.37285    0.92556    0.82080    1.000
    C106     C        0.39714    0.89670    0.90300    1.000
    H79      H        0.37630    0.89470    0.96290    1.000
    C107     C        0.45290    0.87091    0.89430    1.000
    H80      H        0.47020    0.85310    0.94990    1.000
    C108     C        0.48337    0.87113    0.80420    1.000
    C109     C        0.26654    0.92713    0.87460    1.000
    H81      H        0.26560    0.89230    0.91220    1.000
    C110     C        0.22092    0.96353    0.85540    1.000
    H82      H        0.18200    0.95750    0.87680    1.000
    C111     C        0.29647    0.00215    0.78410    1.000
    H83      H        0.32100    0.02750    0.74760    1.000
    C112     C        0.50824    0.74665    0.86630    1.000
    H84      H        0.47090    0.75110    0.83720    1.000
    C113     C        0.52000    0.69652    0.92460    1.000
    H85      H        0.49080    0.66780    0.93460    1.000
    C114     C        0.57554    0.69002    0.96720    1.000
    C115     C        0.61893    0.73155    0.94990    1.000
    H86      H        0.65690    0.72600    0.97610    1.000
    C116     C        0.60676    0.78179    0.89350    1.000
    H87      H        0.63600    0.81050    0.88400    1.000
    C117     C        0.55072    0.78935    0.85110    1.000
    C118     C        0.63007    0.63833    0.10220    1.000
    H88      H        0.65540    0.66990    0.11660    1.000
    C119     C        0.56010    0.58611    0.03190    1.000
    H89      H        0.52890    0.57380    0.99120    1.000
    C120     C        0.58711    0.55384    0.10600    1.000
    H90      H        0.57720    0.51510    0.12390    1.000
    C121     C        0.59312    0.53983    0.36930    1.000
    C122     C        0.54476    0.51926    0.43550    1.000
    C123     C        0.53716    0.45874    0.45430    1.000
    H91      H        0.56200    0.43100    0.42390    1.000
    C124     C        0.50752    0.56013    0.48160    1.000
    H92      H        0.51260    0.60060    0.46940    1.000
    N22      N        0.53897    0.84148    0.79500    1.000
    N23      N        0.71306    0.94093    0.54360    1.000
    N24      N        0.77074    0.94992    0.41060    1.000
    N25      N        0.31498    0.95138    0.82800    1.000
    N26      N        0.23985    0.01126    0.79920    1.000
    N27      N        0.58812    0.63977    0.03002    1.000
    N28      N        0.63087    0.58722    0.14970    1.000
    O7       O        0.60732    0.59384    0.36590    1.000
    O8       O        0.62131    0.50158    0.31721    1.000
    Ni5      Ni       0.43420    0.18273    0.72406    1.000
    C125     C        0.13303    0.08444    0.26580    1.000
    C126     C        0.07285    0.09641    0.26280    1.000
    H93      H        0.04860    0.07540    0.21900    1.000
    C127     C        0.04808    0.13938    0.32450    1.000
    H94      H        0.00740    0.14690    0.32270    1.000
    C128     C        0.08465    0.17094    0.38890    1.000
    C129     C        0.14503    0.16136    0.38830    1.000
    H95      H        0.16970    0.18430    0.42870    1.000
    C130     C        0.16892    0.11823    0.32840    1.000
    H96      H        0.20970    0.11140    0.32950    1.000
    C131     C        0.08281    0.23118    0.54390    1.000
    H97      H        0.11870    0.21700    0.56910    1.000
    C132     C        0.00173    0.27890    0.52770    1.000
    H98      H        0.97010    0.30440    0.54060    1.000
    C133     C        0.00708    0.24420    0.44550    1.000
    H99      H        0.98060    0.24200    0.39220    1.000
    C134     C        0.10020    0.95866    0.27660    1.000
    H100     H        0.09910    0.97900    0.33710    1.000
    C135     C        0.07300    0.90368    0.26810    1.000
    H101     H        0.05350    0.88740    0.32290    1.000
    C136     C        0.07444    0.87285    0.17920    1.000
    C137     C        0.10330    0.89714    0.09700    1.000
    H102     H        0.10530    0.87630    0.03710    1.000
    C138     C        0.12909    0.95290    0.10570    1.000
    H103     H        0.14690    0.97020    0.05010    1.000
    C139     C        0.12887    0.98337    0.19580    1.000
    C140     C        0.07287    0.76654    0.12540    1.000
    H104     H        0.10770    0.76560    0.08780    1.000
    C141     C        0.03647    0.72092    0.14460    1.000
    H105     H        0.04250    0.68200    0.12320    1.000
    C142     C        0.99785    0.79647    0.21590    1.000
    H106     H        0.97250    0.82100    0.25240    1.000
    C143     C        0.25335    0.00824    0.13370    1.000
    H107     H        0.24890    0.97090    0.16280    1.000
    C144     C        0.30348    0.02000    0.07540    1.000
    H108     H        0.33220    0.99080    0.06540    1.000
    C145     C        0.30998    0.07554    0.03280    1.000
    C146     C        0.26845    0.11893    0.05010    1.000
    H109     H        0.27400    0.15690    0.02390    1.000
    C147     C        0.21821    0.10676    0.10650    1.000
    H110     H        0.18950    0.13600    0.11600    1.000
    C148     C        0.21065    0.05072    0.14890    1.000
    C149     C        0.36167    0.13007    0.89780    1.000
    H111     H        0.33010    0.15540    0.88340    1.000
    C150     C        0.41389    0.06010    0.96810    1.000
    H112     H        0.42620    0.02890    0.00880    1.000
    C151     C        0.44616    0.08711    0.89400    1.000
    H113     H        0.48490    0.07720    0.87610    1.000
    C152     C        0.46017    0.09312    0.63070    1.000
    C153     C        0.48074    0.04476    0.56450    1.000
    C154     C        0.54126    0.03716    0.54570    1.000
    H114     H        0.56900    0.06200    0.57610    1.000
    C155     C        0.43987    0.00752    0.51840    1.000
    H115     H        0.39940    0.01260    0.53060    1.000
    N29      N        0.15852    0.03897    0.20500    1.000
    N30      N        0.05907    0.21306    0.45640    1.000
    N31      N        0.05008    0.27074    0.58940    1.000
    N32      N        0.04862    0.81498    0.17200    1.000
    N33      N        0.98874    0.73985    0.20080    1.000
    N34      N        0.36023    0.08812    0.96998    1.000
    N35      N        0.41278    0.13087    0.85030    1.000
    O9       O        0.40616    0.10732    0.63410    1.000
    O10      O        0.49842    0.12131    0.68279    1.000
    Ni6      Ni       0.06580    0.31727    0.72406    1.000
    C156     C        0.36697    0.41556    0.26580    1.000
    C157     C        0.42715    0.40359    0.26280    1.000
    H116     H        0.45140    0.42460    0.21900    1.000
    C158     C        0.45192    0.36062    0.32450    1.000
    H117     H        0.49260    0.35310    0.32270    1.000
    C159     C        0.41535    0.32906    0.38890    1.000
    C160     C        0.35497    0.33864    0.38830    1.000
    H118     H        0.33030    0.31570    0.42870    1.000
    C161     C        0.33108    0.38177    0.32840    1.000
    H119     H        0.29030    0.38860    0.32950    1.000
    C162     C        0.41719    0.26882    0.54390    1.000
    H120     H        0.38130    0.28300    0.56910    1.000
    C163     C        0.49827    0.22110    0.52770    1.000
    H121     H        0.52990    0.19560    0.54060    1.000
    C164     C        0.49292    0.25580    0.44550    1.000
    H122     H        0.51940    0.25800    0.39220    1.000
    C165     C        0.39980    0.54134    0.27660    1.000
    H123     H        0.40090    0.52100    0.33710    1.000
    C166     C        0.42700    0.59632    0.26810    1.000
    H124     H        0.44650    0.61260    0.32290    1.000
    C167     C        0.42556    0.62715    0.17920    1.000
    C168     C        0.39670    0.60286    0.09700    1.000
    H125     H        0.39470    0.62370    0.03710    1.000
    C169     C        0.37091    0.54710    0.10570    1.000
    H126     H        0.35310    0.52980    0.05010    1.000
    C170     C        0.37113    0.51663    0.19580    1.000
    C171     C        0.42713    0.73346    0.12540    1.000
    H127     H        0.39230    0.73440    0.08780    1.000
    C172     C        0.46353    0.77908    0.14460    1.000
    H128     H        0.45750    0.81800    0.12320    1.000
    C173     C        0.50215    0.70353    0.21590    1.000
    H129     H        0.52750    0.67900    0.25240    1.000
    C174     C        0.24665    0.49176    0.13370    1.000
    H130     H        0.25110    0.52910    0.16280    1.000
    C175     C        0.19652    0.48000    0.07540    1.000
    H131     H        0.16780    0.50920    0.06540    1.000
    C176     C        0.19002    0.42446    0.03280    1.000
    C177     C        0.23155    0.38107    0.05010    1.000
    H132     H        0.22600    0.34310    0.02390    1.000
    C178     C        0.28179    0.39324    0.10650    1.000
    H133     H        0.31050    0.36400    0.11600    1.000
    C179     C        0.28935    0.44928    0.14890    1.000
    C180     C        0.13833    0.36993    0.89780    1.000
    H134     H        0.16990    0.34460    0.88340    1.000
    C181     C        0.08611    0.43990    0.96810    1.000
    H135     H        0.07380    0.47110    0.00880    1.000
    C182     C        0.05384    0.41289    0.89400    1.000
    H136     H        0.01510    0.42280    0.87610    1.000
    C183     C        0.03983    0.40688    0.63070    1.000
    C184     C        0.01926    0.45524    0.56450    1.000
    C185     C        0.95874    0.46284    0.54570    1.000
    H137     H        0.93100    0.43800    0.57610    1.000
    C186     C        0.06013    0.49248    0.51840    1.000
    H138     H        0.10060    0.48740    0.53060    1.000
    N36      N        0.34148    0.46103    0.20500    1.000
    N37      N        0.44093    0.28694    0.45640    1.000
    N38      N        0.44992    0.22926    0.58940    1.000
    N39      N        0.45138    0.68502    0.17200    1.000
    N40      N        0.51126    0.76015    0.20080    1.000
    N41      N        0.13977    0.41188    0.96998    1.000
    N42      N        0.08722    0.36913    0.85030    1.000
    O11      O        0.09384    0.39268    0.63410    1.000
    O12      O        0.00158    0.37869    0.68279    1.000
    Ni7      Ni       0.56580    0.81727    0.27594    1.000
    C187     C        0.86697    0.91556    0.73420    1.000
    C188     C        0.92715    0.90359    0.73720    1.000
    H139     H        0.95140    0.92460    0.78100    1.000
    C189     C        0.95192    0.86062    0.67550    1.000
    H140     H        0.99260    0.85310    0.67730    1.000
    C190     C        0.91535    0.82906    0.61110    1.000
    C191     C        0.85497    0.83864    0.61170    1.000
    H141     H        0.83030    0.81570    0.57130    1.000
    C192     C        0.83108    0.88177    0.67160    1.000
    H142     H        0.79030    0.88860    0.67050    1.000
    C193     C        0.91719    0.76882    0.45610    1.000
    H143     H        0.88130    0.78300    0.43090    1.000
    C194     C        0.99827    0.72110    0.47230    1.000
    H144     H        0.02990    0.69560    0.45940    1.000
    C195     C        0.99292    0.75580    0.55450    1.000
    H145     H        0.01940    0.75800    0.60780    1.000
    C196     C        0.89980    0.04134    0.72340    1.000
    H146     H        0.90090    0.02100    0.66290    1.000
    C197     C        0.92700    0.09632    0.73190    1.000
    H147     H        0.94650    0.11260    0.67710    1.000
    C198     C        0.92556    0.12715    0.82080    1.000
    C199     C        0.89670    0.10286    0.90300    1.000
    H148     H        0.89470    0.12370    0.96290    1.000
    C200     C        0.87091    0.04710    0.89430    1.000
    H149     H        0.85310    0.02980    0.94990    1.000
    C201     C        0.87113    0.01663    0.80420    1.000
    C202     C        0.92713    0.23346    0.87460    1.000
    H150     H        0.89230    0.23440    0.91220    1.000
    C203     C        0.96353    0.27908    0.85540    1.000
    H151     H        0.95750    0.31800    0.87680    1.000
    C204     C        0.00215    0.20353    0.78410    1.000
    H152     H        0.02750    0.17900    0.74760    1.000
    C205     C        0.74665    0.99176    0.86630    1.000
    H153     H        0.75110    0.02910    0.83720    1.000
    C206     C        0.69652    0.98000    0.92460    1.000
    H154     H        0.66780    0.00920    0.93460    1.000
    C207     C        0.69002    0.92446    0.96720    1.000
    C208     C        0.73155    0.88107    0.94990    1.000
    H155     H        0.72600    0.84310    0.97610    1.000
    C209     C        0.78179    0.89324    0.89350    1.000
    H156     H        0.81050    0.86400    0.88400    1.000
    C210     C        0.78935    0.94928    0.85110    1.000
    C211     C        0.63833    0.86993    0.10220    1.000
    H157     H        0.66990    0.84460    0.11660    1.000
    C212     C        0.58611    0.93990    0.03190    1.000
    H158     H        0.57380    0.97110    0.99120    1.000
    C213     C        0.55384    0.91289    0.10600    1.000
    H159     H        0.51510    0.92280    0.12390    1.000
    C214     C        0.53983    0.90688    0.36930    1.000
    C215     C        0.51926    0.95524    0.43550    1.000
    C216     C        0.45874    0.96284    0.45430    1.000
    H160     H        0.43100    0.93800    0.42390    1.000
    C217     C        0.56013    0.99248    0.48160    1.000
    H161     H        0.60060    0.98740    0.46940    1.000
    N43      N        0.84148    0.96103    0.79500    1.000
    N44      N        0.94093    0.78694    0.54360    1.000
    N45      N        0.94992    0.72926    0.41060    1.000
    N46      N        0.95138    0.18502    0.82800    1.000
    N47      N        0.01126    0.26015    0.79920    1.000
    N48      N        0.63977    0.91188    0.03002    1.000
    N49      N        0.58722    0.86913    0.14970    1.000
    O13      O        0.59384    0.89268    0.36590    1.000
    O14      O        0.50158    0.87869    0.31721    1.000
    Ni8      Ni       0.93420    0.68273    0.27594    1.000
    C218     C        0.63303    0.58444    0.73420    1.000
    C219     C        0.57285    0.59641    0.73720    1.000
    H162     H        0.54860    0.57540    0.78100    1.000
    C220     C        0.54808    0.63938    0.67550    1.000
    H163     H        0.50740    0.64690    0.67730    1.000
    C221     C        0.58465    0.67094    0.61110    1.000
    C222     C        0.64503    0.66136    0.61170    1.000
    H164     H        0.66970    0.68430    0.57130    1.000
    C223     C        0.66892    0.61823    0.67160    1.000
    H165     H        0.70970    0.61140    0.67050    1.000
    C224     C        0.58281    0.73118    0.45610    1.000
    H166     H        0.61870    0.71700    0.43090    1.000
    C225     C        0.50173    0.77890    0.47230    1.000
    H167     H        0.47010    0.80440    0.45940    1.000
    C226     C        0.50708    0.74420    0.55450    1.000
    H168     H        0.48060    0.74200    0.60780    1.000
    C227     C        0.60020    0.45866    0.72340    1.000
    H169     H        0.59910    0.47900    0.66290    1.000
    C228     C        0.57300    0.40368    0.73190    1.000
    H170     H        0.55350    0.38740    0.67710    1.000
    C229     C        0.57444    0.37285    0.82080    1.000
    C230     C        0.60330    0.39714    0.90300    1.000
    H171     H        0.60530    0.37630    0.96290    1.000
    C231     C        0.62909    0.45290    0.89430    1.000
    H172     H        0.64690    0.47020    0.94990    1.000
    C232     C        0.62887    0.48337    0.80420    1.000
    C233     C        0.57287    0.26654    0.87460    1.000
    H173     H        0.60770    0.26560    0.91220    1.000
    C234     C        0.53647    0.22092    0.85540    1.000
    H174     H        0.54250    0.18200    0.87680    1.000
    C235     C        0.49785    0.29647    0.78410    1.000
    H175     H        0.47250    0.32100    0.74760    1.000
    C236     C        0.75335    0.50824    0.86630    1.000
    H176     H        0.74890    0.47090    0.83720    1.000
    C237     C        0.80348    0.52000    0.92460    1.000
    H177     H        0.83220    0.49080    0.93460    1.000
    C238     C        0.80998    0.57554    0.96720    1.000
    C239     C        0.76845    0.61893    0.94990    1.000
    H178     H        0.77400    0.65690    0.97610    1.000
    C240     C        0.71821    0.60676    0.89350    1.000
    H179     H        0.68950    0.63600    0.88400    1.000
    C241     C        0.71065    0.55072    0.85110    1.000
    C242     C        0.86167    0.63007    0.10220    1.000
    H180     H        0.83010    0.65540    0.11660    1.000
    C243     C        0.91389    0.56010    0.03190    1.000
    H181     H        0.92620    0.52890    0.99120    1.000
    C244     C        0.94616    0.58711    0.10600    1.000
    H182     H        0.98490    0.57720    0.12390    1.000
    C245     C        0.96017    0.59312    0.36930    1.000
    C246     C        0.98074    0.54476    0.43550    1.000
    C247     C        0.04126    0.53716    0.45430    1.000
    H183     H        0.06900    0.56200    0.42390    1.000
    C248     C        0.93987    0.50752    0.48160    1.000
    H184     H        0.89940    0.51260    0.46940    1.000
    N50      N        0.65852    0.53897    0.79500    1.000
    N51      N        0.55907    0.71306    0.54360    1.000
    N52      N        0.55008    0.77074    0.41060    1.000
    N53      N        0.54862    0.31498    0.82800    1.000
    N54      N        0.48874    0.23985    0.79920    1.000
    N55      N        0.86023    0.58812    0.03002    1.000
    N56      N        0.91278    0.63087    0.14970    1.000
    O15      O        0.90616    0.60732    0.36590    1.000
    O16      O        0.99842    0.62131    0.31721    1.000
