data_functionalizedCrystal
_audit_creation_method	'EQeq! by Chris Wilmer'
_symmetry_space_group_name_H-M	'P1'
_symmetry_Int_Tables_number	1
_symmetry_cell_setting	triclinic
loop_
_symmetry_equiv_pos_as_xyz
  x,y,z
_cell_length_a	14.1842
_cell_length_b	14.1842
_cell_length_c	63.709
_cell_angle_alpha	90
_cell_angle_beta	90
_cell_angle_gamma	90
loop_
_atom_site_label
_atom_site_type_symbol
_atom_site_fract_x
_atom_site_fract_y
_atom_site_fract_z
_atom_site_charge
Mof_Tb	Tb	0.51608	0.27873	0.06209	2.471
Mof_O 	O 	0.1278	0.0921	0.2843	-0.592
Mof_O 	O 	0.2843	0.115	0.2828	-0.487
Mof_O 	O 	0.616	0.4	0.0736	-0.739
Mof_H 	H 	0.6335	0.4235	0.0859	0.065
Mof_H 	H 	0.6553	0.418	0.0651	0.476
Mof_O 	O 	0.4032	0.255	0.2148	-0.578
Mof_O 	O 	0.3751	0.4039	0.2204	-0.608
Mof_O 	O 	0.3901	0.5055	0.18059	-0.497
Mof_O 	O 	0.4598	0.3677	0.1791	-0.689
Mof_O 	O 	0.498	0.3227	0.0983	-0.418
Mof_O 	O 	0.3582	0.3178	0.0791	-0.39
Mof_O 	O 	0.4686	0.4322	0.0515	-0.701
Mof_C 	C 	0.1923	0.2058	0.2588	-0.249
Mof_C 	C 	0.1099	0.234	0.254	0.136
Mof_H 	H 	0.0584	0.2107	0.2614	-0.038
Mof_C 	C 	0.095	0.302	0.2368	-0.196
Mof_H 	H 	0.0357	0.3257	0.2334	0.077
Mof_C 	C 	0.1829	0.329	0.2255	0.14
Mof_C 	C 	0.2631	0.291	0.231	-0.269
Mof_C 	C 	0.274	0.227	0.2477	0.164
Mof_H 	H 	0.332	0.2	0.2511	-0.016
Mof_C 	C 	0.1665	0.3991	0.2079	-0.033
Mof_C 	C 	0.1191	0.4822	0.2092	-0.044
Mof_H 	H 	0.0959	0.5007	0.2222	0.03
Mof_C 	C 	0.104	0.54	0.1925	-0.047
Mof_H 	H 	0.0661	0.5931	0.1933	0.028
Mof_C 	C 	0.149	0.512	0.1739	-0.052
Mof_H 	H 	0.1424	0.5512	0.1624	0.036
Mof_C 	C 	0.2005	0.436	0.1713	-0.014
Mof_C 	C 	0.2052	0.379	0.188	-0.046
Mof_H 	H 	0.2364	0.3217	0.1864	0.042
Mof_C 	C 	0.2526	0.415	0.1516	0.102
Mof_C 	C 	0.1992	0.403	0.1321	-0.145
Mof_H 	H 	0.1343	0.4108	0.1309	0.062
Mof_C 	C 	0.26	0.378	0.1152	0.044
Mof_H 	H 	0.2311	0.3692	0.1022	0.016
Mof_C 	C 	0.3497	0.365	0.1159	-0.103
Mof_C 	C 	0.3981	0.3799	0.1343	0.075
Mof_H 	H 	0.4631	0.372	0.1351	0.01
Mof_C 	C 	0.3439	0.4084	0.1523	-0.193
Mof_C 	C 	0.199	0.1344	0.2753	0.411
Mof_C 	C 	0.3533	0.3207	0.2209	0.592
Mof_C 	C 	0.4029	0.4258	0.172	0.495
Mof_C 	C 	0.402	0.3383	0.0964	0.245
Mof_O 	O 	0.657	0.366	0.0658	-0.87
Mof_H 	H 	0.6925	0.3845	0.0567	0.224
Mof_H 	H 	0.664	0.4027	0.0769	0.488
Mof_Tb	Tb	0.01608	0.77873	0.56209	2.215
Mof_O 	O 	0.6278	0.5921	0.7843	-0.627
Mof_O 	O 	0.7843	0.615	0.7828	-0.497
Mof_O 	O 	0.116	0.9	0.5736	-0.711
Mof_H 	H 	0.1335	0.9235	0.5859	0.071
Mof_H 	H 	0.1553	0.918	0.5651	0.48
Mof_O 	O 	0.9032	0.755	0.7148	-0.507
Mof_O 	O 	0.8751	0.9039	0.7204	-0.505
Mof_O 	O 	0.8901	0.0055	0.68059	-0.501
Mof_O 	O 	0.9598	0.8677	0.6791	-0.611
Mof_O 	O 	0.998	0.8227	0.5983	-0.35
Mof_O 	O 	0.8582	0.8178	0.5791	-0.356
Mof_O 	O 	0.9686	0.9322	0.5515	-0.45
Mof_C 	C 	0.6923	0.7058	0.7588	-0.262
Mof_C 	C 	0.6099	0.734	0.754	0.165
Mof_H 	H 	0.5584	0.7107	0.7614	-0.034
Mof_C 	C 	0.595	0.802	0.7368	-0.216
Mof_H 	H 	0.5357	0.8257	0.7334	0.108
Mof_C 	C 	0.6829	0.829	0.7255	0.206
Mof_C 	C 	0.7631	0.791	0.731	-0.273
Mof_C 	C 	0.774	0.727	0.7477	0.185
Mof_H 	H 	0.832	0.7	0.7511	-0.003
Mof_C 	C 	0.6665	0.8991	0.7079	-0.164
Mof_C 	C 	0.6191	0.9822	0.7092	0.306
Mof_H 	H 	0.5959	0.0007	0.7222	-0.121
Mof_C 	C 	0.604	0.04	0.6925	-0.295
Mof_H 	H 	0.5661	0.0931	0.6933	0.124
Mof_C 	C 	0.649	0.012	0.6739	0
Mof_H 	H 	0.6424	0.0512	0.6624	0.009
Mof_C 	C 	0.7005	0.936	0.6713	-0.021
Mof_C 	C 	0.7052	0.879	0.688	0.04
Mof_H 	H 	0.7364	0.8217	0.6864	0.021
Mof_C 	C 	0.7526	0.915	0.6516	0.128
Mof_C 	C 	0.6992	0.903	0.6321	-0.14
Mof_H 	H 	0.6343	0.9108	0.6309	0.087
Mof_C 	C 	0.76	0.878	0.6152	0.052
Mof_H 	H 	0.7311	0.8692	0.6022	0.029
Mof_C 	C 	0.8497	0.865	0.6159	-0.092
Mof_C 	C 	0.8981	0.8799	0.6343	0.084
Mof_H 	H 	0.9631	0.872	0.6351	0.034
Mof_C 	C 	0.8439	0.9084	0.6523	-0.191
Mof_C 	C 	0.699	0.6344	0.7753	0.443
Mof_C 	C 	0.8533	0.8207	0.7209	0.561
Mof_C 	C 	0.9029	0.9258	0.672	0.545
Mof_C 	C 	0.902	0.8383	0.5964	0.251
Mof_O 	O 	0.157	0.866	0.5658	-0.857
Mof_H 	H 	0.1925	0.8845	0.5567	0.23
Mof_H 	H 	0.164	0.9027	0.5769	0.474
Mof_Tb	Tb	0.48392	0.72127	0.06209	2.493
Mof_O 	O 	0.8722	0.9079	0.2843	-0.541
Mof_O 	O 	0.7157	0.885	0.2828	-0.506
Mof_O 	O 	0.384	0.6	0.0736	-0.74
Mof_H 	H 	0.3665	0.5765	0.0859	0.064
Mof_H 	H 	0.3447	0.582	0.0651	0.476
Mof_O 	O 	0.5968	0.745	0.2148	-0.568
Mof_O 	O 	0.6249	0.5961	0.2204	-0.607
Mof_O 	O 	0.6099	0.4945	0.18059	-0.497
Mof_O 	O 	0.5402	0.6323	0.1791	-0.692
Mof_O 	O 	0.502	0.6773	0.0983	-0.419
Mof_O 	O 	0.6418	0.6822	0.0791	-0.385
Mof_O 	O 	0.5314	0.5678	0.0515	-0.701
Mof_C 	C 	0.8077	0.7942	0.2588	-0.224
Mof_C 	C 	0.8901	0.766	0.254	0.132
Mof_H 	H 	0.9416	0.7893	0.2614	0.002
Mof_C 	C 	0.905	0.698	0.2368	-0.178
Mof_H 	H 	0.9643	0.6743	0.2334	0.107
Mof_C 	C 	0.8171	0.671	0.2255	0.143
Mof_C 	C 	0.7369	0.709	0.231	-0.257
Mof_C 	C 	0.726	0.773	0.2477	0.162
Mof_H 	H 	0.668	0.8	0.2511	-0.002
Mof_C 	C 	0.8335	0.6009	0.2079	-0.018
Mof_C 	C 	0.8809	0.5178	0.2092	-0.04
Mof_H 	H 	0.9041	0.4993	0.2222	0.052
Mof_C 	C 	0.896	0.46	0.1925	-0.029
Mof_H 	H 	0.9339	0.4069	0.1933	0.052
Mof_C 	C 	0.851	0.488	0.1739	-0.047
Mof_H 	H 	0.8576	0.4488	0.1624	0.048
Mof_C 	C 	0.7995	0.564	0.1713	-0.004
Mof_C 	C 	0.7948	0.621	0.188	-0.043
Mof_H 	H 	0.7636	0.6783	0.1864	0.051
Mof_C 	C 	0.7474	0.585	0.1516	0.107
Mof_C 	C 	0.8008	0.597	0.1321	-0.143
Mof_H 	H 	0.8657	0.5892	0.1309	0.085
Mof_C 	C 	0.74	0.622	0.1152	0.048
Mof_H 	H 	0.7689	0.6308	0.1022	0.026
Mof_C 	C 	0.6503	0.635	0.1159	-0.103
Mof_C 	C 	0.6019	0.6201	0.1343	0.077
Mof_H 	H 	0.5369	0.628	0.1351	0.01
Mof_C 	C 	0.6561	0.5916	0.1523	-0.195
Mof_C 	C 	0.801	0.8656	0.2753	0.419
Mof_C 	C 	0.6467	0.6793	0.2209	0.589
Mof_C 	C 	0.5971	0.5742	0.172	0.496
Mof_C 	C 	0.598	0.6617	0.0964	0.244
Mof_O 	O 	0.343	0.634	0.0658	-0.869
Mof_H 	H 	0.3075	0.6155	0.0567	0.215
Mof_H 	H 	0.336	0.5973	0.0769	0.484
Mof_Tb	Tb	0.98392	0.22127	0.56209	2.716
Mof_O 	O 	0.3722	0.4079	0.7843	-0.626
Mof_O 	O 	0.2157	0.385	0.7828	-0.509
Mof_O 	O 	0.884	0.1	0.5736	-0.719
Mof_H 	H 	0.8665	0.0765	0.5859	0.058
Mof_H 	H 	0.8447	0.082	0.5651	0.478
Mof_O 	O 	0.0968	0.245	0.7148	-0.616
Mof_O 	O 	0.1249	0.0961	0.7204	-0.595
Mof_O 	O 	0.1099	0.9945	0.68059	-0.406
Mof_O 	O 	0.0402	0.1323	0.6791	-0.721
Mof_O 	O 	0.002	0.1773	0.5983	-0.483
Mof_O 	O 	0.1418	0.1822	0.5791	-0.42
Mof_O 	O 	0.0314	0.0678	0.5515	-0.658
Mof_C 	C 	0.3077	0.2942	0.7588	-0.244
Mof_C 	C 	0.3901	0.266	0.754	0.126
Mof_H 	H 	0.4416	0.2893	0.7614	-0.022
Mof_C 	C 	0.405	0.198	0.7368	-0.169
Mof_H 	H 	0.4643	0.1743	0.7334	0.078
Mof_C 	C 	0.3171	0.171	0.7255	0.074
Mof_C 	C 	0.2369	0.209	0.731	-0.241
Mof_C 	C 	0.226	0.273	0.7477	0.15
Mof_H 	H 	0.168	0.3	0.7511	-0.016
Mof_C 	C 	0.3335	0.1009	0.7079	0.118
Mof_C 	C 	0.3809	0.0178	0.7092	-0.396
Mof_H 	H 	0.4041	0.9993	0.7222	0.206
Mof_C 	C 	0.396	0.96	0.6925	0.226
Mof_H 	H 	0.4339	0.9069	0.6933	-0.048
Mof_C 	C 	0.351	0.988	0.6739	-0.1
Mof_H 	H 	0.3576	0.9488	0.6624	0.076
Mof_C 	C 	0.2995	0.064	0.6713	0.006
Mof_C 	C 	0.2948	0.121	0.688	-0.131
Mof_H 	H 	0.2636	0.1783	0.6864	0.074
Mof_C 	C 	0.2474	0.085	0.6516	0.077
Mof_C 	C 	0.3008	0.097	0.6321	-0.144
Mof_H 	H 	0.3657	0.0892	0.6309	0.06
Mof_C 	C 	0.24	0.122	0.6152	0.037
Mof_H 	H 	0.2689	0.1308	0.6022	0.015
Mof_C 	C 	0.1503	0.135	0.6159	-0.111
Mof_C 	C 	0.1019	0.1201	0.6343	0.063
Mof_H 	H 	0.0369	0.128	0.6351	-0.011
Mof_C 	C 	0.1561	0.0916	0.6523	-0.19
Mof_C 	C 	0.301	0.3656	0.7753	0.432
Mof_C 	C 	0.1467	0.1793	0.7209	0.578
Mof_C 	C 	0.0971	0.0742	0.672	0.427
Mof_C 	C 	0.098	0.1617	0.5964	0.239
Mof_O 	O 	0.843	0.134	0.5658	-0.903
Mof_H 	H 	0.8075	0.1155	0.5567	0.223
Mof_H 	H 	0.836	0.0973	0.5769	0.485
Mof_Tb	Tb	0.27873	0.48392	0.93791	2.466
Mof_O 	O 	0.0921	0.8722	0.7157	-0.566
Mof_O 	O 	0.115	0.7157	0.7172	-0.487
Mof_O 	O 	0.4	0.384	0.9264	-0.734
Mof_H 	H 	0.4235	0.3665	0.9141	0.062
Mof_H 	H 	0.418	0.3447	0.9349	0.476
Mof_O 	O 	0.255	0.5968	0.7852	-0.575
Mof_O 	O 	0.4039	0.6249	0.7796	-0.607
Mof_O 	O 	0.5055	0.6099	0.81941	-0.496
Mof_O 	O 	0.3677	0.5402	0.8209	-0.689
Mof_O 	O 	0.3227	0.502	0.9017	-0.42
Mof_O 	O 	0.3178	0.6418	0.9209	-0.385
Mof_O 	O 	0.4322	0.5314	0.9485	-0.699
Mof_C 	C 	0.2058	0.8077	0.7412	-0.234
Mof_C 	C 	0.234	0.8901	0.746	0.131
Mof_H 	H 	0.2107	0.9416	0.7386	-0.003
Mof_C 	C 	0.302	0.905	0.7632	-0.186
Mof_H 	H 	0.3257	0.9643	0.7666	0.106
Mof_C 	C 	0.329	0.8171	0.7745	0.144
Mof_C 	C 	0.291	0.7369	0.769	-0.265
Mof_C 	C 	0.227	0.726	0.7523	0.161
Mof_H 	H 	0.2	0.668	0.7489	-0.013
Mof_C 	C 	0.3991	0.8335	0.7921	-0.023
Mof_C 	C 	0.4822	0.8809	0.7908	-0.036
Mof_H 	H 	0.5007	0.9041	0.7778	0.051
Mof_C 	C 	0.54	0.896	0.8075	-0.032
Mof_H 	H 	0.5931	0.9339	0.8067	0.058
Mof_C 	C 	0.512	0.851	0.8261	-0.044
Mof_H 	H 	0.5512	0.8576	0.8376	0.051
Mof_C 	C 	0.436	0.7995	0.8287	-0.007
Mof_C 	C 	0.379	0.7948	0.812	-0.041
Mof_H 	H 	0.3217	0.7636	0.8136	0.046
Mof_C 	C 	0.415	0.7474	0.8484	0.108
Mof_C 	C 	0.403	0.8008	0.8679	-0.144
Mof_H 	H 	0.4108	0.8657	0.8691	0.084
Mof_C 	C 	0.378	0.74	0.8848	0.05
Mof_H 	H 	0.3692	0.7689	0.8978	0.025
Mof_C 	C 	0.365	0.6503	0.8841	-0.104
Mof_C 	C 	0.3799	0.6019	0.8657	0.078
Mof_H 	H 	0.372	0.5369	0.8649	0.009
Mof_C 	C 	0.4084	0.6561	0.8477	-0.195
Mof_C 	C 	0.1344	0.801	0.7247	0.409
Mof_C 	C 	0.3207	0.6467	0.7791	0.591
Mof_C 	C 	0.4258	0.5971	0.828	0.495
Mof_C 	C 	0.3383	0.598	0.9036	0.246
Mof_O 	O 	0.366	0.343	0.9342	-0.87
Mof_H 	H 	0.3845	0.3075	0.9433	0.215
Mof_H 	H 	0.4027	0.336	0.9231	0.482
Mof_Tb	Tb	0.77873	0.98392	0.43791	2.723
Mof_O 	O 	0.5921	0.3722	0.2157	-0.629
Mof_O 	O 	0.615	0.2157	0.2172	-0.51
Mof_O 	O 	0.9	0.884	0.4264	-0.711
Mof_H 	H 	0.9235	0.8665	0.4141	0.089
Mof_H 	H 	0.918	0.8447	0.4349	0.505
Mof_O 	O 	0.755	0.0968	0.2852	-0.618
Mof_O 	O 	0.9039	0.1249	0.2796	-0.552
Mof_O 	O 	0.0055	0.1099	0.31941	-0.555
Mof_O 	O 	0.8677	0.0402	0.3209	-0.753
Mof_O 	O 	0.8227	0.002	0.4017	-0.471
Mof_O 	O 	0.8178	0.1418	0.4209	-0.409
Mof_O 	O 	0.9322	0.0314	0.4485	-0.581
Mof_C 	C 	0.7058	0.3077	0.2412	-0.284
Mof_C 	C 	0.734	0.3901	0.246	0.182
Mof_H 	H 	0.7107	0.4416	0.2386	-0.04
Mof_C 	C 	0.802	0.405	0.2632	-0.233
Mof_H 	H 	0.8257	0.4643	0.2666	0.113
Mof_C 	C 	0.829	0.3171	0.2745	0.229
Mof_C 	C 	0.791	0.2369	0.269	-0.308
Mof_C 	C 	0.727	0.226	0.2523	0.208
Mof_H 	H 	0.7	0.168	0.2489	-0.031
Mof_C 	C 	0.8991	0.3335	0.2921	-0.188
Mof_C 	C 	0.9822	0.3809	0.2908	0.333
Mof_H 	H 	0.0007	0.4041	0.2778	-0.131
Mof_C 	C 	0.04	0.396	0.3075	-0.321
Mof_H 	H 	0.0931	0.4339	0.3067	0.134
Mof_C 	C 	0.012	0.351	0.3261	0.025
Mof_H 	H 	0.0512	0.3576	0.3376	-0.002
Mof_C 	C 	0.936	0.2995	0.3287	-0.049
Mof_C 	C 	0.879	0.2948	0.312	0.066
Mof_H 	H 	0.8217	0.2636	0.3136	0.009
Mof_C 	C 	0.915	0.2474	0.3484	0.161
Mof_C 	C 	0.903	0.3008	0.3679	-0.17
Mof_H 	H 	0.9108	0.3657	0.3691	0.097
Mof_C 	C 	0.878	0.24	0.3848	0.079
Mof_H 	H 	0.8692	0.2689	0.3978	0.02
Mof_C 	C 	0.865	0.1503	0.3841	-0.128
Mof_C 	C 	0.8799	0.1019	0.3657	0.116
Mof_H 	H 	0.872	0.0369	0.3649	-0.014
Mof_C 	C 	0.9084	0.1561	0.3477	-0.244
Mof_C 	C 	0.6344	0.301	0.2247	0.449
Mof_C 	C 	0.8207	0.1467	0.2791	0.602
Mof_C 	C 	0.9258	0.0971	0.328	0.594
Mof_C 	C 	0.8383	0.098	0.4036	0.26
Mof_O 	O 	0.866	0.843	0.4342	-0.926
Mof_H 	H 	0.8845	0.8075	0.4433	0.249
Mof_H 	H 	0.9027	0.836	0.4231	0.484
Mof_Tb	Tb	0.72127	0.51608	0.93791	2.499
Mof_O 	O 	0.9079	0.1278	0.7157	-0.563
Mof_O 	O 	0.885	0.2843	0.7172	-0.506
Mof_O 	O 	0.6	0.616	0.9264	-0.743
Mof_H 	H 	0.5765	0.6335	0.9141	0.067
Mof_H 	H 	0.582	0.6553	0.9349	0.476
Mof_O 	O 	0.745	0.4032	0.7852	-0.571
Mof_O 	O 	0.5961	0.3751	0.7796	-0.608
Mof_O 	O 	0.4945	0.3901	0.81941	-0.498
Mof_O 	O 	0.6323	0.4598	0.8209	-0.692
Mof_O 	O 	0.6773	0.498	0.9017	-0.417
Mof_O 	O 	0.6822	0.3582	0.9209	-0.39
Mof_O 	O 	0.5678	0.4686	0.9485	-0.703
Mof_C 	C 	0.7942	0.1923	0.7412	-0.238
Mof_C 	C 	0.766	0.1099	0.746	0.136
Mof_H 	H 	0.7893	0.0584	0.7386	-0.03
Mof_C 	C 	0.698	0.095	0.7632	-0.187
Mof_H 	H 	0.6743	0.0357	0.7666	0.079
Mof_C 	C 	0.671	0.1829	0.7745	0.139
Mof_C 	C 	0.709	0.2631	0.769	-0.26
Mof_C 	C 	0.773	0.274	0.7523	0.165
Mof_H 	H 	0.8	0.332	0.7489	-0.004
Mof_C 	C 	0.6009	0.1665	0.7921	-0.028
Mof_C 	C 	0.5178	0.1191	0.7908	-0.048
Mof_H 	H 	0.4993	0.0959	0.7778	0.03
Mof_C 	C 	0.46	0.104	0.8075	-0.043
Mof_H 	H 	0.4069	0.0661	0.8067	0.021
Mof_C 	C 	0.488	0.149	0.8261	-0.055
Mof_H 	H 	0.4488	0.1424	0.8376	0.034
Mof_C 	C 	0.564	0.2005	0.8287	-0.01
Mof_C 	C 	0.621	0.2052	0.812	-0.048
Mof_H 	H 	0.6783	0.2364	0.8136	0.047
Mof_C 	C 	0.585	0.2526	0.8484	0.101
Mof_C 	C 	0.597	0.1992	0.8679	-0.143
Mof_H 	H 	0.5892	0.1343	0.8691	0.064
Mof_C 	C 	0.622	0.26	0.8848	0.042
Mof_H 	H 	0.6308	0.2311	0.8978	0.018
Mof_C 	C 	0.635	0.3497	0.8841	-0.102
Mof_C 	C 	0.6201	0.3981	0.8657	0.073
Mof_H 	H 	0.628	0.4631	0.8649	0.011
Mof_C 	C 	0.5916	0.3439	0.8477	-0.193
Mof_C 	C 	0.8656	0.199	0.7247	0.422
Mof_C 	C 	0.6793	0.3533	0.7791	0.591
Mof_C 	C 	0.5742	0.4029	0.828	0.496
Mof_C 	C 	0.6617	0.402	0.9036	0.243
Mof_O 	O 	0.634	0.657	0.9342	-0.87
Mof_H 	H 	0.6155	0.6925	0.9433	0.224
Mof_H 	H 	0.5973	0.664	0.9231	0.491
Mof_Tb	Tb	0.22127	0.01608	0.43791	2.179
Mof_O 	O 	0.4079	0.6278	0.2157	-0.624
Mof_O 	O 	0.385	0.7843	0.2172	-0.496
Mof_O 	O 	0.1	0.116	0.4264	-0.72
Mof_H 	H 	0.0765	0.1335	0.4141	0.036
Mof_H 	H 	0.082	0.1553	0.4349	0.45
Mof_O 	O 	0.245	0.9032	0.2852	-0.501
Mof_O 	O 	0.0961	0.8751	0.2796	-0.542
Mof_O 	O 	0.9945	0.8901	0.31941	-0.363
Mof_O 	O 	0.1323	0.9598	0.3209	-0.576
Mof_O 	O 	0.1773	0.998	0.4017	-0.355
Mof_O 	O 	0.1822	0.8582	0.4209	-0.364
Mof_O 	O 	0.0678	0.9686	0.4485	-0.504
Mof_C 	C 	0.2942	0.6923	0.2412	-0.221
Mof_C 	C 	0.266	0.6099	0.246	0.109
Mof_H 	H 	0.2893	0.5584	0.2386	-0.016
Mof_C 	C 	0.198	0.595	0.2632	-0.153
Mof_H 	H 	0.1743	0.5357	0.2666	0.073
Mof_C 	C 	0.171	0.6829	0.2745	0.053
Mof_C 	C 	0.209	0.7631	0.269	-0.205
Mof_C 	C 	0.273	0.774	0.2523	0.127
Mof_H 	H 	0.3	0.832	0.2489	0.013
Mof_C 	C 	0.1009	0.6665	0.2921	0.139
Mof_C 	C 	0.0178	0.6191	0.2908	-0.411
Mof_H 	H 	0.9993	0.5959	0.2778	0.21
Mof_C 	C 	0.96	0.604	0.3075	0.245
Mof_H 	H 	0.9069	0.5661	0.3067	-0.055
Mof_C 	C 	0.988	0.649	0.3261	-0.129
Mof_H 	H 	0.9488	0.6424	0.3376	0.088
Mof_C 	C 	0.064	0.7005	0.3287	0.038
Mof_C 	C 	0.121	0.7052	0.312	-0.157
Mof_H 	H 	0.1783	0.7364	0.3136	0.086
Mof_C 	C 	0.085	0.7526	0.3484	0.044
Mof_C 	C 	0.097	0.6992	0.3679	-0.114
Mof_H 	H 	0.0892	0.6343	0.3691	0.05
Mof_C 	C 	0.122	0.76	0.3848	0.01
Mof_H 	H 	0.1308	0.7311	0.3978	0.025
Mof_C 	C 	0.135	0.8497	0.3841	-0.075
Mof_C 	C 	0.1201	0.8981	0.3657	0.033
Mof_H 	H 	0.128	0.9631	0.3649	0.038
Mof_C 	C 	0.0916	0.8439	0.3477	-0.138
Mof_C 	C 	0.3656	0.699	0.2247	0.426
Mof_C 	C 	0.1793	0.8533	0.2791	0.535
Mof_C 	C 	0.0742	0.9029	0.328	0.388
Mof_C 	C 	0.1617	0.902	0.4036	0.23
Mof_O 	O 	0.134	0.157	0.4342	-0.83
Mof_H 	H 	0.1155	0.1925	0.4433	0.202
Mof_H 	H 	0.0973	0.164	0.4231	0.475
Mof_Tb	Tb	0.98392	0.27873	0.68791	2.728
Mof_O 	O 	0.3722	0.0921	0.4657	-0.607
Mof_O 	O 	0.2157	0.115	0.4672	-0.495
Mof_O 	O 	0.884	0.4	0.6764	-0.724
Mof_H 	H 	0.8665	0.4235	0.6641	0.074
Mof_H 	H 	0.8447	0.418	0.6849	0.491
Mof_O 	O 	0.0968	0.255	0.5352	-0.627
Mof_O 	O 	0.1249	0.4039	0.5296	-0.601
Mof_O 	O 	0.1099	0.5055	0.56941	-0.498
Mof_O 	O 	0.0402	0.3677	0.5709	-0.746
Mof_O 	O 	0.002	0.3227	0.6517	-0.48
Mof_O 	O 	0.1418	0.3178	0.6709	-0.416
Mof_O 	O 	0.0314	0.4322	0.6985	-0.695
Mof_C 	C 	0.3077	0.2058	0.4912	-0.26
Mof_C 	C 	0.3901	0.234	0.496	0.147
Mof_H 	H 	0.4416	0.2107	0.4886	-0.029
Mof_C 	C 	0.405	0.302	0.5132	-0.202
Mof_H 	H 	0.4643	0.3257	0.5166	0.094
Mof_C 	C 	0.3171	0.329	0.5245	0.152
Mof_C 	C 	0.2369	0.291	0.519	-0.281
Mof_C 	C 	0.226	0.227	0.5023	0.176
Mof_H 	H 	0.168	0.2	0.4989	-0.029
Mof_C 	C 	0.3335	0.3991	0.5421	-0.038
Mof_C 	C 	0.3809	0.4822	0.5408	-0.029
Mof_H 	H 	0.4041	0.5007	0.5278	0.037
Mof_C 	C 	0.396	0.54	0.5575	-0.05
Mof_H 	H 	0.4339	0.5931	0.5567	0.047
Mof_C 	C 	0.351	0.512	0.5761	-0.035
Mof_H 	H 	0.3576	0.5512	0.5876	0.038
Mof_C 	C 	0.2995	0.436	0.5787	-0.024
Mof_C 	C 	0.2948	0.379	0.562	-0.031
Mof_H 	H 	0.2636	0.3217	0.5636	0.038
Mof_C 	C 	0.2474	0.415	0.5984	0.12
Mof_C 	C 	0.3008	0.403	0.6179	-0.158
Mof_H 	H 	0.3657	0.4108	0.6191	0.078
Mof_C 	C 	0.24	0.378	0.6348	0.059
Mof_H 	H 	0.2689	0.3692	0.6478	0.016
Mof_C 	C 	0.1503	0.365	0.6341	-0.121
Mof_C 	C 	0.1019	0.3799	0.6157	0.091
Mof_H 	H 	0.0369	0.372	0.6149	-0.013
Mof_C 	C 	0.1561	0.4084	0.5977	-0.218
Mof_C 	C 	0.301	0.1344	0.4747	0.423
Mof_C 	C 	0.1467	0.3207	0.5291	0.601
Mof_C 	C 	0.0971	0.4258	0.578	0.513
Mof_C 	C 	0.098	0.3383	0.6536	0.25
Mof_O 	O 	0.843	0.366	0.6842	-0.911
Mof_H 	H 	0.8075	0.3845	0.6933	0.232
Mof_H 	H 	0.836	0.4027	0.6731	0.486
Mof_Tb	Tb	0.48392	0.77873	0.18791	2.479
Mof_O 	O 	0.8722	0.5921	0.9657	-0.589
Mof_O 	O 	0.7157	0.615	0.9672	-0.501
Mof_O 	O 	0.384	0.9	0.1764	-0.721
Mof_H 	H 	0.3665	0.9235	0.1641	0.08
Mof_H 	H 	0.3447	0.918	0.1849	0.493
Mof_O 	O 	0.5968	0.755	0.0352	-0.567
Mof_O 	O 	0.6249	0.9039	0.0296	-0.559
Mof_O 	O 	0.6099	0.0055	0.06941	-0.552
Mof_O 	O 	0.5402	0.8677	0.0709	-0.698
Mof_O 	O 	0.502	0.8227	0.1517	-0.413
Mof_O 	O 	0.6418	0.8178	0.1709	-0.381
Mof_O 	O 	0.5314	0.9322	0.1985	-0.591
Mof_C 	C 	0.8077	0.7058	0.9912	-0.258
Mof_C 	C 	0.8901	0.734	0.996	0.165
Mof_H 	H 	0.9416	0.7107	0.9886	-0.015
Mof_C 	C 	0.905	0.802	0.0132	-0.216
Mof_H 	H 	0.9643	0.8257	0.0166	0.124
Mof_C 	C 	0.8171	0.829	0.0245	0.218
Mof_C 	C 	0.7369	0.791	0.019	-0.291
Mof_C 	C 	0.726	0.727	0.0023	0.193
Mof_H 	H 	0.668	0.7	0.9989	-0.015
Mof_C 	C 	0.8335	0.8991	0.0421	-0.168
Mof_C 	C 	0.8809	0.9822	0.0408	0.316
Mof_H 	H 	0.9041	0.0007	0.0278	-0.112
Mof_C 	C 	0.896	0.04	0.0575	-0.296
Mof_H 	H 	0.9339	0.0931	0.0567	0.143
Mof_C 	C 	0.851	0.012	0.0761	0.014
Mof_H 	H 	0.8576	0.0512	0.0876	0.012
Mof_C 	C 	0.7995	0.936	0.0787	-0.031
Mof_C 	C 	0.7948	0.879	0.062	0.053
Mof_H 	H 	0.7636	0.8217	0.0636	0.017
Mof_C 	C 	0.7474	0.915	0.0984	0.148
Mof_C 	C 	0.8008	0.903	0.1179	-0.155
Mof_H 	H 	0.8657	0.9108	0.1191	0.103
Mof_C 	C 	0.74	0.878	0.1348	0.069
Mof_H 	H 	0.7689	0.8692	0.1478	0.028
Mof_C 	C 	0.6503	0.865	0.1341	-0.111
Mof_C 	C 	0.6019	0.8799	0.1157	0.103
Mof_H 	H 	0.5369	0.872	0.1149	0.008
Mof_C 	C 	0.6561	0.9084	0.0977	-0.221
Mof_C 	C 	0.801	0.6344	0.9747	0.434
Mof_C 	C 	0.6467	0.8207	0.0291	0.592
Mof_C 	C 	0.5971	0.9258	0.078	0.577
Mof_C 	C 	0.598	0.8383	0.1536	0.256
Mof_O 	O 	0.343	0.866	0.1842	-0.888
Mof_H 	H 	0.3075	0.8845	0.1933	0.233
Mof_H 	H 	0.336	0.9027	0.1731	0.48
Mof_Tb	Tb	0.01608	0.72127	0.68791	2.222
Mof_O 	O 	0.6278	0.9079	0.4657	-0.578
Mof_O 	O 	0.7843	0.885	0.4672	-0.502
Mof_O 	O 	0.116	0.6	0.6764	-0.73
Mof_H 	H 	0.1335	0.5765	0.6641	0.055
Mof_H 	H 	0.1553	0.582	0.6849	0.464
Mof_O 	O 	0.9032	0.745	0.5352	-0.51
Mof_O 	O 	0.8751	0.5961	0.5296	-0.551
Mof_O 	O 	0.8901	0.4945	0.56941	-0.45
Mof_O 	O 	0.9598	0.6323	0.5709	-0.606
Mof_O 	O 	0.998	0.6773	0.6517	-0.353
Mof_O 	O 	0.8582	0.6822	0.6709	-0.36
Mof_O 	O 	0.9686	0.5678	0.6985	-0.551
Mof_C 	C 	0.6923	0.7942	0.4912	-0.227
Mof_C 	C 	0.6099	0.766	0.496	0.131
Mof_H 	H 	0.5584	0.7893	0.4886	-0.015
Mof_C 	C 	0.595	0.698	0.5132	-0.177
Mof_H 	H 	0.5357	0.6743	0.5166	0.091
Mof_C 	C 	0.6829	0.671	0.5245	0.129
Mof_C 	C 	0.7631	0.709	0.519	-0.238
Mof_C 	C 	0.774	0.773	0.5023	0.154
Mof_H 	H 	0.832	0.8	0.4989	0.01
Mof_C 	C 	0.6665	0.6009	0.5421	-0.01
Mof_C 	C 	0.6191	0.5178	0.5408	-0.056
Mof_H 	H 	0.5959	0.4993	0.5278	0.046
Mof_C 	C 	0.604	0.46	0.5575	-0.023
Mof_H 	H 	0.5661	0.4069	0.5567	0.032
Mof_C 	C 	0.649	0.488	0.5761	-0.065
Mof_H 	H 	0.6424	0.4488	0.5876	0.047
Mof_C 	C 	0.7005	0.564	0.5787	0.009
Mof_C 	C 	0.7052	0.621	0.562	-0.06
Mof_H 	H 	0.7364	0.6783	0.5636	0.056
Mof_C 	C 	0.7526	0.585	0.5984	0.087
Mof_C 	C 	0.6992	0.597	0.6179	-0.127
Mof_H 	H 	0.6343	0.5892	0.6191	0.069
Mof_C 	C 	0.76	0.622	0.6348	0.03
Mof_H 	H 	0.7311	0.6308	0.6478	0.027
Mof_C 	C 	0.8497	0.635	0.6341	-0.084
Mof_C 	C 	0.8981	0.6201	0.6157	0.058
Mof_H 	H 	0.9631	0.628	0.6149	0.036
Mof_C 	C 	0.8439	0.5916	0.5977	-0.166
Mof_C 	C 	0.699	0.8656	0.4747	0.427
Mof_C 	C 	0.8533	0.6793	0.5291	0.558
Mof_C 	C 	0.9029	0.5742	0.578	0.47
Mof_C 	C 	0.902	0.6617	0.6536	0.239
Mof_O 	O 	0.157	0.634	0.6842	-0.838
Mof_H 	H 	0.1925	0.6155	0.6933	0.212
Mof_H 	H 	0.164	0.5973	0.6731	0.479
Mof_Tb	Tb	0.51608	0.22127	0.18791	2.461
Mof_O 	O 	0.1278	0.4079	0.9657	-0.61
Mof_O 	O 	0.2843	0.385	0.9672	-0.501
Mof_O 	O 	0.616	0.1	0.1764	-0.733
Mof_H 	H 	0.6335	0.0765	0.1641	0.048
Mof_H 	H 	0.6553	0.082	0.1849	0.463
Mof_O 	O 	0.4032	0.245	0.0352	-0.566
Mof_O 	O 	0.3751	0.0961	0.0296	-0.602
Mof_O 	O 	0.3901	0.9945	0.06941	-0.403
Mof_O 	O 	0.4598	0.1323	0.0709	-0.663
Mof_O 	O 	0.498	0.1773	0.1517	-0.421
Mof_O 	O 	0.3582	0.1822	0.1709	-0.394
Mof_O 	O 	0.4686	0.0678	0.1985	-0.661
Mof_C 	C 	0.1923	0.2942	0.9912	-0.232
Mof_C 	C 	0.1099	0.266	0.996	0.114
Mof_H 	H 	0.0584	0.2893	0.9886	-0.031
Mof_C 	C 	0.095	0.198	0.0132	-0.162
Mof_H 	H 	0.0357	0.1743	0.0166	0.059
Mof_C 	C 	0.1829	0.171	0.0245	0.058
Mof_C 	C 	0.2631	0.209	0.019	-0.226
Mof_C 	C 	0.274	0.273	0.0023	0.137
Mof_H 	H 	0.332	0.3	0.9989	-0.002
Mof_C 	C 	0.1665	0.1009	0.0421	0.131
Mof_C 	C 	0.1191	0.0178	0.0408	-0.43
Mof_H 	H 	0.0959	0.9993	0.0278	0.208
Mof_C 	C 	0.104	0.96	0.0575	0.244
Mof_H 	H 	0.0661	0.9069	0.0567	-0.071
Mof_C 	C 	0.149	0.988	0.0761	-0.12
Mof_H 	H 	0.1424	0.9488	0.0876	0.077
Mof_C 	C 	0.2005	0.064	0.0787	0.018
Mof_C 	C 	0.2052	0.121	0.062	-0.151
Mof_H 	H 	0.2364	0.1783	0.0636	0.08
Mof_C 	C 	0.2526	0.085	0.0984	0.056
Mof_C 	C 	0.1992	0.097	0.1179	-0.13
Mof_H 	H 	0.1343	0.0892	0.1191	0.043
Mof_C 	C 	0.26	0.122	0.1348	0.02
Mof_H 	H 	0.2311	0.1308	0.1478	0.015
Mof_C 	C 	0.3497	0.135	0.1341	-0.093
Mof_C 	C 	0.3981	0.1201	0.1157	0.046
Mof_H 	H 	0.4631	0.128	0.1149	0.013
Mof_C 	C 	0.3439	0.0916	0.0977	-0.164
Mof_C 	C 	0.199	0.3656	0.9747	0.42
Mof_C 	C 	0.3533	0.1793	0.0291	0.568
Mof_C 	C 	0.4029	0.0742	0.078	0.407
Mof_C 	C 	0.402	0.1617	0.1536	0.234
Mof_O 	O 	0.657	0.134	0.1842	-0.862
Mof_H 	H 	0.6925	0.1155	0.1933	0.214
Mof_H 	H 	0.664	0.0973	0.1731	0.487
Mof_Tb	Tb	0.22127	0.48392	0.81209	2.455
Mof_O 	O 	0.4079	0.8722	0.0343	-0.585
Mof_O 	O 	0.385	0.7157	0.0328	-0.501
Mof_O 	O 	0.1	0.384	0.8236	-0.73
Mof_H 	H 	0.0765	0.3665	0.8359	0.045
Mof_H 	H 	0.082	0.3447	0.8151	0.462
Mof_O 	O 	0.245	0.5968	0.9648	-0.563
Mof_O 	O 	0.0961	0.6249	0.9704	-0.601
Mof_O 	O 	0.9945	0.6099	0.93059	-0.403
Mof_O 	O 	0.1323	0.5402	0.9291	-0.664
Mof_O 	O 	0.1773	0.502	0.8483	-0.422
Mof_O 	O 	0.1822	0.6418	0.8291	-0.39
Mof_O 	O 	0.0678	0.5314	0.8015	-0.659
Mof_C 	C 	0.2942	0.8077	0.0088	-0.219
Mof_C 	C 	0.266	0.8901	0.004	0.111
Mof_H 	H 	0.2893	0.9416	0.0114	0.003
Mof_C 	C 	0.198	0.905	0.9868	-0.154
Mof_H 	H 	0.1743	0.9643	0.9834	0.091
Mof_C 	C 	0.171	0.8171	0.9755	0.068
Mof_C 	C 	0.209	0.7369	0.981	-0.225
Mof_C 	C 	0.273	0.726	0.9977	0.136
Mof_H 	H 	0.3	0.668	0.0011	-0
Mof_C 	C 	0.1009	0.8335	0.9579	0.129
Mof_C 	C 	0.0178	0.8809	0.9592	-0.394
Mof_H 	H 	0.9993	0.9041	0.9722	0.216
Mof_C 	C 	0.96	0.896	0.9425	0.238
Mof_H 	H 	0.9069	0.9339	0.9433	-0.034
Mof_C 	C 	0.988	0.851	0.9239	-0.106
Mof_H 	H 	0.9488	0.8576	0.9124	0.088
Mof_C 	C 	0.064	0.7995	0.9213	0.02
Mof_C 	C 	0.121	0.7948	0.938	-0.138
Mof_H 	H 	0.1783	0.7636	0.9364	0.081
Mof_C 	C 	0.085	0.7474	0.9016	0.066
Mof_C 	C 	0.097	0.8008	0.8821	-0.13
Mof_H 	H 	0.0892	0.8657	0.8809	0.066
Mof_C 	C 	0.122	0.74	0.8652	0.028
Mof_H 	H 	0.1308	0.7689	0.8522	0.023
Mof_C 	C 	0.135	0.6503	0.8659	-0.096
Mof_C 	C 	0.1201	0.6019	0.8843	0.051
Mof_H 	H 	0.128	0.5369	0.8851	0.011
Mof_C 	C 	0.0916	0.6561	0.9023	-0.167
Mof_C 	C 	0.3656	0.801	0.0253	0.419
Mof_C 	C 	0.1793	0.6467	0.9709	0.568
Mof_C 	C 	0.0742	0.5971	0.922	0.409
Mof_C 	C 	0.1617	0.598	0.8464	0.235
Mof_O 	O 	0.134	0.343	0.8158	-0.862
Mof_H 	H 	0.1155	0.3075	0.8067	0.205
Mof_H 	H 	0.0973	0.336	0.8269	0.48
Mof_Tb	Tb	0.72127	0.98392	0.31209	2.742
Mof_O 	O 	0.9079	0.3722	0.5343	-0.58
Mof_O 	O 	0.885	0.2157	0.5328	-0.515
Mof_O 	O 	0.6	0.884	0.3236	-0.728
Mof_H 	H 	0.5765	0.8665	0.3359	0.075
Mof_H 	H 	0.582	0.8447	0.3151	0.491
Mof_O 	O 	0.745	0.0968	0.4648	-0.618
Mof_O 	O 	0.5961	0.1249	0.4704	-0.6
Mof_O 	O 	0.4945	0.1099	0.43059	-0.499
Mof_O 	O 	0.6323	0.0402	0.4291	-0.746
Mof_O 	O 	0.6773	0.002	0.3483	-0.478
Mof_O 	O 	0.6822	0.1418	0.3291	-0.414
Mof_O 	O 	0.5678	0.0314	0.3015	-0.694
Mof_C 	C 	0.7942	0.3077	0.5088	-0.249
Mof_C 	C 	0.766	0.3901	0.504	0.147
Mof_H 	H 	0.7893	0.4416	0.5114	-0.021
Mof_C 	C 	0.698	0.405	0.4868	-0.193
Mof_H 	H 	0.6743	0.4643	0.4834	0.096
Mof_C 	C 	0.671	0.3171	0.4755	0.151
Mof_C 	C 	0.709	0.2369	0.481	-0.272
Mof_C 	C 	0.773	0.226	0.4977	0.176
Mof_H 	H 	0.8	0.168	0.5011	-0.016
Mof_C 	C 	0.6009	0.3335	0.4579	-0.032
Mof_C 	C 	0.5178	0.3809	0.4592	-0.033
Mof_H 	H 	0.4993	0.4041	0.4722	0.038
Mof_C 	C 	0.46	0.396	0.4425	-0.046
Mof_H 	H 	0.4069	0.4339	0.4433	0.04
Mof_C 	C 	0.488	0.351	0.4239	-0.039
Mof_H 	H 	0.4488	0.3576	0.4124	0.036
Mof_C 	C 	0.564	0.2995	0.4213	-0.02
Mof_C 	C 	0.621	0.2948	0.438	-0.034
Mof_H 	H 	0.6783	0.2636	0.4364	0.044
Mof_C 	C 	0.585	0.2474	0.4016	0.118
Mof_C 	C 	0.597	0.3008	0.3821	-0.156
Mof_H 	H 	0.5892	0.3657	0.3809	0.079
Mof_C 	C 	0.622	0.24	0.3652	0.057
Mof_H 	H 	0.6308	0.2689	0.3522	0.018
Mof_C 	C 	0.635	0.1503	0.3659	-0.119
Mof_C 	C 	0.6201	0.1019	0.3843	0.089
Mof_H 	H 	0.628	0.0369	0.3851	-0.012
Mof_C 	C 	0.5916	0.1561	0.4023	-0.218
Mof_C 	C 	0.8656	0.301	0.5253	0.433
Mof_C 	C 	0.6793	0.1467	0.4709	0.598
Mof_C 	C 	0.5742	0.0971	0.422	0.512
Mof_C 	C 	0.6617	0.098	0.3464	0.248
Mof_O 	O 	0.634	0.843	0.3158	-0.909
Mof_H 	H 	0.6155	0.8075	0.3067	0.232
Mof_H 	H 	0.5973	0.836	0.3269	0.488
Mof_Tb	Tb	0.77873	0.51608	0.81209	2.485
Mof_O 	O 	0.5921	0.1278	0.0343	-0.613
Mof_O 	O 	0.615	0.2843	0.0328	-0.501
Mof_O 	O 	0.9	0.616	0.8236	-0.724
Mof_H 	H 	0.9235	0.6335	0.8359	0.082
Mof_H 	H 	0.918	0.6553	0.8151	0.492
Mof_O 	O 	0.755	0.4032	0.9648	-0.57
Mof_O 	O 	0.9039	0.3751	0.9704	-0.56
Mof_O 	O 	0.0055	0.3901	0.93059	-0.555
Mof_O 	O 	0.8677	0.4598	0.9291	-0.699
Mof_O 	O 	0.8227	0.498	0.8483	-0.412
Mof_O 	O 	0.8178	0.3582	0.8291	-0.384
Mof_O 	O 	0.9322	0.4686	0.8015	-0.592
Mof_C 	C 	0.7058	0.1923	0.0088	-0.274
Mof_C 	C 	0.734	0.1099	0.004	0.172
Mof_H 	H 	0.7107	0.0584	0.0114	-0.049
Mof_C 	C 	0.802	0.095	0.9868	-0.229
Mof_H 	H 	0.8257	0.0357	0.9834	0.097
Mof_C 	C 	0.829	0.1829	0.9755	0.221
Mof_C 	C 	0.791	0.2631	0.981	-0.299
Mof_C 	C 	0.727	0.274	0.9977	0.198
Mof_H 	H 	0.7	0.332	0.0011	-0.019
Mof_C 	C 	0.8991	0.1665	0.9579	-0.191
Mof_C 	C 	0.9822	0.1191	0.9592	0.337
Mof_H 	H 	0.0007	0.0959	0.9722	-0.147
Mof_C 	C 	0.04	0.104	0.9425	-0.333
Mof_H 	H 	0.0931	0.0661	0.9433	0.119
Mof_C 	C 	0.012	0.149	0.9239	0.014
Mof_H 	H 	0.0512	0.1424	0.9124	-0.007
Mof_C 	C 	0.936	0.2005	0.9213	-0.042
Mof_C 	C 	0.879	0.2052	0.938	0.057
Mof_H 	H 	0.8217	0.2364	0.9364	0.01
Mof_C 	C 	0.915	0.2526	0.9016	0.145
Mof_C 	C 	0.903	0.1992	0.8821	-0.157
Mof_H 	H 	0.9108	0.1343	0.8809	0.083
Mof_C 	C 	0.878	0.26	0.8652	0.065
Mof_H 	H 	0.8692	0.2311	0.8522	0.02
Mof_C 	C 	0.865	0.3497	0.8659	-0.111
Mof_C 	C 	0.8799	0.3981	0.8843	0.101
Mof_H 	H 	0.872	0.4631	0.8851	0.009
Mof_C 	C 	0.9084	0.3439	0.9023	-0.221
Mof_C 	C 	0.6344	0.199	0.0253	0.437
Mof_C 	C 	0.8207	0.3533	0.9709	0.595
Mof_C 	C 	0.9258	0.4029	0.922	0.579
Mof_C 	C 	0.8383	0.402	0.8464	0.255
Mof_O 	O 	0.866	0.657	0.8158	-0.888
Mof_H 	H 	0.8845	0.6925	0.8067	0.241
Mof_H 	H 	0.9027	0.664	0.8269	0.486
Mof_Tb	Tb	0.27873	0.01608	0.31209	2.188
Mof_O 	O 	0.0921	0.6278	0.5343	-0.605
Mof_O 	O 	0.115	0.7843	0.5328	-0.482
Mof_O 	O 	0.4	0.116	0.3236	-0.724
Mof_H 	H 	0.4235	0.1335	0.3359	0.052
Mof_H 	H 	0.418	0.1553	0.3151	0.463
Mof_O 	O 	0.255	0.9032	0.4648	-0.514
Mof_O 	O 	0.4039	0.8751	0.4704	-0.55
Mof_O 	O 	0.5055	0.8901	0.43059	-0.449
Mof_O 	O 	0.3677	0.9598	0.4291	-0.601
Mof_O 	O 	0.3227	0.998	0.3483	-0.352
Mof_O 	O 	0.3178	0.8582	0.3291	-0.359
Mof_O 	O 	0.4322	0.9686	0.3015	-0.547
Mof_C 	C 	0.2058	0.6923	0.5088	-0.237
Mof_C 	C 	0.234	0.6099	0.504	0.13
Mof_H 	H 	0.2107	0.5584	0.5114	-0.022
Mof_C 	C 	0.302	0.595	0.4868	-0.185
Mof_H 	H 	0.3257	0.5357	0.4834	0.089
Mof_C 	C 	0.329	0.6829	0.4755	0.13
Mof_C 	C 	0.291	0.7631	0.481	-0.245
Mof_C 	C 	0.227	0.774	0.4977	0.152
Mof_H 	H 	0.2	0.832	0.5011	-0.001
Mof_C 	C 	0.3991	0.6665	0.4579	-0.015
Mof_C 	C 	0.4822	0.6191	0.4592	-0.052
Mof_H 	H 	0.5007	0.5959	0.4722	0.045
Mof_C 	C 	0.54	0.604	0.4425	-0.026
Mof_H 	H 	0.5931	0.5661	0.4433	0.038
Mof_C 	C 	0.512	0.649	0.4239	-0.063
Mof_H 	H 	0.5512	0.6424	0.4124	0.05
Mof_C 	C 	0.436	0.7005	0.4213	0.006
Mof_C 	C 	0.379	0.7052	0.438	-0.058
Mof_H 	H 	0.3217	0.7364	0.4364	0.051
Mof_C 	C 	0.415	0.7526	0.4016	0.087
Mof_C 	C 	0.403	0.6992	0.3821	-0.128
Mof_H 	H 	0.4108	0.6343	0.3809	0.068
Mof_C 	C 	0.378	0.76	0.3652	0.032
Mof_H 	H 	0.3692	0.7311	0.3522	0.026
Mof_C 	C 	0.365	0.8497	0.3659	-0.084
Mof_C 	C 	0.3799	0.8981	0.3843	0.059
Mof_H 	H 	0.372	0.9631	0.3851	0.035
Mof_C 	C 	0.4084	0.8439	0.4023	-0.164
Mof_C 	C 	0.1344	0.699	0.5253	0.417
Mof_C 	C 	0.3207	0.8533	0.4709	0.558
Mof_C 	C 	0.4258	0.9029	0.422	0.467
Mof_C 	C 	0.3383	0.902	0.3464	0.241
Mof_O 	O 	0.366	0.157	0.3158	-0.838
Mof_H 	H 	0.3845	0.1925	0.3067	0.212
Mof_H 	H 	0.4027	0.164	0.3269	0.476
Mof_Tb	Tb	4.88714e-33	0	0.2902	1.848
Mof_Tb	Tb	0.5	0.5	0.7902	2.231
Mof_Tb	Tb	1.19535e-32	0	0.7098	1.849
Mof_Tb	Tb	0.5	0.5	0.2098	2.231
Mof_Tb	Tb	0.5	-3.15108e-32	0.4598	2.023
Mof_Tb	Tb	1.61636e-32	0.5	0.9598	2.056
Mof_Tb	Tb	0.5	0	0.0402	2.055
Mof_Tb	Tb	9.09729e-33	0.5	0.5402	2.023
Mof_C 	C 	0.5	0.5	0.0586	0.997
Mof_H 	H 	0.5	0.5	0.0732	-0.291
Mof_C 	C 	-2.21037e-32	-3.15108e-32	0.5586	0.631
Mof_H 	H 	-2.18578e-32	-3.15108e-32	0.5732	-0.224
Mof_C 	C 	0.5	0.5	0.9414	0.997
Mof_H 	H 	0.5	0.5	0.9268	-0.291
Mof_C 	C 	7.43344e-33	0	0.4414	0.613
Mof_H 	H 	7.18757e-33	0	0.4268	-0.218
Mof_C 	C 	-1.98672e-32	0.5	0.6914	0.803
Mof_H 	H 	1.13977e-32	0.5	0.6768	-0.255
Mof_C 	C 	0.5	0	0.1914	0.813
Mof_H 	H 	0.5	-7.87771e-33	0.1768	-0.256
Mof_C 	C 	1.36173e-32	0.5	0.8086	0.811
Mof_H 	H 	-1.76477e-32	0.5	0.8232	-0.256
Mof_C 	C 	0.5	-1.57554e-32	0.3086	0.8
Mof_H 	H 	0.5	-1.57554e-32	0.3232	-0.254
_end
