# CIF file generated by openbabel 3.1.0, see https://openbabel.org
data_I
_chemical_name_common 'image0'
_cell_length_a 33.6473
_cell_length_b 33.6473
_cell_length_c 33.6473
_cell_angle_alpha 90
_cell_angle_beta 90
_cell_angle_gamma 90
_space_group_name_H-M_alt 'P 1'
_space_group_name_Hall 'P 1'
loop_
    _symmetry_equiv_pos_as_xyz
    x,y,z
loop_
    _atom_site_label
    _atom_site_type_symbol
    _atom_site_fract_x
    _atom_site_fract_y
    _atom_site_fract_z
    _atom_site_occupancy
    C1       C        0.40820    0.09470    0.49720    1.000
    C2       C        0.37810    0.12550    0.48650    1.000
    C3       C        0.38940    0.16380    0.47290    1.000
    H1       H        0.41670    0.17020    0.46990    1.000
    C4       C        0.36130    0.19130    0.46420    1.000
    C5       C        0.32020    0.18260    0.46930    1.000
    C6       C        0.31050    0.14500    0.48400    1.000
    H2       H        0.28340    0.13950    0.48990    1.000
    C7       C        0.33830    0.11530    0.49050    1.000
    H3       H        0.33040    0.08910    0.49740    1.000
    C8       C        0.29130    0.21190    0.46270    1.000
    C9       C        0.26490    0.23620    0.46070    1.000
    O1       O        0.36770    0.22850    0.44920    1.000
    C10      C        0.40760    0.24270    0.44430    1.000
    H4       H        0.42140    0.22700    0.42360    1.000
    H5       H        0.42250    0.24000    0.46950    1.000
    C11      C        0.40570    0.28520    0.43220    1.000
    C12      C        0.38210    0.30990    0.46310    1.000
    H6       H        0.35420    0.30050    0.46320    1.000
    H7       H        0.38200    0.33800    0.45450    1.000
    C13      C        0.37110    0.26860    0.53610    1.000
    H8       H        0.38370    0.24270    0.53170    1.000
    H9       H        0.34450    0.26860    0.52440    1.000
    H10      H        0.36910    0.27360    0.56480    1.000
    C14      C        0.44880    0.29960    0.42770    1.000
    H11      H        0.46180    0.28330    0.40690    1.000
    H12      H        0.46290    0.29430    0.45300    1.000
    C15      C        0.46470    0.37340    0.46460    1.000
    H13      H        0.48800    0.36100    0.47690    1.000
    H14      H        0.44140    0.36920    0.48160    1.000
    H15      H        0.46940    0.40190    0.46150    1.000
    C16      C        0.38240    0.29260    0.39370    1.000
    H16      H        0.38090    0.32160    0.38920    1.000
    H17      H        0.35490    0.28270    0.39740    1.000
    C17      C        0.37000    0.22580    0.34500    1.000
    H18      H        0.37770    0.20980    0.32140    1.000
    H19      H        0.37210    0.20950    0.36860    1.000
    H20      H        0.34270    0.23500    0.34130    1.000
    C18      C        0.59560    0.09000    0.49260    1.000
    C19      C        0.62700    0.12050    0.48280    1.000
    C20      C        0.61630    0.16130    0.48620    1.000
    H21      H        0.58970    0.16820    0.49290    1.000
    C21      C        0.64350    0.19010    0.48020    1.000
    C22      C        0.68160    0.18020    0.46460    1.000
    C23      C        0.69120    0.14020    0.46020    1.000
    H22      H        0.71630    0.13330    0.44930    1.000
    C24      C        0.66530    0.10980    0.47120    1.000
    H23      H        0.67350    0.08280    0.47090    1.000
    C25      C        0.71050    0.20960    0.45750    1.000
    C26      C        0.73590    0.23520    0.45540    1.000
    O2       O        0.63590    0.22980    0.48370    1.000
    C27      C        0.60430    0.24200    0.50920    1.000
    H24      H        0.60790    0.23100    0.53620    1.000
    H25      H        0.57840    0.23300    0.49860    1.000
    C28      C        0.60660    0.28910    0.50990    1.000
    C29      C        0.64280    0.30170    0.52670    1.000
    H26      H        0.64330    0.33110    0.52600    1.000
    H27      H        0.66450    0.29230    0.50920    1.000
    S1       S        0.65410    0.28680    0.57500    1.000
    C30      C        0.70180    0.31410    0.57270    1.000
    H28      H        0.71600    0.31090    0.59790    1.000
    H29      H        0.71800    0.30340    0.55100    1.000
    H30      H        0.69660    0.34230    0.56790    1.000
    C31      C        0.57520    0.30070    0.53760    1.000
    H31      H        0.57950    0.28650    0.56300    1.000
    H32      H        0.54940    0.29170    0.52670    1.000
    C32      C        0.52170    0.36170    0.56930    1.000
    H33      H        0.51890    0.39010    0.57530    1.000
    H34      H        0.50130    0.35380    0.55010    1.000
    H35      H        0.51850    0.34630    0.59380    1.000
    C33      C        0.60050    0.30430    0.46770    1.000
    H36      H        0.62360    0.29560    0.45160    1.000
    H37      H        0.60090    0.33370    0.46850    1.000
    C34      C        0.57350    0.24530    0.41440    1.000
    H38      H        0.60170    0.24120    0.42020    1.000
    H39      H        0.57000    0.24970    0.38580    1.000
    H40      H        0.55840    0.22170    0.42250    1.000
    O3       O        0.44550    0.10780    0.49760    1.000
    O4       O        0.39660    0.05990    0.50100    1.000
    O5       O        0.56000    0.10360    0.49590    1.000
    O6       O        0.60630    0.05450    0.49510    1.000
    S2       S        0.40110    0.30740    0.51310    1.000
    S3       S        0.45580    0.35074    0.41530    1.000
    S4       S        0.40350    0.26900    0.34880    1.000
    S5       S        0.57160    0.35230    0.54800    1.000
    S6       S        0.55530    0.28880    0.44190    1.000
    Zr1      Zr       0.50169    0.07346    0.49820    1.000
    O7       O        0.53200    0.02950    0.46990    1.000
    Hg1      Hg       0.65763    0.38376    0.38919    1.000
    Cl1      Cl       0.69730    0.35070    0.43980    1.000
    Cl2      Cl       0.61870    0.34920    0.34350    1.000
    C35      C        0.39300    0.23000    0.31100    1.000
    H41      H        0.41490    0.22910    0.29220    1.000
    H42      H        0.38980    0.20470    0.32440    1.000
    H43      H        0.36830    0.23710    0.29720    1.000
    C36      C        0.62530    0.12270    0.49000    1.000
    C37      C        0.61610    0.16310    0.49760    1.000
    H44      H        0.58990    0.17090    0.50480    1.000
    C38      C        0.64550    0.19010    0.49430    1.000
    C39      C        0.68430    0.17740    0.48350    1.000
    C40      C        0.69230    0.13760    0.47620    1.000
    H45      H        0.71850    0.12980    0.46900    1.000
    C41      C        0.66270    0.10900    0.47940    1.000
    H46      H        0.66780    0.08160    0.47450    1.000
    C42      C        0.71470    0.20610    0.48020    1.000
    C43      C        0.73720    0.23410    0.47870    1.000
    O8       O        0.64350    0.23000    0.50010    1.000
    H47      H        0.59580    0.23150    0.53530    1.000
    H48      H        0.58550    0.23270    0.48850    1.000
    O9       O        0.54090    0.03770    0.45570    1.000
    H49      H        0.55810    0.05380    0.43750    1.000
    C44      C        0.09180    0.40530    0.49720    1.000
    C45      C        0.12190    0.37450    0.48650    1.000
    C46      C        0.11060    0.33620    0.47290    1.000
    H50      H        0.08330    0.32980    0.46990    1.000
    C47      C        0.13870    0.30870    0.46420    1.000
    C48      C        0.17980    0.31740    0.46930    1.000
    C49      C        0.18950    0.35500    0.48400    1.000
    H51      H        0.21660    0.36050    0.48990    1.000
    C50      C        0.16170    0.38470    0.49050    1.000
    H52      H        0.16960    0.41090    0.49740    1.000
    C51      C        0.20870    0.28810    0.46270    1.000
    C52      C        0.23510    0.26380    0.46070    1.000
    O10      O        0.13230    0.27150    0.44920    1.000
    C53      C        0.09240    0.25730    0.44430    1.000
    H53      H        0.07860    0.27300    0.42360    1.000
    H54      H        0.07750    0.26000    0.46950    1.000
    C54      C        0.09430    0.21480    0.43220    1.000
    C55      C        0.11790    0.19010    0.46310    1.000
    H55      H        0.14580    0.19950    0.46320    1.000
    H56      H        0.11800    0.16200    0.45450    1.000
    C56      C        0.12890    0.23140    0.53610    1.000
    H57      H        0.11630    0.25730    0.53170    1.000
    H58      H        0.15550    0.23140    0.52440    1.000
    H59      H        0.13090    0.22640    0.56480    1.000
    C57      C        0.05120    0.20040    0.42770    1.000
    H60      H        0.03820    0.21670    0.40690    1.000
    H61      H        0.03710    0.20570    0.45300    1.000
    C58      C        0.03530    0.12660    0.46460    1.000
    H62      H        0.01200    0.13900    0.47690    1.000
    H63      H        0.05860    0.13080    0.48160    1.000
    H64      H        0.03060    0.09810    0.46150    1.000
    C59      C        0.11760    0.20740    0.39370    1.000
    H65      H        0.11910    0.17840    0.38920    1.000
    H66      H        0.14510    0.21730    0.39740    1.000
    C60      C        0.13000    0.27420    0.34500    1.000
    H67      H        0.12230    0.29020    0.32140    1.000
    H68      H        0.12790    0.29050    0.36860    1.000
    H69      H        0.15730    0.26500    0.34130    1.000
    C61      C        0.90440    0.41000    0.49260    1.000
    C62      C        0.87300    0.37950    0.48280    1.000
    C63      C        0.88370    0.33870    0.48620    1.000
    H70      H        0.91030    0.33180    0.49290    1.000
    C64      C        0.85650    0.30990    0.48020    1.000
    C65      C        0.81840    0.31980    0.46460    1.000
    C66      C        0.80880    0.35980    0.46020    1.000
    H71      H        0.78370    0.36670    0.44930    1.000
    C67      C        0.83470    0.39020    0.47120    1.000
    H72      H        0.82650    0.41720    0.47090    1.000
    C68      C        0.78950    0.29040    0.45750    1.000
    C69      C        0.76410    0.26480    0.45540    1.000
    O11      O        0.86410    0.27020    0.48370    1.000
    C70      C        0.89570    0.25800    0.50920    1.000
    H73      H        0.89210    0.26900    0.53620    1.000
    H74      H        0.92160    0.26700    0.49860    1.000
    C71      C        0.89340    0.21090    0.50990    1.000
    C72      C        0.85720    0.19830    0.52670    1.000
    H75      H        0.85670    0.16890    0.52600    1.000
    H76      H        0.83550    0.20770    0.50920    1.000
    S7       S        0.84590    0.21320    0.57500    1.000
    C73      C        0.79820    0.18590    0.57270    1.000
    H77      H        0.78400    0.18910    0.59790    1.000
    H78      H        0.78200    0.19660    0.55100    1.000
    H79      H        0.80340    0.15770    0.56790    1.000
    C74      C        0.92480    0.19930    0.53760    1.000
    H80      H        0.92050    0.21350    0.56300    1.000
    H81      H        0.95060    0.20830    0.52670    1.000
    C75      C        0.97830    0.13830    0.56930    1.000
    H82      H        0.98110    0.10990    0.57530    1.000
    H83      H        0.99870    0.14620    0.55010    1.000
    H84      H        0.98150    0.15370    0.59380    1.000
    C76      C        0.89950    0.19570    0.46770    1.000
    H85      H        0.87640    0.20440    0.45160    1.000
    H86      H        0.89910    0.16630    0.46850    1.000
    C77      C        0.92650    0.25470    0.41440    1.000
    H87      H        0.89830    0.25880    0.42020    1.000
    H88      H        0.93000    0.25030    0.38580    1.000
    H89      H        0.94160    0.27830    0.42250    1.000
    O12      O        0.05450    0.39220    0.49760    1.000
    O13      O        0.10340    0.44010    0.50100    1.000
    O14      O        0.94000    0.39640    0.49590    1.000
    O15      O        0.89370    0.44550    0.49510    1.000
    S8       S        0.09890    0.19260    0.51310    1.000
    S9       S        0.04420    0.14926    0.41530    1.000
    S10      S        0.09650    0.23100    0.34880    1.000
    S11      S        0.92840    0.14770    0.54800    1.000
    S12      S        0.94470    0.21120    0.44190    1.000
    Zr2      Zr       0.99831    0.42654    0.49820    1.000
    O16      O        0.96800    0.47050    0.46990    1.000
    Hg2      Hg       0.84237    0.11624    0.38919    1.000
    Cl3      Cl       0.80270    0.14930    0.43980    1.000
    Cl4      Cl       0.88130    0.15080    0.34350    1.000
    C78      C        0.10700    0.27000    0.31100    1.000
    H90      H        0.08510    0.27090    0.29220    1.000
    H91      H        0.11020    0.29530    0.32440    1.000
    H92      H        0.13170    0.26290    0.29720    1.000
    C79      C        0.87470    0.37730    0.49000    1.000
    C80      C        0.88390    0.33690    0.49760    1.000
    H93      H        0.91010    0.32910    0.50480    1.000
    C81      C        0.85450    0.30990    0.49430    1.000
    C82      C        0.81570    0.32260    0.48350    1.000
    C83      C        0.80770    0.36240    0.47620    1.000
    H94      H        0.78150    0.37020    0.46900    1.000
    C84      C        0.83730    0.39100    0.47940    1.000
    H95      H        0.83220    0.41840    0.47450    1.000
    C85      C        0.78530    0.29390    0.48020    1.000
    C86      C        0.76280    0.26590    0.47870    1.000
    O17      O        0.85650    0.27000    0.50010    1.000
    H96      H        0.90420    0.26850    0.53530    1.000
    H97      H        0.91450    0.26730    0.48850    1.000
    O18      O        0.95910    0.46230    0.45570    1.000
    H98      H        0.94190    0.44620    0.43750    1.000
    C87      C        0.09180    0.09470    0.00280    1.000
    C88      C        0.12190    0.12550    0.01350    1.000
    C89      C        0.11060    0.16380    0.02710    1.000
    H99      H        0.08330    0.17020    0.03010    1.000
    C90      C        0.13870    0.19130    0.03580    1.000
    C91      C        0.17980    0.18260    0.03070    1.000
    C92      C        0.18950    0.14500    0.01600    1.000
    H100     H        0.21660    0.13950    0.01010    1.000
    C93      C        0.16170    0.11530    0.00950    1.000
    H101     H        0.16960    0.08910    0.00260    1.000
    C94      C        0.20870    0.21190    0.03730    1.000
    C95      C        0.23510    0.23620    0.03930    1.000
    O19      O        0.13230    0.22850    0.05080    1.000
    C96      C        0.09240    0.24270    0.05570    1.000
    H102     H        0.07860    0.22700    0.07640    1.000
    H103     H        0.07750    0.24000    0.03050    1.000
    C97      C        0.09430    0.28520    0.06780    1.000
    C98      C        0.11790    0.30990    0.03690    1.000
    H104     H        0.14580    0.30050    0.03680    1.000
    H105     H        0.11800    0.33800    0.04550    1.000
    C99      C        0.12890    0.26860    0.96390    1.000
    H106     H        0.11630    0.24270    0.96830    1.000
    H107     H        0.15550    0.26860    0.97560    1.000
    H108     H        0.13090    0.27360    0.93520    1.000
    C100     C        0.05120    0.29960    0.07230    1.000
    H109     H        0.03820    0.28330    0.09310    1.000
    H110     H        0.03710    0.29430    0.04700    1.000
    C101     C        0.03530    0.37340    0.03540    1.000
    H111     H        0.01200    0.36100    0.02310    1.000
    H112     H        0.05860    0.36920    0.01840    1.000
    H113     H        0.03060    0.40190    0.03850    1.000
    C102     C        0.11760    0.29260    0.10630    1.000
    H114     H        0.11910    0.32160    0.11080    1.000
    H115     H        0.14510    0.28270    0.10260    1.000
    C103     C        0.13000    0.22580    0.15500    1.000
    H116     H        0.12230    0.20980    0.17860    1.000
    H117     H        0.12790    0.20950    0.13140    1.000
    H118     H        0.15730    0.23500    0.15870    1.000
    C104     C        0.90440    0.09000    0.00740    1.000
    C105     C        0.87300    0.12050    0.01720    1.000
    C106     C        0.88370    0.16130    0.01380    1.000
    H119     H        0.91030    0.16820    0.00710    1.000
    C107     C        0.85650    0.19010    0.01980    1.000
    C108     C        0.81840    0.18020    0.03540    1.000
    C109     C        0.80880    0.14020    0.03980    1.000
    H120     H        0.78370    0.13330    0.05070    1.000
    C110     C        0.83470    0.10980    0.02880    1.000
    H121     H        0.82650    0.08280    0.02910    1.000
    C111     C        0.78950    0.20960    0.04250    1.000
    C112     C        0.76410    0.23520    0.04460    1.000
    O20      O        0.86410    0.22980    0.01630    1.000
    C113     C        0.89570    0.24200    0.99080    1.000
    H122     H        0.89210    0.23100    0.96380    1.000
    H123     H        0.92160    0.23300    0.00140    1.000
    C114     C        0.89340    0.28910    0.99010    1.000
    C115     C        0.85720    0.30170    0.97330    1.000
    H124     H        0.85670    0.33110    0.97400    1.000
    H125     H        0.83550    0.29230    0.99080    1.000
    S13      S        0.84590    0.28680    0.92500    1.000
    C116     C        0.79820    0.31410    0.92730    1.000
    H126     H        0.78400    0.31090    0.90210    1.000
    H127     H        0.78200    0.30340    0.94900    1.000
    H128     H        0.80340    0.34230    0.93210    1.000
    C117     C        0.92480    0.30070    0.96240    1.000
    H129     H        0.92050    0.28650    0.93700    1.000
    H130     H        0.95060    0.29170    0.97330    1.000
    C118     C        0.97830    0.36170    0.93070    1.000
    H131     H        0.98110    0.39010    0.92470    1.000
    H132     H        0.99870    0.35380    0.94990    1.000
    H133     H        0.98150    0.34630    0.90620    1.000
    C119     C        0.89950    0.30430    0.03230    1.000
    H134     H        0.87640    0.29560    0.04840    1.000
    H135     H        0.89910    0.33370    0.03150    1.000
    C120     C        0.92650    0.24530    0.08560    1.000
    H136     H        0.89830    0.24120    0.07980    1.000
    H137     H        0.93000    0.24970    0.11420    1.000
    H138     H        0.94160    0.22170    0.07750    1.000
    O21      O        0.05450    0.10780    0.00240    1.000
    O22      O        0.10340    0.05990    0.99900    1.000
    O23      O        0.94000    0.10360    0.00410    1.000
    O24      O        0.89370    0.05450    0.00490    1.000
    S14      S        0.09890    0.30740    0.98690    1.000
    S15      S        0.04420    0.35074    0.08470    1.000
    S16      S        0.09650    0.26900    0.15120    1.000
    S17      S        0.92840    0.35230    0.95200    1.000
    S18      S        0.94470    0.28880    0.05810    1.000
    Zr3      Zr       0.99831    0.07346    0.00180    1.000
    O25      O        0.96800    0.02950    0.03010    1.000
    Hg3      Hg       0.84237    0.38376    0.11081    1.000
    Cl5      Cl       0.80270    0.35070    0.06020    1.000
    Cl6      Cl       0.88130    0.34920    0.15650    1.000
    C121     C        0.10700    0.23000    0.18900    1.000
    H139     H        0.08510    0.22910    0.20780    1.000
    H140     H        0.11020    0.20470    0.17560    1.000
    H141     H        0.13170    0.23710    0.20280    1.000
    C122     C        0.87470    0.12270    0.01000    1.000
    C123     C        0.88390    0.16310    0.00240    1.000
    H142     H        0.91010    0.17090    0.99520    1.000
    C124     C        0.85450    0.19010    0.00570    1.000
    C125     C        0.81570    0.17740    0.01650    1.000
    C126     C        0.80770    0.13760    0.02380    1.000
    H143     H        0.78150    0.12980    0.03100    1.000
    C127     C        0.83730    0.10900    0.02060    1.000
    H144     H        0.83220    0.08160    0.02550    1.000
    C128     C        0.78530    0.20610    0.01980    1.000
    C129     C        0.76280    0.23410    0.02130    1.000
    O26      O        0.85650    0.23000    0.99990    1.000
    H145     H        0.90420    0.23150    0.96470    1.000
    H146     H        0.91450    0.23270    0.01150    1.000
    O27      O        0.95910    0.03770    0.04430    1.000
    H147     H        0.94190    0.05380    0.06250    1.000
    C130     C        0.40820    0.40530    0.00280    1.000
    C131     C        0.37810    0.37450    0.01350    1.000
    C132     C        0.38940    0.33620    0.02710    1.000
    H148     H        0.41670    0.32980    0.03010    1.000
    C133     C        0.36130    0.30870    0.03580    1.000
    C134     C        0.32020    0.31740    0.03070    1.000
    C135     C        0.31050    0.35500    0.01600    1.000
    H149     H        0.28340    0.36050    0.01010    1.000
    C136     C        0.33830    0.38470    0.00950    1.000
    H150     H        0.33040    0.41090    0.00260    1.000
    C137     C        0.29130    0.28810    0.03730    1.000
    C138     C        0.26490    0.26380    0.03930    1.000
    O28      O        0.36770    0.27150    0.05080    1.000
    C139     C        0.40760    0.25730    0.05570    1.000
    H151     H        0.42140    0.27300    0.07640    1.000
    H152     H        0.42250    0.26000    0.03050    1.000
    C140     C        0.40570    0.21480    0.06780    1.000
    C141     C        0.38210    0.19010    0.03690    1.000
    H153     H        0.35420    0.19950    0.03680    1.000
    H154     H        0.38200    0.16200    0.04550    1.000
    C142     C        0.37110    0.23140    0.96390    1.000
    H155     H        0.38370    0.25730    0.96830    1.000
    H156     H        0.34450    0.23140    0.97560    1.000
    H157     H        0.36910    0.22640    0.93520    1.000
    C143     C        0.44880    0.20040    0.07230    1.000
    H158     H        0.46180    0.21670    0.09310    1.000
    H159     H        0.46290    0.20570    0.04700    1.000
    C144     C        0.46470    0.12660    0.03540    1.000
    H160     H        0.48800    0.13900    0.02310    1.000
    H161     H        0.44140    0.13080    0.01840    1.000
    H162     H        0.46940    0.09810    0.03850    1.000
    C145     C        0.38240    0.20740    0.10630    1.000
    H163     H        0.38090    0.17840    0.11080    1.000
    H164     H        0.35490    0.21730    0.10260    1.000
    C146     C        0.37000    0.27420    0.15500    1.000
    H165     H        0.37770    0.29020    0.17860    1.000
    H166     H        0.37210    0.29050    0.13140    1.000
    H167     H        0.34270    0.26500    0.15870    1.000
    C147     C        0.59560    0.41000    0.00740    1.000
    C148     C        0.62700    0.37950    0.01720    1.000
    C149     C        0.61630    0.33870    0.01380    1.000
    H168     H        0.58970    0.33180    0.00710    1.000
    C150     C        0.64350    0.30990    0.01980    1.000
    C151     C        0.68160    0.31980    0.03540    1.000
    C152     C        0.69120    0.35980    0.03980    1.000
    H169     H        0.71630    0.36670    0.05070    1.000
    C153     C        0.66530    0.39020    0.02880    1.000
    H170     H        0.67350    0.41720    0.02910    1.000
    C154     C        0.71050    0.29040    0.04250    1.000
    C155     C        0.73590    0.26480    0.04460    1.000
    O29      O        0.63590    0.27020    0.01630    1.000
    C156     C        0.60430    0.25800    0.99080    1.000
    H171     H        0.60790    0.26900    0.96380    1.000
    H172     H        0.57840    0.26700    0.00140    1.000
    C157     C        0.60660    0.21090    0.99010    1.000
    C158     C        0.64280    0.19830    0.97330    1.000
    H173     H        0.64330    0.16890    0.97400    1.000
    H174     H        0.66450    0.20770    0.99080    1.000
    S19      S        0.65410    0.21320    0.92500    1.000
    C159     C        0.70180    0.18590    0.92730    1.000
    H175     H        0.71600    0.18910    0.90210    1.000
    H176     H        0.71800    0.19660    0.94900    1.000
    H177     H        0.69660    0.15770    0.93210    1.000
    C160     C        0.57520    0.19930    0.96240    1.000
    H178     H        0.57950    0.21350    0.93700    1.000
    H179     H        0.54940    0.20830    0.97330    1.000
    C161     C        0.52170    0.13830    0.93070    1.000
    H180     H        0.51890    0.10990    0.92470    1.000
    H181     H        0.50130    0.14620    0.94990    1.000
    H182     H        0.51850    0.15370    0.90620    1.000
    C162     C        0.60050    0.19570    0.03230    1.000
    H183     H        0.62360    0.20440    0.04840    1.000
    H184     H        0.60090    0.16630    0.03150    1.000
    C163     C        0.57350    0.25470    0.08560    1.000
    H185     H        0.60170    0.25880    0.07980    1.000
    H186     H        0.57000    0.25030    0.11420    1.000
    H187     H        0.55840    0.27830    0.07750    1.000
    O30      O        0.44550    0.39220    0.00240    1.000
    O31      O        0.39660    0.44010    0.99900    1.000
    O32      O        0.56000    0.39640    0.00410    1.000
    O33      O        0.60630    0.44550    0.00490    1.000
    S20      S        0.40110    0.19260    0.98690    1.000
    S21      S        0.45580    0.14926    0.08470    1.000
    S22      S        0.40350    0.23100    0.15120    1.000
    S23      S        0.57160    0.14770    0.95200    1.000
    S24      S        0.55530    0.21120    0.05810    1.000
    Zr4      Zr       0.50169    0.42654    0.00180    1.000
    O34      O        0.53200    0.47050    0.03010    1.000
    Hg4      Hg       0.65763    0.11624    0.11081    1.000
    Cl7      Cl       0.69730    0.14930    0.06020    1.000
    Cl8      Cl       0.61870    0.15080    0.15650    1.000
    C164     C        0.39300    0.27000    0.18900    1.000
    H188     H        0.41490    0.27090    0.20780    1.000
    H189     H        0.38980    0.29530    0.17560    1.000
    H190     H        0.36830    0.26290    0.20280    1.000
    C165     C        0.62530    0.37730    0.01000    1.000
    C166     C        0.61610    0.33690    0.00240    1.000
    H191     H        0.58990    0.32910    0.99520    1.000
    C167     C        0.64550    0.30990    0.00570    1.000
    C168     C        0.68430    0.32260    0.01650    1.000
    C169     C        0.69230    0.36240    0.02380    1.000
    H192     H        0.71850    0.37020    0.03100    1.000
    C170     C        0.66270    0.39100    0.02060    1.000
    H193     H        0.66780    0.41840    0.02550    1.000
    C171     C        0.71470    0.29390    0.01980    1.000
    C172     C        0.73720    0.26590    0.02130    1.000
    O35      O        0.64350    0.27000    0.99990    1.000
    H194     H        0.59580    0.26850    0.96470    1.000
    H195     H        0.58550    0.26730    0.01150    1.000
    O36      O        0.54090    0.46230    0.04430    1.000
    H196     H        0.55810    0.44620    0.06250    1.000
    C173     C        0.49720    0.40820    0.09470    1.000
    C174     C        0.48650    0.37810    0.12550    1.000
    C175     C        0.47290    0.38940    0.16380    1.000
    H197     H        0.46990    0.41670    0.17020    1.000
    C176     C        0.46420    0.36130    0.19130    1.000
    C177     C        0.46930    0.32020    0.18260    1.000
    C178     C        0.48400    0.31050    0.14500    1.000
    H198     H        0.48990    0.28340    0.13950    1.000
    C179     C        0.49050    0.33830    0.11530    1.000
    H199     H        0.49740    0.33040    0.08910    1.000
    C180     C        0.46270    0.29130    0.21190    1.000
    C181     C        0.46070    0.26490    0.23620    1.000
    O37      O        0.44920    0.36770    0.22850    1.000
    C182     C        0.44430    0.40760    0.24270    1.000
    H200     H        0.42360    0.42140    0.22700    1.000
    H201     H        0.46950    0.42250    0.24000    1.000
    C183     C        0.43220    0.40570    0.28520    1.000
    C184     C        0.46310    0.38210    0.30990    1.000
    H202     H        0.46320    0.35420    0.30050    1.000
    H203     H        0.45450    0.38200    0.33800    1.000
    C185     C        0.53610    0.37110    0.26860    1.000
    H204     H        0.53170    0.38370    0.24270    1.000
    H205     H        0.52440    0.34450    0.26860    1.000
    H206     H        0.56480    0.36910    0.27360    1.000
    C186     C        0.42770    0.44880    0.29960    1.000
    H207     H        0.40690    0.46180    0.28330    1.000
    H208     H        0.45300    0.46290    0.29430    1.000
    C187     C        0.46460    0.46470    0.37340    1.000
    H209     H        0.47690    0.48800    0.36100    1.000
    H210     H        0.48160    0.44140    0.36920    1.000
    H211     H        0.46150    0.46940    0.40190    1.000
    C188     C        0.39370    0.38240    0.29260    1.000
    H212     H        0.38920    0.38090    0.32160    1.000
    H213     H        0.39740    0.35490    0.28270    1.000
    C189     C        0.34500    0.37000    0.22580    1.000
    H214     H        0.32140    0.37770    0.20980    1.000
    H215     H        0.36860    0.37210    0.20950    1.000
    H216     H        0.34130    0.34270    0.23500    1.000
    C190     C        0.49260    0.59560    0.09000    1.000
    C191     C        0.48280    0.62700    0.12050    1.000
    C192     C        0.48620    0.61630    0.16130    1.000
    H217     H        0.49290    0.58970    0.16820    1.000
    C193     C        0.48020    0.64350    0.19010    1.000
    C194     C        0.46460    0.68160    0.18020    1.000
    C195     C        0.46020    0.69120    0.14020    1.000
    H218     H        0.44930    0.71630    0.13330    1.000
    C196     C        0.47120    0.66530    0.10980    1.000
    H219     H        0.47090    0.67350    0.08280    1.000
    C197     C        0.45750    0.71050    0.20960    1.000
    C198     C        0.45540    0.73590    0.23520    1.000
    O38      O        0.48370    0.63590    0.22980    1.000
    C199     C        0.50920    0.60430    0.24200    1.000
    H220     H        0.53620    0.60790    0.23100    1.000
    H221     H        0.49860    0.57840    0.23300    1.000
    C200     C        0.50990    0.60660    0.28910    1.000
    C201     C        0.52670    0.64280    0.30170    1.000
    H222     H        0.52600    0.64330    0.33110    1.000
    H223     H        0.50920    0.66450    0.29230    1.000
    S25      S        0.57500    0.65410    0.28680    1.000
    C202     C        0.57270    0.70180    0.31410    1.000
    H224     H        0.59790    0.71600    0.31090    1.000
    H225     H        0.55100    0.71800    0.30340    1.000
    H226     H        0.56790    0.69660    0.34230    1.000
    C203     C        0.53760    0.57520    0.30070    1.000
    H227     H        0.56300    0.57950    0.28650    1.000
    H228     H        0.52670    0.54940    0.29170    1.000
    C204     C        0.56930    0.52170    0.36170    1.000
    H229     H        0.57530    0.51890    0.39010    1.000
    H230     H        0.55010    0.50130    0.35380    1.000
    H231     H        0.59380    0.51850    0.34630    1.000
    C205     C        0.46770    0.60050    0.30430    1.000
    H232     H        0.45160    0.62360    0.29560    1.000
    H233     H        0.46850    0.60090    0.33370    1.000
    C206     C        0.41440    0.57350    0.24530    1.000
    H234     H        0.42020    0.60170    0.24120    1.000
    H235     H        0.38580    0.57000    0.24970    1.000
    H236     H        0.42250    0.55840    0.22170    1.000
    O39      O        0.49760    0.44550    0.10780    1.000
    O40      O        0.50100    0.39660    0.05990    1.000
    O41      O        0.49590    0.56000    0.10360    1.000
    O42      O        0.49510    0.60630    0.05450    1.000
    S26      S        0.51310    0.40110    0.30740    1.000
    S27      S        0.41530    0.45580    0.35074    1.000
    S28      S        0.34880    0.40350    0.26900    1.000
    S29      S        0.54800    0.57160    0.35230    1.000
    S30      S        0.44190    0.55530    0.28880    1.000
    Zr5      Zr       0.49820    0.50169    0.07346    1.000
    O43      O        0.46990    0.53200    0.02950    1.000
    Hg5      Hg       0.38919    0.65763    0.38376    1.000
    Cl9      Cl       0.43980    0.69730    0.35070    1.000
    Cl10     Cl       0.34350    0.61870    0.34920    1.000
    C207     C        0.31100    0.39300    0.23000    1.000
    H237     H        0.29220    0.41490    0.22910    1.000
    H238     H        0.32440    0.38980    0.20470    1.000
    H239     H        0.29720    0.36830    0.23710    1.000
    C208     C        0.49000    0.62530    0.12270    1.000
    C209     C        0.49760    0.61610    0.16310    1.000
    H240     H        0.50480    0.58990    0.17090    1.000
    C210     C        0.49430    0.64550    0.19010    1.000
    C211     C        0.48350    0.68430    0.17740    1.000
    C212     C        0.47620    0.69230    0.13760    1.000
    H241     H        0.46900    0.71850    0.12980    1.000
    C213     C        0.47940    0.66270    0.10900    1.000
    H242     H        0.47450    0.66780    0.08160    1.000
    C214     C        0.48020    0.71470    0.20610    1.000
    C215     C        0.47870    0.73720    0.23410    1.000
    O44      O        0.50010    0.64350    0.23000    1.000
    H243     H        0.53530    0.59580    0.23150    1.000
    H244     H        0.48850    0.58550    0.23270    1.000
    O45      O        0.45570    0.54090    0.03770    1.000
    H245     H        0.43750    0.55810    0.05380    1.000
    C216     C        0.49720    0.09180    0.40530    1.000
    C217     C        0.48650    0.12190    0.37450    1.000
    C218     C        0.47290    0.11060    0.33620    1.000
    H246     H        0.46990    0.08330    0.32980    1.000
    C219     C        0.46420    0.13870    0.30870    1.000
    C220     C        0.46930    0.17980    0.31740    1.000
    C221     C        0.48400    0.18950    0.35500    1.000
    H247     H        0.48990    0.21660    0.36050    1.000
    C222     C        0.49050    0.16170    0.38470    1.000
    H248     H        0.49740    0.16960    0.41090    1.000
    C223     C        0.46270    0.20870    0.28810    1.000
    C224     C        0.46070    0.23510    0.26380    1.000
    O46      O        0.44920    0.13230    0.27150    1.000
    C225     C        0.44430    0.09240    0.25730    1.000
    H249     H        0.42360    0.07860    0.27300    1.000
    H250     H        0.46950    0.07750    0.26000    1.000
    C226     C        0.43220    0.09430    0.21480    1.000
    C227     C        0.46310    0.11790    0.19010    1.000
    H251     H        0.46320    0.14580    0.19950    1.000
    H252     H        0.45450    0.11800    0.16200    1.000
    C228     C        0.53610    0.12890    0.23140    1.000
    H253     H        0.53170    0.11630    0.25730    1.000
    H254     H        0.52440    0.15550    0.23140    1.000
    H255     H        0.56480    0.13090    0.22640    1.000
    C229     C        0.42770    0.05120    0.20040    1.000
    H256     H        0.40690    0.03820    0.21670    1.000
    H257     H        0.45300    0.03710    0.20570    1.000
    C230     C        0.46460    0.03530    0.12660    1.000
    H258     H        0.47690    0.01200    0.13900    1.000
    H259     H        0.48160    0.05860    0.13080    1.000
    H260     H        0.46150    0.03060    0.09810    1.000
    C231     C        0.39370    0.11760    0.20740    1.000
    H261     H        0.38920    0.11910    0.17840    1.000
    H262     H        0.39740    0.14510    0.21730    1.000
    C232     C        0.34500    0.13000    0.27420    1.000
    H263     H        0.32140    0.12230    0.29020    1.000
    H264     H        0.36860    0.12790    0.29050    1.000
    H265     H        0.34130    0.15730    0.26500    1.000
    C233     C        0.49260    0.90440    0.41000    1.000
    C234     C        0.48280    0.87300    0.37950    1.000
    C235     C        0.48620    0.88370    0.33870    1.000
    H266     H        0.49290    0.91030    0.33180    1.000
    C236     C        0.48020    0.85650    0.30990    1.000
    C237     C        0.46460    0.81840    0.31980    1.000
    C238     C        0.46020    0.80880    0.35980    1.000
    H267     H        0.44930    0.78370    0.36670    1.000
    C239     C        0.47120    0.83470    0.39020    1.000
    H268     H        0.47090    0.82650    0.41720    1.000
    C240     C        0.45750    0.78950    0.29040    1.000
    C241     C        0.45540    0.76410    0.26480    1.000
    O47      O        0.48370    0.86410    0.27020    1.000
    C242     C        0.50920    0.89570    0.25800    1.000
    H269     H        0.53620    0.89210    0.26900    1.000
    H270     H        0.49860    0.92160    0.26700    1.000
    C243     C        0.50990    0.89340    0.21090    1.000
    C244     C        0.52670    0.85720    0.19830    1.000
    H271     H        0.52600    0.85670    0.16890    1.000
    H272     H        0.50920    0.83550    0.20770    1.000
    S31      S        0.57500    0.84590    0.21320    1.000
    C245     C        0.57270    0.79820    0.18590    1.000
    H273     H        0.59790    0.78400    0.18910    1.000
    H274     H        0.55100    0.78200    0.19660    1.000
    H275     H        0.56790    0.80340    0.15770    1.000
    C246     C        0.53760    0.92480    0.19930    1.000
    H276     H        0.56300    0.92050    0.21350    1.000
    H277     H        0.52670    0.95060    0.20830    1.000
    C247     C        0.56930    0.97830    0.13830    1.000
    H278     H        0.57530    0.98110    0.10990    1.000
    H279     H        0.55010    0.99870    0.14620    1.000
    H280     H        0.59380    0.98150    0.15370    1.000
    C248     C        0.46770    0.89950    0.19570    1.000
    H281     H        0.45160    0.87640    0.20440    1.000
    H282     H        0.46850    0.89910    0.16630    1.000
    C249     C        0.41440    0.92650    0.25470    1.000
    H283     H        0.42020    0.89830    0.25880    1.000
    H284     H        0.38580    0.93000    0.25030    1.000
    H285     H        0.42250    0.94160    0.27830    1.000
    O48      O        0.49760    0.05450    0.39220    1.000
    O49      O        0.50100    0.10340    0.44010    1.000
    O50      O        0.49590    0.94000    0.39640    1.000
    O51      O        0.49510    0.89370    0.44550    1.000
    S32      S        0.51310    0.09890    0.19260    1.000
    S33      S        0.41530    0.04420    0.14926    1.000
    S34      S        0.34880    0.09650    0.23100    1.000
    S35      S        0.54800    0.92840    0.14770    1.000
    S36      S        0.44190    0.94470    0.21120    1.000
    Zr6      Zr       0.49820    0.99831    0.42654    1.000
    O52      O        0.46990    0.96800    0.47050    1.000
    Hg6      Hg       0.38919    0.84237    0.11624    1.000
    Cl11     Cl       0.43980    0.80270    0.14930    1.000
    Cl12     Cl       0.34350    0.88130    0.15080    1.000
    C250     C        0.31100    0.10700    0.27000    1.000
    H286     H        0.29220    0.08510    0.27090    1.000
    H287     H        0.32440    0.11020    0.29530    1.000
    H288     H        0.29720    0.13170    0.26290    1.000
    C251     C        0.49000    0.87470    0.37730    1.000
    C252     C        0.49760    0.88390    0.33690    1.000
    H289     H        0.50480    0.91010    0.32910    1.000
    C253     C        0.49430    0.85450    0.30990    1.000
    C254     C        0.48350    0.81570    0.32260    1.000
    C255     C        0.47620    0.80770    0.36240    1.000
    H290     H        0.46900    0.78150    0.37020    1.000
    C256     C        0.47940    0.83730    0.39100    1.000
    H291     H        0.47450    0.83220    0.41840    1.000
    C257     C        0.48020    0.78530    0.29390    1.000
    C258     C        0.47870    0.76280    0.26590    1.000
    O53      O        0.50010    0.85650    0.27000    1.000
    H292     H        0.53530    0.90420    0.26850    1.000
    H293     H        0.48850    0.91450    0.26730    1.000
    O54      O        0.45570    0.95910    0.46230    1.000
    H294     H        0.43750    0.94190    0.44620    1.000
    C259     C        0.00280    0.09180    0.09470    1.000
    C260     C        0.01350    0.12190    0.12550    1.000
    C261     C        0.02710    0.11060    0.16380    1.000
    H295     H        0.03010    0.08330    0.17020    1.000
    C262     C        0.03580    0.13870    0.19130    1.000
    C263     C        0.03070    0.17980    0.18260    1.000
    C264     C        0.01600    0.18950    0.14500    1.000
    H296     H        0.01010    0.21660    0.13950    1.000
    C265     C        0.00950    0.16170    0.11530    1.000
    H297     H        0.00260    0.16960    0.08910    1.000
    C266     C        0.03730    0.20870    0.21190    1.000
    C267     C        0.03930    0.23510    0.23620    1.000
    O55      O        0.05080    0.13230    0.22850    1.000
    C268     C        0.05570    0.09240    0.24270    1.000
    H298     H        0.07640    0.07860    0.22700    1.000
    H299     H        0.03050    0.07750    0.24000    1.000
    C269     C        0.06780    0.09430    0.28520    1.000
    C270     C        0.03690    0.11790    0.30990    1.000
    H300     H        0.03680    0.14580    0.30050    1.000
    H301     H        0.04550    0.11800    0.33800    1.000
    C271     C        0.96390    0.12890    0.26860    1.000
    H302     H        0.96830    0.11630    0.24270    1.000
    H303     H        0.97560    0.15550    0.26860    1.000
    H304     H        0.93520    0.13090    0.27360    1.000
    C272     C        0.07230    0.05120    0.29960    1.000
    H305     H        0.09310    0.03820    0.28330    1.000
    H306     H        0.04700    0.03710    0.29430    1.000
    C273     C        0.03540    0.03530    0.37340    1.000
    H307     H        0.02310    0.01200    0.36100    1.000
    H308     H        0.01840    0.05860    0.36920    1.000
    H309     H        0.03850    0.03060    0.40190    1.000
    C274     C        0.10630    0.11760    0.29260    1.000
    H310     H        0.11080    0.11910    0.32160    1.000
    H311     H        0.10260    0.14510    0.28270    1.000
    C275     C        0.15500    0.13000    0.22580    1.000
    H312     H        0.17860    0.12230    0.20980    1.000
    H313     H        0.13140    0.12790    0.20950    1.000
    H314     H        0.15870    0.15730    0.23500    1.000
    C276     C        0.00740    0.90440    0.09000    1.000
    C277     C        0.01720    0.87300    0.12050    1.000
    C278     C        0.01380    0.88370    0.16130    1.000
    H315     H        0.00710    0.91030    0.16820    1.000
    C279     C        0.01980    0.85650    0.19010    1.000
    C280     C        0.03540    0.81840    0.18020    1.000
    C281     C        0.03980    0.80880    0.14020    1.000
    H316     H        0.05070    0.78370    0.13330    1.000
    C282     C        0.02880    0.83470    0.10980    1.000
    H317     H        0.02910    0.82650    0.08280    1.000
    C283     C        0.04250    0.78950    0.20960    1.000
    C284     C        0.04460    0.76410    0.23520    1.000
    O56      O        0.01630    0.86410    0.22980    1.000
    C285     C        0.99080    0.89570    0.24200    1.000
    H318     H        0.96380    0.89210    0.23100    1.000
    H319     H        0.00140    0.92160    0.23300    1.000
    C286     C        0.99010    0.89340    0.28910    1.000
    C287     C        0.97330    0.85720    0.30170    1.000
    H320     H        0.97400    0.85670    0.33110    1.000
    H321     H        0.99080    0.83550    0.29230    1.000
    S37      S        0.92500    0.84590    0.28680    1.000
    C288     C        0.92730    0.79820    0.31410    1.000
    H322     H        0.90210    0.78400    0.31090    1.000
    H323     H        0.94900    0.78200    0.30340    1.000
    H324     H        0.93210    0.80340    0.34230    1.000
    C289     C        0.96240    0.92480    0.30070    1.000
    H325     H        0.93700    0.92050    0.28650    1.000
    H326     H        0.97330    0.95060    0.29170    1.000
    C290     C        0.93070    0.97830    0.36170    1.000
    H327     H        0.92470    0.98110    0.39010    1.000
    H328     H        0.94990    0.99870    0.35380    1.000
    H329     H        0.90620    0.98150    0.34630    1.000
    C291     C        0.03230    0.89950    0.30430    1.000
    H330     H        0.04840    0.87640    0.29560    1.000
    H331     H        0.03150    0.89910    0.33370    1.000
    C292     C        0.08560    0.92650    0.24530    1.000
    H332     H        0.07980    0.89830    0.24120    1.000
    H333     H        0.11420    0.93000    0.24970    1.000
    H334     H        0.07750    0.94160    0.22170    1.000
    O57      O        0.00240    0.05450    0.10780    1.000
    O58      O        0.99900    0.10340    0.05990    1.000
    O59      O        0.00410    0.94000    0.10360    1.000
    O60      O        0.00490    0.89370    0.05450    1.000
    S38      S        0.98690    0.09890    0.30740    1.000
    S39      S        0.08470    0.04420    0.35074    1.000
    S40      S        0.15120    0.09650    0.26900    1.000
    S41      S        0.95200    0.92840    0.35230    1.000
    S42      S        0.05810    0.94470    0.28880    1.000
    Zr7      Zr       0.00180    0.99831    0.07346    1.000
    O61      O        0.03010    0.96800    0.02950    1.000
    Hg7      Hg       0.11081    0.84237    0.38376    1.000
    Cl13     Cl       0.06020    0.80270    0.35070    1.000
    Cl14     Cl       0.15650    0.88130    0.34920    1.000
    C293     C        0.18900    0.10700    0.23000    1.000
    H335     H        0.20780    0.08510    0.22910    1.000
    H336     H        0.17560    0.11020    0.20470    1.000
    H337     H        0.20280    0.13170    0.23710    1.000
    C294     C        0.01000    0.87470    0.12270    1.000
    C295     C        0.00240    0.88390    0.16310    1.000
    H338     H        0.99520    0.91010    0.17090    1.000
    C296     C        0.00570    0.85450    0.19010    1.000
    C297     C        0.01650    0.81570    0.17740    1.000
    C298     C        0.02380    0.80770    0.13760    1.000
    H339     H        0.03100    0.78150    0.12980    1.000
    C299     C        0.02060    0.83730    0.10900    1.000
    H340     H        0.02550    0.83220    0.08160    1.000
    C300     C        0.01980    0.78530    0.20610    1.000
    C301     C        0.02130    0.76280    0.23410    1.000
    O62      O        0.99990    0.85650    0.23000    1.000
    H341     H        0.96470    0.90420    0.23150    1.000
    H342     H        0.01150    0.91450    0.23270    1.000
    O63      O        0.04430    0.95910    0.03770    1.000
    H343     H        0.06250    0.94190    0.05380    1.000
    C302     C        0.00280    0.40820    0.40530    1.000
    C303     C        0.01350    0.37810    0.37450    1.000
    C304     C        0.02710    0.38940    0.33620    1.000
    H344     H        0.03010    0.41670    0.32980    1.000
    C305     C        0.03580    0.36130    0.30870    1.000
    C306     C        0.03070    0.32020    0.31740    1.000
    C307     C        0.01600    0.31050    0.35500    1.000
    H345     H        0.01010    0.28340    0.36050    1.000
    C308     C        0.00950    0.33830    0.38470    1.000
    H346     H        0.00260    0.33040    0.41090    1.000
    C309     C        0.03730    0.29130    0.28810    1.000
    C310     C        0.03930    0.26490    0.26380    1.000
    O64      O        0.05080    0.36770    0.27150    1.000
    C311     C        0.05570    0.40760    0.25730    1.000
    H347     H        0.07640    0.42140    0.27300    1.000
    H348     H        0.03050    0.42250    0.26000    1.000
    C312     C        0.06780    0.40570    0.21480    1.000
    C313     C        0.03690    0.38210    0.19010    1.000
    H349     H        0.03680    0.35420    0.19950    1.000
    H350     H        0.04550    0.38200    0.16200    1.000
    C314     C        0.96390    0.37110    0.23140    1.000
    H351     H        0.96830    0.38370    0.25730    1.000
    H352     H        0.97560    0.34450    0.23140    1.000
    H353     H        0.93520    0.36910    0.22640    1.000
    C315     C        0.07230    0.44880    0.20040    1.000
    H354     H        0.09310    0.46180    0.21670    1.000
    H355     H        0.04700    0.46290    0.20570    1.000
    C316     C        0.03540    0.46470    0.12660    1.000
    H356     H        0.02310    0.48800    0.13900    1.000
    H357     H        0.01840    0.44140    0.13080    1.000
    H358     H        0.03850    0.46940    0.09810    1.000
    C317     C        0.10630    0.38240    0.20740    1.000
    H359     H        0.11080    0.38090    0.17840    1.000
    H360     H        0.10260    0.35490    0.21730    1.000
    C318     C        0.15500    0.37000    0.27420    1.000
    H361     H        0.17860    0.37770    0.29020    1.000
    H362     H        0.13140    0.37210    0.29050    1.000
    H363     H        0.15870    0.34270    0.26500    1.000
    C319     C        0.00740    0.59560    0.41000    1.000
    C320     C        0.01720    0.62700    0.37950    1.000
    C321     C        0.01380    0.61630    0.33870    1.000
    H364     H        0.00710    0.58970    0.33180    1.000
    C322     C        0.01980    0.64350    0.30990    1.000
    C323     C        0.03540    0.68160    0.31980    1.000
    C324     C        0.03980    0.69120    0.35980    1.000
    H365     H        0.05070    0.71630    0.36670    1.000
    C325     C        0.02880    0.66530    0.39020    1.000
    H366     H        0.02910    0.67350    0.41720    1.000
    C326     C        0.04250    0.71050    0.29040    1.000
    C327     C        0.04460    0.73590    0.26480    1.000
    O65      O        0.01630    0.63590    0.27020    1.000
    C328     C        0.99080    0.60430    0.25800    1.000
    H367     H        0.96380    0.60790    0.26900    1.000
    H368     H        0.00140    0.57840    0.26700    1.000
    C329     C        0.99010    0.60660    0.21090    1.000
    C330     C        0.97330    0.64280    0.19830    1.000
    H369     H        0.97400    0.64330    0.16890    1.000
    H370     H        0.99080    0.66450    0.20770    1.000
    S43      S        0.92500    0.65410    0.21320    1.000
    C331     C        0.92730    0.70180    0.18590    1.000
    H371     H        0.90210    0.71600    0.18910    1.000
    H372     H        0.94900    0.71800    0.19660    1.000
    H373     H        0.93210    0.69660    0.15770    1.000
    C332     C        0.96240    0.57520    0.19930    1.000
    H374     H        0.93700    0.57950    0.21350    1.000
    H375     H        0.97330    0.54940    0.20830    1.000
    C333     C        0.93070    0.52170    0.13830    1.000
    H376     H        0.92470    0.51890    0.10990    1.000
    H377     H        0.94990    0.50130    0.14620    1.000
    H378     H        0.90620    0.51850    0.15370    1.000
    C334     C        0.03230    0.60050    0.19570    1.000
    H379     H        0.04840    0.62360    0.20440    1.000
    H380     H        0.03150    0.60090    0.16630    1.000
    C335     C        0.08560    0.57350    0.25470    1.000
    H381     H        0.07980    0.60170    0.25880    1.000
    H382     H        0.11420    0.57000    0.25030    1.000
    H383     H        0.07750    0.55840    0.27830    1.000
    O66      O        0.00240    0.44550    0.39220    1.000
    O67      O        0.99900    0.39660    0.44010    1.000
    O68      O        0.00410    0.56000    0.39640    1.000
    O69      O        0.00490    0.60630    0.44550    1.000
    S44      S        0.98690    0.40110    0.19260    1.000
    S45      S        0.08470    0.45580    0.14926    1.000
    S46      S        0.15120    0.40350    0.23100    1.000
    S47      S        0.95200    0.57160    0.14770    1.000
    S48      S        0.05810    0.55530    0.21120    1.000
    Zr8      Zr       0.00180    0.50169    0.42654    1.000
    O70      O        0.03010    0.53200    0.47050    1.000
    Hg8      Hg       0.11081    0.65763    0.11624    1.000
    Cl15     Cl       0.06020    0.69730    0.14930    1.000
    Cl16     Cl       0.15650    0.61870    0.15080    1.000
    C336     C        0.18900    0.39300    0.27000    1.000
    H384     H        0.20780    0.41490    0.27090    1.000
    H385     H        0.17560    0.38980    0.29530    1.000
    H386     H        0.20280    0.36830    0.26290    1.000
    C337     C        0.01000    0.62530    0.37730    1.000
    C338     C        0.00240    0.61610    0.33690    1.000
    H387     H        0.99520    0.58990    0.32910    1.000
    C339     C        0.00570    0.64550    0.30990    1.000
    C340     C        0.01650    0.68430    0.32260    1.000
    C341     C        0.02380    0.69230    0.36240    1.000
    H388     H        0.03100    0.71850    0.37020    1.000
    C342     C        0.02060    0.66270    0.39100    1.000
    H389     H        0.02550    0.66780    0.41840    1.000
    C343     C        0.01980    0.71470    0.29390    1.000
    C344     C        0.02130    0.73720    0.26590    1.000
    O71      O        0.99990    0.64350    0.27000    1.000
    H390     H        0.96470    0.59580    0.26850    1.000
    H391     H        0.01150    0.58550    0.26730    1.000
    O72      O        0.04430    0.54090    0.46230    1.000
    H392     H        0.06250    0.55810    0.44620    1.000
    C345     C        0.09470    0.49720    0.40820    1.000
    C346     C        0.12550    0.48650    0.37810    1.000
    C347     C        0.16380    0.47290    0.38940    1.000
    H393     H        0.17020    0.46990    0.41670    1.000
    C348     C        0.19130    0.46420    0.36130    1.000
    C349     C        0.18260    0.46930    0.32020    1.000
    C350     C        0.14500    0.48400    0.31050    1.000
    H394     H        0.13950    0.48990    0.28340    1.000
    C351     C        0.11530    0.49050    0.33830    1.000
    H395     H        0.08910    0.49740    0.33040    1.000
    C352     C        0.21190    0.46270    0.29130    1.000
    C353     C        0.23620    0.46070    0.26490    1.000
    O73      O        0.22850    0.44920    0.36770    1.000
    C354     C        0.24270    0.44430    0.40760    1.000
    H396     H        0.22700    0.42360    0.42140    1.000
    H397     H        0.24000    0.46950    0.42250    1.000
    C355     C        0.28520    0.43220    0.40570    1.000
    C356     C        0.30990    0.46310    0.38210    1.000
    H398     H        0.30050    0.46320    0.35420    1.000
    H399     H        0.33800    0.45450    0.38200    1.000
    C357     C        0.26860    0.53610    0.37110    1.000
    H400     H        0.24270    0.53170    0.38370    1.000
    H401     H        0.26860    0.52440    0.34450    1.000
    H402     H        0.27360    0.56480    0.36910    1.000
    C358     C        0.29960    0.42770    0.44880    1.000
    H403     H        0.28330    0.40690    0.46180    1.000
    H404     H        0.29430    0.45300    0.46290    1.000
    C359     C        0.37340    0.46460    0.46470    1.000
    H405     H        0.36100    0.47690    0.48800    1.000
    H406     H        0.36920    0.48160    0.44140    1.000
    H407     H        0.40190    0.46150    0.46940    1.000
    C360     C        0.29260    0.39370    0.38240    1.000
    H408     H        0.32160    0.38920    0.38090    1.000
    H409     H        0.28270    0.39740    0.35490    1.000
    C361     C        0.22580    0.34500    0.37000    1.000
    H410     H        0.20980    0.32140    0.37770    1.000
    H411     H        0.20950    0.36860    0.37210    1.000
    H412     H        0.23500    0.34130    0.34270    1.000
    C362     C        0.09000    0.49260    0.59560    1.000
    C363     C        0.12050    0.48280    0.62700    1.000
    C364     C        0.16130    0.48620    0.61630    1.000
    H413     H        0.16820    0.49290    0.58970    1.000
    C365     C        0.19010    0.48020    0.64350    1.000
    C366     C        0.18020    0.46460    0.68160    1.000
    C367     C        0.14020    0.46020    0.69120    1.000
    H414     H        0.13330    0.44930    0.71630    1.000
    C368     C        0.10980    0.47120    0.66530    1.000
    H415     H        0.08280    0.47090    0.67350    1.000
    C369     C        0.20960    0.45750    0.71050    1.000
    C370     C        0.23520    0.45540    0.73590    1.000
    O74      O        0.22980    0.48370    0.63590    1.000
    C371     C        0.24200    0.50920    0.60430    1.000
    H416     H        0.23100    0.53620    0.60790    1.000
    H417     H        0.23300    0.49860    0.57840    1.000
    C372     C        0.28910    0.50990    0.60660    1.000
    C373     C        0.30170    0.52670    0.64280    1.000
    H418     H        0.33110    0.52600    0.64330    1.000
    H419     H        0.29230    0.50920    0.66450    1.000
    S49      S        0.28680    0.57500    0.65410    1.000
    C374     C        0.31410    0.57270    0.70180    1.000
    H420     H        0.31090    0.59790    0.71600    1.000
    H421     H        0.30340    0.55100    0.71800    1.000
    H422     H        0.34230    0.56790    0.69660    1.000
    C375     C        0.30070    0.53760    0.57520    1.000
    H423     H        0.28650    0.56300    0.57950    1.000
    H424     H        0.29170    0.52670    0.54940    1.000
    C376     C        0.36170    0.56930    0.52170    1.000
    H425     H        0.39010    0.57530    0.51890    1.000
    H426     H        0.35380    0.55010    0.50130    1.000
    H427     H        0.34630    0.59380    0.51850    1.000
    C377     C        0.30430    0.46770    0.60050    1.000
    H428     H        0.29560    0.45160    0.62360    1.000
    H429     H        0.33370    0.46850    0.60090    1.000
    C378     C        0.24530    0.41440    0.57350    1.000
    H430     H        0.24120    0.42020    0.60170    1.000
    H431     H        0.24970    0.38580    0.57000    1.000
    H432     H        0.22170    0.42250    0.55840    1.000
    O75      O        0.10780    0.49760    0.44550    1.000
    O76      O        0.05990    0.50100    0.39660    1.000
    O77      O        0.10360    0.49590    0.56000    1.000
    O78      O        0.05450    0.49510    0.60630    1.000
    S50      S        0.30740    0.51310    0.40110    1.000
    S51      S        0.35074    0.41530    0.45580    1.000
    S52      S        0.26900    0.34880    0.40350    1.000
    S53      S        0.35230    0.54800    0.57160    1.000
    S54      S        0.28880    0.44190    0.55530    1.000
    Zr9      Zr       0.07346    0.49820    0.50169    1.000
    O79      O        0.02950    0.46990    0.53200    1.000
    Hg9      Hg       0.38376    0.38919    0.65763    1.000
    Cl17     Cl       0.35070    0.43980    0.69730    1.000
    Cl18     Cl       0.34920    0.34350    0.61870    1.000
    C379     C        0.23000    0.31100    0.39300    1.000
    H433     H        0.22910    0.29220    0.41490    1.000
    H434     H        0.20470    0.32440    0.38980    1.000
    H435     H        0.23710    0.29720    0.36830    1.000
    C380     C        0.12270    0.49000    0.62530    1.000
    C381     C        0.16310    0.49760    0.61610    1.000
    H436     H        0.17090    0.50480    0.58990    1.000
    C382     C        0.19010    0.49430    0.64550    1.000
    C383     C        0.17740    0.48350    0.68430    1.000
    C384     C        0.13760    0.47620    0.69230    1.000
    H437     H        0.12980    0.46900    0.71850    1.000
    C385     C        0.10900    0.47940    0.66270    1.000
    H438     H        0.08160    0.47450    0.66780    1.000
    C386     C        0.20610    0.48020    0.71470    1.000
    C387     C        0.23410    0.47870    0.73720    1.000
    O80      O        0.23000    0.50010    0.64350    1.000
    H439     H        0.23150    0.53530    0.59580    1.000
    H440     H        0.23270    0.48850    0.58550    1.000
    O81      O        0.03770    0.45570    0.54090    1.000
    H441     H        0.05380    0.43750    0.55810    1.000
    C388     C        0.40530    0.49720    0.09180    1.000
    C389     C        0.37450    0.48650    0.12190    1.000
    C390     C        0.33620    0.47290    0.11060    1.000
    H442     H        0.32980    0.46990    0.08330    1.000
    C391     C        0.30870    0.46420    0.13870    1.000
    C392     C        0.31740    0.46930    0.17980    1.000
    C393     C        0.35500    0.48400    0.18950    1.000
    H443     H        0.36050    0.48990    0.21660    1.000
    C394     C        0.38470    0.49050    0.16170    1.000
    H444     H        0.41090    0.49740    0.16960    1.000
    C395     C        0.28810    0.46270    0.20870    1.000
    C396     C        0.26380    0.46070    0.23510    1.000
    O82      O        0.27150    0.44920    0.13230    1.000
    C397     C        0.25730    0.44430    0.09240    1.000
    H445     H        0.27300    0.42360    0.07860    1.000
    H446     H        0.26000    0.46950    0.07750    1.000
    C398     C        0.21480    0.43220    0.09430    1.000
    C399     C        0.19010    0.46310    0.11790    1.000
    H447     H        0.19950    0.46320    0.14580    1.000
    H448     H        0.16200    0.45450    0.11800    1.000
    C400     C        0.23140    0.53610    0.12890    1.000
    H449     H        0.25730    0.53170    0.11630    1.000
    H450     H        0.23140    0.52440    0.15550    1.000
    H451     H        0.22640    0.56480    0.13090    1.000
    C401     C        0.20040    0.42770    0.05120    1.000
    H452     H        0.21670    0.40690    0.03820    1.000
    H453     H        0.20570    0.45300    0.03710    1.000
    C402     C        0.12660    0.46460    0.03530    1.000
    H454     H        0.13900    0.47690    0.01200    1.000
    H455     H        0.13080    0.48160    0.05860    1.000
    H456     H        0.09810    0.46150    0.03060    1.000
    C403     C        0.20740    0.39370    0.11760    1.000
    H457     H        0.17840    0.38920    0.11910    1.000
    H458     H        0.21730    0.39740    0.14510    1.000
    C404     C        0.27420    0.34500    0.13000    1.000
    H459     H        0.29020    0.32140    0.12230    1.000
    H460     H        0.29050    0.36860    0.12790    1.000
    H461     H        0.26500    0.34130    0.15730    1.000
    C405     C        0.41000    0.49260    0.90440    1.000
    C406     C        0.37950    0.48280    0.87300    1.000
    C407     C        0.33870    0.48620    0.88370    1.000
    H462     H        0.33180    0.49290    0.91030    1.000
    C408     C        0.30990    0.48020    0.85650    1.000
    C409     C        0.31980    0.46460    0.81840    1.000
    C410     C        0.35980    0.46020    0.80880    1.000
    H463     H        0.36670    0.44930    0.78370    1.000
    C411     C        0.39020    0.47120    0.83470    1.000
    H464     H        0.41720    0.47090    0.82650    1.000
    C412     C        0.29040    0.45750    0.78950    1.000
    C413     C        0.26480    0.45540    0.76410    1.000
    O83      O        0.27020    0.48370    0.86410    1.000
    C414     C        0.25800    0.50920    0.89570    1.000
    H465     H        0.26900    0.53620    0.89210    1.000
    H466     H        0.26700    0.49860    0.92160    1.000
    C415     C        0.21090    0.50990    0.89340    1.000
    C416     C        0.19830    0.52670    0.85720    1.000
    H467     H        0.16890    0.52600    0.85670    1.000
    H468     H        0.20770    0.50920    0.83550    1.000
    S55      S        0.21320    0.57500    0.84590    1.000
    C417     C        0.18590    0.57270    0.79820    1.000
    H469     H        0.18910    0.59790    0.78400    1.000
    H470     H        0.19660    0.55100    0.78200    1.000
    H471     H        0.15770    0.56790    0.80340    1.000
    C418     C        0.19930    0.53760    0.92480    1.000
    H472     H        0.21350    0.56300    0.92050    1.000
    H473     H        0.20830    0.52670    0.95060    1.000
    C419     C        0.13830    0.56930    0.97830    1.000
    H474     H        0.10990    0.57530    0.98110    1.000
    H475     H        0.14620    0.55010    0.99870    1.000
    H476     H        0.15370    0.59380    0.98150    1.000
    C420     C        0.19570    0.46770    0.89950    1.000
    H477     H        0.20440    0.45160    0.87640    1.000
    H478     H        0.16630    0.46850    0.89910    1.000
    C421     C        0.25470    0.41440    0.92650    1.000
    H479     H        0.25880    0.42020    0.89830    1.000
    H480     H        0.25030    0.38580    0.93000    1.000
    H481     H        0.27830    0.42250    0.94160    1.000
    O84      O        0.39220    0.49760    0.05450    1.000
    O85      O        0.44010    0.50100    0.10340    1.000
    O86      O        0.39640    0.49590    0.94000    1.000
    O87      O        0.44550    0.49510    0.89370    1.000
    S56      S        0.19260    0.51310    0.09890    1.000
    S57      S        0.14926    0.41530    0.04420    1.000
    S58      S        0.23100    0.34880    0.09650    1.000
    S59      S        0.14770    0.54800    0.92840    1.000
    S60      S        0.21120    0.44190    0.94470    1.000
    Zr10     Zr       0.42654    0.49820    0.99831    1.000
    O88      O        0.47050    0.46990    0.96800    1.000
    Hg10     Hg       0.11624    0.38919    0.84237    1.000
    Cl19     Cl       0.14930    0.43980    0.80270    1.000
    Cl20     Cl       0.15080    0.34350    0.88130    1.000
    C422     C        0.27000    0.31100    0.10700    1.000
    H482     H        0.27090    0.29220    0.08510    1.000
    H483     H        0.29530    0.32440    0.11020    1.000
    H484     H        0.26290    0.29720    0.13170    1.000
    C423     C        0.37730    0.49000    0.87470    1.000
    C424     C        0.33690    0.49760    0.88390    1.000
    H485     H        0.32910    0.50480    0.91010    1.000
    C425     C        0.30990    0.49430    0.85450    1.000
    C426     C        0.32260    0.48350    0.81570    1.000
    C427     C        0.36240    0.47620    0.80770    1.000
    H486     H        0.37020    0.46900    0.78150    1.000
    C428     C        0.39100    0.47940    0.83730    1.000
    H487     H        0.41840    0.47450    0.83220    1.000
    C429     C        0.29390    0.48020    0.78530    1.000
    C430     C        0.26590    0.47870    0.76280    1.000
    O89      O        0.27000    0.50010    0.85650    1.000
    H488     H        0.26850    0.53530    0.90420    1.000
    H489     H        0.26730    0.48850    0.91450    1.000
    O90      O        0.46230    0.45570    0.95910    1.000
    H490     H        0.44620    0.43750    0.94190    1.000
    C431     C        0.09470    0.00280    0.09180    1.000
    C432     C        0.12550    0.01350    0.12190    1.000
    C433     C        0.16380    0.02710    0.11060    1.000
    H491     H        0.17020    0.03010    0.08330    1.000
    C434     C        0.19130    0.03580    0.13870    1.000
    C435     C        0.18260    0.03070    0.17980    1.000
    C436     C        0.14500    0.01600    0.18950    1.000
    H492     H        0.13950    0.01010    0.21660    1.000
    C437     C        0.11530    0.00950    0.16170    1.000
    H493     H        0.08910    0.00260    0.16960    1.000
    C438     C        0.21190    0.03730    0.20870    1.000
    C439     C        0.23620    0.03930    0.23510    1.000
    O91      O        0.22850    0.05080    0.13230    1.000
    C440     C        0.24270    0.05570    0.09240    1.000
    H494     H        0.22700    0.07640    0.07860    1.000
    H495     H        0.24000    0.03050    0.07750    1.000
    C441     C        0.28520    0.06780    0.09430    1.000
    C442     C        0.30990    0.03690    0.11790    1.000
    H496     H        0.30050    0.03680    0.14580    1.000
    H497     H        0.33800    0.04550    0.11800    1.000
    C443     C        0.26860    0.96390    0.12890    1.000
    H498     H        0.24270    0.96830    0.11630    1.000
    H499     H        0.26860    0.97560    0.15550    1.000
    H500     H        0.27360    0.93520    0.13090    1.000
    C444     C        0.29960    0.07230    0.05120    1.000
    H501     H        0.28330    0.09310    0.03820    1.000
    H502     H        0.29430    0.04700    0.03710    1.000
    C445     C        0.37340    0.03540    0.03530    1.000
    H503     H        0.36100    0.02310    0.01200    1.000
    H504     H        0.36920    0.01840    0.05860    1.000
    H505     H        0.40190    0.03850    0.03060    1.000
    C446     C        0.29260    0.10630    0.11760    1.000
    H506     H        0.32160    0.11080    0.11910    1.000
    H507     H        0.28270    0.10260    0.14510    1.000
    C447     C        0.22580    0.15500    0.13000    1.000
    H508     H        0.20980    0.17860    0.12230    1.000
    H509     H        0.20950    0.13140    0.12790    1.000
    H510     H        0.23500    0.15870    0.15730    1.000
    C448     C        0.09000    0.00740    0.90440    1.000
    C449     C        0.12050    0.01720    0.87300    1.000
    C450     C        0.16130    0.01380    0.88370    1.000
    H511     H        0.16820    0.00710    0.91030    1.000
    C451     C        0.19010    0.01980    0.85650    1.000
    C452     C        0.18020    0.03540    0.81840    1.000
    C453     C        0.14020    0.03980    0.80880    1.000
    H512     H        0.13330    0.05070    0.78370    1.000
    C454     C        0.10980    0.02880    0.83470    1.000
    H513     H        0.08280    0.02910    0.82650    1.000
    C455     C        0.20960    0.04250    0.78950    1.000
    C456     C        0.23520    0.04460    0.76410    1.000
    O92      O        0.22980    0.01630    0.86410    1.000
    C457     C        0.24200    0.99080    0.89570    1.000
    H514     H        0.23100    0.96380    0.89210    1.000
    H515     H        0.23300    0.00140    0.92160    1.000
    C458     C        0.28910    0.99010    0.89340    1.000
    C459     C        0.30170    0.97330    0.85720    1.000
    H516     H        0.33110    0.97400    0.85670    1.000
    H517     H        0.29230    0.99080    0.83550    1.000
    S61      S        0.28680    0.92500    0.84590    1.000
    C460     C        0.31410    0.92730    0.79820    1.000
    H518     H        0.31090    0.90210    0.78400    1.000
    H519     H        0.30340    0.94900    0.78200    1.000
    H520     H        0.34230    0.93210    0.80340    1.000
    C461     C        0.30070    0.96240    0.92480    1.000
    H521     H        0.28650    0.93700    0.92050    1.000
    H522     H        0.29170    0.97330    0.95060    1.000
    C462     C        0.36170    0.93070    0.97830    1.000
    H523     H        0.39010    0.92470    0.98110    1.000
    H524     H        0.35380    0.94990    0.99870    1.000
    H525     H        0.34630    0.90620    0.98150    1.000
    C463     C        0.30430    0.03230    0.89950    1.000
    H526     H        0.29560    0.04840    0.87640    1.000
    H527     H        0.33370    0.03150    0.89910    1.000
    C464     C        0.24530    0.08560    0.92650    1.000
    H528     H        0.24120    0.07980    0.89830    1.000
    H529     H        0.24970    0.11420    0.93000    1.000
    H530     H        0.22170    0.07750    0.94160    1.000
    O93      O        0.10780    0.00240    0.05450    1.000
    O94      O        0.05990    0.99900    0.10340    1.000
    O95      O        0.10360    0.00410    0.94000    1.000
    O96      O        0.05450    0.00490    0.89370    1.000
    S62      S        0.30740    0.98690    0.09890    1.000
    S63      S        0.35074    0.08470    0.04420    1.000
    S64      S        0.26900    0.15120    0.09650    1.000
    S65      S        0.35230    0.95200    0.92840    1.000
    S66      S        0.28880    0.05810    0.94470    1.000
    Zr11     Zr       0.07346    0.00180    0.99831    1.000
    O97      O        0.02950    0.03010    0.96800    1.000
    Hg11     Hg       0.38376    0.11081    0.84237    1.000
    Cl21     Cl       0.35070    0.06020    0.80270    1.000
    Cl22     Cl       0.34920    0.15650    0.88130    1.000
    C465     C        0.23000    0.18900    0.10700    1.000
    H531     H        0.22910    0.20780    0.08510    1.000
    H532     H        0.20470    0.17560    0.11020    1.000
    H533     H        0.23710    0.20280    0.13170    1.000
    C466     C        0.12270    0.01000    0.87470    1.000
    C467     C        0.16310    0.00240    0.88390    1.000
    H534     H        0.17090    0.99520    0.91010    1.000
    C468     C        0.19010    0.00570    0.85450    1.000
    C469     C        0.17740    0.01650    0.81570    1.000
    C470     C        0.13760    0.02380    0.80770    1.000
    H535     H        0.12980    0.03100    0.78150    1.000
    C471     C        0.10900    0.02060    0.83730    1.000
    H536     H        0.08160    0.02550    0.83220    1.000
    C472     C        0.20610    0.01980    0.78530    1.000
    C473     C        0.23410    0.02130    0.76280    1.000
    O98      O        0.23000    0.99990    0.85650    1.000
    H537     H        0.23150    0.96470    0.90420    1.000
    H538     H        0.23270    0.01150    0.91450    1.000
    O99      O        0.03770    0.04430    0.95910    1.000
    H539     H        0.05380    0.06250    0.94190    1.000
    C474     C        0.40530    0.00280    0.40820    1.000
    C475     C        0.37450    0.01350    0.37810    1.000
    C476     C        0.33620    0.02710    0.38940    1.000
    H540     H        0.32980    0.03010    0.41670    1.000
    C477     C        0.30870    0.03580    0.36130    1.000
    C478     C        0.31740    0.03070    0.32020    1.000
    C479     C        0.35500    0.01600    0.31050    1.000
    H541     H        0.36050    0.01010    0.28340    1.000
    C480     C        0.38470    0.00950    0.33830    1.000
    H542     H        0.41090    0.00260    0.33040    1.000
    C481     C        0.28810    0.03730    0.29130    1.000
    C482     C        0.26380    0.03930    0.26490    1.000
    O100     O        0.27150    0.05080    0.36770    1.000
    C483     C        0.25730    0.05570    0.40760    1.000
    H543     H        0.27300    0.07640    0.42140    1.000
    H544     H        0.26000    0.03050    0.42250    1.000
    C484     C        0.21480    0.06780    0.40570    1.000
    C485     C        0.19010    0.03690    0.38210    1.000
    H545     H        0.19950    0.03680    0.35420    1.000
    H546     H        0.16200    0.04550    0.38200    1.000
    C486     C        0.23140    0.96390    0.37110    1.000
    H547     H        0.25730    0.96830    0.38370    1.000
    H548     H        0.23140    0.97560    0.34450    1.000
    H549     H        0.22640    0.93520    0.36910    1.000
    C487     C        0.20040    0.07230    0.44880    1.000
    H550     H        0.21670    0.09310    0.46180    1.000
    H551     H        0.20570    0.04700    0.46290    1.000
    C488     C        0.12660    0.03540    0.46470    1.000
    H552     H        0.13900    0.02310    0.48800    1.000
    H553     H        0.13080    0.01840    0.44140    1.000
    H554     H        0.09810    0.03850    0.46940    1.000
    C489     C        0.20740    0.10630    0.38240    1.000
    H555     H        0.17840    0.11080    0.38090    1.000
    H556     H        0.21730    0.10260    0.35490    1.000
    C490     C        0.27420    0.15500    0.37000    1.000
    H557     H        0.29020    0.17860    0.37770    1.000
    H558     H        0.29050    0.13140    0.37210    1.000
    H559     H        0.26500    0.15870    0.34270    1.000
    C491     C        0.41000    0.00740    0.59560    1.000
    C492     C        0.37950    0.01720    0.62700    1.000
    C493     C        0.33870    0.01380    0.61630    1.000
    H560     H        0.33180    0.00710    0.58970    1.000
    C494     C        0.30990    0.01980    0.64350    1.000
    C495     C        0.31980    0.03540    0.68160    1.000
    C496     C        0.35980    0.03980    0.69120    1.000
    H561     H        0.36670    0.05070    0.71630    1.000
    C497     C        0.39020    0.02880    0.66530    1.000
    H562     H        0.41720    0.02910    0.67350    1.000
    C498     C        0.29040    0.04250    0.71050    1.000
    C499     C        0.26480    0.04460    0.73590    1.000
    O101     O        0.27020    0.01630    0.63590    1.000
    C500     C        0.25800    0.99080    0.60430    1.000
    H563     H        0.26900    0.96380    0.60790    1.000
    H564     H        0.26700    0.00140    0.57840    1.000
    C501     C        0.21090    0.99010    0.60660    1.000
    C502     C        0.19830    0.97330    0.64280    1.000
    H565     H        0.16890    0.97400    0.64330    1.000
    H566     H        0.20770    0.99080    0.66450    1.000
    S67      S        0.21320    0.92500    0.65410    1.000
    C503     C        0.18590    0.92730    0.70180    1.000
    H567     H        0.18910    0.90210    0.71600    1.000
    H568     H        0.19660    0.94900    0.71800    1.000
    H569     H        0.15770    0.93210    0.69660    1.000
    C504     C        0.19930    0.96240    0.57520    1.000
    H570     H        0.21350    0.93700    0.57950    1.000
    H571     H        0.20830    0.97330    0.54940    1.000
    C505     C        0.13830    0.93070    0.52170    1.000
    H572     H        0.10990    0.92470    0.51890    1.000
    H573     H        0.14620    0.94990    0.50130    1.000
    H574     H        0.15370    0.90620    0.51850    1.000
    C506     C        0.19570    0.03230    0.60050    1.000
    H575     H        0.20440    0.04840    0.62360    1.000
    H576     H        0.16630    0.03150    0.60090    1.000
    C507     C        0.25470    0.08560    0.57350    1.000
    H577     H        0.25880    0.07980    0.60170    1.000
    H578     H        0.25030    0.11420    0.57000    1.000
    H579     H        0.27830    0.07750    0.55840    1.000
    O102     O        0.39220    0.00240    0.44550    1.000
    O103     O        0.44010    0.99900    0.39660    1.000
    O104     O        0.39640    0.00410    0.56000    1.000
    O105     O        0.44550    0.00490    0.60630    1.000
    S68      S        0.19260    0.98690    0.40110    1.000
    S69      S        0.14926    0.08470    0.45580    1.000
    S70      S        0.23100    0.15120    0.40350    1.000
    S71      S        0.14770    0.95200    0.57160    1.000
    S72      S        0.21120    0.05810    0.55530    1.000
    Zr12     Zr       0.42654    0.00180    0.50169    1.000
    O106     O        0.47050    0.03010    0.53200    1.000
    Hg12     Hg       0.11624    0.11081    0.65763    1.000
    Cl23     Cl       0.14930    0.06020    0.69730    1.000
    Cl24     Cl       0.15080    0.15650    0.61870    1.000
    C508     C        0.27000    0.18900    0.39300    1.000
    H580     H        0.27090    0.20780    0.41490    1.000
    H581     H        0.29530    0.17560    0.38980    1.000
    H582     H        0.26290    0.20280    0.36830    1.000
    C509     C        0.37730    0.01000    0.62530    1.000
    C510     C        0.33690    0.00240    0.61610    1.000
    H583     H        0.32910    0.99520    0.58990    1.000
    C511     C        0.30990    0.00570    0.64550    1.000
    C512     C        0.32260    0.01650    0.68430    1.000
    C513     C        0.36240    0.02380    0.69230    1.000
    H584     H        0.37020    0.03100    0.71850    1.000
    C514     C        0.39100    0.02060    0.66270    1.000
    H585     H        0.41840    0.02550    0.66780    1.000
    C515     C        0.29390    0.01980    0.71470    1.000
    C516     C        0.26590    0.02130    0.73720    1.000
    O107     O        0.27000    0.99990    0.64350    1.000
    H586     H        0.26850    0.96470    0.59580    1.000
    H587     H        0.26730    0.01150    0.58550    1.000
    O108     O        0.46230    0.04430    0.54090    1.000
    H588     H        0.44620    0.06250    0.55810    1.000
    C517     C        0.59180    0.90530    0.50280    1.000
    C518     C        0.62190    0.87450    0.51350    1.000
    C519     C        0.61060    0.83620    0.52710    1.000
    H589     H        0.58330    0.82980    0.53010    1.000
    C520     C        0.63870    0.80870    0.53580    1.000
    C521     C        0.67980    0.81740    0.53070    1.000
    C522     C        0.68950    0.85500    0.51600    1.000
    H590     H        0.71660    0.86050    0.51010    1.000
    C523     C        0.66170    0.88470    0.50950    1.000
    H591     H        0.66960    0.91090    0.50260    1.000
    C524     C        0.70870    0.78810    0.53730    1.000
    C525     C        0.73510    0.76380    0.53930    1.000
    O109     O        0.63230    0.77150    0.55080    1.000
    C526     C        0.59240    0.75730    0.55570    1.000
    H592     H        0.57860    0.77300    0.57640    1.000
    H593     H        0.57750    0.76000    0.53050    1.000
    C527     C        0.59430    0.71480    0.56780    1.000
    C528     C        0.61790    0.69010    0.53690    1.000
    H594     H        0.64580    0.69950    0.53680    1.000
    H595     H        0.61800    0.66200    0.54550    1.000
    C529     C        0.62890    0.73140    0.46390    1.000
    H596     H        0.61630    0.75730    0.46830    1.000
    H597     H        0.65550    0.73140    0.47560    1.000
    H598     H        0.63090    0.72640    0.43520    1.000
    C530     C        0.55120    0.70040    0.57230    1.000
    H599     H        0.53820    0.71670    0.59310    1.000
    H600     H        0.53710    0.70570    0.54700    1.000
    C531     C        0.53530    0.62660    0.53540    1.000
    H601     H        0.51200    0.63900    0.52310    1.000
    H602     H        0.55860    0.63080    0.51840    1.000
    H603     H        0.53060    0.59810    0.53850    1.000
    C532     C        0.61760    0.70740    0.60630    1.000
    H604     H        0.61910    0.67840    0.61080    1.000
    H605     H        0.64510    0.71730    0.60260    1.000
    C533     C        0.63000    0.77420    0.65500    1.000
    H606     H        0.62230    0.79020    0.67860    1.000
    H607     H        0.62790    0.79050    0.63140    1.000
    H608     H        0.65730    0.76500    0.65870    1.000
    C534     C        0.40440    0.91000    0.50740    1.000
    C535     C        0.37300    0.87950    0.51720    1.000
    C536     C        0.38370    0.83870    0.51380    1.000
    H609     H        0.41030    0.83180    0.50710    1.000
    C537     C        0.35650    0.80990    0.51980    1.000
    C538     C        0.31840    0.81980    0.53540    1.000
    C539     C        0.30880    0.85980    0.53980    1.000
    H610     H        0.28370    0.86670    0.55070    1.000
    C540     C        0.33470    0.89020    0.52880    1.000
    H611     H        0.32650    0.91720    0.52910    1.000
    C541     C        0.28950    0.79040    0.54250    1.000
    C542     C        0.26410    0.76480    0.54460    1.000
    O110     O        0.36410    0.77020    0.51630    1.000
    C543     C        0.39570    0.75800    0.49080    1.000
    H612     H        0.39210    0.76900    0.46380    1.000
    H613     H        0.42160    0.76700    0.50140    1.000
    C544     C        0.39340    0.71090    0.49010    1.000
    C545     C        0.35720    0.69830    0.47330    1.000
    H614     H        0.35670    0.66890    0.47400    1.000
    H615     H        0.33550    0.70770    0.49080    1.000
    S73      S        0.34590    0.71320    0.42500    1.000
    C546     C        0.29820    0.68590    0.42730    1.000
    H616     H        0.28400    0.68910    0.40210    1.000
    H617     H        0.28200    0.69660    0.44900    1.000
    H618     H        0.30340    0.65770    0.43210    1.000
    C547     C        0.42480    0.69930    0.46240    1.000
    H619     H        0.42050    0.71350    0.43700    1.000
    H620     H        0.45060    0.70830    0.47330    1.000
    C548     C        0.47830    0.63830    0.43070    1.000
    H621     H        0.48110    0.60990    0.42470    1.000
    H622     H        0.49870    0.64620    0.44990    1.000
    H623     H        0.48150    0.65370    0.40620    1.000
    C549     C        0.39950    0.69570    0.53230    1.000
    H624     H        0.37640    0.70440    0.54840    1.000
    H625     H        0.39910    0.66630    0.53150    1.000
    C550     C        0.42650    0.75470    0.58560    1.000
    H626     H        0.39830    0.75880    0.57980    1.000
    H627     H        0.43000    0.75030    0.61420    1.000
    H628     H        0.44160    0.77830    0.57750    1.000
    O111     O        0.55450    0.89220    0.50240    1.000
    O112     O        0.60340    0.94010    0.49900    1.000
    O113     O        0.44000    0.89640    0.50410    1.000
    O114     O        0.39370    0.94550    0.50490    1.000
    S74      S        0.59890    0.69260    0.48690    1.000
    S75      S        0.54420    0.64926    0.58470    1.000
    S76      S        0.59650    0.73100    0.65120    1.000
    S77      S        0.42840    0.64770    0.45200    1.000
    S78      S        0.44470    0.71120    0.55810    1.000
    Zr13     Zr       0.49831    0.92654    0.50180    1.000
    O115     O        0.46800    0.97050    0.53010    1.000
    Hg13     Hg       0.34237    0.61624    0.61081    1.000
    Cl25     Cl       0.30270    0.64930    0.56020    1.000
    Cl26     Cl       0.38130    0.65080    0.65650    1.000
    C551     C        0.60700    0.77000    0.68900    1.000
    H629     H        0.58510    0.77090    0.70780    1.000
    H630     H        0.61020    0.79530    0.67560    1.000
    H631     H        0.63170    0.76290    0.70280    1.000
    C552     C        0.37470    0.87730    0.51000    1.000
    C553     C        0.38390    0.83690    0.50240    1.000
    H632     H        0.41010    0.82910    0.49520    1.000
    C554     C        0.35450    0.80990    0.50570    1.000
    C555     C        0.31570    0.82260    0.51650    1.000
    C556     C        0.30770    0.86240    0.52380    1.000
    H633     H        0.28150    0.87020    0.53100    1.000
    C557     C        0.33730    0.89100    0.52060    1.000
    H634     H        0.33220    0.91840    0.52550    1.000
    C558     C        0.28530    0.79390    0.51980    1.000
    C559     C        0.26280    0.76590    0.52130    1.000
    O116     O        0.35650    0.77000    0.49990    1.000
    H635     H        0.40420    0.76850    0.46470    1.000
    H636     H        0.41450    0.76730    0.51150    1.000
    O117     O        0.45910    0.96230    0.54430    1.000
    H637     H        0.44190    0.94620    0.56250    1.000
    C560     C        0.90820    0.59470    0.50280    1.000
    C561     C        0.87810    0.62550    0.51350    1.000
    C562     C        0.88940    0.66380    0.52710    1.000
    H638     H        0.91670    0.67020    0.53010    1.000
    C563     C        0.86130    0.69130    0.53580    1.000
    C564     C        0.82020    0.68260    0.53070    1.000
    C565     C        0.81050    0.64500    0.51600    1.000
    H639     H        0.78340    0.63950    0.51010    1.000
    C566     C        0.83830    0.61530    0.50950    1.000
    H640     H        0.83040    0.58910    0.50260    1.000
    C567     C        0.79130    0.71190    0.53730    1.000
    C568     C        0.76490    0.73620    0.53930    1.000
    O118     O        0.86770    0.72850    0.55080    1.000
    C569     C        0.90760    0.74270    0.55570    1.000
    H641     H        0.92140    0.72700    0.57640    1.000
    H642     H        0.92250    0.74000    0.53050    1.000
    C570     C        0.90570    0.78520    0.56780    1.000
    C571     C        0.88210    0.80990    0.53690    1.000
    H643     H        0.85420    0.80050    0.53680    1.000
    H644     H        0.88200    0.83800    0.54550    1.000
    C572     C        0.87110    0.76860    0.46390    1.000
    H645     H        0.88370    0.74270    0.46830    1.000
    H646     H        0.84450    0.76860    0.47560    1.000
    H647     H        0.86910    0.77360    0.43520    1.000
    C573     C        0.94880    0.79960    0.57230    1.000
    H648     H        0.96180    0.78330    0.59310    1.000
    H649     H        0.96290    0.79430    0.54700    1.000
    C574     C        0.96470    0.87340    0.53540    1.000
    H650     H        0.98800    0.86100    0.52310    1.000
    H651     H        0.94140    0.86920    0.51840    1.000
    H652     H        0.96940    0.90190    0.53850    1.000
    C575     C        0.88240    0.79260    0.60630    1.000
    H653     H        0.88090    0.82160    0.61080    1.000
    H654     H        0.85490    0.78270    0.60260    1.000
    C576     C        0.87000    0.72580    0.65500    1.000
    H655     H        0.87770    0.70980    0.67860    1.000
    H656     H        0.87210    0.70950    0.63140    1.000
    H657     H        0.84270    0.73500    0.65870    1.000
    C577     C        0.09560    0.59000    0.50740    1.000
    C578     C        0.12700    0.62050    0.51720    1.000
    C579     C        0.11630    0.66130    0.51380    1.000
    H658     H        0.08970    0.66820    0.50710    1.000
    C580     C        0.14350    0.69010    0.51980    1.000
    C581     C        0.18160    0.68020    0.53540    1.000
    C582     C        0.19120    0.64020    0.53980    1.000
    H659     H        0.21630    0.63330    0.55070    1.000
    C583     C        0.16530    0.60980    0.52880    1.000
    H660     H        0.17350    0.58280    0.52910    1.000
    C584     C        0.21050    0.70960    0.54250    1.000
    C585     C        0.23590    0.73520    0.54460    1.000
    O119     O        0.13590    0.72980    0.51630    1.000
    C586     C        0.10430    0.74200    0.49080    1.000
    H661     H        0.10790    0.73100    0.46380    1.000
    H662     H        0.07840    0.73300    0.50140    1.000
    C587     C        0.10660    0.78910    0.49010    1.000
    C588     C        0.14280    0.80170    0.47330    1.000
    H663     H        0.14330    0.83110    0.47400    1.000
    H664     H        0.16450    0.79230    0.49080    1.000
    S79      S        0.15410    0.78680    0.42500    1.000
    C589     C        0.20180    0.81410    0.42730    1.000
    H665     H        0.21600    0.81090    0.40210    1.000
    H666     H        0.21800    0.80340    0.44900    1.000
    H667     H        0.19660    0.84230    0.43210    1.000
    C590     C        0.07520    0.80070    0.46240    1.000
    H668     H        0.07950    0.78650    0.43700    1.000
    H669     H        0.04940    0.79170    0.47330    1.000
    C591     C        0.02170    0.86170    0.43070    1.000
    H670     H        0.01890    0.89010    0.42470    1.000
    H671     H        0.00130    0.85380    0.44990    1.000
    H672     H        0.01850    0.84630    0.40620    1.000
    C592     C        0.10050    0.80430    0.53230    1.000
    H673     H        0.12360    0.79560    0.54840    1.000
    H674     H        0.10090    0.83370    0.53150    1.000
    C593     C        0.07350    0.74530    0.58560    1.000
    H675     H        0.10170    0.74120    0.57980    1.000
    H676     H        0.07000    0.74970    0.61420    1.000
    H677     H        0.05840    0.72170    0.57750    1.000
    O120     O        0.94550    0.60780    0.50240    1.000
    O121     O        0.89660    0.55990    0.49900    1.000
    O122     O        0.06000    0.60360    0.50410    1.000
    O123     O        0.10630    0.55450    0.50490    1.000
    S80      S        0.90110    0.80740    0.48690    1.000
    S81      S        0.95580    0.85074    0.58470    1.000
    S82      S        0.90350    0.76900    0.65120    1.000
    S83      S        0.07160    0.85230    0.45200    1.000
    S84      S        0.05530    0.78880    0.55810    1.000
    Zr14     Zr       0.00169    0.57346    0.50180    1.000
    O124     O        0.03200    0.52950    0.53010    1.000
    Hg14     Hg       0.15763    0.88376    0.61081    1.000
    Cl27     Cl       0.19730    0.85070    0.56020    1.000
    Cl28     Cl       0.11870    0.84920    0.65650    1.000
    C594     C        0.89300    0.73000    0.68900    1.000
    H678     H        0.91490    0.72910    0.70780    1.000
    H679     H        0.88980    0.70470    0.67560    1.000
    H680     H        0.86830    0.73710    0.70280    1.000
    C595     C        0.12530    0.62270    0.51000    1.000
    C596     C        0.11610    0.66310    0.50240    1.000
    H681     H        0.08990    0.67090    0.49520    1.000
    C597     C        0.14550    0.69010    0.50570    1.000
    C598     C        0.18430    0.67740    0.51650    1.000
    C599     C        0.19230    0.63760    0.52380    1.000
    H682     H        0.21850    0.62980    0.53100    1.000
    C600     C        0.16270    0.60900    0.52060    1.000
    H683     H        0.16780    0.58160    0.52550    1.000
    C601     C        0.21470    0.70610    0.51980    1.000
    C602     C        0.23720    0.73410    0.52130    1.000
    O125     O        0.14350    0.73000    0.49990    1.000
    H684     H        0.09580    0.73150    0.46470    1.000
    H685     H        0.08550    0.73270    0.51150    1.000
    O126     O        0.04090    0.53770    0.54430    1.000
    H686     H        0.05810    0.55380    0.56250    1.000
    C603     C        0.90820    0.90530    0.99720    1.000
    C604     C        0.87810    0.87450    0.98650    1.000
    C605     C        0.88940    0.83620    0.97290    1.000
    H687     H        0.91670    0.82980    0.96990    1.000
    C606     C        0.86130    0.80870    0.96420    1.000
    C607     C        0.82020    0.81740    0.96930    1.000
    C608     C        0.81050    0.85500    0.98400    1.000
    H688     H        0.78340    0.86050    0.98990    1.000
    C609     C        0.83830    0.88470    0.99050    1.000
    H689     H        0.83040    0.91090    0.99740    1.000
    C610     C        0.79130    0.78810    0.96270    1.000
    C611     C        0.76490    0.76380    0.96070    1.000
    O127     O        0.86770    0.77150    0.94920    1.000
    C612     C        0.90760    0.75730    0.94430    1.000
    H690     H        0.92140    0.77300    0.92360    1.000
    H691     H        0.92250    0.76000    0.96950    1.000
    C613     C        0.90570    0.71480    0.93220    1.000
    C614     C        0.88210    0.69010    0.96310    1.000
    H692     H        0.85420    0.69950    0.96320    1.000
    H693     H        0.88200    0.66200    0.95450    1.000
    C615     C        0.87110    0.73140    0.03610    1.000
    H694     H        0.88370    0.75730    0.03170    1.000
    H695     H        0.84450    0.73140    0.02440    1.000
    H696     H        0.86910    0.72640    0.06480    1.000
    C616     C        0.94880    0.70040    0.92770    1.000
    H697     H        0.96180    0.71670    0.90690    1.000
    H698     H        0.96290    0.70570    0.95300    1.000
    C617     C        0.96470    0.62660    0.96460    1.000
    H699     H        0.98800    0.63900    0.97690    1.000
    H700     H        0.94140    0.63080    0.98160    1.000
    H701     H        0.96940    0.59810    0.96150    1.000
    C618     C        0.88240    0.70740    0.89370    1.000
    H702     H        0.88090    0.67840    0.88920    1.000
    H703     H        0.85490    0.71730    0.89740    1.000
    C619     C        0.87000    0.77420    0.84500    1.000
    H704     H        0.87770    0.79020    0.82140    1.000
    H705     H        0.87210    0.79050    0.86860    1.000
    H706     H        0.84270    0.76500    0.84130    1.000
    C620     C        0.09560    0.91000    0.99260    1.000
    C621     C        0.12700    0.87950    0.98280    1.000
    C622     C        0.11630    0.83870    0.98620    1.000
    H707     H        0.08970    0.83180    0.99290    1.000
    C623     C        0.14350    0.80990    0.98020    1.000
    C624     C        0.18160    0.81980    0.96460    1.000
    C625     C        0.19120    0.85980    0.96020    1.000
    H708     H        0.21630    0.86670    0.94930    1.000
    C626     C        0.16530    0.89020    0.97120    1.000
    H709     H        0.17350    0.91720    0.97090    1.000
    C627     C        0.21050    0.79040    0.95750    1.000
    C628     C        0.23590    0.76480    0.95540    1.000
    O128     O        0.13590    0.77020    0.98370    1.000
    C629     C        0.10430    0.75800    0.00920    1.000
    H710     H        0.10790    0.76900    0.03620    1.000
    H711     H        0.07840    0.76700    0.99860    1.000
    C630     C        0.10660    0.71090    0.00990    1.000
    C631     C        0.14280    0.69830    0.02670    1.000
    H712     H        0.14330    0.66890    0.02600    1.000
    H713     H        0.16450    0.70770    0.00920    1.000
    S85      S        0.15410    0.71320    0.07500    1.000
    C632     C        0.20180    0.68590    0.07270    1.000
    H714     H        0.21600    0.68910    0.09790    1.000
    H715     H        0.21800    0.69660    0.05100    1.000
    H716     H        0.19660    0.65770    0.06790    1.000
    C633     C        0.07520    0.69930    0.03760    1.000
    H717     H        0.07950    0.71350    0.06300    1.000
    H718     H        0.04940    0.70830    0.02670    1.000
    C634     C        0.02170    0.63830    0.06930    1.000
    H719     H        0.01890    0.60990    0.07530    1.000
    H720     H        0.00130    0.64620    0.05010    1.000
    H721     H        0.01850    0.65370    0.09380    1.000
    C635     C        0.10050    0.69570    0.96770    1.000
    H722     H        0.12360    0.70440    0.95160    1.000
    H723     H        0.10090    0.66630    0.96850    1.000
    C636     C        0.07350    0.75470    0.91440    1.000
    H724     H        0.10170    0.75880    0.92020    1.000
    H725     H        0.07000    0.75030    0.88580    1.000
    H726     H        0.05840    0.77830    0.92250    1.000
    O129     O        0.94550    0.89220    0.99760    1.000
    O130     O        0.89660    0.94010    0.00100    1.000
    O131     O        0.06000    0.89640    0.99590    1.000
    O132     O        0.10630    0.94550    0.99510    1.000
    S86      S        0.90110    0.69260    0.01310    1.000
    S87      S        0.95580    0.64926    0.91530    1.000
    S88      S        0.90350    0.73100    0.84880    1.000
    S89      S        0.07160    0.64770    0.04800    1.000
    S90      S        0.05530    0.71120    0.94190    1.000
    Zr15     Zr       0.00169    0.92654    0.99820    1.000
    O133     O        0.03200    0.97050    0.96990    1.000
    Hg15     Hg       0.15763    0.61624    0.88919    1.000
    Cl29     Cl       0.19730    0.64930    0.93980    1.000
    Cl30     Cl       0.11870    0.65080    0.84350    1.000
    C637     C        0.89300    0.77000    0.81100    1.000
    H727     H        0.91490    0.77090    0.79220    1.000
    H728     H        0.88980    0.79530    0.82440    1.000
    H729     H        0.86830    0.76290    0.79720    1.000
    C638     C        0.12530    0.87730    0.99000    1.000
    C639     C        0.11610    0.83690    0.99760    1.000
    H730     H        0.08990    0.82910    0.00480    1.000
    C640     C        0.14550    0.80990    0.99430    1.000
    C641     C        0.18430    0.82260    0.98350    1.000
    C642     C        0.19230    0.86240    0.97620    1.000
    H731     H        0.21850    0.87020    0.96900    1.000
    C643     C        0.16270    0.89100    0.97940    1.000
    H732     H        0.16780    0.91840    0.97450    1.000
    C644     C        0.21470    0.79390    0.98020    1.000
    C645     C        0.23720    0.76590    0.97870    1.000
    O134     O        0.14350    0.77000    0.00010    1.000
    H733     H        0.09580    0.76850    0.03530    1.000
    H734     H        0.08550    0.76730    0.98850    1.000
    O135     O        0.04090    0.96230    0.95570    1.000
    H735     H        0.05810    0.94620    0.93750    1.000
    C646     C        0.59180    0.59470    0.99720    1.000
    C647     C        0.62190    0.62550    0.98650    1.000
    C648     C        0.61060    0.66380    0.97290    1.000
    H736     H        0.58330    0.67020    0.96990    1.000
    C649     C        0.63870    0.69130    0.96420    1.000
    C650     C        0.67980    0.68260    0.96930    1.000
    C651     C        0.68950    0.64500    0.98400    1.000
    H737     H        0.71660    0.63950    0.98990    1.000
    C652     C        0.66170    0.61530    0.99050    1.000
    H738     H        0.66960    0.58910    0.99740    1.000
    C653     C        0.70870    0.71190    0.96270    1.000
    C654     C        0.73510    0.73620    0.96070    1.000
    O136     O        0.63230    0.72850    0.94920    1.000
    C655     C        0.59240    0.74270    0.94430    1.000
    H739     H        0.57860    0.72700    0.92360    1.000
    H740     H        0.57750    0.74000    0.96950    1.000
    C656     C        0.59430    0.78520    0.93220    1.000
    C657     C        0.61790    0.80990    0.96310    1.000
    H741     H        0.64580    0.80050    0.96320    1.000
    H742     H        0.61800    0.83800    0.95450    1.000
    C658     C        0.62890    0.76860    0.03610    1.000
    H743     H        0.61630    0.74270    0.03170    1.000
    H744     H        0.65550    0.76860    0.02440    1.000
    H745     H        0.63090    0.77360    0.06480    1.000
    C659     C        0.55120    0.79960    0.92770    1.000
    H746     H        0.53820    0.78330    0.90690    1.000
    H747     H        0.53710    0.79430    0.95300    1.000
    C660     C        0.53530    0.87340    0.96460    1.000
    H748     H        0.51200    0.86100    0.97690    1.000
    H749     H        0.55860    0.86920    0.98160    1.000
    H750     H        0.53060    0.90190    0.96150    1.000
    C661     C        0.61760    0.79260    0.89370    1.000
    H751     H        0.61910    0.82160    0.88920    1.000
    H752     H        0.64510    0.78270    0.89740    1.000
    C662     C        0.63000    0.72580    0.84500    1.000
    H753     H        0.62230    0.70980    0.82140    1.000
    H754     H        0.62790    0.70950    0.86860    1.000
    H755     H        0.65730    0.73500    0.84130    1.000
    C663     C        0.40440    0.59000    0.99260    1.000
    C664     C        0.37300    0.62050    0.98280    1.000
    C665     C        0.38370    0.66130    0.98620    1.000
    H756     H        0.41030    0.66820    0.99290    1.000
    C666     C        0.35650    0.69010    0.98020    1.000
    C667     C        0.31840    0.68020    0.96460    1.000
    C668     C        0.30880    0.64020    0.96020    1.000
    H757     H        0.28370    0.63330    0.94930    1.000
    C669     C        0.33470    0.60980    0.97120    1.000
    H758     H        0.32650    0.58280    0.97090    1.000
    C670     C        0.28950    0.70960    0.95750    1.000
    C671     C        0.26410    0.73520    0.95540    1.000
    O137     O        0.36410    0.72980    0.98370    1.000
    C672     C        0.39570    0.74200    0.00920    1.000
    H759     H        0.39210    0.73100    0.03620    1.000
    H760     H        0.42160    0.73300    0.99860    1.000
    C673     C        0.39340    0.78910    0.00990    1.000
    C674     C        0.35720    0.80170    0.02670    1.000
    H761     H        0.35670    0.83110    0.02600    1.000
    H762     H        0.33550    0.79230    0.00920    1.000
    S91      S        0.34590    0.78680    0.07500    1.000
    C675     C        0.29820    0.81410    0.07270    1.000
    H763     H        0.28400    0.81090    0.09790    1.000
    H764     H        0.28200    0.80340    0.05100    1.000
    H765     H        0.30340    0.84230    0.06790    1.000
    C676     C        0.42480    0.80070    0.03760    1.000
    H766     H        0.42050    0.78650    0.06300    1.000
    H767     H        0.45060    0.79170    0.02670    1.000
    C677     C        0.47830    0.86170    0.06930    1.000
    H768     H        0.48110    0.89010    0.07530    1.000
    H769     H        0.49870    0.85380    0.05010    1.000
    H770     H        0.48150    0.84630    0.09380    1.000
    C678     C        0.39950    0.80430    0.96770    1.000
    H771     H        0.37640    0.79560    0.95160    1.000
    H772     H        0.39910    0.83370    0.96850    1.000
    C679     C        0.42650    0.74530    0.91440    1.000
    H773     H        0.39830    0.74120    0.92020    1.000
    H774     H        0.43000    0.74970    0.88580    1.000
    H775     H        0.44160    0.72170    0.92250    1.000
    O138     O        0.55450    0.60780    0.99760    1.000
    O139     O        0.60340    0.55990    0.00100    1.000
    O140     O        0.44000    0.60360    0.99590    1.000
    O141     O        0.39370    0.55450    0.99510    1.000
    S92      S        0.59890    0.80740    0.01310    1.000
    S93      S        0.54420    0.85074    0.91530    1.000
    S94      S        0.59650    0.76900    0.84880    1.000
    S95      S        0.42840    0.85230    0.04800    1.000
    S96      S        0.44470    0.78880    0.94190    1.000
    Zr16     Zr       0.49831    0.57346    0.99820    1.000
    O142     O        0.46800    0.52950    0.96990    1.000
    Hg16     Hg       0.34237    0.88376    0.88919    1.000
    Cl31     Cl       0.30270    0.85070    0.93980    1.000
    Cl32     Cl       0.38130    0.84920    0.84350    1.000
    C680     C        0.60700    0.73000    0.81100    1.000
    H776     H        0.58510    0.72910    0.79220    1.000
    H777     H        0.61020    0.70470    0.82440    1.000
    H778     H        0.63170    0.73710    0.79720    1.000
    C681     C        0.37470    0.62270    0.99000    1.000
    C682     C        0.38390    0.66310    0.99760    1.000
    H779     H        0.41010    0.67090    0.00480    1.000
    C683     C        0.35450    0.69010    0.99430    1.000
    C684     C        0.31570    0.67740    0.98350    1.000
    C685     C        0.30770    0.63760    0.97620    1.000
    H780     H        0.28150    0.62980    0.96900    1.000
    C686     C        0.33730    0.60900    0.97940    1.000
    H781     H        0.33220    0.58160    0.97450    1.000
    C687     C        0.28530    0.70610    0.98020    1.000
    C688     C        0.26280    0.73410    0.97870    1.000
    O143     O        0.35650    0.73000    0.00010    1.000
    H782     H        0.40420    0.73150    0.03530    1.000
    H783     H        0.41450    0.73270    0.98850    1.000
    O144     O        0.45910    0.53770    0.95570    1.000
    H784     H        0.44190    0.55380    0.93750    1.000
    C689     C        0.50280    0.59180    0.90530    1.000
    C690     C        0.51350    0.62190    0.87450    1.000
    C691     C        0.52710    0.61060    0.83620    1.000
    H785     H        0.53010    0.58330    0.82980    1.000
    C692     C        0.53580    0.63870    0.80870    1.000
    C693     C        0.53070    0.67980    0.81740    1.000
    C694     C        0.51600    0.68950    0.85500    1.000
    H786     H        0.51010    0.71660    0.86050    1.000
    C695     C        0.50950    0.66170    0.88470    1.000
    H787     H        0.50260    0.66960    0.91090    1.000
    C696     C        0.53730    0.70870    0.78810    1.000
    C697     C        0.53930    0.73510    0.76380    1.000
    O145     O        0.55080    0.63230    0.77150    1.000
    C698     C        0.55570    0.59240    0.75730    1.000
    H788     H        0.57640    0.57860    0.77300    1.000
    H789     H        0.53050    0.57750    0.76000    1.000
    C699     C        0.56780    0.59430    0.71480    1.000
    C700     C        0.53690    0.61790    0.69010    1.000
    H790     H        0.53680    0.64580    0.69950    1.000
    H791     H        0.54550    0.61800    0.66200    1.000
    C701     C        0.46390    0.62890    0.73140    1.000
    H792     H        0.46830    0.61630    0.75730    1.000
    H793     H        0.47560    0.65550    0.73140    1.000
    H794     H        0.43520    0.63090    0.72640    1.000
    C702     C        0.57230    0.55120    0.70040    1.000
    H795     H        0.59310    0.53820    0.71670    1.000
    H796     H        0.54700    0.53710    0.70570    1.000
    C703     C        0.53540    0.53530    0.62660    1.000
    H797     H        0.52310    0.51200    0.63900    1.000
    H798     H        0.51840    0.55860    0.63080    1.000
    H799     H        0.53850    0.53060    0.59810    1.000
    C704     C        0.60630    0.61760    0.70740    1.000
    H800     H        0.61080    0.61910    0.67840    1.000
    H801     H        0.60260    0.64510    0.71730    1.000
    C705     C        0.65500    0.63000    0.77420    1.000
    H802     H        0.67860    0.62230    0.79020    1.000
    H803     H        0.63140    0.62790    0.79050    1.000
    H804     H        0.65870    0.65730    0.76500    1.000
    C706     C        0.50740    0.40440    0.91000    1.000
    C707     C        0.51720    0.37300    0.87950    1.000
    C708     C        0.51380    0.38370    0.83870    1.000
    H805     H        0.50710    0.41030    0.83180    1.000
    C709     C        0.51980    0.35650    0.80990    1.000
    C710     C        0.53540    0.31840    0.81980    1.000
    C711     C        0.53980    0.30880    0.85980    1.000
    H806     H        0.55070    0.28370    0.86670    1.000
    C712     C        0.52880    0.33470    0.89020    1.000
    H807     H        0.52910    0.32650    0.91720    1.000
    C713     C        0.54250    0.28950    0.79040    1.000
    C714     C        0.54460    0.26410    0.76480    1.000
    O146     O        0.51630    0.36410    0.77020    1.000
    C715     C        0.49080    0.39570    0.75800    1.000
    H808     H        0.46380    0.39210    0.76900    1.000
    H809     H        0.50140    0.42160    0.76700    1.000
    C716     C        0.49010    0.39340    0.71090    1.000
    C717     C        0.47330    0.35720    0.69830    1.000
    H810     H        0.47400    0.35670    0.66890    1.000
    H811     H        0.49080    0.33550    0.70770    1.000
    S97      S        0.42500    0.34590    0.71320    1.000
    C718     C        0.42730    0.29820    0.68590    1.000
    H812     H        0.40210    0.28400    0.68910    1.000
    H813     H        0.44900    0.28200    0.69660    1.000
    H814     H        0.43210    0.30340    0.65770    1.000
    C719     C        0.46240    0.42480    0.69930    1.000
    H815     H        0.43700    0.42050    0.71350    1.000
    H816     H        0.47330    0.45060    0.70830    1.000
    C720     C        0.43070    0.47830    0.63830    1.000
    H817     H        0.42470    0.48110    0.60990    1.000
    H818     H        0.44990    0.49870    0.64620    1.000
    H819     H        0.40620    0.48150    0.65370    1.000
    C721     C        0.53230    0.39950    0.69570    1.000
    H820     H        0.54840    0.37640    0.70440    1.000
    H821     H        0.53150    0.39910    0.66630    1.000
    C722     C        0.58560    0.42650    0.75470    1.000
    H822     H        0.57980    0.39830    0.75880    1.000
    H823     H        0.61420    0.43000    0.75030    1.000
    H824     H        0.57750    0.44160    0.77830    1.000
    O147     O        0.50240    0.55450    0.89220    1.000
    O148     O        0.49900    0.60340    0.94010    1.000
    O149     O        0.50410    0.44000    0.89640    1.000
    O150     O        0.50490    0.39370    0.94550    1.000
    S98      S        0.48690    0.59890    0.69260    1.000
    S99      S        0.58470    0.54420    0.64926    1.000
    S100     S        0.65120    0.59650    0.73100    1.000
    S101     S        0.45200    0.42840    0.64770    1.000
    S102     S        0.55810    0.44470    0.71120    1.000
    Zr17     Zr       0.50180    0.49831    0.92654    1.000
    O151     O        0.53010    0.46800    0.97050    1.000
    Hg17     Hg       0.61081    0.34237    0.61624    1.000
    Cl33     Cl       0.56020    0.30270    0.64930    1.000
    Cl34     Cl       0.65650    0.38130    0.65080    1.000
    C723     C        0.68900    0.60700    0.77000    1.000
    H825     H        0.70780    0.58510    0.77090    1.000
    H826     H        0.67560    0.61020    0.79530    1.000
    H827     H        0.70280    0.63170    0.76290    1.000
    C724     C        0.51000    0.37470    0.87730    1.000
    C725     C        0.50240    0.38390    0.83690    1.000
    H828     H        0.49520    0.41010    0.82910    1.000
    C726     C        0.50570    0.35450    0.80990    1.000
    C727     C        0.51650    0.31570    0.82260    1.000
    C728     C        0.52380    0.30770    0.86240    1.000
    H829     H        0.53100    0.28150    0.87020    1.000
    C729     C        0.52060    0.33730    0.89100    1.000
    H830     H        0.52550    0.33220    0.91840    1.000
    C730     C        0.51980    0.28530    0.79390    1.000
    C731     C        0.52130    0.26280    0.76590    1.000
    O152     O        0.49990    0.35650    0.77000    1.000
    H831     H        0.46470    0.40420    0.76850    1.000
    H832     H        0.51150    0.41450    0.76730    1.000
    O153     O        0.54430    0.45910    0.96230    1.000
    H833     H        0.56250    0.44190    0.94620    1.000
    C732     C        0.50280    0.90820    0.59470    1.000
    C733     C        0.51350    0.87810    0.62550    1.000
    C734     C        0.52710    0.88940    0.66380    1.000
    H834     H        0.53010    0.91670    0.67020    1.000
    C735     C        0.53580    0.86130    0.69130    1.000
    C736     C        0.53070    0.82020    0.68260    1.000
    C737     C        0.51600    0.81050    0.64500    1.000
    H835     H        0.51010    0.78340    0.63950    1.000
    C738     C        0.50950    0.83830    0.61530    1.000
    H836     H        0.50260    0.83040    0.58910    1.000
    C739     C        0.53730    0.79130    0.71190    1.000
    C740     C        0.53930    0.76490    0.73620    1.000
    O154     O        0.55080    0.86770    0.72850    1.000
    C741     C        0.55570    0.90760    0.74270    1.000
    H837     H        0.57640    0.92140    0.72700    1.000
    H838     H        0.53050    0.92250    0.74000    1.000
    C742     C        0.56780    0.90570    0.78520    1.000
    C743     C        0.53690    0.88210    0.80990    1.000
    H839     H        0.53680    0.85420    0.80050    1.000
    H840     H        0.54550    0.88200    0.83800    1.000
    C744     C        0.46390    0.87110    0.76860    1.000
    H841     H        0.46830    0.88370    0.74270    1.000
    H842     H        0.47560    0.84450    0.76860    1.000
    H843     H        0.43520    0.86910    0.77360    1.000
    C745     C        0.57230    0.94880    0.79960    1.000
    H844     H        0.59310    0.96180    0.78330    1.000
    H845     H        0.54700    0.96290    0.79430    1.000
    C746     C        0.53540    0.96470    0.87340    1.000
    H846     H        0.52310    0.98800    0.86100    1.000
    H847     H        0.51840    0.94140    0.86920    1.000
    H848     H        0.53850    0.96940    0.90190    1.000
    C747     C        0.60630    0.88240    0.79260    1.000
    H849     H        0.61080    0.88090    0.82160    1.000
    H850     H        0.60260    0.85490    0.78270    1.000
    C748     C        0.65500    0.87000    0.72580    1.000
    H851     H        0.67860    0.87770    0.70980    1.000
    H852     H        0.63140    0.87210    0.70950    1.000
    H853     H        0.65870    0.84270    0.73500    1.000
    C749     C        0.50740    0.09560    0.59000    1.000
    C750     C        0.51720    0.12700    0.62050    1.000
    C751     C        0.51380    0.11630    0.66130    1.000
    H854     H        0.50710    0.08970    0.66820    1.000
    C752     C        0.51980    0.14350    0.69010    1.000
    C753     C        0.53540    0.18160    0.68020    1.000
    C754     C        0.53980    0.19120    0.64020    1.000
    H855     H        0.55070    0.21630    0.63330    1.000
    C755     C        0.52880    0.16530    0.60980    1.000
    H856     H        0.52910    0.17350    0.58280    1.000
    C756     C        0.54250    0.21050    0.70960    1.000
    C757     C        0.54460    0.23590    0.73520    1.000
    O155     O        0.51630    0.13590    0.72980    1.000
    C758     C        0.49080    0.10430    0.74200    1.000
    H857     H        0.46380    0.10790    0.73100    1.000
    H858     H        0.50140    0.07840    0.73300    1.000
    C759     C        0.49010    0.10660    0.78910    1.000
    C760     C        0.47330    0.14280    0.80170    1.000
    H859     H        0.47400    0.14330    0.83110    1.000
    H860     H        0.49080    0.16450    0.79230    1.000
    S103     S        0.42500    0.15410    0.78680    1.000
    C761     C        0.42730    0.20180    0.81410    1.000
    H861     H        0.40210    0.21600    0.81090    1.000
    H862     H        0.44900    0.21800    0.80340    1.000
    H863     H        0.43210    0.19660    0.84230    1.000
    C762     C        0.46240    0.07520    0.80070    1.000
    H864     H        0.43700    0.07950    0.78650    1.000
    H865     H        0.47330    0.04940    0.79170    1.000
    C763     C        0.43070    0.02170    0.86170    1.000
    H866     H        0.42470    0.01890    0.89010    1.000
    H867     H        0.44990    0.00130    0.85380    1.000
    H868     H        0.40620    0.01850    0.84630    1.000
    C764     C        0.53230    0.10050    0.80430    1.000
    H869     H        0.54840    0.12360    0.79560    1.000
    H870     H        0.53150    0.10090    0.83370    1.000
    C765     C        0.58560    0.07350    0.74530    1.000
    H871     H        0.57980    0.10170    0.74120    1.000
    H872     H        0.61420    0.07000    0.74970    1.000
    H873     H        0.57750    0.05840    0.72170    1.000
    O156     O        0.50240    0.94550    0.60780    1.000
    O157     O        0.49900    0.89660    0.55990    1.000
    O158     O        0.50410    0.06000    0.60360    1.000
    O159     O        0.50490    0.10630    0.55450    1.000
    S104     S        0.48690    0.90110    0.80740    1.000
    S105     S        0.58470    0.95580    0.85074    1.000
    S106     S        0.65120    0.90350    0.76900    1.000
    S107     S        0.45200    0.07160    0.85230    1.000
    S108     S        0.55810    0.05530    0.78880    1.000
    Zr18     Zr       0.50180    0.00169    0.57346    1.000
    O160     O        0.53010    0.03200    0.52950    1.000
    Hg18     Hg       0.61081    0.15763    0.88376    1.000
    Cl35     Cl       0.56020    0.19730    0.85070    1.000
    Cl36     Cl       0.65650    0.11870    0.84920    1.000
    C766     C        0.68900    0.89300    0.73000    1.000
    H874     H        0.70780    0.91490    0.72910    1.000
    H875     H        0.67560    0.88980    0.70470    1.000
    H876     H        0.70280    0.86830    0.73710    1.000
    C767     C        0.51000    0.12530    0.62270    1.000
    C768     C        0.50240    0.11610    0.66310    1.000
    H877     H        0.49520    0.08990    0.67090    1.000
    C769     C        0.50570    0.14550    0.69010    1.000
    C770     C        0.51650    0.18430    0.67740    1.000
    C771     C        0.52380    0.19230    0.63760    1.000
    H878     H        0.53100    0.21850    0.62980    1.000
    C772     C        0.52060    0.16270    0.60900    1.000
    H879     H        0.52550    0.16780    0.58160    1.000
    C773     C        0.51980    0.21470    0.70610    1.000
    C774     C        0.52130    0.23720    0.73410    1.000
    O161     O        0.49990    0.14350    0.73000    1.000
    H880     H        0.46470    0.09580    0.73150    1.000
    H881     H        0.51150    0.08550    0.73270    1.000
    O162     O        0.54430    0.04090    0.53770    1.000
    H882     H        0.56250    0.05810    0.55380    1.000
    C775     C        0.99720    0.90820    0.90530    1.000
    C776     C        0.98650    0.87810    0.87450    1.000
    C777     C        0.97290    0.88940    0.83620    1.000
    H883     H        0.96990    0.91670    0.82980    1.000
    C778     C        0.96420    0.86130    0.80870    1.000
    C779     C        0.96930    0.82020    0.81740    1.000
    C780     C        0.98400    0.81050    0.85500    1.000
    H884     H        0.98990    0.78340    0.86050    1.000
    C781     C        0.99050    0.83830    0.88470    1.000
    H885     H        0.99740    0.83040    0.91090    1.000
    C782     C        0.96270    0.79130    0.78810    1.000
    C783     C        0.96070    0.76490    0.76380    1.000
    O163     O        0.94920    0.86770    0.77150    1.000
    C784     C        0.94430    0.90760    0.75730    1.000
    H886     H        0.92360    0.92140    0.77300    1.000
    H887     H        0.96950    0.92250    0.76000    1.000
    C785     C        0.93220    0.90570    0.71480    1.000
    C786     C        0.96310    0.88210    0.69010    1.000
    H888     H        0.96320    0.85420    0.69950    1.000
    H889     H        0.95450    0.88200    0.66200    1.000
    C787     C        0.03610    0.87110    0.73140    1.000
    H890     H        0.03170    0.88370    0.75730    1.000
    H891     H        0.02440    0.84450    0.73140    1.000
    H892     H        0.06480    0.86910    0.72640    1.000
    C788     C        0.92770    0.94880    0.70040    1.000
    H893     H        0.90690    0.96180    0.71670    1.000
    H894     H        0.95300    0.96290    0.70570    1.000
    C789     C        0.96460    0.96470    0.62660    1.000
    H895     H        0.97690    0.98800    0.63900    1.000
    H896     H        0.98160    0.94140    0.63080    1.000
    H897     H        0.96150    0.96940    0.59810    1.000
    C790     C        0.89370    0.88240    0.70740    1.000
    H898     H        0.88920    0.88090    0.67840    1.000
    H899     H        0.89740    0.85490    0.71730    1.000
    C791     C        0.84500    0.87000    0.77420    1.000
    H900     H        0.82140    0.87770    0.79020    1.000
    H901     H        0.86860    0.87210    0.79050    1.000
    H902     H        0.84130    0.84270    0.76500    1.000
    C792     C        0.99260    0.09560    0.91000    1.000
    C793     C        0.98280    0.12700    0.87950    1.000
    C794     C        0.98620    0.11630    0.83870    1.000
    H903     H        0.99290    0.08970    0.83180    1.000
    C795     C        0.98020    0.14350    0.80990    1.000
    C796     C        0.96460    0.18160    0.81980    1.000
    C797     C        0.96020    0.19120    0.85980    1.000
    H904     H        0.94930    0.21630    0.86670    1.000
    C798     C        0.97120    0.16530    0.89020    1.000
    H905     H        0.97090    0.17350    0.91720    1.000
    C799     C        0.95750    0.21050    0.79040    1.000
    C800     C        0.95540    0.23590    0.76480    1.000
    O164     O        0.98370    0.13590    0.77020    1.000
    C801     C        0.00920    0.10430    0.75800    1.000
    H906     H        0.03620    0.10790    0.76900    1.000
    H907     H        0.99860    0.07840    0.76700    1.000
    C802     C        0.00990    0.10660    0.71090    1.000
    C803     C        0.02670    0.14280    0.69830    1.000
    H908     H        0.02600    0.14330    0.66890    1.000
    H909     H        0.00920    0.16450    0.70770    1.000
    S109     S        0.07500    0.15410    0.71320    1.000
    C804     C        0.07270    0.20180    0.68590    1.000
    H910     H        0.09790    0.21600    0.68910    1.000
    H911     H        0.05100    0.21800    0.69660    1.000
    H912     H        0.06790    0.19660    0.65770    1.000
    C805     C        0.03760    0.07520    0.69930    1.000
    H913     H        0.06300    0.07950    0.71350    1.000
    H914     H        0.02670    0.04940    0.70830    1.000
    C806     C        0.06930    0.02170    0.63830    1.000
    H915     H        0.07530    0.01890    0.60990    1.000
    H916     H        0.05010    0.00130    0.64620    1.000
    H917     H        0.09380    0.01850    0.65370    1.000
    C807     C        0.96770    0.10050    0.69570    1.000
    H918     H        0.95160    0.12360    0.70440    1.000
    H919     H        0.96850    0.10090    0.66630    1.000
    C808     C        0.91440    0.07350    0.75470    1.000
    H920     H        0.92020    0.10170    0.75880    1.000
    H921     H        0.88580    0.07000    0.75030    1.000
    H922     H        0.92250    0.05840    0.77830    1.000
    O165     O        0.99760    0.94550    0.89220    1.000
    O166     O        0.00100    0.89660    0.94010    1.000
    O167     O        0.99590    0.06000    0.89640    1.000
    O168     O        0.99510    0.10630    0.94550    1.000
    S110     S        0.01310    0.90110    0.69260    1.000
    S111     S        0.91530    0.95580    0.64926    1.000
    S112     S        0.84880    0.90350    0.73100    1.000
    S113     S        0.04800    0.07160    0.64770    1.000
    S114     S        0.94190    0.05530    0.71120    1.000
    Zr19     Zr       0.99820    0.00169    0.92654    1.000
    O169     O        0.96990    0.03200    0.97050    1.000
    Hg19     Hg       0.88919    0.15763    0.61624    1.000
    Cl37     Cl       0.93980    0.19730    0.64930    1.000
    Cl38     Cl       0.84350    0.11870    0.65080    1.000
    C809     C        0.81100    0.89300    0.77000    1.000
    H923     H        0.79220    0.91490    0.77090    1.000
    H924     H        0.82440    0.88980    0.79530    1.000
    H925     H        0.79720    0.86830    0.76290    1.000
    C810     C        0.99000    0.12530    0.87730    1.000
    C811     C        0.99760    0.11610    0.83690    1.000
    H926     H        0.00480    0.08990    0.82910    1.000
    C812     C        0.99430    0.14550    0.80990    1.000
    C813     C        0.98350    0.18430    0.82260    1.000
    C814     C        0.97620    0.19230    0.86240    1.000
    H927     H        0.96900    0.21850    0.87020    1.000
    C815     C        0.97940    0.16270    0.89100    1.000
    H928     H        0.97450    0.16780    0.91840    1.000
    C816     C        0.98020    0.21470    0.79390    1.000
    C817     C        0.97870    0.23720    0.76590    1.000
    O170     O        0.00010    0.14350    0.77000    1.000
    H929     H        0.03530    0.09580    0.76850    1.000
    H930     H        0.98850    0.08550    0.76730    1.000
    O171     O        0.95570    0.04090    0.96230    1.000
    H931     H        0.93750    0.05810    0.94620    1.000
    C818     C        0.99720    0.59180    0.59470    1.000
    C819     C        0.98650    0.62190    0.62550    1.000
    C820     C        0.97290    0.61060    0.66380    1.000
    H932     H        0.96990    0.58330    0.67020    1.000
    C821     C        0.96420    0.63870    0.69130    1.000
    C822     C        0.96930    0.67980    0.68260    1.000
    C823     C        0.98400    0.68950    0.64500    1.000
    H933     H        0.98990    0.71660    0.63950    1.000
    C824     C        0.99050    0.66170    0.61530    1.000
    H934     H        0.99740    0.66960    0.58910    1.000
    C825     C        0.96270    0.70870    0.71190    1.000
    C826     C        0.96070    0.73510    0.73620    1.000
    O172     O        0.94920    0.63230    0.72850    1.000
    C827     C        0.94430    0.59240    0.74270    1.000
    H935     H        0.92360    0.57860    0.72700    1.000
    H936     H        0.96950    0.57750    0.74000    1.000
    C828     C        0.93220    0.59430    0.78520    1.000
    C829     C        0.96310    0.61790    0.80990    1.000
    H937     H        0.96320    0.64580    0.80050    1.000
    H938     H        0.95450    0.61800    0.83800    1.000
    C830     C        0.03610    0.62890    0.76860    1.000
    H939     H        0.03170    0.61630    0.74270    1.000
    H940     H        0.02440    0.65550    0.76860    1.000
    H941     H        0.06480    0.63090    0.77360    1.000
    C831     C        0.92770    0.55120    0.79960    1.000
    H942     H        0.90690    0.53820    0.78330    1.000
    H943     H        0.95300    0.53710    0.79430    1.000
    C832     C        0.96460    0.53530    0.87340    1.000
    H944     H        0.97690    0.51200    0.86100    1.000
    H945     H        0.98160    0.55860    0.86920    1.000
    H946     H        0.96150    0.53060    0.90190    1.000
    C833     C        0.89370    0.61760    0.79260    1.000
    H947     H        0.88920    0.61910    0.82160    1.000
    H948     H        0.89740    0.64510    0.78270    1.000
    C834     C        0.84500    0.63000    0.72580    1.000
    H949     H        0.82140    0.62230    0.70980    1.000
    H950     H        0.86860    0.62790    0.70950    1.000
    H951     H        0.84130    0.65730    0.73500    1.000
    C835     C        0.99260    0.40440    0.59000    1.000
    C836     C        0.98280    0.37300    0.62050    1.000
    C837     C        0.98620    0.38370    0.66130    1.000
    H952     H        0.99290    0.41030    0.66820    1.000
    C838     C        0.98020    0.35650    0.69010    1.000
    C839     C        0.96460    0.31840    0.68020    1.000
    C840     C        0.96020    0.30880    0.64020    1.000
    H953     H        0.94930    0.28370    0.63330    1.000
    C841     C        0.97120    0.33470    0.60980    1.000
    H954     H        0.97090    0.32650    0.58280    1.000
    C842     C        0.95750    0.28950    0.70960    1.000
    C843     C        0.95540    0.26410    0.73520    1.000
    O173     O        0.98370    0.36410    0.72980    1.000
    C844     C        0.00920    0.39570    0.74200    1.000
    H955     H        0.03620    0.39210    0.73100    1.000
    H956     H        0.99860    0.42160    0.73300    1.000
    C845     C        0.00990    0.39340    0.78910    1.000
    C846     C        0.02670    0.35720    0.80170    1.000
    H957     H        0.02600    0.35670    0.83110    1.000
    H958     H        0.00920    0.33550    0.79230    1.000
    S115     S        0.07500    0.34590    0.78680    1.000
    C847     C        0.07270    0.29820    0.81410    1.000
    H959     H        0.09790    0.28400    0.81090    1.000
    H960     H        0.05100    0.28200    0.80340    1.000
    H961     H        0.06790    0.30340    0.84230    1.000
    C848     C        0.03760    0.42480    0.80070    1.000
    H962     H        0.06300    0.42050    0.78650    1.000
    H963     H        0.02670    0.45060    0.79170    1.000
    C849     C        0.06930    0.47830    0.86170    1.000
    H964     H        0.07530    0.48110    0.89010    1.000
    H965     H        0.05010    0.49870    0.85380    1.000
    H966     H        0.09380    0.48150    0.84630    1.000
    C850     C        0.96770    0.39950    0.80430    1.000
    H967     H        0.95160    0.37640    0.79560    1.000
    H968     H        0.96850    0.39910    0.83370    1.000
    C851     C        0.91440    0.42650    0.74530    1.000
    H969     H        0.92020    0.39830    0.74120    1.000
    H970     H        0.88580    0.43000    0.74970    1.000
    H971     H        0.92250    0.44160    0.72170    1.000
    O174     O        0.99760    0.55450    0.60780    1.000
    O175     O        0.00100    0.60340    0.55990    1.000
    O176     O        0.99590    0.44000    0.60360    1.000
    O177     O        0.99510    0.39370    0.55450    1.000
    S116     S        0.01310    0.59890    0.80740    1.000
    S117     S        0.91530    0.54420    0.85074    1.000
    S118     S        0.84880    0.59650    0.76900    1.000
    S119     S        0.04800    0.42840    0.85230    1.000
    S120     S        0.94190    0.44470    0.78880    1.000
    Zr20     Zr       0.99820    0.49831    0.57346    1.000
    O178     O        0.96990    0.46800    0.52950    1.000
    Hg20     Hg       0.88919    0.34237    0.88376    1.000
    Cl39     Cl       0.93980    0.30270    0.85070    1.000
    Cl40     Cl       0.84350    0.38130    0.84920    1.000
    C852     C        0.81100    0.60700    0.73000    1.000
    H972     H        0.79220    0.58510    0.72910    1.000
    H973     H        0.82440    0.61020    0.70470    1.000
    H974     H        0.79720    0.63170    0.73710    1.000
    C853     C        0.99000    0.37470    0.62270    1.000
    C854     C        0.99760    0.38390    0.66310    1.000
    H975     H        0.00480    0.41010    0.67090    1.000
    C855     C        0.99430    0.35450    0.69010    1.000
    C856     C        0.98350    0.31570    0.67740    1.000
    C857     C        0.97620    0.30770    0.63760    1.000
    H976     H        0.96900    0.28150    0.62980    1.000
    C858     C        0.97940    0.33730    0.60900    1.000
    H977     H        0.97450    0.33220    0.58160    1.000
    C859     C        0.98020    0.28530    0.70610    1.000
    C860     C        0.97870    0.26280    0.73410    1.000
    O179     O        0.00010    0.35650    0.73000    1.000
    H978     H        0.03530    0.40420    0.73150    1.000
    H979     H        0.98850    0.41450    0.73270    1.000
    O180     O        0.95570    0.45910    0.53770    1.000
    H980     H        0.93750    0.44190    0.55380    1.000
    C861     C        0.90530    0.50280    0.59180    1.000
    C862     C        0.87450    0.51350    0.62190    1.000
    C863     C        0.83620    0.52710    0.61060    1.000
    H981     H        0.82980    0.53010    0.58330    1.000
    C864     C        0.80870    0.53580    0.63870    1.000
    C865     C        0.81740    0.53070    0.67980    1.000
    C866     C        0.85500    0.51600    0.68950    1.000
    H982     H        0.86050    0.51010    0.71660    1.000
    C867     C        0.88470    0.50950    0.66170    1.000
    H983     H        0.91090    0.50260    0.66960    1.000
    C868     C        0.78810    0.53730    0.70870    1.000
    C869     C        0.76380    0.53930    0.73510    1.000
    O181     O        0.77150    0.55080    0.63230    1.000
    C870     C        0.75730    0.55570    0.59240    1.000
    H984     H        0.77300    0.57640    0.57860    1.000
    H985     H        0.76000    0.53050    0.57750    1.000
    C871     C        0.71480    0.56780    0.59430    1.000
    C872     C        0.69010    0.53690    0.61790    1.000
    H986     H        0.69950    0.53680    0.64580    1.000
    H987     H        0.66200    0.54550    0.61800    1.000
    C873     C        0.73140    0.46390    0.62890    1.000
    H988     H        0.75730    0.46830    0.61630    1.000
    H989     H        0.73140    0.47560    0.65550    1.000
    H990     H        0.72640    0.43520    0.63090    1.000
    C874     C        0.70040    0.57230    0.55120    1.000
    H991     H        0.71670    0.59310    0.53820    1.000
    H992     H        0.70570    0.54700    0.53710    1.000
    C875     C        0.62660    0.53540    0.53530    1.000
    H993     H        0.63900    0.52310    0.51200    1.000
    H994     H        0.63080    0.51840    0.55860    1.000
    H995     H        0.59810    0.53850    0.53060    1.000
    C876     C        0.70740    0.60630    0.61760    1.000
    H996     H        0.67840    0.61080    0.61910    1.000
    H997     H        0.71730    0.60260    0.64510    1.000
    C877     C        0.77420    0.65500    0.63000    1.000
    H998     H        0.79020    0.67860    0.62230    1.000
    H999     H        0.79050    0.63140    0.62790    1.000
    H1000    H        0.76500    0.65870    0.65730    1.000
    C878     C        0.91000    0.50740    0.40440    1.000
    C879     C        0.87950    0.51720    0.37300    1.000
    C880     C        0.83870    0.51380    0.38370    1.000
    H1001    H        0.83180    0.50710    0.41030    1.000
    C881     C        0.80990    0.51980    0.35650    1.000
    C882     C        0.81980    0.53540    0.31840    1.000
    C883     C        0.85980    0.53980    0.30880    1.000
    H1002    H        0.86670    0.55070    0.28370    1.000
    C884     C        0.89020    0.52880    0.33470    1.000
    H1003    H        0.91720    0.52910    0.32650    1.000
    C885     C        0.79040    0.54250    0.28950    1.000
    C886     C        0.76480    0.54460    0.26410    1.000
    O182     O        0.77020    0.51630    0.36410    1.000
    C887     C        0.75800    0.49080    0.39570    1.000
    H1004    H        0.76900    0.46380    0.39210    1.000
    H1005    H        0.76700    0.50140    0.42160    1.000
    C888     C        0.71090    0.49010    0.39340    1.000
    C889     C        0.69830    0.47330    0.35720    1.000
    H1006    H        0.66890    0.47400    0.35670    1.000
    H1007    H        0.70770    0.49080    0.33550    1.000
    S121     S        0.71320    0.42500    0.34590    1.000
    C890     C        0.68590    0.42730    0.29820    1.000
    H1008    H        0.68910    0.40210    0.28400    1.000
    H1009    H        0.69660    0.44900    0.28200    1.000
    H1010    H        0.65770    0.43210    0.30340    1.000
    C891     C        0.69930    0.46240    0.42480    1.000
    H1011    H        0.71350    0.43700    0.42050    1.000
    H1012    H        0.70830    0.47330    0.45060    1.000
    C892     C        0.63830    0.43070    0.47830    1.000
    H1013    H        0.60990    0.42470    0.48110    1.000
    H1014    H        0.64620    0.44990    0.49870    1.000
    H1015    H        0.65370    0.40620    0.48150    1.000
    C893     C        0.69570    0.53230    0.39950    1.000
    H1016    H        0.70440    0.54840    0.37640    1.000
    H1017    H        0.66630    0.53150    0.39910    1.000
    C894     C        0.75470    0.58560    0.42650    1.000
    H1018    H        0.75880    0.57980    0.39830    1.000
    H1019    H        0.75030    0.61420    0.43000    1.000
    H1020    H        0.77830    0.57750    0.44160    1.000
    O183     O        0.89220    0.50240    0.55450    1.000
    O184     O        0.94010    0.49900    0.60340    1.000
    O185     O        0.89640    0.50410    0.44000    1.000
    O186     O        0.94550    0.50490    0.39370    1.000
    S122     S        0.69260    0.48690    0.59890    1.000
    S123     S        0.64926    0.58470    0.54420    1.000
    S124     S        0.73100    0.65120    0.59650    1.000
    S125     S        0.64770    0.45200    0.42840    1.000
    S126     S        0.71120    0.55810    0.44470    1.000
    Zr21     Zr       0.92654    0.50180    0.49831    1.000
    O187     O        0.97050    0.53010    0.46800    1.000
    Hg21     Hg       0.61624    0.61081    0.34237    1.000
    Cl41     Cl       0.64930    0.56020    0.30270    1.000
    Cl42     Cl       0.65080    0.65650    0.38130    1.000
    C895     C        0.77000    0.68900    0.60700    1.000
    H1021    H        0.77090    0.70780    0.58510    1.000
    H1022    H        0.79530    0.67560    0.61020    1.000
    H1023    H        0.76290    0.70280    0.63170    1.000
    C896     C        0.87730    0.51000    0.37470    1.000
    C897     C        0.83690    0.50240    0.38390    1.000
    H1024    H        0.82910    0.49520    0.41010    1.000
    C898     C        0.80990    0.50570    0.35450    1.000
    C899     C        0.82260    0.51650    0.31570    1.000
    C900     C        0.86240    0.52380    0.30770    1.000
    H1025    H        0.87020    0.53100    0.28150    1.000
    C901     C        0.89100    0.52060    0.33730    1.000
    H1026    H        0.91840    0.52550    0.33220    1.000
    C902     C        0.79390    0.51980    0.28530    1.000
    C903     C        0.76590    0.52130    0.26280    1.000
    O188     O        0.77000    0.49990    0.35650    1.000
    H1027    H        0.76850    0.46470    0.40420    1.000
    H1028    H        0.76730    0.51150    0.41450    1.000
    O189     O        0.96230    0.54430    0.45910    1.000
    H1029    H        0.94620    0.56250    0.44190    1.000
    C904     C        0.59470    0.50280    0.90820    1.000
    C905     C        0.62550    0.51350    0.87810    1.000
    C906     C        0.66380    0.52710    0.88940    1.000
    H1030    H        0.67020    0.53010    0.91670    1.000
    C907     C        0.69130    0.53580    0.86130    1.000
    C908     C        0.68260    0.53070    0.82020    1.000
    C909     C        0.64500    0.51600    0.81050    1.000
    H1031    H        0.63950    0.51010    0.78340    1.000
    C910     C        0.61530    0.50950    0.83830    1.000
    H1032    H        0.58910    0.50260    0.83040    1.000
    C911     C        0.71190    0.53730    0.79130    1.000
    C912     C        0.73620    0.53930    0.76490    1.000
    O190     O        0.72850    0.55080    0.86770    1.000
    C913     C        0.74270    0.55570    0.90760    1.000
    H1033    H        0.72700    0.57640    0.92140    1.000
    H1034    H        0.74000    0.53050    0.92250    1.000
    C914     C        0.78520    0.56780    0.90570    1.000
    C915     C        0.80990    0.53690    0.88210    1.000
    H1035    H        0.80050    0.53680    0.85420    1.000
    H1036    H        0.83800    0.54550    0.88200    1.000
    C916     C        0.76860    0.46390    0.87110    1.000
    H1037    H        0.74270    0.46830    0.88370    1.000
    H1038    H        0.76860    0.47560    0.84450    1.000
    H1039    H        0.77360    0.43520    0.86910    1.000
    C917     C        0.79960    0.57230    0.94880    1.000
    H1040    H        0.78330    0.59310    0.96180    1.000
    H1041    H        0.79430    0.54700    0.96290    1.000
    C918     C        0.87340    0.53540    0.96470    1.000
    H1042    H        0.86100    0.52310    0.98800    1.000
    H1043    H        0.86920    0.51840    0.94140    1.000
    H1044    H        0.90190    0.53850    0.96940    1.000
    C919     C        0.79260    0.60630    0.88240    1.000
    H1045    H        0.82160    0.61080    0.88090    1.000
    H1046    H        0.78270    0.60260    0.85490    1.000
    C920     C        0.72580    0.65500    0.87000    1.000
    H1047    H        0.70980    0.67860    0.87770    1.000
    H1048    H        0.70950    0.63140    0.87210    1.000
    H1049    H        0.73500    0.65870    0.84270    1.000
    C921     C        0.59000    0.50740    0.09560    1.000
    C922     C        0.62050    0.51720    0.12700    1.000
    C923     C        0.66130    0.51380    0.11630    1.000
    H1050    H        0.66820    0.50710    0.08970    1.000
    C924     C        0.69010    0.51980    0.14350    1.000
    C925     C        0.68020    0.53540    0.18160    1.000
    C926     C        0.64020    0.53980    0.19120    1.000
    H1051    H        0.63330    0.55070    0.21630    1.000
    C927     C        0.60980    0.52880    0.16530    1.000
    H1052    H        0.58280    0.52910    0.17350    1.000
    C928     C        0.70960    0.54250    0.21050    1.000
    C929     C        0.73520    0.54460    0.23590    1.000
    O191     O        0.72980    0.51630    0.13590    1.000
    C930     C        0.74200    0.49080    0.10430    1.000
    H1053    H        0.73100    0.46380    0.10790    1.000
    H1054    H        0.73300    0.50140    0.07840    1.000
    C931     C        0.78910    0.49010    0.10660    1.000
    C932     C        0.80170    0.47330    0.14280    1.000
    H1055    H        0.83110    0.47400    0.14330    1.000
    H1056    H        0.79230    0.49080    0.16450    1.000
    S127     S        0.78680    0.42500    0.15410    1.000
    C933     C        0.81410    0.42730    0.20180    1.000
    H1057    H        0.81090    0.40210    0.21600    1.000
    H1058    H        0.80340    0.44900    0.21800    1.000
    H1059    H        0.84230    0.43210    0.19660    1.000
    C934     C        0.80070    0.46240    0.07520    1.000
    H1060    H        0.78650    0.43700    0.07950    1.000
    H1061    H        0.79170    0.47330    0.04940    1.000
    C935     C        0.86170    0.43070    0.02170    1.000
    H1062    H        0.89010    0.42470    0.01890    1.000
    H1063    H        0.85380    0.44990    0.00130    1.000
    H1064    H        0.84630    0.40620    0.01850    1.000
    C936     C        0.80430    0.53230    0.10050    1.000
    H1065    H        0.79560    0.54840    0.12360    1.000
    H1066    H        0.83370    0.53150    0.10090    1.000
    C937     C        0.74530    0.58560    0.07350    1.000
    H1067    H        0.74120    0.57980    0.10170    1.000
    H1068    H        0.74970    0.61420    0.07000    1.000
    H1069    H        0.72170    0.57750    0.05840    1.000
    O192     O        0.60780    0.50240    0.94550    1.000
    O193     O        0.55990    0.49900    0.89660    1.000
    O194     O        0.60360    0.50410    0.06000    1.000
    O195     O        0.55450    0.50490    0.10630    1.000
    S128     S        0.80740    0.48690    0.90110    1.000
    S129     S        0.85074    0.58470    0.95580    1.000
    S130     S        0.76900    0.65120    0.90350    1.000
    S131     S        0.85230    0.45200    0.07160    1.000
    S132     S        0.78880    0.55810    0.05530    1.000
    Zr22     Zr       0.57346    0.50180    0.00169    1.000
    O196     O        0.52950    0.53010    0.03200    1.000
    Hg22     Hg       0.88376    0.61081    0.15763    1.000
    Cl43     Cl       0.85070    0.56020    0.19730    1.000
    Cl44     Cl       0.84920    0.65650    0.11870    1.000
    C938     C        0.73000    0.68900    0.89300    1.000
    H1070    H        0.72910    0.70780    0.91490    1.000
    H1071    H        0.70470    0.67560    0.88980    1.000
    H1072    H        0.73710    0.70280    0.86830    1.000
    C939     C        0.62270    0.51000    0.12530    1.000
    C940     C        0.66310    0.50240    0.11610    1.000
    H1073    H        0.67090    0.49520    0.08990    1.000
    C941     C        0.69010    0.50570    0.14550    1.000
    C942     C        0.67740    0.51650    0.18430    1.000
    C943     C        0.63760    0.52380    0.19230    1.000
    H1074    H        0.62980    0.53100    0.21850    1.000
    C944     C        0.60900    0.52060    0.16270    1.000
    H1075    H        0.58160    0.52550    0.16780    1.000
    C945     C        0.70610    0.51980    0.21470    1.000
    C946     C        0.73410    0.52130    0.23720    1.000
    O197     O        0.73000    0.49990    0.14350    1.000
    H1076    H        0.73150    0.46470    0.09580    1.000
    H1077    H        0.73270    0.51150    0.08550    1.000
    O198     O        0.53770    0.54430    0.04090    1.000
    H1078    H        0.55380    0.56250    0.05810    1.000
    C947     C        0.90530    0.99720    0.90820    1.000
    C948     C        0.87450    0.98650    0.87810    1.000
    C949     C        0.83620    0.97290    0.88940    1.000
    H1079    H        0.82980    0.96990    0.91670    1.000
    C950     C        0.80870    0.96420    0.86130    1.000
    C951     C        0.81740    0.96930    0.82020    1.000
    C952     C        0.85500    0.98400    0.81050    1.000
    H1080    H        0.86050    0.98990    0.78340    1.000
    C953     C        0.88470    0.99050    0.83830    1.000
    H1081    H        0.91090    0.99740    0.83040    1.000
    C954     C        0.78810    0.96270    0.79130    1.000
    C955     C        0.76380    0.96070    0.76490    1.000
    O199     O        0.77150    0.94920    0.86770    1.000
    C956     C        0.75730    0.94430    0.90760    1.000
    H1082    H        0.77300    0.92360    0.92140    1.000
    H1083    H        0.76000    0.96950    0.92250    1.000
    C957     C        0.71480    0.93220    0.90570    1.000
    C958     C        0.69010    0.96310    0.88210    1.000
    H1084    H        0.69950    0.96320    0.85420    1.000
    H1085    H        0.66200    0.95450    0.88200    1.000
    C959     C        0.73140    0.03610    0.87110    1.000
    H1086    H        0.75730    0.03170    0.88370    1.000
    H1087    H        0.73140    0.02440    0.84450    1.000
    H1088    H        0.72640    0.06480    0.86910    1.000
    C960     C        0.70040    0.92770    0.94880    1.000
    H1089    H        0.71670    0.90690    0.96180    1.000
    H1090    H        0.70570    0.95300    0.96290    1.000
    C961     C        0.62660    0.96460    0.96470    1.000
    H1091    H        0.63900    0.97690    0.98800    1.000
    H1092    H        0.63080    0.98160    0.94140    1.000
    H1093    H        0.59810    0.96150    0.96940    1.000
    C962     C        0.70740    0.89370    0.88240    1.000
    H1094    H        0.67840    0.88920    0.88090    1.000
    H1095    H        0.71730    0.89740    0.85490    1.000
    C963     C        0.77420    0.84500    0.87000    1.000
    H1096    H        0.79020    0.82140    0.87770    1.000
    H1097    H        0.79050    0.86860    0.87210    1.000
    H1098    H        0.76500    0.84130    0.84270    1.000
    C964     C        0.91000    0.99260    0.09560    1.000
    C965     C        0.87950    0.98280    0.12700    1.000
    C966     C        0.83870    0.98620    0.11630    1.000
    H1099    H        0.83180    0.99290    0.08970    1.000
    C967     C        0.80990    0.98020    0.14350    1.000
    C968     C        0.81980    0.96460    0.18160    1.000
    C969     C        0.85980    0.96020    0.19120    1.000
    H1100    H        0.86670    0.94930    0.21630    1.000
    C970     C        0.89020    0.97120    0.16530    1.000
    H1101    H        0.91720    0.97090    0.17350    1.000
    C971     C        0.79040    0.95750    0.21050    1.000
    C972     C        0.76480    0.95540    0.23590    1.000
    O200     O        0.77020    0.98370    0.13590    1.000
    C973     C        0.75800    0.00920    0.10430    1.000
    H1102    H        0.76900    0.03620    0.10790    1.000
    H1103    H        0.76700    0.99860    0.07840    1.000
    C974     C        0.71090    0.00990    0.10660    1.000
    C975     C        0.69830    0.02670    0.14280    1.000
    H1104    H        0.66890    0.02600    0.14330    1.000
    H1105    H        0.70770    0.00920    0.16450    1.000
    S133     S        0.71320    0.07500    0.15410    1.000
    C976     C        0.68590    0.07270    0.20180    1.000
    H1106    H        0.68910    0.09790    0.21600    1.000
    H1107    H        0.69660    0.05100    0.21800    1.000
    H1108    H        0.65770    0.06790    0.19660    1.000
    C977     C        0.69930    0.03760    0.07520    1.000
    H1109    H        0.71350    0.06300    0.07950    1.000
    H1110    H        0.70830    0.02670    0.04940    1.000
    C978     C        0.63830    0.06930    0.02170    1.000
    H1111    H        0.60990    0.07530    0.01890    1.000
    H1112    H        0.64620    0.05010    0.00130    1.000
    H1113    H        0.65370    0.09380    0.01850    1.000
    C979     C        0.69570    0.96770    0.10050    1.000
    H1114    H        0.70440    0.95160    0.12360    1.000
    H1115    H        0.66630    0.96850    0.10090    1.000
    C980     C        0.75470    0.91440    0.07350    1.000
    H1116    H        0.75880    0.92020    0.10170    1.000
    H1117    H        0.75030    0.88580    0.07000    1.000
    H1118    H        0.77830    0.92250    0.05840    1.000
    O201     O        0.89220    0.99760    0.94550    1.000
    O202     O        0.94010    0.00100    0.89660    1.000
    O203     O        0.89640    0.99590    0.06000    1.000
    O204     O        0.94550    0.99510    0.10630    1.000
    S134     S        0.69260    0.01310    0.90110    1.000
    S135     S        0.64926    0.91530    0.95580    1.000
    S136     S        0.73100    0.84880    0.90350    1.000
    S137     S        0.64770    0.04800    0.07160    1.000
    S138     S        0.71120    0.94190    0.05530    1.000
    Zr23     Zr       0.92654    0.99820    0.00169    1.000
    O205     O        0.97050    0.96990    0.03200    1.000
    Hg23     Hg       0.61624    0.88919    0.15763    1.000
    Cl45     Cl       0.64930    0.93980    0.19730    1.000
    Cl46     Cl       0.65080    0.84350    0.11870    1.000
    C981     C        0.77000    0.81100    0.89300    1.000
    H1119    H        0.77090    0.79220    0.91490    1.000
    H1120    H        0.79530    0.82440    0.88980    1.000
    H1121    H        0.76290    0.79720    0.86830    1.000
    C982     C        0.87730    0.99000    0.12530    1.000
    C983     C        0.83690    0.99760    0.11610    1.000
    H1122    H        0.82910    0.00480    0.08990    1.000
    C984     C        0.80990    0.99430    0.14550    1.000
    C985     C        0.82260    0.98350    0.18430    1.000
    C986     C        0.86240    0.97620    0.19230    1.000
    H1123    H        0.87020    0.96900    0.21850    1.000
    C987     C        0.89100    0.97940    0.16270    1.000
    H1124    H        0.91840    0.97450    0.16780    1.000
    C988     C        0.79390    0.98020    0.21470    1.000
    C989     C        0.76590    0.97870    0.23720    1.000
    O206     O        0.77000    0.00010    0.14350    1.000
    H1125    H        0.76850    0.03530    0.09580    1.000
    H1126    H        0.76730    0.98850    0.08550    1.000
    O207     O        0.96230    0.95570    0.04090    1.000
    H1127    H        0.94620    0.93750    0.05810    1.000
    C990     C        0.59470    0.99720    0.59180    1.000
    C991     C        0.62550    0.98650    0.62190    1.000
    C992     C        0.66380    0.97290    0.61060    1.000
    H1128    H        0.67020    0.96990    0.58330    1.000
    C993     C        0.69130    0.96420    0.63870    1.000
    C994     C        0.68260    0.96930    0.67980    1.000
    C995     C        0.64500    0.98400    0.68950    1.000
    H1129    H        0.63950    0.98990    0.71660    1.000
    C996     C        0.61530    0.99050    0.66170    1.000
    H1130    H        0.58910    0.99740    0.66960    1.000
    C997     C        0.71190    0.96270    0.70870    1.000
    C998     C        0.73620    0.96070    0.73510    1.000
    O208     O        0.72850    0.94920    0.63230    1.000
    C999     C        0.74270    0.94430    0.59240    1.000
    H1131    H        0.72700    0.92360    0.57860    1.000
    H1132    H        0.74000    0.96950    0.57750    1.000
    C1000    C        0.78520    0.93220    0.59430    1.000
    C1001    C        0.80990    0.96310    0.61790    1.000
    H1133    H        0.80050    0.96320    0.64580    1.000
    H1134    H        0.83800    0.95450    0.61800    1.000
    C1002    C        0.76860    0.03610    0.62890    1.000
    H1135    H        0.74270    0.03170    0.61630    1.000
    H1136    H        0.76860    0.02440    0.65550    1.000
    H1137    H        0.77360    0.06480    0.63090    1.000
    C1003    C        0.79960    0.92770    0.55120    1.000
    H1138    H        0.78330    0.90690    0.53820    1.000
    H1139    H        0.79430    0.95300    0.53710    1.000
    C1004    C        0.87340    0.96460    0.53530    1.000
    H1140    H        0.86100    0.97690    0.51200    1.000
    H1141    H        0.86920    0.98160    0.55860    1.000
    H1142    H        0.90190    0.96150    0.53060    1.000
    C1005    C        0.79260    0.89370    0.61760    1.000
    H1143    H        0.82160    0.88920    0.61910    1.000
    H1144    H        0.78270    0.89740    0.64510    1.000
    C1006    C        0.72580    0.84500    0.63000    1.000
    H1145    H        0.70980    0.82140    0.62230    1.000
    H1146    H        0.70950    0.86860    0.62790    1.000
    H1147    H        0.73500    0.84130    0.65730    1.000
    C1007    C        0.59000    0.99260    0.40440    1.000
    C1008    C        0.62050    0.98280    0.37300    1.000
    C1009    C        0.66130    0.98620    0.38370    1.000
    H1148    H        0.66820    0.99290    0.41030    1.000
    C1010    C        0.69010    0.98020    0.35650    1.000
    C1011    C        0.68020    0.96460    0.31840    1.000
    C1012    C        0.64020    0.96020    0.30880    1.000
    H1149    H        0.63330    0.94930    0.28370    1.000
    C1013    C        0.60980    0.97120    0.33470    1.000
    H1150    H        0.58280    0.97090    0.32650    1.000
    C1014    C        0.70960    0.95750    0.28950    1.000
    C1015    C        0.73520    0.95540    0.26410    1.000
    O209     O        0.72980    0.98370    0.36410    1.000
    C1016    C        0.74200    0.00920    0.39570    1.000
    H1151    H        0.73100    0.03620    0.39210    1.000
    H1152    H        0.73300    0.99860    0.42160    1.000
    C1017    C        0.78910    0.00990    0.39340    1.000
    C1018    C        0.80170    0.02670    0.35720    1.000
    H1153    H        0.83110    0.02600    0.35670    1.000
    H1154    H        0.79230    0.00920    0.33550    1.000
    S139     S        0.78680    0.07500    0.34590    1.000
    C1019    C        0.81410    0.07270    0.29820    1.000
    H1155    H        0.81090    0.09790    0.28400    1.000
    H1156    H        0.80340    0.05100    0.28200    1.000
    H1157    H        0.84230    0.06790    0.30340    1.000
    C1020    C        0.80070    0.03760    0.42480    1.000
    H1158    H        0.78650    0.06300    0.42050    1.000
    H1159    H        0.79170    0.02670    0.45060    1.000
    C1021    C        0.86170    0.06930    0.47830    1.000
    H1160    H        0.89010    0.07530    0.48110    1.000
    H1161    H        0.85380    0.05010    0.49870    1.000
    H1162    H        0.84630    0.09380    0.48150    1.000
    C1022    C        0.80430    0.96770    0.39950    1.000
    H1163    H        0.79560    0.95160    0.37640    1.000
    H1164    H        0.83370    0.96850    0.39910    1.000
    C1023    C        0.74530    0.91440    0.42650    1.000
    H1165    H        0.74120    0.92020    0.39830    1.000
    H1166    H        0.74970    0.88580    0.43000    1.000
    H1167    H        0.72170    0.92250    0.44160    1.000
    O210     O        0.60780    0.99760    0.55450    1.000
    O211     O        0.55990    0.00100    0.60340    1.000
    O212     O        0.60360    0.99590    0.44000    1.000
    O213     O        0.55450    0.99510    0.39370    1.000
    S140     S        0.80740    0.01310    0.59890    1.000
    S141     S        0.85074    0.91530    0.54420    1.000
    S142     S        0.76900    0.84880    0.59650    1.000
    S143     S        0.85230    0.04800    0.42840    1.000
    S144     S        0.78880    0.94190    0.44470    1.000
    Zr24     Zr       0.57346    0.99820    0.49831    1.000
    O214     O        0.52950    0.96990    0.46800    1.000
    Hg24     Hg       0.88376    0.88919    0.34237    1.000
    Cl47     Cl       0.85070    0.93980    0.30270    1.000
    Cl48     Cl       0.84920    0.84350    0.38130    1.000
    C1024    C        0.73000    0.81100    0.60700    1.000
    H1168    H        0.72910    0.79220    0.58510    1.000
    H1169    H        0.70470    0.82440    0.61020    1.000
    H1170    H        0.73710    0.79720    0.63170    1.000
    C1025    C        0.62270    0.99000    0.37470    1.000
    C1026    C        0.66310    0.99760    0.38390    1.000
    H1171    H        0.67090    0.00480    0.41010    1.000
    C1027    C        0.69010    0.99430    0.35450    1.000
    C1028    C        0.67740    0.98350    0.31570    1.000
    C1029    C        0.63760    0.97620    0.30770    1.000
    H1172    H        0.62980    0.96900    0.28150    1.000
    C1030    C        0.60900    0.97940    0.33730    1.000
    H1173    H        0.58160    0.97450    0.33220    1.000
    C1031    C        0.70610    0.98020    0.28530    1.000
    C1032    C        0.73410    0.97870    0.26280    1.000
    O215     O        0.73000    0.00010    0.35650    1.000
    H1174    H        0.73150    0.03530    0.40420    1.000
    H1175    H        0.73270    0.98850    0.41450    1.000
    O216     O        0.53770    0.95570    0.45910    1.000
    H1176    H        0.55380    0.93750    0.44190    1.000
    O217     O        0.45900    0.04100    0.45900    1.000
    H1177    H        0.44190    0.05810    0.44190    1.000
    O218     O        0.46830    0.03170    0.46830    1.000
    O219     O        0.04100    0.45900    0.45900    1.000
    H1178    H        0.05810    0.44190    0.44190    1.000
    O220     O        0.03170    0.46830    0.46830    1.000
    O221     O        0.04100    0.04100    0.04100    1.000
    H1179    H        0.05810    0.05810    0.05810    1.000
    O222     O        0.03170    0.03170    0.03170    1.000
    O223     O        0.45900    0.45900    0.04100    1.000
    H1180    H        0.44190    0.44190    0.05810    1.000
    O224     O        0.46830    0.46830    0.03170    1.000
    O225     O        0.54100    0.95900    0.54100    1.000
    H1181    H        0.55810    0.94190    0.55810    1.000
    O226     O        0.53170    0.96830    0.53170    1.000
    O227     O        0.95900    0.54100    0.54100    1.000
    H1182    H        0.94190    0.55810    0.55810    1.000
    O228     O        0.96830    0.53170    0.53170    1.000
    O229     O        0.95900    0.95900    0.95900    1.000
    H1183    H        0.94190    0.94190    0.94190    1.000
    O230     O        0.96830    0.96830    0.96830    1.000
    O231     O        0.54100    0.54100    0.95900    1.000
    H1184    H        0.55810    0.55810    0.94190    1.000
    O232     O        0.53170    0.53170    0.96830    1.000
