data_functionalizedCrystal
_audit_creation_method	'EQeq! by Chris Wilmer'
_symmetry_space_group_name_H-M	'P1'
_symmetry_Int_Tables_number	1
_symmetry_cell_setting	triclinic
loop_
_symmetry_equiv_pos_as_xyz
  x,y,z
_cell_length_a	6.682
_cell_length_b	18.446
_cell_length_c	8.477
_cell_angle_alpha	90
_cell_angle_beta	90
_cell_angle_gamma	90
loop_
_atom_site_label
_atom_site_type_symbol
_atom_site_fract_x
_atom_site_fract_y
_atom_site_fract_z
_atom_site_charge
Mof_C 	C 	0.734	0.744	0.0264	0.502
Mof_H 	H 	0.7126	0.7827	0.9582	-0.088
Mof_O 	O 	0.3358	0.90537	0.269	-0.473
Mof_O 	O 	0.9864	0.9502	0.4317	-0.116
Mof_O 	O 	0.8193	0.7575	0.1526	-0.412
Mof_O 	O 	0.6742	0.68314	0.9822	-0.437
Mof_C 	C 	0.234	0.244	0.0264	0.512
Mof_H 	H 	0.2126	0.2827	0.9582	-0.149
Mof_O 	O 	0.8358	0.40537	0.269	-0.343
Mof_O 	O 	0.4864	0.4502	0.4317	-0.612
Mof_O 	O 	0.3193	0.2575	0.1526	-0.554
Mof_O 	O 	0.1742	0.18314	0.9822	-0.46
Mof_C 	C 	0.266	0.256	0.5264	0.665
Mof_H 	H 	0.2874	0.2173	0.4582	-0.222
Mof_O 	O 	0.6642	0.09463	0.769	-0.435
Mof_O 	O 	0.0136	0.0498	0.9317	-0.764
Mof_O 	O 	0.1807	0.2425	0.6526	-0.578
Mof_O 	O 	0.3258	0.31686	0.4822	-0.553
Mof_C 	C 	0.766	0.756	0.5264	0.664
Mof_H 	H 	0.7874	0.7173	0.4582	-0.167
Mof_O 	O 	0.1642	0.59463	0.769	-0.48
Mof_O 	O 	0.5136	0.5498	0.9317	-0.563
Mof_O 	O 	0.6807	0.7425	0.6526	-0.542
Mof_O 	O 	0.8258	0.81686	0.4822	-0.431
Mof_C 	C 	0.266	0.744	0.4736	0.661
Mof_H 	H 	0.2874	0.7827	0.5418	-0.211
Mof_O 	O 	0.6642	0.90537	0.231	-0.422
Mof_O 	O 	0.0136	0.9502	0.0683	-0.742
Mof_O 	O 	0.1807	0.7575	0.3474	-0.579
Mof_O 	O 	0.3258	0.68314	0.5178	-0.554
Mof_C 	C 	0.766	0.244	0.4736	0.662
Mof_H 	H 	0.7874	0.2827	0.5418	-0.162
Mof_O 	O 	0.1642	0.40537	0.231	-0.492
Mof_O 	O 	0.5136	0.4502	0.0683	-0.595
Mof_O 	O 	0.6807	0.2575	0.3474	-0.548
Mof_O 	O 	0.8258	0.18314	0.5178	-0.441
Mof_C 	C 	0.734	0.256	0.9736	0.811
Mof_H 	H 	0.7126	0.2173	0.0418	-0.247
Mof_O 	O 	0.3358	0.09463	0.731	-0.494
Mof_O 	O 	0.9864	0.0498	0.5683	-0.172
Mof_O 	O 	0.8193	0.2425	0.8474	-0.482
Mof_O 	O 	0.6742	0.31686	0.0178	-0.573
Mof_C 	C 	0.234	0.756	0.9736	0.797
Mof_H 	H 	0.2126	0.7173	0.0418	-0.291
Mof_O 	O 	0.8358	0.59463	0.731	-0.337
Mof_O 	O 	0.4864	0.5498	0.5683	-0.614
Mof_O 	O 	0.3193	0.7425	0.8474	-0.615
Mof_O 	O 	0.1742	0.81686	0.0178	-0.577
Mof_C 	C 	0.5	0.8752	0.25	0.616
Mof_H 	H 	0.5	0.8248	0.25	-0.184
Mof_C 	C 	1.18915e-33	0.3752	0.25	0.384
Mof_H 	H 	1.18915e-33	0.3248	0.25	-0.18
Mof_C 	C 	0.5	0.1248	0.75	0.621
Mof_H 	H 	0.5	0.1752	0.75	-0.181
Mof_C 	C 	3.56746e-33	0.6248	0.75	0.381
Mof_H 	H 	2.77276e-32	0.6752	0.75	-0.174
Mof_C 	C 	0.0739	0	0.5	-0.075
Mof_H 	H 	0.2131	0	0.5	0.04
Mof_C 	C 	0.5739	0.5	0.5	0.796
Mof_H 	H 	0.7131	0.5	0.5	-0.192
Mof_C 	C 	0.9261	0	-0	1.169
Mof_H 	H 	0.7869	0	-0	-0.337
Mof_C 	C 	0.4261	0.5	-0	0.742
Mof_H 	H 	0.2869	0.5	-0	-0.238
Mof_Dy	Dy	1.18915e-33	0.85736	0.25	2.017
Mof_Dy	Dy	0.5	0.35736	0.25	2.509
Mof_Dy	Dy	3.56746e-33	0.14264	0.75	2.02
Mof_Dy	Dy	0.5	0.64264	0.75	2.519
_end
