data_functionalizedCrystal
_audit_creation_method	'EQeq! by Chris Wilmer'
_symmetry_space_group_name_H-M	'P1'
_symmetry_Int_Tables_number	1
_symmetry_cell_setting	triclinic
loop_
_symmetry_equiv_pos_as_xyz
  x,y,z
_cell_length_a	22.6467
_cell_length_b	22.6467
_cell_length_c	22.6467
_cell_angle_alpha	90
_cell_angle_beta	90
_cell_angle_gamma	90
loop_
_atom_site_label
_atom_site_type_symbol
_atom_site_fract_x
_atom_site_fract_y
_atom_site_fract_z
_atom_site_charge
Mof_Cd	Cd	1.8747e-33	-4.34676e-33	0.5	0.388
Mof_Cd	Cd	0.5	0	-0	0.388
Mof_Cd	Cd	-0	0.5	-0	0.387
Mof_Cd	Cd	0.5	0.5	0.5	0.395
Mof_Cu	Cu	0.90376	0.40254	0.49787	0.893
Mof_Cu	Cu	0.59624	0.59746	0.99787	0.895
Mof_Cu	Cu	0.09624	0.90254	0.00213	0.891
Mof_Cu	Cu	0.40376	0.09746	0.50213	0.892
Mof_Cu	Cu	0.49787	0.90376	0.40254	0.893
Mof_Cu	Cu	0.99787	0.59624	0.59746	0.895
Mof_Cu	Cu	0.00213	0.09624	0.90254	0.891
Mof_Cu	Cu	0.50213	0.40376	0.09746	0.892
Mof_Cu	Cu	0.40254	0.49787	0.90376	0.893
Mof_Cu	Cu	0.59746	0.99787	0.59624	0.895
Mof_Cu	Cu	0.90254	0.00213	0.09624	0.891
Mof_Cu	Cu	0.09746	0.50213	0.40376	0.892
Mof_Cu	Cu	0.09624	0.59746	0.50213	0.892
Mof_Cu	Cu	0.40376	0.40254	0.00213	0.891
Mof_Cu	Cu	0.90376	0.09746	0.99787	0.894
Mof_Cu	Cu	0.59624	0.90254	0.49787	0.893
Mof_Cu	Cu	0.50213	0.09624	0.59746	0.892
Mof_Cu	Cu	0.00213	0.40376	0.40254	0.891
Mof_Cu	Cu	0.99787	0.90376	0.09746	0.894
Mof_Cu	Cu	0.49787	0.59624	0.90254	0.893
Mof_Cu	Cu	0.59746	0.50213	0.09624	0.892
Mof_Cu	Cu	0.40254	0.00213	0.40376	0.891
Mof_Cu	Cu	0.09746	0.99787	0.90376	0.894
Mof_Cu	Cu	0.90254	0.49787	0.59624	0.893
Mof_H 	H 	0.9033	0.06	0.9002	0.253
Mof_H 	H 	0.9191	0.2963	0.6044	0.252
Mof_H 	H 	0.9296	0.2286	0.5903	0.253
Mof_H 	H 	0.8783	0.2634	0.558	0.227
Mof_H 	H 	0.0714	0.2775	0.3785	0.223
Mof_H 	H 	0.0931	0.229	0.4239	0.251
Mof_H 	H 	0.1156	0.295	0.4299	0.254
Mof_H 	H 	0.9586	0.1405	0.4807	0.013
Mof_H 	H 	0.0967	0.2008	0.57	0.026
Mof_H 	H 	0.5967	0.94	0.4002	0.258
Mof_H 	H 	0.5809	0.7037	0.1044	0.248
Mof_H 	H 	0.5704	0.7714	0.0903	0.249
Mof_H 	H 	0.6217	0.7366	0.058	0.222
Mof_H 	H 	0.4286	0.7225	0.8785	0.226
Mof_H 	H 	0.4069	0.771	0.9239	0.256
Mof_H 	H 	0.3844	0.705	0.9299	0.258
Mof_H 	H 	0.5414	0.8595	0.9807	0.025
Mof_H 	H 	0.4033	0.7992	0.07	0.026
Mof_H 	H 	0.0967	0.56	0.5998	0.257
Mof_H 	H 	0.0809	0.7963	0.8956	0.245
Mof_H 	H 	0.0704	0.7286	0.9097	0.245
Mof_H 	H 	0.1217	0.7634	0.942	0.222
Mof_H 	H 	0.9286	0.7775	0.1215	0.219
Mof_H 	H 	0.9069	0.729	0.0761	0.245
Mof_H 	H 	0.8844	0.795	0.0701	0.247
Mof_H 	H 	0.0414	0.6405	0.0193	0.014
Mof_H 	H 	0.9033	0.7008	0.93	0.026
Mof_H 	H 	0.4033	0.44	0.0998	0.257
Mof_H 	H 	0.4191	0.2037	0.3956	0.249
Mof_H 	H 	0.4296	0.2714	0.4097	0.25
Mof_H 	H 	0.3783	0.2366	0.442	0.224
Mof_H 	H 	0.5714	0.2225	0.6215	0.223
Mof_H 	H 	0.5931	0.271	0.5761	0.251
Mof_H 	H 	0.6156	0.205	0.5701	0.254
Mof_H 	H 	0.4586	0.3595	0.5193	0.015
Mof_H 	H 	0.5967	0.2992	0.43	0.026
Mof_H 	H 	0.9002	0.9033	0.06	0.253
Mof_H 	H 	0.6044	0.9191	0.2963	0.252
Mof_H 	H 	0.5903	0.9296	0.2286	0.253
Mof_H 	H 	0.558	0.8783	0.2634	0.227
Mof_H 	H 	0.3785	0.0714	0.2775	0.223
Mof_H 	H 	0.4239	0.0931	0.229	0.251
Mof_H 	H 	0.4299	0.1156	0.295	0.254
Mof_H 	H 	0.4807	0.9586	0.1405	0.013
Mof_H 	H 	0.57	0.0967	0.2008	0.026
Mof_H 	H 	0.4002	0.5967	0.94	0.258
Mof_H 	H 	0.1044	0.5809	0.7037	0.248
Mof_H 	H 	0.0903	0.5704	0.7714	0.249
Mof_H 	H 	0.058	0.6217	0.7366	0.222
Mof_H 	H 	0.8785	0.4286	0.7225	0.226
Mof_H 	H 	0.9239	0.4069	0.771	0.256
Mof_H 	H 	0.9299	0.3844	0.705	0.258
Mof_H 	H 	0.9807	0.5414	0.8595	0.025
Mof_H 	H 	0.07	0.4033	0.7992	0.026
Mof_H 	H 	0.5998	0.0967	0.56	0.257
Mof_H 	H 	0.8956	0.0809	0.7963	0.245
Mof_H 	H 	0.9097	0.0704	0.7286	0.245
Mof_H 	H 	0.942	0.1217	0.7634	0.222
Mof_H 	H 	0.1215	0.9286	0.7775	0.219
Mof_H 	H 	0.0761	0.9069	0.729	0.245
Mof_H 	H 	0.0701	0.8844	0.795	0.247
Mof_H 	H 	0.0193	0.0414	0.6405	0.014
Mof_H 	H 	0.93	0.9033	0.7008	0.026
Mof_H 	H 	0.0998	0.4033	0.44	0.257
Mof_H 	H 	0.3956	0.4191	0.2037	0.249
Mof_H 	H 	0.4097	0.4296	0.2714	0.25
Mof_H 	H 	0.442	0.3783	0.2366	0.224
Mof_H 	H 	0.6215	0.5714	0.2225	0.223
Mof_H 	H 	0.5761	0.5931	0.271	0.251
Mof_H 	H 	0.5701	0.6156	0.205	0.254
Mof_H 	H 	0.5193	0.4586	0.3595	0.015
Mof_H 	H 	0.43	0.5967	0.2992	0.026
Mof_H 	H 	0.06	0.9002	0.9033	0.253
Mof_H 	H 	0.2963	0.6044	0.9191	0.252
Mof_H 	H 	0.2286	0.5903	0.9296	0.253
Mof_H 	H 	0.2634	0.558	0.8783	0.227
Mof_H 	H 	0.2775	0.3785	0.0714	0.223
Mof_H 	H 	0.229	0.4239	0.0931	0.251
Mof_H 	H 	0.295	0.4299	0.1156	0.254
Mof_H 	H 	0.1405	0.4807	0.9586	0.013
Mof_H 	H 	0.2008	0.57	0.0967	0.026
Mof_H 	H 	0.94	0.4002	0.5967	0.258
Mof_H 	H 	0.7037	0.1044	0.5809	0.248
Mof_H 	H 	0.7714	0.0903	0.5704	0.249
Mof_H 	H 	0.7366	0.058	0.6217	0.222
Mof_H 	H 	0.7225	0.8785	0.4286	0.226
Mof_H 	H 	0.771	0.9239	0.4069	0.256
Mof_H 	H 	0.705	0.9299	0.3844	0.258
Mof_H 	H 	0.8595	0.9807	0.5414	0.025
Mof_H 	H 	0.7992	0.07	0.4033	0.026
Mof_H 	H 	0.56	0.5998	0.0967	0.257
Mof_H 	H 	0.7963	0.8956	0.0809	0.245
Mof_H 	H 	0.7286	0.9097	0.0704	0.245
Mof_H 	H 	0.7634	0.942	0.1217	0.222
Mof_H 	H 	0.7775	0.1215	0.9286	0.219
Mof_H 	H 	0.729	0.0761	0.9069	0.245
Mof_H 	H 	0.795	0.0701	0.8844	0.247
Mof_H 	H 	0.6405	0.0193	0.0414	0.014
Mof_H 	H 	0.7008	0.93	0.9033	0.026
Mof_H 	H 	0.44	0.0998	0.4033	0.257
Mof_H 	H 	0.2037	0.3956	0.4191	0.249
Mof_H 	H 	0.2714	0.4097	0.4296	0.25
Mof_H 	H 	0.2366	0.442	0.3783	0.224
Mof_H 	H 	0.2225	0.6215	0.5714	0.223
Mof_H 	H 	0.271	0.5761	0.5931	0.251
Mof_H 	H 	0.205	0.5701	0.6156	0.254
Mof_H 	H 	0.3595	0.5193	0.4586	0.015
Mof_H 	H 	0.2992	0.43	0.5967	0.026
Mof_H 	H 	0.0967	0.94	0.0998	0.258
Mof_H 	H 	0.0809	0.7037	0.3956	0.246
Mof_H 	H 	0.0704	0.7714	0.4097	0.246
Mof_H 	H 	0.1217	0.7366	0.442	0.221
Mof_H 	H 	0.9286	0.7225	0.6215	0.224
Mof_H 	H 	0.9069	0.771	0.5761	0.252
Mof_H 	H 	0.8844	0.705	0.5701	0.254
Mof_H 	H 	0.0414	0.8595	0.5193	0.018
Mof_H 	H 	0.9033	0.7992	0.43	0.026
Mof_H 	H 	0.4033	0.06	0.5998	0.255
Mof_H 	H 	0.4191	0.2963	0.8956	0.25
Mof_H 	H 	0.4296	0.2286	0.9097	0.251
Mof_H 	H 	0.3783	0.2634	0.942	0.226
Mof_H 	H 	0.5714	0.2775	0.1215	0.221
Mof_H 	H 	0.5931	0.229	0.0761	0.248
Mof_H 	H 	0.6156	0.295	0.0701	0.25
Mof_H 	H 	0.4586	0.1405	0.0193	0.01
Mof_H 	H 	0.5967	0.2008	0.93	0.026
Mof_H 	H 	0.9033	0.44	0.4002	0.256
Mof_H 	H 	0.9191	0.2037	0.1044	0.249
Mof_H 	H 	0.9296	0.2714	0.0903	0.25
Mof_H 	H 	0.8783	0.2366	0.058	0.223
Mof_H 	H 	0.0714	0.2225	0.8785	0.223
Mof_H 	H 	0.0931	0.271	0.9239	0.252
Mof_H 	H 	0.1156	0.205	0.9299	0.255
Mof_H 	H 	0.9586	0.3595	0.9807	0.024
Mof_H 	H 	0.0967	0.2992	0.07	0.026
Mof_H 	H 	0.5967	0.56	0.9002	0.256
Mof_H 	H 	0.5809	0.7963	0.6044	0.25
Mof_H 	H 	0.5704	0.7286	0.5903	0.251
Mof_H 	H 	0.6217	0.7634	0.558	0.225
Mof_H 	H 	0.4286	0.7775	0.3785	0.223
Mof_H 	H 	0.4069	0.729	0.4239	0.251
Mof_H 	H 	0.3844	0.795	0.4299	0.254
Mof_H 	H 	0.5414	0.6405	0.4807	0.015
Mof_H 	H 	0.4033	0.7008	0.57	0.026
Mof_H 	H 	0.0998	0.0967	0.94	0.258
Mof_H 	H 	0.3956	0.0809	0.7037	0.246
Mof_H 	H 	0.4097	0.0704	0.7714	0.246
Mof_H 	H 	0.442	0.1217	0.7366	0.221
Mof_H 	H 	0.6215	0.9286	0.7225	0.224
Mof_H 	H 	0.5761	0.9069	0.771	0.252
Mof_H 	H 	0.5701	0.8844	0.705	0.254
Mof_H 	H 	0.5193	0.0414	0.8595	0.018
Mof_H 	H 	0.43	0.9033	0.7992	0.026
Mof_H 	H 	0.5998	0.4033	0.06	0.255
Mof_H 	H 	0.8956	0.4191	0.2963	0.25
Mof_H 	H 	0.9097	0.4296	0.2286	0.251
Mof_H 	H 	0.942	0.3783	0.2634	0.226
Mof_H 	H 	0.1215	0.5714	0.2775	0.221
Mof_H 	H 	0.0761	0.5931	0.229	0.248
Mof_H 	H 	0.0701	0.6156	0.295	0.25
Mof_H 	H 	0.0193	0.4586	0.1405	0.01
Mof_H 	H 	0.93	0.5967	0.2008	0.026
Mof_H 	H 	0.4002	0.9033	0.44	0.256
Mof_H 	H 	0.1044	0.9191	0.2037	0.249
Mof_H 	H 	0.0903	0.9296	0.2714	0.25
Mof_H 	H 	0.058	0.8783	0.2366	0.223
Mof_H 	H 	0.8785	0.0714	0.2225	0.223
Mof_H 	H 	0.9239	0.0931	0.271	0.252
Mof_H 	H 	0.9299	0.1156	0.205	0.255
Mof_H 	H 	0.9807	0.9586	0.3595	0.024
Mof_H 	H 	0.07	0.0967	0.2992	0.026
Mof_H 	H 	0.9002	0.5967	0.56	0.256
Mof_H 	H 	0.6044	0.5809	0.7963	0.25
Mof_H 	H 	0.5903	0.5704	0.7286	0.251
Mof_H 	H 	0.558	0.6217	0.7634	0.225
Mof_H 	H 	0.3785	0.4286	0.7775	0.223
Mof_H 	H 	0.4239	0.4069	0.729	0.251
Mof_H 	H 	0.4299	0.3844	0.795	0.254
Mof_H 	H 	0.4807	0.5414	0.6405	0.015
Mof_H 	H 	0.57	0.4033	0.7008	0.026
Mof_H 	H 	0.94	0.0998	0.0967	0.258
Mof_H 	H 	0.7037	0.3956	0.0809	0.246
Mof_H 	H 	0.7714	0.4097	0.0704	0.246
Mof_H 	H 	0.7366	0.442	0.1217	0.221
Mof_H 	H 	0.7225	0.6215	0.9286	0.224
Mof_H 	H 	0.771	0.5761	0.9069	0.252
Mof_H 	H 	0.705	0.5701	0.8844	0.254
Mof_H 	H 	0.8595	0.5193	0.0414	0.018
Mof_H 	H 	0.7992	0.43	0.9033	0.026
Mof_H 	H 	0.06	0.5998	0.4033	0.255
Mof_H 	H 	0.2963	0.8956	0.4191	0.25
Mof_H 	H 	0.2286	0.9097	0.4296	0.251
Mof_H 	H 	0.2634	0.942	0.3783	0.226
Mof_H 	H 	0.2775	0.1215	0.5714	0.221
Mof_H 	H 	0.229	0.0761	0.5931	0.248
Mof_H 	H 	0.295	0.0701	0.6156	0.25
Mof_H 	H 	0.1405	0.0193	0.4586	0.01
Mof_H 	H 	0.2008	0.93	0.5967	0.026
Mof_H 	H 	0.44	0.4002	0.9033	0.256
Mof_H 	H 	0.2037	0.1044	0.9191	0.249
Mof_H 	H 	0.2714	0.0903	0.9296	0.25
Mof_H 	H 	0.2366	0.058	0.8783	0.223
Mof_H 	H 	0.2225	0.8785	0.0714	0.223
Mof_H 	H 	0.271	0.9239	0.0931	0.252
Mof_H 	H 	0.205	0.9299	0.1156	0.255
Mof_H 	H 	0.3595	0.9807	0.9586	0.024
Mof_H 	H 	0.2992	0.07	0.0967	0.026
Mof_H 	H 	0.56	0.9002	0.5967	0.256
Mof_H 	H 	0.7963	0.6044	0.5809	0.25
Mof_H 	H 	0.7286	0.5903	0.5704	0.251
Mof_H 	H 	0.7634	0.558	0.6217	0.225
Mof_H 	H 	0.7775	0.3785	0.4286	0.223
Mof_H 	H 	0.729	0.4239	0.4069	0.251
Mof_H 	H 	0.795	0.4299	0.3844	0.254
Mof_H 	H 	0.6405	0.4807	0.5414	0.015
Mof_H 	H 	0.7008	0.57	0.4033	0.026
Mof_C 	C 	0.918	0.2663	0.5738	-0.747
Mof_C 	C 	0.9592	0.2826	0.526	0.291
Mof_C 	C 	0.0063	0.2512	0.5033	-0.156
Mof_C 	C 	0.031	0.2841	0.4586	0.281
Mof_C 	C 	0.0823	0.2701	0.4193	-0.731
Mof_C 	C 	0.9932	0.1422	0.5036	0.08
Mof_C 	C 	0.0693	0.1746	0.553	0.076
Mof_C 	C 	0.582	0.7337	0.0738	-0.736
Mof_C 	C 	0.5408	0.7174	0.026	0.28
Mof_C 	C 	0.4937	0.7488	0.0033	-0.158
Mof_C 	C 	0.469	0.7159	0.9586	0.29
Mof_C 	C 	0.4177	0.7299	0.9193	-0.741
Mof_C 	C 	0.5068	0.8578	0.0036	0.059
Mof_C 	C 	0.4307	0.8254	0.053	0.075
Mof_C 	C 	0.082	0.7663	0.9262	-0.726
Mof_C 	C 	0.0408	0.7826	0.974	0.271
Mof_C 	C 	0.9937	0.7512	0.9967	-0.127
Mof_C 	C 	0.969	0.7841	0.0414	0.262
Mof_C 	C 	0.9177	0.7701	0.0807	-0.713
Mof_C 	C 	0.0068	0.6422	0.9964	0.065
Mof_C 	C 	0.9307	0.6746	0.947	0.08
Mof_C 	C 	0.418	0.2337	0.4262	-0.74
Mof_C 	C 	0.4592	0.2174	0.474	0.284
Mof_C 	C 	0.5063	0.2488	0.4967	-0.15
Mof_C 	C 	0.531	0.2159	0.5414	0.279
Mof_C 	C 	0.5823	0.2299	0.5807	-0.73
Mof_C 	C 	0.4932	0.3578	0.4964	0.073
Mof_C 	C 	0.5693	0.3254	0.447	0.076
Mof_C 	C 	0.5738	0.918	0.2663	-0.747
Mof_C 	C 	0.526	0.9592	0.2826	0.291
Mof_C 	C 	0.5033	0.0063	0.2512	-0.156
Mof_C 	C 	0.4586	0.031	0.2841	0.281
Mof_C 	C 	0.4193	0.0823	0.2701	-0.731
Mof_C 	C 	0.5036	0.9932	0.1422	0.08
Mof_C 	C 	0.553	0.0693	0.1746	0.076
Mof_C 	C 	0.0738	0.582	0.7337	-0.736
Mof_C 	C 	0.026	0.5408	0.7174	0.28
Mof_C 	C 	0.0033	0.4937	0.7488	-0.158
Mof_C 	C 	0.9586	0.469	0.7159	0.29
Mof_C 	C 	0.9193	0.4177	0.7299	-0.741
Mof_C 	C 	0.0036	0.5068	0.8578	0.059
Mof_C 	C 	0.053	0.4307	0.8254	0.075
Mof_C 	C 	0.9262	0.082	0.7663	-0.726
Mof_C 	C 	0.974	0.0408	0.7826	0.271
Mof_C 	C 	0.9967	0.9937	0.7512	-0.127
Mof_C 	C 	0.0414	0.969	0.7841	0.262
Mof_C 	C 	0.0807	0.9177	0.7701	-0.713
Mof_C 	C 	0.9964	0.0068	0.6422	0.065
Mof_C 	C 	0.947	0.9307	0.6746	0.08
Mof_C 	C 	0.4262	0.418	0.2337	-0.74
Mof_C 	C 	0.474	0.4592	0.2174	0.284
Mof_C 	C 	0.4967	0.5063	0.2488	-0.15
Mof_C 	C 	0.5414	0.531	0.2159	0.279
Mof_C 	C 	0.5807	0.5823	0.2299	-0.73
Mof_C 	C 	0.4964	0.4932	0.3578	0.073
Mof_C 	C 	0.447	0.5693	0.3254	0.076
Mof_C 	C 	0.2663	0.5738	0.918	-0.747
Mof_C 	C 	0.2826	0.526	0.9592	0.291
Mof_C 	C 	0.2512	0.5033	0.0063	-0.156
Mof_C 	C 	0.2841	0.4586	0.031	0.281
Mof_C 	C 	0.2701	0.4193	0.0823	-0.731
Mof_C 	C 	0.1422	0.5036	0.9932	0.08
Mof_C 	C 	0.1746	0.553	0.0693	0.076
Mof_C 	C 	0.7337	0.0738	0.582	-0.736
Mof_C 	C 	0.7174	0.026	0.5408	0.28
Mof_C 	C 	0.7488	0.0033	0.4937	-0.158
Mof_C 	C 	0.7159	0.9586	0.469	0.29
Mof_C 	C 	0.7299	0.9193	0.4177	-0.741
Mof_C 	C 	0.8578	0.0036	0.5068	0.059
Mof_C 	C 	0.8254	0.053	0.4307	0.075
Mof_C 	C 	0.7663	0.9262	0.082	-0.726
Mof_C 	C 	0.7826	0.974	0.0408	0.271
Mof_C 	C 	0.7512	0.9967	0.9937	-0.127
Mof_C 	C 	0.7841	0.0414	0.969	0.262
Mof_C 	C 	0.7701	0.0807	0.9177	-0.713
Mof_C 	C 	0.6422	0.9964	0.0068	0.065
Mof_C 	C 	0.6746	0.947	0.9307	0.08
Mof_C 	C 	0.2337	0.4262	0.418	-0.74
Mof_C 	C 	0.2174	0.474	0.4592	0.284
Mof_C 	C 	0.2488	0.4967	0.5063	-0.15
Mof_C 	C 	0.2159	0.5414	0.531	0.279
Mof_C 	C 	0.2299	0.5807	0.5823	-0.73
Mof_C 	C 	0.3578	0.4964	0.4932	0.073
Mof_C 	C 	0.3254	0.447	0.5693	0.076
Mof_C 	C 	0.082	0.7337	0.4262	-0.73
Mof_C 	C 	0.0408	0.7174	0.474	0.274
Mof_C 	C 	0.9937	0.7488	0.4967	-0.141
Mof_C 	C 	0.969	0.7159	0.5414	0.278
Mof_C 	C 	0.9177	0.7299	0.5807	-0.729
Mof_C 	C 	0.0068	0.8578	0.4964	0.059
Mof_C 	C 	0.9307	0.8254	0.447	0.078
Mof_C 	C 	0.418	0.2663	0.9262	-0.742
Mof_C 	C 	0.4592	0.2826	0.974	0.286
Mof_C 	C 	0.5063	0.2512	0.9967	-0.144
Mof_C 	C 	0.531	0.2841	0.0414	0.272
Mof_C 	C 	0.5823	0.2701	0.0807	-0.722
Mof_C 	C 	0.4932	0.1422	0.9964	0.08
Mof_C 	C 	0.5693	0.1746	0.947	0.077
Mof_C 	C 	0.918	0.2337	0.0738	-0.738
Mof_C 	C 	0.9592	0.2174	0.026	0.282
Mof_C 	C 	0.0063	0.2488	0.0033	-0.154
Mof_C 	C 	0.031	0.2159	0.9586	0.282
Mof_C 	C 	0.0823	0.2299	0.9193	-0.733
Mof_C 	C 	0.9932	0.3578	0.0036	0.066
Mof_C 	C 	0.0693	0.3254	0.053	0.076
Mof_C 	C 	0.582	0.7663	0.5738	-0.74
Mof_C 	C 	0.5408	0.7826	0.526	0.284
Mof_C 	C 	0.4937	0.7512	0.5033	-0.15
Mof_C 	C 	0.469	0.7841	0.4586	0.279
Mof_C 	C 	0.4177	0.7701	0.4193	-0.73
Mof_C 	C 	0.5068	0.6422	0.5036	0.073
Mof_C 	C 	0.4307	0.6746	0.553	0.076
Mof_C 	C 	0.4262	0.082	0.7337	-0.73
Mof_C 	C 	0.474	0.0408	0.7174	0.274
Mof_C 	C 	0.4967	0.9937	0.7488	-0.141
Mof_C 	C 	0.5414	0.969	0.7159	0.278
Mof_C 	C 	0.5807	0.9177	0.7299	-0.729
Mof_C 	C 	0.4964	0.0068	0.8578	0.059
Mof_C 	C 	0.447	0.9307	0.8254	0.078
Mof_C 	C 	0.9262	0.418	0.2663	-0.742
Mof_C 	C 	0.974	0.4592	0.2826	0.286
Mof_C 	C 	0.9967	0.5063	0.2512	-0.144
Mof_C 	C 	0.0414	0.531	0.2841	0.272
Mof_C 	C 	0.0807	0.5823	0.2701	-0.722
Mof_C 	C 	0.9964	0.4932	0.1422	0.08
Mof_C 	C 	0.947	0.5693	0.1746	0.077
Mof_C 	C 	0.0738	0.918	0.2337	-0.738
Mof_C 	C 	0.026	0.9592	0.2174	0.282
Mof_C 	C 	0.0033	0.0063	0.2488	-0.154
Mof_C 	C 	0.9586	0.031	0.2159	0.282
Mof_C 	C 	0.9193	0.0823	0.2299	-0.733
Mof_C 	C 	0.0036	0.9932	0.3578	0.066
Mof_C 	C 	0.053	0.0693	0.3254	0.076
Mof_C 	C 	0.5738	0.582	0.7663	-0.74
Mof_C 	C 	0.526	0.5408	0.7826	0.284
Mof_C 	C 	0.5033	0.4937	0.7512	-0.15
Mof_C 	C 	0.4586	0.469	0.7841	0.279
Mof_C 	C 	0.4193	0.4177	0.7701	-0.73
Mof_C 	C 	0.5036	0.5068	0.6422	0.073
Mof_C 	C 	0.553	0.4307	0.6746	0.076
Mof_C 	C 	0.7337	0.4262	0.082	-0.73
Mof_C 	C 	0.7174	0.474	0.0408	0.274
Mof_C 	C 	0.7488	0.4967	0.9937	-0.141
Mof_C 	C 	0.7159	0.5414	0.969	0.278
Mof_C 	C 	0.7299	0.5807	0.9177	-0.729
Mof_C 	C 	0.8578	0.4964	0.0068	0.059
Mof_C 	C 	0.8254	0.447	0.9307	0.078
Mof_C 	C 	0.2663	0.9262	0.418	-0.742
Mof_C 	C 	0.2826	0.974	0.4592	0.286
Mof_C 	C 	0.2512	0.9967	0.5063	-0.144
Mof_C 	C 	0.2841	0.0414	0.531	0.272
Mof_C 	C 	0.2701	0.0807	0.5823	-0.722
Mof_C 	C 	0.1422	0.9964	0.4932	0.08
Mof_C 	C 	0.1746	0.947	0.5693	0.077
Mof_C 	C 	0.2337	0.0738	0.918	-0.738
Mof_C 	C 	0.2174	0.026	0.9592	0.282
Mof_C 	C 	0.2488	0.0033	0.0063	-0.154
Mof_C 	C 	0.2159	0.9586	0.031	0.282
Mof_C 	C 	0.2299	0.9193	0.0823	-0.733
Mof_C 	C 	0.3578	0.0036	0.9932	0.066
Mof_C 	C 	0.3254	0.053	0.0693	0.076
Mof_C 	C 	0.7663	0.5738	0.582	-0.74
Mof_C 	C 	0.7826	0.526	0.5408	0.284
Mof_C 	C 	0.7512	0.5033	0.4937	-0.15
Mof_C 	C 	0.7841	0.4586	0.469	0.279
Mof_C 	C 	0.7701	0.4193	0.4177	-0.73
Mof_C 	C 	0.6422	0.5036	0.5068	0.073
Mof_C 	C 	0.6746	0.553	0.4307	0.076
Mof_N 	N 	0.9566	0.3345	0.4961	-0.237
Mof_N 	N 	0.0012	0.3349	0.4551	-0.24
Mof_N 	N 	0.0225	0.09695	0.5248	-0.117
Mof_N 	N 	0.0218	0.19224	0.5208	-0.104
Mof_N 	N 	0.0726	0.1175	0.5575	-0.099
Mof_N 	N 	0.5434	0.6655	0.9961	-0.234
Mof_N 	N 	0.4988	0.6651	0.9551	-0.239
Mof_N 	N 	0.4775	0.90305	0.0248	-0.112
Mof_N 	N 	0.4782	0.80776	0.0208	-0.1
Mof_N 	N 	0.4274	0.8825	0.0575	-0.098
Mof_N 	N 	0.0434	0.8345	0.0039	-0.242
Mof_N 	N 	0.9988	0.8349	0.0449	-0.235
Mof_N 	N 	0.9775	0.59695	0.9752	-0.106
Mof_N 	N 	0.9782	0.69224	0.9792	-0.101
Mof_N 	N 	0.9274	0.6175	0.9425	-0.097
Mof_N 	N 	0.4566	0.1655	0.5039	-0.238
Mof_N 	N 	0.5012	0.1651	0.5449	-0.238
Mof_N 	N 	0.5225	0.40305	0.4752	-0.114
Mof_N 	N 	0.5218	0.30776	0.4792	-0.103
Mof_N 	N 	0.5726	0.3825	0.4425	-0.098
Mof_N 	N 	0.4961	0.9566	0.3345	-0.237
Mof_N 	N 	0.4551	0.0012	0.3349	-0.24
Mof_N 	N 	0.5248	0.0225	0.09695	-0.117
Mof_N 	N 	0.5208	0.0218	0.19224	-0.104
Mof_N 	N 	0.5575	0.0726	0.1175	-0.099
Mof_N 	N 	0.9961	0.5434	0.6655	-0.234
Mof_N 	N 	0.9551	0.4988	0.6651	-0.239
Mof_N 	N 	0.0248	0.4775	0.90305	-0.112
Mof_N 	N 	0.0208	0.4782	0.80776	-0.1
Mof_N 	N 	0.0575	0.4274	0.8825	-0.098
Mof_N 	N 	0.0039	0.0434	0.8345	-0.242
Mof_N 	N 	0.0449	0.9988	0.8349	-0.235
Mof_N 	N 	0.9752	0.9775	0.59695	-0.106
Mof_N 	N 	0.9792	0.9782	0.69224	-0.101
Mof_N 	N 	0.9425	0.9274	0.6175	-0.097
Mof_N 	N 	0.5039	0.4566	0.1655	-0.238
Mof_N 	N 	0.5449	0.5012	0.1651	-0.238
Mof_N 	N 	0.4752	0.5225	0.40305	-0.114
Mof_N 	N 	0.4792	0.5218	0.30776	-0.103
Mof_N 	N 	0.4425	0.5726	0.3825	-0.098
Mof_N 	N 	0.3345	0.4961	0.9566	-0.237
Mof_N 	N 	0.3349	0.4551	0.0012	-0.24
Mof_N 	N 	0.09695	0.5248	0.0225	-0.117
Mof_N 	N 	0.19224	0.5208	0.0218	-0.104
Mof_N 	N 	0.1175	0.5575	0.0726	-0.099
Mof_N 	N 	0.6655	0.9961	0.5434	-0.234
Mof_N 	N 	0.6651	0.9551	0.4988	-0.239
Mof_N 	N 	0.90305	0.0248	0.4775	-0.112
Mof_N 	N 	0.80776	0.0208	0.4782	-0.1
Mof_N 	N 	0.8825	0.0575	0.4274	-0.098
Mof_N 	N 	0.8345	0.0039	0.0434	-0.242
Mof_N 	N 	0.8349	0.0449	0.9988	-0.235
Mof_N 	N 	0.59695	0.9752	0.9775	-0.106
Mof_N 	N 	0.69224	0.9792	0.9782	-0.101
Mof_N 	N 	0.6175	0.9425	0.9274	-0.097
Mof_N 	N 	0.1655	0.5039	0.4566	-0.238
Mof_N 	N 	0.1651	0.5449	0.5012	-0.238
Mof_N 	N 	0.40305	0.4752	0.5225	-0.114
Mof_N 	N 	0.30776	0.4792	0.5218	-0.103
Mof_N 	N 	0.3825	0.4425	0.5726	-0.098
Mof_N 	N 	0.0434	0.6655	0.5039	-0.24
Mof_N 	N 	0.9988	0.6651	0.5449	-0.235
Mof_N 	N 	0.9775	0.90305	0.4752	-0.107
Mof_N 	N 	0.9782	0.80776	0.4792	-0.099
Mof_N 	N 	0.9274	0.8825	0.4425	-0.097
Mof_N 	N 	0.4566	0.3345	0.0039	-0.241
Mof_N 	N 	0.5012	0.3349	0.0449	-0.238
Mof_N 	N 	0.5225	0.09695	0.9752	-0.114
Mof_N 	N 	0.5218	0.19224	0.9792	-0.104
Mof_N 	N 	0.5726	0.1175	0.9425	-0.098
Mof_N 	N 	0.9566	0.1655	0.9961	-0.232
Mof_N 	N 	0.0012	0.1651	0.9551	-0.241
Mof_N 	N 	0.0225	0.40305	0.0248	-0.114
Mof_N 	N 	0.0218	0.30776	0.0208	-0.102
Mof_N 	N 	0.0726	0.3825	0.0575	-0.098
Mof_N 	N 	0.5434	0.8345	0.4961	-0.239
Mof_N 	N 	0.4988	0.8349	0.4551	-0.238
Mof_N 	N 	0.4775	0.59695	0.5248	-0.114
Mof_N 	N 	0.4782	0.69224	0.5208	-0.103
Mof_N 	N 	0.4274	0.6175	0.5575	-0.098
Mof_N 	N 	0.5039	0.0434	0.6655	-0.24
Mof_N 	N 	0.5449	0.9988	0.6651	-0.235
Mof_N 	N 	0.4752	0.9775	0.90305	-0.107
Mof_N 	N 	0.4792	0.9782	0.80776	-0.099
Mof_N 	N 	0.4425	0.9274	0.8825	-0.097
Mof_N 	N 	0.0039	0.4566	0.3345	-0.241
Mof_N 	N 	0.0449	0.5012	0.3349	-0.238
Mof_N 	N 	0.9752	0.5225	0.09695	-0.114
Mof_N 	N 	0.9792	0.5218	0.19224	-0.104
Mof_N 	N 	0.9425	0.5726	0.1175	-0.098
Mof_N 	N 	0.9961	0.9566	0.1655	-0.232
Mof_N 	N 	0.9551	0.0012	0.1651	-0.241
Mof_N 	N 	0.0248	0.0225	0.40305	-0.114
Mof_N 	N 	0.0208	0.0218	0.30776	-0.102
Mof_N 	N 	0.0575	0.0726	0.3825	-0.098
Mof_N 	N 	0.4961	0.5434	0.8345	-0.239
Mof_N 	N 	0.4551	0.4988	0.8349	-0.238
Mof_N 	N 	0.5248	0.4775	0.59695	-0.114
Mof_N 	N 	0.5208	0.4782	0.69224	-0.103
Mof_N 	N 	0.5575	0.4274	0.6175	-0.098
Mof_N 	N 	0.6655	0.5039	0.0434	-0.24
Mof_N 	N 	0.6651	0.5449	0.9988	-0.235
Mof_N 	N 	0.90305	0.4752	0.9775	-0.107
Mof_N 	N 	0.80776	0.4792	0.9782	-0.099
Mof_N 	N 	0.8825	0.4425	0.9274	-0.097
Mof_N 	N 	0.3345	0.0039	0.4566	-0.241
Mof_N 	N 	0.3349	0.0449	0.5012	-0.238
Mof_N 	N 	0.09695	0.9752	0.5225	-0.114
Mof_N 	N 	0.19224	0.9792	0.5218	-0.104
Mof_N 	N 	0.1175	0.9425	0.5726	-0.098
Mof_N 	N 	0.1655	0.9961	0.9566	-0.232
Mof_N 	N 	0.1651	0.9551	0.0012	-0.241
Mof_N 	N 	0.40305	0.0248	0.0225	-0.114
Mof_N 	N 	0.30776	0.0208	0.0218	-0.102
Mof_N 	N 	0.3825	0.0575	0.0726	-0.098
Mof_N 	N 	0.8345	0.4961	0.5434	-0.239
Mof_N 	N 	0.8349	0.4551	0.4988	-0.238
Mof_N 	N 	0.59695	0.5248	0.4775	-0.114
Mof_N 	N 	0.69224	0.5208	0.4782	-0.103
Mof_N 	N 	0.6175	0.5575	0.4274	-0.098
Mof_O 	O 	0.91706	0.0928	0.91384	-0.632
Mof_O 	O 	0.58294	0.9072	0.41384	-0.635
Mof_O 	O 	0.08294	0.5928	0.58616	-0.637
Mof_O 	O 	0.41706	0.4072	0.08616	-0.635
Mof_O 	O 	0.91384	0.91706	0.0928	-0.632
Mof_O 	O 	0.41384	0.58294	0.9072	-0.635
Mof_O 	O 	0.58616	0.08294	0.5928	-0.637
Mof_O 	O 	0.08616	0.41706	0.4072	-0.635
Mof_O 	O 	0.0928	0.91384	0.91706	-0.632
Mof_O 	O 	0.9072	0.41384	0.58294	-0.635
Mof_O 	O 	0.5928	0.58616	0.08294	-0.637
Mof_O 	O 	0.4072	0.08616	0.41706	-0.635
Mof_O 	O 	0.08294	0.9072	0.08616	-0.637
Mof_O 	O 	0.41706	0.0928	0.58616	-0.634
Mof_O 	O 	0.91706	0.4072	0.41384	-0.633
Mof_O 	O 	0.58294	0.5928	0.91384	-0.634
Mof_O 	O 	0.08616	0.08294	0.9072	-0.637
Mof_O 	O 	0.58616	0.41706	0.0928	-0.634
Mof_O 	O 	0.41384	0.91706	0.4072	-0.633
Mof_O 	O 	0.91384	0.58294	0.5928	-0.634
Mof_O 	O 	0.9072	0.08616	0.08294	-0.637
Mof_O 	O 	0.0928	0.58616	0.41706	-0.634
Mof_O 	O 	0.4072	0.41384	0.91706	-0.633
Mof_O 	O 	0.5928	0.91384	0.58294	-0.634
Mof_Cd	Cd	0.92056	0.92056	0.92056	0.48
Mof_Cd	Cd	0.07944	0.07944	0.07944	0.487
Mof_Cl	Cl	0.8624	0.9777	0.8552	-0.409
Mof_Cl	Cl	0.8552	0.8624	0.9777	-0.409
Mof_Cl	Cl	0.9777	0.8552	0.8624	-0.409
Mof_Cl	Cl	0.1376	0.0223	0.1448	-0.418
Mof_Cl	Cl	0.1448	0.1376	0.0223	-0.418
Mof_Cl	Cl	0.0223	0.1448	0.1376	-0.418
Mof_Cl	Cl	0.98861	0.98861	0.98861	-0.264
Mof_Cl	Cl	0.01139	0.01139	0.01139	-0.449
Mof_Cd	Cd	0.57944	0.07944	0.42056	0.483
Mof_Cd	Cd	0.42056	0.92056	0.57944	0.481
Mof_Cl	Cl	0.6376	0.0223	0.3552	-0.421
Mof_Cl	Cl	0.6448	0.1376	0.4777	-0.417
Mof_Cl	Cl	0.5223	0.1448	0.3624	-0.416
Mof_Cl	Cl	0.3624	0.9777	0.6448	-0.412
Mof_Cl	Cl	0.3552	0.8624	0.5223	-0.416
Mof_Cl	Cl	0.4777	0.8552	0.6376	-0.416
Mof_Cl	Cl	0.51139	0.01139	0.48861	-0.391
Mof_Cl	Cl	0.48861	0.98861	0.51139	-0.328
Mof_Cd	Cd	0.07944	0.42056	0.57944	0.483
Mof_Cd	Cd	0.92056	0.57944	0.42056	0.481
Mof_Cl	Cl	0.1376	0.4777	0.6448	-0.417
Mof_Cl	Cl	0.1448	0.3624	0.5223	-0.416
Mof_Cl	Cl	0.0223	0.3552	0.6376	-0.421
Mof_Cl	Cl	0.8624	0.5223	0.3552	-0.416
Mof_Cl	Cl	0.8552	0.6376	0.4777	-0.416
Mof_Cl	Cl	0.9777	0.6448	0.3624	-0.412
Mof_Cl	Cl	0.01139	0.48861	0.51139	-0.391
Mof_Cl	Cl	0.98861	0.51139	0.48861	-0.328
Mof_Cd	Cd	0.42056	0.57944	0.07944	0.483
Mof_Cd	Cd	0.57944	0.42056	0.92056	0.481
Mof_Cl	Cl	0.3624	0.5223	0.1448	-0.416
Mof_Cl	Cl	0.3552	0.6376	0.0223	-0.421
Mof_Cl	Cl	0.4777	0.6448	0.1376	-0.417
Mof_Cl	Cl	0.6376	0.4777	0.8552	-0.416
Mof_Cl	Cl	0.6448	0.3624	0.9777	-0.412
Mof_Cl	Cl	0.5223	0.3552	0.8624	-0.416
Mof_Cl	Cl	0.48861	0.51139	0.01139	-0.391
Mof_Cl	Cl	0.51139	0.48861	0.98861	-0.328
_end
