data_functionalizedCrystal
_audit_creation_method	'EQeq! by Chris Wilmer'
_symmetry_space_group_name_H-M	'P1'
_symmetry_Int_Tables_number	1
_symmetry_cell_setting	triclinic
loop_
_symmetry_equiv_pos_as_xyz
  x,y,z
_cell_length_a	8.824
_cell_length_b	8.824
_cell_length_c	10.644
_cell_angle_alpha	90
_cell_angle_beta	90
_cell_angle_gamma	120
loop_
_atom_site_label
_atom_site_type_symbol
_atom_site_fract_x
_atom_site_fract_y
_atom_site_fract_z
_atom_site_charge
Mof_Ni	Ni	3.52932e-17	0.95806	0.83333	1.132
Mof_Ni	Ni	0.95806	8.79273e-33	0.5	1.135
Mof_Ni	Ni	0.04194	0.04194	0.16667	1.114
Mof_H 	H 	0.211	0.864	0.729	0.337
Mof_H 	H 	0.512	0.904	0.831	0.152
Mof_H 	H 	0.653	0.789	0.39567	0.343
Mof_H 	H 	0.392	0.488	0.49767	0.149
Mof_H 	H 	0.136	0.347	0.06233	0.34
Mof_H 	H 	0.096	0.608	0.16433	0.154
Mof_H 	H 	0.347	0.136	0.271	0.33
Mof_H 	H 	0.608	0.096	0.169	0.147
Mof_H 	H 	0.864	0.211	0.60433	0.335
Mof_H 	H 	0.904	0.512	0.50233	0.146
Mof_H 	H 	0.789	0.653	0.93767	0.33
Mof_H 	H 	0.488	0.392	0.83567	0.141
Mof_C 	C 	0.4728	0.9445	0.8933	-0.257
Mof_C 	C 	0.3148	0.9426	0.8944	0.321
Mof_C 	C 	0.4717	0.5272	0.55997	-0.288
Mof_C 	C 	0.6278	0.6852	0.56107	0.31
Mof_C 	C 	0.0555	0.5283	0.22663	-0.295
Mof_C 	C 	0.0574	0.3722	0.22773	0.309
Mof_C 	C 	0.5283	0.0555	0.1067	-0.297
Mof_C 	C 	0.3722	0.0574	0.1056	0.302
Mof_C 	C 	0.9445	0.4728	0.44003	-0.233
Mof_C 	C 	0.9426	0.3148	0.43893	0.34
Mof_C 	C 	0.5272	0.4717	0.77337	-0.286
Mof_C 	C 	0.6852	0.6278	0.77227	0.304
Mof_C 	C 	0.2633	0	-0	-0.113
Mof_C 	C 	0.7474	0	-0	0.215
Mof_C 	C 	0.5791	0	-0	0.082
Mof_C 	C 	0.7367	0.7367	0.66667	-0.084
Mof_C 	C 	0.2526	0.2526	0.66667	0.285
Mof_C 	C 	0.4209	0.4209	0.66667	0.092
Mof_C 	C 	1.01577e-17	0.2633	0.33333	-0.135
Mof_C 	C 	-4.92407e-17	0.7474	0.33333	0.217
Mof_C 	C 	-4.92407e-17	0.5791	0.33333	0.064
Mof_O 	O 	0.1959	0.8855	0.7982	-0.634
Mof_O 	O 	0.829	0.0321	0.8969	-0.402
Mof_O 	O 	0.6896	0.8041	0.46487	-0.597
Mof_O 	O 	0.2031	0.171	0.56357	-0.421
Mof_O 	O 	0.1145	0.3104	0.13153	-0.633
Mof_O 	O 	0.9679	0.7969	0.23023	-0.288
Mof_O 	O 	0.3104	0.1145	0.2018	-0.629
Mof_O 	O 	0.7969	0.9679	0.1031	-0.277
Mof_O 	O 	0.8855	0.1959	0.53513	-0.634
Mof_O 	O 	0.0321	0.829	0.43643	-0.383
Mof_O 	O 	0.8041	0.6896	0.86847	-0.597
Mof_O 	O 	0.171	0.2031	0.76977	-0.427
Mof_O 	O 	0.1133	0	-0	-0.43
Mof_O 	O 	0.8867	0.8867	0.66667	-0.349
Mof_O 	O 	-9.64179e-18	0.1133	0.33333	-0.437
_end
