data_functionalizedCrystal
_audit_creation_method	'EQeq! by Chris Wilmer'
_symmetry_space_group_name_H-M	'P1'
_symmetry_Int_Tables_number	1
_symmetry_cell_setting	triclinic
loop_
_symmetry_equiv_pos_as_xyz
  x,y,z
_cell_length_a	8.9508
_cell_length_b	9.0892
_cell_length_c	19.802
_cell_angle_alpha	95.64
_cell_angle_beta	97.68
_cell_angle_gamma	118.25
loop_
_atom_site_label
_atom_site_type_symbol
_atom_site_fract_x
_atom_site_fract_y
_atom_site_fract_z
_atom_site_charge
Mof_Zn	Zn	0.31388	0.44292	0.77086	1.221
Mof_Zn	Zn	0.44	0.6149	0.93621	1.245
Mof_Zn	Zn	0.56632	0.78625	0.10176	1.222
Mof_H 	H 	0.3844	0.9954	0.8368	0.068
Mof_H 	H 	0.4908	0.0675	0.7793	0.074
Mof_H 	H 	0.775	0.0733	0.7782	0.062
Mof_H 	H 	0.8531	0.0052	0.8352	0.042
Mof_H 	H 	0.8436	0.45	0.886	0.049
Mof_H 	H 	0.7738	0.3486	0.8094	0.055
Mof_H 	H 	0.0377	0.7794	0.9854	0.06
Mof_H 	H 	0.1062	0.8744	0.063	0.06
Mof_H 	H 	0.4898	0.2388	0.0331	0.041
Mof_H 	H 	0.3956	0.1713	0.0939	0.054
Mof_H 	H 	0.1068	0.1561	0.0924	0.066
Mof_H 	H 	0.0343	0.2235	0.0339	0.05
Mof_H 	H 	0.9794	0.2086	0.6731	-0.023
Mof_H 	H 	0.9376	0.0354	0.5652	0.092
Mof_H 	H 	0.3009	0.4419	0.5182	0.106
Mof_H 	H 	0.4145	0.5263	0.6345	-0.031
Mof_H 	H 	0.0966	0.2532	0.4256	0.068
Mof_H 	H 	0.8259	0.0039	0.4521	0.051
Mof_H 	H 	0.596	0.7704	0.3538	0.087
Mof_H 	H 	0.4868	0.6682	0.2383	-0.002
Mof_H 	H 	0.8442	0.102	0.1965	0.002
Mof_H 	H 	0.0164	0.127	0.3098	0.092
Mof_C 	C 	0.5024	0.3368	0.8596	0.38
Mof_C 	C 	0.5966	0.2358	0.8733	-0.109
Mof_C 	C 	0.5002	0.0587	0.828	-0.087
Mof_C 	C 	0.606	0.9662	0.8464	-0.095
Mof_C 	C 	0.511	0.7864	0.8042	0.349
Mof_C 	C 	0.7884	0.0646	0.8268	-0.064
Mof_C 	C 	0.8855	0.245	0.8733	-0.131
Mof_C 	C 	0.0638	0.3466	0.8615	0.395
Mof_C 	C 	0.7829	0.337	0.8578	-0.05
Mof_C 	C 	0.812	0.879	0.0116	0.368
Mof_C 	C 	0.0007	0.9896	0.0012	-0.088
Mof_C 	C 	0.0995	0.8905	0.0152	-0.067
Mof_C 	C 	0.2802	0.9886	0.0014	-0.129
Mof_C 	C 	0.3763	0.8937	0.0166	0.414
Mof_C 	C 	0.3772	0.1754	0.0449	-0.047
Mof_C 	C 	0.2749	0.2653	0.0309	-0.131
Mof_C 	C 	0.377	0.4428	0.0736	0.374
Mof_C 	C 	0.099	0.1644	0.0437	-0.051
Mof_C 	C 	0.059	0.238	0.6443	0.119
Mof_C 	C 	0.013	0.152	0.5766	-0.196
Mof_C 	C 	0.082	0.245	0.5266	0.161
Mof_C 	C 	0.237	0.382	0.5494	-0.226
Mof_C 	C 	0.303	0.434	0.6195	0.143
Mof_C 	C 	0.023	0.188	0.4527	-0.111
Mof_C 	C 	0.891	0.068	0.4223	-0.074
Mof_C 	C 	0.8	0.993	0.3457	0.115
Mof_C 	C 	0.651	0.835	0.322	-0.165
Mof_C 	C 	0.586	0.774	0.2527	0.086
Mof_C 	C 	0.806	0.023	0.2258	0.051
Mof_C 	C 	0.897	0.06	0.2973	-0.164
Mof_N 	N 	0.2183	0.3629	0.6663	-0.284
Mof_N 	N 	0.6593	0.863	0.2038	-0.261
Mof_O 	O 	0.4503	0.3377	0.7931	-0.479
Mof_O 	O 	0.4922	0.4198	0.9069	-0.472
Mof_O 	O 	0.455	0.7627	0.7383	-0.316
Mof_O 	O 	0.4303	0.6652	0.8329	-0.584
Mof_O 	O 	0.0917	0.3296	0.8005	-0.48
Mof_O 	O 	0.1768	0.4489	0.9125	-0.452
Mof_O 	O 	0.7051	0.7746	0.9612	-0.451
Mof_O 	O 	0.7862	0.9058	0.0721	-0.478
Mof_O 	O 	0.3841	0.807	0.9649	-0.457
Mof_O 	O 	0.446	0.9091	0.0759	-0.502
Mof_O 	O 	0.4479	0.5633	0.0395	-0.583
Mof_O 	O 	0.3489	0.478	0.1292	-0.351
Mof_H 	H 	0.62265	0.96199	0.90414	0.058
Mof_H 	H 	0.89349	0.2306	0.93001	0.063
Mof_H 	H 	0.60835	0.22277	0.93017	0.06
Mof_H 	H 	0.9926	0.00271	0.94435	0.047
Mof_H 	H 	0.26283	0.27634	0.97381	0.069
Mof_H 	H 	0.26846	0.99686	0.94403	0.072
_end
