data_functionalizedCrystal
_audit_creation_method	'EQeq! by Chris Wilmer'
_symmetry_space_group_name_H-M	'P1'
_symmetry_Int_Tables_number	1
_symmetry_cell_setting	triclinic
loop_
_symmetry_equiv_pos_as_xyz
  x,y,z
_cell_length_a	25.574
_cell_length_b	25.574
_cell_length_c	25.574
_cell_angle_alpha	90
_cell_angle_beta	90
_cell_angle_gamma	90
loop_
_atom_site_label
_atom_site_type_symbol
_atom_site_fract_x
_atom_site_fract_y
_atom_site_fract_z
_atom_site_charge
Mof_N 	N 	0.1981	0.8631	0.0625	-0.201
Mof_N 	N 	0.2192	0.9409	0.1091	-0.178
Mof_H 	H 	0.2146	0.9628	0.1342	0.1
Mof_N 	N 	0.254	0.9519	0.0706	-0.152
Mof_C 	C 	0.1792	0.8136	0.06	0.06
Mof_H 	H 	0.1874	0.7918	0.0321	-0.018
Mof_C 	C 	0.146	0.7959	0.1017	-0.137
Mof_H 	H 	0.127	0.765	0.0988	0.067
Mof_C 	C 	0.143	0.8288	0.1499	0.07
Mof_H 	H 	0.1267	0.8152	0.1794	-0.011
Mof_C 	C 	0.1626	0.8758	0.1521	-0.184
Mof_H 	H 	0.1577	0.8964	0.1816	0.082
Mof_C 	C 	0.1917	0.8955	0.1082	0.147
Mof_C 	C 	0.2741	0.0014	0.0707	0.177
Mof_C 	C 	0.2512	0.0402	0.1132	-0.6
Mof_H 	H 	0.2243	0.0228	0.1328	0.194
Mof_H 	H 	0.2366	0.0703	0.0961	0.198
Mof_H 	H 	0.2786	0.051	0.1364	0.2
Mof_C 	C 	0.3155	0.0129	0.0362	-0.123
Mof_C 	C 	0.3223	0.0679	0.0245	0.028
Mof_H 	H 	0.3005	0.093	0.0391	0.004
Mof_C 	C 	0.3627	0.0819	0.9905	-0.151
Mof_H 	H 	0.3667	0.1162	0.9792	0.075
Mof_C 	C 	0.3948	0.045	0.9751	0.117
Mof_C 	C 	0.3876	0.989	0.9856	-0.139
Mof_H 	H 	0.4103	0.9645	0.971	0.084
Mof_C 	C 	0.3491	0.9738	0.0155	0.058
Mof_H 	H 	0.3439	0.9387	0.0231	-0.019
Mof_N 	N 	0.6981	0.3631	0.5625	-0.202
Mof_N 	N 	0.7192	0.4409	0.6091	-0.178
Mof_H 	H 	0.7146	0.4628	0.6342	0.095
Mof_N 	N 	0.754	0.4519	0.5706	-0.159
Mof_C 	C 	0.6792	0.3136	0.56	0.06
Mof_H 	H 	0.6874	0.2918	0.5321	-0.017
Mof_C 	C 	0.646	0.2959	0.6017	-0.137
Mof_H 	H 	0.627	0.265	0.5988	0.067
Mof_C 	C 	0.643	0.3288	0.6499	0.069
Mof_H 	H 	0.6267	0.3152	0.6794	-0.011
Mof_C 	C 	0.6626	0.3758	0.6521	-0.184
Mof_H 	H 	0.6577	0.3964	0.6816	0.08
Mof_C 	C 	0.6917	0.3955	0.6082	0.145
Mof_C 	C 	0.7741	0.5014	0.5707	0.196
Mof_C 	C 	0.7512	0.5402	0.6132	-0.621
Mof_H 	H 	0.7243	0.5228	0.6328	0.202
Mof_H 	H 	0.7366	0.5703	0.5961	0.205
Mof_H 	H 	0.7786	0.551	0.6364	0.207
Mof_C 	C 	0.8155	0.5129	0.5362	-0.142
Mof_C 	C 	0.8223	0.5679	0.5245	0.065
Mof_H 	H 	0.8005	0.593	0.5391	-0.008
Mof_C 	C 	0.8627	0.5819	0.4905	-0.193
Mof_H 	H 	0.8667	0.6162	0.4792	0.087
Mof_C 	C 	0.8948	0.545	0.4751	0.148
Mof_C 	C 	0.8876	0.489	0.4856	-0.191
Mof_H 	H 	0.9103	0.4645	0.471	0.097
Mof_C 	C 	0.8491	0.4738	0.5155	0.095
Mof_H 	H 	0.8439	0.4387	0.5231	-0.031
Mof_N 	N 	0.3019	0.1369	0.5625	-0.202
Mof_N 	N 	0.2808	0.0591	0.6091	-0.178
Mof_H 	H 	0.2854	0.0372	0.6342	0.09
Mof_N 	N 	0.246	0.0481	0.5706	-0.165
Mof_C 	C 	0.3208	0.1864	0.56	0.059
Mof_H 	H 	0.3126	0.2082	0.5321	-0.017
Mof_C 	C 	0.354	0.2041	0.6017	-0.137
Mof_H 	H 	0.373	0.235	0.5988	0.067
Mof_C 	C 	0.357	0.1712	0.6499	0.068
Mof_H 	H 	0.3733	0.1848	0.6794	-0.011
Mof_C 	C 	0.3374	0.1242	0.6521	-0.183
Mof_H 	H 	0.3423	0.1036	0.6816	0.079
Mof_C 	C 	0.3083	0.1045	0.6082	0.143
Mof_C 	C 	0.2259	0.9986	0.5707	0.204
Mof_C 	C 	0.2488	0.9598	0.6132	-0.629
Mof_H 	H 	0.2757	0.9772	0.6328	0.208
Mof_H 	H 	0.2634	0.9297	0.5961	0.208
Mof_H 	H 	0.2214	0.949	0.6364	0.21
Mof_C 	C 	0.1845	0.9871	0.5362	-0.136
Mof_C 	C 	0.1777	0.9321	0.5245	0.065
Mof_H 	H 	0.1995	0.907	0.5391	-0.009
Mof_C 	C 	0.1373	0.9181	0.4905	-0.197
Mof_H 	H 	0.1333	0.8838	0.4792	0.088
Mof_C 	C 	0.1052	0.955	0.4751	0.156
Mof_C 	C 	0.1124	0.011	0.4856	-0.2
Mof_H 	H 	0.0897	0.0355	0.471	0.096
Mof_C 	C 	0.1509	0.0262	0.5155	0.087
Mof_H 	H 	0.1561	0.0613	0.5231	-0.031
Mof_N 	N 	0.8019	0.6369	0.0625	-0.202
Mof_N 	N 	0.7808	0.5591	0.1091	-0.178
Mof_H 	H 	0.7854	0.5372	0.1342	0.095
Mof_N 	N 	0.746	0.5481	0.0706	-0.158
Mof_C 	C 	0.8208	0.6864	0.06	0.06
Mof_H 	H 	0.8126	0.7082	0.0321	-0.017
Mof_C 	C 	0.854	0.7041	0.1017	-0.137
Mof_H 	H 	0.873	0.735	0.0988	0.069
Mof_C 	C 	0.857	0.6712	0.1499	0.069
Mof_H 	H 	0.8733	0.6848	0.1794	-0.011
Mof_C 	C 	0.8374	0.6242	0.1521	-0.184
Mof_H 	H 	0.8423	0.6036	0.1816	0.08
Mof_C 	C 	0.8083	0.6045	0.1082	0.145
Mof_C 	C 	0.7259	0.4986	0.0707	0.184
Mof_C 	C 	0.7488	0.4598	0.1132	-0.609
Mof_H 	H 	0.7757	0.4772	0.1328	0.198
Mof_H 	H 	0.7634	0.4297	0.0961	0.2
Mof_H 	H 	0.7214	0.449	0.1364	0.203
Mof_C 	C 	0.6845	0.4871	0.0362	-0.118
Mof_C 	C 	0.6777	0.4321	0.0245	0.028
Mof_H 	H 	0.6995	0.407	0.0391	0.003
Mof_C 	C 	0.6373	0.4181	0.9905	-0.155
Mof_H 	H 	0.6333	0.3838	0.9792	0.076
Mof_C 	C 	0.6052	0.455	0.9751	0.126
Mof_C 	C 	0.6124	0.511	0.9856	-0.149
Mof_H 	H 	0.5897	0.5355	0.971	0.084
Mof_C 	C 	0.6509	0.5262	0.0155	0.052
Mof_H 	H 	0.6561	0.5613	0.0231	-0.018
Mof_N 	N 	0.8019	0.3631	0.4375	-0.202
Mof_N 	N 	0.7808	0.4409	0.3909	-0.178
Mof_H 	H 	0.7854	0.4628	0.3658	0.094
Mof_N 	N 	0.746	0.4519	0.4294	-0.16
Mof_C 	C 	0.8208	0.3136	0.44	0.06
Mof_H 	H 	0.8126	0.2918	0.4679	-0.017
Mof_C 	C 	0.854	0.2959	0.3983	-0.137
Mof_H 	H 	0.873	0.265	0.4012	0.068
Mof_C 	C 	0.857	0.3288	0.3501	0.069
Mof_H 	H 	0.8733	0.3152	0.3206	-0.011
Mof_C 	C 	0.8374	0.3758	0.3479	-0.184
Mof_H 	H 	0.8423	0.3964	0.3184	0.08
Mof_C 	C 	0.8083	0.3955	0.3918	0.145
Mof_C 	C 	0.7259	0.5014	0.4293	0.196
Mof_C 	C 	0.7488	0.5402	0.3868	-0.621
Mof_H 	H 	0.7757	0.5228	0.3672	0.202
Mof_H 	H 	0.7634	0.5703	0.4039	0.205
Mof_H 	H 	0.7214	0.551	0.3636	0.206
Mof_C 	C 	0.6845	0.5129	0.4638	-0.142
Mof_C 	C 	0.6777	0.5679	0.4755	0.064
Mof_H 	H 	0.6995	0.593	0.4609	-0.008
Mof_C 	C 	0.6373	0.5819	0.5095	-0.193
Mof_H 	H 	0.6333	0.6162	0.5208	0.087
Mof_C 	C 	0.6052	0.545	0.5249	0.147
Mof_C 	C 	0.6124	0.489	0.5144	-0.191
Mof_H 	H 	0.5897	0.4645	0.529	0.096
Mof_C 	C 	0.6509	0.4738	0.4845	0.095
Mof_H 	H 	0.6561	0.4387	0.4769	-0.031
Mof_N 	N 	0.3019	0.8631	0.9375	-0.199
Mof_N 	N 	0.2808	0.9409	0.8909	-0.178
Mof_H 	H 	0.2854	0.9628	0.8658	0.098
Mof_N 	N 	0.246	0.9519	0.9294	-0.153
Mof_C 	C 	0.3208	0.8136	0.94	0.061
Mof_H 	H 	0.3126	0.7918	0.9679	-0.014
Mof_C 	C 	0.354	0.7959	0.8983	-0.137
Mof_H 	H 	0.373	0.765	0.9012	0.069
Mof_C 	C 	0.357	0.8288	0.8501	0.07
Mof_H 	H 	0.3733	0.8152	0.8206	-0.011
Mof_C 	C 	0.3374	0.8758	0.8479	-0.185
Mof_H 	H 	0.3423	0.8964	0.8184	0.082
Mof_C 	C 	0.3083	0.8955	0.8918	0.148
Mof_C 	C 	0.2259	0.0014	0.9293	0.198
Mof_C 	C 	0.2488	0.0402	0.8868	-0.622
Mof_H 	H 	0.2757	0.0228	0.8672	0.199
Mof_H 	H 	0.2634	0.0703	0.9039	0.205
Mof_H 	H 	0.2214	0.051	0.8636	0.205
Mof_C 	C 	0.1845	0.0129	0.9638	-0.169
Mof_C 	C 	0.1777	0.0679	0.9755	0.097
Mof_H 	H 	0.1995	0.093	0.9609	-0.018
Mof_C 	C 	0.1373	0.0819	0.0095	-0.225
Mof_H 	H 	0.1333	0.1162	0.0208	0.096
Mof_C 	C 	0.1052	0.045	0.0249	0.159
Mof_C 	C 	0.1124	0.989	0.0144	-0.221
Mof_H 	H 	0.0897	0.9645	0.029	0.106
Mof_C 	C 	0.1509	0.9738	0.9845	0.142
Mof_H 	H 	0.1561	0.9387	0.9769	-0.043
Mof_N 	N 	0.6981	0.6369	0.9375	-0.199
Mof_N 	N 	0.7192	0.5591	0.8909	-0.177
Mof_H 	H 	0.7146	0.5372	0.8658	0.094
Mof_N 	N 	0.754	0.5481	0.9294	-0.158
Mof_C 	C 	0.6792	0.6864	0.94	0.061
Mof_H 	H 	0.6874	0.7082	0.9679	-0.013
Mof_C 	C 	0.646	0.7041	0.8983	-0.136
Mof_H 	H 	0.627	0.735	0.9012	0.069
Mof_C 	C 	0.643	0.6712	0.8501	0.07
Mof_H 	H 	0.6267	0.6848	0.8206	-0.011
Mof_C 	C 	0.6626	0.6242	0.8479	-0.184
Mof_H 	H 	0.6577	0.6036	0.8184	0.081
Mof_C 	C 	0.6917	0.6045	0.8918	0.147
Mof_C 	C 	0.7741	0.4986	0.9293	0.207
Mof_C 	C 	0.7512	0.4598	0.8868	-0.632
Mof_H 	H 	0.7243	0.4772	0.8672	0.205
Mof_H 	H 	0.7366	0.4297	0.9039	0.209
Mof_H 	H 	0.7786	0.449	0.8636	0.21
Mof_C 	C 	0.8155	0.4871	0.9638	-0.163
Mof_C 	C 	0.8223	0.4321	0.9755	0.1
Mof_H 	H 	0.8005	0.407	0.9609	-0.019
Mof_C 	C 	0.8627	0.4181	0.0095	-0.23
Mof_H 	H 	0.8667	0.3838	0.0208	0.098
Mof_C 	C 	0.8948	0.455	0.0249	0.169
Mof_C 	C 	0.8876	0.511	0.0144	-0.231
Mof_H 	H 	0.9103	0.5355	0.029	0.109
Mof_C 	C 	0.8491	0.5262	0.9845	0.137
Mof_H 	H 	0.8439	0.5613	0.9769	-0.041
Mof_N 	N 	0.1981	0.1369	0.4375	-0.202
Mof_N 	N 	0.2192	0.0591	0.3909	-0.178
Mof_H 	H 	0.2146	0.0372	0.3658	0.091
Mof_N 	N 	0.254	0.0481	0.4294	-0.165
Mof_C 	C 	0.1792	0.1864	0.44	0.059
Mof_H 	H 	0.1874	0.2082	0.4679	-0.017
Mof_C 	C 	0.146	0.2041	0.3983	-0.137
Mof_H 	H 	0.127	0.235	0.4012	0.066
Mof_C 	C 	0.143	0.1712	0.3501	0.068
Mof_H 	H 	0.1267	0.1848	0.3206	-0.011
Mof_C 	C 	0.1626	0.1242	0.3479	-0.183
Mof_H 	H 	0.1577	0.1036	0.3184	0.079
Mof_C 	C 	0.1917	0.1045	0.3918	0.143
Mof_C 	C 	0.2741	0.9986	0.4293	0.204
Mof_C 	C 	0.2512	0.9598	0.3868	-0.63
Mof_H 	H 	0.2243	0.9772	0.3672	0.208
Mof_H 	H 	0.2366	0.9297	0.4039	0.208
Mof_H 	H 	0.2786	0.949	0.3636	0.21
Mof_C 	C 	0.3155	0.9871	0.4638	-0.136
Mof_C 	C 	0.3223	0.9321	0.4755	0.065
Mof_H 	H 	0.3005	0.907	0.4609	-0.009
Mof_C 	C 	0.3627	0.9181	0.5095	-0.197
Mof_H 	H 	0.3667	0.8838	0.5208	0.088
Mof_C 	C 	0.3948	0.955	0.5249	0.157
Mof_C 	C 	0.3876	0.011	0.5144	-0.201
Mof_H 	H 	0.4103	0.0355	0.529	0.097
Mof_C 	C 	0.3491	0.0262	0.4845	0.088
Mof_H 	H 	0.3439	0.0613	0.4769	-0.03
Mof_N 	N 	0.0625	0.1981	0.8631	-0.202
Mof_N 	N 	0.1091	0.2192	0.9409	-0.179
Mof_H 	H 	0.1342	0.2146	0.9628	0.099
Mof_N 	N 	0.0706	0.254	0.9519	-0.153
Mof_C 	C 	0.06	0.1792	0.8136	0.059
Mof_H 	H 	0.0321	0.1874	0.7918	-0.019
Mof_C 	C 	0.1017	0.146	0.7959	-0.138
Mof_H 	H 	0.0988	0.127	0.765	0.066
Mof_C 	C 	0.1499	0.143	0.8288	0.069
Mof_H 	H 	0.1794	0.1267	0.8152	-0.012
Mof_C 	C 	0.1521	0.1626	0.8758	-0.185
Mof_H 	H 	0.1816	0.1577	0.8964	0.081
Mof_C 	C 	0.1082	0.1917	0.8955	0.146
Mof_C 	C 	0.0707	0.2741	0.0014	0.176
Mof_C 	C 	0.1132	0.2512	0.0402	-0.601
Mof_H 	H 	0.1328	0.2243	0.0228	0.193
Mof_H 	H 	0.0961	0.2366	0.0703	0.197
Mof_H 	H 	0.1364	0.2786	0.051	0.199
Mof_C 	C 	0.0362	0.3155	0.0129	-0.124
Mof_C 	C 	0.0245	0.3223	0.0679	0.027
Mof_H 	H 	0.0391	0.3005	0.093	0.003
Mof_C 	C 	0.9905	0.3627	0.0819	-0.152
Mof_H 	H 	0.9792	0.3667	0.1162	0.075
Mof_C 	C 	0.9751	0.3948	0.045	0.117
Mof_C 	C 	0.9856	0.3876	0.989	-0.139
Mof_H 	H 	0.971	0.4103	0.9645	0.084
Mof_C 	C 	0.0155	0.3491	0.9738	0.058
Mof_H 	H 	0.0231	0.3439	0.9387	-0.019
Mof_N 	N 	0.5625	0.6981	0.3631	-0.202
Mof_N 	N 	0.6091	0.7192	0.4409	-0.178
Mof_H 	H 	0.6342	0.7146	0.4628	0.095
Mof_N 	N 	0.5706	0.754	0.4519	-0.159
Mof_C 	C 	0.56	0.6792	0.3136	0.06
Mof_H 	H 	0.5321	0.6874	0.2918	-0.017
Mof_C 	C 	0.6017	0.646	0.2959	-0.137
Mof_H 	H 	0.5988	0.627	0.265	0.067
Mof_C 	C 	0.6499	0.643	0.3288	0.069
Mof_H 	H 	0.6794	0.6267	0.3152	-0.011
Mof_C 	C 	0.6521	0.6626	0.3758	-0.184
Mof_H 	H 	0.6816	0.6577	0.3964	0.08
Mof_C 	C 	0.6082	0.6917	0.3955	0.145
Mof_C 	C 	0.5707	0.7741	0.5014	0.196
Mof_C 	C 	0.6132	0.7512	0.5402	-0.621
Mof_H 	H 	0.6328	0.7243	0.5228	0.202
Mof_H 	H 	0.5961	0.7366	0.5703	0.205
Mof_H 	H 	0.6364	0.7786	0.551	0.207
Mof_C 	C 	0.5362	0.8155	0.5129	-0.142
Mof_C 	C 	0.5245	0.8223	0.5679	0.065
Mof_H 	H 	0.5391	0.8005	0.593	-0.008
Mof_C 	C 	0.4905	0.8627	0.5819	-0.193
Mof_H 	H 	0.4792	0.8667	0.6162	0.087
Mof_C 	C 	0.4751	0.8948	0.545	0.148
Mof_C 	C 	0.4856	0.8876	0.489	-0.191
Mof_H 	H 	0.471	0.9103	0.4645	0.097
Mof_C 	C 	0.5155	0.8491	0.4738	0.095
Mof_H 	H 	0.5231	0.8439	0.4387	-0.031
Mof_N 	N 	0.5625	0.3019	0.1369	-0.202
Mof_N 	N 	0.6091	0.2808	0.0591	-0.178
Mof_H 	H 	0.6342	0.2854	0.0372	0.09
Mof_N 	N 	0.5706	0.246	0.0481	-0.165
Mof_C 	C 	0.56	0.3208	0.1864	0.059
Mof_H 	H 	0.5321	0.3126	0.2082	-0.017
Mof_C 	C 	0.6017	0.354	0.2041	-0.137
Mof_H 	H 	0.5988	0.373	0.235	0.067
Mof_C 	C 	0.6499	0.357	0.1712	0.068
Mof_H 	H 	0.6794	0.3733	0.1848	-0.011
Mof_C 	C 	0.6521	0.3374	0.1242	-0.183
Mof_H 	H 	0.6816	0.3423	0.1036	0.079
Mof_C 	C 	0.6082	0.3083	0.1045	0.143
Mof_C 	C 	0.5707	0.2259	0.9986	0.204
Mof_C 	C 	0.6132	0.2488	0.9598	-0.629
Mof_H 	H 	0.6328	0.2757	0.9772	0.208
Mof_H 	H 	0.5961	0.2634	0.9297	0.208
Mof_H 	H 	0.6364	0.2214	0.949	0.21
Mof_C 	C 	0.5362	0.1845	0.9871	-0.136
Mof_C 	C 	0.5245	0.1777	0.9321	0.065
Mof_H 	H 	0.5391	0.1995	0.907	-0.009
Mof_C 	C 	0.4905	0.1373	0.9181	-0.197
Mof_H 	H 	0.4792	0.1333	0.8838	0.088
Mof_C 	C 	0.4751	0.1052	0.955	0.156
Mof_C 	C 	0.4856	0.1124	0.011	-0.2
Mof_H 	H 	0.471	0.0897	0.0355	0.096
Mof_C 	C 	0.5155	0.1509	0.0262	0.087
Mof_H 	H 	0.5231	0.1561	0.0613	-0.031
Mof_N 	N 	0.0625	0.8019	0.6369	-0.202
Mof_N 	N 	0.1091	0.7808	0.5591	-0.178
Mof_H 	H 	0.1342	0.7854	0.5372	0.095
Mof_N 	N 	0.0706	0.746	0.5481	-0.158
Mof_C 	C 	0.06	0.8208	0.6864	0.06
Mof_H 	H 	0.0321	0.8126	0.7082	-0.017
Mof_C 	C 	0.1017	0.854	0.7041	-0.137
Mof_H 	H 	0.0988	0.873	0.735	0.069
Mof_C 	C 	0.1499	0.857	0.6712	0.069
Mof_H 	H 	0.1794	0.8733	0.6848	-0.011
Mof_C 	C 	0.1521	0.8374	0.6242	-0.184
Mof_H 	H 	0.1816	0.8423	0.6036	0.08
Mof_C 	C 	0.1082	0.8083	0.6045	0.145
Mof_C 	C 	0.0707	0.7259	0.4986	0.184
Mof_C 	C 	0.1132	0.7488	0.4598	-0.609
Mof_H 	H 	0.1328	0.7757	0.4772	0.198
Mof_H 	H 	0.0961	0.7634	0.4297	0.2
Mof_H 	H 	0.1364	0.7214	0.449	0.203
Mof_C 	C 	0.0362	0.6845	0.4871	-0.118
Mof_C 	C 	0.0245	0.6777	0.4321	0.028
Mof_H 	H 	0.0391	0.6995	0.407	0.003
Mof_C 	C 	0.9905	0.6373	0.4181	-0.155
Mof_H 	H 	0.9792	0.6333	0.3838	0.076
Mof_C 	C 	0.9751	0.6052	0.455	0.126
Mof_C 	C 	0.9856	0.6124	0.511	-0.149
Mof_H 	H 	0.971	0.5897	0.5355	0.084
Mof_C 	C 	0.0155	0.6509	0.5262	0.052
Mof_H 	H 	0.0231	0.6561	0.5613	-0.018
Mof_N 	N 	0.4375	0.8019	0.3631	-0.202
Mof_N 	N 	0.3909	0.7808	0.4409	-0.178
Mof_H 	H 	0.3658	0.7854	0.4628	0.094
Mof_N 	N 	0.4294	0.746	0.4519	-0.16
Mof_C 	C 	0.44	0.8208	0.3136	0.06
Mof_H 	H 	0.4679	0.8126	0.2918	-0.017
Mof_C 	C 	0.3983	0.854	0.2959	-0.137
Mof_H 	H 	0.4012	0.873	0.265	0.068
Mof_C 	C 	0.3501	0.857	0.3288	0.069
Mof_H 	H 	0.3206	0.8733	0.3152	-0.011
Mof_C 	C 	0.3479	0.8374	0.3758	-0.184
Mof_H 	H 	0.3184	0.8423	0.3964	0.08
Mof_C 	C 	0.3918	0.8083	0.3955	0.145
Mof_C 	C 	0.4293	0.7259	0.5014	0.196
Mof_C 	C 	0.3868	0.7488	0.5402	-0.621
Mof_H 	H 	0.3672	0.7757	0.5228	0.202
Mof_H 	H 	0.4039	0.7634	0.5703	0.205
Mof_H 	H 	0.3636	0.7214	0.551	0.206
Mof_C 	C 	0.4638	0.6845	0.5129	-0.142
Mof_C 	C 	0.4755	0.6777	0.5679	0.064
Mof_H 	H 	0.4609	0.6995	0.593	-0.008
Mof_C 	C 	0.5095	0.6373	0.5819	-0.193
Mof_H 	H 	0.5208	0.6333	0.6162	0.087
Mof_C 	C 	0.5249	0.6052	0.545	0.147
Mof_C 	C 	0.5144	0.6124	0.489	-0.191
Mof_H 	H 	0.529	0.5897	0.4645	0.096
Mof_C 	C 	0.4845	0.6509	0.4738	0.095
Mof_H 	H 	0.4769	0.6561	0.4387	-0.031
Mof_N 	N 	0.9375	0.3019	0.8631	-0.199
Mof_N 	N 	0.8909	0.2808	0.9409	-0.178
Mof_H 	H 	0.8658	0.2854	0.9628	0.098
Mof_N 	N 	0.9294	0.246	0.9519	-0.153
Mof_C 	C 	0.94	0.3208	0.8136	0.061
Mof_H 	H 	0.9679	0.3126	0.7918	-0.014
Mof_C 	C 	0.8983	0.354	0.7959	-0.137
Mof_H 	H 	0.9012	0.373	0.765	0.069
Mof_C 	C 	0.8501	0.357	0.8288	0.07
Mof_H 	H 	0.8206	0.3733	0.8152	-0.011
Mof_C 	C 	0.8479	0.3374	0.8758	-0.185
Mof_H 	H 	0.8184	0.3423	0.8964	0.082
Mof_C 	C 	0.8918	0.3083	0.8955	0.148
Mof_C 	C 	0.9293	0.2259	0.0014	0.198
Mof_C 	C 	0.8868	0.2488	0.0402	-0.622
Mof_H 	H 	0.8672	0.2757	0.0228	0.199
Mof_H 	H 	0.9039	0.2634	0.0703	0.205
Mof_H 	H 	0.8636	0.2214	0.051	0.205
Mof_C 	C 	0.9638	0.1845	0.0129	-0.169
Mof_C 	C 	0.9755	0.1777	0.0679	0.097
Mof_H 	H 	0.9609	0.1995	0.093	-0.018
Mof_C 	C 	0.0095	0.1373	0.0819	-0.225
Mof_H 	H 	0.0208	0.1333	0.1162	0.096
Mof_C 	C 	0.0249	0.1052	0.045	0.159
Mof_C 	C 	0.0144	0.1124	0.989	-0.221
Mof_H 	H 	0.029	0.0897	0.9645	0.106
Mof_C 	C 	0.9845	0.1509	0.9738	0.142
Mof_H 	H 	0.9769	0.1561	0.9387	-0.043
Mof_N 	N 	0.9375	0.6981	0.6369	-0.199
Mof_N 	N 	0.8909	0.7192	0.5591	-0.177
Mof_H 	H 	0.8658	0.7146	0.5372	0.094
Mof_N 	N 	0.9294	0.754	0.5481	-0.158
Mof_C 	C 	0.94	0.6792	0.6864	0.061
Mof_H 	H 	0.9679	0.6874	0.7082	-0.013
Mof_C 	C 	0.8983	0.646	0.7041	-0.136
Mof_H 	H 	0.9012	0.627	0.735	0.069
Mof_C 	C 	0.8501	0.643	0.6712	0.07
Mof_H 	H 	0.8206	0.6267	0.6848	-0.011
Mof_C 	C 	0.8479	0.6626	0.6242	-0.184
Mof_H 	H 	0.8184	0.6577	0.6036	0.081
Mof_C 	C 	0.8918	0.6917	0.6045	0.147
Mof_C 	C 	0.9293	0.7741	0.4986	0.207
Mof_C 	C 	0.8868	0.7512	0.4598	-0.632
Mof_H 	H 	0.8672	0.7243	0.4772	0.205
Mof_H 	H 	0.9039	0.7366	0.4297	0.209
Mof_H 	H 	0.8636	0.7786	0.449	0.21
Mof_C 	C 	0.9638	0.8155	0.4871	-0.163
Mof_C 	C 	0.9755	0.8223	0.4321	0.1
Mof_H 	H 	0.9609	0.8005	0.407	-0.019
Mof_C 	C 	0.0095	0.8627	0.4181	-0.23
Mof_H 	H 	0.0208	0.8667	0.3838	0.098
Mof_C 	C 	0.0249	0.8948	0.455	0.169
Mof_C 	C 	0.0144	0.8876	0.511	-0.231
Mof_H 	H 	0.029	0.9103	0.5355	0.109
Mof_C 	C 	0.9845	0.8491	0.5262	0.137
Mof_H 	H 	0.9769	0.8439	0.5613	-0.041
Mof_N 	N 	0.4375	0.1981	0.1369	-0.202
Mof_N 	N 	0.3909	0.2192	0.0591	-0.178
Mof_H 	H 	0.3658	0.2146	0.0372	0.091
Mof_N 	N 	0.4294	0.254	0.0481	-0.165
Mof_C 	C 	0.44	0.1792	0.1864	0.059
Mof_H 	H 	0.4679	0.1874	0.2082	-0.017
Mof_C 	C 	0.3983	0.146	0.2041	-0.137
Mof_H 	H 	0.4012	0.127	0.235	0.066
Mof_C 	C 	0.3501	0.143	0.1712	0.068
Mof_H 	H 	0.3206	0.1267	0.1848	-0.011
Mof_C 	C 	0.3479	0.1626	0.1242	-0.183
Mof_H 	H 	0.3184	0.1577	0.1036	0.079
Mof_C 	C 	0.3918	0.1917	0.1045	0.143
Mof_C 	C 	0.4293	0.2741	0.9986	0.204
Mof_C 	C 	0.3868	0.2512	0.9598	-0.63
Mof_H 	H 	0.3672	0.2243	0.9772	0.208
Mof_H 	H 	0.4039	0.2366	0.9297	0.208
Mof_H 	H 	0.3636	0.2786	0.949	0.21
Mof_C 	C 	0.4638	0.3155	0.9871	-0.136
Mof_C 	C 	0.4755	0.3223	0.9321	0.065
Mof_H 	H 	0.4609	0.3005	0.907	-0.009
Mof_C 	C 	0.5095	0.3627	0.9181	-0.197
Mof_H 	H 	0.5208	0.3667	0.8838	0.088
Mof_C 	C 	0.5249	0.3948	0.955	0.157
Mof_C 	C 	0.5144	0.3876	0.011	-0.201
Mof_H 	H 	0.529	0.4103	0.0355	0.097
Mof_C 	C 	0.4845	0.3491	0.0262	0.088
Mof_H 	H 	0.4769	0.3439	0.0613	-0.03
Mof_N 	N 	0.8631	0.0625	0.1981	-0.202
Mof_N 	N 	0.9409	0.1091	0.2192	-0.179
Mof_H 	H 	0.9628	0.1342	0.2146	0.099
Mof_N 	N 	0.9519	0.0706	0.254	-0.153
Mof_C 	C 	0.8136	0.06	0.1792	0.059
Mof_H 	H 	0.7918	0.0321	0.1874	-0.019
Mof_C 	C 	0.7959	0.1017	0.146	-0.138
Mof_H 	H 	0.765	0.0988	0.127	0.066
Mof_C 	C 	0.8288	0.1499	0.143	0.069
Mof_H 	H 	0.8152	0.1794	0.1267	-0.012
Mof_C 	C 	0.8758	0.1521	0.1626	-0.185
Mof_H 	H 	0.8964	0.1816	0.1577	0.081
Mof_C 	C 	0.8955	0.1082	0.1917	0.146
Mof_C 	C 	0.0014	0.0707	0.2741	0.176
Mof_C 	C 	0.0402	0.1132	0.2512	-0.601
Mof_H 	H 	0.0228	0.1328	0.2243	0.193
Mof_H 	H 	0.0703	0.0961	0.2366	0.197
Mof_H 	H 	0.051	0.1364	0.2786	0.199
Mof_C 	C 	0.0129	0.0362	0.3155	-0.124
Mof_C 	C 	0.0679	0.0245	0.3223	0.027
Mof_H 	H 	0.093	0.0391	0.3005	0.003
Mof_C 	C 	0.0819	0.9905	0.3627	-0.152
Mof_H 	H 	0.1162	0.9792	0.3667	0.075
Mof_C 	C 	0.045	0.9751	0.3948	0.117
Mof_C 	C 	0.989	0.9856	0.3876	-0.139
Mof_H 	H 	0.9645	0.971	0.4103	0.084
Mof_C 	C 	0.9738	0.0155	0.3491	0.058
Mof_H 	H 	0.9387	0.0231	0.3439	-0.019
Mof_N 	N 	0.3631	0.5625	0.6981	-0.202
Mof_N 	N 	0.4409	0.6091	0.7192	-0.178
Mof_H 	H 	0.4628	0.6342	0.7146	0.095
Mof_N 	N 	0.4519	0.5706	0.754	-0.159
Mof_C 	C 	0.3136	0.56	0.6792	0.06
Mof_H 	H 	0.2918	0.5321	0.6874	-0.017
Mof_C 	C 	0.2959	0.6017	0.646	-0.137
Mof_H 	H 	0.265	0.5988	0.627	0.067
Mof_C 	C 	0.3288	0.6499	0.643	0.069
Mof_H 	H 	0.3152	0.6794	0.6267	-0.011
Mof_C 	C 	0.3758	0.6521	0.6626	-0.184
Mof_H 	H 	0.3964	0.6816	0.6577	0.08
Mof_C 	C 	0.3955	0.6082	0.6917	0.145
Mof_C 	C 	0.5014	0.5707	0.7741	0.196
Mof_C 	C 	0.5402	0.6132	0.7512	-0.621
Mof_H 	H 	0.5228	0.6328	0.7243	0.202
Mof_H 	H 	0.5703	0.5961	0.7366	0.205
Mof_H 	H 	0.551	0.6364	0.7786	0.207
Mof_C 	C 	0.5129	0.5362	0.8155	-0.142
Mof_C 	C 	0.5679	0.5245	0.8223	0.065
Mof_H 	H 	0.593	0.5391	0.8005	-0.008
Mof_C 	C 	0.5819	0.4905	0.8627	-0.193
Mof_H 	H 	0.6162	0.4792	0.8667	0.087
Mof_C 	C 	0.545	0.4751	0.8948	0.148
Mof_C 	C 	0.489	0.4856	0.8876	-0.191
Mof_H 	H 	0.4645	0.471	0.9103	0.097
Mof_C 	C 	0.4738	0.5155	0.8491	0.095
Mof_H 	H 	0.4387	0.5231	0.8439	-0.031
Mof_N 	N 	0.1369	0.5625	0.3019	-0.202
Mof_N 	N 	0.0591	0.6091	0.2808	-0.178
Mof_H 	H 	0.0372	0.6342	0.2854	0.09
Mof_N 	N 	0.0481	0.5706	0.246	-0.165
Mof_C 	C 	0.1864	0.56	0.3208	0.059
Mof_H 	H 	0.2082	0.5321	0.3126	-0.017
Mof_C 	C 	0.2041	0.6017	0.354	-0.137
Mof_H 	H 	0.235	0.5988	0.373	0.067
Mof_C 	C 	0.1712	0.6499	0.357	0.068
Mof_H 	H 	0.1848	0.6794	0.3733	-0.011
Mof_C 	C 	0.1242	0.6521	0.3374	-0.183
Mof_H 	H 	0.1036	0.6816	0.3423	0.079
Mof_C 	C 	0.1045	0.6082	0.3083	0.143
Mof_C 	C 	0.9986	0.5707	0.2259	0.204
Mof_C 	C 	0.9598	0.6132	0.2488	-0.629
Mof_H 	H 	0.9772	0.6328	0.2757	0.208
Mof_H 	H 	0.9297	0.5961	0.2634	0.208
Mof_H 	H 	0.949	0.6364	0.2214	0.21
Mof_C 	C 	0.9871	0.5362	0.1845	-0.136
Mof_C 	C 	0.9321	0.5245	0.1777	0.065
Mof_H 	H 	0.907	0.5391	0.1995	-0.009
Mof_C 	C 	0.9181	0.4905	0.1373	-0.197
Mof_H 	H 	0.8838	0.4792	0.1333	0.088
Mof_C 	C 	0.955	0.4751	0.1052	0.156
Mof_C 	C 	0.011	0.4856	0.1124	-0.2
Mof_H 	H 	0.0355	0.471	0.0897	0.096
Mof_C 	C 	0.0262	0.5155	0.1509	0.087
Mof_H 	H 	0.0613	0.5231	0.1561	-0.031
Mof_N 	N 	0.6369	0.0625	0.8019	-0.202
Mof_N 	N 	0.5591	0.1091	0.7808	-0.178
Mof_H 	H 	0.5372	0.1342	0.7854	0.095
Mof_N 	N 	0.5481	0.0706	0.746	-0.158
Mof_C 	C 	0.6864	0.06	0.8208	0.06
Mof_H 	H 	0.7082	0.0321	0.8126	-0.017
Mof_C 	C 	0.7041	0.1017	0.854	-0.137
Mof_H 	H 	0.735	0.0988	0.873	0.069
Mof_C 	C 	0.6712	0.1499	0.857	0.069
Mof_H 	H 	0.6848	0.1794	0.8733	-0.011
Mof_C 	C 	0.6242	0.1521	0.8374	-0.184
Mof_H 	H 	0.6036	0.1816	0.8423	0.08
Mof_C 	C 	0.6045	0.1082	0.8083	0.145
Mof_C 	C 	0.4986	0.0707	0.7259	0.184
Mof_C 	C 	0.4598	0.1132	0.7488	-0.609
Mof_H 	H 	0.4772	0.1328	0.7757	0.198
Mof_H 	H 	0.4297	0.0961	0.7634	0.2
Mof_H 	H 	0.449	0.1364	0.7214	0.203
Mof_C 	C 	0.4871	0.0362	0.6845	-0.118
Mof_C 	C 	0.4321	0.0245	0.6777	0.028
Mof_H 	H 	0.407	0.0391	0.6995	0.003
Mof_C 	C 	0.4181	0.9905	0.6373	-0.155
Mof_H 	H 	0.3838	0.9792	0.6333	0.076
Mof_C 	C 	0.455	0.9751	0.6052	0.126
Mof_C 	C 	0.511	0.9856	0.6124	-0.149
Mof_H 	H 	0.5355	0.971	0.5897	0.084
Mof_C 	C 	0.5262	0.0155	0.6509	0.052
Mof_H 	H 	0.5613	0.0231	0.6561	-0.018
Mof_N 	N 	0.3631	0.4375	0.8019	-0.202
Mof_N 	N 	0.4409	0.3909	0.7808	-0.178
Mof_H 	H 	0.4628	0.3658	0.7854	0.094
Mof_N 	N 	0.4519	0.4294	0.746	-0.16
Mof_C 	C 	0.3136	0.44	0.8208	0.06
Mof_H 	H 	0.2918	0.4679	0.8126	-0.017
Mof_C 	C 	0.2959	0.3983	0.854	-0.137
Mof_H 	H 	0.265	0.4012	0.873	0.068
Mof_C 	C 	0.3288	0.3501	0.857	0.069
Mof_H 	H 	0.3152	0.3206	0.8733	-0.011
Mof_C 	C 	0.3758	0.3479	0.8374	-0.184
Mof_H 	H 	0.3964	0.3184	0.8423	0.08
Mof_C 	C 	0.3955	0.3918	0.8083	0.145
Mof_C 	C 	0.5014	0.4293	0.7259	0.196
Mof_C 	C 	0.5402	0.3868	0.7488	-0.621
Mof_H 	H 	0.5228	0.3672	0.7757	0.202
Mof_H 	H 	0.5703	0.4039	0.7634	0.205
Mof_H 	H 	0.551	0.3636	0.7214	0.206
Mof_C 	C 	0.5129	0.4638	0.6845	-0.142
Mof_C 	C 	0.5679	0.4755	0.6777	0.064
Mof_H 	H 	0.593	0.4609	0.6995	-0.008
Mof_C 	C 	0.5819	0.5095	0.6373	-0.193
Mof_H 	H 	0.6162	0.5208	0.6333	0.087
Mof_C 	C 	0.545	0.5249	0.6052	0.147
Mof_C 	C 	0.489	0.5144	0.6124	-0.191
Mof_H 	H 	0.4645	0.529	0.5897	0.096
Mof_C 	C 	0.4738	0.4845	0.6509	0.095
Mof_H 	H 	0.4387	0.4769	0.6561	-0.031
Mof_N 	N 	0.8631	0.9375	0.3019	-0.199
Mof_N 	N 	0.9409	0.8909	0.2808	-0.178
Mof_H 	H 	0.9628	0.8658	0.2854	0.098
Mof_N 	N 	0.9519	0.9294	0.246	-0.153
Mof_C 	C 	0.8136	0.94	0.3208	0.061
Mof_H 	H 	0.7918	0.9679	0.3126	-0.014
Mof_C 	C 	0.7959	0.8983	0.354	-0.137
Mof_H 	H 	0.765	0.9012	0.373	0.069
Mof_C 	C 	0.8288	0.8501	0.357	0.07
Mof_H 	H 	0.8152	0.8206	0.3733	-0.011
Mof_C 	C 	0.8758	0.8479	0.3374	-0.185
Mof_H 	H 	0.8964	0.8184	0.3423	0.082
Mof_C 	C 	0.8955	0.8918	0.3083	0.148
Mof_C 	C 	0.0014	0.9293	0.2259	0.198
Mof_C 	C 	0.0402	0.8868	0.2488	-0.622
Mof_H 	H 	0.0228	0.8672	0.2757	0.199
Mof_H 	H 	0.0703	0.9039	0.2634	0.205
Mof_H 	H 	0.051	0.8636	0.2214	0.205
Mof_C 	C 	0.0129	0.9638	0.1845	-0.169
Mof_C 	C 	0.0679	0.9755	0.1777	0.097
Mof_H 	H 	0.093	0.9609	0.1995	-0.018
Mof_C 	C 	0.0819	0.0095	0.1373	-0.225
Mof_H 	H 	0.1162	0.0208	0.1333	0.096
Mof_C 	C 	0.045	0.0249	0.1052	0.159
Mof_C 	C 	0.989	0.0144	0.1124	-0.221
Mof_H 	H 	0.9645	0.029	0.0897	0.106
Mof_C 	C 	0.9738	0.9845	0.1509	0.142
Mof_H 	H 	0.9387	0.9769	0.1561	-0.043
Mof_N 	N 	0.6369	0.9375	0.6981	-0.199
Mof_N 	N 	0.5591	0.8909	0.7192	-0.177
Mof_H 	H 	0.5372	0.8658	0.7146	0.094
Mof_N 	N 	0.5481	0.9294	0.754	-0.158
Mof_C 	C 	0.6864	0.94	0.6792	0.061
Mof_H 	H 	0.7082	0.9679	0.6874	-0.013
Mof_C 	C 	0.7041	0.8983	0.646	-0.136
Mof_H 	H 	0.735	0.9012	0.627	0.069
Mof_C 	C 	0.6712	0.8501	0.643	0.07
Mof_H 	H 	0.6848	0.8206	0.6267	-0.011
Mof_C 	C 	0.6242	0.8479	0.6626	-0.184
Mof_H 	H 	0.6036	0.8184	0.6577	0.081
Mof_C 	C 	0.6045	0.8918	0.6917	0.147
Mof_C 	C 	0.4986	0.9293	0.7741	0.207
Mof_C 	C 	0.4598	0.8868	0.7512	-0.632
Mof_H 	H 	0.4772	0.8672	0.7243	0.205
Mof_H 	H 	0.4297	0.9039	0.7366	0.209
Mof_H 	H 	0.449	0.8636	0.7786	0.21
Mof_C 	C 	0.4871	0.9638	0.8155	-0.163
Mof_C 	C 	0.4321	0.9755	0.8223	0.1
Mof_H 	H 	0.407	0.9609	0.8005	-0.019
Mof_C 	C 	0.4181	0.0095	0.8627	-0.23
Mof_H 	H 	0.3838	0.0208	0.8667	0.098
Mof_C 	C 	0.455	0.0249	0.8948	0.169
Mof_C 	C 	0.511	0.0144	0.8876	-0.231
Mof_H 	H 	0.5355	0.029	0.9103	0.109
Mof_C 	C 	0.5262	0.9845	0.8491	0.137
Mof_H 	H 	0.5613	0.9769	0.8439	-0.041
Mof_N 	N 	0.1369	0.4375	0.1981	-0.202
Mof_N 	N 	0.0591	0.3909	0.2192	-0.178
Mof_H 	H 	0.0372	0.3658	0.2146	0.091
Mof_N 	N 	0.0481	0.4294	0.254	-0.165
Mof_C 	C 	0.1864	0.44	0.1792	0.059
Mof_H 	H 	0.2082	0.4679	0.1874	-0.017
Mof_C 	C 	0.2041	0.3983	0.146	-0.137
Mof_H 	H 	0.235	0.4012	0.127	0.066
Mof_C 	C 	0.1712	0.3501	0.143	0.068
Mof_H 	H 	0.1848	0.3206	0.1267	-0.011
Mof_C 	C 	0.1242	0.3479	0.1626	-0.183
Mof_H 	H 	0.1036	0.3184	0.1577	0.079
Mof_C 	C 	0.1045	0.3918	0.1917	0.143
Mof_C 	C 	0.9986	0.4293	0.2741	0.204
Mof_C 	C 	0.9598	0.3868	0.2512	-0.63
Mof_H 	H 	0.9772	0.3672	0.2243	0.208
Mof_H 	H 	0.9297	0.4039	0.2366	0.208
Mof_H 	H 	0.949	0.3636	0.2786	0.21
Mof_C 	C 	0.9871	0.4638	0.3155	-0.136
Mof_C 	C 	0.9321	0.4755	0.3223	0.065
Mof_H 	H 	0.907	0.4609	0.3005	-0.009
Mof_C 	C 	0.9181	0.5095	0.3627	-0.197
Mof_H 	H 	0.8838	0.5208	0.3667	0.088
Mof_C 	C 	0.955	0.5249	0.3948	0.157
Mof_C 	C 	0.011	0.5144	0.3876	-0.201
Mof_H 	H 	0.0355	0.529	0.4103	0.097
Mof_C 	C 	0.0262	0.4845	0.3491	0.088
Mof_H 	H 	0.0613	0.4769	0.3439	-0.03
Mof_Ag	Ag	0.25	0.89133	-0	0.619
Mof_Ag	Ag	0.25	0.10867	0.5	0.628
Mof_Ag	Ag	0.75	0.39133	0.5	0.632
Mof_Ag	Ag	0.75	0.60867	-0	0.617
Mof_Ag	Ag	-2.08057e-32	0.25	0.89133	0.619
Mof_Ag	Ag	0.5	0.25	0.10867	0.628
Mof_Ag	Ag	0.5	0.75	0.39133	0.632
Mof_Ag	Ag	-3.75476e-33	0.75	0.60867	0.617
Mof_Ag	Ag	0.89133	-3.01845e-33	0.25	0.619
Mof_Ag	Ag	0.10867	0.5	0.25	0.628
Mof_Ag	Ag	0.39133	0.5	0.75	0.632
Mof_Ag	Ag	0.60867	-6.03691e-33	0.75	0.617
Mof_N 	N 	0.4404	0.0596	0.9404	-0.168
Mof_N 	N 	0.9404	0.5596	0.4404	-0.166
Mof_N 	N 	0.0596	0.9404	0.4404	-0.168
Mof_N 	N 	0.5596	0.4404	0.9404	-0.166
Mof_N 	N 	0.5596	0.5596	0.5596	-0.168
Mof_N 	N 	0.0596	0.0596	0.0596	-0.175
Mof_N 	N 	0.9404	0.4404	0.0596	-0.168
Mof_N 	N 	0.4404	0.9404	0.5596	-0.166
_end
