data_functionalizedCrystal
_audit_creation_method	'EQeq! by Chris Wilmer'
_symmetry_space_group_name_H-M	'P1'
_symmetry_Int_Tables_number	1
_symmetry_cell_setting	triclinic
loop_
_symmetry_equiv_pos_as_xyz
  x,y,z
_cell_length_a	8.9193
_cell_length_b	12.1268
_cell_length_c	16.7341
_cell_angle_alpha	90
_cell_angle_beta	90
_cell_angle_gamma	109.184
loop_
_atom_site_label
_atom_site_type_symbol
_atom_site_fract_x
_atom_site_fract_y
_atom_site_fract_z
_atom_site_charge
Mof_Pr	Pr	0.93168	0.95175	0.38329	2.594
Mof_Pr	Pr	0.43168	0.95175	0.11671	2.611
Mof_Pr	Pr	0.56832	0.04825	0.88329	2.611
Mof_Pr	Pr	0.06832	0.04825	0.61671	2.594
Mof_H 	H 	0.3187	0.6433	0.1011	0.081
Mof_H 	H 	0.9023	0.3491	0.6923	0.101
Mof_H 	H 	0.4126	0.723	0.3217	0.115
Mof_H 	H 	0.8187	0.6433	0.3989	0.081
Mof_H 	H 	0.4023	0.3491	0.8077	0.102
Mof_H 	H 	0.5097	0.6643	0.9269	0.044
Mof_H 	H 	0.5289	0.7173	0.5688	0.129
Mof_H 	H 	0.2044	0.5047	0.4145	0.078
Mof_H 	H 	0.0925	0.5265	0.7243	0.058
Mof_H 	H 	0.4711	0.2827	0.4312	0.129
Mof_H 	H 	0.0289	0.7173	0.9312	0.133
Mof_H 	H 	0.8266	0.8161	0.1663	0.107
Mof_H 	H 	0.5977	0.6509	0.1923	0.102
Mof_H 	H 	0.8809	0.364	0.0352	0.133
Mof_H 	H 	0.3266	0.8161	0.3337	0.105
Mof_H 	H 	0.8762	0.8598	0.9894	0.082
Mof_H 	H 	0.7044	0.5047	0.0855	0.078
Mof_H 	H 	0.7956	0.4953	0.5855	0.078
Mof_H 	H 	0.7424	0.7947	0.9289	0.064
Mof_H 	H 	0.9075	0.4735	0.2757	0.058
Mof_H 	H 	0.0874	0.277	0.8217	0.117
Mof_H 	H 	0.5874	0.277	0.6783	0.115
Mof_H 	H 	0.3726	0.5325	0.5683	0.052
Mof_H 	H 	0.0977	0.6509	0.3077	0.101
Mof_H 	H 	0.2576	0.2053	0.0711	0.064
Mof_H 	H 	0.9903	0.3357	0.4269	0.045
Mof_H 	H 	0.5925	0.5265	0.7757	0.056
Mof_H 	H 	0.7576	0.2053	0.4289	0.072
Mof_H 	H 	0.4903	0.3357	0.0731	0.044
Mof_H 	H 	0.1238	0.1402	0.0106	0.082
Mof_H 	H 	0.2424	0.7947	0.5711	0.072
Mof_H 	H 	0.8726	0.5325	0.9317	0.052
Mof_H 	H 	0.9126	0.723	0.1783	0.117
Mof_H 	H 	0.1191	0.636	0.9648	0.133
Mof_H 	H 	0.4075	0.4735	0.2243	0.056
Mof_H 	H 	0.6238	0.1402	0.4894	0.089
Mof_H 	H 	0.3762	0.8598	0.5106	0.089
Mof_H 	H 	0.6274	0.4675	0.4317	0.052
Mof_H 	H 	0.2956	0.4953	0.9145	0.078
Mof_H 	H 	0.9711	0.2827	0.0688	0.133
Mof_H 	H 	0.0097	0.6643	0.5731	0.045
Mof_H 	H 	0.6813	0.3567	0.8989	0.081
Mof_H 	H 	0.1813	0.3567	0.6011	0.081
Mof_H 	H 	0.1734	0.1839	0.8337	0.107
Mof_H 	H 	0.6734	0.1839	0.6663	0.105
Mof_H 	H 	0.1274	0.4675	0.0683	0.052
Mof_H 	H 	0.3809	0.364	0.4648	0.131
Mof_H 	H 	0.6191	0.636	0.5352	0.131
Mof_C 	C 	0.6304	0.6015	0.00718	0.133
Mof_C 	C 	0.2679	0.8011	0.94105	0.582
Mof_C 	C 	0.6203	0.5045	0.38383	-0.054
Mof_C 	C 	0.2693	0.8049	0.5149	-0.222
Mof_C 	C 	0.8763	0.3045	0.07469	-0.309
Mof_C 	C 	0.6566	0.8557	0.02612	0.456
Mof_C 	C 	0.3969	0.3856	0.75941	-0.156
Mof_C 	C 	0.8797	0.4955	0.88383	-0.053
Mof_C 	C 	0.276	0.3356	0.70635	0.202
Mof_C 	C 	0.1203	0.5045	0.11617	-0.053
Mof_C 	C 	0.5064	0.5984	0.95623	-0.073
Mof_C 	C 	0.6237	0.6955	0.57469	-0.304
Mof_C 	C 	0.776	0.3356	0.79365	0.201
Mof_C 	C 	0.3696	0.3985	0.99282	0.133
Mof_C 	C 	0.989	0.5085	0.23989	-0.052
Mof_C 	C 	0.4936	0.4016	0.04377	-0.073
Mof_C 	C 	0.011	0.4915	0.76011	-0.052
Mof_C 	C 	0.2321	0.1989	0.44105	0.572
Mof_C 	C 	0.7346	0.6097	0.3642	-0.148
Mof_C 	C 	0.9001	0.7936	0.20003	-0.251
Mof_C 	C 	0.3763	0.3045	0.42531	-0.304
Mof_C 	C 	0.0064	0.5984	0.54377	-0.074
Mof_C 	C 	0.9957	0.4548	0.16795	0.092
Mof_C 	C 	0.3779	0.4971	0.94917	-0.105
Mof_C 	C 	0.8779	0.4971	0.55083	-0.106
Mof_C 	C 	0.7679	0.8011	0.55895	0.572
Mof_C 	C 	0.3797	0.4955	0.61617	-0.054
Mof_C 	C 	0.2346	0.6097	0.1358	-0.147
Mof_C 	C 	0.8969	0.3856	0.74059	-0.151
Mof_C 	C 	0.0999	0.2064	0.79997	-0.251
Mof_C 	C 	0.2307	0.1951	0.0149	-0.197
Mof_C 	C 	0.5999	0.2064	0.70003	-0.237
Mof_C 	C 	0.489	0.5085	0.26011	-0.046
Mof_C 	C 	0.6031	0.6144	0.24059	-0.156
Mof_C 	C 	0.4001	0.7936	0.29997	-0.237
Mof_C 	C 	0.9936	0.4016	0.45623	-0.074
Mof_C 	C 	0.2654	0.3903	0.6358	-0.148
Mof_C 	C 	0.1031	0.6144	0.25941	-0.151
Mof_C 	C 	0.3434	0.1443	0.97388	0.456
Mof_C 	C 	0.224	0.6644	0.20635	0.201
Mof_C 	C 	0.8434	0.1443	0.52612	0.479
Mof_C 	C 	0.511	0.4915	0.73989	-0.046
Mof_C 	C 	0.7321	0.1989	0.05895	0.582
Mof_C 	C 	0.1304	0.6015	0.49282	0.134
Mof_C 	C 	0.1566	0.8557	0.47388	0.479
Mof_C 	C 	0.0578	0.8896	0.20185	0.524
Mof_C 	C 	0.7307	0.1951	0.4851	-0.222
Mof_C 	C 	0.5043	0.5452	0.66795	0.092
Mof_C 	C 	0.6221	0.5029	0.05083	-0.105
Mof_C 	C 	0.8696	0.3985	0.50718	0.134
Mof_C 	C 	0.1221	0.5029	0.44917	-0.106
Mof_C 	C 	0.5578	0.8896	0.29815	0.514
Mof_C 	C 	0.1237	0.6955	0.92531	-0.309
Mof_C 	C 	0.7693	0.8049	0.9851	-0.197
Mof_C 	C 	0.4422	0.1104	0.70185	0.514
Mof_C 	C 	0.7654	0.3903	0.8642	-0.147
Mof_C 	C 	0.9422	0.1104	0.79815	0.524
Mof_C 	C 	0.724	0.6644	0.29365	0.202
Mof_C 	C 	0.4957	0.4548	0.33205	0.092
Mof_C 	C 	0.0043	0.5452	0.83205	0.092
Mof_O 	O 	0.0967	0.81797	0.40835	-0.508
Mof_O 	O 	0.7992	0.81756	0.48638	-0.62
Mof_O 	O 	0.6314	0.94156	0.99269	-0.702
Mof_O 	O 	0.9087	0.04627	0.73718	-0.596
Mof_O 	O 	0.8393	0.77292	0.27998	-0.353
Mof_O 	O 	0.2992	0.81756	0.01362	-0.626
Mof_O 	O 	0.16	0.13656	0.38417	-0.596
Mof_O 	O 	0.9033	0.18203	0.59165	-0.508
Mof_O 	O 	0.66	0.13656	0.11583	-0.595
Mof_O 	O 	0.7664	0.69598	0.01749	-0.188
Mof_O 	O 	0.3745	0.35139	0.34777	-0.15
Mof_O 	O 	0.3393	0.77292	0.22002	-0.354
Mof_O 	O 	0.34	0.86344	0.88417	-0.595
Mof_O 	O 	0.4033	0.18203	0.90835	-0.509
Mof_O 	O 	0.0913	0.95373	0.26282	-0.596
Mof_O 	O 	0.3686	0.05844	0.00731	-0.702
Mof_O 	O 	0.6255	0.64861	0.65223	-0.15
Mof_O 	O 	0.1314	0.94156	0.50731	-0.706
Mof_O 	O 	0.6607	0.22708	0.77998	-0.354
Mof_O 	O 	0.356	0.0999	0.64227	-0.586
Mof_O 	O 	0.856	0.0999	0.85773	-0.587
Mof_O 	O 	0.8686	0.05844	0.49269	-0.706
Mof_O 	O 	0.5967	0.81797	0.09165	-0.509
Mof_O 	O 	0.2336	0.30402	0.98251	-0.188
Mof_O 	O 	0.1255	0.64861	0.84777	-0.149
Mof_O 	O 	0.84	0.86344	0.61583	-0.596
Mof_O 	O 	0.2664	0.69598	0.48251	-0.178
Mof_O 	O 	0.2008	0.18244	0.51362	-0.62
Mof_O 	O 	0.7336	0.30402	0.51749	-0.178
Mof_O 	O 	0.644	0.9001	0.35773	-0.586
Mof_O 	O 	0.7008	0.18244	0.98638	-0.626
Mof_O 	O 	0.8745	0.35139	0.15223	-0.149
Mof_O 	O 	0.144	0.9001	0.14227	-0.587
Mof_O 	O 	0.5913	0.95373	0.23718	-0.603
Mof_O 	O 	0.4087	0.04627	0.76282	-0.603
Mof_O 	O 	0.1607	0.22708	0.72002	-0.353
_end
