data_functionalizedCrystal
_audit_creation_method	'EQeq! by Chris Wilmer'
_symmetry_space_group_name_H-M	'P1'
_symmetry_Int_Tables_number	1
_symmetry_cell_setting	triclinic
loop_
_symmetry_equiv_pos_as_xyz
  x,y,z
_cell_length_a	18.2174
_cell_length_b	20.2987
_cell_length_c	28.4749
_cell_angle_alpha	90
_cell_angle_beta	98.947
_cell_angle_gamma	90
loop_
_atom_site_label
_atom_site_type_symbol
_atom_site_fract_x
_atom_site_fract_y
_atom_site_fract_z
_atom_site_charge
Mof_Co	Co	0.82276	0.91592	0.27384	1.191
Mof_Co	Co	0.75419	0.85734	0.49849	1.133
Mof_Co	Co	0.71591	0.87023	0.7301	1.177
Mof_Co	Co	0.67724	0.41592	0.22616	1.191
Mof_Co	Co	0.74581	0.35734	0.00151	1.133
Mof_Co	Co	0.78409	0.37023	0.7699	1.177
Mof_Co	Co	0.17724	0.08408	0.72616	1.191
Mof_Co	Co	0.24581	0.14266	0.50151	1.133
Mof_Co	Co	0.28409	0.12977	0.2699	1.176
Mof_Co	Co	0.32276	0.58408	0.77384	1.19
Mof_Co	Co	0.25419	0.64266	0.99849	1.132
Mof_Co	Co	0.21591	0.62977	0.2301	1.176
Mof_Mo	Mo	0.74859	0.62523	0.798	2.185
Mof_Mo	Mo	0.89767	0.55941	0.86731	2.1
Mof_Mo	Mo	0.99631	0.68621	0.9261	2.112
Mof_Mo	Mo	0.90206	0.82919	0.90709	2.087
Mof_Mo	Mo	0.72657	0.79183	0.845	2.24
Mof_Mo	Mo	0.86968	0.04788	0.35425	2.146
Mof_Mo	Mo	0.70891	0.11687	0.30402	2.117
Mof_Mo	Mo	0.76781	0.78352	0.18689	2.228
Mof_Mo	Mo	0.59742	0.81181	0.10235	2.166
Mof_Mo	Mo	0.51135	0.66214	0.09307	2.106
Mof_Mo	Mo	0.75141	0.12523	0.702	2.185
Mof_Mo	Mo	0.60233	0.05941	0.63269	2.099
Mof_Mo	Mo	0.50369	0.18621	0.5739	2.109
Mof_Mo	Mo	0.59794	0.32919	0.59291	2.087
Mof_Mo	Mo	0.77343	0.29183	0.655	2.24
Mof_Mo	Mo	0.63032	0.54788	0.14575	2.157
Mof_Mo	Mo	0.79109	0.61687	0.19598	2.117
Mof_Mo	Mo	0.73219	0.28352	0.31311	2.228
Mof_Mo	Mo	0.90258	0.31181	0.39765	2.165
Mof_Mo	Mo	0.98865	0.16214	0.40693	2.096
Mof_Mo	Mo	0.25141	0.37477	0.202	2.185
Mof_Mo	Mo	0.10233	0.44059	0.13269	2.1
Mof_Mo	Mo	0.00369	0.31379	0.0739	2.112
Mof_Mo	Mo	0.09794	0.17081	0.09291	2.087
Mof_Mo	Mo	0.27343	0.20817	0.155	2.24
Mof_Mo	Mo	0.13032	0.95212	0.64575	2.146
Mof_Mo	Mo	0.29109	0.88313	0.69598	2.117
Mof_Mo	Mo	0.23219	0.21648	0.81311	2.228
Mof_Mo	Mo	0.40258	0.18819	0.89765	2.166
Mof_Mo	Mo	0.48865	0.33786	0.90693	2.106
Mof_Mo	Mo	0.24859	0.87477	0.298	2.185
Mof_Mo	Mo	0.39767	0.94059	0.36731	2.099
Mof_Mo	Mo	0.49631	0.81379	0.4261	2.109
Mof_Mo	Mo	0.40206	0.67081	0.40709	2.087
Mof_Mo	Mo	0.22657	0.70817	0.345	2.24
Mof_Mo	Mo	0.36968	0.45212	0.85425	2.157
Mof_Mo	Mo	0.20891	0.38313	0.80402	2.117
Mof_Mo	Mo	0.26781	0.71648	0.68689	2.228
Mof_Mo	Mo	0.09742	0.68819	0.60235	2.165
Mof_Mo	Mo	0.01135	0.83786	0.59307	2.096
Mof_P 	P 	0.80616	0.68076	0.91833	0.573
Mof_P 	P 	0.8975	0.7244	0.81519	0.549
Mof_P 	P 	0.1167	0.80084	0.70018	0.562
Mof_P 	P 	0.70294	0.67845	0.09015	0.56
Mof_P 	P 	0.69384	0.18076	0.58167	0.572
Mof_P 	P 	0.6025	0.2244	0.68481	0.549
Mof_P 	P 	0.3833	0.30084	0.79982	0.564
Mof_P 	P 	0.79706	0.17845	0.40985	0.56
Mof_P 	P 	0.19384	0.31924	0.08167	0.573
Mof_P 	P 	0.1025	0.2756	0.18481	0.549
Mof_P 	P 	0.8833	0.19916	0.29982	0.562
Mof_P 	P 	0.29706	0.32155	0.90985	0.56
Mof_P 	P 	0.30616	0.81924	0.41833	0.572
Mof_P 	P 	0.3975	0.7756	0.31519	0.549
Mof_P 	P 	0.6167	0.69916	0.20018	0.564
Mof_P 	P 	0.20294	0.82155	0.59015	0.56
Mof_H 	H 	0.682	0.9527	0.2002	0.004
Mof_H 	H 	0.5545	0.9421	0.1934	0.112
Mof_H 	H 	0.5017	0.914	0.2611	0.034
Mof_H 	H 	0.5804	0.9008	0.3348	0.097
Mof_H 	H 	0.9861	0.8171	0.414	0.085
Mof_H 	H 	0.0926	0.8022	0.3777	0.036
Mof_H 	H 	0.084	0.8204	0.2961	0.073
Mof_H 	H 	0.9737	0.8591	0.2528	0.012
Mof_H 	H 	0.6291	0.9517	0.5275	0.022
Mof_H 	H 	0.5515	0.036	0.4938	0.079
Mof_H 	H 	0.5517	0.0642	0.4144	0.03
Mof_H 	H 	0.6292	0.0054	0.3697	0.098
Mof_H 	H 	0.904	0.7212	0.4017	0.086
Mof_H 	H 	0.9322	0.6339	0.4557	0.037
Mof_H 	H 	0.9034	0.6431	0.5321	0.086
Mof_H 	H 	0.8394	0.7364	0.5521	0.01
Mof_H 	H 	0.6794	0.7309	0.4476	0.003
Mof_H 	H 	0.6175	0.6379	0.4676	0.085
Mof_H 	H 	0.588	0.6282	0.5442	0.036
Mof_H 	H 	0.6199	0.7134	0.599	0.088
Mof_H 	H 	0.843	0.0331	0.6139	0.11
Mof_H 	H 	0.9116	0.0939	0.5648	0.018
Mof_H 	H 	0.9323	0.0483	0.4921	0.11
Mof_H 	H 	0.8807	0.9469	0.4693	0.03
Mof_H 	H 	0.568	0.8045	0.7549	0.001
Mof_H 	H 	0.4522	0.7741	0.7138	0.08
Mof_H 	H 	0.4304	0.7811	0.6304	0.031
Mof_H 	H 	0.5284	0.8112	0.5899	0.096
Mof_H 	H 	0.9221	0.9509	0.6533	0.09
Mof_H 	H 	0.0013	0.9865	0.7222	0.023
Mof_H 	H 	0.9541	0.9912	0.7945	0.103
Mof_H 	H 	0.8335	0.9538	0.7962	0.019
Mof_H 	H 	0.8466	0.6228	0.9876	0.133
Mof_H 	H 	0.7725	0.5901	0.9596	0.13
Mof_H 	H 	0.9815	0.8071	0.8108	0.129
Mof_H 	H 	0.9172	0.8098	0.7662	0.134
Mof_H 	H 	0.9793	0.7283	0.7272	0.016
Mof_H 	H 	0.0443	0.7255	0.7722	0.009
Mof_H 	H 	0.0639	0.842	0.7622	0.137
Mof_H 	H 	0.0044	0.8401	0.715	0.132
Mof_H 	H 	0.7544	0.5925	0.0521	0.133
Mof_H 	H 	0.8155	0.6482	0.0676	0.134
Mof_H 	H 	0.6972	0.6635	0.9897	0.005
Mof_H 	H 	0.7632	0.7151	0.004	0.019
Mof_H 	H 	0.818	0.4527	0.2998	0.004
Mof_H 	H 	0.9455	0.4421	0.3066	0.112
Mof_H 	H 	0.9983	0.414	0.2389	0.034
Mof_H 	H 	0.9196	0.4008	0.1652	0.097
Mof_H 	H 	0.5139	0.3171	0.086	0.085
Mof_H 	H 	0.4074	0.3022	0.1223	0.036
Mof_H 	H 	0.416	0.3204	0.2039	0.073
Mof_H 	H 	0.5263	0.3591	0.2472	0.012
Mof_H 	H 	0.8709	0.4517	0.9725	0.021
Mof_H 	H 	0.9485	0.536	0.0062	0.08
Mof_H 	H 	0.9483	0.5642	0.0856	0.03
Mof_H 	H 	0.8708	0.5054	0.1303	0.101
Mof_H 	H 	0.596	0.2212	0.0983	0.086
Mof_H 	H 	0.5678	0.1339	0.0443	0.037
Mof_H 	H 	0.5966	0.1431	0.9679	0.086
Mof_H 	H 	0.6606	0.2364	0.9479	0.01
Mof_H 	H 	0.8206	0.2309	0.0524	0.003
Mof_H 	H 	0.8825	0.1379	0.0324	0.084
Mof_H 	H 	0.912	0.1282	0.9558	0.035
Mof_H 	H 	0.8801	0.2134	0.901	0.087
Mof_H 	H 	0.657	0.5331	0.8861	0.108
Mof_H 	H 	0.5884	0.5939	0.9352	0.021
Mof_H 	H 	0.5677	0.5483	0.0079	0.108
Mof_H 	H 	0.6193	0.4469	0.0307	0.033
Mof_H 	H 	0.932	0.3045	0.7451	0.002
Mof_H 	H 	0.0478	0.2741	0.7862	0.079
Mof_H 	H 	0.0696	0.2811	0.8696	0.031
Mof_H 	H 	0.9716	0.3112	0.9101	0.096
Mof_H 	H 	0.5779	0.4509	0.8467	0.086
Mof_H 	H 	0.4987	0.4865	0.7778	0.032
Mof_H 	H 	0.5459	0.4912	0.7055	0.099
Mof_H 	H 	0.6665	0.4538	0.7038	0.021
Mof_H 	H 	0.6534	0.1228	0.5124	0.133
Mof_H 	H 	0.7275	0.0901	0.5404	0.13
Mof_H 	H 	0.5185	0.3071	0.6892	0.13
Mof_H 	H 	0.5828	0.3098	0.7338	0.135
Mof_H 	H 	0.5207	0.2283	0.7728	0.012
Mof_H 	H 	0.4557	0.2255	0.7278	0.007
Mof_H 	H 	0.4361	0.342	0.7378	0.139
Mof_H 	H 	0.4956	0.3401	0.785	0.135
Mof_H 	H 	0.7456	0.0925	0.4479	0.132
Mof_H 	H 	0.6845	0.1482	0.4324	0.133
Mof_H 	H 	0.8028	0.1635	0.5103	0.006
Mof_H 	H 	0.7368	0.2151	0.496	0.019
Mof_H 	H 	0.318	0.0473	0.7998	0.004
Mof_H 	H 	0.4455	0.0579	0.8066	0.112
Mof_H 	H 	0.4983	0.086	0.7389	0.034
Mof_H 	H 	0.4196	0.0992	0.6652	0.097
Mof_H 	H 	0.0139	0.1829	0.586	0.085
Mof_H 	H 	0.9074	0.1978	0.6223	0.036
Mof_H 	H 	0.916	0.1796	0.7039	0.073
Mof_H 	H 	0.0263	0.1409	0.7472	0.012
Mof_H 	H 	0.3709	0.0483	0.4725	0.022
Mof_H 	H 	0.4485	0.964	0.5062	0.079
Mof_H 	H 	0.4483	0.9358	0.5856	0.03
Mof_H 	H 	0.3708	0.9946	0.6303	0.098
Mof_H 	H 	0.096	0.2788	0.5983	0.086
Mof_H 	H 	0.0678	0.3661	0.5443	0.037
Mof_H 	H 	0.0966	0.3569	0.4679	0.086
Mof_H 	H 	0.1606	0.2636	0.4479	0.01
Mof_H 	H 	0.3206	0.2691	0.5524	0.003
Mof_H 	H 	0.3825	0.3621	0.5324	0.085
Mof_H 	H 	0.412	0.3718	0.4558	0.036
Mof_H 	H 	0.3801	0.2866	0.401	0.088
Mof_H 	H 	0.157	0.9669	0.3861	0.11
Mof_H 	H 	0.0884	0.9061	0.4352	0.018
Mof_H 	H 	0.0677	0.9517	0.5079	0.11
Mof_H 	H 	0.1193	0.0531	0.5307	0.03
Mof_H 	H 	0.432	0.1955	0.2451	0.001
Mof_H 	H 	0.5478	0.2259	0.2862	0.08
Mof_H 	H 	0.5696	0.2189	0.3696	0.031
Mof_H 	H 	0.4716	0.1888	0.4101	0.096
Mof_H 	H 	0.0779	0.0491	0.3467	0.09
Mof_H 	H 	0.9987	0.0135	0.2778	0.023
Mof_H 	H 	0.0459	0.0088	0.2055	0.103
Mof_H 	H 	0.1665	0.0462	0.2038	0.019
Mof_H 	H 	0.1534	0.3772	0.0124	0.133
Mof_H 	H 	0.2275	0.4099	0.0404	0.13
Mof_H 	H 	0.0185	0.1929	0.1892	0.129
Mof_H 	H 	0.0828	0.1902	0.2338	0.134
Mof_H 	H 	0.0207	0.2717	0.2728	0.016
Mof_H 	H 	0.9557	0.2745	0.2278	0.009
Mof_H 	H 	0.9361	0.158	0.2378	0.137
Mof_H 	H 	0.9956	0.1599	0.285	0.132
Mof_H 	H 	0.2456	0.4075	0.9479	0.133
Mof_H 	H 	0.1845	0.3518	0.9324	0.134
Mof_H 	H 	0.3028	0.3365	0.0103	0.005
Mof_H 	H 	0.2368	0.2849	0.996	0.019
Mof_H 	H 	0.182	0.5473	0.7002	0.004
Mof_H 	H 	0.0545	0.5579	0.6934	0.112
Mof_H 	H 	0.0017	0.586	0.7611	0.034
Mof_H 	H 	0.0804	0.5992	0.8348	0.097
Mof_H 	H 	0.4861	0.6829	0.914	0.085
Mof_H 	H 	0.5926	0.6978	0.8777	0.036
Mof_H 	H 	0.584	0.6796	0.7961	0.073
Mof_H 	H 	0.4737	0.6409	0.7528	0.012
Mof_H 	H 	0.1291	0.5483	0.0275	0.021
Mof_H 	H 	0.0515	0.464	0.9938	0.08
Mof_H 	H 	0.0517	0.4358	0.9144	0.03
Mof_H 	H 	0.1292	0.4946	0.8697	0.101
Mof_H 	H 	0.404	0.7788	0.9017	0.086
Mof_H 	H 	0.4322	0.8661	0.9557	0.037
Mof_H 	H 	0.4034	0.8569	0.0321	0.086
Mof_H 	H 	0.3394	0.7636	0.0521	0.01
Mof_H 	H 	0.1794	0.7691	0.9476	0.003
Mof_H 	H 	0.1175	0.8621	0.9676	0.084
Mof_H 	H 	0.088	0.8718	0.0442	0.035
Mof_H 	H 	0.1199	0.7866	0.099	0.087
Mof_H 	H 	0.343	0.4669	0.1139	0.108
Mof_H 	H 	0.4116	0.4061	0.0648	0.021
Mof_H 	H 	0.4323	0.4517	0.9921	0.108
Mof_H 	H 	0.3807	0.5531	0.9693	0.033
Mof_H 	H 	0.068	0.6955	0.2549	0.002
Mof_H 	H 	0.9522	0.7259	0.2138	0.079
Mof_H 	H 	0.9304	0.7189	0.1304	0.031
Mof_H 	H 	0.0284	0.6888	0.0899	0.096
Mof_H 	H 	0.4221	0.5491	0.1533	0.086
Mof_H 	H 	0.5013	0.5135	0.2222	0.032
Mof_H 	H 	0.4541	0.5088	0.2945	0.099
Mof_H 	H 	0.3335	0.5462	0.2962	0.021
Mof_H 	H 	0.3466	0.8772	0.4876	0.133
Mof_H 	H 	0.2725	0.9099	0.4596	0.13
Mof_H 	H 	0.4815	0.6929	0.3108	0.13
Mof_H 	H 	0.4172	0.6902	0.2662	0.135
Mof_H 	H 	0.4793	0.7717	0.2272	0.012
Mof_H 	H 	0.5443	0.7745	0.2722	0.007
Mof_H 	H 	0.5639	0.658	0.2622	0.139
Mof_H 	H 	0.5044	0.6599	0.215	0.135
Mof_H 	H 	0.2544	0.9075	0.5521	0.132
Mof_H 	H 	0.3155	0.8518	0.5676	0.133
Mof_H 	H 	0.1972	0.8365	0.4897	0.006
Mof_H 	H 	0.2632	0.7849	0.504	0.019
Mof_C 	C 	0.6609	0.9423	0.2278	0.12
Mof_C 	C 	0.5851	0.9358	0.2233	-0.135
Mof_C 	C 	0.5539	0.9196	0.2634	0.076
Mof_C 	C 	0.6002	0.9118	0.3068	-0.117
Mof_C 	C 	0.6754	0.9206	0.30812	0.088
Mof_C 	C 	0.7308	0.9047	0.35102	0.021
Mof_C 	C 	0.8465	0.8529	0.37091	0.037
Mof_C 	C 	0.9177	0.8437	0.3526	0.076
Mof_C 	C 	0.9841	0.8243	0.3808	-0.112
Mof_C 	C 	0.047	0.8158	0.3595	0.049
Mof_C 	C 	0.0421	0.8276	0.3116	-0.094
Mof_C 	C 	0.9759	0.8499	0.2857	0.067
Mof_C 	C 	0.6287	0.9625	0.49497	0.067
Mof_C 	C 	0.5824	0.0132	0.47523	-0.123
Mof_C 	C 	0.5824	0.0295	0.4286	0.044
Mof_C 	C 	0.628	0.9945	0.40199	-0.107
Mof_C 	C 	0.6711	0.9437	0.42385	0.076
Mof_C 	C 	0.7224	0.9038	0.39951	0.033
Mof_C 	C 	0.8254	0.8322	0.41389	0.012
Mof_C 	C 	0.8551	0.7784	0.4468	0.077
Mof_C 	C 	0.8911	0.7237	0.4327	-0.117
Mof_C 	C 	0.9082	0.6723	0.4649	0.054
Mof_C 	C 	0.8904	0.6772	0.5094	-0.106
Mof_C 	C 	0.8525	0.7332	0.5212	0.083
Mof_C 	C 	0.6663	0.7278	0.4786	0.088
Mof_C 	C 	0.6301	0.672	0.4902	-0.114
Mof_C 	C 	0.6123	0.6665	0.5353	0.059
Mof_C 	C 	0.6302	0.7171	0.5674	-0.111
Mof_C 	C 	0.6632	0.7733	0.5528	0.084
Mof_C 	C 	0.6889	0.8295	0.58471	0.02
Mof_C 	C 	0.7812	0.9112	0.59644	0.031
Mof_C 	C 	0.8256	0.9543	0.56906	0.085
Mof_C 	C 	0.8521	0.0158	0.5843	-0.154
Mof_C 	C 	0.8923	0.0517	0.5552	0.069
Mof_C 	C 	0.9039	0.0253	0.51205	-0.138
Mof_C 	C 	0.873	0.9649	0.49896	0.1
Mof_C 	C 	0.5596	0.8064	0.7211	0.087
Mof_C 	C 	0.4904	0.7883	0.6969	-0.099
Mof_C 	C 	0.478	0.7914	0.6476	0.068
Mof_C 	C 	0.5355	0.8095	0.6237	-0.125
Mof_C 	C 	0.6039	0.8251	0.65022	0.081
Mof_C 	C 	0.6702	0.8454	0.62918	0.032
Mof_C 	C 	0.7778	0.911	0.64513	0.034
Mof_C 	C 	0.8328	0.9348	0.68546	0.081
Mof_C 	C 	0.9043	0.9527	0.68291	-0.106
Mof_C 	C 	0.9516	0.9737	0.7237	0.061
Mof_C 	C 	0.9243	0.9756	0.7663	-0.128
Mof_C 	C 	0.852	0.954	0.7668	0.095
Mof_C 	C 	0.7966	0.6326	0.96986	-0.353
Mof_C 	C 	0.9523	0.7798	0.78578	-0.334
Mof_C 	C 	0.0064	0.7542	0.75381	0.125
Mof_C 	C 	0.0437	0.8141	0.7347	-0.344
Mof_C 	C 	0.7632	0.6406	0.05322	-0.352
Mof_C 	C 	0.7506	0.6677	0.00299	0.14
Mof_C 	C 	0.8391	0.4423	0.2722	0.12
Mof_C 	C 	0.9149	0.4358	0.2767	-0.135
Mof_C 	C 	0.9461	0.4196	0.2366	0.076
Mof_C 	C 	0.8998	0.4118	0.1932	-0.117
Mof_C 	C 	0.8246	0.4206	0.19188	0.087
Mof_C 	C 	0.7692	0.4047	0.14898	0.021
Mof_C 	C 	0.6535	0.3529	0.12909	0.037
Mof_C 	C 	0.5823	0.3437	0.1474	0.077
Mof_C 	C 	0.5159	0.3243	0.1192	-0.116
Mof_C 	C 	0.453	0.3158	0.1405	0.052
Mof_C 	C 	0.4579	0.3276	0.1884	-0.09
Mof_C 	C 	0.5241	0.3499	0.2143	0.062
Mof_C 	C 	0.8713	0.4625	0.00503	0.067
Mof_C 	C 	0.9176	0.5132	0.02477	-0.123
Mof_C 	C 	0.9176	0.5295	0.0714	0.048
Mof_C 	C 	0.872	0.4945	0.09801	-0.112
Mof_C 	C 	0.8289	0.4437	0.07615	0.077
Mof_C 	C 	0.7776	0.4038	0.10049	0.032
Mof_C 	C 	0.6746	0.3322	0.08611	0.012
Mof_C 	C 	0.6449	0.2784	0.0532	0.077
Mof_C 	C 	0.6089	0.2237	0.0673	-0.117
Mof_C 	C 	0.5918	0.1723	0.0351	0.053
Mof_C 	C 	0.6096	0.1772	0.9906	-0.106
Mof_C 	C 	0.6475	0.2332	0.9788	0.082
Mof_C 	C 	0.8337	0.2278	0.0214	0.088
Mof_C 	C 	0.8699	0.172	0.0098	-0.114
Mof_C 	C 	0.8877	0.1665	0.9647	0.058
Mof_C 	C 	0.8698	0.2171	0.9326	-0.111
Mof_C 	C 	0.8368	0.2733	0.9472	0.084
Mof_C 	C 	0.8111	0.3295	0.91529	0.02
Mof_C 	C 	0.7188	0.4112	0.90356	0.032
Mof_C 	C 	0.6744	0.4543	0.93094	0.079
Mof_C 	C 	0.6479	0.5158	0.9157	-0.144
Mof_C 	C 	0.6077	0.5517	0.9448	0.062
Mof_C 	C 	0.5961	0.5253	0.98795	-0.127
Mof_C 	C 	0.627	0.4649	0.00104	0.092
Mof_C 	C 	0.9404	0.3064	0.7789	0.084
Mof_C 	C 	0.0096	0.2883	0.8031	-0.097
Mof_C 	C 	0.022	0.2914	0.8524	0.071
Mof_C 	C 	0.9645	0.3095	0.8763	-0.128
Mof_C 	C 	0.8961	0.3251	0.84978	0.081
Mof_C 	C 	0.8298	0.3454	0.87082	0.032
Mof_C 	C 	0.7222	0.411	0.85487	0.034
Mof_C 	C 	0.6672	0.4348	0.81454	0.078
Mof_C 	C 	0.5957	0.4527	0.81709	-0.099
Mof_C 	C 	0.5484	0.4737	0.7763	0.047
Mof_C 	C 	0.5757	0.4756	0.7337	-0.12
Mof_C 	C 	0.648	0.454	0.7332	0.09
Mof_C 	C 	0.7034	0.1326	0.53014	-0.351
Mof_C 	C 	0.5477	0.2798	0.71422	-0.339
Mof_C 	C 	0.4936	0.2542	0.74619	0.133
Mof_C 	C 	0.4563	0.3141	0.7653	-0.348
Mof_C 	C 	0.7368	0.1406	0.44678	-0.351
Mof_C 	C 	0.7494	0.1677	0.49701	0.138
Mof_C 	C 	0.3391	0.0577	0.7722	0.12
Mof_C 	C 	0.4149	0.0642	0.7767	-0.135
Mof_C 	C 	0.4461	0.0804	0.7366	0.076
Mof_C 	C 	0.3998	0.0882	0.6932	-0.117
Mof_C 	C 	0.3246	0.0794	0.69188	0.088
Mof_C 	C 	0.2692	0.0953	0.64898	0.021
Mof_C 	C 	0.1535	0.1471	0.62909	0.037
Mof_C 	C 	0.0823	0.1563	0.6474	0.076
Mof_C 	C 	0.0159	0.1757	0.6192	-0.112
Mof_C 	C 	0.953	0.1842	0.6405	0.049
Mof_C 	C 	0.9579	0.1724	0.6884	-0.094
Mof_C 	C 	0.0241	0.1501	0.7143	0.067
Mof_C 	C 	0.3713	0.0375	0.50503	0.067
Mof_C 	C 	0.4176	0.9868	0.52477	-0.123
Mof_C 	C 	0.4176	0.9705	0.5714	0.044
Mof_C 	C 	0.372	0.0055	0.59801	-0.107
Mof_C 	C 	0.3289	0.0563	0.57615	0.076
Mof_C 	C 	0.2776	0.0962	0.60049	0.033
Mof_C 	C 	0.1746	0.1678	0.58611	0.012
Mof_C 	C 	0.1449	0.2216	0.5532	0.077
Mof_C 	C 	0.1089	0.2763	0.5673	-0.117
Mof_C 	C 	0.0918	0.3277	0.5351	0.054
Mof_C 	C 	0.1096	0.3228	0.4906	-0.106
Mof_C 	C 	0.1475	0.2668	0.4788	0.083
Mof_C 	C 	0.3337	0.2722	0.5214	0.088
Mof_C 	C 	0.3699	0.328	0.5098	-0.114
Mof_C 	C 	0.3877	0.3335	0.4647	0.059
Mof_C 	C 	0.3698	0.2829	0.4326	-0.111
Mof_C 	C 	0.3368	0.2267	0.4472	0.084
Mof_C 	C 	0.3111	0.1705	0.41529	0.02
Mof_C 	C 	0.2188	0.0888	0.40356	0.031
Mof_C 	C 	0.1744	0.0457	0.43094	0.085
Mof_C 	C 	0.1479	0.9842	0.4157	-0.154
Mof_C 	C 	0.1077	0.9483	0.4448	0.069
Mof_C 	C 	0.0961	0.9747	0.48795	-0.138
Mof_C 	C 	0.127	0.0351	0.50104	0.1
Mof_C 	C 	0.4404	0.1936	0.2789	0.087
Mof_C 	C 	0.5096	0.2117	0.3031	-0.099
Mof_C 	C 	0.522	0.2086	0.3524	0.068
Mof_C 	C 	0.4645	0.1905	0.3763	-0.125
Mof_C 	C 	0.3961	0.1749	0.34978	0.081
Mof_C 	C 	0.3298	0.1546	0.37082	0.032
Mof_C 	C 	0.2222	0.089	0.35487	0.034
Mof_C 	C 	0.1672	0.0652	0.31454	0.081
Mof_C 	C 	0.0957	0.0473	0.31709	-0.106
Mof_C 	C 	0.0484	0.0263	0.2763	0.061
Mof_C 	C 	0.0757	0.0244	0.2337	-0.128
Mof_C 	C 	0.148	0.046	0.2332	0.095
Mof_C 	C 	0.2034	0.3674	0.03014	-0.353
Mof_C 	C 	0.0477	0.2202	0.21422	-0.334
Mof_C 	C 	0.9936	0.2458	0.24619	0.125
Mof_C 	C 	0.9563	0.1859	0.2653	-0.344
Mof_C 	C 	0.2368	0.3594	0.94678	-0.352
Mof_C 	C 	0.2494	0.3323	0.99701	0.14
Mof_C 	C 	0.1609	0.5577	0.7278	0.12
Mof_C 	C 	0.0851	0.5642	0.7233	-0.135
Mof_C 	C 	0.0539	0.5804	0.7634	0.076
Mof_C 	C 	0.1002	0.5882	0.8068	-0.117
Mof_C 	C 	0.1754	0.5794	0.80812	0.087
Mof_C 	C 	0.2308	0.5953	0.85102	0.021
Mof_C 	C 	0.3465	0.6471	0.87091	0.037
Mof_C 	C 	0.4177	0.6563	0.8526	0.077
Mof_C 	C 	0.4841	0.6757	0.8808	-0.116
Mof_C 	C 	0.547	0.6842	0.8595	0.052
Mof_C 	C 	0.5421	0.6724	0.8116	-0.09
Mof_C 	C 	0.4759	0.6501	0.7857	0.062
Mof_C 	C 	0.1287	0.5375	0.99497	0.067
Mof_C 	C 	0.0824	0.4868	0.97523	-0.123
Mof_C 	C 	0.0824	0.4705	0.9286	0.048
Mof_C 	C 	0.128	0.5055	0.90199	-0.112
Mof_C 	C 	0.1711	0.5563	0.92385	0.077
Mof_C 	C 	0.2224	0.5962	0.89951	0.032
Mof_C 	C 	0.3254	0.6678	0.91389	0.012
Mof_C 	C 	0.3551	0.7216	0.9468	0.077
Mof_C 	C 	0.3911	0.7763	0.9327	-0.117
Mof_C 	C 	0.4082	0.8277	0.9649	0.053
Mof_C 	C 	0.3904	0.8228	0.0094	-0.106
Mof_C 	C 	0.3525	0.7668	0.0212	0.082
Mof_C 	C 	0.1663	0.7722	0.9786	0.088
Mof_C 	C 	0.1301	0.828	0.9902	-0.114
Mof_C 	C 	0.1123	0.8335	0.0353	0.058
Mof_C 	C 	0.1302	0.7829	0.0674	-0.111
Mof_C 	C 	0.1632	0.7267	0.0528	0.084
Mof_C 	C 	0.1889	0.6705	0.08471	0.02
Mof_C 	C 	0.2812	0.5888	0.09644	0.032
Mof_C 	C 	0.3256	0.5457	0.06906	0.079
Mof_C 	C 	0.3521	0.4842	0.0843	-0.144
Mof_C 	C 	0.3923	0.4483	0.0552	0.062
Mof_C 	C 	0.4039	0.4747	0.01205	-0.127
Mof_C 	C 	0.373	0.5351	0.99896	0.092
Mof_C 	C 	0.0596	0.6936	0.2211	0.084
Mof_C 	C 	0.9904	0.7117	0.1969	-0.097
Mof_C 	C 	0.978	0.7086	0.1476	0.071
Mof_C 	C 	0.0355	0.6905	0.1237	-0.128
Mof_C 	C 	0.1039	0.6749	0.15022	0.081
Mof_C 	C 	0.1702	0.6546	0.12918	0.032
Mof_C 	C 	0.2778	0.589	0.14513	0.034
Mof_C 	C 	0.3328	0.5652	0.18546	0.078
Mof_C 	C 	0.4043	0.5473	0.18291	-0.099
Mof_C 	C 	0.4516	0.5263	0.2237	0.047
Mof_C 	C 	0.4243	0.5244	0.2663	-0.12
Mof_C 	C 	0.352	0.546	0.2668	0.09
Mof_C 	C 	0.2966	0.8674	0.46986	-0.351
Mof_C 	C 	0.4523	0.7202	0.28578	-0.339
Mof_C 	C 	0.5064	0.7458	0.25381	0.133
Mof_C 	C 	0.5437	0.6859	0.2347	-0.348
Mof_C 	C 	0.2632	0.8594	0.55322	-0.351
Mof_C 	C 	0.2506	0.8323	0.50299	0.138
Mof_N 	N 	0.7067	0.9347	0.26925	-0.231
Mof_N 	N 	0.7963	0.8855	0.34036	-0.207
Mof_N 	N 	0.9147	0.8587	0.30617	-0.218
Mof_N 	N 	0.6725	0.9284	0.4704	-0.235
Mof_N 	N 	0.7673	0.864	0.4279	-0.216
Mof_N 	N 	0.8343	0.7822	0.49063	-0.234
Mof_N 	N 	0.684	0.778	0.50892	-0.239
Mof_N 	N 	0.7398	0.8673	0.56887	-0.214
Mof_N 	N 	0.833	0.9304	0.52547	-0.241
Mof_N 	N 	0.6149	0.8263	0.6986	-0.229
Mof_N 	N 	0.7182	0.8818	0.65837	-0.207
Mof_N 	N 	0.8074	0.9334	0.7281	-0.23
Mof_N 	N 	0.7933	0.4347	0.23075	-0.231
Mof_N 	N 	0.7037	0.3855	0.15964	-0.207
Mof_N 	N 	0.5853	0.3587	0.19383	-0.218
Mof_N 	N 	0.8275	0.4284	0.0296	-0.235
Mof_N 	N 	0.7327	0.364	0.0721	-0.216
Mof_N 	N 	0.6657	0.2822	0.00937	-0.234
Mof_N 	N 	0.816	0.278	0.99108	-0.239
Mof_N 	N 	0.7602	0.3673	0.93113	-0.215
Mof_N 	N 	0.667	0.4304	0.97453	-0.239
Mof_N 	N 	0.8851	0.3263	0.8014	-0.229
Mof_N 	N 	0.7818	0.3818	0.84163	-0.207
Mof_N 	N 	0.6926	0.4334	0.7719	-0.229
Mof_N 	N 	0.2933	0.0653	0.73075	-0.231
Mof_N 	N 	0.2037	0.1145	0.65964	-0.207
Mof_N 	N 	0.0853	0.1413	0.69383	-0.218
Mof_N 	N 	0.3275	0.0716	0.5296	-0.235
Mof_N 	N 	0.2327	0.136	0.5721	-0.216
Mof_N 	N 	0.1657	0.2178	0.50937	-0.234
Mof_N 	N 	0.316	0.222	0.49108	-0.239
Mof_N 	N 	0.2602	0.1327	0.43113	-0.214
Mof_N 	N 	0.167	0.0696	0.47453	-0.241
Mof_N 	N 	0.3851	0.1737	0.3014	-0.229
Mof_N 	N 	0.2818	0.1182	0.34163	-0.207
Mof_N 	N 	0.1926	0.0666	0.2719	-0.23
Mof_N 	N 	0.2067	0.5653	0.76925	-0.231
Mof_N 	N 	0.2963	0.6145	0.84036	-0.207
Mof_N 	N 	0.4147	0.6413	0.80617	-0.218
Mof_N 	N 	0.1725	0.5716	0.9704	-0.235
Mof_N 	N 	0.2673	0.636	0.9279	-0.216
Mof_N 	N 	0.3343	0.7178	0.99063	-0.234
Mof_N 	N 	0.184	0.722	0.00892	-0.239
Mof_N 	N 	0.2398	0.6327	0.06887	-0.215
Mof_N 	N 	0.333	0.5696	0.02547	-0.239
Mof_N 	N 	0.1149	0.6737	0.1986	-0.229
Mof_N 	N 	0.2182	0.6182	0.15837	-0.207
Mof_N 	N 	0.3074	0.5666	0.2281	-0.229
Mof_O 	O 	0.7337	0.84687	0.79903	-0.732
Mof_O 	O 	0.6412	0.8105	0.85742	-0.586
Mof_O 	O 	0.71358	0.71412	0.81061	-0.811
Mof_O 	O 	0.7183	0.6187	0.73825	-0.549
Mof_O 	O 	0.6825	0.58336	0.82158	-0.602
Mof_O 	O 	0.8291	0.56381	0.80717	-0.737
Mof_O 	O 	0.81286	0.6343	0.87613	-0.609
Mof_O 	O 	0.85449	0.77204	0.84435	-0.601
Mof_O 	O 	0.87756	0.72247	0.93186	-0.553
Mof_O 	O 	0.9889	0.77944	0.90611	-0.751
Mof_O 	O 	0.9101	0.85438	0.96504	-0.537
Mof_O 	O 	0.0805	0.67123	0.90929	-0.588
Mof_O 	O 	0.9501	0.60169	0.92282	-0.78
Mof_O 	O 	0.8604	0.49546	0.89451	-0.578
Mof_O 	O 	0.7904	0.84361	0.89546	-0.648
Mof_O 	O 	0.7387	0.72423	0.90519	-0.467
Mof_O 	O 	0.0161	0.69432	0.98634	-0.576
Mof_O 	O 	0.9441	0.67424	0.84697	-0.511
Mof_O 	O 	0.969	0.5257	0.8438	-0.568
Mof_O 	O 	0.84065	0.68969	0.77844	-0.411
Mof_O 	O 	0.8737	0.9996	0.30453	-0.712
Mof_O 	O 	0.784	0.8368	0.23395	-0.728
Mof_O 	O 	0.0804	0.77964	0.64965	-0.599
Mof_O 	O 	0.5312	0.7475	0.06533	-0.706
Mof_O 	O 	0.6363	0.63235	0.0924	-0.56
Mof_O 	O 	0.6878	0.8226	0.14571	-0.802
Mof_O 	O 	0.1698	0.7482	0.72228	-0.431
Mof_O 	O 	0.8097	0.70622	0.22252	-0.715
Mof_O 	O 	0.7484	0.6896	0.14057	-0.617
Mof_O 	O 	0.158	0.86704	0.69803	-0.539
Mof_O 	O 	0.839	0.8024	0.15647	-0.58
Mof_O 	O 	0.76351	0.05737	0.34804	-0.789
Mof_O 	O 	0.8824	0.99179	0.39941	-0.59
Mof_O 	O 	0.9632	0.09036	0.36292	-0.781
Mof_O 	O 	0.4912	0.6228	0.04007	-0.582
Mof_O 	O 	0.6093	0.8653	0.05818	-0.548
Mof_O 	O 	0.4264	0.6776	0.10971	-0.568
Mof_O 	O 	0.6772	0.74469	0.06884	-0.411
Mof_O 	O 	0.7087	0.0804	0.2506	-0.578
Mof_O 	O 	0.6232	0.1004	0.31769	-0.57
Mof_O 	O 	0.5342	0.8516	0.13053	-0.577
Mof_O 	O 	0.9247	0.8978	0.8773	-0.554
Mof_O 	O 	0.7738	0.7847	0.71875	-0.271
Mof_O 	O 	0.6534	0.95446	0.74789	-0.241
Mof_O 	O 	0.8525	0.951	0.21183	-0.266
Mof_O 	O 	0.7663	0.34687	0.70097	-0.732
Mof_O 	O 	0.8588	0.3105	0.64258	-0.586
Mof_O 	O 	0.78642	0.21412	0.68939	-0.811
Mof_O 	O 	0.7817	0.1187	0.76175	-0.55
Mof_O 	O 	0.8175	0.08336	0.67842	-0.604
Mof_O 	O 	0.6709	0.06381	0.69283	-0.737
Mof_O 	O 	0.68714	0.1343	0.62387	-0.609
Mof_O 	O 	0.64551	0.27204	0.65565	-0.601
Mof_O 	O 	0.62244	0.22247	0.56814	-0.552
Mof_O 	O 	0.5111	0.27944	0.59389	-0.751
Mof_O 	O 	0.5899	0.35438	0.53496	-0.537
Mof_O 	O 	0.4195	0.17123	0.59071	-0.587
Mof_O 	O 	0.5499	0.10169	0.57718	-0.779
Mof_O 	O 	0.6396	0.99546	0.60549	-0.577
Mof_O 	O 	0.7096	0.34361	0.60454	-0.648
Mof_O 	O 	0.7613	0.22423	0.59481	-0.467
Mof_O 	O 	0.4839	0.19432	0.51366	-0.574
Mof_O 	O 	0.5559	0.17424	0.65303	-0.511
Mof_O 	O 	0.531	0.0257	0.6562	-0.567
Mof_O 	O 	0.65935	0.18969	0.72156	-0.411
Mof_O 	O 	0.6263	0.4996	0.19547	-0.716
Mof_O 	O 	0.716	0.3368	0.26605	-0.728
Mof_O 	O 	0.4196	0.27964	0.85035	-0.6
Mof_O 	O 	0.9688	0.2475	0.43467	-0.706
Mof_O 	O 	0.8637	0.13235	0.4076	-0.559
Mof_O 	O 	0.8122	0.3226	0.35429	-0.802
Mof_O 	O 	0.3302	0.2482	0.77772	-0.432
Mof_O 	O 	0.6903	0.20622	0.27748	-0.715
Mof_O 	O 	0.7516	0.1896	0.35943	-0.617
Mof_O 	O 	0.342	0.36704	0.80197	-0.54
Mof_O 	O 	0.661	0.3024	0.34353	-0.58
Mof_O 	O 	0.73649	0.55737	0.15196	-0.79
Mof_O 	O 	0.6176	0.49179	0.10059	-0.594
Mof_O 	O 	0.5368	0.59036	0.13708	-0.782
Mof_O 	O 	0.0088	0.1228	0.45993	-0.578
Mof_O 	O 	0.8907	0.3653	0.44182	-0.549
Mof_O 	O 	0.0736	0.1776	0.39029	-0.565
Mof_O 	O 	0.8228	0.24469	0.43116	-0.411
Mof_O 	O 	0.7913	0.5804	0.2494	-0.577
Mof_O 	O 	0.8768	0.6004	0.18231	-0.57
Mof_O 	O 	0.9658	0.3516	0.36947	-0.577
Mof_O 	O 	0.5753	0.3978	0.6227	-0.555
Mof_O 	O 	0.7262	0.2847	0.78125	-0.271
Mof_O 	O 	0.8466	0.45446	0.75211	-0.241
Mof_O 	O 	0.6475	0.451	0.28817	-0.267
Mof_O 	O 	0.2663	0.15313	0.20097	-0.732
Mof_O 	O 	0.3588	0.1895	0.14258	-0.586
Mof_O 	O 	0.28642	0.28588	0.18939	-0.811
Mof_O 	O 	0.2817	0.3813	0.26175	-0.549
Mof_O 	O 	0.3175	0.41664	0.17842	-0.602
Mof_O 	O 	0.1709	0.43619	0.19283	-0.737
Mof_O 	O 	0.18714	0.3657	0.12387	-0.609
Mof_O 	O 	0.14551	0.22796	0.15565	-0.601
Mof_O 	O 	0.12244	0.27753	0.06814	-0.553
Mof_O 	O 	0.0111	0.22056	0.09389	-0.751
Mof_O 	O 	0.0899	0.14562	0.03496	-0.537
Mof_O 	O 	0.9195	0.32877	0.09071	-0.588
Mof_O 	O 	0.0499	0.39831	0.07718	-0.78
Mof_O 	O 	0.1396	0.50454	0.10549	-0.578
Mof_O 	O 	0.2096	0.15639	0.10454	-0.648
Mof_O 	O 	0.2613	0.27577	0.09481	-0.467
Mof_O 	O 	0.9839	0.30568	0.01366	-0.576
Mof_O 	O 	0.0559	0.32576	0.15303	-0.511
Mof_O 	O 	0.031	0.4743	0.1562	-0.568
Mof_O 	O 	0.15935	0.31031	0.22156	-0.411
Mof_O 	O 	0.1263	0.0004	0.69547	-0.712
Mof_O 	O 	0.216	0.1632	0.76605	-0.728
Mof_O 	O 	0.9196	0.22036	0.35035	-0.599
Mof_O 	O 	0.4688	0.2525	0.93467	-0.706
Mof_O 	O 	0.3637	0.36765	0.9076	-0.56
Mof_O 	O 	0.3122	0.1774	0.85429	-0.802
Mof_O 	O 	0.8302	0.2518	0.27772	-0.431
Mof_O 	O 	0.1903	0.29378	0.77748	-0.715
Mof_O 	O 	0.2516	0.3104	0.85943	-0.617
Mof_O 	O 	0.842	0.13296	0.30197	-0.539
Mof_O 	O 	0.161	0.1976	0.84353	-0.58
Mof_O 	O 	0.23649	0.94263	0.65196	-0.789
Mof_O 	O 	0.1176	0.00821	0.60059	-0.59
Mof_O 	O 	0.0368	0.90964	0.63708	-0.781
Mof_O 	O 	0.5088	0.3772	0.95993	-0.582
Mof_O 	O 	0.3907	0.1347	0.94182	-0.548
Mof_O 	O 	0.5736	0.3224	0.89029	-0.568
Mof_O 	O 	0.3228	0.25531	0.93116	-0.411
Mof_O 	O 	0.2913	0.9196	0.7494	-0.578
Mof_O 	O 	0.3768	0.8996	0.68231	-0.57
Mof_O 	O 	0.4658	0.1484	0.86947	-0.577
Mof_O 	O 	0.0753	0.1022	0.1227	-0.554
Mof_O 	O 	0.2262	0.2153	0.28125	-0.271
Mof_O 	O 	0.3466	0.04554	0.25211	-0.241
Mof_O 	O 	0.1475	0.049	0.78817	-0.266
Mof_O 	O 	0.2337	0.65313	0.29903	-0.732
Mof_O 	O 	0.1412	0.6895	0.35742	-0.586
Mof_O 	O 	0.21358	0.78588	0.31061	-0.811
Mof_O 	O 	0.2183	0.8813	0.23825	-0.55
Mof_O 	O 	0.1825	0.91664	0.32158	-0.604
Mof_O 	O 	0.3291	0.93619	0.30717	-0.737
Mof_O 	O 	0.31286	0.8657	0.37613	-0.609
Mof_O 	O 	0.35449	0.72796	0.34435	-0.601
Mof_O 	O 	0.37756	0.77753	0.43186	-0.552
Mof_O 	O 	0.4889	0.72056	0.40611	-0.751
Mof_O 	O 	0.4101	0.64562	0.46504	-0.537
Mof_O 	O 	0.5805	0.82877	0.40929	-0.587
Mof_O 	O 	0.4501	0.89831	0.42282	-0.779
Mof_O 	O 	0.3604	0.00454	0.39451	-0.577
Mof_O 	O 	0.2904	0.65639	0.39546	-0.648
Mof_O 	O 	0.2387	0.77577	0.40519	-0.467
Mof_O 	O 	0.5161	0.80568	0.48634	-0.574
Mof_O 	O 	0.4441	0.82576	0.34697	-0.511
Mof_O 	O 	0.469	0.9743	0.3438	-0.567
Mof_O 	O 	0.34065	0.81031	0.27844	-0.411
Mof_O 	O 	0.3737	0.5004	0.80453	-0.716
Mof_O 	O 	0.284	0.6632	0.73395	-0.728
Mof_O 	O 	0.5804	0.72036	0.14965	-0.6
Mof_O 	O 	0.0312	0.7525	0.56533	-0.706
Mof_O 	O 	0.1363	0.86765	0.5924	-0.559
Mof_O 	O 	0.1878	0.6774	0.64571	-0.802
Mof_O 	O 	0.6698	0.7518	0.22228	-0.432
Mof_O 	O 	0.3097	0.79378	0.72252	-0.715
Mof_O 	O 	0.2484	0.8104	0.64057	-0.617
Mof_O 	O 	0.658	0.63296	0.19803	-0.54
Mof_O 	O 	0.339	0.6976	0.65647	-0.58
Mof_O 	O 	0.26351	0.44263	0.84804	-0.79
Mof_O 	O 	0.3824	0.50821	0.89941	-0.594
Mof_O 	O 	0.4632	0.40964	0.86292	-0.782
Mof_O 	O 	0.9912	0.8772	0.54007	-0.578
Mof_O 	O 	0.1093	0.6347	0.55818	-0.549
Mof_O 	O 	0.9264	0.8224	0.60971	-0.565
Mof_O 	O 	0.1772	0.75531	0.56884	-0.411
Mof_O 	O 	0.2087	0.4196	0.7506	-0.577
Mof_O 	O 	0.1232	0.3996	0.81769	-0.57
Mof_O 	O 	0.0342	0.6484	0.63053	-0.577
Mof_O 	O 	0.4247	0.6022	0.3773	-0.555
Mof_O 	O 	0.2738	0.7153	0.21875	-0.271
Mof_O 	O 	0.1534	0.54554	0.24789	-0.241
Mof_O 	O 	0.3525	0.549	0.71183	-0.267
_end
