# CIF file generated by openbabel 3.1.0, see https://openbabel.org
data_I
_chemical_name_common 'image0'
_cell_length_a 34.8531
_cell_length_b 14.7838
_cell_length_c 31.0339
_cell_angle_alpha 90
_cell_angle_beta 101.296
_cell_angle_gamma 90
_space_group_name_H-M_alt 'P 1'
_space_group_name_Hall 'P 1'
loop_
    _symmetry_equiv_pos_as_xyz
    x,y,z
loop_
    _atom_site_label
    _atom_site_type_symbol
    _atom_site_fract_x
    _atom_site_fract_y
    _atom_site_fract_z
    _atom_site_occupancy
    Zn1      Zn       0.62606    0.60176    0.56149    1.000
    Zn2      Zn       0.41578    0.87258    0.41168    1.000
    I1       I        0.60849    0.74183    0.59733    1.000
    I2       I        0.47258    0.84239    0.37446    1.000
    N1       N        0.57947    0.51540    0.55797    1.000
    C1       C        0.56522    0.46620    0.52290    1.000
    H1       H        0.57720    0.47040    0.49800    1.000
    C2       C        0.53354    0.40870    0.52110    1.000
    H2       H        0.52440    0.37360    0.49550    1.000
    C3       C        0.51564    0.40290    0.55620    1.000
    C4       C        0.53220    0.44880    0.59420    1.000
    H3       H        0.52200    0.44270    0.62030    1.000
    C5       C        0.56430    0.50400    0.59320    1.000
    H4       H        0.57580    0.53510    0.61940    1.000
    N2       N        0.42946    0.98040    0.45500    1.000
    C6       C        0.46132    0.03080    0.45590    1.000
    H5       H        0.47970    0.01320    0.43860    1.000
    C7       C        0.46829    0.10800    0.48130    1.000
    H6       H        0.49120    0.14290    0.48140    1.000
    C8       C        0.44171    0.13410    0.50660    1.000
    C9       C        0.40900    0.08120    0.50640    1.000
    H7       H        0.39030    0.09700    0.52360    1.000
    C10      C        0.40430    0.00410    0.48020    1.000
    H8       H        0.38220    0.96660    0.48040    1.000
    N3       N        0.36030    0.34580    0.68190    1.000
    C11      C        0.39120    0.39420    0.68150    1.000
    H9       H        0.39720    0.44150    0.70250    1.000
    C12      C        0.41600    0.38090    0.65250    1.000
    H10      H        0.43890    0.41680    0.65440    1.000
    C13      C        0.40730    0.31560    0.62090    1.000
    C14      C        0.37320    0.26910    0.61810    1.000
    H11      H        0.36520    0.22600    0.59540    1.000
    C15      C        0.35020    0.28620    0.64920    1.000
    H12      H        0.32630    0.25390    0.64720    1.000
    C16      C        0.48196    0.34180    0.55680    1.000
    N4       N        0.47591    0.27470    0.52822    1.000
    C17      C        0.44785    0.21740    0.53416    1.000
    N5       N        0.42530    0.22610    0.56364    1.000
    C18      C        0.43207    0.29980    0.58860    1.000
    N6       N        0.46117    0.35890    0.58746    1.000
    N7       N        0.37662    0.93900    0.36262    1.000
    C19      C        0.38130    0.02670    0.35700    1.000
    H13      H        0.40030    0.05820    0.37790    1.000
    C20      C        0.36020    0.07430    0.32250    1.000
    H14      H        0.36440    0.13740    0.31980    1.000
    C21      C        0.33294    0.03000    0.29190    1.000
    C22      C        0.32727    0.93920    0.29780    1.000
    H15      H        0.30840    0.90640    0.27750    1.000
    C23      C        0.34960    0.89620    0.33410    1.000
    H16      H        0.34520    0.83370    0.33850    1.000
    N8       N        0.31523    0.49780    0.22480    1.000
    C24      C        0.28510    0.46480    0.19770    1.000
    H17      H        0.26760    0.50540    0.18000    1.000
    C25      C        0.27760    0.37170    0.19360    1.000
    H18      H        0.25560    0.34920    0.17340    1.000
    C26      C        0.30297    0.31390    0.22000    1.000
    C27      C        0.33450    0.34930    0.24850    1.000
    H19      H        0.35260    0.31080    0.26680    1.000
    C28      C        0.33940    0.44320    0.25020    1.000
    H20      H        0.36080    0.46820    0.27040    1.000
    N9       N        0.16876    0.96160    0.10691    1.000
    C29      C        0.17700    0.04860    0.10210    1.000
    H21      H        0.16160    0.08080    0.07830    1.000
    C30      C        0.20630    0.09440    0.12950    1.000
    H22      H        0.21110    0.15660    0.12490    1.000
    C31      C        0.22885    0.04680    0.16407    1.000
    C32      C        0.22000    0.95750    0.16980    1.000
    H23      H        0.23440    0.92390    0.19370    1.000
    C33      C        0.19011    0.91720    0.14060    1.000
    H24      H        0.18450    0.85520    0.14460    1.000
    C34      C        0.30991    0.08150    0.25455    1.000
    N10      N        0.31926    0.16850    0.25180    1.000
    C35      C        0.29605    0.21490    0.22004    1.000
    N11      N        0.26688    0.17930    0.19006    1.000
    C36      C        0.26083    0.09190    0.19566    1.000
    N12      N        0.28065    0.03940    0.22766    1.000
    I3       I        0.37879    0.76010    0.44888    1.000
    I4       I        0.64640    0.60310    0.49029    1.000
    Zn3      Zn       0.33036    0.63880    0.23200    1.000
    I5       I        0.26821    0.72800    0.20672    1.000
    I6       I        0.37419    0.65370    0.30548    1.000
    Zn4      Zn       0.32010    0.63170    0.22330    1.000
    I7       I        0.25740    0.71320    0.19410    1.000
    I8       I        0.36620    0.77510    0.44610    1.000
    I9       I        0.65119    0.58460    0.48886    1.000
    I10      I        0.36630    0.66780    0.29790    1.000
    Zn5      Zn       0.12606    0.10176    0.56149    1.000
    Zn6      Zn       0.91578    0.37258    0.41168    1.000
    I11      I        0.10849    0.24183    0.59733    1.000
    I12      I        0.97258    0.34239    0.37446    1.000
    N13      N        0.07947    0.01540    0.55797    1.000
    C37      C        0.06522    0.96620    0.52290    1.000
    H25      H        0.07720    0.97040    0.49800    1.000
    C38      C        0.03354    0.90870    0.52110    1.000
    H26      H        0.02440    0.87360    0.49550    1.000
    C39      C        0.01564    0.90290    0.55620    1.000
    C40      C        0.03220    0.94880    0.59420    1.000
    H27      H        0.02200    0.94270    0.62030    1.000
    C41      C        0.06430    0.00400    0.59320    1.000
    H28      H        0.07580    0.03510    0.61940    1.000
    N14      N        0.92946    0.48040    0.45500    1.000
    C42      C        0.96132    0.53080    0.45590    1.000
    H29      H        0.97970    0.51320    0.43860    1.000
    C43      C        0.96829    0.60800    0.48130    1.000
    H30      H        0.99120    0.64290    0.48140    1.000
    C44      C        0.94171    0.63410    0.50660    1.000
    C45      C        0.90900    0.58120    0.50640    1.000
    H31      H        0.89030    0.59700    0.52360    1.000
    C46      C        0.90430    0.50410    0.48020    1.000
    H32      H        0.88220    0.46660    0.48040    1.000
    N15      N        0.86030    0.84580    0.68190    1.000
    C47      C        0.89120    0.89420    0.68150    1.000
    H33      H        0.89720    0.94150    0.70250    1.000
    C48      C        0.91600    0.88090    0.65250    1.000
    H34      H        0.93890    0.91680    0.65440    1.000
    C49      C        0.90730    0.81560    0.62090    1.000
    C50      C        0.87320    0.76910    0.61810    1.000
    H35      H        0.86520    0.72600    0.59540    1.000
    C51      C        0.85020    0.78620    0.64920    1.000
    H36      H        0.82630    0.75390    0.64720    1.000
    C52      C        0.98196    0.84180    0.55680    1.000
    N16      N        0.97591    0.77470    0.52822    1.000
    C53      C        0.94785    0.71740    0.53416    1.000
    N17      N        0.92530    0.72610    0.56364    1.000
    C54      C        0.93207    0.79980    0.58860    1.000
    N18      N        0.96117    0.85890    0.58746    1.000
    N19      N        0.87662    0.43900    0.36262    1.000
    C55      C        0.88130    0.52670    0.35700    1.000
    H37      H        0.90030    0.55820    0.37790    1.000
    C56      C        0.86020    0.57430    0.32250    1.000
    H38      H        0.86440    0.63740    0.31980    1.000
    C57      C        0.83294    0.53000    0.29190    1.000
    C58      C        0.82727    0.43920    0.29780    1.000
    H39      H        0.80840    0.40640    0.27750    1.000
    C59      C        0.84960    0.39620    0.33410    1.000
    H40      H        0.84520    0.33370    0.33850    1.000
    N20      N        0.81523    0.99780    0.22480    1.000
    C60      C        0.78510    0.96480    0.19770    1.000
    H41      H        0.76760    0.00540    0.18000    1.000
    C61      C        0.77760    0.87170    0.19360    1.000
    H42      H        0.75560    0.84920    0.17340    1.000
    C62      C        0.80297    0.81390    0.22000    1.000
    C63      C        0.83450    0.84930    0.24850    1.000
    H43      H        0.85260    0.81080    0.26680    1.000
    C64      C        0.83940    0.94320    0.25020    1.000
    H44      H        0.86080    0.96820    0.27040    1.000
    N21      N        0.66876    0.46160    0.10691    1.000
    C65      C        0.67700    0.54860    0.10210    1.000
    H45      H        0.66160    0.58080    0.07830    1.000
    C66      C        0.70630    0.59440    0.12950    1.000
    H46      H        0.71110    0.65660    0.12490    1.000
    C67      C        0.72885    0.54680    0.16407    1.000
    C68      C        0.72000    0.45750    0.16980    1.000
    H47      H        0.73440    0.42390    0.19370    1.000
    C69      C        0.69011    0.41720    0.14060    1.000
    H48      H        0.68450    0.35520    0.14460    1.000
    C70      C        0.80991    0.58150    0.25455    1.000
    N22      N        0.81926    0.66850    0.25180    1.000
    C71      C        0.79605    0.71490    0.22004    1.000
    N23      N        0.76688    0.67930    0.19006    1.000
    C72      C        0.76083    0.59190    0.19566    1.000
    N24      N        0.78065    0.53940    0.22766    1.000
    I13      I        0.87879    0.26010    0.44888    1.000
    I14      I        0.14640    0.10310    0.49029    1.000
    Zn7      Zn       0.83036    0.13880    0.23200    1.000
    I15      I        0.76821    0.22800    0.20672    1.000
    I16      I        0.87419    0.15370    0.30548    1.000
    Zn8      Zn       0.82010    0.13170    0.22330    1.000
    I17      I        0.75740    0.21320    0.19410    1.000
    I18      I        0.86620    0.27510    0.44610    1.000
    I19      I        0.15119    0.08460    0.48886    1.000
    I20      I        0.86630    0.16780    0.29790    1.000
    Zn9      Zn       0.62606    0.39824    0.06149    1.000
    Zn10     Zn       0.41578    0.12742    0.91168    1.000
    I21      I        0.60849    0.25817    0.09733    1.000
    I22      I        0.47258    0.15761    0.87446    1.000
    N25      N        0.57947    0.48460    0.05797    1.000
    C73      C        0.56522    0.53380    0.02290    1.000
    H49      H        0.57720    0.52960    0.99800    1.000
    C74      C        0.53354    0.59130    0.02110    1.000
    H50      H        0.52440    0.62640    0.99550    1.000
    C75      C        0.51564    0.59710    0.05620    1.000
    C76      C        0.53220    0.55120    0.09420    1.000
    H51      H        0.52200    0.55730    0.12030    1.000
    C77      C        0.56430    0.49600    0.09320    1.000
    H52      H        0.57580    0.46490    0.11940    1.000
    N26      N        0.42946    0.01960    0.95500    1.000
    C78      C        0.46132    0.96920    0.95590    1.000
    H53      H        0.47970    0.98680    0.93860    1.000
    C79      C        0.46829    0.89200    0.98130    1.000
    H54      H        0.49120    0.85710    0.98140    1.000
    C80      C        0.44171    0.86590    0.00660    1.000
    C81      C        0.40900    0.91880    0.00640    1.000
    H55      H        0.39030    0.90300    0.02360    1.000
    C82      C        0.40430    0.99590    0.98020    1.000
    H56      H        0.38220    0.03340    0.98040    1.000
    N27      N        0.36030    0.65420    0.18190    1.000
    C83      C        0.39120    0.60580    0.18150    1.000
    H57      H        0.39720    0.55850    0.20250    1.000
    C84      C        0.41600    0.61910    0.15250    1.000
    H58      H        0.43890    0.58320    0.15440    1.000
    C85      C        0.40730    0.68440    0.12090    1.000
    C86      C        0.37320    0.73090    0.11810    1.000
    H59      H        0.36520    0.77400    0.09540    1.000
    C87      C        0.35020    0.71380    0.14920    1.000
    H60      H        0.32630    0.74610    0.14720    1.000
    C88      C        0.48196    0.65820    0.05680    1.000
    N28      N        0.47591    0.72530    0.02822    1.000
    C89      C        0.44785    0.78260    0.03416    1.000
    N29      N        0.42530    0.77390    0.06364    1.000
    C90      C        0.43207    0.70020    0.08860    1.000
    N30      N        0.46117    0.64110    0.08746    1.000
    N31      N        0.37662    0.06100    0.86262    1.000
    C91      C        0.38130    0.97330    0.85700    1.000
    H61      H        0.40030    0.94180    0.87790    1.000
    C92      C        0.36020    0.92570    0.82250    1.000
    H62      H        0.36440    0.86260    0.81980    1.000
    C93      C        0.33294    0.97000    0.79190    1.000
    C94      C        0.32727    0.06080    0.79780    1.000
    H63      H        0.30840    0.09360    0.77750    1.000
    C95      C        0.34960    0.10380    0.83410    1.000
    H64      H        0.34520    0.16630    0.83850    1.000
    N32      N        0.31523    0.50220    0.72480    1.000
    C96      C        0.28510    0.53520    0.69770    1.000
    H65      H        0.26760    0.49460    0.68000    1.000
    C97      C        0.27760    0.62830    0.69360    1.000
    H66      H        0.25560    0.65080    0.67340    1.000
    C98      C        0.30297    0.68610    0.72000    1.000
    C99      C        0.33450    0.65070    0.74850    1.000
    H67      H        0.35260    0.68920    0.76680    1.000
    C100     C        0.33940    0.55680    0.75020    1.000
    H68      H        0.36080    0.53180    0.77040    1.000
    N33      N        0.16876    0.03840    0.60691    1.000
    C101     C        0.17700    0.95140    0.60210    1.000
    H69      H        0.16160    0.91920    0.57830    1.000
    C102     C        0.20630    0.90560    0.62950    1.000
    H70      H        0.21110    0.84340    0.62490    1.000
    C103     C        0.22885    0.95320    0.66407    1.000
    C104     C        0.22000    0.04250    0.66980    1.000
    H71      H        0.23440    0.07610    0.69370    1.000
    C105     C        0.19011    0.08280    0.64060    1.000
    H72      H        0.18450    0.14480    0.64460    1.000
    C106     C        0.30991    0.91850    0.75455    1.000
    N34      N        0.31926    0.83150    0.75180    1.000
    C107     C        0.29605    0.78510    0.72004    1.000
    N35      N        0.26688    0.82070    0.69006    1.000
    C108     C        0.26083    0.90810    0.69566    1.000
    N36      N        0.28065    0.96060    0.72766    1.000
    I23      I        0.37879    0.23990    0.94888    1.000
    I24      I        0.64640    0.39690    0.99029    1.000
    Zn11     Zn       0.33036    0.36120    0.73200    1.000
    I25      I        0.26821    0.27200    0.70672    1.000
    I26      I        0.37419    0.34630    0.80548    1.000
    Zn12     Zn       0.32010    0.36830    0.72330    1.000
    I27      I        0.25740    0.28680    0.69410    1.000
    I28      I        0.36620    0.22490    0.94610    1.000
    I29      I        0.65119    0.41540    0.98886    1.000
    I30      I        0.36630    0.33220    0.79790    1.000
    Zn13     Zn       0.12606    0.89824    0.06149    1.000
    Zn14     Zn       0.91578    0.62742    0.91168    1.000
    I31      I        0.10849    0.75817    0.09733    1.000
    I32      I        0.97258    0.65761    0.87446    1.000
    N37      N        0.07947    0.98460    0.05797    1.000
    C109     C        0.06522    0.03380    0.02290    1.000
    H73      H        0.07720    0.02960    0.99800    1.000
    C110     C        0.03354    0.09130    0.02110    1.000
    H74      H        0.02440    0.12640    0.99550    1.000
    C111     C        0.01564    0.09710    0.05620    1.000
    C112     C        0.03220    0.05120    0.09420    1.000
    H75      H        0.02200    0.05730    0.12030    1.000
    C113     C        0.06430    0.99600    0.09320    1.000
    H76      H        0.07580    0.96490    0.11940    1.000
    N38      N        0.92946    0.51960    0.95500    1.000
    C114     C        0.96132    0.46920    0.95590    1.000
    H77      H        0.97970    0.48680    0.93860    1.000
    C115     C        0.96829    0.39200    0.98130    1.000
    H78      H        0.99120    0.35710    0.98140    1.000
    C116     C        0.94171    0.36590    0.00660    1.000
    C117     C        0.90900    0.41880    0.00640    1.000
    H79      H        0.89030    0.40300    0.02360    1.000
    C118     C        0.90430    0.49590    0.98020    1.000
    H80      H        0.88220    0.53340    0.98040    1.000
    N39      N        0.86030    0.15420    0.18190    1.000
    C119     C        0.89120    0.10580    0.18150    1.000
    H81      H        0.89720    0.05850    0.20250    1.000
    C120     C        0.91600    0.11910    0.15250    1.000
    H82      H        0.93890    0.08320    0.15440    1.000
    C121     C        0.90730    0.18440    0.12090    1.000
    C122     C        0.87320    0.23090    0.11810    1.000
    H83      H        0.86520    0.27400    0.09540    1.000
    C123     C        0.85020    0.21380    0.14920    1.000
    H84      H        0.82630    0.24610    0.14720    1.000
    C124     C        0.98196    0.15820    0.05680    1.000
    N40      N        0.97591    0.22530    0.02822    1.000
    C125     C        0.94785    0.28260    0.03416    1.000
    N41      N        0.92530    0.27390    0.06364    1.000
    C126     C        0.93207    0.20020    0.08860    1.000
    N42      N        0.96117    0.14110    0.08746    1.000
    N43      N        0.87662    0.56100    0.86262    1.000
    C127     C        0.88130    0.47330    0.85700    1.000
    H85      H        0.90030    0.44180    0.87790    1.000
    C128     C        0.86020    0.42570    0.82250    1.000
    H86      H        0.86440    0.36260    0.81980    1.000
    C129     C        0.83294    0.47000    0.79190    1.000
    C130     C        0.82727    0.56080    0.79780    1.000
    H87      H        0.80840    0.59360    0.77750    1.000
    C131     C        0.84960    0.60380    0.83410    1.000
    H88      H        0.84520    0.66630    0.83850    1.000
    N44      N        0.81523    0.00220    0.72480    1.000
    C132     C        0.78510    0.03520    0.69770    1.000
    H89      H        0.76760    0.99460    0.68000    1.000
    C133     C        0.77760    0.12830    0.69360    1.000
    H90      H        0.75560    0.15080    0.67340    1.000
    C134     C        0.80297    0.18610    0.72000    1.000
    C135     C        0.83450    0.15070    0.74850    1.000
    H91      H        0.85260    0.18920    0.76680    1.000
    C136     C        0.83940    0.05680    0.75020    1.000
    H92      H        0.86080    0.03180    0.77040    1.000
    N45      N        0.66876    0.53840    0.60691    1.000
    C137     C        0.67700    0.45140    0.60210    1.000
    H93      H        0.66160    0.41920    0.57830    1.000
    C138     C        0.70630    0.40560    0.62950    1.000
    H94      H        0.71110    0.34340    0.62490    1.000
    C139     C        0.72885    0.45320    0.66407    1.000
    C140     C        0.72000    0.54250    0.66980    1.000
    H95      H        0.73440    0.57610    0.69370    1.000
    C141     C        0.69011    0.58280    0.64060    1.000
    H96      H        0.68450    0.64480    0.64460    1.000
    C142     C        0.80991    0.41850    0.75455    1.000
    N46      N        0.81926    0.33150    0.75180    1.000
    C143     C        0.79605    0.28510    0.72004    1.000
    N47      N        0.76688    0.32070    0.69006    1.000
    C144     C        0.76083    0.40810    0.69566    1.000
    N48      N        0.78065    0.46060    0.72766    1.000
    I33      I        0.87879    0.73990    0.94888    1.000
    I34      I        0.14640    0.89690    0.99029    1.000
    Zn15     Zn       0.83036    0.86120    0.73200    1.000
    I35      I        0.76821    0.77200    0.70672    1.000
    I36      I        0.87419    0.84630    0.80548    1.000
    Zn16     Zn       0.82010    0.86830    0.72330    1.000
    I37      I        0.75740    0.78680    0.69410    1.000
    I38      I        0.86620    0.72490    0.94610    1.000
    I39      I        0.15119    0.91540    0.98886    1.000
    I40      I        0.86630    0.83220    0.79790    1.000
    Zn17     Zn       0.37394    0.60176    0.93851    1.000
    Zn18     Zn       0.58422    0.87258    0.08832    1.000
    I41      I        0.39151    0.74183    0.90267    1.000
    I42      I        0.52742    0.84239    0.12554    1.000
    N49      N        0.42053    0.51540    0.94203    1.000
    C145     C        0.43478    0.46620    0.97710    1.000
    H97      H        0.42280    0.47040    0.00200    1.000
    C146     C        0.46646    0.40870    0.97890    1.000
    H98      H        0.47560    0.37360    0.00450    1.000
    C147     C        0.48436    0.40290    0.94380    1.000
    C148     C        0.46780    0.44880    0.90580    1.000
    H99      H        0.47800    0.44270    0.87970    1.000
    C149     C        0.43570    0.50400    0.90680    1.000
    H100     H        0.42420    0.53510    0.88060    1.000
    N50      N        0.57054    0.98040    0.04500    1.000
    C150     C        0.53868    0.03080    0.04410    1.000
    H101     H        0.52030    0.01320    0.06140    1.000
    C151     C        0.53171    0.10800    0.01870    1.000
    H102     H        0.50880    0.14290    0.01860    1.000
    C152     C        0.55829    0.13410    0.99340    1.000
    C153     C        0.59100    0.08120    0.99360    1.000
    H103     H        0.60970    0.09700    0.97640    1.000
    C154     C        0.59570    0.00410    0.01980    1.000
    H104     H        0.61780    0.96660    0.01960    1.000
    N51      N        0.63970    0.34580    0.81810    1.000
    C155     C        0.60880    0.39420    0.81850    1.000
    H105     H        0.60280    0.44150    0.79750    1.000
    C156     C        0.58400    0.38090    0.84750    1.000
    H106     H        0.56110    0.41680    0.84560    1.000
    C157     C        0.59270    0.31560    0.87910    1.000
    C158     C        0.62680    0.26910    0.88190    1.000
    H107     H        0.63480    0.22600    0.90460    1.000
    C159     C        0.64980    0.28620    0.85080    1.000
    H108     H        0.67370    0.25390    0.85280    1.000
    C160     C        0.51804    0.34180    0.94320    1.000
    N52      N        0.52409    0.27470    0.97178    1.000
    C161     C        0.55215    0.21740    0.96584    1.000
    N53      N        0.57470    0.22610    0.93636    1.000
    C162     C        0.56793    0.29980    0.91140    1.000
    N54      N        0.53883    0.35890    0.91254    1.000
    N55      N        0.62338    0.93900    0.13738    1.000
    C163     C        0.61870    0.02670    0.14300    1.000
    H109     H        0.59970    0.05820    0.12210    1.000
    C164     C        0.63980    0.07430    0.17750    1.000
    H110     H        0.63560    0.13740    0.18020    1.000
    C165     C        0.66706    0.03000    0.20810    1.000
    C166     C        0.67273    0.93920    0.20220    1.000
    H111     H        0.69160    0.90640    0.22250    1.000
    C167     C        0.65040    0.89620    0.16590    1.000
    H112     H        0.65480    0.83370    0.16150    1.000
    N56      N        0.68477    0.49780    0.27520    1.000
    C168     C        0.71490    0.46480    0.30230    1.000
    H113     H        0.73240    0.50540    0.32000    1.000
    C169     C        0.72240    0.37170    0.30640    1.000
    H114     H        0.74440    0.34920    0.32660    1.000
    C170     C        0.69703    0.31390    0.28000    1.000
    C171     C        0.66550    0.34930    0.25150    1.000
    H115     H        0.64740    0.31080    0.23320    1.000
    C172     C        0.66060    0.44320    0.24980    1.000
    H116     H        0.63920    0.46820    0.22960    1.000
    N57      N        0.83124    0.96160    0.39309    1.000
    C173     C        0.82300    0.04860    0.39790    1.000
    H117     H        0.83840    0.08080    0.42170    1.000
    C174     C        0.79370    0.09440    0.37050    1.000
    H118     H        0.78890    0.15660    0.37510    1.000
    C175     C        0.77115    0.04680    0.33593    1.000
    C176     C        0.78000    0.95750    0.33020    1.000
    H119     H        0.76560    0.92390    0.30630    1.000
    C177     C        0.80989    0.91720    0.35940    1.000
    H120     H        0.81550    0.85520    0.35540    1.000
    C178     C        0.69009    0.08150    0.24545    1.000
    N58      N        0.68074    0.16850    0.24820    1.000
    C179     C        0.70395    0.21490    0.27996    1.000
    N59      N        0.73312    0.17930    0.30994    1.000
    C180     C        0.73917    0.09190    0.30434    1.000
    N60      N        0.71935    0.03940    0.27234    1.000
    I43      I        0.62121    0.76010    0.05112    1.000
    I44      I        0.35360    0.60310    0.00971    1.000
    Zn19     Zn       0.66964    0.63880    0.26800    1.000
    I45      I        0.73179    0.72800    0.29328    1.000
    I46      I        0.62581    0.65370    0.19452    1.000
    Zn20     Zn       0.67990    0.63170    0.27670    1.000
    I47      I        0.74260    0.71320    0.30590    1.000
    I48      I        0.63380    0.77510    0.05390    1.000
    I49      I        0.34881    0.58460    0.01114    1.000
    I50      I        0.63370    0.66780    0.20210    1.000
    Zn21     Zn       0.87394    0.10176    0.93851    1.000
    Zn22     Zn       0.08422    0.37258    0.08832    1.000
    I51      I        0.89151    0.24183    0.90267    1.000
    I52      I        0.02742    0.34239    0.12554    1.000
    N61      N        0.92053    0.01540    0.94203    1.000
    C181     C        0.93478    0.96620    0.97710    1.000
    H121     H        0.92280    0.97040    0.00200    1.000
    C182     C        0.96646    0.90870    0.97890    1.000
    H122     H        0.97560    0.87360    0.00450    1.000
    C183     C        0.98436    0.90290    0.94380    1.000
    C184     C        0.96780    0.94880    0.90580    1.000
    H123     H        0.97800    0.94270    0.87970    1.000
    C185     C        0.93570    0.00400    0.90680    1.000
    H124     H        0.92420    0.03510    0.88060    1.000
    N62      N        0.07054    0.48040    0.04500    1.000
    C186     C        0.03868    0.53080    0.04410    1.000
    H125     H        0.02030    0.51320    0.06140    1.000
    C187     C        0.03171    0.60800    0.01870    1.000
    H126     H        0.00880    0.64290    0.01860    1.000
    C188     C        0.05829    0.63410    0.99340    1.000
    C189     C        0.09100    0.58120    0.99360    1.000
    H127     H        0.10970    0.59700    0.97640    1.000
    C190     C        0.09570    0.50410    0.01980    1.000
    H128     H        0.11780    0.46660    0.01960    1.000
    N63      N        0.13970    0.84580    0.81810    1.000
    C191     C        0.10880    0.89420    0.81850    1.000
    H129     H        0.10280    0.94150    0.79750    1.000
    C192     C        0.08400    0.88090    0.84750    1.000
    H130     H        0.06110    0.91680    0.84560    1.000
    C193     C        0.09270    0.81560    0.87910    1.000
    C194     C        0.12680    0.76910    0.88190    1.000
    H131     H        0.13480    0.72600    0.90460    1.000
    C195     C        0.14980    0.78620    0.85080    1.000
    H132     H        0.17370    0.75390    0.85280    1.000
    C196     C        0.01804    0.84180    0.94320    1.000
    N64      N        0.02409    0.77470    0.97178    1.000
    C197     C        0.05215    0.71740    0.96584    1.000
    N65      N        0.07470    0.72610    0.93636    1.000
    C198     C        0.06793    0.79980    0.91140    1.000
    N66      N        0.03883    0.85890    0.91254    1.000
    N67      N        0.12338    0.43900    0.13738    1.000
    C199     C        0.11870    0.52670    0.14300    1.000
    H133     H        0.09970    0.55820    0.12210    1.000
    C200     C        0.13980    0.57430    0.17750    1.000
    H134     H        0.13560    0.63740    0.18020    1.000
    C201     C        0.16706    0.53000    0.20810    1.000
    C202     C        0.17273    0.43920    0.20220    1.000
    H135     H        0.19160    0.40640    0.22250    1.000
    C203     C        0.15040    0.39620    0.16590    1.000
    H136     H        0.15480    0.33370    0.16150    1.000
    N68      N        0.18477    0.99780    0.27520    1.000
    C204     C        0.21490    0.96480    0.30230    1.000
    H137     H        0.23240    0.00540    0.32000    1.000
    C205     C        0.22240    0.87170    0.30640    1.000
    H138     H        0.24440    0.84920    0.32660    1.000
    C206     C        0.19703    0.81390    0.28000    1.000
    C207     C        0.16550    0.84930    0.25150    1.000
    H139     H        0.14740    0.81080    0.23320    1.000
    C208     C        0.16060    0.94320    0.24980    1.000
    H140     H        0.13920    0.96820    0.22960    1.000
    N69      N        0.33124    0.46160    0.39309    1.000
    C209     C        0.32300    0.54860    0.39790    1.000
    H141     H        0.33840    0.58080    0.42170    1.000
    C210     C        0.29370    0.59440    0.37050    1.000
    H142     H        0.28890    0.65660    0.37510    1.000
    C211     C        0.27115    0.54680    0.33593    1.000
    C212     C        0.28000    0.45750    0.33020    1.000
    H143     H        0.26560    0.42390    0.30630    1.000
    C213     C        0.30989    0.41720    0.35940    1.000
    H144     H        0.31550    0.35520    0.35540    1.000
    C214     C        0.19009    0.58150    0.24545    1.000
    N70      N        0.18074    0.66850    0.24820    1.000
    C215     C        0.20395    0.71490    0.27996    1.000
    N71      N        0.23312    0.67930    0.30994    1.000
    C216     C        0.23917    0.59190    0.30434    1.000
    N72      N        0.21935    0.53940    0.27234    1.000
    I53      I        0.12121    0.26010    0.05112    1.000
    I54      I        0.85360    0.10310    0.00971    1.000
    Zn23     Zn       0.16964    0.13880    0.26800    1.000
    I55      I        0.23179    0.22800    0.29328    1.000
    I56      I        0.12581    0.15370    0.19452    1.000
    Zn24     Zn       0.17990    0.13170    0.27670    1.000
    I57      I        0.24260    0.21320    0.30590    1.000
    I58      I        0.13380    0.27510    0.05390    1.000
    I59      I        0.84881    0.08460    0.01114    1.000
    I60      I        0.13370    0.16780    0.20210    1.000
    Zn25     Zn       0.37394    0.39824    0.43851    1.000
    Zn26     Zn       0.58422    0.12742    0.58832    1.000
    I61      I        0.39151    0.25817    0.40267    1.000
    I62      I        0.52742    0.15761    0.62554    1.000
    N73      N        0.42053    0.48460    0.44203    1.000
    C217     C        0.43478    0.53380    0.47710    1.000
    H145     H        0.42280    0.52960    0.50200    1.000
    C218     C        0.46646    0.59130    0.47890    1.000
    H146     H        0.47560    0.62640    0.50450    1.000
    C219     C        0.48436    0.59710    0.44380    1.000
    C220     C        0.46780    0.55120    0.40580    1.000
    H147     H        0.47800    0.55730    0.37970    1.000
    C221     C        0.43570    0.49600    0.40680    1.000
    H148     H        0.42420    0.46490    0.38060    1.000
    N74      N        0.57054    0.01960    0.54500    1.000
    C222     C        0.53868    0.96920    0.54410    1.000
    H149     H        0.52030    0.98680    0.56140    1.000
    C223     C        0.53171    0.89200    0.51870    1.000
    H150     H        0.50880    0.85710    0.51860    1.000
    C224     C        0.55829    0.86590    0.49340    1.000
    C225     C        0.59100    0.91880    0.49360    1.000
    H151     H        0.60970    0.90300    0.47640    1.000
    C226     C        0.59570    0.99590    0.51980    1.000
    H152     H        0.61780    0.03340    0.51960    1.000
    N75      N        0.63970    0.65420    0.31810    1.000
    C227     C        0.60880    0.60580    0.31850    1.000
    H153     H        0.60280    0.55850    0.29750    1.000
    C228     C        0.58400    0.61910    0.34750    1.000
    H154     H        0.56110    0.58320    0.34560    1.000
    C229     C        0.59270    0.68440    0.37910    1.000
    C230     C        0.62680    0.73090    0.38190    1.000
    H155     H        0.63480    0.77400    0.40460    1.000
    C231     C        0.64980    0.71380    0.35080    1.000
    H156     H        0.67370    0.74610    0.35280    1.000
    C232     C        0.51804    0.65820    0.44320    1.000
    N76      N        0.52409    0.72530    0.47178    1.000
    C233     C        0.55215    0.78260    0.46584    1.000
    N77      N        0.57470    0.77390    0.43636    1.000
    C234     C        0.56793    0.70020    0.41140    1.000
    N78      N        0.53883    0.64110    0.41254    1.000
    N79      N        0.62338    0.06100    0.63738    1.000
    C235     C        0.61870    0.97330    0.64300    1.000
    H157     H        0.59970    0.94180    0.62210    1.000
    C236     C        0.63980    0.92570    0.67750    1.000
    H158     H        0.63560    0.86260    0.68020    1.000
    C237     C        0.66706    0.97000    0.70810    1.000
    C238     C        0.67273    0.06080    0.70220    1.000
    H159     H        0.69160    0.09360    0.72250    1.000
    C239     C        0.65040    0.10380    0.66590    1.000
    H160     H        0.65480    0.16630    0.66150    1.000
    N80      N        0.68477    0.50220    0.77520    1.000
    C240     C        0.71490    0.53520    0.80230    1.000
    H161     H        0.73240    0.49460    0.82000    1.000
    C241     C        0.72240    0.62830    0.80640    1.000
    H162     H        0.74440    0.65080    0.82660    1.000
    C242     C        0.69703    0.68610    0.78000    1.000
    C243     C        0.66550    0.65070    0.75150    1.000
    H163     H        0.64740    0.68920    0.73320    1.000
    C244     C        0.66060    0.55680    0.74980    1.000
    H164     H        0.63920    0.53180    0.72960    1.000
    N81      N        0.83124    0.03840    0.89309    1.000
    C245     C        0.82300    0.95140    0.89790    1.000
    H165     H        0.83840    0.91920    0.92170    1.000
    C246     C        0.79370    0.90560    0.87050    1.000
    H166     H        0.78890    0.84340    0.87510    1.000
    C247     C        0.77115    0.95320    0.83593    1.000
    C248     C        0.78000    0.04250    0.83020    1.000
    H167     H        0.76560    0.07610    0.80630    1.000
    C249     C        0.80989    0.08280    0.85940    1.000
    H168     H        0.81550    0.14480    0.85540    1.000
    C250     C        0.69009    0.91850    0.74545    1.000
    N82      N        0.68074    0.83150    0.74820    1.000
    C251     C        0.70395    0.78510    0.77996    1.000
    N83      N        0.73312    0.82070    0.80994    1.000
    C252     C        0.73917    0.90810    0.80434    1.000
    N84      N        0.71935    0.96060    0.77234    1.000
    I63      I        0.62121    0.23990    0.55112    1.000
    I64      I        0.35360    0.39690    0.50971    1.000
    Zn27     Zn       0.66964    0.36120    0.76800    1.000
    I65      I        0.73179    0.27200    0.79328    1.000
    I66      I        0.62581    0.34630    0.69452    1.000
    Zn28     Zn       0.67990    0.36830    0.77670    1.000
    I67      I        0.74260    0.28680    0.80590    1.000
    I68      I        0.63380    0.22490    0.55390    1.000
    I69      I        0.34881    0.41540    0.51114    1.000
    I70      I        0.63370    0.33220    0.70210    1.000
    Zn29     Zn       0.87394    0.89824    0.43851    1.000
    Zn30     Zn       0.08422    0.62742    0.58832    1.000
    I71      I        0.89151    0.75817    0.40267    1.000
    I72      I        0.02742    0.65761    0.62554    1.000
    N85      N        0.92053    0.98460    0.44203    1.000
    C253     C        0.93478    0.03380    0.47710    1.000
    H169     H        0.92280    0.02960    0.50200    1.000
    C254     C        0.96646    0.09130    0.47890    1.000
    H170     H        0.97560    0.12640    0.50450    1.000
    C255     C        0.98436    0.09710    0.44380    1.000
    C256     C        0.96780    0.05120    0.40580    1.000
    H171     H        0.97800    0.05730    0.37970    1.000
    C257     C        0.93570    0.99600    0.40680    1.000
    H172     H        0.92420    0.96490    0.38060    1.000
    N86      N        0.07054    0.51960    0.54500    1.000
    C258     C        0.03868    0.46920    0.54410    1.000
    H173     H        0.02030    0.48680    0.56140    1.000
    C259     C        0.03171    0.39200    0.51870    1.000
    H174     H        0.00880    0.35710    0.51860    1.000
    C260     C        0.05829    0.36590    0.49340    1.000
    C261     C        0.09100    0.41880    0.49360    1.000
    H175     H        0.10970    0.40300    0.47640    1.000
    C262     C        0.09570    0.49590    0.51980    1.000
    H176     H        0.11780    0.53340    0.51960    1.000
    N87      N        0.13970    0.15420    0.31810    1.000
    C263     C        0.10880    0.10580    0.31850    1.000
    H177     H        0.10280    0.05850    0.29750    1.000
    C264     C        0.08400    0.11910    0.34750    1.000
    H178     H        0.06110    0.08320    0.34560    1.000
    C265     C        0.09270    0.18440    0.37910    1.000
    C266     C        0.12680    0.23090    0.38190    1.000
    H179     H        0.13480    0.27400    0.40460    1.000
    C267     C        0.14980    0.21380    0.35080    1.000
    H180     H        0.17370    0.24610    0.35280    1.000
    C268     C        0.01804    0.15820    0.44320    1.000
    N88      N        0.02409    0.22530    0.47178    1.000
    C269     C        0.05215    0.28260    0.46584    1.000
    N89      N        0.07470    0.27390    0.43636    1.000
    C270     C        0.06793    0.20020    0.41140    1.000
    N90      N        0.03883    0.14110    0.41254    1.000
    N91      N        0.12338    0.56100    0.63738    1.000
    C271     C        0.11870    0.47330    0.64300    1.000
    H181     H        0.09970    0.44180    0.62210    1.000
    C272     C        0.13980    0.42570    0.67750    1.000
    H182     H        0.13560    0.36260    0.68020    1.000
    C273     C        0.16706    0.47000    0.70810    1.000
    C274     C        0.17273    0.56080    0.70220    1.000
    H183     H        0.19160    0.59360    0.72250    1.000
    C275     C        0.15040    0.60380    0.66590    1.000
    H184     H        0.15480    0.66630    0.66150    1.000
    N92      N        0.18477    0.00220    0.77520    1.000
    C276     C        0.21490    0.03520    0.80230    1.000
    H185     H        0.23240    0.99460    0.82000    1.000
    C277     C        0.22240    0.12830    0.80640    1.000
    H186     H        0.24440    0.15080    0.82660    1.000
    C278     C        0.19703    0.18610    0.78000    1.000
    C279     C        0.16550    0.15070    0.75150    1.000
    H187     H        0.14740    0.18920    0.73320    1.000
    C280     C        0.16060    0.05680    0.74980    1.000
    H188     H        0.13920    0.03180    0.72960    1.000
    N93      N        0.33124    0.53840    0.89309    1.000
    C281     C        0.32300    0.45140    0.89790    1.000
    H189     H        0.33840    0.41920    0.92170    1.000
    C282     C        0.29370    0.40560    0.87050    1.000
    H190     H        0.28890    0.34340    0.87510    1.000
    C283     C        0.27115    0.45320    0.83593    1.000
    C284     C        0.28000    0.54250    0.83020    1.000
    H191     H        0.26560    0.57610    0.80630    1.000
    C285     C        0.30989    0.58280    0.85940    1.000
    H192     H        0.31550    0.64480    0.85540    1.000
    C286     C        0.19009    0.41850    0.74545    1.000
    N94      N        0.18074    0.33150    0.74820    1.000
    C287     C        0.20395    0.28510    0.77996    1.000
    N95      N        0.23312    0.32070    0.80994    1.000
    C288     C        0.23917    0.40810    0.80434    1.000
    N96      N        0.21935    0.46060    0.77234    1.000
    I73      I        0.12121    0.73990    0.55112    1.000
    I74      I        0.85360    0.89690    0.50971    1.000
    Zn31     Zn       0.16964    0.86120    0.76800    1.000
    I75      I        0.23179    0.77200    0.79328    1.000
    I76      I        0.12581    0.84630    0.69452    1.000
    Zn32     Zn       0.17990    0.86830    0.77670    1.000
    I77      I        0.24260    0.78680    0.80590    1.000
    I78      I        0.13380    0.72490    0.55390    1.000
    I79      I        0.84881    0.91540    0.51114    1.000
    I80      I        0.13370    0.83220    0.70210    1.000
