# CIF file generated by openbabel 3.1.0, see https://openbabel.org
data_I
_chemical_name_common 'image0'
_cell_length_a 14.6814
_cell_length_b 24.2887
_cell_length_c 9.9609
_cell_angle_alpha 90
_cell_angle_beta 98.392
_cell_angle_gamma 90
_space_group_name_H-M_alt 'P 1'
_space_group_name_Hall 'P 1'
loop_
    _symmetry_equiv_pos_as_xyz
    x,y,z
loop_
    _atom_site_label
    _atom_site_type_symbol
    _atom_site_fract_x
    _atom_site_fract_y
    _atom_site_fract_z
    _atom_site_occupancy
    Zn1      Zn       0.42710    0.12449    0.12505    1.000
    Zn2      Zn       0.19940    0.18591    0.56240    1.000
    C1       C        0.05900    0.04948    0.65670    1.000
    C2       C        0.98330    0.04932    0.72630    1.000
    H1       H        0.95780    0.08240    0.74920    1.000
    C3       C        0.10140    0.10277    0.62150    1.000
    O1       O        0.16260    0.10219    0.54670    1.000
    O2       O        0.07720    0.14715    0.66960    1.000
    O3       O        0.85670    0.05020    0.92910    1.000
    N1       N        0.55820    0.15048    0.15820    1.000
    N2       N        0.62000    0.14039    0.06780    1.000
    N3       N        0.69910    0.16650    0.26520    1.000
    C4       C        0.70280    0.15003    0.13630    1.000
    C5       C        0.60850    0.16577    0.27160    1.000
    H2       H        0.58370    0.17520    0.34920    1.000
    C6       C        0.36690    0.22106    0.27400    1.000
    H3       H        0.39690    0.24510    0.22240    1.000
    N4       N        0.36380    0.16617    0.25520    1.000
    N5       N        0.28860    0.18956    0.42380    1.000
    C7       C        0.31500    0.14845    0.35100    1.000
    N6       N        0.32310    0.23696    0.37280    1.000
    N7       N        0.43250    0.04515    0.16170    1.000
    N8       N        0.78280    0.14430    0.08110    1.000
    H4       H        0.78070    0.13400    0.99810    1.000
    H5       H        0.83510    0.15110    0.12960    1.000
    N9       N        0.30210    0.09550    0.37800    1.000
    H6       H        0.27520    0.08640    0.44600    1.000
    H7       H        0.32060    0.07030    0.32750    1.000
    C8       C        0.48190    0.02620    0.28610    1.000
    N10      N        0.48190    0.97380    0.28610    1.000
    Zn3      Zn       0.92710    0.62449    0.12505    1.000
    Zn4      Zn       0.69940    0.68591    0.56240    1.000
    C9       C        0.55900    0.54948    0.65670    1.000
    C10      C        0.48330    0.54932    0.72630    1.000
    H8       H        0.45780    0.58240    0.74920    1.000
    C11      C        0.60140    0.60277    0.62150    1.000
    O4       O        0.66260    0.60219    0.54670    1.000
    O5       O        0.57720    0.64715    0.66960    1.000
    O6       O        0.35670    0.55020    0.92910    1.000
    N11      N        0.05820    0.65048    0.15820    1.000
    N12      N        0.12000    0.64039    0.06780    1.000
    N13      N        0.19910    0.66650    0.26520    1.000
    C12      C        0.20280    0.65003    0.13630    1.000
    C13      C        0.10850    0.66577    0.27160    1.000
    H9       H        0.08370    0.67520    0.34920    1.000
    C14      C        0.86690    0.72106    0.27400    1.000
    H10      H        0.89690    0.74510    0.22240    1.000
    N14      N        0.86380    0.66617    0.25520    1.000
    N15      N        0.78860    0.68956    0.42380    1.000
    C15      C        0.81500    0.64845    0.35100    1.000
    N16      N        0.82310    0.73696    0.37280    1.000
    N17      N        0.93250    0.54515    0.16170    1.000
    N18      N        0.28280    0.64430    0.08110    1.000
    H11      H        0.28070    0.63400    0.99810    1.000
    H12      H        0.33510    0.65110    0.12960    1.000
    N19      N        0.80210    0.59550    0.37800    1.000
    H13      H        0.77520    0.58640    0.44600    1.000
    H14      H        0.82060    0.57030    0.32750    1.000
    C16      C        0.98190    0.52620    0.28610    1.000
    N20      N        0.98190    0.47380    0.28610    1.000
    Zn5      Zn       0.57290    0.12449    0.87495    1.000
    Zn6      Zn       0.80060    0.18591    0.43760    1.000
    C17      C        0.94100    0.04948    0.34330    1.000
    C18      C        0.01670    0.04932    0.27370    1.000
    H15      H        0.04220    0.08240    0.25080    1.000
    C19      C        0.89860    0.10277    0.37850    1.000
    O7       O        0.83740    0.10219    0.45330    1.000
    O8       O        0.92280    0.14715    0.33040    1.000
    O9       O        0.14330    0.05020    0.07090    1.000
    N21      N        0.44180    0.15048    0.84180    1.000
    N22      N        0.38000    0.14039    0.93220    1.000
    N23      N        0.30090    0.16650    0.73480    1.000
    C20      C        0.29720    0.15003    0.86370    1.000
    C21      C        0.39150    0.16577    0.72840    1.000
    H16      H        0.41630    0.17520    0.65080    1.000
    C22      C        0.63310    0.22106    0.72600    1.000
    H17      H        0.60310    0.24510    0.77760    1.000
    N24      N        0.63620    0.16617    0.74480    1.000
    N25      N        0.71140    0.18956    0.57620    1.000
    C23      C        0.68500    0.14845    0.64900    1.000
    N26      N        0.67690    0.23696    0.62720    1.000
    N27      N        0.56750    0.04515    0.83830    1.000
    N28      N        0.21720    0.14430    0.91890    1.000
    H18      H        0.21930    0.13400    0.00190    1.000
    H19      H        0.16490    0.15110    0.87040    1.000
    N29      N        0.69790    0.09550    0.62200    1.000
    H20      H        0.72480    0.08640    0.55400    1.000
    H21      H        0.67940    0.07030    0.67250    1.000
    C24      C        0.51810    0.02620    0.71390    1.000
    N30      N        0.51810    0.97380    0.71390    1.000
    Zn7      Zn       0.07290    0.62449    0.87495    1.000
    Zn8      Zn       0.30060    0.68591    0.43760    1.000
    C25      C        0.44100    0.54948    0.34330    1.000
    C26      C        0.51670    0.54932    0.27370    1.000
    H22      H        0.54220    0.58240    0.25080    1.000
    C27      C        0.39860    0.60277    0.37850    1.000
    O10      O        0.33740    0.60219    0.45330    1.000
    O11      O        0.42280    0.64715    0.33040    1.000
    O12      O        0.64330    0.55020    0.07090    1.000
    N31      N        0.94180    0.65048    0.84180    1.000
    N32      N        0.88000    0.64039    0.93220    1.000
    N33      N        0.80090    0.66650    0.73480    1.000
    C28      C        0.79720    0.65003    0.86370    1.000
    C29      C        0.89150    0.66577    0.72840    1.000
    H23      H        0.91630    0.67520    0.65080    1.000
    C30      C        0.13310    0.72106    0.72600    1.000
    H24      H        0.10310    0.74510    0.77760    1.000
    N34      N        0.13620    0.66617    0.74480    1.000
    N35      N        0.21140    0.68956    0.57620    1.000
    C31      C        0.18500    0.64845    0.64900    1.000
    N36      N        0.17690    0.73696    0.62720    1.000
    N37      N        0.06750    0.54515    0.83830    1.000
    N38      N        0.71720    0.64430    0.91890    1.000
    H25      H        0.71930    0.63400    0.00190    1.000
    H26      H        0.66490    0.65110    0.87040    1.000
    N39      N        0.19790    0.59550    0.62200    1.000
    H27      H        0.22480    0.58640    0.55400    1.000
    H28      H        0.17940    0.57030    0.67250    1.000
    C32      C        0.01810    0.52620    0.71390    1.000
    N40      N        0.01810    0.47380    0.71390    1.000
    Zn9      Zn       0.57290    0.87551    0.87495    1.000
    Zn10     Zn       0.80060    0.81409    0.43760    1.000
    C33      C        0.94100    0.95052    0.34330    1.000
    C34      C        0.01670    0.95068    0.27370    1.000
    H29      H        0.04220    0.91760    0.25080    1.000
    C35      C        0.89860    0.89723    0.37850    1.000
    O13      O        0.83740    0.89781    0.45330    1.000
    O14      O        0.92280    0.85285    0.33040    1.000
    O15      O        0.14330    0.94980    0.07090    1.000
    N41      N        0.44180    0.84952    0.84180    1.000
    N42      N        0.38000    0.85961    0.93220    1.000
    N43      N        0.30090    0.83350    0.73480    1.000
    C36      C        0.29720    0.84997    0.86370    1.000
    C37      C        0.39150    0.83423    0.72840    1.000
    H30      H        0.41630    0.82480    0.65080    1.000
    C38      C        0.63310    0.77894    0.72600    1.000
    H31      H        0.60310    0.75490    0.77760    1.000
    N44      N        0.63620    0.83383    0.74480    1.000
    N45      N        0.71140    0.81044    0.57620    1.000
    C39      C        0.68500    0.85155    0.64900    1.000
    N46      N        0.67690    0.76304    0.62720    1.000
    N47      N        0.56750    0.95485    0.83830    1.000
    N48      N        0.21720    0.85570    0.91890    1.000
    H32      H        0.21930    0.86600    0.00190    1.000
    H33      H        0.16490    0.84890    0.87040    1.000
    N49      N        0.69790    0.90450    0.62200    1.000
    H34      H        0.72480    0.91360    0.55400    1.000
    H35      H        0.67940    0.92970    0.67250    1.000
    Zn11     Zn       0.07290    0.37551    0.87495    1.000
    Zn12     Zn       0.30060    0.31409    0.43760    1.000
    C40      C        0.44100    0.45052    0.34330    1.000
    C41      C        0.51670    0.45068    0.27370    1.000
    H36      H        0.54220    0.41760    0.25080    1.000
    C42      C        0.39860    0.39723    0.37850    1.000
    O16      O        0.33740    0.39781    0.45330    1.000
    O17      O        0.42280    0.35285    0.33040    1.000
    O18      O        0.64330    0.44980    0.07090    1.000
    N50      N        0.94180    0.34952    0.84180    1.000
    N51      N        0.88000    0.35961    0.93220    1.000
    N52      N        0.80090    0.33350    0.73480    1.000
    C43      C        0.79720    0.34997    0.86370    1.000
    C44      C        0.89150    0.33423    0.72840    1.000
    H37      H        0.91630    0.32480    0.65080    1.000
    C45      C        0.13310    0.27894    0.72600    1.000
    H38      H        0.10310    0.25490    0.77760    1.000
    N53      N        0.13620    0.33383    0.74480    1.000
    N54      N        0.21140    0.31044    0.57620    1.000
    C46      C        0.18500    0.35155    0.64900    1.000
    N55      N        0.17690    0.26304    0.62720    1.000
    N56      N        0.06750    0.45485    0.83830    1.000
    N57      N        0.71720    0.35570    0.91890    1.000
    H39      H        0.71930    0.36600    0.00190    1.000
    H40      H        0.66490    0.34890    0.87040    1.000
    N58      N        0.19790    0.40450    0.62200    1.000
    H41      H        0.22480    0.41360    0.55400    1.000
    H42      H        0.17940    0.42970    0.67250    1.000
    Zn13     Zn       0.42710    0.87551    0.12505    1.000
    Zn14     Zn       0.19940    0.81409    0.56240    1.000
    C47      C        0.05900    0.95052    0.65670    1.000
    C48      C        0.98330    0.95068    0.72630    1.000
    H43      H        0.95780    0.91760    0.74920    1.000
    C49      C        0.10140    0.89723    0.62150    1.000
    O19      O        0.16260    0.89781    0.54670    1.000
    O20      O        0.07720    0.85285    0.66960    1.000
    O21      O        0.85670    0.94980    0.92910    1.000
    N59      N        0.55820    0.84952    0.15820    1.000
    N60      N        0.62000    0.85961    0.06780    1.000
    N61      N        0.69910    0.83350    0.26520    1.000
    C50      C        0.70280    0.84997    0.13630    1.000
    C51      C        0.60850    0.83423    0.27160    1.000
    H44      H        0.58370    0.82480    0.34920    1.000
    C52      C        0.36690    0.77894    0.27400    1.000
    H45      H        0.39690    0.75490    0.22240    1.000
    N62      N        0.36380    0.83383    0.25520    1.000
    N63      N        0.28860    0.81044    0.42380    1.000
    C53      C        0.31500    0.85155    0.35100    1.000
    N64      N        0.32310    0.76304    0.37280    1.000
    N65      N        0.43250    0.95485    0.16170    1.000
    N66      N        0.78280    0.85570    0.08110    1.000
    H46      H        0.78070    0.86600    0.99810    1.000
    H47      H        0.83510    0.84890    0.12960    1.000
    N67      N        0.30210    0.90450    0.37800    1.000
    H48      H        0.27520    0.91360    0.44600    1.000
    H49      H        0.32060    0.92970    0.32750    1.000
    Zn15     Zn       0.92710    0.37551    0.12505    1.000
    Zn16     Zn       0.69940    0.31409    0.56240    1.000
    C54      C        0.55900    0.45052    0.65670    1.000
    C55      C        0.48330    0.45068    0.72630    1.000
    H50      H        0.45780    0.41760    0.74920    1.000
    C56      C        0.60140    0.39723    0.62150    1.000
    O22      O        0.66260    0.39781    0.54670    1.000
    O23      O        0.57720    0.35285    0.66960    1.000
    O24      O        0.35670    0.44980    0.92910    1.000
    N68      N        0.05820    0.34952    0.15820    1.000
    N69      N        0.12000    0.35961    0.06780    1.000
    N70      N        0.19910    0.33350    0.26520    1.000
    C57      C        0.20280    0.34997    0.13630    1.000
    C58      C        0.10850    0.33423    0.27160    1.000
    H51      H        0.08370    0.32480    0.34920    1.000
    C59      C        0.86690    0.27894    0.27400    1.000
    H52      H        0.89690    0.25490    0.22240    1.000
    N71      N        0.86380    0.33383    0.25520    1.000
    N72      N        0.78860    0.31044    0.42380    1.000
    C60      C        0.81500    0.35155    0.35100    1.000
    N73      N        0.82310    0.26304    0.37280    1.000
    N74      N        0.93250    0.45485    0.16170    1.000
    N75      N        0.28280    0.35570    0.08110    1.000
    H53      H        0.28070    0.36600    0.99810    1.000
    H54      H        0.33510    0.34890    0.12960    1.000
    N76      N        0.80210    0.40450    0.37800    1.000
    H55      H        0.77520    0.41360    0.44600    1.000
    H56      H        0.82060    0.42970    0.32750    1.000
    S1       S        0.85032    0.00000    0.85170    1.000
    C61      C        0.94620    0.00000    0.76140    1.000
    C62      C        0.09620    0.00000    0.62100    1.000
    H57      H        0.14610    0.00000    0.57320    1.000
    O25      O        0.77020    0.00000    0.75190    1.000
    C63      C        0.40860    0.00000    0.09680    1.000
    N77      N        0.35540    0.00000    0.96840    1.000
    S2       S        0.35032    0.50000    0.85170    1.000
    C64      C        0.44620    0.50000    0.76140    1.000
    C65      C        0.59620    0.50000    0.62100    1.000
    H58      H        0.64610    0.50000    0.57320    1.000
    O26      O        0.27020    0.50000    0.75190    1.000
    C66      C        0.90860    0.50000    0.09680    1.000
    N78      N        0.85540    0.50000    0.96840    1.000
    S3       S        0.14968    0.00000    0.14830    1.000
    C67      C        0.05380    0.00000    0.23860    1.000
    C68      C        0.90380    0.00000    0.37900    1.000
    H59      H        0.85390    0.00000    0.42680    1.000
    O27      O        0.22980    0.00000    0.24810    1.000
    C69      C        0.59140    0.00000    0.90320    1.000
    N79      N        0.64460    0.00000    0.03160    1.000
    S4       S        0.64968    0.50000    0.14830    1.000
    C70      C        0.55380    0.50000    0.23860    1.000
    C71      C        0.40380    0.50000    0.37900    1.000
    H60      H        0.35390    0.50000    0.42680    1.000
    O28      O        0.72980    0.50000    0.24810    1.000
    C72      C        0.09140    0.50000    0.90320    1.000
    N80      N        0.14460    0.50000    0.03160    1.000
