data_functionalizedCrystal
_audit_creation_method	'EQeq! by Chris Wilmer'
_symmetry_space_group_name_H-M	'P1'
_symmetry_Int_Tables_number	1
_symmetry_cell_setting	triclinic
loop_
_symmetry_equiv_pos_as_xyz
  x,y,z
_cell_length_a	27.8595
_cell_length_b	27.8595
_cell_length_c	27.8595
_cell_angle_alpha	96.3589
_cell_angle_beta	116.399
_cell_angle_gamma	116.399
loop_
_atom_site_label
_atom_site_type_symbol
_atom_site_fract_x
_atom_site_fract_y
_atom_site_fract_z
_atom_site_charge
Mof_Cu	Cu	0.77427	0.59704	0.38353	0.904
Mof_Cu	Cu	0.70956	0.64772	0.36048	0.904
Mof_Cu	Cu	0.73994	0.64917	0.83509	0.921
Mof_Cu	Cu	0.72573	0.10927	0.82277	0.904
Mof_Cu	Cu	0.79044	0.15092	0.93816	0.904
Mof_Cu	Cu	0.76006	0.59515	0.90923	0.921
Mof_Cu	Cu	0.21351	0.61647	0.89074	0.904
Mof_Cu	Cu	0.28724	0.63952	0.84908	0.904
Mof_Cu	Cu	0.81408	0.16491	0.40485	0.921
Mof_Cu	Cu	0.28649	0.17723	0.40295	0.904
Mof_Cu	Cu	0.21276	0.06184	0.35228	0.904
Mof_Cu	Cu	0.68592	0.09077	0.35083	0.921
Mof_H 	H 	0.8658	0.6559	0.5681	0.054
Mof_H 	H 	0.7444	0.7077	0.5315	0.043
Mof_H 	H 	0.7701	0.7278	0.6251	0.058
Mof_H 	H 	0.8424	0.712	0.6892	0.049
Mof_H 	H 	0.8698	0.6514	0.7902	0.058
Mof_H 	H 	0.898	0.5712	0.9014	0.046
Mof_H 	H 	0.967	0.5634	0.8852	0.05
Mof_H 	H 	0.9789	0.5885	0.813	0.051
Mof_H 	H 	0.0778	0.6447	0.7723	0.061
Mof_H 	H 	0.1798	0.6743	0.7011	0.05
Mof_H 	H 	0.1093	0.6902	0.6299	0.057
Mof_H 	H 	0.0287	0.6894	0.6353	0.056
Mof_H 	H 	0.6225	0.5914	0.1733	0.063
Mof_H 	H 	0.7369	0.5302	0.2171	0.053
Mof_H 	H 	0.7141	0.5062	0.1243	0.056
Mof_H 	H 	0.6485	0.5298	0.0559	0.061
Mof_H 	H 	0.6321	0.5984	0.9583	0.059
Mof_H 	H 	0.5466	0.5957	0.7961	0.052
Mof_H 	H 	0.4503	0.5621	0.7904	0.057
Mof_H 	H 	0.45	0.5615	0.8741	0.057
Mof_H 	H 	0.4225	0.6101	0.969	0.062
Mof_H 	H 	0.3133	0.5749	0.035	0.046
Mof_H 	H 	0.3753	0.5517	0.102	0.059
Mof_H 	H 	0.4628	0.5558	0.1028	0.058
Mof_H 	H 	0.6964	0.6316	0.7118	0.008
Mof_H 	H 	0.6588	0.6649	0.6373	0.081
Mof_H 	H 	0.6625	0.7491	0.6666	0.008
Mof_H 	H 	0.6931	0.7922	0.7559	0.092
Mof_H 	H 	0.729	0.7529	0.8253	0.01
Mof_H 	H 	0.6342	0.2023	0.7901	0.053
Mof_H 	H 	0.7556	0.2871	0.9633	0.042
Mof_H 	H 	0.7299	0.355	0.9577	0.058
Mof_H 	H 	0.6576	0.3468	0.8696	0.049
Mof_H 	H 	0.6302	0.4204	0.7816	0.058
Mof_H 	H 	0.602	0.5034	0.6732	0.046
Mof_H 	H 	0.533	0.4182	0.5964	0.05
Mof_H 	H 	0.5211	0.3341	0.6096	0.051
Mof_H 	H 	0.4222	0.1945	0.5669	0.061
Mof_H 	H 	0.3202	0.0213	0.4945	0.05
Mof_H 	H 	0.3907	0.0206	0.5809	0.057
Mof_H 	H 	0.4713	0.1066	0.6607	0.056
Mof_H 	H 	0.8775	0.0508	0.9689	0.063
Mof_H 	H 	0.7631	0.9802	0.7933	0.053
Mof_H 	H 	0.7859	0.9102	0.7921	0.056
Mof_H 	H 	0.8515	0.9074	0.8813	0.061
Mof_H 	H 	0.8679	0.8262	0.9663	0.059
Mof_H 	H 	0.9534	0.7495	0.0491	0.052
Mof_H 	H 	0.0497	0.8401	0.1118	0.057
Mof_H 	H 	0.05	0.9241	0.1115	0.057
Mof_H 	H 	0.0775	0.0465	0.1876	0.062
Mof_H 	H 	0.1867	0.2217	0.2616	0.046
Mof_H 	H 	0.1247	0.2267	0.1764	0.059
Mof_H 	H 	0.0372	0.14	0.093	0.058
Mof_H 	H 	0.8036	0.5154	0.9352	0.008
Mof_H 	H 	0.8412	0.4785	0.0061	0.081
Mof_H 	H 	0.8375	0.5041	0.0866	0.008
Mof_H 	H 	0.8069	0.5628	0.0991	0.092
Mof_H 	H 	0.771	0.5963	0.0239	0.01
Mof_H 	H 	0.0878	0.4319	0.7977	0.053
Mof_H 	H 	0.1762	0.4685	0.7129	0.042
Mof_H 	H 	0.1027	0.3749	0.645	0.058
Mof_H 	H 	0.0228	0.3108	0.6532	0.049
Mof_H 	H 	0.8612	0.2098	0.5796	0.058
Mof_H 	H 	0.6698	0.0986	0.4966	0.046
Mof_H 	H 	0.6782	0.1148	0.5818	0.05
Mof_H 	H 	0.7755	0.187	0.6659	0.051
Mof_H 	H 	0.8724	0.2277	0.8055	0.061
Mof_H 	H 	0.9732	0.2989	0.9787	0.05
Mof_H 	H 	0.0603	0.3701	0.9794	0.057
Mof_H 	H 	0.0541	0.3647	0.8934	0.056
Mof_H 	H 	0.4181	0.8267	0.9492	0.063
Mof_H 	H 	0.3131	0.7829	0.0198	0.053
Mof_H 	H 	0.3819	0.8757	0.0898	0.056
Mof_H 	H 	0.4739	0.9441	0.0926	0.06
Mof_H 	H 	0.6401	0.0417	0.1738	0.059
Mof_H 	H 	0.7996	0.2039	0.2505	0.052
Mof_H 	H 	0.7717	0.2096	0.1599	0.057
Mof_H 	H 	0.6874	0.1259	0.0759	0.057
Mof_H 	H 	0.6411	0.031	0.9535	0.062
Mof_H 	H 	0.5399	0.965	0.7783	0.046
Mof_H 	H 	0.4497	0.898	0.7733	0.059
Mof_H 	H 	0.453	0.8972	0.86	0.058
Mof_H 	H 	0.9198	0.2882	0.4846	0.008
Mof_H 	H 	0.0276	0.3627	0.5215	0.081
Mof_H 	H 	0.0825	0.3334	0.4959	0.008
Mof_H 	H 	0.0363	0.2441	0.4372	0.092
Mof_H 	H 	0.9276	0.1747	0.4037	0.01
Mof_H 	H 	0.4122	0.2099	0.3441	0.053
Mof_H 	H 	0.3238	0.0367	0.2923	0.042
Mof_H 	H 	0.3973	0.0423	0.2722	0.058
Mof_H 	H 	0.4772	0.1304	0.288	0.049
Mof_H 	H 	0.6388	0.2184	0.3486	0.058
Mof_H 	H 	0.8302	0.3268	0.4288	0.046
Mof_H 	H 	0.8218	0.4036	0.4366	0.05
Mof_H 	H 	0.7245	0.3904	0.4115	0.051
Mof_H 	H 	0.6276	0.4331	0.3553	0.061
Mof_H 	H 	0.5268	0.5055	0.3257	0.05
Mof_H 	H 	0.4397	0.4191	0.3098	0.057
Mof_H 	H 	0.4459	0.3393	0.3106	0.056
Mof_H 	H 	0.0819	0.0311	0.4086	0.062
Mof_H 	H 	0.1869	0.2067	0.4698	0.053
Mof_H 	H 	0.1181	0.2079	0.4938	0.056
Mof_H 	H 	0.0261	0.1187	0.4702	0.06
Mof_H 	H 	0.8599	0.0337	0.4016	0.059
Mof_H 	H 	0.7004	0.9509	0.4043	0.052
Mof_H 	H 	0.7283	0.8882	0.4379	0.057
Mof_H 	H 	0.8126	0.8885	0.4385	0.057
Mof_H 	H 	0.8589	0.8124	0.3899	0.062
Mof_H 	H 	0.9601	0.7384	0.4251	0.046
Mof_H 	H 	0.0503	0.8236	0.4483	0.059
Mof_H 	H 	0.047	0.907	0.4442	0.058
Mof_H 	H 	0.5802	0.0648	0.3684	0.008
Mof_H 	H 	0.4724	0.9939	0.3351	0.081
Mof_H 	H 	0.4175	0.9134	0.2509	0.008
Mof_H 	H 	0.4637	0.9009	0.2078	0.092
Mof_H 	H 	0.5724	0.9761	0.2471	0.01
Mof_C 	C 	0.90931	0.67411	0.67782	0.125
Mof_C 	C 	0.9399	0.6465	0.753	0.133
Mof_C 	C 	0.9913	0.66228	0.70798	0.128
Mof_C 	C 	0.8631	0.68478	0.63648	-0.022
Mof_C 	C 	0.8464	0.67043	0.57923	-0.006
Mof_C 	C 	0.8012	0.67784	0.53904	-0.088
Mof_C 	C 	0.7736	0.70093	0.55753	0.008
Mof_C 	C 	0.7892	0.71339	0.61339	-0.064
Mof_C 	C 	0.8329	0.70452	0.65162	-0.02
Mof_C 	C 	0.78101	0.66029	0.47714	0.366
Mof_C 	C 	0.93	0.6278	0.798	-0.017
Mof_C 	C 	0.8899	0.6341	0.8094	-0.012
Mof_C 	C 	0.8794	0.6152	0.849	-0.074
Mof_C 	C 	0.9071	0.58593	0.87603	-0.001
Mof_C 	C 	0.946	0.57966	0.86506	-0.054
Mof_C 	C 	0.9556	0.59718	0.82378	-0.031
Mof_C 	C 	0.8333	0.62016	0.86046	0.357
Mof_C 	C 	0.0441	0.66507	0.70377	-0.014
Mof_C 	C 	0.0848	0.6545	0.7441	-0.018
Mof_C 	C 	0.1366	0.65793	0.74413	-0.075
Mof_C 	C 	0.1457	0.6717	0.7018	-0.005
Mof_C 	C 	0.1037	0.6822	0.6593	-0.051
Mof_C 	C 	0.0548	0.6804	0.6618	-0.035
Mof_C 	C 	0.1793	0.6455	0.789	0.348
Mof_C 	C 	0.5836	0.57121	0.06501	0.125
Mof_C 	C 	0.5414	0.5779	0.9775	0.128
Mof_C 	C 	0.5021	0.5829	0.0316	0.127
Mof_C 	C 	0.6308	0.5627	0.1091	-0.006
Mof_C 	C 	0.6419	0.5755	0.164	-0.019
Mof_C 	C 	0.6836	0.5636	0.2062	-0.077
Mof_C 	C 	0.7099	0.5381	0.19	-0.003
Mof_C 	C 	0.6969	0.5242	0.1345	-0.047
Mof_C 	C 	0.6568	0.5378	0.093	-0.039
Mof_C 	C 	0.70305	0.58374	0.26631	0.343
Mof_C 	C 	0.5428	0.5814	0.9268	-0.017
Mof_C 	C 	0.5971	0.5934	0.9255	-0.007
Mof_C 	C 	0.601	0.5979	0.8791	-0.079
Mof_C 	C 	0.5443	0.5894	0.8273	-0.005
Mof_C 	C 	0.4873	0.5721	0.8248	-0.048
Mof_C 	C 	0.4865	0.5701	0.8746	-0.032
Mof_C 	C 	0.6586	0.6123	0.8793	0.354
Mof_C 	C 	0.4511	0.58373	0.03563	-0.013
Mof_C 	C 	0.41317	0.59827	0.99544	-0.016
Mof_C 	C 	0.36197	0.59524	0.99501	-0.079
Mof_C 	C 	0.348	0.57724	0.03564	-0.001
Mof_C 	C 	0.3847	0.563	0.0755	-0.053
Mof_C 	C 	0.4378	0.5657	0.0763	-0.034
Mof_C 	C 	0.3214	0.60971	0.95151	0.347
Mof_C 	C 	0.6964	0.6647	0.7211	0.086
Mof_C 	C 	0.6735	0.6837	0.6754	-0.152
Mof_C 	C 	0.6754	0.7335	0.6939	0.085
Mof_C 	C 	0.6938	0.7596	0.7458	-0.156
Mof_C 	C 	0.7157	0.7354	0.7875	0.088
Mof_C 	C 	0.59069	0.26851	0.7648	0.126
Mof_C 	C 	0.5601	0.3131	0.7066	0.133
Mof_C 	C 	0.5087	0.21668	0.67098	0.128
Mof_C 	C 	0.6369	0.27338	0.82168	-0.022
Mof_C 	C 	0.6536	0.23283	0.82403	-0.006
Mof_C 	C 	0.6988	0.23784	0.87664	-0.088
Mof_C 	C 	0.7264	0.28393	0.92733	0.008
Mof_C 	C 	0.7108	0.32419	0.92419	-0.064
Mof_C 	C 	0.6671	0.31872	0.87162	-0.02
Mof_C 	C 	0.71899	0.19613	0.87928	0.366
Mof_C 	C 	0.57	0.368	0.6978	-0.017
Mof_C 	C 	0.6101	0.4195	0.7442	-0.012
Mof_C 	C 	0.6206	0.4696	0.7358	-0.074
Mof_C 	C 	0.5929	0.46893	0.67883	-0.001
Mof_C 	C 	0.554	0.41906	0.63366	-0.054
Mof_C 	C 	0.5444	0.36818	0.64158	-0.031
Mof_C 	C 	0.6667	0.52716	0.78686	0.357
Mof_C 	C 	0.4559	0.15967	0.62097	-0.014
Mof_C 	C 	0.4152	0.1593	0.5697	-0.018
Mof_C 	C 	0.3634	0.10753	0.52133	-0.075
Mof_C 	C 	0.3543	0.0561	0.526	-0.005
Mof_C 	C 	0.3963	0.0556	0.5785	-0.051
Mof_C 	C 	0.4452	0.107	0.6256	-0.035
Mof_C 	C 	0.3207	0.1097	0.4662	0.348
Mof_C 	C 	0.9164	0.98141	0.98761	0.125
Mof_C 	C 	0.9586	0.9361	0.0365	0.127
Mof_C 	C 	0.9979	0.0295	0.0808	0.127
Mof_C 	C 	0.8692	0.9783	0.9319	-0.006
Mof_C 	C 	0.8581	0.0221	0.9336	-0.019
Mof_C 	C 	0.8164	0.0226	0.88	-0.077
Mof_C 	C 	0.7901	0.9801	0.8282	-0.003
Mof_C 	C 	0.8031	0.9376	0.8273	-0.047
Mof_C 	C 	0.8432	0.9362	0.881	-0.039
Mof_C 	C 	0.79695	0.06326	0.88069	0.343
Mof_C 	C 	0.9572	0.884	0.0386	-0.017
Mof_C 	C 	0.9029	0.8284	0.9963	-0.006
Mof_C 	C 	0.899	0.7781	0.9969	-0.079
Mof_C 	C 	0.9557	0.783	0.0451	-0.005
Mof_C 	C 	0.0127	0.8375	0.0848	-0.047
Mof_C 	C 	0.0135	0.8881	0.0836	-0.032
Mof_C 	C 	0.8414	0.7207	0.9537	0.354
Mof_C 	C 	0.0489	0.08453	0.13263	-0.013
Mof_C 	C 	0.08683	0.08227	0.1851	-0.016
Mof_C 	C 	0.13803	0.13304	0.23327	-0.079
Mof_C 	C 	0.152	0.18764	0.22924	-0.001
Mof_C 	C 	0.1153	0.1908	0.1783	-0.053
Mof_C 	C 	0.0622	0.1385	0.1279	-0.034
Mof_C 	C 	0.1786	0.13011	0.28831	0.347
Mof_C 	C 	0.8036	0.5247	0.9683	0.087
Mof_C 	C 	0.8265	0.5019	0.0102	-0.152
Mof_C 	C 	0.8246	0.5185	0.0581	0.085
Mof_C 	C 	0.8062	0.552	0.0658	-0.156
Mof_C 	C 	0.7843	0.5718	0.0197	0.088
Mof_C 	C 	0.99629	0.32218	0.73149	0.126
Mof_C 	C 	0.8935	0.247	0.6869	0.133
Mof_C 	C 	0.9543	0.29202	0.78332	0.128
Mof_C 	C 	0.0483	0.36352	0.72662	-0.022
Mof_C 	C 	0.0912	0.42077	0.76717	-0.006
Mof_C 	C 	0.1388	0.46096	0.76216	-0.088
Mof_C 	C 	0.1434	0.44247	0.71607	0.008
Mof_C 	C 	0.1	0.38661	0.67581	-0.064
Mof_C 	C 	0.0529	0.34838	0.68128	-0.02
Mof_C 	C 	0.18315	0.52286	0.80387	0.366
Mof_C 	C 	0.8298	0.202	0.632	-0.017
Mof_C 	C 	0.8247	0.1906	0.5805	-0.012
Mof_C 	C 	0.7662	0.151	0.5304	-0.074
Mof_C 	C 	0.7099	0.12397	0.53107	-0.001
Mof_C 	C 	0.7146	0.13494	0.58094	-0.054
Mof_C 	C 	0.7734	0.17622	0.63182	-0.031
Mof_C 	C 	0.7597	0.13954	0.47284	0.357
Mof_C 	C 	0.9613	0.29623	0.84033	-0.014
Mof_C 	C 	0.9104	0.2559	0.8407	-0.018
Mof_C 	C 	0.9138	0.25587	0.89247	-0.075
Mof_C 	C 	0.9699	0.2982	0.9439	-0.005
Mof_C 	C 	0.0229	0.3407	0.9444	-0.051
Mof_C 	C 	0.0186	0.3382	0.893	-0.035
Mof_C 	C 	0.8565	0.211	0.8903	0.348
Mof_C 	C 	0.5062	0.93499	0.01859	0.125
Mof_C 	C 	0.6004	0.0225	0.0639	0.128
Mof_C 	C 	0.5513	0.9684	0.9705	0.127
Mof_C 	C 	0.4536	0.8909	0.0217	-0.006
Mof_C 	C 	0.4115	0.836	0.9779	-0.019
Mof_C 	C 	0.3574	0.7938	0.9774	-0.077
Mof_C 	C 	0.3481	0.81	0.0199	-0.003
Mof_C 	C 	0.3897	0.8655	0.0624	-0.047
Mof_C 	C 	0.4448	0.907	0.0638	-0.039
Mof_C 	C 	0.31743	0.73369	0.93674	0.343
Mof_C 	C 	0.6546	0.0732	0.116	-0.017
Mof_C 	C 	0.6679	0.0745	0.1716	-0.007
Mof_C 	C 	0.7188	0.1209	0.2219	-0.079
Mof_C 	C 	0.7621	0.1727	0.217	-0.005
Mof_C 	C 	0.7473	0.1752	0.1625	-0.048
Mof_C 	C 	0.6955	0.1254	0.1119	-0.032
Mof_C 	C 	0.733	0.1207	0.2793	0.354
Mof_C 	C 	0.5481	0.96437	0.91547	-0.013
Mof_C 	C 	0.60283	0.00456	0.91773	-0.017
Mof_C 	C 	0.60023	0.00499	0.86696	-0.079
Mof_C 	C 	0.5416	0.96436	0.81236	-0.001
Mof_C 	C 	0.4875	0.9245	0.8092	-0.053
Mof_C 	C 	0.4894	0.9237	0.8615	-0.034
Mof_C 	C 	0.6582	0.04849	0.86989	0.347
Mof_C 	C 	0.9436	0.2789	0.4753	0.087
Mof_C 	C 	0.0083	0.3246	0.4981	-0.153
Mof_C 	C 	0.0396	0.3061	0.4815	0.086
Mof_C 	C 	0.0138	0.2542	0.448	-0.156
Mof_C 	C 	0.9479	0.2125	0.4282	0.089
Mof_C 	C 	0.50371	0.2352	0.32589	0.126
Mof_C 	C 	0.6065	0.2934	0.3535	0.133
Mof_C 	C 	0.5457	0.32902	0.33772	0.128
Mof_C 	C 	0.4517	0.17832	0.31522	-0.022
Mof_C 	C 	0.4088	0.17597	0.32957	-0.006
Mof_C 	C 	0.3612	0.12336	0.32216	-0.088
Mof_C 	C 	0.3566	0.07267	0.29907	0.008
Mof_C 	C 	0.4	0.07581	0.28661	-0.064
Mof_C 	C 	0.4471	0.12838	0.29548	-0.02
Mof_C 	C 	0.31685	0.12072	0.33971	0.366
Mof_C 	C 	0.6702	0.3022	0.3722	-0.017
Mof_C 	C 	0.6753	0.2558	0.3659	-0.012
Mof_C 	C 	0.7338	0.2642	0.3848	-0.074
Mof_C 	C 	0.7901	0.32117	0.41407	-0.001
Mof_C 	C 	0.7854	0.36634	0.42034	-0.054
Mof_C 	C 	0.7266	0.35842	0.40282	-0.031
Mof_C 	C 	0.7403	0.21314	0.37984	0.357
Mof_C 	C 	0.5387	0.37903	0.33493	-0.014
Mof_C 	C 	0.5896	0.4303	0.3455	-0.018
Mof_C 	C 	0.5862	0.47867	0.34207	-0.075
Mof_C 	C 	0.5301	0.474	0.3283	-0.005
Mof_C 	C 	0.4771	0.4215	0.3178	-0.051
Mof_C 	C 	0.4814	0.3744	0.3196	-0.035
Mof_C 	C 	0.6435	0.5338	0.3545	0.348
Mof_C 	C 	0.9938	0.01239	0.42879	0.125
Mof_C 	C 	0.8996	0.9635	0.4221	0.127
Mof_C 	C 	0.9487	0.9192	0.4171	0.127
Mof_C 	C 	0.0464	0.0681	0.4373	-0.006
Mof_C 	C 	0.0885	0.0664	0.4245	-0.019
Mof_C 	C 	0.1426	0.12	0.4364	-0.077
Mof_C 	C 	0.1519	0.1718	0.4619	-0.003
Mof_C 	C 	0.1103	0.1727	0.4758	-0.047
Mof_C 	C 	0.0552	0.119	0.4622	-0.039
Mof_C 	C 	0.18257	0.11931	0.41626	0.344
Mof_C 	C 	0.8454	0.9614	0.4186	-0.017
Mof_C 	C 	0.8321	0.0037	0.4066	-0.006
Mof_C 	C 	0.7812	0.0031	0.4021	-0.079
Mof_C 	C 	0.7379	0.9549	0.4106	-0.005
Mof_C 	C 	0.7527	0.9152	0.4279	-0.048
Mof_C 	C 	0.8045	0.9164	0.4299	-0.032
Mof_C 	C 	0.767	0.0463	0.3877	0.354
Mof_C 	C 	0.9519	0.86737	0.41627	-0.013
Mof_C 	C 	0.89717	0.8149	0.40173	-0.016
Mof_C 	C 	0.89977	0.76673	0.40476	-0.078
Mof_C 	C 	0.9584	0.77076	0.42276	-0.001
Mof_C 	C 	0.0125	0.8217	0.437	-0.053
Mof_C 	C 	0.0106	0.8721	0.4343	-0.034
Mof_C 	C 	0.8418	0.71169	0.39029	0.347
Mof_C 	C 	0.5564	0.0317	0.3353	0.087
Mof_C 	C 	0.4917	0.9898	0.3163	-0.152
Mof_C 	C 	0.4604	0.9419	0.2665	0.085
Mof_C 	C 	0.4862	0.9342	0.2404	-0.156
Mof_C 	C 	0.5521	0.9803	0.2646	0.088
Mof_N 	N 	0.95408	0.67515	0.67035	-0.148
Mof_N 	N 	0.90294	0.66156	0.7207	-0.15
Mof_N 	N 	0.98577	0.64673	0.7493	-0.151
Mof_N 	N 	0.54234	0.57506	0.073	-0.147
Mof_N 	N 	0.58722	0.57288	0.0179	-0.143
Mof_N 	N 	0.4997	0.58513	0.98283	-0.146
Mof_N 	N 	0.71734	0.68983	0.77447	-0.2
Mof_N 	N 	0.54592	0.21627	0.72107	-0.148
Mof_N 	N 	0.59706	0.31776	0.75862	-0.15
Mof_N 	N 	0.51423	0.26353	0.66096	-0.151
Mof_N 	N 	0.95766	0.03066	0.03272	-0.147
Mof_N 	N 	0.91278	0.93068	0.98566	-0.142
Mof_N 	N 	0.0003	0.98313	0.08543	-0.146
Mof_N 	N 	0.78266	0.55713	0.97249	-0.2
Mof_N 	N 	0.0048	0.32965	0.78373	-0.148
Mof_N 	N 	0.94086	0.2793	0.68224	-0.15
Mof_N 	N 	0.89743	0.2507	0.73647	-0.151
Mof_N 	N 	0.50206	0.927	0.96934	-0.147
Mof_N 	N 	0.55498	0.9821	0.06932	-0.143
Mof_N 	N 	0.6023	0.01717	0.01687	-0.146
Mof_N 	N 	0.91536	0.22553	0.44287	-0.201
Mof_N 	N 	0.4952	0.27893	0.32485	-0.148
Mof_N 	N 	0.55914	0.24138	0.33844	-0.15
Mof_N 	N 	0.60257	0.33904	0.35327	-0.151
Mof_N 	N 	0.99794	0.96728	0.42494	-0.148
Mof_N 	N 	0.94502	0.01434	0.42712	-0.143
Mof_N 	N 	0.8977	0.91457	0.41487	-0.146
Mof_N 	N 	0.58464	0.02751	0.31017	-0.2
Mof_O 	O 	0.80264	0.63346	0.46398	-0.412
Mof_O 	O 	0.74425	0.67195	0.44446	-0.414
Mof_O 	O 	0.81023	0.6467	0.83637	-0.402
Mof_O 	O 	0.81995	0.59483	0.89146	-0.402
Mof_O 	O 	0.16403	0.62996	0.82383	-0.406
Mof_O 	O 	0.22751	0.65231	0.79004	-0.401
Mof_O 	O 	0.68387	0.61332	0.28045	-0.395
Mof_O 	O 	0.73668	0.56866	0.30048	-0.404
Mof_O 	O 	0.69538	0.60067	0.91563	-0.394
Mof_O 	O 	0.66906	0.63377	0.84539	-0.396
Mof_O 	O 	0.33502	0.62281	0.91429	-0.4
Mof_O 	O 	0.27565	0.60683	0.95174	-0.409
Mof_O 	O 	0.69736	0.16134	0.83082	-0.412
Mof_O 	O 	0.75575	0.20021	0.9277	-0.414
Mof_O 	O 	0.68977	0.52614	0.83647	-0.402
Mof_O 	O 	0.68005	0.57151	0.77488	-0.402
Mof_O 	O 	0.33597	0.1598	0.46593	-0.406
Mof_O 	O 	0.27249	0.06253	0.4248	-0.401
Mof_O 	O 	0.81613	0.09658	0.92945	-0.395
Mof_O 	O 	0.76332	0.0638	0.83198	-0.404
Mof_O 	O 	0.80462	0.72025	0.90529	-0.394
Mof_O 	O 	0.83094	0.67633	0.96471	-0.396
Mof_O 	O 	0.16498	0.07927	0.28779	-0.4
Mof_O 	O 	0.22435	0.17609	0.33118	-0.409
Mof_O 	O 	0.16948	0.53602	0.83866	-0.412
Mof_O 	O 	0.22749	0.55554	0.79979	-0.414
Mof_O 	O 	0.81033	0.16363	0.47386	-0.402
Mof_O 	O 	0.70337	0.10854	0.42849	-0.402
Mof_O 	O 	0.80613	0.17617	0.8402	-0.406
Mof_O 	O 	0.86227	0.20996	0.93747	-0.401
Mof_O 	O 	0.33287	0.71955	0.90342	-0.395
Mof_O 	O 	0.26818	0.69952	0.9362	-0.404
Mof_O 	O 	0.68504	0.08437	0.27975	-0.394
Mof_O 	O 	0.78838	0.15461	0.32367	-0.396
Mof_O 	O 	0.70852	0.08571	0.92073	-0.4
Mof_O 	O 	0.65509	0.04826	0.82391	-0.409
Mof_O 	O 	0.33052	0.16918	0.36654	-0.412
Mof_O 	O 	0.27251	0.0723	0.32805	-0.414
Mof_O 	O 	0.68967	0.16353	0.3533	-0.402
Mof_O 	O 	0.79663	0.22512	0.40517	-0.402
Mof_O 	O 	0.69387	0.53407	0.37004	-0.406
Mof_O 	O 	0.63773	0.5752	0.34769	-0.401
Mof_O 	O 	0.16713	0.07055	0.38668	-0.395
Mof_O 	O 	0.23182	0.16802	0.43134	-0.404
Mof_O 	O 	0.81496	0.09471	0.39933	-0.394
Mof_O 	O 	0.71162	0.03529	0.36623	-0.396
Mof_O 	O 	0.79148	0.71221	0.37719	-0.4
Mof_O 	O 	0.84491	0.66882	0.39317	-0.409
Mof_Cu	Cu	0.78649	0.38353	0.10926	0.903
Mof_Cu	Cu	0.71276	0.36048	0.15092	0.903
Mof_Cu	Cu	0.18592	0.83509	0.59515	0.92
Mof_Cu	Cu	0.71351	0.82277	0.59705	0.903
Mof_Cu	Cu	0.78724	0.93816	0.64772	0.903
Mof_Cu	Cu	0.31408	0.90923	0.64917	0.92
Mof_Cu	Cu	0.22573	0.40296	0.61647	0.903
Mof_Cu	Cu	0.29044	0.35228	0.63952	0.903
Mof_Cu	Cu	0.26006	0.35083	0.16491	0.92
Mof_Cu	Cu	0.27427	0.89073	0.17723	0.903
Mof_Cu	Cu	0.20956	0.84908	0.06184	0.903
Mof_Cu	Cu	0.23994	0.40485	0.09077	0.92
Mof_H 	H 	0.9122	0.5681	0.2023	0.053
Mof_H 	H 	0.8238	0.5315	0.2871	0.042
Mof_H 	H 	0.8973	0.6251	0.355	0.058
Mof_H 	H 	0.9772	0.6892	0.3468	0.049
Mof_H 	H 	0.1388	0.7902	0.4204	0.058
Mof_H 	H 	0.3302	0.9014	0.5034	0.046
Mof_H 	H 	0.3218	0.8852	0.4182	0.05
Mof_H 	H 	0.2245	0.813	0.3341	0.051
Mof_H 	H 	0.1276	0.7723	0.1945	0.061
Mof_H 	H 	0.0268	0.7011	0.0213	0.05
Mof_H 	H 	0.9397	0.6299	0.0206	0.057
Mof_H 	H 	0.9459	0.6353	0.1066	0.056
Mof_H 	H 	0.5819	0.1733	0.0508	0.063
Mof_H 	H 	0.6869	0.2171	0.9802	0.053
Mof_H 	H 	0.6181	0.1243	0.9102	0.056
Mof_H 	H 	0.5261	0.0559	0.9074	0.06
Mof_H 	H 	0.3599	0.9583	0.8262	0.059
Mof_H 	H 	0.2004	0.7961	0.7495	0.052
Mof_H 	H 	0.2283	0.7904	0.8401	0.057
Mof_H 	H 	0.3126	0.8741	0.9241	0.057
Mof_H 	H 	0.3589	0.969	0.0465	0.062
Mof_H 	H 	0.4601	0.035	0.2217	0.046
Mof_H 	H 	0.5503	0.102	0.2267	0.059
Mof_H 	H 	0.547	0.1028	0.14	0.058
Mof_H 	H 	0.0802	0.7118	0.5154	0.008
Mof_H 	H 	0.9724	0.6373	0.4785	0.081
Mof_H 	H 	0.9175	0.6666	0.5041	0.008
Mof_H 	H 	0.9637	0.7559	0.5628	0.092
Mof_H 	H 	0.0724	0.8253	0.5963	0.01
Mof_H 	H 	0.5878	0.7901	0.6559	0.053
Mof_H 	H 	0.6762	0.9633	0.7077	0.042
Mof_H 	H 	0.6027	0.9577	0.7278	0.058
Mof_H 	H 	0.5228	0.8696	0.712	0.049
Mof_H 	H 	0.3612	0.7816	0.6514	0.058
Mof_H 	H 	0.1698	0.6732	0.5712	0.046
Mof_H 	H 	0.1782	0.5964	0.5634	0.05
Mof_H 	H 	0.2755	0.6096	0.5885	0.051
Mof_H 	H 	0.3724	0.5669	0.6447	0.061
Mof_H 	H 	0.4732	0.4945	0.6743	0.05
Mof_H 	H 	0.5603	0.5809	0.6902	0.057
Mof_H 	H 	0.5541	0.6607	0.6894	0.056
Mof_H 	H 	0.9181	0.9689	0.5914	0.062
Mof_H 	H 	0.8131	0.7933	0.5302	0.053
Mof_H 	H 	0.8819	0.7921	0.5062	0.056
Mof_H 	H 	0.9739	0.8813	0.5298	0.06
Mof_H 	H 	0.1401	0.9663	0.5984	0.059
Mof_H 	H 	0.2996	0.0491	0.5957	0.052
Mof_H 	H 	0.2717	0.1118	0.5621	0.057
Mof_H 	H 	0.1874	0.1115	0.5615	0.057
Mof_H 	H 	0.1411	0.1876	0.6101	0.062
Mof_H 	H 	0.0399	0.2616	0.5749	0.046
Mof_H 	H 	0.9497	0.1764	0.5517	0.059
Mof_H 	H 	0.953	0.093	0.5558	0.058
Mof_H 	H 	0.4198	0.9352	0.6316	0.008
Mof_H 	H 	0.5276	0.0061	0.6649	0.081
Mof_H 	H 	0.5825	0.0866	0.7491	0.008
Mof_H 	H 	0.5363	0.0991	0.7922	0.092
Mof_H 	H 	0.4276	0.0239	0.7529	0.01
Mof_H 	H 	0.1342	0.3441	0.4319	0.053
Mof_H 	H 	0.2556	0.2923	0.4685	0.042
Mof_H 	H 	0.2299	0.2722	0.3749	0.058
Mof_H 	H 	0.1576	0.288	0.3108	0.049
Mof_H 	H 	0.1302	0.3486	0.2098	0.058
Mof_H 	H 	0.102	0.4288	0.0986	0.046
Mof_H 	H 	0.033	0.4366	0.1148	0.05
Mof_H 	H 	0.0211	0.4115	0.187	0.051
Mof_H 	H 	0.9222	0.3553	0.2277	0.061
Mof_H 	H 	0.8202	0.3257	0.2989	0.05
Mof_H 	H 	0.8907	0.3098	0.3701	0.057
Mof_H 	H 	0.9713	0.3106	0.3647	0.056
Mof_H 	H 	0.3775	0.4086	0.8267	0.063
Mof_H 	H 	0.2631	0.4698	0.7829	0.053
Mof_H 	H 	0.2859	0.4938	0.8757	0.056
Mof_H 	H 	0.3515	0.4702	0.9441	0.061
Mof_H 	H 	0.3679	0.4016	0.0417	0.059
Mof_H 	H 	0.4534	0.4043	0.2039	0.052
Mof_H 	H 	0.5497	0.4379	0.2096	0.057
Mof_H 	H 	0.55	0.4385	0.1259	0.057
Mof_H 	H 	0.5775	0.3899	0.031	0.062
Mof_H 	H 	0.6867	0.4251	0.965	0.046
Mof_H 	H 	0.6247	0.4483	0.898	0.059
Mof_H 	H 	0.5372	0.4442	0.8972	0.058
Mof_H 	H 	0.3036	0.3684	0.2882	0.008
Mof_H 	H 	0.3412	0.3351	0.3627	0.081
Mof_H 	H 	0.3375	0.2509	0.3334	0.008
Mof_H 	H 	0.3069	0.2078	0.2441	0.092
Mof_H 	H 	0.271	0.2471	0.1747	0.01
Mof_H 	H 	0.3658	0.7977	0.2099	0.053
Mof_H 	H 	0.2444	0.7129	0.0367	0.042
Mof_H 	H 	0.2701	0.645	0.0423	0.058
Mof_H 	H 	0.3424	0.6532	0.1304	0.049
Mof_H 	H 	0.3698	0.5796	0.2184	0.058
Mof_H 	H 	0.398	0.4966	0.3268	0.046
Mof_H 	H 	0.467	0.5818	0.4036	0.05
Mof_H 	H 	0.4789	0.6659	0.3904	0.051
Mof_H 	H 	0.5778	0.8055	0.4331	0.061
Mof_H 	H 	0.6798	0.9787	0.5055	0.05
Mof_H 	H 	0.6093	0.9794	0.4191	0.057
Mof_H 	H 	0.5287	0.8934	0.3393	0.056
Mof_H 	H 	0.1225	0.9492	0.0311	0.063
Mof_H 	H 	0.2369	0.0198	0.2067	0.053
Mof_H 	H 	0.2141	0.0898	0.2079	0.056
Mof_H 	H 	0.1485	0.0926	0.1187	0.061
Mof_H 	H 	0.1321	0.1738	0.0337	0.059
Mof_H 	H 	0.0466	0.2505	0.9509	0.052
Mof_H 	H 	0.9503	0.1599	0.8882	0.057
Mof_H 	H 	0.95	0.0759	0.8885	0.057
Mof_H 	H 	0.9225	0.9535	0.8124	0.062
Mof_H 	H 	0.8133	0.7783	0.7384	0.046
Mof_H 	H 	0.8753	0.7733	0.8236	0.059
Mof_H 	H 	0.9628	0.86	0.907	0.058
Mof_H 	H 	0.1964	0.4846	0.0648	0.008
Mof_H 	H 	0.1588	0.5215	0.9939	0.081
Mof_H 	H 	0.1625	0.4959	0.9134	0.008
Mof_H 	H 	0.1931	0.4372	0.9009	0.092
Mof_H 	H 	0.229	0.4037	0.9761	0.01
Mof_C 	C 	0.00371	0.67782	0.26851	0.126
Mof_C 	C 	0.1065	0.753	0.3131	0.133
Mof_C 	C 	0.0457	0.70798	0.21668	0.128
Mof_C 	C 	0.9517	0.63648	0.27338	-0.022
Mof_C 	C 	0.9088	0.57923	0.23283	-0.006
Mof_C 	C 	0.8612	0.53904	0.23784	-0.088
Mof_C 	C 	0.8566	0.55753	0.28393	0.008
Mof_C 	C 	0.9	0.61339	0.32419	-0.064
Mof_C 	C 	0.9471	0.65162	0.31872	-0.02
Mof_C 	C 	0.81685	0.47714	0.19613	0.366
Mof_C 	C 	0.1702	0.798	0.368	-0.017
Mof_C 	C 	0.1753	0.8094	0.4195	-0.012
Mof_C 	C 	0.2338	0.849	0.4696	-0.074
Mof_C 	C 	0.2901	0.87603	0.46893	-0.001
Mof_C 	C 	0.2854	0.86506	0.41906	-0.054
Mof_C 	C 	0.2266	0.82378	0.36818	-0.031
Mof_C 	C 	0.2403	0.86046	0.52716	0.357
Mof_C 	C 	0.0387	0.70377	0.15967	-0.014
Mof_C 	C 	0.0896	0.7441	0.1593	-0.018
Mof_C 	C 	0.0862	0.74413	0.10753	-0.075
Mof_C 	C 	0.0301	0.7018	0.0561	-0.005
Mof_C 	C 	0.9771	0.6593	0.0556	-0.051
Mof_C 	C 	0.9814	0.6618	0.107	-0.035
Mof_C 	C 	0.1435	0.789	0.1097	0.348
Mof_C 	C 	0.4938	0.06501	0.98141	0.125
Mof_C 	C 	0.3996	0.9775	0.9361	0.128
Mof_C 	C 	0.4487	0.0316	0.0295	0.127
Mof_C 	C 	0.5464	0.1091	0.9783	-0.006
Mof_C 	C 	0.5885	0.164	0.0221	-0.019
Mof_C 	C 	0.6426	0.2062	0.0226	-0.077
Mof_C 	C 	0.6519	0.19	0.9801	-0.003
Mof_C 	C 	0.6103	0.1345	0.9376	-0.047
Mof_C 	C 	0.5552	0.093	0.9362	-0.039
Mof_C 	C 	0.68257	0.26631	0.06326	0.343
Mof_C 	C 	0.3454	0.9268	0.884	-0.017
Mof_C 	C 	0.3321	0.9255	0.8284	-0.007
Mof_C 	C 	0.2812	0.8791	0.7781	-0.079
Mof_C 	C 	0.2379	0.8273	0.783	-0.005
Mof_C 	C 	0.2527	0.8248	0.8375	-0.048
Mof_C 	C 	0.3045	0.8746	0.8881	-0.032
Mof_C 	C 	0.267	0.8793	0.7207	0.354
Mof_C 	C 	0.4519	0.03563	0.08453	-0.013
Mof_C 	C 	0.39717	0.99544	0.08227	-0.017
Mof_C 	C 	0.39977	0.99501	0.13304	-0.079
Mof_C 	C 	0.4584	0.03564	0.18764	-0.001
Mof_C 	C 	0.5125	0.0755	0.1908	-0.053
Mof_C 	C 	0.5106	0.0763	0.1385	-0.034
Mof_C 	C 	0.3418	0.95151	0.13011	0.347
Mof_C 	C 	0.0564	0.7211	0.5247	0.087
Mof_C 	C 	0.9917	0.6754	0.5019	-0.153
Mof_C 	C 	0.9604	0.6939	0.5185	0.086
Mof_C 	C 	0.9862	0.7458	0.552	-0.156
Mof_C 	C 	0.0521	0.7875	0.5718	0.089
Mof_C 	C 	0.49629	0.7648	0.67411	0.126
Mof_C 	C 	0.3935	0.7066	0.6465	0.133
Mof_C 	C 	0.4543	0.67098	0.66228	0.128
Mof_C 	C 	0.5483	0.82168	0.68478	-0.022
Mof_C 	C 	0.5912	0.82403	0.67043	-0.006
Mof_C 	C 	0.6388	0.87664	0.67784	-0.088
Mof_C 	C 	0.6434	0.92733	0.70093	0.008
Mof_C 	C 	0.6	0.92419	0.71339	-0.064
Mof_C 	C 	0.5529	0.87162	0.70452	-0.02
Mof_C 	C 	0.68315	0.87928	0.66029	0.366
Mof_C 	C 	0.3298	0.6978	0.6278	-0.017
Mof_C 	C 	0.3247	0.7442	0.6341	-0.012
Mof_C 	C 	0.2662	0.7358	0.6152	-0.074
Mof_C 	C 	0.2099	0.67883	0.58593	-0.001
Mof_C 	C 	0.2146	0.63366	0.57966	-0.054
Mof_C 	C 	0.2734	0.64158	0.59718	-0.031
Mof_C 	C 	0.2597	0.78686	0.62016	0.357
Mof_C 	C 	0.4613	0.62097	0.66507	-0.014
Mof_C 	C 	0.4104	0.5697	0.6545	-0.018
Mof_C 	C 	0.4138	0.52133	0.65793	-0.075
Mof_C 	C 	0.4699	0.526	0.6717	-0.005
Mof_C 	C 	0.5229	0.5785	0.6822	-0.051
Mof_C 	C 	0.5186	0.6256	0.6804	-0.035
Mof_C 	C 	0.3565	0.4662	0.6455	0.348
Mof_C 	C 	0.0062	0.98761	0.57121	0.125
Mof_C 	C 	0.1004	0.0365	0.5779	0.127
Mof_C 	C 	0.0513	0.0808	0.5829	0.127
Mof_C 	C 	0.9536	0.9319	0.5627	-0.006
Mof_C 	C 	0.9115	0.9336	0.5755	-0.019
Mof_C 	C 	0.8574	0.88	0.5636	-0.077
Mof_C 	C 	0.8481	0.8282	0.5381	-0.003
Mof_C 	C 	0.8897	0.8273	0.5242	-0.047
Mof_C 	C 	0.9448	0.881	0.5378	-0.039
Mof_C 	C 	0.81743	0.88069	0.58374	0.344
Mof_C 	C 	0.1546	0.0386	0.5814	-0.017
Mof_C 	C 	0.1679	0.9963	0.5934	-0.006
Mof_C 	C 	0.2188	0.9969	0.5979	-0.079
Mof_C 	C 	0.2621	0.0451	0.5894	-0.005
Mof_C 	C 	0.2473	0.0848	0.5721	-0.048
Mof_C 	C 	0.1955	0.0836	0.5701	-0.032
Mof_C 	C 	0.233	0.9537	0.6123	0.354
Mof_C 	C 	0.0481	0.13263	0.58373	-0.013
Mof_C 	C 	0.10283	0.1851	0.59827	-0.016
Mof_C 	C 	0.10023	0.23327	0.59524	-0.078
Mof_C 	C 	0.0416	0.22924	0.57724	-0.001
Mof_C 	C 	0.9875	0.1783	0.563	-0.053
Mof_C 	C 	0.9894	0.1279	0.5657	-0.034
Mof_C 	C 	0.1582	0.28831	0.60971	0.347
Mof_C 	C 	0.4436	0.9683	0.6647	0.087
Mof_C 	C 	0.5083	0.0102	0.6837	-0.152
Mof_C 	C 	0.5396	0.0581	0.7335	0.085
Mof_C 	C 	0.5138	0.0658	0.7596	-0.156
Mof_C 	C 	0.4479	0.0197	0.7354	0.088
Mof_C 	C 	0.09069	0.32589	0.32218	0.125
Mof_C 	C 	0.0601	0.3535	0.247	0.133
Mof_C 	C 	0.0087	0.33772	0.29202	0.128
Mof_C 	C 	0.1369	0.31522	0.36352	-0.022
Mof_C 	C 	0.1536	0.32957	0.42077	-0.006
Mof_C 	C 	0.1988	0.32216	0.46096	-0.088
Mof_C 	C 	0.2264	0.29907	0.44247	0.008
Mof_C 	C 	0.2108	0.28661	0.38661	-0.064
Mof_C 	C 	0.1671	0.29548	0.34838	-0.02
Mof_C 	C 	0.21899	0.33971	0.52286	0.366
Mof_C 	C 	0.07	0.3722	0.202	-0.017
Mof_C 	C 	0.1101	0.3659	0.1906	-0.012
Mof_C 	C 	0.1206	0.3848	0.151	-0.074
Mof_C 	C 	0.0929	0.41407	0.12397	-0.001
Mof_C 	C 	0.054	0.42034	0.13494	-0.054
Mof_C 	C 	0.0444	0.40282	0.17622	-0.031
Mof_C 	C 	0.1667	0.37984	0.13954	0.357
Mof_C 	C 	0.9559	0.33493	0.29623	-0.014
Mof_C 	C 	0.9152	0.3455	0.2559	-0.018
Mof_C 	C 	0.8634	0.34207	0.25587	-0.075
Mof_C 	C 	0.8543	0.3283	0.2982	-0.005
Mof_C 	C 	0.8963	0.3178	0.3407	-0.051
Mof_C 	C 	0.9452	0.3196	0.3382	-0.035
Mof_C 	C 	0.8207	0.3545	0.211	0.348
Mof_C 	C 	0.4164	0.42879	0.93499	0.125
Mof_C 	C 	0.4586	0.4221	0.0225	0.128
Mof_C 	C 	0.4979	0.4171	0.9684	0.127
Mof_C 	C 	0.3692	0.4373	0.8909	-0.006
Mof_C 	C 	0.3581	0.4245	0.836	-0.019
Mof_C 	C 	0.3164	0.4364	0.7938	-0.077
Mof_C 	C 	0.2901	0.4619	0.81	-0.003
Mof_C 	C 	0.3031	0.4758	0.8655	-0.047
Mof_C 	C 	0.3432	0.4622	0.907	-0.039
Mof_C 	C 	0.29695	0.41626	0.73369	0.343
Mof_C 	C 	0.4572	0.4186	0.0732	-0.017
Mof_C 	C 	0.4029	0.4066	0.0745	-0.007
Mof_C 	C 	0.399	0.4021	0.1209	-0.079
Mof_C 	C 	0.4557	0.4106	0.1727	-0.005
Mof_C 	C 	0.5127	0.4279	0.1752	-0.048
Mof_C 	C 	0.5135	0.4299	0.1254	-0.032
Mof_C 	C 	0.3414	0.3877	0.1207	0.354
Mof_C 	C 	0.5489	0.41627	0.96437	-0.013
Mof_C 	C 	0.58683	0.40173	0.00456	-0.016
Mof_C 	C 	0.63803	0.40476	0.00499	-0.079
Mof_C 	C 	0.652	0.42276	0.96436	-0.001
Mof_C 	C 	0.6153	0.437	0.9245	-0.053
Mof_C 	C 	0.5622	0.4343	0.9237	-0.034
Mof_C 	C 	0.6786	0.39029	0.04849	0.347
Mof_C 	C 	0.3036	0.3353	0.2789	0.086
Mof_C 	C 	0.3265	0.3163	0.3246	-0.152
Mof_C 	C 	0.3246	0.2665	0.3061	0.085
Mof_C 	C 	0.3062	0.2404	0.2542	-0.156
Mof_C 	C 	0.2843	0.2646	0.2125	0.088
Mof_C 	C 	0.40931	0.73149	0.2352	0.126
Mof_C 	C 	0.4399	0.6869	0.2934	0.133
Mof_C 	C 	0.4913	0.78332	0.32902	0.128
Mof_C 	C 	0.3631	0.72662	0.17832	-0.022
Mof_C 	C 	0.3464	0.76717	0.17597	-0.006
Mof_C 	C 	0.3012	0.76216	0.12336	-0.088
Mof_C 	C 	0.2736	0.71607	0.07267	0.008
Mof_C 	C 	0.2892	0.67581	0.07581	-0.064
Mof_C 	C 	0.3329	0.68128	0.12838	-0.02
Mof_C 	C 	0.28101	0.80387	0.12072	0.366
Mof_C 	C 	0.43	0.632	0.3022	-0.017
Mof_C 	C 	0.3899	0.5805	0.2558	-0.012
Mof_C 	C 	0.3794	0.5304	0.2642	-0.074
Mof_C 	C 	0.4071	0.53107	0.32117	-0.001
Mof_C 	C 	0.446	0.58094	0.36634	-0.054
Mof_C 	C 	0.4556	0.63182	0.35842	-0.031
Mof_C 	C 	0.3333	0.47284	0.21314	0.357
Mof_C 	C 	0.5441	0.84033	0.37903	-0.014
Mof_C 	C 	0.5848	0.8407	0.4303	-0.018
Mof_C 	C 	0.6366	0.89247	0.47867	-0.075
Mof_C 	C 	0.6457	0.9439	0.474	-0.005
Mof_C 	C 	0.6037	0.9444	0.4215	-0.051
Mof_C 	C 	0.5548	0.893	0.3744	-0.035
Mof_C 	C 	0.6793	0.8903	0.5338	0.348
Mof_C 	C 	0.0836	0.01859	0.01239	0.125
Mof_C 	C 	0.0414	0.0639	0.9635	0.127
Mof_C 	C 	0.0021	0.9705	0.9192	0.127
Mof_C 	C 	0.1308	0.0217	0.0681	-0.006
Mof_C 	C 	0.1419	0.9779	0.0664	-0.019
Mof_C 	C 	0.1836	0.9774	0.12	-0.077
Mof_C 	C 	0.2099	0.0199	0.1718	-0.003
Mof_C 	C 	0.1969	0.0624	0.1727	-0.047
Mof_C 	C 	0.1568	0.0638	0.119	-0.039
Mof_C 	C 	0.20305	0.93674	0.11931	0.343
Mof_C 	C 	0.0428	0.116	0.9614	-0.017
Mof_C 	C 	0.0971	0.1716	0.0037	-0.006
Mof_C 	C 	0.101	0.2219	0.0031	-0.079
Mof_C 	C 	0.0443	0.217	0.9549	-0.005
Mof_C 	C 	0.9873	0.1625	0.9152	-0.047
Mof_C 	C 	0.9865	0.1119	0.9164	-0.032
Mof_C 	C 	0.1586	0.2793	0.0463	0.354
Mof_C 	C 	0.9511	0.91547	0.86737	-0.013
Mof_C 	C 	0.91317	0.91773	0.8149	-0.016
Mof_C 	C 	0.86197	0.86696	0.76673	-0.079
Mof_C 	C 	0.848	0.81236	0.77076	-0.001
Mof_C 	C 	0.8847	0.8092	0.8217	-0.053
Mof_C 	C 	0.9378	0.8615	0.8721	-0.034
Mof_C 	C 	0.8214	0.86989	0.71169	0.347
Mof_C 	C 	0.1964	0.4753	0.0317	0.087
Mof_C 	C 	0.1735	0.4981	0.9898	-0.152
Mof_C 	C 	0.1754	0.4815	0.9419	0.085
Mof_C 	C 	0.1938	0.448	0.9342	-0.156
Mof_C 	C 	0.2157	0.4282	0.9803	0.088
Mof_N 	N 	0.9952	0.67035	0.21627	-0.148
Mof_N 	N 	0.05914	0.7207	0.31776	-0.15
Mof_N 	N 	0.10257	0.7493	0.26353	-0.151
Mof_N 	N 	0.49794	0.073	0.03066	-0.147
Mof_N 	N 	0.44502	0.0179	0.93068	-0.143
Mof_N 	N 	0.3977	0.98283	0.98313	-0.146
Mof_N 	N 	0.08464	0.77447	0.55713	-0.201
Mof_N 	N 	0.5048	0.72107	0.67515	-0.148
Mof_N 	N 	0.44086	0.75862	0.66156	-0.15
Mof_N 	N 	0.39743	0.66096	0.64673	-0.151
Mof_N 	N 	0.00206	0.03272	0.57506	-0.148
Mof_N 	N 	0.05498	0.98566	0.57288	-0.143
Mof_N 	N 	0.1023	0.08543	0.58513	-0.146
Mof_N 	N 	0.41536	0.97249	0.68983	-0.2
Mof_N 	N 	0.04592	0.32485	0.32965	-0.148
Mof_N 	N 	0.09706	0.33844	0.2793	-0.15
Mof_N 	N 	0.01423	0.35327	0.2507	-0.151
Mof_N 	N 	0.45766	0.42494	0.927	-0.147
Mof_N 	N 	0.41278	0.42712	0.9821	-0.143
Mof_N 	N 	0.5003	0.41487	0.01717	-0.146
Mof_N 	N 	0.28266	0.31017	0.22553	-0.2
Mof_N 	N 	0.45408	0.78373	0.27893	-0.148
Mof_N 	N 	0.40294	0.68224	0.24138	-0.15
Mof_N 	N 	0.48577	0.73647	0.33904	-0.151
Mof_N 	N 	0.04234	0.96934	0.96728	-0.147
Mof_N 	N 	0.08722	0.06932	0.01434	-0.142
Mof_N 	N 	0.9997	0.01687	0.91457	-0.146
Mof_N 	N 	0.21734	0.44287	0.02751	-0.2
Mof_O 	O 	0.83052	0.46398	0.16134	-0.412
Mof_O 	O 	0.77251	0.44446	0.20021	-0.414
Mof_O 	O 	0.18967	0.83637	0.52614	-0.402
Mof_O 	O 	0.29663	0.89146	0.57151	-0.402
Mof_O 	O 	0.19387	0.82383	0.1598	-0.406
Mof_O 	O 	0.13773	0.79004	0.06253	-0.401
Mof_O 	O 	0.66713	0.28045	0.09658	-0.395
Mof_O 	O 	0.73182	0.30048	0.0638	-0.404
Mof_O 	O 	0.31496	0.91563	0.72025	-0.394
Mof_O 	O 	0.21162	0.84539	0.67633	-0.396
Mof_O 	O 	0.29148	0.91429	0.07927	-0.4
Mof_O 	O 	0.34491	0.95174	0.17609	-0.409
Mof_O 	O 	0.66948	0.83082	0.63346	-0.412
Mof_O 	O 	0.72749	0.9277	0.67195	-0.414
Mof_O 	O 	0.31033	0.83647	0.6467	-0.402
Mof_O 	O 	0.20337	0.77488	0.59483	-0.402
Mof_O 	O 	0.30613	0.46593	0.62996	-0.406
Mof_O 	O 	0.36227	0.4248	0.65231	-0.401
Mof_O 	O 	0.83287	0.92945	0.61332	-0.395
Mof_O 	O 	0.76818	0.83198	0.56866	-0.404
Mof_O 	O 	0.18504	0.90529	0.60067	-0.394
Mof_O 	O 	0.28838	0.96471	0.63377	-0.396
Mof_O 	O 	0.20852	0.28779	0.62281	-0.4
Mof_O 	O 	0.15509	0.33118	0.60683	-0.409
Mof_O 	O 	0.19736	0.36654	0.53602	-0.412
Mof_O 	O 	0.25575	0.32805	0.55554	-0.414
Mof_O 	O 	0.18977	0.3533	0.16363	-0.402
Mof_O 	O 	0.18005	0.40517	0.10854	-0.402
Mof_O 	O 	0.83597	0.37004	0.17617	-0.406
Mof_O 	O 	0.77249	0.34769	0.20996	-0.401
Mof_O 	O 	0.31613	0.38668	0.71955	-0.395
Mof_O 	O 	0.26332	0.43134	0.69952	-0.404
Mof_O 	O 	0.30462	0.39933	0.08437	-0.394
Mof_O 	O 	0.33094	0.36623	0.15461	-0.396
Mof_O 	O 	0.66498	0.37719	0.08571	-0.4
Mof_O 	O 	0.72435	0.39317	0.04826	-0.409
Mof_O 	O 	0.30264	0.83866	0.16918	-0.412
Mof_O 	O 	0.24425	0.79979	0.0723	-0.414
Mof_O 	O 	0.31023	0.47386	0.16353	-0.402
Mof_O 	O 	0.31995	0.42849	0.22512	-0.402
Mof_O 	O 	0.66403	0.8402	0.53407	-0.406
Mof_O 	O 	0.72751	0.93747	0.5752	-0.401
Mof_O 	O 	0.18387	0.90342	0.07055	-0.395
Mof_O 	O 	0.23668	0.9362	0.16802	-0.404
Mof_O 	O 	0.19538	0.27975	0.09471	-0.394
Mof_O 	O 	0.16906	0.32367	0.03529	-0.396
Mof_O 	O 	0.83502	0.92073	0.71221	-0.4
Mof_O 	O 	0.77565	0.82391	0.66882	-0.409
_end
