data_functionalizedCrystal
_audit_creation_method	'EQeq! by Chris Wilmer'
_symmetry_space_group_name_H-M	'P1'
_symmetry_Int_Tables_number	1
_symmetry_cell_setting	triclinic
loop_
_symmetry_equiv_pos_as_xyz
  x,y,z
_cell_length_a	8.939
_cell_length_b	8.939
_cell_length_c	10.893
_cell_angle_alpha	90
_cell_angle_beta	90
_cell_angle_gamma	120
loop_
_atom_site_label
_atom_site_type_symbol
_atom_site_fract_x
_atom_site_fract_y
_atom_site_fract_z
_atom_site_charge
Mof_Ti	Ti	-2.48729e-17	0.5	0.16667	1.376
Mof_Ti	Ti	0.5	1.67442e-32	0.83333	1.381
Mof_Ti	Ti	0.5	0.5	0.5	1.437
Mof_C 	C 	0.30825	0.6165	0.33333	0.232
Mof_C 	C 	0.21049	0.42098	0.33333	0.288
Mof_C 	C 	0.30825	0.69175	-0	0.161
Mof_C 	C 	0.21049	0.78951	-0	0.207
Mof_C 	C 	0.3835	0.69175	0.66667	0.237
Mof_C 	C 	0.57902	0.78951	0.66667	0.287
Mof_C 	C 	0.69175	0.3835	0.33333	0.235
Mof_C 	C 	0.78951	0.57902	0.33333	0.285
Mof_C 	C 	0.69175	0.30825	-0	0.166
Mof_C 	C 	0.78951	0.21049	-0	0.223
Mof_C 	C 	0.6165	0.30825	0.66667	0.234
Mof_C 	C 	0.42098	0.21049	0.66667	0.29
Mof_O 	O 	0.23704	0.68604	0.27635	-0.311
Mof_O 	O 	0.07611	0.3486	0.27013	-0.38
Mof_O 	O 	0.449	0.76296	0.94302	-0.233
Mof_O 	O 	0.27249	0.92389	0.9368	-0.283
Mof_O 	O 	0.31396	0.551	0.60968	-0.313
Mof_O 	O 	0.6514	0.72751	0.60346	-0.365
Mof_O 	O 	0.76296	0.31396	0.27635	-0.308
Mof_O 	O 	0.92389	0.6514	0.27013	-0.35
Mof_O 	O 	0.551	0.23704	0.94302	-0.25
Mof_O 	O 	0.72751	0.07611	0.9368	-0.318
Mof_O 	O 	0.68604	0.449	0.60968	-0.306
Mof_O 	O 	0.3486	0.27249	0.60346	-0.374
Mof_O 	O 	0.551	0.31396	0.39032	-0.32
Mof_O 	O 	0.72751	0.6514	0.39654	-0.368
Mof_O 	O 	0.68604	0.23704	0.72365	-0.303
Mof_O 	O 	0.3486	0.07611	0.72987	-0.379
Mof_O 	O 	0.76296	0.449	0.05698	-0.302
Mof_O 	O 	0.92389	0.27249	0.0632	-0.35
Mof_O 	O 	0.449	0.68604	0.39032	-0.313
Mof_O 	O 	0.27249	0.3486	0.39654	-0.377
Mof_O 	O 	0.31396	0.76296	0.72365	-0.298
Mof_O 	O 	0.6514	0.92389	0.72987	-0.348
Mof_O 	O 	0.23704	0.551	0.05698	-0.312
Mof_O 	O 	0.07611	0.72751	0.0632	-0.371
Mof_H 	H 	0.89568	0.91131	0.88379	0.184
Mof_H 	H 	0.10432	0.08869	0.88379	0.148
Mof_H 	H 	0.98437	0.08869	0.78288	0.153
Mof_H 	H 	0.01563	0.91131	0.78288	0.151
Mof_N 	N 	-0	1.67442e-32	0.83333	-0.334
Mof_H 	H 	0.01563	0.10432	0.55046	0.129
Mof_H 	H 	0.98437	0.89568	0.55046	0.173
Mof_H 	H 	0.10432	0.01563	0.44954	0.128
Mof_H 	H 	0.89568	0.98437	0.44954	0.171
Mof_N 	N 	4.18605e-33	0	0.5	-0.333
Mof_H 	H 	0.08869	0.98437	0.21712	0.143
Mof_H 	H 	0.91131	0.01563	0.21712	0.14
Mof_H 	H 	0.91131	0.89568	0.11621	0.15
Mof_H 	H 	0.08869	0.10432	0.11621	0.114
Mof_N 	N 	-0	0	0.16667	-0.324
_end
