data_functionalizedCrystal
_audit_creation_method	'EQeq! by Chris Wilmer'
_symmetry_space_group_name_H-M	'P1'
_symmetry_Int_Tables_number	1
_symmetry_cell_setting	triclinic
loop_
_symmetry_equiv_pos_as_xyz
  x,y,z
_cell_length_a	10.6945
_cell_length_b	18.576
_cell_length_c	14.9208
_cell_angle_alpha	90
_cell_angle_beta	107.758
_cell_angle_gamma	90
loop_
_atom_site_label
_atom_site_type_symbol
_atom_site_fract_x
_atom_site_fract_y
_atom_site_fract_z
_atom_site_charge
Mof_Cd	Cd	0.67055	0.01133	0.67012	0.477
Mof_O 	O 	0.6787	0.00245	0.8253	-0.312
Mof_O 	O 	0.6647	0.47467	0.0136	-0.292
Mof_O 	O 	0.9806	0.01926	0.845	-0.283
Mof_F 	F 	0.0388	0.29147	0.0946	-0.433
Mof_C 	C 	0.7046	0.9495	0.8811	0.45
Mof_O 	O 	0.8555	0.07884	0.7199	-0.292
Mof_C 	C 	0.0741	0.2711	0.8053	-0.132
Mof_C 	C 	0.6117	0.4313	0.9483	0.414
Mof_F 	F 	0.385	0.7997	0.76	-0.466
Mof_N 	N 	0.9176	0.1165	0.0115	-0.092
Mof_O 	O 	0.7955	0.94681	0.9576	-0.286
Mof_C 	C 	0.5693	0.7556	0.8798	-0.358
Mof_C 	C 	0.9494	0.0749	0.7942	0.426
Mof_C 	C 	0.64	0.8242	0.9025	0.336
Mof_H 	H 	0.7079	0.8257	0.959	-0.028
Mof_N 	N 	0.443	0.6201	0.8459	-0.03
Mof_C 	C 	0.9507	0.2398	0.0537	0.375
Mof_C 	C 	0.0336	0.1399	0.8241	-0.326
Mof_H 	H 	0.1151	0.1353	0.8694	0.187
Mof_C 	C 	0.6186	0.8846	0.8516	-0.388
Mof_H 	H 	0.5485	0.8865	0.7965	0.24
Mof_C 	C 	0.9944	0.2048	0.7869	0.238
Mof_H 	H 	0.9094	0.2084	0.746	0.014
Mof_C 	C 	0.6631	0.3563	0.9525	-0.237
Mof_H 	H 	0.6144	0.3237	0.9081	0.17
Mof_C 	C 	0.9967	0.1701	0.0538	-0.112
Mof_H 	H 	0.0849	0.1604	0.084	0.116
Mof_C 	C 	0.772	0.3321	0.0139	0.144
Mof_H 	H 	0.8204	0.3634	0.0602	0.05
Mof_C 	C 	0.6244	0.6935	0.9293	0.525
Mof_C 	C 	0.7399	0.2006	0.9707	0.025
Mof_H 	H 	0.6506	0.2083	0.9425	0.049
Mof_C 	C 	0.8205	0.2579	0.0126	-0.119
Mof_C 	C 	0.2096	0.2727	0.8219	0.045
Mof_H 	H 	0.2556	0.2297	0.8262	0.052
Mof_C 	C 	0.4478	0.7457	0.8138	0.473
Mof_C 	C 	0.7912	0.1323	0.9704	0.023
Mof_H 	H 	0.735	0.0956	0.9402	0.061
Mof_N 	N 	0.2166	0.4015	0.8254	-0.08
Mof_C 	C 	0.276	0.3373	0.8321	0.021
Mof_H 	H 	0.3666	0.3363	0.8443	0.052
Mof_C 	C 	0.559	0.6279	0.9106	-0.235
Mof_H 	H 	0.5982	0.5877	0.9449	0.177
Mof_C 	C 	0.3881	0.6784	0.7962	-0.207
Mof_H 	H 	0.3084	0.6737	0.7489	0.152
Mof_C 	C 	0.0172	0.3385	0.8009	0.379
Mof_O 	O 	0.5175	0.44485	0.876	-0.289
Mof_F 	F 	0.8856	0.3423	0.7848	-0.411
Mof_C 	C 	0.0866	0.4013	0.8104	-0.129
Mof_H 	H 	0.0426	0.4449	0.8063	0.144
Mof_F 	F 	0.7431	0.6943	0.9803	-0.481
Mof_Cd	Cd	0.32945	0.51133	0.82988	0.489
Mof_O 	O 	0.3213	0.50245	0.6747	-0.297
Mof_O 	O 	0.3353	0.97467	0.4864	-0.273
Mof_O 	O 	0.0194	0.51926	0.655	-0.278
Mof_F 	F 	0.9612	0.79147	0.4054	-0.416
Mof_C 	C 	0.2954	0.4495	0.6189	0.432
Mof_O 	O 	0.1445	0.57884	0.7801	-0.278
Mof_C 	C 	0.9259	0.7711	0.6947	-0.064
Mof_C 	C 	0.3883	0.9313	0.5517	0.401
Mof_F 	F 	0.615	0.2997	0.74	-0.466
Mof_N 	N 	0.0824	0.6165	0.4885	-0.082
Mof_O 	O 	0.2045	0.44681	0.5424	-0.301
Mof_C 	C 	0.4307	0.2556	0.6202	-0.36
Mof_C 	C 	0.0506	0.5749	0.7058	0.366
Mof_C 	C 	0.36	0.3242	0.5975	0.333
Mof_H 	H 	0.2921	0.3257	0.541	-0.032
Mof_N 	N 	0.557	0.1201	0.6541	-0.031
Mof_C 	C 	0.0493	0.7398	0.4463	0.368
Mof_C 	C 	0.9664	0.6399	0.6759	-0.198
Mof_H 	H 	0.8849	0.6353	0.6306	0.147
Mof_C 	C 	0.3814	0.3846	0.6484	-0.385
Mof_H 	H 	0.4515	0.3865	0.7035	0.237
Mof_C 	C 	0.0056	0.7048	0.7131	0.107
Mof_H 	H 	0.0906	0.7084	0.754	0.054
Mof_C 	C 	0.3369	0.8563	0.5475	-0.257
Mof_H 	H 	0.3856	0.8237	0.5919	0.174
Mof_C 	C 	0.0033	0.6701	0.4462	-0.149
Mof_H 	H 	0.9151	0.6604	0.416	0.142
Mof_C 	C 	0.228	0.8321	0.4861	0.163
Mof_H 	H 	0.1796	0.8634	0.4398	0.042
Mof_C 	C 	0.3756	0.1935	0.5707	0.522
Mof_C 	C 	0.2601	0.7006	0.5293	0.014
Mof_H 	H 	0.3494	0.7083	0.5575	0.05
Mof_C 	C 	0.1795	0.7579	0.4874	-0.111
Mof_C 	C 	0.7904	0.7727	0.6781	0.005
Mof_H 	H 	0.7444	0.7297	0.6738	0.068
Mof_C 	C 	0.5522	0.2457	0.6862	0.473
Mof_C 	C 	0.2088	0.6323	0.5296	0.009
Mof_H 	H 	0.265	0.5956	0.5598	0.064
Mof_N 	N 	0.7834	0.9015	0.6746	-0.081
Mof_C 	C 	0.724	0.8373	0.6679	0.04
Mof_H 	H 	0.6334	0.8363	0.6557	0.045
Mof_C 	C 	0.441	0.1279	0.5894	-0.236
Mof_H 	H 	0.4018	0.0877	0.5551	0.168
Mof_C 	C 	0.6119	0.1784	0.7038	-0.207
Mof_H 	H 	0.6916	0.1737	0.7511	0.154
Mof_C 	C 	0.9828	0.8385	0.6991	0.378
Mof_O 	O 	0.4825	0.94485	0.624	-0.28
Mof_F 	F 	0.1144	0.8423	0.7152	-0.422
Mof_C 	C 	0.9134	0.9013	0.6896	-0.123
Mof_H 	H 	0.9574	0.9449	0.6937	0.154
Mof_F 	F 	0.2569	0.1943	0.5197	-0.488
Mof_Cd	Cd	0.32945	0.98867	0.32988	0.499
Mof_O 	O 	0.3213	0.99755	0.1747	-0.28
Mof_O 	O 	0.3353	0.52533	0.9864	-0.268
Mof_O 	O 	0.0194	0.98074	0.155	-0.268
Mof_F 	F 	0.9612	0.70853	0.9054	-0.415
Mof_C 	C 	0.2954	0.0505	0.1189	0.409
Mof_O 	O 	0.1445	0.92116	0.2801	-0.277
Mof_C 	C 	0.9259	0.7289	0.1947	-0.069
Mof_C 	C 	0.3883	0.5687	0.0517	0.393
Mof_F 	F 	0.615	0.2003	0.24	-0.468
Mof_N 	N 	0.0824	0.8835	0.9885	-0.07
Mof_O 	O 	0.2045	0.05319	0.0424	-0.302
Mof_C 	C 	0.4307	0.2444	0.1202	-0.359
Mof_C 	C 	0.0506	0.9251	0.2058	0.368
Mof_C 	C 	0.36	0.1758	0.0975	0.327
Mof_H 	H 	0.2921	0.1743	0.041	-0.033
Mof_N 	N 	0.557	0.3799	0.1541	-0.032
Mof_C 	C 	0.0493	0.7602	0.9463	0.368
Mof_C 	C 	0.9664	0.8601	0.1759	-0.204
Mof_H 	H 	0.8849	0.8647	0.1306	0.146
Mof_C 	C 	0.3814	0.1154	0.1484	-0.378
Mof_H 	H 	0.4515	0.1135	0.2035	0.231
Mof_C 	C 	0.0056	0.7952	0.2131	0.112
Mof_H 	H 	0.0906	0.7916	0.254	0.052
Mof_C 	C 	0.3369	0.6437	0.0475	-0.279
Mof_H 	H 	0.3856	0.6763	0.0919	0.18
Mof_C 	C 	0.0033	0.8299	0.9462	-0.148
Mof_H 	H 	0.9151	0.8396	0.916	0.145
Mof_C 	C 	0.228	0.6679	0.9861	0.183
Mof_H 	H 	0.1796	0.6366	0.9398	0.036
Mof_C 	C 	0.3756	0.3065	0.0707	0.52
Mof_C 	C 	0.2601	0.7994	0.0293	0.004
Mof_H 	H 	0.3494	0.7917	0.0575	0.051
Mof_C 	C 	0.1795	0.7421	0.9874	-0.104
Mof_C 	C 	0.7904	0.7273	0.1781	0.005
Mof_H 	H 	0.7444	0.7703	0.1738	0.067
Mof_C 	C 	0.5522	0.2543	0.1862	0.471
Mof_C 	C 	0.2088	0.8677	0.0296	0.001
Mof_H 	H 	0.265	0.9044	0.0598	0.068
Mof_N 	N 	0.7834	0.5985	0.1746	-0.085
Mof_C 	C 	0.724	0.6627	0.1679	0.037
Mof_H 	H 	0.6334	0.6637	0.1557	0.044
Mof_C 	C 	0.441	0.3721	0.0894	-0.237
Mof_H 	H 	0.4018	0.4123	0.0551	0.168
Mof_C 	C 	0.6119	0.3216	0.2038	-0.207
Mof_H 	H 	0.6916	0.3263	0.2511	0.153
Mof_C 	C 	0.9828	0.6615	0.1991	0.375
Mof_O 	O 	0.4825	0.55515	0.124	-0.287
Mof_F 	F 	0.1144	0.6577	0.2152	-0.424
Mof_C 	C 	0.9134	0.5987	0.1896	-0.125
Mof_H 	H 	0.9574	0.5551	0.1937	0.147
Mof_F 	F 	0.2569	0.3057	0.0197	-0.49
Mof_Cd	Cd	0.67055	0.48867	0.17012	0.487
Mof_O 	O 	0.6787	0.49755	0.3253	-0.297
Mof_O 	O 	0.6647	0.02533	0.5136	-0.286
Mof_O 	O 	0.9806	0.48074	0.345	-0.282
Mof_F 	F 	0.0388	0.20853	0.5946	-0.434
Mof_C 	C 	0.7046	0.5505	0.3811	0.43
Mof_O 	O 	0.8555	0.42116	0.2199	-0.29
Mof_C 	C 	0.0741	0.2289	0.3053	-0.129
Mof_C 	C 	0.6117	0.0687	0.4483	0.405
Mof_F 	F 	0.385	0.7003	0.26	-0.468
Mof_N 	N 	0.9176	0.3835	0.5115	-0.084
Mof_O 	O 	0.7955	0.55319	0.4576	-0.295
Mof_C 	C 	0.5693	0.7444	0.3798	-0.358
Mof_C 	C 	0.9494	0.4251	0.2942	0.423
Mof_C 	C 	0.64	0.6758	0.4025	0.331
Mof_H 	H 	0.7079	0.6743	0.459	-0.03
Mof_N 	N 	0.443	0.8799	0.3459	-0.031
Mof_C 	C 	0.9507	0.2602	0.5537	0.376
Mof_C 	C 	0.0336	0.3601	0.3241	-0.32
Mof_H 	H 	0.1151	0.3647	0.3694	0.183
Mof_C 	C 	0.6186	0.6154	0.3516	-0.383
Mof_H 	H 	0.5485	0.6135	0.2965	0.235
Mof_C 	C 	0.9944	0.2952	0.2869	0.23
Mof_H 	H 	0.9094	0.2916	0.246	0.016
Mof_C 	C 	0.6631	0.1437	0.4525	-0.261
Mof_H 	H 	0.6144	0.1763	0.4081	0.176
Mof_C 	C 	0.9967	0.3299	0.5538	-0.106
Mof_H 	H 	0.0849	0.3396	0.584	0.114
Mof_C 	C 	0.772	0.1679	0.5139	0.167
Mof_H 	H 	0.8204	0.1366	0.5602	0.043
Mof_C 	C 	0.6244	0.8065	0.4293	0.524
Mof_C 	C 	0.7399	0.2994	0.4707	0.013
Mof_H 	H 	0.6506	0.2917	0.4425	0.05
Mof_C 	C 	0.8205	0.2421	0.5126	-0.111
Mof_C 	C 	0.2096	0.2273	0.3219	0.042
Mof_H 	H 	0.2556	0.2703	0.3262	0.052
Mof_C 	C 	0.4478	0.7543	0.3138	0.472
Mof_C 	C 	0.7912	0.3677	0.4704	0.012
Mof_H 	H 	0.735	0.4044	0.4402	0.064
Mof_N 	N 	0.2166	0.0985	0.3254	-0.085
Mof_C 	C 	0.276	0.1627	0.3321	0.02
Mof_H 	H 	0.3666	0.1637	0.3443	0.05
Mof_C 	C 	0.559	0.8721	0.4106	-0.236
Mof_H 	H 	0.5982	0.9123	0.4449	0.177
Mof_C 	C 	0.3881	0.8216	0.2962	-0.207
Mof_H 	H 	0.3084	0.8263	0.2489	0.151
Mof_C 	C 	0.0172	0.1615	0.3009	0.376
Mof_O 	O 	0.5175	0.05515	0.376	-0.296
Mof_F 	F 	0.8856	0.1577	0.2848	-0.415
Mof_C 	C 	0.0866	0.0987	0.3104	-0.13
Mof_H 	H 	0.0426	0.0551	0.3063	0.138
Mof_F 	F 	0.7431	0.8057	0.4803	-0.484
Mof_Cd	Cd	-0	0	-0	0.451
Mof_Cd	Cd	4.02724e-17	0.5	0.5	0.478
_end
