# CIF file generated by openbabel 3.1.0, see https://openbabel.org
data_I
_chemical_name_common 'image0'
_cell_length_a 20.0553
_cell_length_b 11.1462
_cell_length_c 19.5354
_cell_angle_alpha 90
_cell_angle_beta 108.352
_cell_angle_gamma 90
_space_group_name_H-M_alt 'P 1'
_space_group_name_Hall 'P 1'
loop_
    _symmetry_equiv_pos_as_xyz
    x,y,z
loop_
    _atom_site_label
    _atom_site_type_symbol
    _atom_site_fract_x
    _atom_site_fract_y
    _atom_site_fract_z
    _atom_site_occupancy
    Zn1      Zn       0.41162    0.70846    0.23228    1.000
    Zn2      Zn       0.27567    0.71259    0.09805    1.000
    Zn3      Zn       0.27852    0.56653    0.23845    1.000
    Zn4      Zn       0.27547    0.85268    0.23969    1.000
    C1       C        0.41080    0.55740    0.35680    1.000
    C2       C        0.40880    0.37640    0.59150    1.000
    C3       C        0.44840    0.52530    0.43380    1.000
    C4       C        0.41360    0.46280    0.47440    1.000
    H1       H        0.36820    0.43490    0.45230    1.000
    C5       C        0.44630    0.44160    0.54750    1.000
    C6       C        0.51450    0.48330    0.57910    1.000
    H2       H        0.53670    0.46980    0.62800    1.000
    C7       C        0.55000    0.54390    0.53990    1.000
    H3       H        0.59570    0.57070    0.56190    1.000
    C8       C        0.51590    0.56520    0.46530    1.000
    H4       H        0.53920    0.60590    0.43800    1.000
    C9       C        0.25800    0.43260    0.11030    1.000
    C10      C        0.25150    0.98460    0.11120    1.000
    C11      C        0.24290    0.31630    0.06970    1.000
    C12      C        0.25020    0.20850    0.10670    1.000
    H5       H        0.26340    0.20870    0.15680    1.000
    C13      C        0.23780    0.10010    0.06950    1.000
    C14      C        0.21720    0.09930    0.99510    1.000
    H6       H        0.20910    0.02700    0.97000    1.000
    C15      C        0.20880    0.20810    0.95780    1.000
    H7       H        0.19380    0.20830    0.90770    1.000
    C16      C        0.22260    0.31610    0.99540    1.000
    H8       H        0.21820    0.38810    0.97030    1.000
    C17      C        0.15180    0.68580    0.23980    1.000
    C18      C        0.93880    0.44510    0.24010    1.000
    C19      C        0.07520    0.67780    0.23270    1.000
    C20      C        0.04390    0.56680    0.23570    1.000
    H9       H        0.07000    0.49660    0.24020    1.000
    C21      C        0.97300    0.56190    0.23180    1.000
    C22      C        0.93520    0.66780    0.22480    1.000
    H10      H        0.88870    0.66550    0.22450    1.000
    C23      C        0.96570    0.77690    0.21810    1.000
    H11      H        0.93930    0.84710    0.21090    1.000
    C24      C        0.03480    0.78020    0.22220    1.000
    H12      H        0.05520    0.85350    0.21770    1.000
    O1       O        0.44330    0.61730    0.32400    1.000
    O2       O        0.34870    0.52200    0.33100    1.000
    O3       O        0.35780    0.31330    0.56080    1.000
    O4       O        0.43580    0.39060    0.65960    1.000
    O5       O        0.25660    0.52680    0.07720    1.000
    O6       O        0.27010    0.42500    0.17870    1.000
    O7       O        0.27610    0.89880    0.08530    1.000
    O8       O        0.23870    0.98310    0.17100    1.000
    O9       O        0.18560    0.58850    0.24860    1.000
    O10      O        0.17710    0.78750    0.23750    1.000
    O11      O        0.30940    0.71100    0.20350    1.000
    O12      O        0.88180    0.45030    0.25280    1.000
    O13      O        0.96970    0.35090    0.23290    1.000
    Zn5      Zn       0.91162    0.20846    0.23228    1.000
    Zn6      Zn       0.77567    0.21259    0.09805    1.000
    Zn7      Zn       0.77852    0.06653    0.23845    1.000
    Zn8      Zn       0.77547    0.35268    0.23969    1.000
    C25      C        0.91080    0.05740    0.35680    1.000
    C26      C        0.90880    0.87640    0.59150    1.000
    C27      C        0.94840    0.02530    0.43380    1.000
    C28      C        0.91360    0.96280    0.47440    1.000
    H13      H        0.86820    0.93490    0.45230    1.000
    C29      C        0.94630    0.94160    0.54750    1.000
    C30      C        0.01450    0.98330    0.57910    1.000
    H14      H        0.03670    0.96980    0.62800    1.000
    C31      C        0.05000    0.04390    0.53990    1.000
    H15      H        0.09570    0.07070    0.56190    1.000
    C32      C        0.01590    0.06520    0.46530    1.000
    H16      H        0.03920    0.10590    0.43800    1.000
    C33      C        0.75800    0.93260    0.11030    1.000
    C34      C        0.75150    0.48460    0.11120    1.000
    C35      C        0.74290    0.81630    0.06970    1.000
    C36      C        0.75020    0.70850    0.10670    1.000
    H17      H        0.76340    0.70870    0.15680    1.000
    C37      C        0.73780    0.60010    0.06950    1.000
    C38      C        0.71720    0.59930    0.99510    1.000
    H18      H        0.70910    0.52700    0.97000    1.000
    C39      C        0.70880    0.70810    0.95780    1.000
    H19      H        0.69380    0.70830    0.90770    1.000
    C40      C        0.72260    0.81610    0.99540    1.000
    H20      H        0.71820    0.88810    0.97030    1.000
    C41      C        0.65180    0.18580    0.23980    1.000
    C42      C        0.43880    0.94510    0.24010    1.000
    C43      C        0.57520    0.17780    0.23270    1.000
    C44      C        0.54390    0.06680    0.23570    1.000
    H21      H        0.57000    0.99660    0.24020    1.000
    C45      C        0.47300    0.06190    0.23180    1.000
    C46      C        0.43520    0.16780    0.22480    1.000
    H22      H        0.38870    0.16550    0.22450    1.000
    C47      C        0.46570    0.27690    0.21810    1.000
    H23      H        0.43930    0.34710    0.21090    1.000
    C48      C        0.53480    0.28020    0.22220    1.000
    H24      H        0.55520    0.35350    0.21770    1.000
    O14      O        0.94330    0.11730    0.32400    1.000
    O15      O        0.84870    0.02200    0.33100    1.000
    O16      O        0.85780    0.81330    0.56080    1.000
    O17      O        0.93580    0.89060    0.65960    1.000
    O18      O        0.75660    0.02680    0.07720    1.000
    O19      O        0.77010    0.92500    0.17870    1.000
    O20      O        0.77610    0.39880    0.08530    1.000
    O21      O        0.73870    0.48310    0.17100    1.000
    O22      O        0.68560    0.08850    0.24860    1.000
    O23      O        0.67710    0.28750    0.23750    1.000
    O24      O        0.80940    0.21100    0.20350    1.000
    O25      O        0.38180    0.95030    0.25280    1.000
    O26      O        0.46970    0.85090    0.23290    1.000
    Zn9      Zn       0.41162    0.29154    0.73228    1.000
    Zn10     Zn       0.27567    0.28741    0.59805    1.000
    Zn11     Zn       0.27852    0.43347    0.73845    1.000
    Zn12     Zn       0.27547    0.14732    0.73969    1.000
    C49      C        0.41080    0.44260    0.85680    1.000
    C50      C        0.40880    0.62360    0.09150    1.000
    C51      C        0.44840    0.47470    0.93380    1.000
    C52      C        0.41360    0.53720    0.97440    1.000
    H25      H        0.36820    0.56510    0.95230    1.000
    C53      C        0.44630    0.55840    0.04750    1.000
    C54      C        0.51450    0.51670    0.07910    1.000
    H26      H        0.53670    0.53020    0.12800    1.000
    C55      C        0.55000    0.45610    0.03990    1.000
    H27      H        0.59570    0.42930    0.06190    1.000
    C56      C        0.51590    0.43480    0.96530    1.000
    H28      H        0.53920    0.39410    0.93800    1.000
    C57      C        0.25800    0.56740    0.61030    1.000
    C58      C        0.25150    0.01540    0.61120    1.000
    C59      C        0.24290    0.68370    0.56970    1.000
    C60      C        0.25020    0.79150    0.60670    1.000
    H29      H        0.26340    0.79130    0.65680    1.000
    C61      C        0.23780    0.89990    0.56950    1.000
    C62      C        0.21720    0.90070    0.49510    1.000
    H30      H        0.20910    0.97300    0.47000    1.000
    C63      C        0.20880    0.79190    0.45780    1.000
    H31      H        0.19380    0.79170    0.40770    1.000
    C64      C        0.22260    0.68390    0.49540    1.000
    H32      H        0.21820    0.61190    0.47030    1.000
    C65      C        0.15180    0.31420    0.73980    1.000
    C66      C        0.93880    0.55490    0.74010    1.000
    C67      C        0.07520    0.32220    0.73270    1.000
    C68      C        0.04390    0.43320    0.73570    1.000
    H33      H        0.07000    0.50340    0.74020    1.000
    C69      C        0.97300    0.43810    0.73180    1.000
    C70      C        0.93520    0.33220    0.72480    1.000
    H34      H        0.88870    0.33450    0.72450    1.000
    C71      C        0.96570    0.22310    0.71810    1.000
    H35      H        0.93930    0.15290    0.71090    1.000
    C72      C        0.03480    0.21980    0.72220    1.000
    H36      H        0.05520    0.14650    0.71770    1.000
    O27      O        0.44330    0.38270    0.82400    1.000
    O28      O        0.34870    0.47800    0.83100    1.000
    O29      O        0.35780    0.68670    0.06080    1.000
    O30      O        0.43580    0.60940    0.15960    1.000
    O31      O        0.25660    0.47320    0.57720    1.000
    O32      O        0.27010    0.57500    0.67870    1.000
    O33      O        0.27610    0.10120    0.58530    1.000
    O34      O        0.23870    0.01690    0.67100    1.000
    O35      O        0.18560    0.41150    0.74860    1.000
    O36      O        0.17710    0.21250    0.73750    1.000
    O37      O        0.30940    0.28900    0.70350    1.000
    O38      O        0.88180    0.54970    0.75280    1.000
    O39      O        0.96970    0.64910    0.73290    1.000
    Zn13     Zn       0.91162    0.79154    0.73228    1.000
    Zn14     Zn       0.77567    0.78741    0.59805    1.000
    Zn15     Zn       0.77852    0.93347    0.73845    1.000
    Zn16     Zn       0.77547    0.64732    0.73969    1.000
    C73      C        0.91080    0.94260    0.85680    1.000
    C74      C        0.90880    0.12360    0.09150    1.000
    C75      C        0.94840    0.97470    0.93380    1.000
    C76      C        0.91360    0.03720    0.97440    1.000
    H37      H        0.86820    0.06510    0.95230    1.000
    C77      C        0.94630    0.05840    0.04750    1.000
    C78      C        0.01450    0.01670    0.07910    1.000
    H38      H        0.03670    0.03020    0.12800    1.000
    C79      C        0.05000    0.95610    0.03990    1.000
    H39      H        0.09570    0.92930    0.06190    1.000
    C80      C        0.01590    0.93480    0.96530    1.000
    H40      H        0.03920    0.89410    0.93800    1.000
    C81      C        0.75800    0.06740    0.61030    1.000
    C82      C        0.75150    0.51540    0.61120    1.000
    C83      C        0.74290    0.18370    0.56970    1.000
    C84      C        0.75020    0.29150    0.60670    1.000
    H41      H        0.76340    0.29130    0.65680    1.000
    C85      C        0.73780    0.39990    0.56950    1.000
    C86      C        0.71720    0.40070    0.49510    1.000
    H42      H        0.70910    0.47300    0.47000    1.000
    C87      C        0.70880    0.29190    0.45780    1.000
    H43      H        0.69380    0.29170    0.40770    1.000
    C88      C        0.72260    0.18390    0.49540    1.000
    H44      H        0.71820    0.11190    0.47030    1.000
    C89      C        0.65180    0.81420    0.73980    1.000
    C90      C        0.43880    0.05490    0.74010    1.000
    C91      C        0.57520    0.82220    0.73270    1.000
    C92      C        0.54390    0.93320    0.73570    1.000
    H45      H        0.57000    0.00340    0.74020    1.000
    C93      C        0.47300    0.93810    0.73180    1.000
    C94      C        0.43520    0.83220    0.72480    1.000
    H46      H        0.38870    0.83450    0.72450    1.000
    C95      C        0.46570    0.72310    0.71810    1.000
    H47      H        0.43930    0.65290    0.71090    1.000
    C96      C        0.53480    0.71980    0.72220    1.000
    H48      H        0.55520    0.64650    0.71770    1.000
    O40      O        0.94330    0.88270    0.82400    1.000
    O41      O        0.84870    0.97800    0.83100    1.000
    O42      O        0.85780    0.18670    0.06080    1.000
    O43      O        0.93580    0.10940    0.15960    1.000
    O44      O        0.75660    0.97320    0.57720    1.000
    O45      O        0.77010    0.07500    0.67870    1.000
    O46      O        0.77610    0.60120    0.58530    1.000
    O47      O        0.73870    0.51690    0.67100    1.000
    O48      O        0.68560    0.91150    0.74860    1.000
    O49      O        0.67710    0.71250    0.73750    1.000
    O50      O        0.80940    0.78900    0.70350    1.000
    O51      O        0.38180    0.04970    0.75280    1.000
    O52      O        0.46970    0.14910    0.73290    1.000
