data_functionalizedCrystal
_audit_creation_method	'EQeq! by Chris Wilmer'
_symmetry_space_group_name_H-M	'P1'
_symmetry_Int_Tables_number	1
_symmetry_cell_setting	triclinic
loop_
_symmetry_equiv_pos_as_xyz
  x,y,z
_cell_length_a	17.4017
_cell_length_b	17.4017
_cell_length_c	27.015
_cell_angle_alpha	92.7626
_cell_angle_beta	92.7626
_cell_angle_gamma	111.757
loop_
_atom_site_label
_atom_site_type_symbol
_atom_site_fract_x
_atom_site_fract_y
_atom_site_fract_z
_atom_site_charge
Mof_In	In	0.37237	0.85491	0.88364	2.47
Mof_In	In	0.85491	0.37237	0.38364	2.47
Mof_H 	H 	0.2069	0.7705	0.0238	0.032
Mof_H 	H 	0.0869	0.6957	0.0609	0.056
Mof_H 	H 	0.9688	0.6098	0.9245	0.058
Mof_H 	H 	0.0866	0.6892	0.8885	0.044
Mof_H 	H 	0.7949	0.3383	0.2105	0.042
Mof_H 	H 	0.7894	0.3732	0.1308	0.077
Mof_H 	H 	0.9769	0.5899	0.1673	0.063
Mof_H 	H 	0.9767	0.5591	0.2489	0.029
Mof_H 	H 	0.3942	0.1408	0.8683	0.043
Mof_H 	H 	0.461	0.2818	0.8848	0.058
Mof_H 	H 	0.5919	0.2403	0.9991	0.06
Mof_H 	H 	0.5302	0.1014	0.9815	0.044
Mof_H 	H 	0.5747	0.7621	0.9561	0.032
Mof_H 	H 	0.6288	0.666	0.9792	0.064
Mof_H 	H 	0.4608	0.4938	0.8904	0.062
Mof_H 	H 	0.3993	0.5867	0.8686	0.035
Mof_H 	H 	0.7536	0.4466	0.0732	0.079
Mof_H 	H 	0.8599	0.5813	0.9612	0.072
Mof_H 	H 	0.9983	0.5771	0.0833	0.07
Mof_H 	H 	0.7065	0.5931	0.9732	0.069
Mof_H 	H 	0.6872	0.36	0.9866	0.075
Mof_H 	H 	0.4969	0.4059	0.9246	0.068
Mof_H 	H 	0.7705	0.2069	0.5238	0.032
Mof_H 	H 	0.6957	0.0869	0.5609	0.057
Mof_H 	H 	0.6098	0.9688	0.4245	0.06
Mof_H 	H 	0.6892	0.0866	0.3885	0.045
Mof_H 	H 	0.3383	0.7949	0.7105	0.042
Mof_H 	H 	0.3732	0.7894	0.6308	0.077
Mof_H 	H 	0.5899	0.9769	0.6673	0.063
Mof_H 	H 	0.5591	0.9767	0.7489	0.029
Mof_H 	H 	0.1408	0.3942	0.3683	0.043
Mof_H 	H 	0.2818	0.461	0.3848	0.058
Mof_H 	H 	0.2403	0.5919	0.4991	0.06
Mof_H 	H 	0.1014	0.5302	0.4815	0.044
Mof_H 	H 	0.7621	0.5747	0.4561	0.032
Mof_H 	H 	0.666	0.6288	0.4792	0.064
Mof_H 	H 	0.4938	0.4608	0.3904	0.062
Mof_H 	H 	0.5867	0.3993	0.3686	0.035
Mof_H 	H 	0.4466	0.7536	0.5732	0.079
Mof_H 	H 	0.5813	0.8599	0.4612	0.072
Mof_H 	H 	0.5771	0.9983	0.5833	0.07
Mof_H 	H 	0.5931	0.7065	0.4732	0.07
Mof_H 	H 	0.36	0.6872	0.4866	0.075
Mof_H 	H 	0.4059	0.4969	0.4246	0.068
Mof_C 	C 	0.16022	0.73878	0.95255	-0.074
Mof_C 	C 	0.1591	0.7389	0.0041	0.01
Mof_C 	C 	0.0883	0.6929	0.0265	-0.091
Mof_C 	C 	0.0167	0.6415	0.9441	-0.086
Mof_C 	C 	0.0867	0.6891	0.9229	0.01
Mof_C 	C 	0.0182	0.6414	0.99606	0.027
Mof_C 	C 	0.8849	0.4437	0.2387	-0.105
Mof_C 	C 	0.8306	0.39	0.20213	0.043
Mof_C 	C 	0.8279	0.4103	0.15426	-0.101
Mof_C 	C 	0.8823	0.4867	0.13986	0.035
Mof_C 	C 	0.9387	0.5399	0.1763	-0.102
Mof_C 	C 	0.9399	0.5211	0.2251	0.029
Mof_C 	C 	0.45449	0.10651	0.9239	-0.068
Mof_C 	C 	0.4347	0.1613	0.8945	0.001
Mof_C 	C 	0.4749	0.2455	0.9041	-0.086
Mof_C 	C 	0.53658	0.27602	0.9428	0.02
Mof_C 	C 	0.55328	0.22012	0.97195	-0.08
Mof_C 	C 	0.51541	0.13739	0.96236	0.004
Mof_C 	C 	0.48131	0.68389	0.9095	-0.095
Mof_C 	C 	0.55603	0.57037	0.93317	0.037
Mof_C 	C 	0.5509	0.7077	0.9425	0.029
Mof_C 	C 	0.5849	0.6503	0.9551	-0.101
Mof_C 	C 	0.4855	0.5487	0.9032	-0.096
Mof_C 	C 	0.447	0.6042	0.89	0.024
Mof_C 	C 	0.876	0.51	0.08748	0.053
Mof_C 	C 	0.8005	0.4829	0.0599	-0.119
Mof_C 	C 	0.79344	0.50956	0.01203	0.049
Mof_C 	C 	0.8642	0.5624	0.9924	-0.123
Mof_C 	C 	0.94006	0.58754	0.01773	0.056
Mof_C 	C 	0.94666	0.56074	0.06598	-0.118
Mof_C 	C 	0.59436	0.51064	0.94667	0.046
Mof_C 	C 	0.67477	0.53663	0.96908	-0.114
Mof_C 	C 	0.70833	0.48107	0.98527	0.047
Mof_C 	C 	0.6636	0.3972	0.97653	-0.118
Mof_C 	C 	0.58438	0.36662	0.95317	0.053
Mof_C 	C 	0.55069	0.42511	0.9393	-0.112
Mof_C 	C 	0.23785	0.78635	0.92892	0.314
Mof_C 	C 	0.8817	0.4259	0.2924	0.369
Mof_C 	C 	0.4162	0.0132	0.9095	0.301
Mof_C 	C 	0.43973	0.74287	0.89858	0.338
Mof_C 	C 	0.73878	0.16022	0.45255	-0.077
Mof_C 	C 	0.7389	0.1591	0.5041	0.012
Mof_C 	C 	0.6929	0.0883	0.5265	-0.09
Mof_C 	C 	0.6415	0.0167	0.4441	-0.087
Mof_C 	C 	0.6891	0.0867	0.4229	0.011
Mof_C 	C 	0.6414	0.0182	0.49606	0.026
Mof_C 	C 	0.4437	0.8849	0.7387	-0.105
Mof_C 	C 	0.39	0.8306	0.70213	0.043
Mof_C 	C 	0.4103	0.8279	0.65426	-0.101
Mof_C 	C 	0.4867	0.8823	0.63986	0.035
Mof_C 	C 	0.5399	0.9387	0.6763	-0.102
Mof_C 	C 	0.5211	0.9399	0.7251	0.029
Mof_C 	C 	0.10651	0.45449	0.4239	-0.07
Mof_C 	C 	0.1613	0.4347	0.3945	0.002
Mof_C 	C 	0.2455	0.4749	0.4041	-0.086
Mof_C 	C 	0.27602	0.53658	0.4428	0.02
Mof_C 	C 	0.22012	0.55328	0.47195	-0.08
Mof_C 	C 	0.13739	0.51541	0.46236	0.005
Mof_C 	C 	0.68389	0.48131	0.4095	-0.096
Mof_C 	C 	0.57037	0.55603	0.43317	0.037
Mof_C 	C 	0.7077	0.5509	0.4425	0.029
Mof_C 	C 	0.6503	0.5849	0.4551	-0.101
Mof_C 	C 	0.5487	0.4855	0.4032	-0.096
Mof_C 	C 	0.6042	0.447	0.39	0.024
Mof_C 	C 	0.51	0.876	0.58748	0.053
Mof_C 	C 	0.4829	0.8005	0.5599	-0.118
Mof_C 	C 	0.50956	0.79344	0.51203	0.047
Mof_C 	C 	0.5624	0.8642	0.4924	-0.121
Mof_C 	C 	0.58754	0.94006	0.51773	0.055
Mof_C 	C 	0.56074	0.94666	0.56598	-0.118
Mof_C 	C 	0.51064	0.59436	0.44667	0.046
Mof_C 	C 	0.53663	0.67477	0.46908	-0.114
Mof_C 	C 	0.48107	0.70833	0.48527	0.048
Mof_C 	C 	0.3972	0.6636	0.47653	-0.118
Mof_C 	C 	0.36662	0.58438	0.45317	0.053
Mof_C 	C 	0.42511	0.55069	0.4393	-0.112
Mof_C 	C 	0.78635	0.23785	0.42892	0.314
Mof_C 	C 	0.4259	0.8817	0.7924	0.369
Mof_C 	C 	0.0132	0.4162	0.4095	0.304
Mof_C 	C 	0.74287	0.43973	0.39858	0.338
Mof_O 	O 	0.23517	0.79649	0.88344	-0.523
Mof_O 	O 	0.30632	0.81608	0.95527	-0.5
Mof_O 	O 	0.83568	0.35512	0.30296	-0.56
Mof_O 	O 	0.9248	0.4776	0.32496	-0.451
Mof_O 	O 	0.35465	0.98361	0.87879	-0.458
Mof_O 	O 	0.44854	0.96784	0.93045	-0.527
Mof_O 	O 	0.4794	0.81924	0.90903	-0.52
Mof_O 	O 	0.36697	0.71823	0.87988	-0.488
Mof_O 	O 	0.79649	0.23517	0.38344	-0.523
Mof_O 	O 	0.81608	0.30632	0.45527	-0.501
Mof_O 	O 	0.35512	0.83568	0.80296	-0.56
Mof_O 	O 	0.4776	0.9248	0.82496	-0.451
Mof_O 	O 	0.98361	0.35465	0.37879	-0.46
Mof_O 	O 	0.96784	0.44854	0.43045	-0.529
Mof_O 	O 	0.81924	0.4794	0.40903	-0.52
Mof_O 	O 	0.71823	0.36697	0.37988	-0.488
Mof_In	In	0.14509	0.62763	0.61636	2.471
Mof_In	In	0.62763	0.14509	0.11636	2.471
Mof_H 	H 	0.2295	0.7931	0.4762	0.032
Mof_H 	H 	0.3043	0.9131	0.4391	0.057
Mof_H 	H 	0.3902	0.0312	0.5755	0.06
Mof_H 	H 	0.3108	0.9134	0.6115	0.045
Mof_H 	H 	0.6617	0.2051	0.2895	0.042
Mof_H 	H 	0.6268	0.2106	0.3692	0.077
Mof_H 	H 	0.4101	0.0231	0.3327	0.063
Mof_H 	H 	0.4409	0.0233	0.2511	0.029
Mof_H 	H 	0.8592	0.6058	0.6317	0.043
Mof_H 	H 	0.7182	0.539	0.6152	0.058
Mof_H 	H 	0.7597	0.4081	0.5009	0.06
Mof_H 	H 	0.8986	0.4698	0.5185	0.044
Mof_H 	H 	0.2379	0.4253	0.5439	0.032
Mof_H 	H 	0.334	0.3712	0.5208	0.064
Mof_H 	H 	0.5062	0.5392	0.6096	0.062
Mof_H 	H 	0.4133	0.6007	0.6314	0.035
Mof_H 	H 	0.5534	0.2464	0.4268	0.079
Mof_H 	H 	0.4187	0.1401	0.5388	0.072
Mof_H 	H 	0.4229	0.0017	0.4167	0.07
Mof_H 	H 	0.4069	0.2935	0.5268	0.07
Mof_H 	H 	0.64	0.3128	0.5134	0.075
Mof_H 	H 	0.5941	0.5031	0.5754	0.068
Mof_H 	H 	0.7931	0.2295	0.9762	0.033
Mof_H 	H 	0.9131	0.3043	0.9391	0.057
Mof_H 	H 	0.0312	0.3902	0.0755	0.059
Mof_H 	H 	0.9134	0.3108	0.1115	0.045
Mof_H 	H 	0.2051	0.6617	0.7895	0.042
Mof_H 	H 	0.2106	0.6268	0.8692	0.077
Mof_H 	H 	0.0231	0.4101	0.8327	0.063
Mof_H 	H 	0.0233	0.4409	0.7511	0.029
Mof_H 	H 	0.6058	0.8592	0.1317	0.043
Mof_H 	H 	0.539	0.7182	0.1152	0.058
Mof_H 	H 	0.4081	0.7597	0.0009	0.06
Mof_H 	H 	0.4698	0.8986	0.0185	0.044
Mof_H 	H 	0.4253	0.2379	0.0439	0.032
Mof_H 	H 	0.3712	0.334	0.0208	0.064
Mof_H 	H 	0.5392	0.5062	0.1096	0.062
Mof_H 	H 	0.6007	0.4133	0.1314	0.035
Mof_H 	H 	0.2464	0.5534	0.9268	0.079
Mof_H 	H 	0.1401	0.4187	0.0388	0.072
Mof_H 	H 	0.0017	0.4229	0.9167	0.07
Mof_H 	H 	0.2935	0.4069	0.0268	0.069
Mof_H 	H 	0.3128	0.64	0.0134	0.075
Mof_H 	H 	0.5031	0.5941	0.0754	0.068
Mof_C 	C 	0.26122	0.83978	0.54745	-0.077
Mof_C 	C 	0.2611	0.8409	0.4959	0.012
Mof_C 	C 	0.3071	0.9117	0.4735	-0.09
Mof_C 	C 	0.3585	0.9833	0.5559	-0.087
Mof_C 	C 	0.3109	0.9133	0.5771	0.011
Mof_C 	C 	0.3586	0.9818	0.50394	0.026
Mof_C 	C 	0.5563	0.1151	0.2613	-0.105
Mof_C 	C 	0.61	0.1694	0.29787	0.043
Mof_C 	C 	0.5897	0.1721	0.34574	-0.101
Mof_C 	C 	0.5133	0.1177	0.36014	0.035
Mof_C 	C 	0.4601	0.0613	0.3237	-0.102
Mof_C 	C 	0.4789	0.0601	0.2749	0.029
Mof_C 	C 	0.89349	0.54551	0.5761	-0.07
Mof_C 	C 	0.8387	0.5653	0.6055	0.002
Mof_C 	C 	0.7545	0.5251	0.5959	-0.086
Mof_C 	C 	0.72398	0.46342	0.5572	0.02
Mof_C 	C 	0.77988	0.44672	0.52805	-0.08
Mof_C 	C 	0.86261	0.48459	0.53764	0.005
Mof_C 	C 	0.31611	0.51869	0.5905	-0.096
Mof_C 	C 	0.42963	0.44397	0.56683	0.037
Mof_C 	C 	0.2923	0.4491	0.5575	0.029
Mof_C 	C 	0.3497	0.4151	0.5449	-0.101
Mof_C 	C 	0.4513	0.5145	0.5968	-0.096
Mof_C 	C 	0.3958	0.553	0.61	0.024
Mof_C 	C 	0.49	0.124	0.41252	0.053
Mof_C 	C 	0.5171	0.1995	0.4401	-0.118
Mof_C 	C 	0.49044	0.20656	0.48797	0.047
Mof_C 	C 	0.4376	0.1358	0.5076	-0.121
Mof_C 	C 	0.41246	0.05994	0.48227	0.055
Mof_C 	C 	0.43926	0.05334	0.43402	-0.118
Mof_C 	C 	0.48936	0.40564	0.55333	0.046
Mof_C 	C 	0.46337	0.32523	0.53092	-0.114
Mof_C 	C 	0.51893	0.29167	0.51473	0.048
Mof_C 	C 	0.6028	0.3364	0.52347	-0.118
Mof_C 	C 	0.63338	0.41562	0.54683	0.053
Mof_C 	C 	0.57489	0.44931	0.5607	-0.112
Mof_C 	C 	0.21365	0.76215	0.57108	0.314
Mof_C 	C 	0.5741	0.1183	0.2076	0.369
Mof_C 	C 	0.9868	0.5838	0.5905	0.304
Mof_C 	C 	0.25713	0.56027	0.60142	0.338
Mof_C 	C 	0.83978	0.26122	0.04745	-0.074
Mof_C 	C 	0.8409	0.2611	0.9959	0.01
Mof_C 	C 	0.9117	0.3071	0.9735	-0.091
Mof_C 	C 	0.9833	0.3585	0.0559	-0.086
Mof_C 	C 	0.9133	0.3109	0.0771	0.01
Mof_C 	C 	0.9818	0.3586	0.00394	0.027
Mof_C 	C 	0.1151	0.5563	0.7613	-0.105
Mof_C 	C 	0.1694	0.61	0.79787	0.043
Mof_C 	C 	0.1721	0.5897	0.84574	-0.101
Mof_C 	C 	0.1177	0.5133	0.86014	0.035
Mof_C 	C 	0.0613	0.4601	0.8237	-0.102
Mof_C 	C 	0.0601	0.4789	0.7749	0.029
Mof_C 	C 	0.54551	0.89349	0.0761	-0.068
Mof_C 	C 	0.5653	0.8387	0.1055	0.001
Mof_C 	C 	0.5251	0.7545	0.0959	-0.086
Mof_C 	C 	0.46342	0.72398	0.0572	0.02
Mof_C 	C 	0.44672	0.77988	0.02805	-0.08
Mof_C 	C 	0.48459	0.86261	0.03764	0.004
Mof_C 	C 	0.51869	0.31611	0.0905	-0.095
Mof_C 	C 	0.44397	0.42963	0.06683	0.037
Mof_C 	C 	0.4491	0.2923	0.0575	0.029
Mof_C 	C 	0.4151	0.3497	0.0449	-0.101
Mof_C 	C 	0.5145	0.4513	0.0968	-0.096
Mof_C 	C 	0.553	0.3958	0.11	0.024
Mof_C 	C 	0.124	0.49	0.91252	0.053
Mof_C 	C 	0.1995	0.5171	0.9401	-0.119
Mof_C 	C 	0.20656	0.49044	0.98797	0.049
Mof_C 	C 	0.1358	0.4376	0.0076	-0.123
Mof_C 	C 	0.05994	0.41246	0.98227	0.056
Mof_C 	C 	0.05334	0.43926	0.93402	-0.118
Mof_C 	C 	0.40564	0.48936	0.05333	0.046
Mof_C 	C 	0.32523	0.46337	0.03092	-0.114
Mof_C 	C 	0.29167	0.51893	0.01473	0.047
Mof_C 	C 	0.3364	0.6028	0.02347	-0.118
Mof_C 	C 	0.41562	0.63338	0.04683	0.053
Mof_C 	C 	0.44931	0.57489	0.0607	-0.112
Mof_C 	C 	0.76215	0.21365	0.07108	0.314
Mof_C 	C 	0.1183	0.5741	0.7076	0.369
Mof_C 	C 	0.5838	0.9868	0.0905	0.301
Mof_C 	C 	0.56027	0.25713	0.10142	0.338
Mof_O 	O 	0.20351	0.76483	0.61656	-0.523
Mof_O 	O 	0.18392	0.69368	0.54473	-0.501
Mof_O 	O 	0.64488	0.16432	0.19704	-0.56
Mof_O 	O 	0.5224	0.0752	0.17504	-0.451
Mof_O 	O 	0.01639	0.64535	0.62121	-0.46
Mof_O 	O 	0.03216	0.55146	0.56955	-0.529
Mof_O 	O 	0.18076	0.5206	0.59097	-0.52
Mof_O 	O 	0.28177	0.63303	0.62012	-0.488
Mof_O 	O 	0.76483	0.20351	0.11656	-0.523
Mof_O 	O 	0.69368	0.18392	0.04473	-0.5
Mof_O 	O 	0.16432	0.64488	0.69704	-0.56
Mof_O 	O 	0.0752	0.5224	0.67504	-0.451
Mof_O 	O 	0.64535	0.01639	0.12121	-0.458
Mof_O 	O 	0.55146	0.03216	0.06955	-0.527
Mof_O 	O 	0.5206	0.18076	0.09097	-0.52
Mof_O 	O 	0.63303	0.28177	0.12012	-0.488
Mof_H 	H 	0.6509	0.9637	0.886	0.107
Mof_H 	H 	0.5718	0.9648	0.9012	0.123
Mof_H 	H 	0.6359	0.9401	0.9717	0.134
Mof_H 	H 	0.7169	0.0157	0.9631	0.124
Mof_H 	H 	0.6382	0.0308	0.9795	0.138
Mof_H 	H 	0.6288	0.081	0.8572	0.136
Mof_H 	H 	0.6314	0.1116	0.913	0.141
Mof_H 	H 	0.7114	0.107	0.891	0.129
Mof_C 	C 	0.6574	0.9948	0.96	-0.317
Mof_C 	C 	0.652	0.0812	0.8902	-0.338
Mof_N 	N 	0.6273	0.9913	0.9052	-0.16
Mof_H 	H 	0.0363	0.3491	0.614	0.106
Mof_H 	H 	0.0352	0.4282	0.5988	0.122
Mof_H 	H 	0.0599	0.3641	0.5283	0.137
Mof_H 	H 	0.9843	0.2831	0.5369	0.129
Mof_H 	H 	0.9692	0.3618	0.5205	0.143
Mof_H 	H 	0.919	0.3712	0.6428	0.136
Mof_H 	H 	0.8884	0.3686	0.587	0.141
Mof_H 	H 	0.893	0.2886	0.609	0.129
Mof_C 	C 	0.0052	0.3426	0.54	-0.33
Mof_C 	C 	0.9188	0.348	0.6098	-0.338
Mof_N 	N 	0.0087	0.3727	0.5948	-0.159
Mof_H 	H 	0.3491	0.0363	0.114	0.107
Mof_H 	H 	0.4282	0.0352	0.0988	0.123
Mof_H 	H 	0.3641	0.0599	0.0283	0.134
Mof_H 	H 	0.2831	0.9843	0.0369	0.124
Mof_H 	H 	0.3618	0.9692	0.0205	0.138
Mof_H 	H 	0.3712	0.919	0.1428	0.136
Mof_H 	H 	0.3686	0.8884	0.087	0.141
Mof_H 	H 	0.2886	0.893	0.109	0.129
Mof_C 	C 	0.3426	0.0052	0.04	-0.317
Mof_C 	C 	0.348	0.9188	0.1098	-0.338
Mof_N 	N 	0.3727	0.0087	0.0948	-0.16
Mof_H 	H 	0.9637	0.6509	0.386	0.106
Mof_H 	H 	0.9648	0.5718	0.4012	0.122
Mof_H 	H 	0.9401	0.6359	0.4717	0.137
Mof_H 	H 	0.0157	0.7169	0.4631	0.129
Mof_H 	H 	0.0308	0.6382	0.4795	0.143
Mof_H 	H 	0.081	0.6288	0.3572	0.136
Mof_H 	H 	0.1116	0.6314	0.413	0.141
Mof_H 	H 	0.107	0.7114	0.391	0.129
Mof_C 	C 	0.9948	0.6574	0.46	-0.33
Mof_C 	C 	0.0812	0.652	0.3902	-0.338
Mof_N 	N 	0.9913	0.6273	0.4052	-0.159
_end
