data_functionalizedCrystal
_audit_creation_method	'EQeq! by Chris Wilmer'
_symmetry_space_group_name_H-M	'P1'
_symmetry_Int_Tables_number	1
_symmetry_cell_setting	triclinic
loop_
_symmetry_equiv_pos_as_xyz
  x,y,z
_cell_length_a	27.033
_cell_length_b	27.033
_cell_length_c	44.096
_cell_angle_alpha	90
_cell_angle_beta	90
_cell_angle_gamma	90
loop_
_atom_site_label
_atom_site_type_symbol
_atom_site_fract_x
_atom_site_fract_y
_atom_site_fract_z
_atom_site_charge
Mof_Zn	Zn	0.22409	0.02904	0.8651	1.183
Mof_Zn	Zn	0.76615	0.09058	0.66819	1.184
Mof_Zn	Zn	0.73385	0.59058	0.16819	1.184
Mof_Zn	Zn	0.44512	0.74425	0.07481	1.182
Mof_Zn	Zn	0.98788	0.24761	0.37784	1.191
Mof_Zn	Zn	0.75575	0.05488	0.42519	1.182
Mof_Zn	Zn	0.09058	0.23385	0.33181	1.184
Mof_Zn	Zn	0.97201	0.73437	0.93319	1.195
Mof_Zn	Zn	0.24425	0.94512	0.42519	1.182
Mof_Zn	Zn	0.47201	0.76563	0.43319	1.195
Mof_Zn	Zn	0.23385	0.90942	0.66819	1.184
Mof_Zn	Zn	0.01212	0.75239	0.37784	1.19
Mof_Zn	Zn	0.53583	0.77822	0.36682	1.179
Mof_Zn	Zn	0.28044	0.42178	0.32324	1.179
Mof_Zn	Zn	0.02799	0.26563	0.93319	1.194
Mof_Zn	Zn	0.42178	0.71956	0.67676	1.179
Mof_Zn	Zn	0.75239	0.98788	0.62216	1.191
Mof_Zn	Zn	0.94512	0.75575	0.57481	1.182
Mof_Zn	Zn	0.21956	0.92178	0.82324	1.178
Mof_Zn	Zn	0.96417	0.27822	0.86682	1.178
Mof_Zn	Zn	0.52799	0.23437	0.43319	1.194
Mof_Zn	Zn	0.03583	0.72178	0.86682	1.178
Mof_Zn	Zn	0.90942	0.76615	0.33181	1.183
Mof_Zn	Zn	0.24761	0.01212	0.62216	1.189
Mof_Zn	Zn	0.78044	0.07822	0.82324	1.178
Mof_Zn	Zn	0.07822	0.21956	0.17676	1.178
Mof_Zn	Zn	0.52904	0.72409	0.6349	1.182
Mof_Zn	Zn	0.74425	0.55488	0.92519	1.181
Mof_Zn	Zn	0.22178	0.53583	0.63318	1.178
Mof_Zn	Zn	0.92178	0.78044	0.17676	1.178
Mof_Zn	Zn	0.72409	0.47096	0.3651	1.182
Mof_Zn	Zn	0.40942	0.73385	0.83181	1.183
Mof_Zn	Zn	0.76563	0.52799	0.56681	1.194
Mof_Zn	Zn	0.26274	0.00898	0.36117	1.181
Mof_Zn	Zn	0.00898	0.73726	0.63883	1.181
Mof_Zn	Zn	0.59058	0.26615	0.83181	1.183
Mof_Zn	Zn	0.99102	0.26274	0.63883	1.181
Mof_Zn	Zn	0.57822	0.28044	0.67676	1.178
Mof_Zn	Zn	0.26615	0.40942	0.16819	1.183
Mof_Zn	Zn	0.23437	0.47201	0.56681	1.194
Mof_Zn	Zn	0.77822	0.46417	0.63318	1.178
Mof_Zn	Zn	0.55488	0.25575	0.07481	1.181
Mof_Zn	Zn	0.46417	0.22178	0.36682	1.178
Mof_Zn	Zn	0.47096	0.27591	0.6349	1.182
Mof_Zn	Zn	0.51212	0.74761	0.87784	1.19
Mof_Zn	Zn	0.25239	0.51212	0.12216	1.19
Mof_Zn	Zn	0.73726	0.99102	0.36117	1.181
Mof_Zn	Zn	0.02904	0.77591	0.1349	1.182
Mof_Zn	Zn	0.27822	0.03583	0.13318	1.178
Mof_Zn	Zn	0.71956	0.57822	0.32324	1.178
Mof_Zn	Zn	0.49102	0.23726	0.13883	1.181
Mof_Zn	Zn	0.97096	0.22409	0.1349	1.182
Mof_Zn	Zn	0.73437	0.02799	0.06681	1.194
Mof_Zn	Zn	0.72178	0.96417	0.13318	1.178
Mof_Zn	Zn	0.76274	0.49102	0.86117	1.181
Mof_Zn	Zn	0.74761	0.48788	0.12216	1.19
Mof_Zn	Zn	0.50898	0.76274	0.13883	1.181
Mof_Zn	Zn	0.27591	0.52904	0.3651	1.182
Mof_Zn	Zn	0.48788	0.25239	0.87784	1.19
Mof_Zn	Zn	0.77591	0.97096	0.8651	1.182
Mof_Zn	Zn	0.25575	0.44512	0.92519	1.181
Mof_Zn	Zn	0.23726	0.50898	0.86117	1.181
Mof_Zn	Zn	0.05488	0.24425	0.57481	1.181
Mof_Zn	Zn	0.26563	0.97201	0.06681	1.194
Mof_H 	H 	0.6142	0.5123	0.4184	0.047
Mof_H 	H 	0.2727	0.8277	0.2654	0.019
Mof_H 	H 	0.9877	0.8858	0.0816	0.047
Mof_H 	H 	0.4928	0.0541	0.9368	0.046
Mof_H 	H 	0.2506	0.2925	0.7895	0.017
Mof_H 	H 	0.4796	0.424	0.0089	0.015
Mof_H 	H 	0.9447	0.0152	0.4658	0.018
Mof_H 	H 	0.2752	0.6208	0.2843	0.077
Mof_H 	H 	0.142	0.1075	0.1227	-0.002
Mof_H 	H 	0.6227	0.8961	0.4002	0.002
Mof_H 	H 	0.6022	0.6405	0.1275	0.025
Mof_H 	H 	0.9459	0.4928	0.0632	0.046
Mof_H 	H 	0.8609	0.5061	0.4008	0.048
Mof_H 	H 	0.657	0.1444	0.1064	0.043
Mof_H 	H 	0.1444	0.343	0.8936	0.043
Mof_H 	H 	0.2271	0.3577	0.8183	0.079
Mof_H 	H 	0.2568	0.6152	0.198	0.075
Mof_H 	H 	0.7271	0.1423	0.3183	0.079
Mof_H 	H 	0.4953	0.8647	0.0361	0.04
Mof_H 	H 	0.1723	0.2727	0.7346	0.018
Mof_H 	H 	0.576	0.4796	0.9911	0.015
Mof_H 	H 	0.0061	0.3609	0.0992	0.048
Mof_H 	H 	0.9953	0.6353	0.5361	0.041
Mof_H 	H 	0.3787	0.4798	0.0743	0.067
Mof_H 	H 	0.3978	0.3595	0.1275	0.025
Mof_H 	H 	0.7998	0.2529	0.2226	0.004
Mof_H 	H 	0.5281	0.9304	0.5282	0.049
Mof_H 	H 	0.6333	0.1506	0.6444	-0.011
Mof_H 	H 	0.9784	0.1211	0.9474	0.048
Mof_H 	H 	0.4881	0.3851	0.0561	0.076
Mof_H 	H 	0.6137	0.032	0.589	0.056
Mof_H 	H 	0.0696	0.5281	0.4718	0.049
Mof_H 	H 	0.8595	0.8978	0.3725	0.025
Mof_H 	H 	0.2002	0.7471	0.2226	0.003
Mof_H 	H 	0.6081	0.2302	0.3201	0.071
Mof_H 	H 	0.0673	0.4681	0.0383	0.043
Mof_H 	H 	0.1227	0.6039	0.9002	0.002
Mof_H 	H 	0.7295	0.5085	0.2442	0.011
Mof_H 	H 	0.8667	0.6506	0.1444	-0.011
Mof_H 	H 	0.5202	0.3787	0.9257	0.067
Mof_H 	H 	0.7273	0.1723	0.2654	0.018
Mof_H 	H 	0.6152	0.7432	0.802	0.075
Mof_H 	H 	0.924	0.9796	0.4911	0.015
Mof_H 	H 	0.8848	0.2432	0.302	0.074
Mof_H 	H 	0.4447	0.4848	0.9658	0.019
Mof_H 	H 	0.5209	0.5771	0.4947	0.045
Mof_H 	H 	0.0562	0.4927	0.499	0.05
Mof_H 	H 	0.532	0.1137	0.911	0.056
Mof_H 	H 	0.3277	0.7727	0.2346	0.019
Mof_H 	H 	0.4927	0.9438	0.501	0.051
Mof_H 	H 	0.1022	0.8595	0.6275	0.025
Mof_H 	H 	0.1211	0.0216	0.0526	0.047
Mof_H 	H 	0.1423	0.2729	0.6817	0.079
Mof_H 	H 	0.2998	0.2471	0.7226	0.003
Mof_H 	H 	0.4438	0.9927	0.999	0.051
Mof_H 	H 	0.5085	0.2705	0.7558	0.011
Mof_H 	H 	0.6506	0.1333	0.8556	-0.011
Mof_H 	H 	0.076	0.0204	0.4911	0.015
Mof_H 	H 	0.4393	0.4822	0.5304	0.047
Mof_H 	H 	0.7972	0.1977	0.2336	-0.005
Mof_H 	H 	0.8577	0.7271	0.6817	0.079
Mof_H 	H 	0.4327	0.9681	0.5383	0.043
Mof_H 	H 	0.5047	0.1353	0.0361	0.04
Mof_H 	H 	0.9822	0.9393	0.9696	0.048
Mof_H 	H 	0.7075	0.2506	0.2105	0.017
Mof_H 	H 	0.1506	0.3667	0.3556	-0.011
Mof_H 	H 	0.6208	0.7248	0.7157	0.077
Mof_H 	H 	0.5553	0.5152	0.9658	0.019
Mof_H 	H 	0.9939	0.6391	0.0992	0.048
Mof_H 	H 	0.6062	0.974	0.0297	0.056
Mof_H 	H 	0.1039	0.6227	0.5998	0.003
Mof_H 	H 	0.8789	0.9784	0.0526	0.048
Mof_H 	H 	0.1152	0.7568	0.302	0.075
Mof_H 	H 	0.0178	0.0607	0.9696	0.046
Mof_H 	H 	0.642	0.3925	0.6227	-0.002
Mof_H 	H 	0.2494	0.7925	0.2895	0.017
Mof_H 	H 	0.2529	0.2002	0.7774	0.003
Mof_H 	H 	0.6211	0.4784	0.5526	0.048
Mof_H 	H 	0.4798	0.6213	0.9257	0.067
Mof_H 	H 	0.3925	0.358	0.3773	-0.002
Mof_H 	H 	0.1977	0.2028	0.7664	-0.005
Mof_H 	H 	0.1149	0.0119	0.4439	0.076
Mof_H 	H 	0.3792	0.2752	0.7157	0.077
Mof_H 	H 	0.7471	0.7998	0.7774	0.004
Mof_H 	H 	0.3647	0.9953	0.4639	0.041
Mof_H 	H 	0.7729	0.6423	0.8183	0.079
Mof_H 	H 	0.1405	0.1022	0.3725	0.025
Mof_H 	H 	0.8023	0.7972	0.7664	-0.005
Mof_H 	H 	0.7698	0.6081	0.6799	0.071
Mof_H 	H 	0.5073	0.0562	0.501	0.05
Mof_H 	H 	0.0607	0.9822	0.0304	0.048
Mof_H 	H 	0.3848	0.2568	0.802	0.075
Mof_H 	H 	0.8925	0.142	0.8773	-0.002
Mof_H 	H 	0.2075	0.2494	0.7105	0.017
Mof_H 	H 	0.358	0.6075	0.6227	-0.002
Mof_H 	H 	0.4877	0.6142	0.5816	0.047
Mof_H 	H 	0.7727	0.6723	0.7654	0.019
Mof_H 	H 	0.9229	0.9791	0.0053	0.044
Mof_H 	H 	0.5673	0.0319	0.5383	0.043
Mof_H 	H 	0.0541	0.5072	0.0632	0.046
Mof_H 	H 	0.6723	0.2273	0.2346	0.019
Mof_H 	H 	0.1208	0.7752	0.2157	0.077
Mof_H 	H 	0.9848	0.9447	0.5342	0.02
Mof_H 	H 	0.8647	0.5047	0.9639	0.04
Mof_H 	H 	0.9928	0.4459	0.4368	0.047
Mof_H 	H 	0.2273	0.3277	0.7654	0.018
Mof_H 	H 	0.4304	0.0281	0.9718	0.049
Mof_H 	H 	0.7506	0.2075	0.2895	0.017
Mof_H 	H 	0.0553	0.9848	0.4658	0.02
Mof_H 	H 	0.6075	0.642	0.3773	-0.002
Mof_H 	H 	0.2729	0.8577	0.3183	0.079
Mof_H 	H 	0.4719	0.0696	0.5282	0.049
Mof_H 	H 	0.2295	0.9915	0.7442	0.012
Mof_H 	H 	0.3938	0.026	0.0297	0.055
Mof_H 	H 	0.8858	0.0123	0.9184	0.047
Mof_H 	H 	0.1081	0.2698	0.8201	0.071
Mof_H 	H 	0.0319	0.4327	0.4617	0.043
Mof_H 	H 	0.8863	0.532	0.089	0.056
Mof_H 	H 	0.0281	0.5696	0.0282	0.049
Mof_H 	H 	0.6149	0.4881	0.9439	0.076
Mof_H 	H 	0.6039	0.8773	0.0998	0.002
Mof_H 	H 	0.3863	0.968	0.589	0.056
Mof_H 	H 	0.157	0.3556	0.6064	0.043
Mof_H 	H 	0.0771	0.0209	0.0053	0.045
Mof_H 	H 	0.7568	0.8848	0.698	0.074
Mof_H 	H 	0.9719	0.4304	0.0282	0.049
Mof_H 	H 	0.4681	0.9327	0.9617	0.043
Mof_H 	H 	0.858	0.8925	0.1227	-0.002
Mof_H 	H 	0.7432	0.3848	0.198	0.075
Mof_H 	H 	0.3667	0.8494	0.6444	-0.011
Mof_H 	H 	0.7529	0.2998	0.2774	0.004
Mof_H 	H 	0.468	0.8863	0.911	0.056
Mof_H 	H 	0.9438	0.5073	0.499	0.051
Mof_H 	H 	0.9791	0.0771	0.9947	0.044
Mof_H 	H 	0.968	0.6137	0.411	0.056
Mof_H 	H 	0.0204	0.924	0.5089	0.015
Mof_H 	H 	0.6353	0.0047	0.4639	0.039
Mof_H 	H 	0.8919	0.7302	0.8201	0.071
Mof_H 	H 	0.4791	0.4229	0.4947	0.045
Mof_H 	H 	0.7705	0.0085	0.7442	0.01
Mof_H 	H 	0.4229	0.5209	0.5053	0.045
Mof_H 	H 	0.0209	0.9229	0.9947	0.045
Mof_H 	H 	0.4822	0.5607	0.4696	0.047
Mof_H 	H 	0.974	0.3938	0.9703	0.056
Mof_H 	H 	0.9304	0.4719	0.4718	0.049
Mof_H 	H 	0.9393	0.0178	0.0304	0.046
Mof_H 	H 	0.3789	0.5216	0.5526	0.048
Mof_H 	H 	0.8938	0.474	0.5297	0.056
Mof_H 	H 	0.4915	0.7295	0.7558	0.011
Mof_H 	H 	0.9915	0.7705	0.2558	0.012
Mof_H 	H 	0.6391	0.0061	0.9008	0.048
Mof_H 	H 	0.9881	0.1149	0.5561	0.076
Mof_H 	H 	0.3851	0.5119	0.9439	0.076
Mof_H 	H 	0.6977	0.2972	0.2664	-0.005
Mof_H 	H 	0.0073	0.4438	0.001	0.05
Mof_H 	H 	0.0119	0.8851	0.5561	0.076
Mof_H 	H 	0.9796	0.076	0.5089	0.015
Mof_H 	H 	0.5696	0.9719	0.9718	0.049
Mof_H 	H 	0.2698	0.8919	0.1799	0.071
Mof_H 	H 	0.3494	0.8667	0.8556	-0.011
Mof_H 	H 	0.2972	0.3023	0.7336	-0.005
Mof_H 	H 	0.2471	0.7002	0.2774	0.004
Mof_H 	H 	0.1062	0.526	0.5297	0.056
Mof_H 	H 	0.343	0.8556	0.1064	0.043
Mof_H 	H 	0.0216	0.8789	0.9474	0.047
Mof_H 	H 	0.8494	0.6333	0.3556	-0.011
Mof_H 	H 	0.3919	0.7698	0.3201	0.071
Mof_H 	H 	0.0047	0.3647	0.5361	0.039
Mof_H 	H 	0.5319	0.0673	0.9617	0.043
Mof_H 	H 	0.3961	0.1227	0.0998	0.002
Mof_H 	H 	0.0085	0.2295	0.2558	0.01
Mof_H 	H 	0.0152	0.0553	0.5342	0.018
Mof_H 	H 	0.7248	0.3792	0.2843	0.077
Mof_H 	H 	0.1333	0.3494	0.1444	-0.011
Mof_H 	H 	0.5607	0.5178	0.5304	0.047
Mof_H 	H 	0.2925	0.7494	0.2105	0.017
Mof_H 	H 	0.8773	0.3961	0.9002	0.002
Mof_H 	H 	0.4848	0.5553	0.0342	0.019
Mof_H 	H 	0.6405	0.3978	0.8725	0.025
Mof_H 	H 	0.8556	0.657	0.8936	0.043
Mof_H 	H 	0.7494	0.7075	0.7895	0.018
Mof_H 	H 	0.1353	0.4953	0.9639	0.04
Mof_H 	H 	0.0202	0.1213	0.4257	0.067
Mof_H 	H 	0.1142	0.9877	0.9184	0.047
Mof_H 	H 	0.2302	0.3919	0.6799	0.071
Mof_H 	H 	0.3858	0.4877	0.4184	0.047
Mof_H 	H 	0.424	0.5204	0.9911	0.015
Mof_H 	H 	0.843	0.6444	0.6064	0.043
Mof_H 	H 	0.5204	0.576	0.0089	0.015
Mof_H 	H 	0.6213	0.5202	0.0743	0.067
Mof_H 	H 	0.8787	0.0202	0.5743	0.067
Mof_H 	H 	0.7002	0.7529	0.7226	0.004
Mof_H 	H 	0.7028	0.6977	0.7336	-0.005
Mof_H 	H 	0.7925	0.7506	0.7105	0.018
Mof_H 	H 	0.9927	0.5562	0.001	0.051
Mof_H 	H 	0.5123	0.3858	0.5816	0.047
Mof_H 	H 	0.5216	0.6211	0.4474	0.048
Mof_H 	H 	0.1137	0.468	0.089	0.056
Mof_H 	H 	0.5152	0.4447	0.0342	0.019
Mof_H 	H 	0.474	0.1062	0.4703	0.056
Mof_H 	H 	0.4939	0.8609	0.5992	0.048
Mof_H 	H 	0.3023	0.7028	0.2664	-0.005
Mof_H 	H 	0.0123	0.1142	0.0816	0.047
Mof_H 	H 	0.1391	0.4939	0.4008	0.048
Mof_H 	H 	0.6423	0.2271	0.1817	0.079
Mof_H 	H 	0.2705	0.4915	0.2442	0.011
Mof_H 	H 	0.2432	0.1152	0.698	0.075
Mof_H 	H 	0.5541	0.9928	0.5632	0.047
Mof_H 	H 	0.526	0.8938	0.4703	0.056
Mof_H 	H 	0.8978	0.1405	0.6275	0.025
Mof_H 	H 	0.032	0.3863	0.411	0.056
Mof_H 	H 	0.1075	0.858	0.8773	-0.002
Mof_H 	H 	0.3609	0.9939	0.9008	0.048
Mof_H 	H 	0.8961	0.3773	0.5998	0.002
Mof_H 	H 	0.3773	0.1039	0.4002	0.003
Mof_H 	H 	0.5072	0.9459	0.9368	0.046
Mof_H 	H 	0.4784	0.3789	0.4474	0.048
Mof_H 	H 	0.0072	0.5541	0.4368	0.046
Mof_H 	H 	0.4459	0.0072	0.5632	0.046
Mof_H 	H 	0.8277	0.7273	0.7346	0.019
Mof_H 	H 	0.026	0.6062	0.9703	0.055
Mof_H 	H 	0.3556	0.843	0.3936	0.043
Mof_H 	H 	0.7302	0.1081	0.1799	0.071
Mof_H 	H 	0.6444	0.157	0.3936	0.043
Mof_H 	H 	0.9798	0.8787	0.4257	0.067
Mof_H 	H 	0.5562	0.0073	0.999	0.05
Mof_H 	H 	0.1213	0.9798	0.5743	0.067
Mof_H 	H 	0.8851	0.9881	0.4439	0.076
Mof_H 	H 	0.5119	0.6149	0.0561	0.076
Mof_H 	H 	0.8792	0.2248	0.2157	0.077
Mof_H 	H 	0.9681	0.5673	0.4617	0.043
Mof_H 	H 	0.9327	0.5319	0.0383	0.043
Mof_H 	H 	0.5178	0.4393	0.4696	0.047
Mof_H 	H 	0.3577	0.7729	0.1817	0.079
Mof_H 	H 	0.5061	0.1391	0.5992	0.048
Mof_H 	H 	0.2248	0.1208	0.7843	0.077
Mof_H 	H 	0.7752	0.8792	0.7843	0.077
Mof_H 	H 	0.2028	0.8023	0.2336	-0.005
Mof_H 	H 	0.5771	0.4791	0.5053	0.045
Mof_H 	H 	0.3595	0.6022	0.8725	0.025
Mof_C 	C 	0.426	0.6686	0.8772	0.511
Mof_C 	C 	0.7095	0.0697	0.1234	0.44
Mof_C 	C 	0.5606	0.6406	0.4123	-0.158
Mof_C 	C 	0.0641	0.9358	0.5592	0.188
Mof_C 	C 	0.6885	0.1118	0.144	-0.075
Mof_C 	C 	0.6354	0.4471	0.9091	-0.067
Mof_C 	C 	0.4711	0.2755	0.6954	0.607
Mof_C 	C 	0.5465	0.6101	0.4345	-0.046
Mof_C 	C 	0.6498	0.0702	0.8763	-0.155
Mof_C 	C 	0.1025	0.9554	0.9173	-0.035
Mof_C 	C 	0.1215	0.097	0.107	0.089
Mof_C 	C 	0.5945	0.6223	0.1103	0.005
Mof_C 	C 	0.956	0.3378	0.9199	0.503
Mof_C 	C 	0.0506	0.3019	0.1357	0.43
Mof_C 	C 	0.2396	0.2604	0.75	-0.1
Mof_C 	C 	0.0901	0.3663	0.3802	-0.172
Mof_C 	C 	0.5825	0.3785	0.898	-0.108
Mof_C 	C 	0.9382	0.5813	0.091	0.103
Mof_C 	C 	0.6052	0.55	0.0777	-0.099
Mof_C 	C 	0.903	0.1215	0.893	0.089
Mof_C 	C 	0.4272	0.1137	0.431	-0.126
Mof_C 	C 	0.6186	0.5763	0.3948	-0.167
Mof_C 	C 	0.0909	0.6108	0.5817	0.086
Mof_C 	C 	0.0409	0.4803	0.0511	-0.011
Mof_C 	C 	0.4494	0.8019	0.6357	0.43
Mof_C 	C 	0.9175	0.8785	0.398	-0.108
Mof_C 	C 	0.147	0.3395	0.8727	-0.027
Mof_C 	C 	0.4624	0.8723	0.6039	-0.032
Mof_C 	C 	0.9455	0.2296	0.2298	-0.087
Mof_C 	C 	0.2318	0.2074	0.7602	0.136
Mof_C 	C 	0.7353	0.4513	0.215	-0.12
Mof_C 	C 	0.7054	0.1259	0.1702	-0.105
Mof_C 	C 	0.6622	0.956	0.0801	0.503
Mof_C 	C 	0.1032	0.4383	0.0975	-0.066
Mof_C 	C 	0.8785	0.0825	0.602	-0.108
Mof_C 	C 	0.6605	0.147	0.1273	-0.027
Mof_C 	C 	0.3973	0.2697	0.7333	-0.113
Mof_C 	C 	0.5487	0.7353	0.785	-0.12
Mof_C 	C 	0.1108	0.5909	0.9183	0.087
Mof_C 	C 	0.3777	0.5945	0.8897	0.005
Mof_C 	C 	0.2647	0.5185	0.1882	0.442
Mof_C 	C 	0.9535	0.1101	0.9345	-0.046
Mof_C 	C 	0.5618	0.0813	0.591	0.102
Mof_C 	C 	0.3167	0.5253	0.9005	0.431
Mof_C 	C 	0.9197	0.4495	0.971	0.097
Mof_C 	C 	0.3814	0.4237	0.3948	-0.167
Mof_C 	C 	0.5536	0.3431	0.6254	0.508
Mof_C 	C 	0.544	0.8378	0.4199	0.503
Mof_C 	C 	0.5107	0.5503	0.4814	-0.034
Mof_C 	C 	0.4298	0.8502	0.6237	-0.155
Mof_C 	C 	0.4519	0.1351	0.0699	-0.182
Mof_C 	C 	0.1605	0.353	0.6273	-0.027
Mof_C 	C 	0.6337	0.0901	0.6198	-0.172
Mof_C 	C 	0.1118	0.3115	0.856	-0.075
Mof_C 	C 	0.7054	0.2255	0.2262	0.08
Mof_C 	C 	0.199	0.3464	0.8282	-0.145
Mof_C 	C 	0.6223	0.4055	0.8897	0.005
Mof_C 	C 	0.9752	0.3237	0.5822	0.468
Mof_C 	C 	0.1569	0.9464	0.8746	0.508
Mof_C 	C 	0.8378	0.456	0.5801	0.503
Mof_C 	C 	0.8968	0.5617	0.0975	-0.066
Mof_C 	C 	0.0545	0.7704	0.2298	-0.086
Mof_C 	C 	0.926	0.8314	0.3772	0.511
Mof_C 	C 	0.5258	0.7312	0.7569	0.03
Mof_C 	C 	0.0487	0.7647	0.285	-0.119
Mof_C 	C 	0.6536	0.199	0.1718	-0.145
Mof_C 	C 	0.606	0.4604	0.9326	-0.129
Mof_C 	C 	0.9099	0.6337	0.3802	-0.172
Mof_C 	C 	0.5642	0.4359	0.9408	0.188
Mof_C 	C 	0.3464	0.801	0.1718	-0.145
Mof_C 	C 	0.9358	0.9359	0.4408	0.188
Mof_C 	C 	0.1027	0.7697	0.2333	-0.114
Mof_C 	C 	0.8314	0.074	0.6228	0.511
Mof_C 	C 	0.8115	0.6118	0.644	-0.074
Mof_C 	C 	0.3948	0.45	0.0777	-0.099
Mof_C 	C 	0.3863	0.0728	0.069	-0.126
Mof_C 	C 	0.9711	0.2245	0.1954	0.608
Mof_C 	C 	0.0697	0.2905	0.8766	0.44
Mof_C 	C 	0.4554	0.6025	0.5827	-0.035
Mof_C 	C 	0.7353	0.4815	0.1882	0.442
Mof_C 	C 	0.1885	0.3882	0.644	-0.074
Mof_C 	C 	0.4344	0.4361	0.44	0.111
Mof_C 	C 	0.95	0.8948	0.4223	-0.099
Mof_C 	C 	0.4604	0.394	0.0674	-0.129
Mof_C 	C 	0.3785	0.4175	0.102	-0.108
Mof_C 	C 	0.1101	0.0465	0.0655	-0.046
Mof_C 	C 	0.4055	0.3777	0.1103	0.005
Mof_C 	C 	0.6025	0.5446	0.4173	-0.035
Mof_C 	C 	0.0197	0.4591	0.4489	-0.012
Mof_C 	C 	0.3882	0.8115	0.356	-0.074
Mof_C 	C 	0.4003	0.2609	0.7833	-0.105
Mof_C 	C 	0.9272	0.3863	0.931	-0.126
Mof_C 	C 	0.3314	0.426	0.1228	0.511
Mof_C 	C 	0.6137	0.9272	0.069	-0.126
Mof_C 	C 	0.2255	0.2946	0.7738	0.08
Mof_C 	C 	0.7682	0.7926	0.7602	0.136
Mof_C 	C 	0.9497	0.9893	0.0186	-0.031
Mof_C 	C 	0.0639	0.0656	0.06	0.11
Mof_C 	C 	0.0813	0.4382	0.409	0.102
Mof_C 	C 	0.2682	0.7074	0.2602	0.136
Mof_C 	C 	0.5697	0.2095	0.3766	0.44
Mof_C 	C 	0.4815	0.2647	0.8118	0.442
Mof_C 	C 	0.074	0.1686	0.3772	0.511
Mof_C 	C 	0.7303	0.3973	0.2667	-0.113
Mof_C 	C 	0.4497	0.5107	0.5186	-0.034
Mof_C 	C 	0.1406	0.0606	0.0877	-0.158
Mof_C 	C 	0.6686	0.574	0.1228	0.511
Mof_C 	C 	0.403	0.3785	0.393	0.089
Mof_C 	C 	0.9803	0.5409	0.4489	-0.01
Mof_C 	C 	0.2609	0.5997	0.2167	-0.105
Mof_C 	C 	0.3741	0.7946	0.3298	-0.105
Mof_C 	C 	0.0728	0.6137	0.931	-0.126
Mof_C 	C 	0.6277	0.0376	0.8961	-0.032
Mof_C 	C 	0.3594	0.5606	0.5877	-0.158
Mof_C 	C 	0.6143	0.1324	0.6308	0.109
Mof_C 	C 	0.3975	0.4554	0.4173	-0.035
Mof_C 	C 	0.0376	0.3723	0.1039	-0.032
Mof_C 	C 	0.7318	0.2926	0.2602	0.136
Mof_C 	C 	2.86656e-33	0.5	0.4687	0.037
Mof_C 	C 	0.394	0.5396	0.9326	-0.129
Mof_C 	C 	0.3615	0.8146	0.1433	-0.046
Mof_C 	C 	0.6856	0.1682	0.1835	0.159
Mof_C 	C 	0.5909	0.8892	0.0817	0.087
Mof_C 	C 	0.2296	0.0545	0.7702	-0.086
Mof_C 	C 	0.3237	0.0248	0.4178	0.466
Mof_C 	C 	0.0997	0.7609	0.2833	-0.106
Mof_C 	C 	0.6215	0.403	0.607	0.089
Mof_C 	C 	0.4237	0.6186	0.6052	-0.167
Mof_C 	C 	0.2745	0.7946	0.2738	0.08
Mof_C 	C 	0.6385	0.1854	0.1433	-0.046
Mof_C 	C 	0.1931	0.0396	0.0912	0.523
Mof_C 	C 	0.8863	0.4272	0.569	-0.126
Mof_C 	C 	0.5127	0.5473	0.0212	0.057
Mof_C 	C 	0.2946	0.7745	0.2262	0.08
Mof_C 	C 	0.2095	0.4303	0.6234	0.44
Mof_C 	C 	0.8237	0.4752	0.9178	0.467
Mof_C 	C 	0.4383	0.8968	0.9025	-0.066
Mof_C 	C 	0.597	0.6215	0.393	0.089
Mof_C 	C 	0.907	0.4469	0.5398	-0.057
Mof_C 	C 	0.9527	0.9873	0.4788	0.06
Mof_C 	C 	0.0127	0.9527	0.5212	0.058
Mof_C 	C 	0.2755	0.5289	0.3046	0.607
Mof_C 	C 	0.407	0.0531	0.0398	-0.058
Mof_C 	C 	0.4091	0.1108	0.0817	0.087
Mof_C 	C 	0.6108	0.9091	0.4183	0.087
Mof_C 	C 	0.7396	0.2396	0.25	-0.1
Mof_C 	C 	0.106	0.0396	0.4326	-0.129
Mof_C 	C 	0.05	0.1052	0.4223	-0.099
Mof_C 	C 	0.4303	0.7905	0.3766	0.44
Mof_C 	C 	0.5997	0.7391	0.7833	-0.105
Mof_C 	C 	0.0242	0.6209	0.5435	-0.028
Mof_C 	C 	0.9758	0.3791	0.5435	-0.026
Mof_C 	C 	0.45	0.6052	0.9223	-0.099
Mof_C 	C 	0.1277	0.4624	0.3961	-0.032
Mof_C 	C 	0.4604	0.3069	0.4088	0.523
Mof_C 	C 	0.8615	0.6854	0.6433	-0.046
Mof_C 	C 	0.0181	0.5435	0.0144	-0.035
Mof_C 	C 	0.5763	0.3814	0.6052	-0.167
Mof_C 	C 	0.7255	0.2054	0.2738	0.08
Mof_C 	C 	0.9513	0.2353	0.285	-0.121
Mof_C 	C 	0.1351	0.5481	0.9301	-0.182
Mof_C 	C 	0.7245	0.4711	0.3046	0.607
Mof_C 	C 	0.3318	0.8144	0.3165	0.159
Mof_C 	C 	0.0529	0.8646	0.5909	-0.067
Mof_C 	C 	0.2859	0.9131	0.3706	0.485
Mof_C 	C 	0.8676	0.6143	0.3692	0.109
Mof_C 	C 	0.4591	0.9803	0.5511	-0.01
Mof_C 	C 	0.0481	0.6351	0.5699	-0.182
Mof_C 	C 	0.7745	0.7054	0.7738	0.08
Mof_C 	C 	0.1337	0.4099	0.1198	-0.172
Mof_C 	C 	0.9003	0.2391	0.2833	-0.105
Mof_C 	C 	0.7946	0.7255	0.7262	0.08
Mof_C 	C 	0.4131	0.7859	0.1294	0.485
Mof_C 	C 	0.8649	0.4519	0.9301	-0.182
Mof_C 	C 	0.044	0.6622	0.9199	0.503
Mof_C 	C 	0.2905	0.9303	0.1234	0.44
Mof_C 	C 	0.9346	0.679	0.3737	0.46
Mof_C 	C 	0.8146	0.6385	0.8567	-0.046
Mof_C 	C 	0.9383	0.6032	0.4025	-0.066
Mof_C 	C 	0.0702	0.3502	0.1237	-0.155
Mof_C 	C 	0.5253	0.6833	0.0995	0.431
Mof_C 	C 	0.0825	0.1215	0.398	-0.108
Mof_C 	C 	0.7704	0.9455	0.7702	-0.087
Mof_C 	C 	0.3663	0.9099	0.6198	-0.172
Mof_C 	C 	0.0531	0.593	0.9602	-0.058
Mof_C 	C 	9.32489e-33	6.2669e-33	0.5	-0.023
Mof_C 	C 	0.8464	0.699	0.6718	-0.145
Mof_C 	C 	0.8973	0.2303	0.2333	-0.113
Mof_C 	C 	0.4358	0.5641	0.9408	0.188
Mof_C 	C 	0.9495	0.4197	0.529	0.096
Mof_C 	C 	0.9471	0.1354	0.5909	-0.067
Mof_C 	C 	0.1854	0.3615	0.8567	-0.046
Mof_C 	C 	0.456	0.1622	0.4199	0.503
Mof_C 	C 	0.2054	0.2745	0.7262	0.08
Mof_C 	C 	0.5435	0.9819	0.9856	-0.033
Mof_C 	C 	0.7755	0.9711	0.8046	0.608
Mof_C 	C 	0.4495	0.0803	0.029	0.096
Mof_C 	C 	0.7946	0.6259	0.6702	-0.105
Mof_C 	C 	0.5901	0.1337	0.8802	-0.172
Mof_C 	C 	0.9091	0.3892	0.5817	0.087
Mof_C 	C 	0.0869	0.2859	0.6294	0.485
Mof_C 	C 	0.5481	0.8649	0.0699	-0.182
Mof_C 	C 	0.9591	0.5197	0.0511	-0.01
Mof_C 	C 	0.3723	0.9624	0.8961	-0.032
Mof_C 	C 	0.5506	0.1981	0.6357	0.43
Mof_C 	C 	0.3069	0.5396	0.5912	0.523
Mof_C 	C 	0.8741	0.7054	0.8298	-0.105
Mof_C 	C 	0.4527	0.5127	0.9788	0.058
Mof_C 	C 	0.8502	0.5702	0.3763	-0.155
Mof_C 	C 	0.7604	0.7396	0.75	-0.1
Mof_C 	C 	0.5702	0.1498	0.6237	-0.155
Mof_C 	C 	0.1143	0.3676	0.1308	0.109
Mof_C 	C 	0.55	0.3948	0.9223	-0.099
Mof_C 	C 	0.3785	0.597	0.607	0.089
Mof_C 	C 	0.9187	0.5618	0.409	0.103
Mof_C 	C 	0.5396	0.606	0.0674	-0.129
Mof_C 	C 	0.5	6.2669e-33	0.5313	0.037
Mof_C 	C 	0.179	0.4346	0.1263	0.46
Mof_C 	C 	0.8069	0.9604	0.0912	0.523
Mof_C 	C 	0.5654	0.179	0.8737	0.46
Mof_C 	C 	0.4535	0.3899	0.4345	-0.046
Mof_C 	C 	0.2353	0.0185	0.6882	0.441
Mof_C 	C 	0.1324	0.3857	0.3692	0.109
Mof_C 	C 	0.3144	0.8318	0.1835	0.159
Mof_C 	C 	0.574	0.3314	0.8772	0.511
Mof_C 	C 	0.0465	0.8899	0.9345	-0.046
Mof_C 	C 	0.7647	0.9815	0.6882	0.443
Mof_C 	C 	0.6215	0.5825	0.102	-0.108
Mof_C 	C 	0.8395	0.647	0.6273	-0.028
Mof_C 	C 	0.5503	0.4893	0.5186	-0.034
Mof_C 	C 	0.9565	0.4819	0.4856	-0.034
Mof_C 	C 	0.7926	0.2318	0.2398	0.136
Mof_C 	C 	0.5185	0.7353	0.8118	0.442
Mof_C 	C 	0.6406	0.4394	0.5877	-0.158
Mof_C 	C 	0.9604	0.106	0.5674	-0.129
Mof_C 	C 	7.63337e-33	0.5	0.0313	0.037
Mof_C 	C 	0.1682	0.3144	0.8165	0.159
Mof_C 	C 	0.7697	0.8973	0.7667	-0.113
Mof_C 	C 	0.3676	0.8857	0.8692	0.109
Mof_C 	C 	0.0656	0.9361	0.94	0.111
Mof_C 	C 	0.2704	0.5545	0.2702	-0.087
Mof_C 	C 	0.0435	0.5181	0.4856	-0.034
Mof_C 	C 	0.0396	0.8069	0.9088	0.523
Mof_C 	C 	0.1536	0.301	0.6718	-0.145
Mof_C 	C 	0.1385	0.3146	0.6433	-0.046
Mof_C 	C 	0.1209	0.5242	0.9565	-0.027
Mof_C 	C 	0.8663	0.5901	0.1198	-0.172
Mof_C 	C 	0.762	0.8689	0.7404	0.2
Mof_C 	C 	0.5396	0.6931	0.4088	0.523
Mof_C 	C 	0.9298	0.6498	0.1237	-0.155
Mof_C 	C 	0.8975	0.0446	0.9173	-0.035
Mof_C 	C 	0.3968	0.9383	0.5975	-0.066
Mof_C 	C 	0.5529	0.6354	0.0909	-0.067
Mof_C 	C 	0.6931	0.4604	0.5912	0.523
Mof_C 	C 	0.1311	0.762	0.2596	0.201
Mof_C 	C 	0.1856	0.3318	0.6835	0.159
Mof_C 	C 	0.2054	0.3741	0.6702	-0.105
Mof_C 	C 	0.3899	0.5465	0.5655	-0.046
Mof_C 	C 	0.9359	0.0642	0.5592	0.188
Mof_C 	C 	0.6032	0.0617	0.5975	-0.066
Mof_C 	C 	0.0107	0.9497	0.9814	-0.033
Mof_C 	C 	0.7391	0.4003	0.2167	-0.105
Mof_C 	C 	0.5446	0.3975	0.5827	-0.035
Mof_C 	C 	0.8689	0.238	0.2596	0.2
Mof_C 	C 	0.9815	0.2353	0.3118	0.443
Mof_C 	C 	0.0396	0.894	0.5674	-0.129
Mof_C 	C 	0.0505	0.5803	0.529	0.097
Mof_C 	C 	0.8777	0.9055	0.3897	0.005
Mof_C 	C 	0.3146	0.8615	0.3567	-0.046
Mof_C 	C 	0.2141	0.4131	0.8706	0.485
Mof_C 	C 	0.4464	0.6569	0.6254	0.508
Mof_C 	C 	0.4803	0.9591	0.9489	-0.01
Mof_C 	C 	0.9131	0.7141	0.6294	0.485
Mof_C 	C 	0.9519	0.3649	0.5699	-0.183
Mof_C 	C 	0.9494	0.6981	0.1357	0.43
Mof_C 	C 	0.5639	0.4344	0.56	0.111
Mof_C 	C 	0.8948	0.05	0.5777	-0.099
Mof_C 	C 	0.5289	0.7245	0.6954	0.607
Mof_C 	C 	0.2245	0.0289	0.8046	0.606
Mof_C 	C 	0.4742	0.2688	0.7569	0.03
Mof_C 	C 	0.0446	0.1025	0.0827	-0.035
Mof_C 	C 	0.5531	0.907	0.4602	-0.057
Mof_C 	C 	0.5545	0.7296	0.7298	-0.087
Mof_C 	C 	0.8723	0.5376	0.3961	-0.032
Mof_C 	C 	0.4873	0.4527	0.0212	0.057
Mof_C 	C 	0.4099	0.8663	0.8802	-0.172
Mof_C 	C 	0.2312	0.0258	0.7431	0.029
Mof_C 	C 	0.097	0.8785	0.893	0.089
Mof_C 	C 	0.3791	0.0242	0.4565	-0.028
Mof_C 	C 	0.4187	0.9382	0.909	0.103
Mof_C 	C 	0.321	0.9346	0.6263	0.46
Mof_C 	C 	0.647	0.1605	0.3727	-0.027
Mof_C 	C 	0.9747	0.1833	0.5995	0.432
Mof_C 	C 	0.738	0.3689	0.2404	0.2
Mof_C 	C 	0.1763	0.5248	0.9178	0.467
Mof_C 	C 	0.4758	0.1209	0.0435	-0.027
Mof_C 	C 	0.6118	0.1885	0.356	-0.074
Mof_C 	C 	0.8791	0.4758	0.9565	-0.027
Mof_C 	C 	0.0803	0.5505	0.971	0.096
Mof_C 	C 	0.4382	0.9187	0.591	0.103
Mof_C 	C 	0.5	0.5	0.5	0.058
Mof_C 	C 	0.0617	0.3968	0.4025	-0.066
Mof_C 	C 	0.4455	0.2704	0.7298	-0.087
Mof_C 	C 	0.0248	0.6763	0.5822	0.466
Mof_C 	C 	0.4197	0.0505	0.471	0.097
Mof_C 	C 	0.4361	0.5656	0.56	0.111
Mof_C 	C 	0.8882	0.6885	0.856	-0.074
Mof_C 	C 	0.6027	0.7303	0.7333	-0.113
Mof_C 	C 	0.0503	0.0107	0.0186	-0.034
Mof_C 	C 	0.3019	0.9494	0.8643	0.43
Mof_C 	C 	0.6569	0.5536	0.3746	0.508
Mof_C 	C 	0.5473	0.4873	0.9788	0.058
Mof_C 	C 	0.9742	0.2312	0.2569	0.032
Mof_C 	C 	0.8899	0.9535	0.0655	-0.046
Mof_C 	C 	0.6763	0.9752	0.4178	0.468
Mof_C 	C 	0.0763	0.1186	0.1052	-0.167
Mof_C 	C 	0.6854	0.1385	0.3567	-0.046
Mof_C 	C 	0.7859	0.5869	0.8706	0.485
Mof_C 	C 	0.1137	0.5728	0.569	-0.126
Mof_C 	C 	0.593	0.9469	0.0398	-0.058
Mof_C 	C 	0.1498	0.4298	0.3763	-0.155
Mof_C 	C 	0.2604	0.7604	0.25	-0.1
Mof_C 	C 	0.7296	0.4455	0.2702	-0.087
Mof_C 	C 	0.8892	0.4091	0.9183	0.087
Mof_C 	C 	0.4394	0.3594	0.4123	-0.158
Mof_C 	C 	0.8318	0.6856	0.8165	0.159
Mof_C 	C 	0.2926	0.2682	0.7398	0.136
Mof_C 	C 	0.9464	0.8431	0.1254	0.508
Mof_C 	C 	0.5409	0.0197	0.5511	-0.012
Mof_C 	C 	0.4747	0.3167	0.0995	0.431
Mof_C 	C 	0.238	0.1311	0.7404	0.201
Mof_C 	C 	0.0473	0.0127	0.4788	0.057
Mof_C 	C 	0.0253	0.8167	0.5995	0.431
Mof_C 	C 	0.353	0.8395	0.3727	-0.028
Mof_C 	C 	0.5248	0.8237	0.0822	0.467
Mof_C 	C 	0.2353	0.0487	0.715	-0.119
Mof_C 	C 	0.6311	0.738	0.7596	0.2
Mof_C 	C 	0.4565	0.0181	0.9856	-0.035
Mof_C 	C 	0.301	0.8464	0.3282	-0.145
Mof_C 	C 	0.4359	0.4358	0.0592	0.188
Mof_C 	C 	0.8431	0.0536	0.8746	0.508
Mof_C 	C 	0.2697	0.6027	0.2667	-0.113
Mof_C 	C 	0.7312	0.4742	0.2431	0.03
Mof_C 	C 	0.821	0.5654	0.1263	0.46
Mof_C 	C 	0.699	0.1536	0.3282	-0.145
Mof_C 	C 	0.0258	0.7688	0.2569	0.029
Mof_C 	C 	0.1223	0.0945	0.3897	0.005
Mof_C 	C 	0.3649	0.0481	0.4301	-0.182
Mof_C 	C 	0.6351	0.9519	0.4301	-0.183
Mof_C 	C 	0.4513	0.2647	0.785	-0.12
Mof_C 	C 	0.3857	0.8676	0.6308	0.109
Mof_C 	C 	0.1622	0.544	0.5801	0.503
Mof_C 	C 	0.4471	0.3646	0.0909	-0.067
Mof_C 	C 	0.0618	0.4187	0.091	0.103
Mof_C 	C 	0.7074	0.7318	0.7398	0.136
Mof_C 	C 	0.0945	0.8777	0.6103	0.005
Mof_C 	C 	0.5641	0.5642	0.0592	0.188
Mof_C 	C 	0.5505	0.9197	0.029	0.097
Mof_C 	C 	0.3689	0.262	0.7596	0.2
Mof_C 	C 	0.6259	0.2054	0.3298	-0.105
Mof_C 	C 	0.3502	0.9298	0.8763	-0.155
Mof_C 	C 	0.9893	0.0503	0.9814	-0.032
Mof_C 	C 	0.894	0.9604	0.4326	-0.129
Mof_C 	C 	0.4893	0.4497	0.4814	-0.034
Mof_C 	C 	0.5181	0.9565	0.5144	-0.034
Mof_C 	C 	0.9055	0.1223	0.6103	0.005
Mof_C 	C 	0.6833	0.4747	0.9005	0.431
Mof_C 	C 	0.2647	0.5487	0.215	-0.12
Mof_C 	C 	0.5242	0.8791	0.0435	-0.027
Mof_C 	C 	0.9554	0.8975	0.0827	-0.035
Mof_C 	C 	0.9469	0.407	0.9602	-0.058
Mof_C 	C 	0.5	1.25338e-32	0.9687	0.037
Mof_C 	C 	0.8167	0.9747	0.4005	0.432
Mof_C 	C 	0.1259	0.2946	0.8298	-0.105
Mof_C 	C 	0.8857	0.6324	0.1308	0.109
Mof_C 	C 	0.1215	0.9175	0.602	-0.108
Mof_C 	C 	0.4346	0.821	0.8737	0.46
Mof_C 	C 	0.8785	0.903	0.107	0.089
Mof_C 	C 	0.0185	0.7647	0.3118	0.441
Mof_C 	C 	0.3115	0.8882	0.144	-0.074
Mof_C 	C 	0.0606	0.8594	0.9123	-0.158
Mof_C 	C 	0.1833	0.0253	0.4005	0.431
Mof_C 	C 	0.7609	0.9003	0.7167	-0.105
Mof_C 	C 	0.6682	0.1856	0.3165	0.159
Mof_C 	C 	0.2074	0.7682	0.2398	0.136
Mof_C 	C 	0.4819	0.0435	0.5144	-0.034
Mof_C 	C 	0.8594	0.9394	0.0877	-0.158
Mof_C 	C 	0.5	0.5	-0	-0.021
Mof_C 	C 	0.3646	0.5529	0.9091	-0.067
Mof_C 	C 	0.1686	0.926	0.6228	0.511
Mof_C 	C 	0.9361	0.9344	0.06	0.111
Mof_C 	C 	0.3431	0.4464	0.3746	0.508
Mof_C 	C 	0.6101	0.4535	0.5655	-0.046
Mof_C 	C 	0.093	0.5531	0.5398	-0.058
Mof_C 	C 	-0	0	-0	0.056
Mof_C 	C 	0.7905	0.5697	0.6234	0.44
Mof_C 	C 	0.2688	0.5258	0.2431	0.03
Mof_C 	C 	0.0536	0.1569	0.1254	0.508
Mof_C 	C 	0.7141	0.0869	0.3706	0.485
Mof_C 	C 	0.679	0.0654	0.6263	0.46
Mof_C 	C 	0.9237	0.8814	0.1052	-0.166
Mof_C 	C 	0.9873	0.0473	0.5212	0.059
Mof_C 	C 	0.9604	0.1931	0.9088	0.523
Mof_C 	C 	0.0642	0.0641	0.4408	0.188
Mof_C 	C 	0.5728	0.8863	0.431	-0.126
Mof_C 	C 	0.1981	0.4494	0.3643	0.43
Mof_C 	C 	0.3378	0.044	0.0801	0.503
Mof_C 	C 	0.262	0.6311	0.2404	0.2
Mof_C 	C 	0.4175	0.6215	0.898	-0.108
Mof_C 	C 	0.5813	0.0618	0.909	0.103
Mof_C 	C 	0.6981	0.0506	0.8643	0.43
Mof_C 	C 	0.7688	0.9742	0.7431	0.032
Mof_C 	C 	0.7647	0.9513	0.715	-0.121
Mof_C 	C 	0.2303	0.1027	0.7667	-0.114
Mof_C 	C 	0.3892	0.0909	0.4183	0.086
Mof_C 	C 	0.8144	0.6682	0.6835	0.159
Mof_C 	C 	0.1052	0.95	0.5777	-0.099
Mof_C 	C 	0.9819	0.4565	0.0144	-0.033
Mof_C 	C 	0.1186	0.9237	0.8948	-0.167
Mof_C 	C 	0.3395	0.853	0.1273	-0.028
Mof_C 	C 	0.8019	0.5506	0.3643	0.43
Mof_C 	C 	0.9344	0.0639	0.94	0.111
Mof_C 	C 	0.6324	0.1143	0.8692	0.109
Mof_C 	C 	0.5617	0.1032	0.9025	-0.066
Mof_C 	C 	0.5656	0.5639	0.44	0.111
Mof_C 	C 	0.5197	0.0409	0.9489	-0.011
Mof_C 	C 	0.0289	0.7755	0.1954	0.606
Mof_C 	C 	0.6209	0.9758	0.4565	-0.026
Mof_C 	C 	0.8646	0.9471	0.4091	-0.067
Mof_C 	C 	0.2946	0.8741	0.1702	-0.105
Mof_C 	C 	0.4752	0.1763	0.0822	0.467
Mof_C 	C 	0.853	0.6605	0.8727	-0.028
Mof_C 	C 	0.5376	0.1277	0.6039	-0.032
Mof_C 	C 	0.9394	0.1406	0.9123	-0.158
Mof_C 	C 	0.4469	0.093	0.4602	-0.058
Mof_C 	C 	0.0654	0.321	0.3737	0.46
Mof_C 	C 	0.1354	0.0529	0.4091	-0.067
Mof_C 	C 	0.5803	0.9495	0.471	0.096
Mof_C 	C 	0.2391	0.0997	0.7167	-0.106
Mof_C 	C 	0.9624	0.6277	0.1039	-0.032
Mof_C 	C 	0.5869	0.2141	0.1294	0.485
Mof_C 	C 	0.8814	0.0763	0.8948	-0.167
Mof_C 	C 	0.9303	0.7095	0.8766	0.44
Mof_C 	C 	0.801	0.6536	0.8282	-0.145
Mof_O 	O 	0.0362	0.2771	0.8578	-0.544
Mof_O 	O 	0.9914	0.81	0.5807	-0.561
Mof_O 	O 	0.7269	0.4463	0.3222	-0.687
Mof_O 	O 	0.9316	0.7064	0.9029	-0.599
Mof_O 	O 	0.538	0.7432	0.837	-0.553
Mof_O 	O 	0.7958	0.505	0.9297	-0.556
Mof_O 	O 	0.285	0.5532	0.6146	-0.585
Mof_O 	O 	0.7136	0.0087	0.87263	-0.527
Mof_O 	O 	0.69	0.5086	0.9193	-0.562
Mof_O 	O 	0.5167	0.325	0.6183	-0.611
Mof_O 	O 	0.3158	0.036	0.3896	-0.513
Mof_O 	O 	0.3202	0.0164	0.0626	-0.596
Mof_O 	O 	0.9208	0.7187	0.1542	-0.554
Mof_O 	O 	0.1906	0.9715	0.61158	-0.521
Mof_O 	O 	0.5945	0.2052	0.8561	-0.537
Mof_O 	O 	0.218	0.9832	0.7992	-0.619
Mof_O 	O 	0.31	0.4914	0.9193	-0.562
Mof_O 	O 	0.44	0.7675	0.1448	-0.653
Mof_O 	O 	0.5532	0.715	0.3854	-0.585
Mof_O 	O 	0.7064	0.0684	0.0971	-0.599
Mof_O 	O 	0.464	0.1842	0.1104	-0.513
Mof_O 	O 	0.6906	0.5285	0.11158	-0.521
Mof_O 	O 	0.964	0.3158	0.6104	-0.513
Mof_O 	O 	0.0325	0.0525	0.0385	-0.211
Mof_O 	O 	0.975	0.4391	0.503	-0.201
Mof_O 	O 	0.5259	0.0577	0.57066	-0.205
Mof_O 	O 	0.2325	0.44	0.8552	-0.654
Mof_O 	O 	0.6705	0.9407	0.1056	-0.587
Mof_O 	O 	0.2901	0.82	0.2121	-0.24
Mof_O 	O 	0.4715	0.6906	0.88842	-0.521
Mof_O 	O 	0.0593	0.6705	0.8944	-0.587
Mof_O 	O 	0.5362	0.2229	0.3578	-0.543
Mof_O 	O 	0.4832	0.718	0.7008	-0.62
Mof_O 	O 	0.9723	0.6959	0.38437	-0.576
Mof_O 	O 	0.715	0.4468	0.6146	-0.585
Mof_O 	O 	0.0525	0.9675	0.9615	-0.211
Mof_O 	O 	0.7731	0.9463	0.8222	-0.687
Mof_O 	O 	0.0609	0.525	0.997	-0.201
Mof_O 	O 	0.3295	0.0593	0.1056	-0.587
Mof_O 	O 	0.0951	0.1819	0.3592	-0.68
Mof_O 	O 	0.2731	0.5537	0.3222	-0.687
Mof_O 	O 	0.9833	0.825	0.1183	-0.611
Mof_O 	O 	0.4208	0.7813	0.6542	-0.554
Mof_O 	O 	0.7045	0.4906	0.5739	-0.608
Mof_O 	O 	0.675	0.5167	0.3817	-0.611
Mof_O 	O 	0.2971	0.5382	0.8773	-0.572
Mof_O 	O 	0.4913	0.7864	0.62737	-0.527
Mof_O 	O 	0.0336	0.0531	0.4616	-0.259
Mof_O 	O 	0.5277	0.1959	0.88437	-0.576
Mof_O 	O 	0.505	0.2042	0.0703	-0.556
Mof_O 	O 	0.7948	0.5945	0.1439	-0.537
Mof_O 	O 	0.9741	0.5577	0.07066	-0.205
Mof_O 	O 	0.005	0.2958	0.5703	-0.556
Mof_O 	O 	0.2045	0.0094	0.0739	-0.608
Mof_O 	O 	0.475	0.0609	0.003	-0.201
Mof_O 	O 	0.036	0.6842	0.6104	-0.513
Mof_O 	O 	0.3181	0.4049	0.1408	-0.68
Mof_O 	O 	0.2675	0.94	0.3552	-0.653
Mof_O 	O 	0.5325	0.4475	0.5385	-0.211
Mof_O 	O 	0.9832	0.782	0.2008	-0.619
Mof_O 	O 	0.0537	0.7731	0.1778	-0.687
Mof_O 	O 	0.0259	0.4423	0.07066	-0.205
Mof_O 	O 	0.2269	0.0537	0.8222	-0.687
Mof_O 	O 	0.5951	0.3181	0.8592	-0.68
Mof_O 	O 	0.4836	0.1798	0.4374	-0.596
Mof_O 	O 	0.0168	0.218	0.2008	-0.62
Mof_O 	O 	0.5593	0.8295	0.3944	-0.587
Mof_O 	O 	0.1842	0.536	0.8896	-0.513
Mof_O 	O 	0.0087	0.2864	0.12737	-0.527
Mof_O 	O 	0.2848	0.9045	0.3985	-0.569
Mof_O 	O 	0.2052	0.4055	0.1439	-0.537
Mof_O 	O 	0.7305	0.5269	0.1924	-0.549
Mof_O 	O 	0.7901	0.68	0.7121	-0.24
Mof_O 	O 	0.7971	0.9618	0.3773	-0.572
Mof_O 	O 	0.7576	0.8229	0.7376	-0.283
Mof_O 	O 	0.7813	0.5792	0.3458	-0.554
Mof_O 	O 	0.1959	0.4723	0.11563	-0.576
Mof_O 	O 	0.5087	0.2136	0.62737	-0.527
Mof_O 	O 	0.5336	0.4469	0.9616	-0.259
Mof_O 	O 	0.7568	0.962	0.663	-0.553
Mof_O 	O 	0.9055	0.7052	0.3561	-0.537
Mof_O 	O 	0.7029	0.4618	0.8773	-0.572
Mof_O 	O 	0.5537	0.7269	0.6778	-0.687
Mof_O 	O 	0.4833	0.675	0.6183	-0.611
Mof_O 	O 	0.5834	0.3324	0.647	-0.577
Mof_O 	O 	0.2042	0.495	0.9297	-0.556
Mof_O 	O 	0.4475	0.4675	0.4615	-0.211
Mof_O 	O 	0.6959	0.0277	0.61563	-0.576
Mof_O 	O 	0.5577	0.0259	0.92934	-0.205
Mof_O 	O 	0.0531	0.9664	0.5384	-0.259
Mof_O 	O 	0.8181	0.0951	0.6408	-0.68
Mof_O 	O 	0.5269	0.2695	0.8076	-0.549
Mof_O 	O 	0.9475	0.0325	0.9615	-0.211
Mof_O 	O 	0.4914	0.69	0.0807	-0.562
Mof_O 	O 	0.4166	0.6676	0.647	-0.577
Mof_O 	O 	0.7848	0.5955	0.8985	-0.569
Mof_O 	O 	0.9166	0.8324	0.147	-0.577
Mof_O 	O 	0.9618	0.2029	0.6227	-0.572
Mof_O 	O 	0.0094	0.7955	0.9261	-0.608
Mof_O 	O 	0.9049	0.8181	0.3592	-0.68
Mof_O 	O 	0.9638	0.7229	0.8578	-0.543
Mof_O 	O 	0.8202	0.4836	0.5626	-0.596
Mof_O 	O 	0.4391	0.025	0.497	-0.201
Mof_O 	O 	0.8229	0.2424	0.2624	-0.283
Mof_O 	O 	0.7229	0.0362	0.1422	-0.544
Mof_O 	O 	0.4723	0.8041	0.88437	-0.576
Mof_O 	O 	0.2305	0.9731	0.6924	-0.548
Mof_O 	O 	0.18	0.2901	0.7879	-0.24
Mof_O 	O 	0.5168	0.282	0.7008	-0.62
Mof_O 	O 	0.0382	0.7971	0.6227	-0.572
Mof_O 	O 	0.462	0.2568	0.837	-0.553
Mof_O 	O 	0.0269	0.2305	0.3076	-0.549
Mof_O 	O 	0.2099	0.32	0.7121	-0.24
Mof_O 	O 	0.8041	0.5277	0.11563	-0.576
Mof_O 	O 	0.782	0.0168	0.7992	-0.62
Mof_O 	O 	0.9463	0.2269	0.1778	-0.687
Mof_O 	O 	0.9715	0.8094	0.38842	-0.521
Mof_O 	O 	0.3324	0.4166	0.353	-0.577
Mof_O 	O 	0.4741	0.9423	0.57066	-0.205
Mof_O 	O 	0.785	0.9468	0.1146	-0.584
Mof_O 	O 	0.2568	0.538	0.163	-0.553
Mof_O 	O 	0.282	0.4832	0.2992	-0.62
Mof_O 	O 	0.4638	0.7771	0.3578	-0.543
Mof_O 	O 	0.1705	0.5593	0.6056	-0.587
Mof_O 	O 	0.9045	0.7152	0.6015	-0.569
Mof_O 	O 	0.495	0.7958	0.0703	-0.556
Mof_O 	O 	0.9407	0.3295	0.8944	-0.587
Mof_O 	O 	0.0167	0.175	0.1183	-0.611
Mof_O 	O 	0.2936	0.9316	0.0971	-0.599
Mof_O 	O 	0.2029	0.0382	0.3773	-0.572
Mof_O 	O 	0.9675	0.9475	0.0385	-0.211
Mof_O 	O 	0.4731	0.7305	0.8076	-0.549
Mof_O 	O 	0.7936	0.5684	0.5971	-0.599
Mof_O 	O 	0.4407	0.1705	0.3944	-0.587
Mof_O 	O 	0.4468	0.285	0.3854	-0.585
Mof_O 	O 	0.215	0.0532	0.1146	-0.585
Mof_O 	O 	0.7424	0.3229	0.2376	-0.283
Mof_O 	O 	0.7695	0.0269	0.6924	-0.549
Mof_O 	O 	0.4316	0.7936	0.4029	-0.599
Mof_O 	O 	0.7675	0.56	0.8552	-0.653
Mof_O 	O 	0.4469	0.4664	0.0384	-0.259
Mof_O 	O 	0.038	0.7568	0.337	-0.553
Mof_O 	O 	0.5285	0.3094	0.88842	-0.521
Mof_O 	O 	0.1676	0.9166	0.853	-0.577
Mof_O 	O 	0.9423	0.5259	0.42934	-0.205
Mof_O 	O 	0.7771	0.5362	0.6422	-0.543
Mof_O 	O 	0.19	0.9914	0.4193	-0.561
Mof_O 	O 	0.9836	0.3202	0.9374	-0.596
Mof_O 	O 	0.2695	0.4731	0.1924	-0.549
Mof_O 	O 	0.7052	0.0945	0.6439	-0.537
Mof_O 	O 	0.7042	0.005	0.4297	-0.556
Mof_O 	O 	0.025	0.5609	0.503	-0.201
Mof_O 	O 	0.3229	0.2576	0.7624	-0.283
Mof_O 	O 	0.81	0.0086	0.4193	-0.562
Mof_O 	O 	0.56	0.2325	0.1448	-0.654
Mof_O 	O 	0.9469	0.0336	0.5384	-0.26
Mof_O 	O 	0.2771	0.9638	0.1422	-0.543
Mof_O 	O 	0.6771	0.7424	0.7624	-0.283
Mof_O 	O 	0.6819	0.5951	0.1408	-0.68
Mof_O 	O 	0.5531	0.5336	0.0384	-0.259
Mof_O 	O 	0.4423	0.9741	0.92934	-0.205
Mof_O 	O 	0.9913	0.7136	0.12737	-0.526
Mof_O 	O 	0.1771	0.7576	0.2624	-0.283
Mof_O 	O 	0.9664	0.9469	0.4616	-0.259
Mof_O 	O 	0.4055	0.7948	0.8561	-0.537
Mof_O 	O 	0.6798	0.9836	0.0626	-0.596
Mof_O 	O 	0.4906	0.2955	0.4261	-0.608
Mof_O 	O 	0.9468	0.215	0.8854	-0.584
Mof_O 	O 	0.8158	0.464	0.8896	-0.513
Mof_O 	O 	0.5382	0.7029	0.1227	-0.572
Mof_O 	O 	0.5955	0.2152	0.1015	-0.569
Mof_O 	O 	0.2152	0.4045	0.8985	-0.569
Mof_O 	O 	0.2864	0.9913	0.87263	-0.526
Mof_O 	O 	0.0945	0.2948	0.3561	-0.537
Mof_O 	O 	0.5094	0.7045	0.4261	-0.608
Mof_O 	O 	0.0834	0.1676	0.147	-0.577
Mof_O 	O 	0.175	0.9833	0.8817	-0.611
Mof_O 	O 	0.2576	0.6771	0.2376	-0.283
Mof_O 	O 	0.2136	0.4913	0.37263	-0.527
Mof_O 	O 	0.2955	0.5094	0.5739	-0.608
Mof_O 	O 	0.995	0.7042	0.5703	-0.555
Mof_O 	O 	0.9731	0.7695	0.3076	-0.548
Mof_O 	O 	0.6842	0.964	0.3896	-0.513
Mof_O 	O 	0.5164	0.8202	0.4374	-0.596
Mof_O 	O 	0.7432	0.462	0.163	-0.553
Mof_O 	O 	0.0285	0.1906	0.38842	-0.521
Mof_O 	O 	0.0792	0.2813	0.1542	-0.554
Mof_O 	O 	0.2432	0.038	0.663	-0.553
Mof_O 	O 	0.5609	0.975	0.497	-0.201
Mof_O 	O 	0.0684	0.2936	0.9029	-0.599
Mof_O 	O 	0.0955	0.2848	0.6015	-0.569
Mof_O 	O 	0.6676	0.5834	0.353	-0.577
Mof_O 	O 	0.718	0.5168	0.2992	-0.62
Mof_O 	O 	0.7955	0.9906	0.0739	-0.608
Mof_O 	O 	0.5792	0.2187	0.6542	-0.554
Mof_O 	O 	0.4045	0.7848	0.1015	-0.569
Mof_O 	O 	0.1798	0.5164	0.5626	-0.596
Mof_O 	O 	0.0577	0.4741	0.42934	-0.205
Mof_O 	O 	0.4675	0.5525	0.5385	-0.211
Mof_O 	O 	0.825	0.0167	0.8817	-0.611
Mof_O 	O 	0.5086	0.31	0.0807	-0.562
Mof_O 	O 	0.9391	0.475	0.997	-0.201
Mof_O 	O 	0.06	0.2675	0.6448	-0.654
Mof_O 	O 	0.32	0.7901	0.2879	-0.24
Mof_O 	O 	0.94	0.7325	0.6448	-0.653
Mof_O 	O 	0.5684	0.2064	0.4029	-0.599
Mof_O 	O 	0.962	0.2432	0.337	-0.553
Mof_O 	O 	0.325	0.4833	0.3817	-0.611
Mof_O 	O 	0.5525	0.5325	0.4615	-0.211
Mof_O 	O 	0.4463	0.2731	0.6778	-0.687
Mof_O 	O 	0.8324	0.0834	0.853	-0.577
Mof_O 	O 	0.0086	0.19	0.5807	-0.562
Mof_O 	O 	0.82	0.7099	0.7879	-0.24
Mof_O 	O 	0.3094	0.4715	0.11158	-0.521
Mof_O 	O 	0.4049	0.6819	0.8592	-0.68
Mof_O 	O 	0.7187	0.0792	0.8458	-0.554
Mof_O 	O 	0.525	0.9391	0.003	-0.201
Mof_O 	O 	0.8295	0.4407	0.6056	-0.587
Mof_O 	O 	0.536	0.8158	0.1104	-0.513
Mof_O 	O 	0.2187	0.4208	0.3458	-0.554
Mof_O 	O 	0.4618	0.2971	0.1227	-0.572
Mof_O 	O 	0.3041	0.9723	0.61563	-0.576
Mof_O 	O 	0.2813	0.9208	0.8458	-0.554
Mof_O 	O 	0.8094	0.0285	0.61158	-0.521
Mof_O 	O 	0.0277	0.3041	0.38437	-0.576
Mof_O 	O 	0.7152	0.0955	0.3985	-0.569
Mof_O 	O 	0.2424	0.1771	0.7376	-0.283
Mof_O 	O 	0.9906	0.2045	0.9261	-0.608
Mof_O 	O 	0.0164	0.6798	0.9374	-0.596
Mof_O 	O 	0.1819	0.9049	0.6408	-0.68
Mof_O 	O 	0.7099	0.18	0.2121	-0.24
Mof_O 	O 	0.7325	0.06	0.3552	-0.654
Mof_O 	O 	0.2064	0.4316	0.5971	-0.599
Mof_O 	O 	0.2229	0.4638	0.6422	-0.543
Mof_O 	O 	0.7864	0.5087	0.37263	-0.527
Mof_O 	O 	0.68	0.2099	0.2879	-0.24
Mof_O 	O 	0.0532	0.785	0.8854	-0.585
Mof_O 	O 	0.4664	0.5531	0.9616	-0.259
Mof_O 	O 	0.2958	0.995	0.4297	-0.555
Mof_O 	O 	0.2948	0.9055	0.6439	-0.537
_end
