# CIF file generated by openbabel 3.1.0, see https://openbabel.org
data_I
_chemical_name_common 'image0'
_cell_length_a 18.0973
_cell_length_b 28.4369
_cell_length_c 28.5016
_cell_angle_alpha 90
_cell_angle_beta 90
_cell_angle_gamma 90
_space_group_name_H-M_alt 'P 1'
_space_group_name_Hall 'P 1'
loop_
    _symmetry_equiv_pos_as_xyz
    x,y,z
loop_
    _atom_site_label
    _atom_site_type_symbol
    _atom_site_fract_x
    _atom_site_fract_y
    _atom_site_fract_z
    _atom_site_occupancy
    Cu1      Cu       0.98439    0.24352    0.76392    1.000
    Cu2      Cu       0.74176    0.48614    0.50309    1.000
    N1       N        0.53250    0.29336    0.28897    1.000
    N2       N        0.93990    0.28653    0.71588    1.000
    N3       N        0.78660    0.43611    0.54502    1.000
    N4       N        0.96490    0.70338    0.68782    1.000
    N5       N        0.68880    0.43612    0.46496    1.000
    N6       N        0.93880    0.28440    0.81493    1.000
    N7       N        0.80170    0.46264    0.96243    1.000
    N8       N        0.79290    0.53639    0.54142    1.000
    C1       C        0.88120    0.35030    0.87670    1.000
    C2       C        0.89710    0.64050    0.62610    1.000
    C3       C        0.87870    0.34480    0.64810    1.000
    C4       C        0.60160    0.29760    0.36030    1.000
    H1       H        0.62860    0.28190    0.38330    1.000
    C5       C        0.98080    0.30280    0.84900    1.000
    H2       H        0.02990    0.29350    0.85150    1.000
    C6       C        0.62340    0.37470    0.40070    1.000
    C7       C        0.84640    0.37640    0.61190    1.000
    C8       C        0.83670    0.33020    0.84180    1.000
    H3       H        0.78740    0.33890    0.83870    1.000
    C9       C        0.77210    0.37370    0.60010    1.000
    H4       H        0.74150    0.35170    0.61440    1.000
    C10      C        0.89420    0.26950    0.68360    1.000
    H5       H        0.88450    0.23740    0.68350    1.000
    C11      C        0.61830    0.43990    0.45380    1.000
    H6       H        0.59030    0.46340    0.46790    1.000
    C12      C        0.81850    0.56980    0.61660    1.000
    H7       H        0.81170    0.56920    0.64900    1.000
    C13      C        0.85330    0.38960    0.90690    1.000
    C14      C        0.72670    0.40030    0.44660    1.000
    H8       H        0.77550    0.39610    0.45580    1.000
    C15      C        0.57070    0.27300    0.32330    1.000
    H9       H        0.57700    0.24060    0.32240    1.000
    C16      C        0.86040    0.29760    0.65000    1.000
    H10      H        0.82610    0.28500    0.62930    1.000
    C17      C        0.00190    0.68480    0.65160    1.000
    H11      H        0.05120    0.69320    0.64750    1.000
    C18      C        0.89030    0.40800    0.58840    1.000
    H12      H        0.94070    0.40970    0.59470    1.000
    C19      C        0.58400    0.41020    0.42190    1.000
    H13      H        0.53430    0.41430    0.41470    1.000
    C20      C        0.97020    0.65380    0.62000    1.000
    H14      H        0.99760    0.64210    0.59490    1.000
    C21      C        0.85920    0.66020    0.66250    1.000
    H15      H        0.80970    0.65290    0.66730    1.000
    C22      C        0.86120    0.60400    0.59620    1.000
    C23      C        0.74400    0.40440    0.56650    1.000
    H16      H        0.69410    0.40270    0.55890    1.000
    C24      C        0.86810    0.39110    0.95470    1.000
    H17      H        0.89640    0.36770    0.96870    1.000
    C25      C        0.92710    0.36300    0.68200    1.000
    H18      H        0.93910    0.39480    0.68220    1.000
    C26      C        0.85850    0.43730    0.55550    1.000
    H19      H        0.88850    0.45870    0.53990    1.000
    C27      C        0.69690    0.36940    0.41460    1.000
    H20      H        0.72550    0.34520    0.40230    1.000
    C28      C        0.89500    0.69130    0.69220    1.000
    H21      H        0.86810    0.70440    0.71670    1.000
    C29      C        0.55110    0.36730    0.32720    1.000
    H22      H        0.54270    0.39960    0.32810    1.000
    C30      C        0.52330    0.34060    0.29090    1.000
    H23      H        0.49740    0.35560    0.26690    1.000
    C31      C        0.87020    0.60370    0.54770    1.000
    H24      H        0.89980    0.62600    0.53290    1.000
    C32      C        0.95640    0.33320    0.71500    1.000
    H25      H        0.98860    0.34520    0.73740    1.000
    C33      C        0.59190    0.34570    0.36270    1.000
    C34      C        0.86710    0.29760    0.81220    1.000
    H26      H        0.83740    0.28400    0.78930    1.000
    C35      C        0.95310    0.33510    0.88050    1.000
    H27      H        0.98320    0.34670    0.90430    1.000
    C36      C        0.83420    0.56950    0.52220    1.000
    H28      H        0.83910    0.56980    0.48970    1.000
    C37      C        0.81210    0.42580    0.88810    1.000
    H29      H        0.80000    0.42570    0.85640    1.000
    C38      C        0.78580    0.53620    0.58830    1.000
    H30      H        0.75780    0.51270    0.60230    1.000
    C39      C        0.84060    0.42750    0.98070    1.000
    H31      H        0.84950    0.42770    0.01290    1.000
    C40      C        0.78910    0.46180    0.91610    1.000
    H32      H        0.76370    0.48670    0.90260    1.000
    Cu3      Cu       0.51561    0.75648    0.26392    1.000
    Cu4      Cu       0.75824    0.51386    0.00309    1.000
    N9       N        0.96750    0.70664    0.78897    1.000
    N10      N        0.56010    0.71347    0.21588    1.000
    N11      N        0.71340    0.56389    0.04502    1.000
    N12      N        0.53510    0.29662    0.18782    1.000
    N13      N        0.81120    0.56388    0.96496    1.000
    N14      N        0.56120    0.71560    0.31493    1.000
    N15      N        0.69830    0.53736    0.46243    1.000
    N16      N        0.70710    0.46361    0.04142    1.000
    C41      C        0.61880    0.64970    0.37670    1.000
    C42      C        0.60290    0.35950    0.12610    1.000
    C43      C        0.62130    0.65520    0.14810    1.000
    C44      C        0.89840    0.70240    0.86030    1.000
    H33      H        0.87140    0.71810    0.88330    1.000
    C45      C        0.51920    0.69720    0.34900    1.000
    H34      H        0.47010    0.70650    0.35150    1.000
    C46      C        0.87660    0.62530    0.90070    1.000
    C47      C        0.65360    0.62360    0.11190    1.000
    C48      C        0.66330    0.66980    0.34180    1.000
    H35      H        0.71260    0.66110    0.33870    1.000
    C49      C        0.72790    0.62630    0.10010    1.000
    H36      H        0.75850    0.64830    0.11440    1.000
    C50      C        0.60580    0.73050    0.18360    1.000
    H37      H        0.61550    0.76260    0.18350    1.000
    C51      C        0.88170    0.56010    0.95380    1.000
    H38      H        0.90970    0.53660    0.96790    1.000
    C52      C        0.68150    0.43020    0.11660    1.000
    H39      H        0.68830    0.43080    0.14900    1.000
    C53      C        0.64670    0.61040    0.40690    1.000
    C54      C        0.77330    0.59970    0.94660    1.000
    H40      H        0.72450    0.60390    0.95580    1.000
    C55      C        0.92930    0.72700    0.82330    1.000
    H41      H        0.92300    0.75940    0.82240    1.000
    C56      C        0.63960    0.70240    0.15000    1.000
    H42      H        0.67390    0.71500    0.12930    1.000
    C57      C        0.49810    0.31520    0.15160    1.000
    H43      H        0.44880    0.30680    0.14750    1.000
    C58      C        0.60970    0.59200    0.08840    1.000
    H44      H        0.55930    0.59030    0.09470    1.000
    C59      C        0.91600    0.58980    0.92190    1.000
    H45      H        0.96570    0.58570    0.91470    1.000
    C60      C        0.52980    0.34620    0.12000    1.000
    H46      H        0.50240    0.35790    0.09490    1.000
    C61      C        0.64080    0.33980    0.16250    1.000
    H47      H        0.69030    0.34710    0.16730    1.000
    C62      C        0.63880    0.39600    0.09620    1.000
    C63      C        0.75600    0.59560    0.06650    1.000
    H48      H        0.80590    0.59730    0.05890    1.000
    C64      C        0.63190    0.60890    0.45470    1.000
    H49      H        0.60360    0.63230    0.46870    1.000
    C65      C        0.57290    0.63700    0.18200    1.000
    H50      H        0.56090    0.60520    0.18220    1.000
    C66      C        0.64150    0.56270    0.05550    1.000
    H51      H        0.61150    0.54130    0.03990    1.000
    C67      C        0.80310    0.63060    0.91460    1.000
    H52      H        0.77450    0.65480    0.90230    1.000
    C68      C        0.60500    0.30870    0.19220    1.000
    H53      H        0.63190    0.29560    0.21670    1.000
    C69      C        0.94890    0.63270    0.82720    1.000
    H54      H        0.95730    0.60040    0.82810    1.000
    C70      C        0.97670    0.65940    0.79090    1.000
    H55      H        0.00260    0.64440    0.76690    1.000
    C71      C        0.62980    0.39630    0.04770    1.000
    H56      H        0.60020    0.37400    0.03290    1.000
    C72      C        0.54360    0.66680    0.21500    1.000
    H57      H        0.51140    0.65480    0.23740    1.000
    C73      C        0.90810    0.65430    0.86270    1.000
    C74      C        0.63290    0.70240    0.31220    1.000
    H58      H        0.66260    0.71600    0.28930    1.000
    C75      C        0.54690    0.66490    0.38050    1.000
    H59      H        0.51680    0.65330    0.40430    1.000
    C76      C        0.66580    0.43050    0.02220    1.000
    H60      H        0.66090    0.43020    0.98970    1.000
    C77      C        0.68790    0.57420    0.38810    1.000
    H61      H        0.70000    0.57430    0.35640    1.000
    C78      C        0.71420    0.46380    0.08830    1.000
    H62      H        0.74220    0.48730    0.10230    1.000
    C79      C        0.65940    0.57250    0.48070    1.000
    H63      H        0.65050    0.57230    0.51290    1.000
    C80      C        0.71090    0.53820    0.41610    1.000
    H64      H        0.73630    0.51330    0.40260    1.000
    Cu5      Cu       0.01561    0.74352    0.73608    1.000
    Cu6      Cu       0.25824    0.98614    0.99691    1.000
    N17      N        0.46750    0.79336    0.21103    1.000
    N18      N        0.06010    0.78653    0.78412    1.000
    N19      N        0.21340    0.93611    0.95498    1.000
    N20      N        0.03510    0.20338    0.81218    1.000
    N21      N        0.31120    0.93612    0.03504    1.000
    N22      N        0.06120    0.78440    0.68507    1.000
    N23      N        0.19830    0.96264    0.53757    1.000
    N24      N        0.20710    0.03639    0.95858    1.000
    C81      C        0.11880    0.85030    0.62330    1.000
    C82      C        0.10290    0.14050    0.87390    1.000
    C83      C        0.12130    0.84480    0.85190    1.000
    C84      C        0.39840    0.79760    0.13970    1.000
    H65      H        0.37140    0.78190    0.11670    1.000
    C85      C        0.01920    0.80280    0.65100    1.000
    H66      H        0.97010    0.79350    0.64850    1.000
    C86      C        0.37660    0.87470    0.09930    1.000
    C87      C        0.15360    0.87640    0.88810    1.000
    C88      C        0.16330    0.83020    0.65820    1.000
    H67      H        0.21260    0.83890    0.66130    1.000
    C89      C        0.22790    0.87370    0.89990    1.000
    H68      H        0.25850    0.85170    0.88560    1.000
    C90      C        0.10580    0.76950    0.81640    1.000
    H69      H        0.11550    0.73740    0.81650    1.000
    C91      C        0.38170    0.93990    0.04620    1.000
    H70      H        0.40970    0.96340    0.03210    1.000
    C92      C        0.18150    0.06980    0.88340    1.000
    H71      H        0.18830    0.06920    0.85100    1.000
    C93      C        0.14670    0.88960    0.59310    1.000
    C94      C        0.27330    0.90030    0.05340    1.000
    H72      H        0.22450    0.89610    0.04420    1.000
    C95      C        0.42930    0.77300    0.17670    1.000
    H73      H        0.42300    0.74060    0.17760    1.000
    C96      C        0.13960    0.79760    0.85000    1.000
    H74      H        0.17390    0.78500    0.87070    1.000
    C97      C        0.99810    0.18480    0.84840    1.000
    H75      H        0.94880    0.19320    0.85250    1.000
    C98      C        0.10970    0.90800    0.91160    1.000
    H76      H        0.05930    0.90970    0.90530    1.000
    C99      C        0.41600    0.91020    0.07810    1.000
    H77      H        0.46570    0.91430    0.08530    1.000
    C100     C        0.02980    0.15380    0.88000    1.000
    H78      H        0.00240    0.14210    0.90510    1.000
    C101     C        0.14080    0.16020    0.83750    1.000
    H79      H        0.19030    0.15290    0.83270    1.000
    C102     C        0.13880    0.10400    0.90380    1.000
    C103     C        0.25600    0.90440    0.93350    1.000
    H80      H        0.30590    0.90270    0.94110    1.000
    C104     C        0.13190    0.89110    0.54530    1.000
    H81      H        0.10360    0.86770    0.53130    1.000
    C105     C        0.07290    0.86300    0.81800    1.000
    H82      H        0.06090    0.89480    0.81780    1.000
    C106     C        0.14150    0.93730    0.94450    1.000
    H83      H        0.11150    0.95870    0.96010    1.000
    C107     C        0.30310    0.86940    0.08540    1.000
    H84      H        0.27450    0.84520    0.09770    1.000
    C108     C        0.10500    0.19130    0.80780    1.000
    H85      H        0.13190    0.20440    0.78330    1.000
    C109     C        0.44890    0.86730    0.17280    1.000
    H86      H        0.45730    0.89960    0.17190    1.000
    C110     C        0.47670    0.84060    0.20910    1.000
    H87      H        0.50260    0.85560    0.23310    1.000
    C111     C        0.12980    0.10370    0.95230    1.000
    H88      H        0.10020    0.12600    0.96710    1.000
    C112     C        0.04360    0.83320    0.78500    1.000
    H89      H        0.01140    0.84520    0.76260    1.000
    C113     C        0.40810    0.84570    0.13730    1.000
    C114     C        0.13290    0.79760    0.68780    1.000
    H90      H        0.16260    0.78400    0.71070    1.000
    C115     C        0.04690    0.83510    0.61950    1.000
    H91      H        0.01680    0.84670    0.59570    1.000
    C116     C        0.16580    0.06950    0.97780    1.000
    H92      H        0.16090    0.06980    0.01030    1.000
    C117     C        0.18790    0.92580    0.61190    1.000
    H93      H        0.20000    0.92570    0.64360    1.000
    C118     C        0.21420    0.03620    0.91170    1.000
    H94      H        0.24220    0.01270    0.89770    1.000
    C119     C        0.15940    0.92750    0.51930    1.000
    H95      H        0.15050    0.92770    0.48710    1.000
    C120     C        0.21090    0.96180    0.58390    1.000
    H96      H        0.23630    0.98670    0.59740    1.000
    Cu7      Cu       0.48439    0.25648    0.23608    1.000
    Cu8      Cu       0.24176    0.01386    0.49691    1.000
    N25      N        0.03250    0.20664    0.71103    1.000
    N26      N        0.43990    0.21347    0.28412    1.000
    N27      N        0.28660    0.06389    0.45498    1.000
    N28      N        0.46490    0.79662    0.31218    1.000
    N29      N        0.18880    0.06388    0.53504    1.000
    N30      N        0.43880    0.21560    0.18507    1.000
    N31      N        0.30170    0.03736    0.03757    1.000
    N32      N        0.29290    0.96361    0.45858    1.000
    C121     C        0.38120    0.14970    0.12330    1.000
    C122     C        0.39710    0.85950    0.37390    1.000
    C123     C        0.37870    0.15520    0.35190    1.000
    C124     C        0.10160    0.20240    0.63970    1.000
    H97      H        0.12860    0.21810    0.61670    1.000
    C125     C        0.48080    0.19720    0.15100    1.000
    H98      H        0.52990    0.20650    0.14850    1.000
    C126     C        0.12340    0.12530    0.59930    1.000
    C127     C        0.34640    0.12360    0.38810    1.000
    C128     C        0.33670    0.16980    0.15820    1.000
    H99      H        0.28740    0.16110    0.16130    1.000
    C129     C        0.27210    0.12630    0.39990    1.000
    H100     H        0.24150    0.14830    0.38560    1.000
    C130     C        0.39420    0.23050    0.31640    1.000
    H101     H        0.38450    0.26260    0.31650    1.000
    C131     C        0.11830    0.06010    0.54620    1.000
    H102     H        0.09030    0.03660    0.53210    1.000
    C132     C        0.31850    0.93020    0.38340    1.000
    H103     H        0.31170    0.93080    0.35100    1.000
    C133     C        0.35330    0.11040    0.09310    1.000
    C134     C        0.22670    0.09970    0.55340    1.000
    H104     H        0.27550    0.10390    0.54420    1.000
    C135     C        0.07070    0.22700    0.67670    1.000
    H105     H        0.07700    0.25940    0.67760    1.000
    C136     C        0.36040    0.20240    0.35000    1.000
    H106     H        0.32610    0.21500    0.37070    1.000
    C137     C        0.50190    0.81520    0.34840    1.000
    H107     H        0.55120    0.80680    0.35250    1.000
    C138     C        0.39030    0.09200    0.41160    1.000
    H108     H        0.44070    0.09030    0.40530    1.000
    C139     C        0.08400    0.08980    0.57810    1.000
    H109     H        0.03430    0.08570    0.58530    1.000
    C140     C        0.47020    0.84620    0.38000    1.000
    H110     H        0.49760    0.85790    0.40510    1.000
    C141     C        0.35920    0.83980    0.33750    1.000
    H111     H        0.30970    0.84710    0.33270    1.000
    C142     C        0.36120    0.89600    0.40380    1.000
    C143     C        0.24400    0.09560    0.43350    1.000
    H112     H        0.19410    0.09730    0.44110    1.000
    C144     C        0.36810    0.10890    0.04530    1.000
    H113     H        0.39640    0.13230    0.03130    1.000
    C145     C        0.42710    0.13700    0.31800    1.000
    H114     H        0.43910    0.10520    0.31780    1.000
    C146     C        0.35850    0.06270    0.44450    1.000
    H115     H        0.38850    0.04130    0.46010    1.000
    C147     C        0.19690    0.13060    0.58540    1.000
    H116     H        0.22550    0.15480    0.59770    1.000
    C148     C        0.39500    0.80870    0.30780    1.000
    H117     H        0.36810    0.79560    0.28330    1.000
    C149     C        0.05110    0.13270    0.67280    1.000
    H118     H        0.04270    0.10040    0.67190    1.000
    C150     C        0.02330    0.15940    0.70910    1.000
    H119     H        0.99740    0.14440    0.73310    1.000
    C151     C        0.37020    0.89630    0.45230    1.000
    H120     H        0.39980    0.87400    0.46710    1.000
    C152     C        0.45640    0.16680    0.28500    1.000
    H121     H        0.48860    0.15480    0.26260    1.000
    C153     C        0.09190    0.15430    0.63730    1.000
    C154     C        0.36710    0.20240    0.18780    1.000
    H122     H        0.33740    0.21600    0.21070    1.000
    C155     C        0.45310    0.16490    0.11950    1.000
    H123     H        0.48320    0.15330    0.09570    1.000
    C156     C        0.33420    0.93050    0.47780    1.000
    H124     H        0.33910    0.93020    0.51030    1.000
    C157     C        0.31210    0.07420    0.11190    1.000
    H125     H        0.30000    0.07430    0.14360    1.000
    C158     C        0.28580    0.96380    0.41170    1.000
    H126     H        0.25780    0.98730    0.39770    1.000
    C159     C        0.34060    0.07250    0.01930    1.000
    H127     H        0.34950    0.07230    0.98710    1.000
    C160     C        0.28910    0.03820    0.08390    1.000
    H128     H        0.26370    0.01330    0.09740    1.000
    Cu9      Cu       0.01561    0.75648    0.23608    1.000
    Cu10     Cu       0.25824    0.51386    0.49691    1.000
    N33      N        0.46750    0.70664    0.71103    1.000
    N34      N        0.06010    0.71347    0.28412    1.000
    N35      N        0.21340    0.56389    0.45498    1.000
    N36      N        0.03510    0.29662    0.31218    1.000
    N37      N        0.31120    0.56388    0.53504    1.000
    N38      N        0.06120    0.71560    0.18507    1.000
    N39      N        0.19830    0.53736    0.03757    1.000
    N40      N        0.20710    0.46361    0.45858    1.000
    C161     C        0.11880    0.64970    0.12330    1.000
    C162     C        0.10290    0.35950    0.37390    1.000
    C163     C        0.12130    0.65520    0.35190    1.000
    C164     C        0.39840    0.70240    0.63970    1.000
    H129     H        0.37140    0.71810    0.61670    1.000
    C165     C        0.01920    0.69720    0.15100    1.000
    H130     H        0.97010    0.70650    0.14850    1.000
    C166     C        0.37660    0.62530    0.59930    1.000
    C167     C        0.15360    0.62360    0.38810    1.000
    C168     C        0.16330    0.66980    0.15820    1.000
    H131     H        0.21260    0.66110    0.16130    1.000
    C169     C        0.22790    0.62630    0.39990    1.000
    H132     H        0.25850    0.64830    0.38560    1.000
    C170     C        0.10580    0.73050    0.31640    1.000
    H133     H        0.11550    0.76260    0.31650    1.000
    C171     C        0.38170    0.56010    0.54620    1.000
    H134     H        0.40970    0.53660    0.53210    1.000
    C172     C        0.18150    0.43020    0.38340    1.000
    H135     H        0.18830    0.43080    0.35100    1.000
    C173     C        0.14670    0.61040    0.09310    1.000
    C174     C        0.27330    0.59970    0.55340    1.000
    H136     H        0.22450    0.60390    0.54420    1.000
    C175     C        0.42930    0.72700    0.67670    1.000
    H137     H        0.42300    0.75940    0.67760    1.000
    C176     C        0.13960    0.70240    0.35000    1.000
    H138     H        0.17390    0.71500    0.37070    1.000
    C177     C        0.99810    0.31520    0.34840    1.000
    H139     H        0.94880    0.30680    0.35250    1.000
    C178     C        0.10970    0.59200    0.41160    1.000
    H140     H        0.05930    0.59030    0.40530    1.000
    C179     C        0.41600    0.58980    0.57810    1.000
    H141     H        0.46570    0.58570    0.58530    1.000
    C180     C        0.02980    0.34620    0.38000    1.000
    H142     H        0.00240    0.35790    0.40510    1.000
    C181     C        0.14080    0.33980    0.33750    1.000
    H143     H        0.19030    0.34710    0.33270    1.000
    C182     C        0.13880    0.39600    0.40380    1.000
    C183     C        0.25600    0.59560    0.43350    1.000
    H144     H        0.30590    0.59730    0.44110    1.000
    C184     C        0.13190    0.60890    0.04530    1.000
    H145     H        0.10360    0.63230    0.03130    1.000
    C185     C        0.07290    0.63700    0.31800    1.000
    H146     H        0.06090    0.60520    0.31780    1.000
    C186     C        0.14150    0.56270    0.44450    1.000
    H147     H        0.11150    0.54130    0.46010    1.000
    C187     C        0.30310    0.63060    0.58540    1.000
    H148     H        0.27450    0.65480    0.59770    1.000
    C188     C        0.10500    0.30870    0.30780    1.000
    H149     H        0.13190    0.29560    0.28330    1.000
    C189     C        0.44890    0.63270    0.67280    1.000
    H150     H        0.45730    0.60040    0.67190    1.000
    C190     C        0.47670    0.65940    0.70910    1.000
    H151     H        0.50260    0.64440    0.73310    1.000
    C191     C        0.12980    0.39630    0.45230    1.000
    H152     H        0.10020    0.37400    0.46710    1.000
    C192     C        0.04360    0.66680    0.28500    1.000
    H153     H        0.01140    0.65480    0.26260    1.000
    C193     C        0.40810    0.65430    0.63730    1.000
    C194     C        0.13290    0.70240    0.18780    1.000
    H154     H        0.16260    0.71600    0.21070    1.000
    C195     C        0.04690    0.66490    0.11950    1.000
    H155     H        0.01680    0.65330    0.09570    1.000
    C196     C        0.16580    0.43050    0.47780    1.000
    H156     H        0.16090    0.43020    0.51030    1.000
    C197     C        0.18790    0.57420    0.11190    1.000
    H157     H        0.20000    0.57430    0.14360    1.000
    C198     C        0.21420    0.46380    0.41170    1.000
    H158     H        0.24220    0.48730    0.39770    1.000
    C199     C        0.15940    0.57250    0.01930    1.000
    H159     H        0.15050    0.57230    0.98710    1.000
    C200     C        0.21090    0.53820    0.08390    1.000
    H160     H        0.23630    0.51330    0.09740    1.000
    Cu11     Cu       0.48439    0.24352    0.73608    1.000
    Cu12     Cu       0.24176    0.48614    0.99691    1.000
    N41      N        0.03250    0.29336    0.21103    1.000
    N42      N        0.43990    0.28653    0.78412    1.000
    N43      N        0.28660    0.43611    0.95498    1.000
    N44      N        0.46490    0.70338    0.81218    1.000
    N45      N        0.18880    0.43612    0.03504    1.000
    N46      N        0.43880    0.28440    0.68507    1.000
    N47      N        0.30170    0.46264    0.53757    1.000
    N48      N        0.29290    0.53639    0.95858    1.000
    C201     C        0.38120    0.35030    0.62330    1.000
    C202     C        0.39710    0.64050    0.87390    1.000
    C203     C        0.37870    0.34480    0.85190    1.000
    C204     C        0.10160    0.29760    0.13970    1.000
    H161     H        0.12860    0.28190    0.11670    1.000
    C205     C        0.48080    0.30280    0.65100    1.000
    H162     H        0.52990    0.29350    0.64850    1.000
    C206     C        0.12340    0.37470    0.09930    1.000
    C207     C        0.34640    0.37640    0.88810    1.000
    C208     C        0.33670    0.33020    0.65820    1.000
    H163     H        0.28740    0.33890    0.66130    1.000
    C209     C        0.27210    0.37370    0.89990    1.000
    H164     H        0.24150    0.35170    0.88560    1.000
    C210     C        0.39420    0.26950    0.81640    1.000
    H165     H        0.38450    0.23740    0.81650    1.000
    C211     C        0.11830    0.43990    0.04620    1.000
    H166     H        0.09030    0.46340    0.03210    1.000
    C212     C        0.31850    0.56980    0.88340    1.000
    H167     H        0.31170    0.56920    0.85100    1.000
    C213     C        0.35330    0.38960    0.59310    1.000
    C214     C        0.22670    0.40030    0.05340    1.000
    H168     H        0.27550    0.39610    0.04420    1.000
    C215     C        0.07070    0.27300    0.17670    1.000
    H169     H        0.07700    0.24060    0.17760    1.000
    C216     C        0.36040    0.29760    0.85000    1.000
    H170     H        0.32610    0.28500    0.87070    1.000
    C217     C        0.50190    0.68480    0.84840    1.000
    H171     H        0.55120    0.69320    0.85250    1.000
    C218     C        0.39030    0.40800    0.91160    1.000
    H172     H        0.44070    0.40970    0.90530    1.000
    C219     C        0.08400    0.41020    0.07810    1.000
    H173     H        0.03430    0.41430    0.08530    1.000
    C220     C        0.47020    0.65380    0.88000    1.000
    H174     H        0.49760    0.64210    0.90510    1.000
    C221     C        0.35920    0.66020    0.83750    1.000
    H175     H        0.30970    0.65290    0.83270    1.000
    C222     C        0.36120    0.60400    0.90380    1.000
    C223     C        0.24400    0.40440    0.93350    1.000
    H176     H        0.19410    0.40270    0.94110    1.000
    C224     C        0.36810    0.39110    0.54530    1.000
    H177     H        0.39640    0.36770    0.53130    1.000
    C225     C        0.42710    0.36300    0.81800    1.000
    H178     H        0.43910    0.39480    0.81780    1.000
    C226     C        0.35850    0.43730    0.94450    1.000
    H179     H        0.38850    0.45870    0.96010    1.000
    C227     C        0.19690    0.36940    0.08540    1.000
    H180     H        0.22550    0.34520    0.09770    1.000
    C228     C        0.39500    0.69130    0.80780    1.000
    H181     H        0.36810    0.70440    0.78330    1.000
    C229     C        0.05110    0.36730    0.17280    1.000
    H182     H        0.04270    0.39960    0.17190    1.000
    C230     C        0.02330    0.34060    0.20910    1.000
    H183     H        0.99740    0.35560    0.23310    1.000
    C231     C        0.37020    0.60370    0.95230    1.000
    H184     H        0.39980    0.62600    0.96710    1.000
    C232     C        0.45640    0.33320    0.78500    1.000
    H185     H        0.48860    0.34520    0.76260    1.000
    C233     C        0.09190    0.34570    0.13730    1.000
    C234     C        0.36710    0.29760    0.68780    1.000
    H186     H        0.33740    0.28400    0.71070    1.000
    C235     C        0.45310    0.33510    0.61950    1.000
    H187     H        0.48320    0.34670    0.59570    1.000
    C236     C        0.33420    0.56950    0.97780    1.000
    H188     H        0.33910    0.56980    0.01030    1.000
    C237     C        0.31210    0.42580    0.61190    1.000
    H189     H        0.30000    0.42570    0.64360    1.000
    C238     C        0.28580    0.53620    0.91170    1.000
    H190     H        0.25780    0.51270    0.89770    1.000
    C239     C        0.34060    0.42750    0.51930    1.000
    H191     H        0.34950    0.42770    0.48710    1.000
    C240     C        0.28910    0.46180    0.58390    1.000
    H192     H        0.26370    0.48670    0.59740    1.000
    Cu13     Cu       0.98439    0.25648    0.26392    1.000
    Cu14     Cu       0.74176    0.01386    0.00309    1.000
    N49      N        0.53250    0.20664    0.78897    1.000
    N50      N        0.93990    0.21347    0.21588    1.000
    N51      N        0.78660    0.06389    0.04502    1.000
    N52      N        0.96490    0.79662    0.18782    1.000
    N53      N        0.68880    0.06388    0.96496    1.000
    N54      N        0.93880    0.21560    0.31493    1.000
    N55      N        0.80170    0.03736    0.46243    1.000
    N56      N        0.79290    0.96361    0.04142    1.000
    C241     C        0.88120    0.14970    0.37670    1.000
    C242     C        0.89710    0.85950    0.12610    1.000
    C243     C        0.87870    0.15520    0.14810    1.000
    C244     C        0.60160    0.20240    0.86030    1.000
    H193     H        0.62860    0.21810    0.88330    1.000
    C245     C        0.98080    0.19720    0.34900    1.000
    H194     H        0.02990    0.20650    0.35150    1.000
    C246     C        0.62340    0.12530    0.90070    1.000
    C247     C        0.84640    0.12360    0.11190    1.000
    C248     C        0.83670    0.16980    0.34180    1.000
    H195     H        0.78740    0.16110    0.33870    1.000
    C249     C        0.77210    0.12630    0.10010    1.000
    H196     H        0.74150    0.14830    0.11440    1.000
    C250     C        0.89420    0.23050    0.18360    1.000
    H197     H        0.88450    0.26260    0.18350    1.000
    C251     C        0.61830    0.06010    0.95380    1.000
    H198     H        0.59030    0.03660    0.96790    1.000
    C252     C        0.81850    0.93020    0.11660    1.000
    H199     H        0.81170    0.93080    0.14900    1.000
    C253     C        0.85330    0.11040    0.40690    1.000
    C254     C        0.72670    0.09970    0.94660    1.000
    H200     H        0.77550    0.10390    0.95580    1.000
    C255     C        0.57070    0.22700    0.82330    1.000
    H201     H        0.57700    0.25940    0.82240    1.000
    C256     C        0.86040    0.20240    0.15000    1.000
    H202     H        0.82610    0.21500    0.12930    1.000
    C257     C        0.00190    0.81520    0.15160    1.000
    H203     H        0.05120    0.80680    0.14750    1.000
    C258     C        0.89030    0.09200    0.08840    1.000
    H204     H        0.94070    0.09030    0.09470    1.000
    C259     C        0.58400    0.08980    0.92190    1.000
    H205     H        0.53430    0.08570    0.91470    1.000
    C260     C        0.97020    0.84620    0.12000    1.000
    H206     H        0.99760    0.85790    0.09490    1.000
    C261     C        0.85920    0.83980    0.16250    1.000
    H207     H        0.80970    0.84710    0.16730    1.000
    C262     C        0.86120    0.89600    0.09620    1.000
    C263     C        0.74400    0.09560    0.06650    1.000
    H208     H        0.69410    0.09730    0.05890    1.000
    C264     C        0.86810    0.10890    0.45470    1.000
    H209     H        0.89640    0.13230    0.46870    1.000
    C265     C        0.92710    0.13700    0.18200    1.000
    H210     H        0.93910    0.10520    0.18220    1.000
    C266     C        0.85850    0.06270    0.05550    1.000
    H211     H        0.88850    0.04130    0.03990    1.000
    C267     C        0.69690    0.13060    0.91460    1.000
    H212     H        0.72550    0.15480    0.90230    1.000
    C268     C        0.89500    0.80870    0.19220    1.000
    H213     H        0.86810    0.79560    0.21670    1.000
    C269     C        0.55110    0.13270    0.82720    1.000
    H214     H        0.54270    0.10040    0.82810    1.000
    C270     C        0.52330    0.15940    0.79090    1.000
    H215     H        0.49740    0.14440    0.76690    1.000
    C271     C        0.87020    0.89630    0.04770    1.000
    H216     H        0.89980    0.87400    0.03290    1.000
    C272     C        0.95640    0.16680    0.21500    1.000
    H217     H        0.98860    0.15480    0.23740    1.000
    C273     C        0.59190    0.15430    0.86270    1.000
    C274     C        0.86710    0.20240    0.31220    1.000
    H218     H        0.83740    0.21600    0.28930    1.000
    C275     C        0.95310    0.16490    0.38050    1.000
    H219     H        0.98320    0.15330    0.40430    1.000
    C276     C        0.83420    0.93050    0.02220    1.000
    H220     H        0.83910    0.93020    0.98970    1.000
    C277     C        0.81210    0.07420    0.38810    1.000
    H221     H        0.80000    0.07430    0.35640    1.000
    C278     C        0.78580    0.96380    0.08830    1.000
    H222     H        0.75780    0.98730    0.10230    1.000
    C279     C        0.84060    0.07250    0.48070    1.000
    H223     H        0.84950    0.07230    0.51290    1.000
    C280     C        0.78910    0.03820    0.41610    1.000
    H224     H        0.76370    0.01330    0.40260    1.000
    Cu15     Cu       0.51561    0.74352    0.76392    1.000
    Cu16     Cu       0.75824    0.98614    0.50309    1.000
    N57      N        0.96750    0.79336    0.28897    1.000
    N58      N        0.56010    0.78653    0.71588    1.000
    N59      N        0.71340    0.93611    0.54502    1.000
    N60      N        0.53510    0.20338    0.68782    1.000
    N61      N        0.81120    0.93612    0.46496    1.000
    N62      N        0.56120    0.78440    0.81493    1.000
    N63      N        0.69830    0.96264    0.96243    1.000
    N64      N        0.70710    0.03639    0.54142    1.000
    C281     C        0.61880    0.85030    0.87670    1.000
    C282     C        0.60290    0.14050    0.62610    1.000
    C283     C        0.62130    0.84480    0.64810    1.000
    C284     C        0.89840    0.79760    0.36030    1.000
    H225     H        0.87140    0.78190    0.38330    1.000
    C285     C        0.51920    0.80280    0.84900    1.000
    H226     H        0.47010    0.79350    0.85150    1.000
    C286     C        0.87660    0.87470    0.40070    1.000
    C287     C        0.65360    0.87640    0.61190    1.000
    C288     C        0.66330    0.83020    0.84180    1.000
    H227     H        0.71260    0.83890    0.83870    1.000
    C289     C        0.72790    0.87370    0.60010    1.000
    H228     H        0.75850    0.85170    0.61440    1.000
    C290     C        0.60580    0.76950    0.68360    1.000
    H229     H        0.61550    0.73740    0.68350    1.000
    C291     C        0.88170    0.93990    0.45380    1.000
    H230     H        0.90970    0.96340    0.46790    1.000
    C292     C        0.68150    0.06980    0.61660    1.000
    H231     H        0.68830    0.06920    0.64900    1.000
    C293     C        0.64670    0.88960    0.90690    1.000
    C294     C        0.77330    0.90030    0.44660    1.000
    H232     H        0.72450    0.89610    0.45580    1.000
    C295     C        0.92930    0.77300    0.32330    1.000
    H233     H        0.92300    0.74060    0.32240    1.000
    C296     C        0.63960    0.79760    0.65000    1.000
    H234     H        0.67390    0.78500    0.62930    1.000
    C297     C        0.49810    0.18480    0.65160    1.000
    H235     H        0.44880    0.19320    0.64750    1.000
    C298     C        0.60970    0.90800    0.58840    1.000
    H236     H        0.55930    0.90970    0.59470    1.000
    C299     C        0.91600    0.91020    0.42190    1.000
    H237     H        0.96570    0.91430    0.41470    1.000
    C300     C        0.52980    0.15380    0.62000    1.000
    H238     H        0.50240    0.14210    0.59490    1.000
    C301     C        0.64080    0.16020    0.66250    1.000
    H239     H        0.69030    0.15290    0.66730    1.000
    C302     C        0.63880    0.10400    0.59620    1.000
    C303     C        0.75600    0.90440    0.56650    1.000
    H240     H        0.80590    0.90270    0.55890    1.000
    C304     C        0.63190    0.89110    0.95470    1.000
    H241     H        0.60360    0.86770    0.96870    1.000
    C305     C        0.57290    0.86300    0.68200    1.000
    H242     H        0.56090    0.89480    0.68220    1.000
    C306     C        0.64150    0.93730    0.55550    1.000
    H243     H        0.61150    0.95870    0.53990    1.000
    C307     C        0.80310    0.86940    0.41460    1.000
    H244     H        0.77450    0.84520    0.40230    1.000
    C308     C        0.60500    0.19130    0.69220    1.000
    H245     H        0.63190    0.20440    0.71670    1.000
    C309     C        0.94890    0.86730    0.32720    1.000
    H246     H        0.95730    0.89960    0.32810    1.000
    C310     C        0.97670    0.84060    0.29090    1.000
    H247     H        0.00260    0.85560    0.26690    1.000
    C311     C        0.62980    0.10370    0.54770    1.000
    H248     H        0.60020    0.12600    0.53290    1.000
    C312     C        0.54360    0.83320    0.71500    1.000
    H249     H        0.51140    0.84520    0.73740    1.000
    C313     C        0.90810    0.84570    0.36270    1.000
    C314     C        0.63290    0.79760    0.81220    1.000
    H250     H        0.66260    0.78400    0.78930    1.000
    C315     C        0.54690    0.83510    0.88050    1.000
    H251     H        0.51680    0.84670    0.90430    1.000
    C316     C        0.66580    0.06950    0.52220    1.000
    H252     H        0.66090    0.06980    0.48970    1.000
    C317     C        0.68790    0.92580    0.88810    1.000
    H253     H        0.70000    0.92570    0.85640    1.000
    C318     C        0.71420    0.03620    0.58830    1.000
    H254     H        0.74220    0.01270    0.60230    1.000
    C319     C        0.65940    0.92750    0.98070    1.000
    H255     H        0.65050    0.92770    0.01290    1.000
    C320     C        0.71090    0.96180    0.91610    1.000
    H256     H        0.73630    0.98670    0.90260    1.000
