data_functionalizedCrystal
_audit_creation_method	'EQeq! by Chris Wilmer'
_symmetry_space_group_name_H-M	'P1'
_symmetry_Int_Tables_number	1
_symmetry_cell_setting	triclinic
loop_
_symmetry_equiv_pos_as_xyz
  x,y,z
_cell_length_a	15.0877
_cell_length_b	10.2027
_cell_length_c	18.6376
_cell_angle_alpha	90
_cell_angle_beta	102.521
_cell_angle_gamma	90
loop_
_atom_site_label
_atom_site_type_symbol
_atom_site_fract_x
_atom_site_fract_y
_atom_site_fract_z
_atom_site_charge
Mof_V 	V 	0.1606	0.61538	0.08485	1.704
Mof_V 	V 	0.24829	0.5462	0.28319	1.705
Mof_P 	P 	0.28632	0.87848	0.07721	0.525
Mof_P 	P 	0.66411	0.83098	0.16562	0.476
Mof_O 	O 	0.20149	0.7978	0.07685	-0.582
Mof_O 	O 	0.29072	0.9282	0.00058	-0.536
Mof_O 	O 	0.67506	0.9257	0.1045	-0.548
Mof_O 	O 	0.20282	0.6442	0.19135	-0.737
Mof_O 	O 	0.73425	0.7218	0.17027	-0.534
Mof_O 	O 	0.28878	0.0006	0.12552	-0.53
Mof_O 	O 	0.671	0.9001	0.23946	-0.565
Mof_C 	C 	0.384	0.7783	0.1112	-0.404
Mof_H 	H 	0.3762	0.7344	0.1568	0.105
Mof_H 	H 	0.3871	0.7092	0.0745	0.096
Mof_C 	C 	0.5539	0.7572	0.14274	-0.371
Mof_H 	H 	0.5505	0.7016	0.0987	0.088
Mof_H 	H 	0.547	0.699	0.1837	0.074
Mof_C 	C 	0.4739	0.8533	0.12749	0.189
Mof_H 	H 	0.4766	0.9107	0.1707	-0.046
Mof_H 	H 	0.4779	0.9094	0.085	-0.102
Mof_V 	V 	0.6606	0.11538	0.08485	1.702
Mof_V 	V 	0.74829	0.0462	0.28319	1.705
Mof_P 	P 	0.78632	0.37848	0.07721	0.522
Mof_P 	P 	0.16411	0.33098	0.16562	0.476
Mof_O 	O 	0.70149	0.2978	0.07685	-0.584
Mof_O 	O 	0.79072	0.4282	0.00058	-0.539
Mof_O 	O 	0.17506	0.4257	0.1045	-0.552
Mof_O 	O 	0.70282	0.1442	0.19135	-0.739
Mof_O 	O 	0.23425	0.2218	0.17027	-0.535
Mof_O 	O 	0.78878	0.5006	0.12552	-0.524
Mof_O 	O 	0.171	0.4001	0.23946	-0.567
Mof_C 	C 	0.884	0.2783	0.1112	-0.404
Mof_H 	H 	0.8762	0.2344	0.1568	0.105
Mof_H 	H 	0.8871	0.2092	0.0745	0.095
Mof_C 	C 	0.0539	0.2572	0.14274	-0.372
Mof_H 	H 	0.0505	0.2016	0.0987	0.087
Mof_H 	H 	0.047	0.199	0.1837	0.074
Mof_C 	C 	0.9739	0.3533	0.12749	0.19
Mof_H 	H 	0.9766	0.4107	0.1707	-0.047
Mof_H 	H 	0.9779	0.4094	0.085	-0.104
Mof_V 	V 	0.8394	0.61538	0.41515	1.705
Mof_V 	V 	0.75171	0.5462	0.21681	1.706
Mof_P 	P 	0.71368	0.87848	0.42279	0.524
Mof_P 	P 	0.33589	0.83098	0.33438	0.477
Mof_O 	O 	0.79851	0.7978	0.42315	-0.582
Mof_O 	O 	0.70928	0.9282	0.49942	-0.538
Mof_O 	O 	0.32494	0.9257	0.3955	-0.551
Mof_O 	O 	0.79718	0.6442	0.30865	-0.737
Mof_O 	O 	0.26575	0.7218	0.32973	-0.534
Mof_O 	O 	0.71122	0.0006	0.37448	-0.526
Mof_O 	O 	0.329	0.9001	0.26054	-0.565
Mof_C 	C 	0.616	0.7783	0.3888	-0.405
Mof_H 	H 	0.6238	0.7344	0.3432	0.105
Mof_H 	H 	0.6129	0.7092	0.4255	0.096
Mof_C 	C 	0.4461	0.7572	0.35726	-0.372
Mof_H 	H 	0.4495	0.7016	0.4013	0.088
Mof_H 	H 	0.453	0.699	0.3163	0.075
Mof_C 	C 	0.5261	0.8533	0.37251	0.19
Mof_H 	H 	0.5234	0.9107	0.3293	-0.047
Mof_H 	H 	0.5221	0.9094	0.415	-0.104
Mof_V 	V 	0.3394	0.11538	0.41515	1.705
Mof_V 	V 	0.25171	0.0462	0.21681	1.705
Mof_P 	P 	0.21368	0.37848	0.42279	0.522
Mof_P 	P 	0.83589	0.33098	0.33438	0.477
Mof_O 	O 	0.29851	0.2978	0.42315	-0.583
Mof_O 	O 	0.20928	0.4282	0.49942	-0.538
Mof_O 	O 	0.82494	0.4257	0.3955	-0.552
Mof_O 	O 	0.29718	0.1442	0.30865	-0.738
Mof_O 	O 	0.76575	0.2218	0.32973	-0.535
Mof_O 	O 	0.21122	0.5006	0.37448	-0.524
Mof_O 	O 	0.829	0.4001	0.26054	-0.567
Mof_C 	C 	0.116	0.2783	0.3888	-0.405
Mof_H 	H 	0.1238	0.2344	0.3432	0.105
Mof_H 	H 	0.1129	0.2092	0.4255	0.096
Mof_C 	C 	0.9461	0.2572	0.35726	-0.372
Mof_H 	H 	0.9495	0.2016	0.4013	0.088
Mof_H 	H 	0.953	0.199	0.3163	0.074
Mof_C 	C 	0.0261	0.3533	0.37251	0.19
Mof_H 	H 	0.0234	0.4107	0.3293	-0.047
Mof_H 	H 	0.0221	0.4094	0.415	-0.104
Mof_V 	V 	0.8394	0.38462	0.91515	1.705
Mof_V 	V 	0.75171	0.4538	0.71681	1.706
Mof_P 	P 	0.71368	0.12152	0.92279	0.526
Mof_P 	P 	0.33589	0.16902	0.83438	0.477
Mof_O 	O 	0.79851	0.2022	0.92315	-0.582
Mof_O 	O 	0.70928	0.0718	0.99942	-0.536
Mof_O 	O 	0.32494	0.0743	0.8955	-0.548
Mof_O 	O 	0.79718	0.3558	0.80865	-0.737
Mof_O 	O 	0.26575	0.2782	0.82973	-0.534
Mof_O 	O 	0.71122	0.9994	0.87448	-0.53
Mof_O 	O 	0.329	0.0999	0.76054	-0.565
Mof_C 	C 	0.616	0.2217	0.8888	-0.404
Mof_H 	H 	0.6238	0.2656	0.8432	0.105
Mof_H 	H 	0.6129	0.2908	0.9255	0.096
Mof_C 	C 	0.4461	0.2428	0.85726	-0.371
Mof_H 	H 	0.4495	0.2984	0.9013	0.088
Mof_H 	H 	0.453	0.301	0.8163	0.074
Mof_C 	C 	0.5261	0.1467	0.87251	0.189
Mof_H 	H 	0.5234	0.0893	0.8293	-0.046
Mof_H 	H 	0.5221	0.0906	0.915	-0.102
Mof_V 	V 	0.3394	0.88462	0.91515	1.702
Mof_V 	V 	0.25171	0.9538	0.71681	1.705
Mof_P 	P 	0.21368	0.62152	0.92279	0.522
Mof_P 	P 	0.83589	0.66902	0.83438	0.476
Mof_O 	O 	0.29851	0.7022	0.92315	-0.584
Mof_O 	O 	0.20928	0.5718	0.99942	-0.539
Mof_O 	O 	0.82494	0.5743	0.8955	-0.552
Mof_O 	O 	0.29718	0.8558	0.80865	-0.739
Mof_O 	O 	0.76575	0.7782	0.82973	-0.535
Mof_O 	O 	0.21122	0.4994	0.87448	-0.524
Mof_O 	O 	0.829	0.5999	0.76054	-0.567
Mof_C 	C 	0.116	0.7217	0.8888	-0.404
Mof_H 	H 	0.1238	0.7656	0.8432	0.105
Mof_H 	H 	0.1129	0.7908	0.9255	0.095
Mof_C 	C 	0.9461	0.7428	0.85726	-0.372
Mof_H 	H 	0.9495	0.7984	0.9013	0.087
Mof_H 	H 	0.953	0.801	0.8163	0.074
Mof_C 	C 	0.0261	0.6467	0.87251	0.19
Mof_H 	H 	0.0234	0.5893	0.8293	-0.047
Mof_H 	H 	0.0221	0.5906	0.915	-0.104
Mof_V 	V 	0.1606	0.38462	0.58485	1.705
Mof_V 	V 	0.24829	0.4538	0.78319	1.706
Mof_P 	P 	0.28632	0.12152	0.57721	0.524
Mof_P 	P 	0.66411	0.16902	0.66562	0.477
Mof_O 	O 	0.20149	0.2022	0.57685	-0.582
Mof_O 	O 	0.29072	0.0718	0.50058	-0.538
Mof_O 	O 	0.67506	0.0743	0.6045	-0.551
Mof_O 	O 	0.20282	0.3558	0.69135	-0.737
Mof_O 	O 	0.73425	0.2782	0.67027	-0.534
Mof_O 	O 	0.28878	0.9994	0.62552	-0.526
Mof_O 	O 	0.671	0.0999	0.73946	-0.565
Mof_C 	C 	0.384	0.2217	0.6112	-0.405
Mof_H 	H 	0.3762	0.2656	0.6568	0.105
Mof_H 	H 	0.3871	0.2908	0.5745	0.096
Mof_C 	C 	0.5539	0.2428	0.64274	-0.372
Mof_H 	H 	0.5505	0.2984	0.5987	0.088
Mof_H 	H 	0.547	0.301	0.6837	0.075
Mof_C 	C 	0.4739	0.1467	0.62749	0.19
Mof_H 	H 	0.4766	0.0893	0.6707	-0.047
Mof_H 	H 	0.4779	0.0906	0.585	-0.104
Mof_V 	V 	0.6606	0.88462	0.58485	1.705
Mof_V 	V 	0.74829	0.9538	0.78319	1.705
Mof_P 	P 	0.78632	0.62152	0.57721	0.522
Mof_P 	P 	0.16411	0.66902	0.66562	0.477
Mof_O 	O 	0.70149	0.7022	0.57685	-0.583
Mof_O 	O 	0.79072	0.5718	0.50058	-0.538
Mof_O 	O 	0.17506	0.5743	0.6045	-0.552
Mof_O 	O 	0.70282	0.8558	0.69135	-0.738
Mof_O 	O 	0.23425	0.7782	0.67027	-0.535
Mof_O 	O 	0.78878	0.4994	0.62552	-0.524
Mof_O 	O 	0.171	0.5999	0.73946	-0.567
Mof_C 	C 	0.884	0.7217	0.6112	-0.405
Mof_H 	H 	0.8762	0.7656	0.6568	0.105
Mof_H 	H 	0.8871	0.7908	0.5745	0.096
Mof_C 	C 	0.0539	0.7428	0.64274	-0.372
Mof_H 	H 	0.0505	0.7984	0.5987	0.088
Mof_H 	H 	0.047	0.801	0.6837	0.074
Mof_C 	C 	0.9739	0.6467	0.62749	0.19
Mof_H 	H 	0.9766	0.5893	0.6707	-0.047
Mof_H 	H 	0.9779	0.5906	0.585	-0.104
_end
