data_functionalizedCrystal
_audit_creation_method	'EQeq! by Chris Wilmer'
_symmetry_space_group_name_H-M	'P1'
_symmetry_Int_Tables_number	1
_symmetry_cell_setting	triclinic
loop_
_symmetry_equiv_pos_as_xyz
  x,y,z
_cell_length_a	8.4181
_cell_length_b	15.8885
_cell_length_c	15.8885
_cell_angle_alpha	90
_cell_angle_beta	90
_cell_angle_gamma	90
loop_
_atom_site_label
_atom_site_type_symbol
_atom_site_fract_x
_atom_site_fract_y
_atom_site_fract_z
_atom_site_charge
Mof_Ca	Ca	0.0022	0.75931	0.3806	1.357
Mof_Ca	Ca	0.0026	0.26036	0.3816	1.342
Mof_Ca	Ca	0.9978	0.24069	0.8806	1.368
Mof_Ca	Ca	0.9974	0.73964	0.8816	1.351
Mof_Ca	Ca	0.5022	0.74069	0.3806	1.354
Mof_Ca	Ca	0.5026	0.23964	0.3816	1.351
Mof_Ca	Ca	0.4978	0.25931	0.8806	1.37
Mof_Ca	Ca	0.4974	0.76036	0.8816	1.363
Mof_Zr	Zr	0.2513	0.50024	0.631	3.2
Mof_Zr	Zr	0.7487	0.49976	0.131	3.2
Mof_Zr	Zr	0.7513	0.99976	0.631	3.2
Mof_Zr	Zr	0.2487	0.00024	0.131	3.199
Mof_C 	C 	0.0525	0.6145	0.5205	0.192
Mof_C 	C 	0.0452	0.3838	0.7377	0.259
Mof_C 	C 	0.4572	0.3865	0.5181	0.228
Mof_C 	C 	0.4498	0.609	0.7452	0.254
Mof_C 	C 	0.2134	0.3674	0.766	0.236
Mof_C 	C 	0.2286	0.6424	0.5002	0.347
Mof_C 	C 	0.2777	0.3628	0.5018	0.324
Mof_C 	C 	0.2767	0.6305	0.7675	0.259
Mof_C 	C 	0.9475	0.3855	0.0205	0.155
Mof_C 	C 	0.9548	0.6162	0.2377	0.258
Mof_C 	C 	0.5428	0.6135	0.0181	0.184
Mof_C 	C 	0.5502	0.391	0.2452	0.253
Mof_C 	C 	0.7866	0.6326	0.266	0.234
Mof_C 	C 	0.7714	0.3576	0.0002	0.297
Mof_C 	C 	0.7223	0.6372	0.0018	0.286
Mof_C 	C 	0.7233	0.3695	0.2675	0.257
Mof_C 	C 	0.5525	0.8855	0.5205	0.191
Mof_C 	C 	0.5452	0.1162	0.7377	0.258
Mof_C 	C 	0.9572	0.1135	0.5181	0.235
Mof_C 	C 	0.9498	0.891	0.7452	0.245
Mof_C 	C 	0.7134	0.1326	0.766	0.237
Mof_C 	C 	0.7286	0.8576	0.5002	0.347
Mof_C 	C 	0.7777	0.1372	0.5018	0.323
Mof_C 	C 	0.7767	0.8695	0.7675	0.26
Mof_C 	C 	0.4475	0.1145	0.0205	0.149
Mof_C 	C 	0.4548	0.8838	0.2377	0.256
Mof_C 	C 	0.0428	0.8865	0.0181	0.197
Mof_C 	C 	0.0502	0.109	0.2452	0.245
Mof_C 	C 	0.2866	0.8674	0.266	0.235
Mof_C 	C 	0.2714	0.1424	0.0002	0.288
Mof_C 	C 	0.2223	0.8628	0.0018	0.28
Mof_C 	C 	0.2233	0.1305	0.2675	0.259
Mof_O 	O 	0.2554	0.3082	0.4495	-0.477
Mof_O 	O 	0.2524	0.6945	0.4482	-0.5
Mof_O 	O 	0.2497	0.6834	0.8269	-0.444
Mof_O 	O 	0.2468	0.3167	0.8254	-0.437
Mof_O 	O 	0.1794	0.602	0.7149	-0.625
Mof_O 	O 	0.4688	0.4396	0.5781	-0.533
Mof_O 	O 	0.1776	0.4082	0.5378	-0.664
Mof_O 	O 	0.9368	0.6399	0.4729	-0.322
Mof_O 	O 	0.5591	0.6581	0.7749	-0.356
Mof_O 	O 	0.5639	0.3566	0.4749	-0.349
Mof_O 	O 	0.3221	0.5882	0.5331	-0.663
Mof_O 	O 	0.0363	0.563	0.5798	-0.526
Mof_O 	O 	0.9372	0.3438	0.7756	-0.366
Mof_O 	O 	0.3206	0.3995	0.7182	-0.607
Mof_O 	O 	0.0341	0.4481	0.6941	-0.551
Mof_O 	O 	0.4622	0.5496	0.6964	-0.575
Mof_O 	O 	0.7446	0.6918	0.9495	-0.444
Mof_O 	O 	0.7476	0.3055	0.9482	-0.46
Mof_O 	O 	0.7503	0.3166	0.3269	-0.445
Mof_O 	O 	0.7532	0.6833	0.3254	-0.437
Mof_O 	O 	0.8206	0.398	0.2149	-0.627
Mof_O 	O 	0.5312	0.5604	0.0781	-0.531
Mof_O 	O 	0.8224	0.5918	0.0378	-0.664
Mof_O 	O 	0.0632	0.3601	0.9729	-0.283
Mof_O 	O 	0.4409	0.3419	0.2749	-0.36
Mof_O 	O 	0.4361	0.6434	0.9749	-0.31
Mof_O 	O 	0.6779	0.4118	0.0331	-0.663
Mof_O 	O 	0.9637	0.437	0.0798	-0.524
Mof_O 	O 	0.0628	0.6562	0.2756	-0.369
Mof_O 	O 	0.6794	0.6005	0.2182	-0.609
Mof_O 	O 	0.9659	0.5519	0.1941	-0.556
Mof_O 	O 	0.5378	0.4504	0.1964	-0.58
Mof_O 	O 	0.7554	0.1918	0.4495	-0.475
Mof_O 	O 	0.7524	0.8055	0.4482	-0.501
Mof_O 	O 	0.7497	0.8166	0.8269	-0.447
Mof_O 	O 	0.7468	0.1833	0.8254	-0.437
Mof_O 	O 	0.6794	0.898	0.7149	-0.627
Mof_O 	O 	0.9688	0.0604	0.5781	-0.53
Mof_O 	O 	0.6776	0.0918	0.5378	-0.661
Mof_O 	O 	0.4368	0.8601	0.4729	-0.321
Mof_O 	O 	0.0591	0.8419	0.7749	-0.347
Mof_O 	O 	0.0639	0.1434	0.4749	-0.354
Mof_O 	O 	0.8221	0.9118	0.5331	-0.665
Mof_O 	O 	0.5363	0.937	0.5798	-0.527
Mof_O 	O 	0.4372	0.1562	0.7756	-0.364
Mof_O 	O 	0.8206	0.1005	0.7182	-0.604
Mof_O 	O 	0.5341	0.0519	0.6941	-0.548
Mof_O 	O 	0.9622	0.9504	0.6964	-0.577
Mof_O 	O 	0.2446	0.8082	0.9495	-0.44
Mof_O 	O 	0.2476	0.1945	0.9482	-0.452
Mof_O 	O 	0.2503	0.1834	0.3269	-0.447
Mof_O 	O 	0.2532	0.8167	0.3254	-0.437
Mof_O 	O 	0.3206	0.102	0.2149	-0.629
Mof_O 	O 	0.0312	0.9396	0.0781	-0.528
Mof_O 	O 	0.3224	0.9082	0.0378	-0.66
Mof_O 	O 	0.5632	0.1399	0.9729	-0.278
Mof_O 	O 	0.9409	0.1581	0.2749	-0.35
Mof_O 	O 	0.9361	0.8566	0.9749	-0.321
Mof_O 	O 	0.1779	0.0882	0.0331	-0.665
Mof_O 	O 	0.4637	0.063	0.0798	-0.525
Mof_O 	O 	0.5628	0.8438	0.2756	-0.367
Mof_O 	O 	0.1794	0.8995	0.2182	-0.607
Mof_O 	O 	0.4659	0.9481	0.1941	-0.553
Mof_O 	O 	0.0378	0.0496	0.1964	-0.582
_end
