data_functionalizedCrystal
_audit_creation_method	'EQeq! by Chris Wilmer'
_symmetry_space_group_name_H-M	'P1'
_symmetry_Int_Tables_number	1
_symmetry_cell_setting	triclinic
loop_
_symmetry_equiv_pos_as_xyz
  x,y,z
_cell_length_a	17.35
_cell_length_b	17.35
_cell_length_c	17.35
_cell_angle_alpha	90
_cell_angle_beta	90
_cell_angle_gamma	90
loop_
_atom_site_label
_atom_site_type_symbol
_atom_site_fract_x
_atom_site_fract_y
_atom_site_fract_z
_atom_site_charge
Mof_C 	C 	0.632	0.1079	0.7798	0.077
Mof_C 	C 	0.6796	0.0435	0.7792	-0.133
Mof_H 	H 	0.7146	0.0364	0.7392	0.057
Mof_C 	C 	0.6749	0.9897	0.8383	0.028
Mof_H 	H 	0.7068	0.9466	0.838	0.004
Mof_C 	C 	0.6226	0.0002	0.8981	-0.108
Mof_H 	H 	0.6194	0.9642	0.9376	0.055
Mof_C 	C 	0.5749	0.0646	0.8986	0.029
Mof_H 	H 	0.5399	0.0717	0.9386	0.015
Mof_C 	C 	0.5796	0.1185	0.8395	-0.129
Mof_H 	H 	0.5477	0.1615	0.8398	0.075
Mof_S 	S 	0.63529	0.17992	0.70924	-0.134
Mof_H 	H 	0.6717	0.0904	0.6162	0.025
Mof_C 	C 	0.868	0.8921	0.2798	0.078
Mof_C 	C 	0.8204	0.9565	0.2792	-0.136
Mof_H 	H 	0.7854	0.9636	0.2392	0.058
Mof_C 	C 	0.8251	0.0103	0.3383	0.032
Mof_H 	H 	0.7932	0.0534	0.338	0.004
Mof_C 	C 	0.8774	0.9998	0.3981	-0.112
Mof_H 	H 	0.8806	0.0358	0.4376	0.058
Mof_C 	C 	0.9251	0.9354	0.3986	0.033
Mof_H 	H 	0.9601	0.9283	0.4386	0.014
Mof_C 	C 	0.9204	0.8815	0.3395	-0.13
Mof_H 	H 	0.9523	0.8385	0.3398	0.077
Mof_S 	S 	0.86471	0.82008	0.20924	-0.133
Mof_H 	H 	0.8283	0.9096	0.1162	0.027
Mof_C 	C 	0.368	0.6079	0.7202	0.08
Mof_C 	C 	0.3204	0.5435	0.7208	-0.135
Mof_H 	H 	0.2854	0.5364	0.7608	0.059
Mof_C 	C 	0.3251	0.4897	0.6617	0.033
Mof_H 	H 	0.2932	0.4466	0.662	0.004
Mof_C 	C 	0.3774	0.5002	0.6019	-0.112
Mof_H 	H 	0.3806	0.4642	0.5624	0.058
Mof_C 	C 	0.4251	0.5646	0.6014	0.034
Mof_H 	H 	0.4601	0.5717	0.5614	0.014
Mof_C 	C 	0.4204	0.6185	0.6605	-0.13
Mof_H 	H 	0.4523	0.6615	0.6602	0.077
Mof_S 	S 	0.36471	0.67992	0.79076	-0.134
Mof_H 	H 	0.3283	0.5904	0.8838	0.026
Mof_C 	C 	0.132	0.3921	0.2202	0.08
Mof_C 	C 	0.1796	0.4565	0.2208	-0.136
Mof_H 	H 	0.2146	0.4636	0.2608	0.059
Mof_C 	C 	0.1749	0.5103	0.1617	0.033
Mof_H 	H 	0.2068	0.5534	0.162	0.004
Mof_C 	C 	0.1226	0.4998	0.1019	-0.113
Mof_H 	H 	0.1194	0.5358	0.0624	0.058
Mof_C 	C 	0.0749	0.4354	0.1014	0.034
Mof_H 	H 	0.0399	0.4283	0.0614	0.014
Mof_C 	C 	0.0796	0.3815	0.1605	-0.131
Mof_H 	H 	0.0477	0.3385	0.1602	0.076
Mof_S 	S 	0.13529	0.32008	0.29076	-0.134
Mof_H 	H 	0.1717	0.4096	0.3838	0.026
Mof_C 	C 	0.7798	0.632	0.1079	0.078
Mof_C 	C 	0.7792	0.6796	0.0435	-0.132
Mof_H 	H 	0.7392	0.7146	0.0364	0.058
Mof_C 	C 	0.8383	0.6749	0.9897	0.029
Mof_H 	H 	0.838	0.7068	0.9466	0.005
Mof_C 	C 	0.8981	0.6226	0.0002	-0.107
Mof_H 	H 	0.9376	0.6194	0.9642	0.056
Mof_C 	C 	0.8986	0.5749	0.0646	0.03
Mof_H 	H 	0.9386	0.5399	0.0717	0.016
Mof_C 	C 	0.8395	0.5796	0.1185	-0.128
Mof_H 	H 	0.8398	0.5477	0.1615	0.076
Mof_S 	S 	0.70924	0.63529	0.17992	-0.133
Mof_H 	H 	0.6162	0.6717	0.0904	0.026
Mof_C 	C 	0.2798	0.868	0.8921	0.079
Mof_C 	C 	0.2792	0.8204	0.9565	-0.135
Mof_H 	H 	0.2392	0.7854	0.9636	0.059
Mof_C 	C 	0.3383	0.8251	0.0103	0.033
Mof_H 	H 	0.338	0.7932	0.0534	0.004
Mof_C 	C 	0.3981	0.8774	0.9998	-0.112
Mof_H 	H 	0.4376	0.8806	0.0358	0.058
Mof_C 	C 	0.3986	0.9251	0.9354	0.033
Mof_H 	H 	0.4386	0.9601	0.9283	0.014
Mof_C 	C 	0.3395	0.9204	0.8815	-0.13
Mof_H 	H 	0.3398	0.9523	0.8385	0.077
Mof_S 	S 	0.20924	0.86471	0.82008	-0.133
Mof_H 	H 	0.1162	0.8283	0.9096	0.027
Mof_C 	C 	0.7202	0.368	0.6079	0.08
Mof_C 	C 	0.7208	0.3204	0.5435	-0.135
Mof_H 	H 	0.7608	0.2854	0.5364	0.059
Mof_C 	C 	0.6617	0.3251	0.4897	0.033
Mof_H 	H 	0.662	0.2932	0.4466	0.004
Mof_C 	C 	0.6019	0.3774	0.5002	-0.112
Mof_H 	H 	0.5624	0.3806	0.4642	0.058
Mof_C 	C 	0.6014	0.4251	0.5646	0.034
Mof_H 	H 	0.5614	0.4601	0.5717	0.014
Mof_C 	C 	0.6605	0.4204	0.6185	-0.13
Mof_H 	H 	0.6602	0.4523	0.6615	0.077
Mof_S 	S 	0.79076	0.36471	0.67992	-0.134
Mof_H 	H 	0.8838	0.3283	0.5904	0.026
Mof_C 	C 	0.2202	0.132	0.3921	0.08
Mof_C 	C 	0.2208	0.1796	0.4565	-0.136
Mof_H 	H 	0.2608	0.2146	0.4636	0.059
Mof_C 	C 	0.1617	0.1749	0.5103	0.033
Mof_H 	H 	0.162	0.2068	0.5534	0.004
Mof_C 	C 	0.1019	0.1226	0.4998	-0.113
Mof_H 	H 	0.0624	0.1194	0.5358	0.058
Mof_C 	C 	0.1014	0.0749	0.4354	0.034
Mof_H 	H 	0.0614	0.0399	0.4283	0.014
Mof_C 	C 	0.1605	0.0796	0.3815	-0.131
Mof_H 	H 	0.1602	0.0477	0.3385	0.076
Mof_S 	S 	0.29076	0.13529	0.32008	-0.134
Mof_H 	H 	0.3838	0.1717	0.4096	0.026
Mof_C 	C 	0.1079	0.7798	0.632	0.078
Mof_C 	C 	0.0435	0.7792	0.6796	-0.132
Mof_H 	H 	0.0364	0.7392	0.7146	0.058
Mof_C 	C 	0.9897	0.8383	0.6749	0.029
Mof_H 	H 	0.9466	0.838	0.7068	0.005
Mof_C 	C 	0.0002	0.8981	0.6226	-0.107
Mof_H 	H 	0.9642	0.9376	0.6194	0.056
Mof_C 	C 	0.0646	0.8986	0.5749	0.03
Mof_H 	H 	0.0717	0.9386	0.5399	0.016
Mof_C 	C 	0.1185	0.8395	0.5796	-0.128
Mof_H 	H 	0.1615	0.8398	0.5477	0.076
Mof_S 	S 	0.17992	0.70924	0.63529	-0.133
Mof_H 	H 	0.0904	0.6162	0.6717	0.026
Mof_C 	C 	0.8921	0.2798	0.868	0.079
Mof_C 	C 	0.9565	0.2792	0.8204	-0.135
Mof_H 	H 	0.9636	0.2392	0.7854	0.059
Mof_C 	C 	0.0103	0.3383	0.8251	0.033
Mof_H 	H 	0.0534	0.338	0.7932	0.004
Mof_C 	C 	0.9998	0.3981	0.8774	-0.112
Mof_H 	H 	0.0358	0.4376	0.8806	0.058
Mof_C 	C 	0.9354	0.3986	0.9251	0.033
Mof_H 	H 	0.9283	0.4386	0.9601	0.014
Mof_C 	C 	0.8815	0.3395	0.9204	-0.13
Mof_H 	H 	0.8385	0.3398	0.9523	0.077
Mof_S 	S 	0.82008	0.20924	0.86471	-0.133
Mof_H 	H 	0.9096	0.1162	0.8283	0.027
Mof_C 	C 	0.6079	0.7202	0.368	0.08
Mof_C 	C 	0.5435	0.7208	0.3204	-0.135
Mof_H 	H 	0.5364	0.7608	0.2854	0.059
Mof_C 	C 	0.4897	0.6617	0.3251	0.033
Mof_H 	H 	0.4466	0.662	0.2932	0.004
Mof_C 	C 	0.5002	0.6019	0.3774	-0.112
Mof_H 	H 	0.4642	0.5624	0.3806	0.058
Mof_C 	C 	0.5646	0.6014	0.4251	0.034
Mof_H 	H 	0.5717	0.5614	0.4601	0.014
Mof_C 	C 	0.6185	0.6605	0.4204	-0.13
Mof_H 	H 	0.6615	0.6602	0.4523	0.077
Mof_S 	S 	0.67992	0.79076	0.36471	-0.134
Mof_H 	H 	0.5904	0.8838	0.3283	0.026
Mof_C 	C 	0.3921	0.2202	0.132	0.08
Mof_C 	C 	0.4565	0.2208	0.1796	-0.136
Mof_H 	H 	0.4636	0.2608	0.2146	0.059
Mof_C 	C 	0.5103	0.1617	0.1749	0.033
Mof_H 	H 	0.5534	0.162	0.2068	0.004
Mof_C 	C 	0.4998	0.1019	0.1226	-0.113
Mof_H 	H 	0.5358	0.0624	0.1194	0.058
Mof_C 	C 	0.4354	0.1014	0.0749	0.034
Mof_H 	H 	0.4283	0.0614	0.0399	0.014
Mof_C 	C 	0.3815	0.1605	0.0796	-0.131
Mof_H 	H 	0.3385	0.1602	0.0477	0.076
Mof_S 	S 	0.32008	0.29076	0.13529	-0.134
Mof_H 	H 	0.4096	0.3838	0.1717	0.026
Mof_C 	C 	0.3579	0.382	0.9702	0.08
Mof_C 	C 	0.2935	0.4296	0.9708	-0.133
Mof_H 	H 	0.2864	0.4646	0.0108	0.057
Mof_C 	C 	0.2397	0.4249	0.9117	0.032
Mof_H 	H 	0.1966	0.4568	0.912	0.004
Mof_C 	C 	0.2502	0.3726	0.8519	-0.111
Mof_H 	H 	0.2142	0.3694	0.8124	0.058
Mof_C 	C 	0.3146	0.3249	0.8514	0.033
Mof_H 	H 	0.3217	0.2899	0.8114	0.015
Mof_C 	C 	0.3685	0.3296	0.9105	-0.13
Mof_H 	H 	0.4115	0.2977	0.9102	0.077
Mof_S 	S 	0.42992	0.38529	0.04076	-0.134
Mof_H 	H 	0.3404	0.4217	0.1338	0.026
Mof_C 	C 	0.1421	0.618	0.4702	0.08
Mof_C 	C 	0.2065	0.5704	0.4708	-0.135
Mof_H 	H 	0.2136	0.5354	0.5108	0.059
Mof_C 	C 	0.2603	0.5751	0.4117	0.033
Mof_H 	H 	0.3034	0.5432	0.412	0.004
Mof_C 	C 	0.2498	0.6274	0.3519	-0.112
Mof_H 	H 	0.2858	0.6306	0.3124	0.058
Mof_C 	C 	0.1854	0.6751	0.3514	0.034
Mof_H 	H 	0.1783	0.7101	0.3114	0.014
Mof_C 	C 	0.1315	0.6704	0.4105	-0.13
Mof_H 	H 	0.0885	0.7023	0.4102	0.077
Mof_S 	S 	0.07008	0.61471	0.54076	-0.134
Mof_H 	H 	0.1596	0.5783	0.6338	0.026
Mof_C 	C 	0.8579	0.118	0.0298	0.08
Mof_C 	C 	0.7935	0.0704	0.0292	-0.138
Mof_H 	H 	0.7864	0.0354	0.9892	0.061
Mof_C 	C 	0.7397	0.0751	0.0883	0.035
Mof_H 	H 	0.6966	0.0432	0.088	0.003
Mof_C 	C 	0.7502	0.1274	0.1481	-0.114
Mof_H 	H 	0.7142	0.1306	0.1876	0.058
Mof_C 	C 	0.8146	0.1751	0.1486	0.035
Mof_H 	H 	0.8217	0.2101	0.1886	0.014
Mof_C 	C 	0.8685	0.1704	0.0895	-0.131
Mof_H 	H 	0.9115	0.2023	0.0898	0.077
Mof_S 	S 	0.92992	0.11471	0.95924	-0.132
Mof_H 	H 	0.8404	0.0783	0.8662	0.027
Mof_C 	C 	0.6421	0.882	0.5298	0.08
Mof_C 	C 	0.7065	0.9296	0.5292	-0.135
Mof_H 	H 	0.7136	0.9646	0.4892	0.059
Mof_C 	C 	0.7603	0.9249	0.5883	0.033
Mof_H 	H 	0.8034	0.9568	0.588	0.004
Mof_C 	C 	0.7498	0.8726	0.6481	-0.112
Mof_H 	H 	0.7858	0.8694	0.6876	0.058
Mof_C 	C 	0.6854	0.8249	0.6486	0.034
Mof_H 	H 	0.6783	0.7899	0.6886	0.014
Mof_C 	C 	0.6315	0.8296	0.5895	-0.13
Mof_H 	H 	0.5885	0.7977	0.5898	0.077
Mof_S 	S 	0.57008	0.88529	0.45924	-0.133
Mof_H 	H 	0.6596	0.9217	0.3662	0.026
Mof_C 	C 	0.882	0.5298	0.6421	0.08
Mof_C 	C 	0.9296	0.5292	0.7065	-0.135
Mof_H 	H 	0.9646	0.4892	0.7136	0.059
Mof_C 	C 	0.9249	0.5883	0.7603	0.033
Mof_H 	H 	0.9568	0.588	0.8034	0.004
Mof_C 	C 	0.8726	0.6481	0.7498	-0.112
Mof_H 	H 	0.8694	0.6876	0.7858	0.058
Mof_C 	C 	0.8249	0.6486	0.6854	0.034
Mof_H 	H 	0.7899	0.6886	0.6783	0.014
Mof_C 	C 	0.8296	0.5895	0.6315	-0.13
Mof_H 	H 	0.7977	0.5898	0.5885	0.077
Mof_S 	S 	0.88529	0.45924	0.57008	-0.133
Mof_H 	H 	0.9217	0.3662	0.6596	0.026
Mof_C 	C 	0.118	0.0298	0.8579	0.08
Mof_C 	C 	0.0704	0.0292	0.7935	-0.138
Mof_H 	H 	0.0354	0.9892	0.7864	0.061
Mof_C 	C 	0.0751	0.0883	0.7397	0.035
Mof_H 	H 	0.0432	0.088	0.6966	0.003
Mof_C 	C 	0.1274	0.1481	0.7502	-0.114
Mof_H 	H 	0.1306	0.1876	0.7142	0.058
Mof_C 	C 	0.1751	0.1486	0.8146	0.035
Mof_H 	H 	0.2101	0.1886	0.8217	0.014
Mof_C 	C 	0.1704	0.0895	0.8685	-0.131
Mof_H 	H 	0.2023	0.0898	0.9115	0.077
Mof_S 	S 	0.11471	0.95924	0.92992	-0.132
Mof_H 	H 	0.0783	0.8662	0.8404	0.027
Mof_C 	C 	0.618	0.4702	0.1421	0.08
Mof_C 	C 	0.5704	0.4708	0.2065	-0.135
Mof_H 	H 	0.5354	0.5108	0.2136	0.059
Mof_C 	C 	0.5751	0.4117	0.2603	0.033
Mof_H 	H 	0.5432	0.412	0.3034	0.004
Mof_C 	C 	0.6274	0.3519	0.2498	-0.112
Mof_H 	H 	0.6306	0.3124	0.2858	0.058
Mof_C 	C 	0.6751	0.3514	0.1854	0.034
Mof_H 	H 	0.7101	0.3114	0.1783	0.014
Mof_C 	C 	0.6704	0.4105	0.1315	-0.13
Mof_H 	H 	0.7023	0.4102	0.0885	0.077
Mof_S 	S 	0.61471	0.54076	0.07008	-0.134
Mof_H 	H 	0.5783	0.6338	0.1596	0.026
Mof_C 	C 	0.382	0.9702	0.3579	0.08
Mof_C 	C 	0.4296	0.9708	0.2935	-0.133
Mof_H 	H 	0.4646	0.0108	0.2864	0.057
Mof_C 	C 	0.4249	0.9117	0.2397	0.032
Mof_H 	H 	0.4568	0.912	0.1966	0.004
Mof_C 	C 	0.3726	0.8519	0.2502	-0.111
Mof_H 	H 	0.3694	0.8124	0.2142	0.058
Mof_C 	C 	0.3249	0.8514	0.3146	0.033
Mof_H 	H 	0.2899	0.8114	0.3217	0.015
Mof_C 	C 	0.3296	0.9105	0.3685	-0.13
Mof_H 	H 	0.2977	0.9102	0.4115	0.077
Mof_S 	S 	0.38529	0.04076	0.42992	-0.134
Mof_H 	H 	0.4217	0.1338	0.3404	0.026
Mof_C 	C 	0.0298	0.8579	0.118	0.08
Mof_C 	C 	0.0292	0.7935	0.0704	-0.138
Mof_H 	H 	0.9892	0.7864	0.0354	0.061
Mof_C 	C 	0.0883	0.7397	0.0751	0.035
Mof_H 	H 	0.088	0.6966	0.0432	0.003
Mof_C 	C 	0.1481	0.7502	0.1274	-0.114
Mof_H 	H 	0.1876	0.7142	0.1306	0.058
Mof_C 	C 	0.1486	0.8146	0.1751	0.035
Mof_H 	H 	0.1886	0.8217	0.2101	0.014
Mof_C 	C 	0.0895	0.8685	0.1704	-0.131
Mof_H 	H 	0.0898	0.9115	0.2023	0.077
Mof_S 	S 	0.95924	0.92992	0.11471	-0.132
Mof_H 	H 	0.8662	0.8404	0.0783	0.027
Mof_C 	C 	0.5298	0.6421	0.882	0.08
Mof_C 	C 	0.5292	0.7065	0.9296	-0.135
Mof_H 	H 	0.4892	0.7136	0.9646	0.059
Mof_C 	C 	0.5883	0.7603	0.9249	0.033
Mof_H 	H 	0.588	0.8034	0.9568	0.004
Mof_C 	C 	0.6481	0.7498	0.8726	-0.112
Mof_H 	H 	0.6876	0.7858	0.8694	0.058
Mof_C 	C 	0.6486	0.6854	0.8249	0.034
Mof_H 	H 	0.6886	0.6783	0.7899	0.014
Mof_C 	C 	0.5895	0.6315	0.8296	-0.13
Mof_H 	H 	0.5898	0.5885	0.7977	0.077
Mof_S 	S 	0.45924	0.57008	0.88529	-0.133
Mof_H 	H 	0.3662	0.6596	0.9217	0.026
Mof_C 	C 	0.9702	0.3579	0.382	0.08
Mof_C 	C 	0.9708	0.2935	0.4296	-0.133
Mof_H 	H 	0.0108	0.2864	0.4646	0.057
Mof_C 	C 	0.9117	0.2397	0.4249	0.032
Mof_H 	H 	0.912	0.1966	0.4568	0.004
Mof_C 	C 	0.8519	0.2502	0.3726	-0.111
Mof_H 	H 	0.8124	0.2142	0.3694	0.058
Mof_C 	C 	0.8514	0.3146	0.3249	0.033
Mof_H 	H 	0.8114	0.3217	0.2899	0.015
Mof_C 	C 	0.9105	0.3685	0.3296	-0.13
Mof_H 	H 	0.9102	0.4115	0.2977	0.077
Mof_S 	S 	0.04076	0.42992	0.38529	-0.134
Mof_H 	H 	0.1338	0.3404	0.4217	0.026
Mof_C 	C 	0.4702	0.1421	0.618	0.08
Mof_C 	C 	0.4708	0.2065	0.5704	-0.135
Mof_H 	H 	0.5108	0.2136	0.5354	0.059
Mof_C 	C 	0.4117	0.2603	0.5751	0.033
Mof_H 	H 	0.412	0.3034	0.5432	0.004
Mof_C 	C 	0.3519	0.2498	0.6274	-0.112
Mof_H 	H 	0.3124	0.2858	0.6306	0.058
Mof_C 	C 	0.3514	0.1854	0.6751	0.034
Mof_H 	H 	0.3114	0.1783	0.7101	0.014
Mof_C 	C 	0.4105	0.1315	0.6704	-0.13
Mof_H 	H 	0.4102	0.0885	0.7023	0.077
Mof_S 	S 	0.54076	0.07008	0.61471	-0.134
Mof_H 	H 	0.6338	0.1596	0.5783	0.026
Mof_Ag	Ag	0.77358	0.22642	0.72642	0.481
Mof_Ag	Ag	0.72642	0.77358	0.22642	0.481
Mof_Ag	Ag	0.22642	0.72642	0.77358	0.481
Mof_Ag	Ag	0.27358	0.27358	0.27358	0.481
Mof_Ag	Ag	0.47642	0.52358	0.02358	0.48
Mof_Ag	Ag	0.02358	0.47642	0.52358	0.48
Mof_Ag	Ag	0.97642	0.97642	0.97642	0.478
Mof_Ag	Ag	0.52358	0.02358	0.47642	0.48
Mof_C 	C 	0.6286	0.125	0.6214	-0.066
Mof_C 	C 	0.8714	0.875	0.1214	-0.067
Mof_C 	C 	0.3714	0.625	0.8786	-0.066
Mof_C 	C 	0.1286	0.375	0.3786	-0.066
Mof_C 	C 	0.6214	0.6286	0.125	-0.066
Mof_C 	C 	0.1214	0.8714	0.875	-0.067
Mof_C 	C 	0.8786	0.3714	0.625	-0.066
Mof_C 	C 	0.3786	0.1286	0.375	-0.066
Mof_C 	C 	0.125	0.6214	0.6286	-0.066
Mof_C 	C 	0.875	0.1214	0.8714	-0.067
Mof_C 	C 	0.625	0.8786	0.3714	-0.066
Mof_C 	C 	0.375	0.3786	0.1286	-0.066
_end
