# CIF file generated by openbabel 3.1.0, see https://openbabel.org
data_I
_chemical_name_common 'image0'
_cell_length_a 23.6251
_cell_length_b 10.2528
_cell_length_c 7.8199
_cell_angle_alpha 90
_cell_angle_beta 90
_cell_angle_gamma 90
_space_group_name_H-M_alt 'P 1'
_space_group_name_Hall 'P 1'
loop_
    _symmetry_equiv_pos_as_xyz
    x,y,z
loop_
    _atom_site_label
    _atom_site_type_symbol
    _atom_site_fract_x
    _atom_site_fract_y
    _atom_site_fract_z
    _atom_site_occupancy
    O1       O        0.04700    0.35350    0.07720    1.000
    O2       O        0.54700    0.85350    0.07720    1.000
    O3       O        0.95300    0.64650    0.57720    1.000
    O4       O        0.45300    0.14650    0.57720    1.000
    O5       O        0.95300    0.35350    0.42280    1.000
    O6       O        0.45300    0.85350    0.42280    1.000
    O7       O        0.04700    0.64650    0.92280    1.000
    O8       O        0.54700    0.14650    0.92280    1.000
    O9       O        0.95300    0.64650    0.92280    1.000
    O10      O        0.45300    0.14650    0.92280    1.000
    O11      O        0.04700    0.35350    0.42280    1.000
    O12      O        0.54700    0.85350    0.42280    1.000
    O13      O        0.04700    0.64650    0.57720    1.000
    O14      O        0.54700    0.14650    0.57720    1.000
    O15      O        0.95300    0.35350    0.07720    1.000
    O16      O        0.45300    0.85350    0.07720    1.000
    Cs1      Cs       0.31159    0.31699    0.25000    1.000
    Cd1      Cd       0.12428    0.40048    0.25000    1.000
    Br1      Br       0.16916    0.16625    0.25000    1.000
    O17      O        0.08290    0.61380    0.25000    1.000
    Cs2      Cs       0.81159    0.81699    0.25000    1.000
    Cd2      Cd       0.62428    0.90048    0.25000    1.000
    Br2      Br       0.66916    0.66625    0.25000    1.000
    O18      O        0.58290    0.11380    0.25000    1.000
    Cs3      Cs       0.68841    0.68301    0.75000    1.000
    Cd3      Cd       0.87572    0.59952    0.75000    1.000
    Br3      Br       0.83084    0.83375    0.75000    1.000
    O19      O        0.91710    0.38620    0.75000    1.000
    Cs4      Cs       0.18841    0.18301    0.75000    1.000
    Cd4      Cd       0.37572    0.09952    0.75000    1.000
    Br4      Br       0.33084    0.33375    0.75000    1.000
    O20      O        0.41710    0.88620    0.75000    1.000
    Cs5      Cs       0.68841    0.31699    0.25000    1.000
    Cd5      Cd       0.87572    0.40048    0.25000    1.000
    Br5      Br       0.83084    0.16625    0.25000    1.000
    O21      O        0.91710    0.61380    0.25000    1.000
    Cs6      Cs       0.18841    0.81699    0.25000    1.000
    Cd6      Cd       0.37572    0.90048    0.25000    1.000
    Br6      Br       0.33084    0.66625    0.25000    1.000
    O22      O        0.41710    0.11380    0.25000    1.000
    Cs7      Cs       0.31159    0.68301    0.75000    1.000
    Cd7      Cd       0.12428    0.59952    0.75000    1.000
    Br7      Br       0.16916    0.83375    0.75000    1.000
    O23      O        0.08290    0.38620    0.75000    1.000
    Cs8      Cs       0.81159    0.18301    0.75000    1.000
    Cd8      Cd       0.62428    0.09952    0.75000    1.000
    Br8      Br       0.66916    0.33375    0.75000    1.000
    O24      O        0.58290    0.88620    0.75000    1.000
    Br9      Br       0.19264    0.50000    0.00000    1.000
    Br10     Br       0.69264    0.00000    0.00000    1.000
    Br11     Br       0.80736    0.50000    0.50000    1.000
    Br12     Br       0.30736    0.00000    0.50000    1.000
    Br13     Br       0.80736    0.50000    0.00000    1.000
    Br14     Br       0.30736    0.00000    0.00000    1.000
    Br15     Br       0.19264    0.50000    0.50000    1.000
    Br16     Br       0.69264    0.00000    0.50000    1.000
    C1       C        0.00000    0.35380    0.15000    1.000
    C2       C        0.50000    0.85380    0.15000    1.000
    C3       C        0.00000    0.64620    0.65000    1.000
    C4       C        0.50000    0.14620    0.65000    1.000
    C5       C        0.00000    0.35380    0.35000    1.000
    C6       C        0.50000    0.85380    0.35000    1.000
    C7       C        0.00000    0.64620    0.85000    1.000
    C8       C        0.50000    0.14620    0.85000    1.000
