# CIF file generated by openbabel 3.1.0, see https://openbabel.org
data_I
_chemical_name_common 'NOFQII_clean'
_cell_length_a 9.295
_cell_length_b 9.295
_cell_length_c 17.689
_cell_angle_alpha 90
_cell_angle_beta 90
_cell_angle_gamma 120
_space_group_name_H-M_alt 'P 1'
_space_group_name_Hall 'P 1'
loop_
    _symmetry_equiv_pos_as_xyz
    x,y,z
loop_
    _atom_site_label
    _atom_site_type_symbol
    _atom_site_fract_x
    _atom_site_fract_y
    _atom_site_fract_z
    _atom_site_occupancy
    Eu1      Eu       0.00000    0.00000    0.00000    1.000
    Eu2      Eu       0.00000    0.00000    0.50000    1.000
    La1      La       0.33333    0.66666    0.75000    1.000
    La2      La       0.66667    0.33334    0.25000    1.000
    H1       H        0.57300    0.59840    0.91720    1.000
    H2       H        0.50900    0.67630    0.97560    1.000
    H3       H        0.02540    0.42700    0.91720    1.000
    H4       H        0.16730    0.49100    0.97560    1.000
    H5       H        0.40160    0.97460    0.91720    1.000
    H6       H        0.32370    0.83270    0.97560    1.000
    H7       H        0.57300    0.59840    0.58280    1.000
    H8       H        0.50900    0.67630    0.52440    1.000
    H9       H        0.02540    0.42700    0.58280    1.000
    H10      H        0.16730    0.49100    0.52440    1.000
    H11      H        0.40160    0.97460    0.58280    1.000
    H12      H        0.32370    0.83270    0.52440    1.000
    H13      H        0.97460    0.40160    0.08280    1.000
    H14      H        0.83270    0.32370    0.02440    1.000
    H15      H        0.59840    0.57300    0.08280    1.000
    H16      H        0.67630    0.50900    0.02440    1.000
    H17      H        0.42700    0.02540    0.08280    1.000
    H18      H        0.49100    0.16730    0.02440    1.000
    H19      H        0.97460    0.40160    0.41720    1.000
    H20      H        0.83270    0.32370    0.47560    1.000
    H21      H        0.59840    0.57300    0.41720    1.000
    H22      H        0.67630    0.50900    0.47560    1.000
    H23      H        0.42700    0.02540    0.41720    1.000
    H24      H        0.49100    0.16730    0.47560    1.000
    C1       C        0.65560    0.83980    0.89500    1.000
    C2       C        0.60280    0.69440    0.94690    1.000
    C3       C        0.18420    0.34440    0.89500    1.000
    C4       C        0.09160    0.39720    0.94690    1.000
    C5       C        0.16020    0.81580    0.89500    1.000
    C6       C        0.30560    0.90840    0.94690    1.000
    C7       C        0.65560    0.83980    0.60500    1.000
    C8       C        0.60280    0.69440    0.55310    1.000
    C9       C        0.18420    0.34440    0.60500    1.000
    C10      C        0.09160    0.39720    0.55310    1.000
    C11      C        0.16020    0.81580    0.60500    1.000
    C12      C        0.30560    0.90840    0.55310    1.000
    C13      C        0.81580    0.16020    0.10500    1.000
    C14      C        0.90840    0.30560    0.05310    1.000
    C15      C        0.83980    0.65560    0.10500    1.000
    C16      C        0.69440    0.60280    0.05310    1.000
    C17      C        0.34440    0.18420    0.10500    1.000
    C18      C        0.39720    0.09160    0.05310    1.000
    C19      C        0.81580    0.16020    0.39500    1.000
    C20      C        0.90840    0.30560    0.44690    1.000
    C21      C        0.83980    0.65560    0.39500    1.000
    C22      C        0.69440    0.60280    0.44690    1.000
    C23      C        0.34440    0.18420    0.39500    1.000
    C24      C        0.39720    0.09160    0.44690    1.000
    O1       O        0.55840    0.82670    0.84430    1.000
    O2       O        0.79380    0.96650    0.90680    1.000
    O3       O        0.26830    0.44160    0.84430    1.000
    O4       O        0.17270    0.20620    0.90680    1.000
    O5       O        0.17330    0.73170    0.84430    1.000
    O6       O        0.03350    0.82730    0.90680    1.000
    O7       O        0.55840    0.82670    0.65570    1.000
    O8       O        0.79380    0.96650    0.59320    1.000
    O9       O        0.26830    0.44160    0.65570    1.000
    O10      O        0.17270    0.20620    0.59320    1.000
    O11      O        0.17330    0.73170    0.65570    1.000
    O12      O        0.03350    0.82730    0.59320    1.000
    O13      O        0.73170    0.17330    0.15570    1.000
    O14      O        0.82730    0.03350    0.09320    1.000
    O15      O        0.82670    0.55840    0.15570    1.000
    O16      O        0.96650    0.79380    0.09320    1.000
    O17      O        0.44160    0.26830    0.15570    1.000
    O18      O        0.20620    0.17270    0.09320    1.000
    O19      O        0.73170    0.17330    0.34430    1.000
    O20      O        0.82730    0.03350    0.40680    1.000
    O21      O        0.82670    0.55840    0.34430    1.000
    O22      O        0.96650    0.79380    0.40680    1.000
    O23      O        0.44160    0.26830    0.34430    1.000
    O24      O        0.20620    0.17270    0.40680    1.000
    O25      O        0.73230    0.73230    0.00000    1.000
    O26      O        0.00000    0.26770    0.00000    1.000
    O27      O        0.26770    0.00000    0.00000    1.000
    O28      O        0.73230    0.73230    0.50000    1.000
    O29      O        0.00000    0.26770    0.50000    1.000
    O30      O        0.26770    0.00000    0.50000    1.000
