data_functionalizedCrystal
_audit_creation_method	'EQeq! by Chris Wilmer'
_symmetry_space_group_name_H-M	'P1'
_symmetry_Int_Tables_number	1
_symmetry_cell_setting	triclinic
loop_
_symmetry_equiv_pos_as_xyz
  x,y,z
_cell_length_a	27.25
_cell_length_b	16.002
_cell_length_c	10.292
_cell_angle_alpha	90
_cell_angle_beta	90
_cell_angle_gamma	90
loop_
_atom_site_label
_atom_site_type_symbol
_atom_site_fract_x
_atom_site_fract_y
_atom_site_fract_z
_atom_site_charge
Mof_Zn	Zn	0.19922	0.05828	0.55555	1.198
Mof_O 	O 	0.13113	0.0224	0.5614	-0.481
Mof_N 	N 	0.20926	0.18077	0.5607	-0.266
Mof_N 	N 	0.23929	0.01082	0.4117	-0.268
Mof_N 	N 	0.22326	0.01954	0.7292	-0.257
Mof_C 	C 	0.10205	0.0446	0.4688	0.399
Mof_N 	N 	0.24845	0.2097	0.6296	-0.068
Mof_C 	C 	0.23679	0.01416	0.282	0.213
Mof_N 	N 	0.28282	0.9711	0.4368	-0.076
Mof_C 	C 	0.04951	0.0207	0.4844	-0.258
Mof_O 	O 	0.11631	0.08448	0.3719	-0.347
Mof_N 	N 	0.20121	0.0517	0.2164	-0.317
Mof_N 	N 	0.30435	0.9538	0.3296	-0.067
Mof_C 	C 	0.01553	0.0397	0.3873	0.216
Mof_C 	C 	0.03285	0.9823	0.5965	0.253
Mof_H 	H 	0.1346	0.2013	0.4135	0.148
Mof_H 	H 	0.1778	0.0804	0.2591	0.141
Mof_H 	H 	0.2013	0.0507	0.129	0.137
Mof_H 	H 	0.0262	0.0668	0.305	-0.546
Mof_N 	N 	0.0582	0.9715	0.689	0.385
Mof_H 	H 	0.0459	0.9512	0.7589	-0.047
Mof_H 	H 	0.0889	0.9839	0.6853	0.036
Mof_H 	H 	0.0543	0.9763	0.6583	-0.484
Mof_N 	N 	0.0264	0.0798	0.2751	0.518
Mof_H 	H 	0.0036	0.09	0.2194	-0.084
Mof_H 	H 	0.0561	0.0952	0.2595	-0.02
Mof_Zn	Zn	0.30078	0.94172	0.05555	1.197
Mof_O 	O 	0.36887	0.9776	0.0614	-0.484
Mof_N 	N 	0.29074	0.81923	0.0607	-0.268
Mof_N 	N 	0.26071	0.98918	0.9117	-0.269
Mof_N 	N 	0.27674	0.98046	0.2292	-0.259
Mof_C 	C 	0.39795	0.9554	0.9688	0.401
Mof_N 	N 	0.25155	0.7903	0.1296	-0.068
Mof_C 	C 	0.26321	0.98584	0.782	0.213
Mof_N 	N 	0.21718	0.0289	0.9368	-0.075
Mof_C 	C 	0.45049	0.9793	0.9844	-0.258
Mof_O 	O 	0.38369	0.91552	0.8719	-0.347
Mof_N 	N 	0.29879	0.9483	0.7164	-0.317
Mof_N 	N 	0.19565	0.0462	0.8296	-0.066
Mof_C 	C 	0.48447	0.9603	0.8873	0.216
Mof_C 	C 	0.46715	0.0177	0.0965	0.253
Mof_H 	H 	0.3654	0.7987	0.9135	0.148
Mof_H 	H 	0.3222	0.9196	0.7591	0.142
Mof_H 	H 	0.2987	0.9493	0.629	0.138
Mof_H 	H 	0.4738	0.9332	0.805	-0.546
Mof_N 	N 	0.4418	0.0285	0.189	0.385
Mof_H 	H 	0.4541	0.0488	0.2589	-0.047
Mof_H 	H 	0.4111	0.0161	0.1853	0.036
Mof_H 	H 	0.4457	0.0237	0.1583	-0.484
Mof_N 	N 	0.4736	0.9202	0.7751	0.518
Mof_H 	H 	0.4964	0.91	0.7194	-0.084
Mof_H 	H 	0.4439	0.9048	0.7595	-0.02
Mof_Zn	Zn	0.80078	0.55828	0.44445	1.197
Mof_O 	O 	0.86887	0.5224	0.4386	-0.482
Mof_N 	N 	0.79074	0.68077	0.4393	-0.267
Mof_N 	N 	0.76071	0.51082	0.5883	-0.269
Mof_N 	N 	0.77674	0.51954	0.2708	-0.258
Mof_C 	C 	0.89795	0.5446	0.5312	0.398
Mof_N 	N 	0.75155	0.7097	0.3704	-0.068
Mof_C 	C 	0.76321	0.51416	0.718	0.213
Mof_N 	N 	0.71718	0.4711	0.5632	-0.076
Mof_C 	C 	0.95049	0.5207	0.5156	-0.258
Mof_O 	O 	0.88369	0.58448	0.6281	-0.347
Mof_N 	N 	0.79879	0.5517	0.7836	-0.317
Mof_N 	N 	0.69565	0.4538	0.6704	-0.066
Mof_C 	C 	0.98447	0.5397	0.6127	0.216
Mof_C 	C 	0.96715	0.4823	0.4035	0.254
Mof_H 	H 	0.8654	0.7013	0.5865	0.148
Mof_H 	H 	0.8222	0.5804	0.7409	0.141
Mof_H 	H 	0.7987	0.5507	0.871	0.137
Mof_H 	H 	0.9738	0.5668	0.695	-0.546
Mof_N 	N 	0.9418	0.4715	0.311	0.385
Mof_H 	H 	0.9541	0.4512	0.2411	-0.047
Mof_H 	H 	0.9111	0.4839	0.3147	0.037
Mof_H 	H 	0.9457	0.4763	0.3417	-0.484
Mof_N 	N 	0.9736	0.5798	0.7249	0.518
Mof_H 	H 	0.9964	0.59	0.7806	-0.084
Mof_H 	H 	0.9439	0.5952	0.7405	-0.02
Mof_Zn	Zn	0.69922	0.44172	0.94445	1.197
Mof_O 	O 	0.63113	0.4776	0.9386	-0.484
Mof_N 	N 	0.70926	0.31923	0.9393	-0.268
Mof_N 	N 	0.73929	0.48918	0.0883	-0.269
Mof_N 	N 	0.72326	0.48046	0.7708	-0.258
Mof_C 	C 	0.60205	0.4554	0.0312	0.4
Mof_N 	N 	0.74845	0.2903	0.8704	-0.068
Mof_C 	C 	0.73679	0.48584	0.218	0.213
Mof_N 	N 	0.78282	0.5289	0.0632	-0.075
Mof_C 	C 	0.54951	0.4793	0.0156	-0.258
Mof_O 	O 	0.61631	0.41552	0.1281	-0.347
Mof_N 	N 	0.70121	0.4483	0.2836	-0.317
Mof_N 	N 	0.80435	0.5462	0.1704	-0.066
Mof_C 	C 	0.51553	0.4603	0.1127	0.216
Mof_C 	C 	0.53285	0.5177	0.9035	0.253
Mof_H 	H 	0.6346	0.2987	0.0865	0.148
Mof_H 	H 	0.6778	0.4196	0.2409	0.142
Mof_H 	H 	0.7013	0.4493	0.371	0.138
Mof_H 	H 	0.5262	0.4332	0.195	-0.546
Mof_N 	N 	0.5582	0.5285	0.811	0.385
Mof_H 	H 	0.5459	0.5488	0.7411	-0.047
Mof_H 	H 	0.5889	0.5161	0.8147	0.036
Mof_H 	H 	0.5543	0.5237	0.8417	-0.484
Mof_N 	N 	0.5264	0.4202	0.2249	0.518
Mof_H 	H 	0.5036	0.41	0.2806	-0.084
Mof_H 	H 	0.5561	0.4048	0.2405	-0.02
Mof_Zn	Zn	0.80078	0.94172	0.44445	1.197
Mof_O 	O 	0.86887	0.9776	0.4386	-0.482
Mof_N 	N 	0.79074	0.81923	0.4393	-0.267
Mof_N 	N 	0.76071	0.98918	0.5883	-0.269
Mof_N 	N 	0.77674	0.98046	0.2708	-0.258
Mof_C 	C 	0.89795	0.9554	0.5312	0.398
Mof_N 	N 	0.75155	0.7903	0.3704	-0.068
Mof_C 	C 	0.76321	0.98584	0.718	0.213
Mof_N 	N 	0.71718	0.0289	0.5632	-0.076
Mof_C 	C 	0.95049	0.9793	0.5156	-0.258
Mof_O 	O 	0.88369	0.91552	0.6281	-0.347
Mof_N 	N 	0.79879	0.9483	0.7836	-0.317
Mof_N 	N 	0.69565	0.0462	0.6704	-0.067
Mof_C 	C 	0.98447	0.9603	0.6127	0.216
Mof_C 	C 	0.96715	0.0177	0.4035	0.253
Mof_H 	H 	0.8654	0.7987	0.5865	0.148
Mof_H 	H 	0.8222	0.9196	0.7409	0.141
Mof_H 	H 	0.7987	0.9493	0.871	0.137
Mof_H 	H 	0.9738	0.9332	0.695	-0.546
Mof_N 	N 	0.9418	0.0285	0.311	0.385
Mof_H 	H 	0.9541	0.0488	0.2411	-0.047
Mof_H 	H 	0.9111	0.0161	0.3147	0.036
Mof_H 	H 	0.9457	0.0237	0.3417	-0.484
Mof_N 	N 	0.9736	0.9202	0.7249	0.518
Mof_H 	H 	0.9964	0.91	0.7806	-0.084
Mof_H 	H 	0.9439	0.9048	0.7405	-0.02
Mof_Zn	Zn	0.69922	0.05828	0.94445	1.197
Mof_O 	O 	0.63113	0.0224	0.9386	-0.484
Mof_N 	N 	0.70926	0.18077	0.9393	-0.268
Mof_N 	N 	0.73929	0.01082	0.0883	-0.269
Mof_N 	N 	0.72326	0.01954	0.7708	-0.259
Mof_C 	C 	0.60205	0.0446	0.0312	0.401
Mof_N 	N 	0.74845	0.2097	0.8704	-0.068
Mof_C 	C 	0.73679	0.01416	0.218	0.213
Mof_N 	N 	0.78282	0.9711	0.0632	-0.075
Mof_C 	C 	0.54951	0.0207	0.0156	-0.258
Mof_O 	O 	0.61631	0.08448	0.1281	-0.347
Mof_N 	N 	0.70121	0.0517	0.2836	-0.317
Mof_N 	N 	0.80435	0.9538	0.1704	-0.066
Mof_C 	C 	0.51553	0.0397	0.1127	0.216
Mof_C 	C 	0.53285	0.9823	0.9035	0.253
Mof_H 	H 	0.6346	0.2013	0.0865	0.148
Mof_H 	H 	0.6778	0.0804	0.2409	0.142
Mof_H 	H 	0.7013	0.0507	0.371	0.138
Mof_H 	H 	0.5262	0.0668	0.195	-0.546
Mof_N 	N 	0.5582	0.9715	0.811	0.385
Mof_H 	H 	0.5459	0.9512	0.7411	-0.047
Mof_H 	H 	0.5889	0.9839	0.8147	0.036
Mof_H 	H 	0.5543	0.9763	0.8417	-0.484
Mof_N 	N 	0.5264	0.0798	0.2249	0.518
Mof_H 	H 	0.5036	0.09	0.2806	-0.084
Mof_H 	H 	0.5561	0.0952	0.2405	-0.02
Mof_Zn	Zn	0.19922	0.44172	0.55555	1.197
Mof_O 	O 	0.13113	0.4776	0.5614	-0.482
Mof_N 	N 	0.20926	0.31923	0.5607	-0.267
Mof_N 	N 	0.23929	0.48918	0.4117	-0.269
Mof_N 	N 	0.22326	0.48046	0.7292	-0.258
Mof_C 	C 	0.10205	0.4554	0.4688	0.398
Mof_N 	N 	0.24845	0.2903	0.6296	-0.068
Mof_C 	C 	0.23679	0.48584	0.282	0.213
Mof_N 	N 	0.28282	0.5289	0.4368	-0.076
Mof_C 	C 	0.04951	0.4793	0.4844	-0.258
Mof_O 	O 	0.11631	0.41552	0.3719	-0.347
Mof_N 	N 	0.20121	0.4483	0.2164	-0.317
Mof_N 	N 	0.30435	0.5462	0.3296	-0.066
Mof_C 	C 	0.01553	0.4603	0.3873	0.216
Mof_C 	C 	0.03285	0.5177	0.5965	0.254
Mof_H 	H 	0.1346	0.2987	0.4135	0.148
Mof_H 	H 	0.1778	0.4196	0.2591	0.141
Mof_H 	H 	0.2013	0.4493	0.129	0.137
Mof_H 	H 	0.0262	0.4332	0.305	-0.546
Mof_N 	N 	0.0582	0.5285	0.689	0.385
Mof_H 	H 	0.0459	0.5488	0.7589	-0.047
Mof_H 	H 	0.0889	0.5161	0.6853	0.037
Mof_H 	H 	0.0543	0.5237	0.6583	-0.484
Mof_N 	N 	0.0264	0.4202	0.2751	0.518
Mof_H 	H 	0.0036	0.41	0.2194	-0.084
Mof_H 	H 	0.0561	0.4048	0.2595	-0.02
Mof_Zn	Zn	0.30078	0.55828	0.05555	1.197
Mof_O 	O 	0.36887	0.5224	0.0614	-0.484
Mof_N 	N 	0.29074	0.68077	0.0607	-0.268
Mof_N 	N 	0.26071	0.51082	0.9117	-0.269
Mof_N 	N 	0.27674	0.51954	0.2292	-0.258
Mof_C 	C 	0.39795	0.5446	0.9688	0.4
Mof_N 	N 	0.25155	0.7097	0.1296	-0.068
Mof_C 	C 	0.26321	0.51416	0.782	0.213
Mof_N 	N 	0.21718	0.4711	0.9368	-0.075
Mof_C 	C 	0.45049	0.5207	0.9844	-0.258
Mof_O 	O 	0.38369	0.58448	0.8719	-0.347
Mof_N 	N 	0.29879	0.5517	0.7164	-0.317
Mof_N 	N 	0.19565	0.4538	0.8296	-0.066
Mof_C 	C 	0.48447	0.5397	0.8873	0.216
Mof_C 	C 	0.46715	0.4823	0.0965	0.253
Mof_H 	H 	0.3654	0.7013	0.9135	0.148
Mof_H 	H 	0.3222	0.5804	0.7591	0.142
Mof_H 	H 	0.2987	0.5507	0.629	0.138
Mof_H 	H 	0.4738	0.5668	0.805	-0.546
Mof_N 	N 	0.4418	0.4715	0.189	0.385
Mof_H 	H 	0.4541	0.4512	0.2589	-0.047
Mof_H 	H 	0.4111	0.4839	0.1853	0.036
Mof_H 	H 	0.4457	0.4763	0.1583	-0.484
Mof_N 	N 	0.4736	0.5798	0.7751	0.518
Mof_H 	H 	0.4964	0.59	0.7194	-0.084
Mof_H 	H 	0.4439	0.5952	0.7595	-0.02
Mof_C 	C 	0.18699	0.25	0.5167	0.213
Mof_N 	N 	0.1484	0.25	0.4377	-0.323
Mof_C 	C 	0.31301	0.75	0.0167	0.211
Mof_N 	N 	0.3516	0.75	0.9377	-0.321
Mof_C 	C 	0.81301	0.75	0.4833	0.213
Mof_N 	N 	0.8516	0.75	0.5623	-0.323
Mof_C 	C 	0.68699	0.25	0.9833	0.211
Mof_N 	N 	0.6484	0.25	0.0623	-0.321
_end
