data_functionalizedCrystal
_audit_creation_method	'EQeq! by Chris Wilmer'
_symmetry_space_group_name_H-M	'P1'
_symmetry_Int_Tables_number	1
_symmetry_cell_setting	triclinic
loop_
_symmetry_equiv_pos_as_xyz
  x,y,z
_cell_length_a	9.8475
_cell_length_b	29.058
_cell_length_c	10.8151
_cell_angle_alpha	90
_cell_angle_beta	92.311
_cell_angle_gamma	90
loop_
_atom_site_label
_atom_site_type_symbol
_atom_site_fract_x
_atom_site_fract_y
_atom_site_fract_z
_atom_site_charge
Mof_C 	C 	0.0764	0.3491	0.9123	-0.084
Mof_C 	C 	0.9835	0.3804	0.8662	-0.042
Mof_H 	H 	0.0144	0.4082	0.8304	0.054
Mof_C 	C 	0.8432	0.3721	0.871	0.042
Mof_H 	H 	0.7808	0.3939	0.836	0.013
Mof_C 	C 	0.795	0.3334	0.9248	-0.178
Mof_C 	C 	0.8884	0.30156	0.9842	0.072
Mof_C 	C 	0.845	0.2638	0.06	-0.089
Mof_C 	C 	0.937	0.2331	0.1074	-0.035
Mof_H 	H 	0.9077	0.2093	0.1603	0.052
Mof_C 	C 	0.0751	0.2361	0.0794	0.017
Mof_H 	H 	0.1365	0.213	0.1089	0.011
Mof_C 	C 	0.1223	0.27168	0.0104	-0.145
Mof_C 	C 	0.0319	0.30716	0.9674	0.046
Mof_C 	C 	0.2193	0.36584	0.92	0.327
Mof_C 	C 	0.6479	0.3225	0.9017	0.52
Mof_C 	C 	0.7042	0.2615	0.106	0.336
Mof_C 	C 	0.2682	0.26743	0.9697	0.474
Mof_C 	C 	0.0262	0.4866	0.2304	-0.012
Mof_H 	H 	0.0576	0.4833	0.3141	0.042
Mof_C 	C 	0.1182	0.4894	0.1402	-0.12
Mof_C 	C 	0.2635	0.477	0.1731	0.413
Mof_C 	C 	0.0714	0.49878	0.014	0.066
Mof_C 	C 	0.1615	0.5064	0.917	-0.142
Mof_C 	C 	0.3112	0.5146	0.941	0.445
Mof_C 	C 	0.1136	0.5116	0.7976	0.002
Mof_H 	H 	0.1758	0.5141	0.733	0.03
Mof_O 	O 	0.2644	0.39064	0.8335	-0.426
Mof_O 	O 	0.293	0.35851	0.0152	-0.414
Mof_O 	O 	0.5634	0.35413	0.9039	-0.572
Mof_O 	O 	0.6173	0.28182	0.8712	-0.508
Mof_O 	O 	0.6466	0.29673	0.1476	-0.418
Mof_O 	O 	0.6462	0.22235	0.1126	-0.399
Mof_O 	O 	0.2882	0.27296	0.8578	-0.518
Mof_O 	O 	0.3575	0.25534	0.0492	-0.548
Mof_O 	O 	0.3155	0.491	0.275	-0.29
Mof_O 	O 	0.3221	0.45016	0.1016	-0.501
Mof_O 	O 	0.34	0.54627	0.0152	-0.52
Mof_O 	O 	0.395	0.4909	0.8839	-0.509
Mof_Er	Er	0.45512	0.41877	0.95764	1.861
Mof_Er	Er	0.46109	0.2517	0.23726	1.649
Mof_C 	C 	0.9236	0.8491	0.5877	-0.082
Mof_C 	C 	0.0165	0.8804	0.6338	-0.05
Mof_H 	H 	0.9856	0.9082	0.6696	0.06
Mof_C 	C 	0.1568	0.8721	0.629	0.047
Mof_H 	H 	0.2192	0.8939	0.664	0.012
Mof_C 	C 	0.205	0.8334	0.5752	-0.178
Mof_C 	C 	0.1116	0.80156	0.5158	0.07
Mof_C 	C 	0.155	0.7638	0.44	-0.089
Mof_C 	C 	0.063	0.7331	0.3926	-0.035
Mof_H 	H 	0.0923	0.7093	0.3397	0.052
Mof_C 	C 	0.9249	0.7361	0.4206	0.02
Mof_H 	H 	0.8635	0.713	0.3911	0.008
Mof_C 	C 	0.8777	0.77168	0.4896	-0.162
Mof_C 	C 	0.9681	0.80716	0.5326	0.059
Mof_C 	C 	0.7807	0.86584	0.58	0.332
Mof_C 	C 	0.3521	0.8225	0.5983	0.521
Mof_C 	C 	0.2958	0.7615	0.394	0.335
Mof_C 	C 	0.7318	0.76743	0.5303	0.49
Mof_C 	C 	0.9738	0.9866	0.2696	-0.018
Mof_H 	H 	0.9424	0.9833	0.1859	0.042
Mof_C 	C 	0.8818	0.9894	0.3598	-0.118
Mof_C 	C 	0.7365	0.977	0.3269	0.412
Mof_C 	C 	0.9286	0.99878	0.486	0.064
Mof_C 	C 	0.8385	0.0064	0.583	-0.141
Mof_C 	C 	0.6888	0.0146	0.559	0.445
Mof_C 	C 	0.8864	0.0116	0.7024	0.006
Mof_H 	H 	0.8242	0.0141	0.767	0.028
Mof_O 	O 	0.7356	0.89064	0.6665	-0.427
Mof_O 	O 	0.707	0.85851	0.4848	-0.421
Mof_O 	O 	0.4366	0.85413	0.5961	-0.572
Mof_O 	O 	0.3827	0.78182	0.6288	-0.507
Mof_O 	O 	0.3534	0.79673	0.3524	-0.419
Mof_O 	O 	0.3538	0.72235	0.3874	-0.399
Mof_O 	O 	0.7118	0.77296	0.6422	-0.521
Mof_O 	O 	0.6425	0.75534	0.4508	-0.556
Mof_O 	O 	0.6845	0.991	0.225	-0.291
Mof_O 	O 	0.6779	0.95016	0.3984	-0.503
Mof_O 	O 	0.66	0.04627	0.4848	-0.521
Mof_O 	O 	0.605	0.9909	0.6161	-0.509
Mof_Er	Er	0.54488	0.91877	0.54236	1.866
Mof_Er	Er	0.53891	0.7517	0.26274	1.646
Mof_C 	C 	0.9236	0.6509	0.0877	-0.083
Mof_C 	C 	0.0165	0.6196	0.1338	-0.041
Mof_H 	H 	0.9856	0.5918	0.1696	0.055
Mof_C 	C 	0.1568	0.6279	0.129	0.043
Mof_H 	H 	0.2192	0.6061	0.164	0.013
Mof_C 	C 	0.205	0.6666	0.0752	-0.178
Mof_C 	C 	0.1116	0.69844	0.0158	0.072
Mof_C 	C 	0.155	0.7362	0.94	-0.089
Mof_C 	C 	0.063	0.7669	0.8926	-0.035
Mof_H 	H 	0.0923	0.7907	0.8397	0.052
Mof_C 	C 	0.9249	0.7639	0.9206	0.017
Mof_H 	H 	0.8635	0.787	0.8911	0.011
Mof_C 	C 	0.8777	0.72832	0.9896	-0.145
Mof_C 	C 	0.9681	0.69284	0.0326	0.046
Mof_C 	C 	0.7807	0.63416	0.08	0.327
Mof_C 	C 	0.3521	0.6775	0.0983	0.52
Mof_C 	C 	0.2958	0.7385	0.894	0.336
Mof_C 	C 	0.7318	0.73257	0.0303	0.474
Mof_C 	C 	0.9738	0.5134	0.7696	-0.012
Mof_H 	H 	0.9424	0.5167	0.6859	0.042
Mof_C 	C 	0.8818	0.5106	0.8598	-0.12
Mof_C 	C 	0.7365	0.523	0.8269	0.413
Mof_C 	C 	0.9286	0.50122	0.986	0.066
Mof_C 	C 	0.8385	0.4936	0.083	-0.142
Mof_C 	C 	0.6888	0.4854	0.059	0.445
Mof_C 	C 	0.8864	0.4884	0.2024	0.002
Mof_H 	H 	0.8242	0.4859	0.267	0.03
Mof_O 	O 	0.7356	0.60936	0.1665	-0.426
Mof_O 	O 	0.707	0.64149	0.9848	-0.414
Mof_O 	O 	0.4366	0.64587	0.0961	-0.572
Mof_O 	O 	0.3827	0.71818	0.1288	-0.508
Mof_O 	O 	0.3534	0.70327	0.8524	-0.418
Mof_O 	O 	0.3538	0.77765	0.8874	-0.399
Mof_O 	O 	0.7118	0.72704	0.1422	-0.518
Mof_O 	O 	0.6425	0.74466	0.9508	-0.548
Mof_O 	O 	0.6845	0.509	0.725	-0.29
Mof_O 	O 	0.6779	0.54984	0.8984	-0.501
Mof_O 	O 	0.66	0.45373	0.9848	-0.52
Mof_O 	O 	0.605	0.5091	0.1161	-0.509
Mof_Er	Er	0.54488	0.58123	0.04236	1.861
Mof_Er	Er	0.53891	0.7483	0.76274	1.649
Mof_C 	C 	0.0764	0.1509	0.4123	-0.082
Mof_C 	C 	0.9835	0.1196	0.3662	-0.05
Mof_H 	H 	0.0144	0.0918	0.3304	0.06
Mof_C 	C 	0.8432	0.1279	0.371	0.047
Mof_H 	H 	0.7808	0.1061	0.336	0.012
Mof_C 	C 	0.795	0.1666	0.4248	-0.178
Mof_C 	C 	0.8884	0.19844	0.4842	0.07
Mof_C 	C 	0.845	0.2362	0.56	-0.089
Mof_C 	C 	0.937	0.2669	0.6074	-0.035
Mof_H 	H 	0.9077	0.2907	0.6603	0.052
Mof_C 	C 	0.0751	0.2639	0.5794	0.02
Mof_H 	H 	0.1365	0.287	0.6089	0.008
Mof_C 	C 	0.1223	0.22832	0.5104	-0.162
Mof_C 	C 	0.0319	0.19284	0.4674	0.059
Mof_C 	C 	0.2193	0.13416	0.42	0.332
Mof_C 	C 	0.6479	0.1775	0.4017	0.521
Mof_C 	C 	0.7042	0.2385	0.606	0.335
Mof_C 	C 	0.2682	0.23257	0.4697	0.49
Mof_C 	C 	0.0262	0.0134	0.7304	-0.018
Mof_H 	H 	0.0576	0.0167	0.8141	0.042
Mof_C 	C 	0.1182	0.0106	0.6402	-0.118
Mof_C 	C 	0.2635	0.023	0.6731	0.412
Mof_C 	C 	0.0714	0.00122	0.514	0.064
Mof_C 	C 	0.1615	0.9936	0.417	-0.141
Mof_C 	C 	0.3112	0.9854	0.441	0.445
Mof_C 	C 	0.1136	0.9884	0.2976	0.006
Mof_H 	H 	0.1758	0.9859	0.233	0.028
Mof_O 	O 	0.2644	0.10936	0.3335	-0.427
Mof_O 	O 	0.293	0.14149	0.5152	-0.421
Mof_O 	O 	0.5634	0.14587	0.4039	-0.572
Mof_O 	O 	0.6173	0.21818	0.3712	-0.507
Mof_O 	O 	0.6466	0.20327	0.6476	-0.419
Mof_O 	O 	0.6462	0.27765	0.6126	-0.399
Mof_O 	O 	0.2882	0.22704	0.3578	-0.521
Mof_O 	O 	0.3575	0.24466	0.5492	-0.556
Mof_O 	O 	0.3155	0.009	0.775	-0.291
Mof_O 	O 	0.3221	0.04984	0.6016	-0.503
Mof_O 	O 	0.34	0.95373	0.5152	-0.521
Mof_O 	O 	0.395	0.0091	0.3839	-0.509
Mof_Er	Er	0.45512	0.08123	0.45764	1.866
Mof_Er	Er	0.46109	0.2483	0.73726	1.646
_end
