# CIF file generated by openbabel 3.1.0, see https://openbabel.org
data_I
_chemical_name_common 'SUKYON_clean'
_cell_length_a 18.1427
_cell_length_b 18.1427
_cell_length_c 35.41
_cell_angle_alpha 90
_cell_angle_beta 90
_cell_angle_gamma 90
_space_group_name_H-M_alt 'P 1'
_space_group_name_Hall 'P 1'
loop_
    _symmetry_equiv_pos_as_xyz
    x,y,z
loop_
    _atom_site_label
    _atom_site_type_symbol
    _atom_site_fract_x
    _atom_site_fract_y
    _atom_site_fract_z
    _atom_site_occupancy
    Cu1      Cu       0.50705    0.42679    0.71189    1.000
    Cu2      Cu       0.49295    0.57321    0.71189    1.000
    Cu3      Cu       0.07321    0.99295    0.21189    1.000
    Cu4      Cu       0.92679    0.00705    0.21189    1.000
    H1       H        0.82560    0.60770    0.53920    1.000
    H2       H        0.91840    0.61260    0.49380    1.000
    H3       H        0.93430    0.39080    0.49590    1.000
    H4       H        0.84150    0.38580    0.54130    1.000
    H5       H        0.09730    0.64510    0.36990    1.000
    H6       H        0.09940    0.55020    0.41420    1.000
    H7       H        0.89080    0.59960    0.44460    1.000
    H8       H        0.88870    0.69450    0.40030    1.000
    H9       H        0.65180    0.61210    0.61660    1.000
    H10      H        0.74200    0.60840    0.56980    1.000
    H11      H        0.76850    0.39040    0.58770    1.000
    H12      H        0.67830    0.39400    0.63450    1.000
    H13      H        0.88300    0.84010    0.30020    1.000
    H14      H        0.88160    0.75320    0.34860    1.000
    H15      H        0.10360    0.74190    0.34490    1.000
    H16      H        0.10500    0.82880    0.29650    1.000
    H17      H        0.17440    0.39230    0.53920    1.000
    H18      H        0.08160    0.38740    0.49380    1.000
    H19      H        0.06570    0.60920    0.49590    1.000
    H20      H        0.15850    0.61420    0.54130    1.000
    H21      H        0.90270    0.35490    0.36990    1.000
    H22      H        0.90060    0.44980    0.41420    1.000
    H23      H        0.10920    0.40040    0.44460    1.000
    H24      H        0.11130    0.30550    0.40030    1.000
    H25      H        0.34820    0.38790    0.61660    1.000
    H26      H        0.25800    0.39160    0.56980    1.000
    H27      H        0.23150    0.60960    0.58770    1.000
    H28      H        0.32170    0.60600    0.63450    1.000
    H29      H        0.11700    0.15990    0.30020    1.000
    H30      H        0.11840    0.24680    0.34860    1.000
    H31      H        0.89640    0.25810    0.34490    1.000
    H32      H        0.89500    0.17120    0.29650    1.000
    H33      H        0.89230    0.67440    0.03920    1.000
    H34      H        0.88740    0.58160    0.99380    1.000
    H35      H        0.10920    0.56570    0.99590    1.000
    H36      H        0.11420    0.65850    0.04130    1.000
    H37      H        0.85490    0.40270    0.86990    1.000
    H38      H        0.94980    0.40060    0.91420    1.000
    H39      H        0.90040    0.60920    0.94460    1.000
    H40      H        0.80550    0.61130    0.90030    1.000
    H41      H        0.88790    0.84820    0.11660    1.000
    H42      H        0.89160    0.75800    0.06980    1.000
    H43      H        0.10960    0.73150    0.08770    1.000
    H44      H        0.10600    0.82170    0.13450    1.000
    H45      H        0.65990    0.61700    0.80020    1.000
    H46      H        0.74680    0.61840    0.84860    1.000
    H47      H        0.75810    0.39640    0.84490    1.000
    H48      H        0.67120    0.39500    0.79650    1.000
    H49      H        0.10770    0.32560    0.03920    1.000
    H50      H        0.11260    0.41840    0.99380    1.000
    H51      H        0.89080    0.43430    0.99590    1.000
    H52      H        0.88580    0.34150    0.04130    1.000
    H53      H        0.14510    0.59730    0.86990    1.000
    H54      H        0.05020    0.59940    0.91420    1.000
    H55      H        0.09960    0.39080    0.94460    1.000
    H56      H        0.19450    0.38870    0.90030    1.000
    H57      H        0.11210    0.15180    0.11660    1.000
    H58      H        0.10840    0.24200    0.06980    1.000
    H59      H        0.89040    0.26850    0.08770    1.000
    H60      H        0.89400    0.17830    0.13450    1.000
    H61      H        0.34010    0.38300    0.80020    1.000
    H62      H        0.25320    0.38160    0.84860    1.000
    H63      H        0.24190    0.60360    0.84490    1.000
    H64      H        0.32880    0.60500    0.79650    1.000
    C1       C        0.82460    0.49630    0.54460    1.000
    C2       C        0.84750    0.56390    0.53040    1.000
    C3       C        0.90290    0.56690    0.50340    1.000
    C4       C        0.93530    0.50220    0.49040    1.000
    C5       C        0.91230    0.43450    0.50460    1.000
    C6       C        0.85700    0.43160    0.53170    1.000
    C7       C        0.59780    0.50930    0.66020    1.000
    C8       C        0.99280    0.67900    0.38080    1.000
    C9       C        0.05560    0.63600    0.38490    1.000
    C10      C        0.05690    0.57930    0.41140    1.000
    C11      C        0.99530    0.56570    0.43360    1.000
    C12      C        0.93250    0.60880    0.42950    1.000
    C13      C        0.93120    0.66540    0.40310    1.000
    C14      C        0.65640    0.50340    0.63010    1.000
    C15      C        0.67540    0.56740    0.61080    1.000
    C16      C        0.72920    0.56520    0.58280    1.000
    C17      C        0.76400    0.49900    0.57420    1.000
    C18      C        0.74500    0.43510    0.59350    1.000
    C19      C        0.69120    0.43730    0.62140    1.000
    C20      C        0.99410    0.84290    0.29370    1.000
    C21      C        0.92750    0.82030    0.30920    1.000
    C22      C        0.92670    0.76840    0.33810    1.000
    C23      C        0.99250    0.73910    0.35140    1.000
    C24      C        0.05910    0.76170    0.33590    1.000
    C25      C        0.05990    0.81360    0.30700    1.000
    C26      C        0.99820    0.89740    0.26250    1.000
    C27      C        0.17540    0.50370    0.54460    1.000
    C28      C        0.15250    0.43610    0.53040    1.000
    C29      C        0.09710    0.43310    0.50340    1.000
    C30      C        0.06470    0.49780    0.49040    1.000
    C31      C        0.08770    0.56550    0.50460    1.000
    C32      C        0.14300    0.56840    0.53170    1.000
    C33      C        0.40220    0.49070    0.66020    1.000
    C34      C        0.00720    0.32100    0.38080    1.000
    C35      C        0.94440    0.36400    0.38490    1.000
    C36      C        0.94310    0.42070    0.41140    1.000
    C37      C        0.00470    0.43430    0.43360    1.000
    C38      C        0.06750    0.39120    0.42950    1.000
    C39      C        0.06880    0.33460    0.40310    1.000
    C40      C        0.34360    0.49660    0.63010    1.000
    C41      C        0.32460    0.43260    0.61080    1.000
    C42      C        0.27080    0.43480    0.58280    1.000
    C43      C        0.23600    0.50100    0.57420    1.000
    C44      C        0.25500    0.56490    0.59350    1.000
    C45      C        0.30880    0.56270    0.62140    1.000
    C46      C        0.00590    0.15710    0.29370    1.000
    C47      C        0.07250    0.17970    0.30920    1.000
    C48      C        0.07330    0.23160    0.33810    1.000
    C49      C        0.00750    0.26090    0.35140    1.000
    C50      C        0.94090    0.23830    0.33590    1.000
    C51      C        0.94010    0.18640    0.30700    1.000
    C52      C        0.00180    0.10260    0.26250    1.000
    C53      C        0.00370    0.67540    0.04460    1.000
    C54      C        0.93610    0.65250    0.03040    1.000
    C55      C        0.93310    0.59710    0.00340    1.000
    C56      C        0.99780    0.56470    0.99040    1.000
    C57      C        0.06550    0.58770    0.00460    1.000
    C58      C        0.06840    0.64300    0.03170    1.000
    C59      C        0.99070    0.90220    0.16020    1.000
    C60      C        0.82100    0.50720    0.88080    1.000
    C61      C        0.86400    0.44440    0.88490    1.000
    C62      C        0.92070    0.44310    0.91140    1.000
    C63      C        0.93430    0.50470    0.93360    1.000
    C64      C        0.89120    0.56750    0.92950    1.000
    C65      C        0.83460    0.56880    0.90310    1.000
    C66      C        0.99660    0.84360    0.13010    1.000
    C67      C        0.93260    0.82460    0.11080    1.000
    C68      C        0.93480    0.77080    0.08280    1.000
    C69      C        0.00100    0.73600    0.07420    1.000
    C70      C        0.06490    0.75500    0.09350    1.000
    C71      C        0.06270    0.80880    0.12140    1.000
    C72      C        0.65710    0.50590    0.79370    1.000
    C73      C        0.67970    0.57250    0.80920    1.000
    C74      C        0.73160    0.57330    0.83810    1.000
    C75      C        0.76090    0.50750    0.85140    1.000
    C76      C        0.73830    0.44090    0.83590    1.000
    C77      C        0.68640    0.44010    0.80700    1.000
    C78      C        0.60260    0.50180    0.76250    1.000
    C79      C        0.99630    0.32460    0.04460    1.000
    C80      C        0.06390    0.34750    0.03040    1.000
    C81      C        0.06690    0.40290    0.00340    1.000
    C82      C        0.00220    0.43530    0.99040    1.000
    C83      C        0.93450    0.41230    0.00460    1.000
    C84      C        0.93160    0.35700    0.03170    1.000
    C85      C        0.00930    0.09780    0.16020    1.000
    C86      C        0.17900    0.49280    0.88080    1.000
    C87      C        0.13600    0.55560    0.88490    1.000
    C88      C        0.07930    0.55690    0.91140    1.000
    C89      C        0.06570    0.49530    0.93360    1.000
    C90      C        0.10880    0.43250    0.92950    1.000
    C91      C        0.16540    0.43120    0.90310    1.000
    C92      C        0.00340    0.15640    0.13010    1.000
    C93      C        0.06740    0.17540    0.11080    1.000
    C94      C        0.06520    0.22920    0.08280    1.000
    C95      C        0.99900    0.26400    0.07420    1.000
    C96      C        0.93510    0.24500    0.09350    1.000
    C97      C        0.93730    0.19120    0.12140    1.000
    C98      C        0.34290    0.49410    0.79370    1.000
    C99      C        0.32030    0.42750    0.80920    1.000
    C100     C        0.26840    0.42670    0.83810    1.000
    C101     C        0.23910    0.49250    0.85140    1.000
    C102     C        0.26170    0.55910    0.83590    1.000
    C103     C        0.31360    0.55990    0.80700    1.000
    C104     C        0.39740    0.49820    0.76250    1.000
    C105     C        0.00000    0.50000    0.46170    1.000
    C106     C        0.00000    0.50000    0.96170    1.000
    O1       O        0.57780    0.44740    0.67540    1.000
    O2       O        0.06240    0.91450    0.24840    1.000
    O3       O        0.56970    0.57480    0.66660    1.000
    O4       O        0.93840    0.93530    0.25160    1.000
    O5       O        0.42220    0.55260    0.67540    1.000
    O6       O        0.93760    0.08550    0.24840    1.000
    O7       O        0.43030    0.42520    0.66660    1.000
    O8       O        0.06160    0.06470    0.25160    1.000
    O9       O        0.05260    0.92220    0.17540    1.000
    O10      O        0.58550    0.43760    0.74840    1.000
    O11      O        0.92520    0.93030    0.16660    1.000
    O12      O        0.56470    0.56160    0.75160    1.000
    O13      O        0.94740    0.07780    0.17540    1.000
    O14      O        0.41450    0.56240    0.74840    1.000
    O15      O        0.07480    0.06970    0.16660    1.000
    O16      O        0.43530    0.43840    0.75160    1.000
    Cu5      Cu       0.42679    0.49295    0.28811    1.000
    Cu6      Cu       0.57321    0.50705    0.28811    1.000
    Cu7      Cu       0.99295    0.92679    0.78811    1.000
    Cu8      Cu       0.00705    0.07321    0.78811    1.000
    H65      H        0.60770    0.17440    0.46080    1.000
    H66      H        0.61260    0.08160    0.50620    1.000
    H67      H        0.39080    0.06570    0.50410    1.000
    H68      H        0.38580    0.15850    0.45870    1.000
    H69      H        0.64510    0.90270    0.63010    1.000
    H70      H        0.55020    0.90060    0.58580    1.000
    H71      H        0.59960    0.10920    0.55540    1.000
    H72      H        0.69450    0.11130    0.59970    1.000
    H73      H        0.61210    0.34820    0.38340    1.000
    H74      H        0.60840    0.25800    0.43020    1.000
    H75      H        0.39040    0.23150    0.41230    1.000
    H76      H        0.39400    0.32170    0.36550    1.000
    H77      H        0.84010    0.11700    0.69980    1.000
    H78      H        0.75320    0.11840    0.65140    1.000
    H79      H        0.74190    0.89640    0.65510    1.000
    H80      H        0.82880    0.89500    0.70350    1.000
    H81      H        0.39230    0.82560    0.46080    1.000
    H82      H        0.38740    0.91840    0.50620    1.000
    H83      H        0.60920    0.93430    0.50410    1.000
    H84      H        0.61420    0.84150    0.45870    1.000
    H85      H        0.35490    0.09730    0.63010    1.000
    H86      H        0.44980    0.09940    0.58580    1.000
    H87      H        0.40040    0.89080    0.55540    1.000
    H88      H        0.30550    0.88870    0.59970    1.000
    H89      H        0.38790    0.65180    0.38340    1.000
    H90      H        0.39160    0.74200    0.43020    1.000
    H91      H        0.60960    0.76850    0.41230    1.000
    H92      H        0.60600    0.67830    0.36550    1.000
    H93      H        0.15990    0.88300    0.69980    1.000
    H94      H        0.24680    0.88160    0.65140    1.000
    H95      H        0.25810    0.10360    0.65510    1.000
    H96      H        0.17120    0.10500    0.70350    1.000
    H97      H        0.67440    0.10770    0.96080    1.000
    H98      H        0.58160    0.11260    0.00620    1.000
    H99      H        0.56570    0.89080    0.00410    1.000
    H100     H        0.65850    0.88580    0.95870    1.000
    H101     H        0.40270    0.14510    0.13010    1.000
    H102     H        0.40060    0.05020    0.08580    1.000
    H103     H        0.60920    0.09960    0.05540    1.000
    H104     H        0.61130    0.19450    0.09970    1.000
    H105     H        0.84820    0.11210    0.88340    1.000
    H106     H        0.75800    0.10840    0.93020    1.000
    H107     H        0.73150    0.89040    0.91230    1.000
    H108     H        0.82170    0.89400    0.86550    1.000
    H109     H        0.61700    0.34010    0.19980    1.000
    H110     H        0.61840    0.25320    0.15140    1.000
    H111     H        0.39640    0.24190    0.15510    1.000
    H112     H        0.39500    0.32880    0.20350    1.000
    H113     H        0.32560    0.89230    0.96080    1.000
    H114     H        0.41840    0.88740    0.00620    1.000
    H115     H        0.43430    0.10920    0.00410    1.000
    H116     H        0.34150    0.11420    0.95870    1.000
    H117     H        0.59730    0.85490    0.13010    1.000
    H118     H        0.59940    0.94980    0.08580    1.000
    H119     H        0.39080    0.90040    0.05540    1.000
    H120     H        0.38870    0.80550    0.09970    1.000
    H121     H        0.15180    0.88790    0.88340    1.000
    H122     H        0.24200    0.89160    0.93020    1.000
    H123     H        0.26850    0.10960    0.91230    1.000
    H124     H        0.17830    0.10600    0.86550    1.000
    H125     H        0.38300    0.65990    0.19980    1.000
    H126     H        0.38160    0.74680    0.15140    1.000
    H127     H        0.60360    0.75810    0.15510    1.000
    H128     H        0.60500    0.67120    0.20350    1.000
    C107     C        0.49630    0.17540    0.45540    1.000
    C108     C        0.56390    0.15250    0.46960    1.000
    C109     C        0.56690    0.09710    0.49660    1.000
    C110     C        0.50220    0.06470    0.50960    1.000
    C111     C        0.43450    0.08770    0.49540    1.000
    C112     C        0.43160    0.14300    0.46830    1.000
    C113     C        0.50930    0.40220    0.33980    1.000
    C114     C        0.67900    0.00720    0.61920    1.000
    C115     C        0.63600    0.94440    0.61510    1.000
    C116     C        0.57930    0.94310    0.58860    1.000
    C117     C        0.56570    0.00470    0.56640    1.000
    C118     C        0.60880    0.06750    0.57050    1.000
    C119     C        0.66540    0.06880    0.59690    1.000
    C120     C        0.50340    0.34360    0.36990    1.000
    C121     C        0.56740    0.32460    0.38920    1.000
    C122     C        0.56520    0.27080    0.41720    1.000
    C123     C        0.49900    0.23600    0.42580    1.000
    C124     C        0.43510    0.25500    0.40650    1.000
    C125     C        0.43730    0.30880    0.37860    1.000
    C126     C        0.84290    0.00590    0.70630    1.000
    C127     C        0.82030    0.07250    0.69080    1.000
    C128     C        0.76840    0.07330    0.66190    1.000
    C129     C        0.73910    0.00750    0.64860    1.000
    C130     C        0.76170    0.94090    0.66410    1.000
    C131     C        0.81360    0.94010    0.69300    1.000
    C132     C        0.89740    0.00180    0.73750    1.000
    C133     C        0.50370    0.82460    0.45540    1.000
    C134     C        0.43610    0.84750    0.46960    1.000
    C135     C        0.43310    0.90290    0.49660    1.000
    C136     C        0.49780    0.93530    0.50960    1.000
    C137     C        0.56550    0.91230    0.49540    1.000
    C138     C        0.56840    0.85700    0.46830    1.000
    C139     C        0.49070    0.59780    0.33980    1.000
    C140     C        0.32100    0.99280    0.61920    1.000
    C141     C        0.36400    0.05560    0.61510    1.000
    C142     C        0.42070    0.05690    0.58860    1.000
    C143     C        0.43430    0.99530    0.56640    1.000
    C144     C        0.39120    0.93250    0.57050    1.000
    C145     C        0.33460    0.93120    0.59690    1.000
    C146     C        0.49660    0.65640    0.36990    1.000
    C147     C        0.43260    0.67540    0.38920    1.000
    C148     C        0.43480    0.72920    0.41720    1.000
    C149     C        0.50100    0.76400    0.42580    1.000
    C150     C        0.56490    0.74500    0.40650    1.000
    C151     C        0.56270    0.69120    0.37860    1.000
    C152     C        0.15710    0.99410    0.70630    1.000
    C153     C        0.17970    0.92750    0.69080    1.000
    C154     C        0.23160    0.92670    0.66190    1.000
    C155     C        0.26090    0.99250    0.64860    1.000
    C156     C        0.23830    0.05910    0.66410    1.000
    C157     C        0.18640    0.05990    0.69300    1.000
    C158     C        0.10260    0.99820    0.73750    1.000
    C159     C        0.67540    0.99630    0.95540    1.000
    C160     C        0.65250    0.06390    0.96960    1.000
    C161     C        0.59710    0.06690    0.99660    1.000
    C162     C        0.56470    0.00220    0.00960    1.000
    C163     C        0.58770    0.93450    0.99540    1.000
    C164     C        0.64300    0.93160    0.96830    1.000
    C165     C        0.90220    0.00930    0.83980    1.000
    C166     C        0.50720    0.17900    0.11920    1.000
    C167     C        0.44440    0.13600    0.11510    1.000
    C168     C        0.44310    0.07930    0.08860    1.000
    C169     C        0.50470    0.06570    0.06640    1.000
    C170     C        0.56750    0.10880    0.07050    1.000
    C171     C        0.56880    0.16540    0.09690    1.000
    C172     C        0.84360    0.00340    0.86990    1.000
    C173     C        0.82460    0.06740    0.88920    1.000
    C174     C        0.77080    0.06520    0.91720    1.000
    C175     C        0.73600    0.99900    0.92580    1.000
    C176     C        0.75500    0.93510    0.90650    1.000
    C177     C        0.80880    0.93730    0.87860    1.000
    C178     C        0.50590    0.34290    0.20630    1.000
    C179     C        0.57250    0.32030    0.19080    1.000
    C180     C        0.57330    0.26840    0.16190    1.000
    C181     C        0.50750    0.23910    0.14860    1.000
    C182     C        0.44090    0.26170    0.16410    1.000
    C183     C        0.44010    0.31360    0.19300    1.000
    C184     C        0.50180    0.39740    0.23750    1.000
    C185     C        0.32460    0.00370    0.95540    1.000
    C186     C        0.34750    0.93610    0.96960    1.000
    C187     C        0.40290    0.93310    0.99660    1.000
    C188     C        0.43530    0.99780    0.00960    1.000
    C189     C        0.41230    0.06550    0.99540    1.000
    C190     C        0.35700    0.06840    0.96830    1.000
    C191     C        0.09780    0.99070    0.83980    1.000
    C192     C        0.49280    0.82100    0.11920    1.000
    C193     C        0.55560    0.86400    0.11510    1.000
    C194     C        0.55690    0.92070    0.08860    1.000
    C195     C        0.49530    0.93430    0.06640    1.000
    C196     C        0.43250    0.89120    0.07050    1.000
    C197     C        0.43120    0.83460    0.09690    1.000
    C198     C        0.15640    0.99660    0.86990    1.000
    C199     C        0.17540    0.93260    0.88920    1.000
    C200     C        0.22920    0.93480    0.91720    1.000
    C201     C        0.26400    0.00100    0.92580    1.000
    C202     C        0.24500    0.06490    0.90650    1.000
    C203     C        0.19120    0.06270    0.87860    1.000
    C204     C        0.49410    0.65710    0.20630    1.000
    C205     C        0.42750    0.67970    0.19080    1.000
    C206     C        0.42670    0.73160    0.16190    1.000
    C207     C        0.49250    0.76090    0.14860    1.000
    C208     C        0.55910    0.73830    0.16410    1.000
    C209     C        0.55990    0.68640    0.19300    1.000
    C210     C        0.49820    0.60260    0.23750    1.000
    C211     C        0.50000    0.00000    0.53830    1.000
    C212     C        0.50000    0.00000    0.03830    1.000
    O17      O        0.44740    0.42220    0.32460    1.000
    O18      O        0.91450    0.93760    0.75160    1.000
    O19      O        0.57480    0.43030    0.33340    1.000
    O20      O        0.93530    0.06160    0.74840    1.000
    O21      O        0.55260    0.57780    0.32460    1.000
    O22      O        0.08550    0.06240    0.75160    1.000
    O23      O        0.42520    0.56970    0.33340    1.000
    O24      O        0.06470    0.93840    0.74840    1.000
    O25      O        0.92220    0.94740    0.82460    1.000
    O26      O        0.43760    0.41450    0.25160    1.000
    O27      O        0.93030    0.07480    0.83340    1.000
    O28      O        0.56160    0.43530    0.24840    1.000
    O29      O        0.07780    0.05260    0.82460    1.000
    O30      O        0.56240    0.58550    0.25160    1.000
    O31      O        0.06970    0.92520    0.83340    1.000
    O32      O        0.43840    0.56470    0.24840    1.000
