data_functionalizedCrystal
_audit_creation_method	'EQeq! by Chris Wilmer'
_symmetry_space_group_name_H-M	'P1'
_symmetry_Int_Tables_number	1
_symmetry_cell_setting	triclinic
loop_
_symmetry_equiv_pos_as_xyz
  x,y,z
_cell_length_a	10.18
_cell_length_b	11.06
_cell_length_c	14.0137
_cell_angle_alpha	68.297
_cell_angle_beta	78.859
_cell_angle_gamma	72.3
loop_
_atom_site_label
_atom_site_type_symbol
_atom_site_fract_x
_atom_site_fract_y
_atom_site_fract_z
_atom_site_charge
Mof_Zn	Zn	0.92247	0.14624	0.08602	1.245
Mof_Zn	Zn	0.92154	0.64801	0.08304	1.244
Mof_Zn	Zn	0.37564	0.0133	0.1773	1.227
Mof_Zn	Zn	0.02476	0.22077	0.48851	0.716
Mof_Zn	Zn	0.61851	0.49055	0.82359	1.222
Mof_P 	P 	0.77494	0.46867	0.01775	0.469
Mof_P 	P 	0.222	0.03026	0.98437	0.475
Mof_P 	P 	0.15964	0.98644	0.38524	0.433
Mof_P 	P 	0.15665	0.47441	0.37991	0.463
Mof_O 	O 	0.6658	0.4942	0.94898	-0.461
Mof_O 	O 	0.8187	0.59497	0.00086	-0.428
Mof_O 	O 	0.8985	0.34952	0.01357	-0.56
Mof_O 	O 	0.5842	0.5232	0.16972	-0.613
Mof_H 	H 	0.611	0.584	0.162	0.373
Mof_O 	O 	0.5111	0.30865	0.20216	-0.384
Mof_O 	O 	0.722	0.18695	0.1723	-0.415
Mof_O 	O 	0.0996	0.1504	0.9874	-0.563
Mof_O 	O 	0.1776	0.90503	0.99925	-0.429
Mof_O 	O 	0.3285	0.0027	0.05536	-0.46
Mof_O 	O 	0.4192	0.97	0.8404	-0.633
Mof_H 	H 	0.383	0.918	0.845	0.399
Mof_O 	O 	0.4912	0.1866	0.80011	-0.39
Mof_O 	O 	0.2805	0.3098	0.82946	-0.411
Mof_O 	O 	0.2868	0.9457	0.3154	-0.414
Mof_O 	O 	0.1725	0.0974	0.42081	-0.366
Mof_O 	O 	0.132	0.8654	0.47591	-0.4
Mof_O 	O 	0.0238	0.1596	0.21489	-0.687
Mof_H 	H 	0.007	0.218	0.229	0.444
Mof_O 	O 	0.9711	0.9596	0.19302	-0.419
Mof_O 	O 	0.9387	0.8498	0.35864	-0.423
Mof_O 	O 	0.127	0.3586	0.47185	-0.395
Mof_O 	O 	0.1722	0.5874	0.41544	-0.426
Mof_H 	H 	0.259	0.598	0.394	0.204
Mof_O 	O 	0.2801	0.4346	0.30876	-0.436
Mof_O 	O 	0.0161	0.6598	0.21726	-0.581
Mof_H 	H 	0.004	0.713	0.241	0.375
Mof_O 	O 	0.9332	0.3454	0.35286	-0.425
Mof_O 	O 	0.9668	0.4613	0.18916	-0.437
Mof_C 	C 	0.695	0.4171	0.1508	-0.091
Mof_H 	H 	0.765	0.387	0.197	0.078
Mof_C 	C 	0.6382	0.2965	0.1768	0.351
Mof_C 	C 	0.3066	0.0798	0.8525	-0.098
Mof_H 	H 	0.241	0.105	0.803	0.079
Mof_C 	C 	0.3645	0.2	0.8261	0.36
Mof_C 	C 	0.0058	0.0565	0.3103	-0.08
Mof_H 	H 	0.931	0.088	0.356	0.052
Mof_C 	C 	0.9692	0.9475	0.2863	0.356
Mof_C 	C 	0.9995	0.5519	0.3106	-0.128
Mof_H 	H 	0.922	0.578	0.358	0.088
Mof_C 	C 	0.9639	0.4456	0.2823	0.376
Mof_Zn	Zn	0.0056	0.2425	0.4961	0.524
Mof_Zn	Zn	0.07753	0.85376	0.91398	1.245
Mof_Zn	Zn	0.07846	0.35199	0.91696	1.244
Mof_Zn	Zn	0.62436	0.9867	0.8227	1.227
Mof_Zn	Zn	0.97524	0.77923	0.51149	0.716
Mof_Zn	Zn	0.38149	0.50945	0.17641	1.222
Mof_P 	P 	0.22506	0.53133	0.98225	0.469
Mof_P 	P 	0.778	0.96974	0.01563	0.475
Mof_P 	P 	0.84036	0.01356	0.61476	0.433
Mof_P 	P 	0.84335	0.52559	0.62009	0.463
Mof_O 	O 	0.3342	0.5058	0.05102	-0.461
Mof_O 	O 	0.1813	0.40503	0.99914	-0.428
Mof_O 	O 	0.1015	0.65048	0.98643	-0.56
Mof_O 	O 	0.4158	0.4768	0.83028	-0.613
Mof_H 	H 	0.389	0.416	0.838	0.373
Mof_O 	O 	0.4889	0.69135	0.79784	-0.384
Mof_O 	O 	0.278	0.81305	0.8277	-0.415
Mof_O 	O 	0.9004	0.8496	0.0126	-0.563
Mof_O 	O 	0.8224	0.09497	0.00075	-0.429
Mof_O 	O 	0.6715	0.9973	0.94464	-0.46
Mof_O 	O 	0.5808	0.03	0.1596	-0.633
Mof_H 	H 	0.617	0.082	0.155	0.399
Mof_O 	O 	0.5088	0.8134	0.19989	-0.39
Mof_O 	O 	0.7195	0.6902	0.17054	-0.411
Mof_O 	O 	0.7132	0.0543	0.6846	-0.414
Mof_O 	O 	0.8275	0.9026	0.57919	-0.366
Mof_O 	O 	0.868	0.1346	0.52409	-0.4
Mof_O 	O 	0.9762	0.8404	0.78511	-0.687
Mof_H 	H 	0.993	0.782	0.771	0.444
Mof_O 	O 	0.0289	0.0404	0.80698	-0.419
Mof_O 	O 	0.0613	0.1502	0.64136	-0.423
Mof_O 	O 	0.873	0.6414	0.52815	-0.395
Mof_O 	O 	0.8278	0.4126	0.58456	-0.426
Mof_H 	H 	0.741	0.402	0.606	0.204
Mof_O 	O 	0.7199	0.5654	0.69124	-0.436
Mof_O 	O 	0.9839	0.3402	0.78274	-0.581
Mof_H 	H 	0.996	0.287	0.759	0.375
Mof_O 	O 	0.0668	0.6546	0.64714	-0.425
Mof_O 	O 	0.0332	0.5387	0.81084	-0.437
Mof_C 	C 	0.305	0.5829	0.8492	-0.091
Mof_H 	H 	0.235	0.613	0.803	0.078
Mof_C 	C 	0.3618	0.7035	0.8232	0.351
Mof_C 	C 	0.6934	0.9202	0.1475	-0.098
Mof_H 	H 	0.759	0.895	0.197	0.079
Mof_C 	C 	0.6355	0.8	0.1739	0.36
Mof_C 	C 	0.9942	0.9435	0.6897	-0.08
Mof_H 	H 	0.069	0.912	0.644	0.052
Mof_C 	C 	0.0308	0.0525	0.7137	0.356
Mof_C 	C 	0.0005	0.4481	0.6894	-0.128
Mof_H 	H 	0.078	0.422	0.642	0.088
Mof_C 	C 	0.0361	0.5544	0.7177	0.376
Mof_Zn	Zn	0.9944	0.7575	0.5039	0.524
_end
