# CIF file generated by openbabel 3.1.0, see https://openbabel.org
data_I
_chemical_name_common 'image0'
_cell_length_a 8.497
_cell_length_b 9.167
_cell_length_c 12.57
_cell_angle_alpha 90
_cell_angle_beta 90
_cell_angle_gamma 90
_space_group_name_H-M_alt 'P 1'
_space_group_name_Hall 'P 1'
loop_
    _symmetry_equiv_pos_as_xyz
    x,y,z
loop_
    _atom_site_label
    _atom_site_type_symbol
    _atom_site_fract_x
    _atom_site_fract_y
    _atom_site_fract_z
    _atom_site_occupancy
    C1       C        0.51850    0.44530    0.97900    1.000
    C2       C        0.98150    0.55470    0.47900    1.000
    C3       C        0.48150    0.94530    0.02100    1.000
    C4       C        0.01850    0.05470    0.52100    1.000
    C5       C        0.48150    0.55470    0.02100    1.000
    C6       C        0.01850    0.44530    0.52100    1.000
    C7       C        0.51850    0.05470    0.97900    1.000
    C8       C        0.98150    0.94530    0.47900    1.000
    Cd1      Cd       0.59360    0.25000    0.89560    1.000
    C9       C        0.38660    0.25000    0.77850    1.000
    C10      C        0.78640    0.25000    0.78200    1.000
    Cd2      Cd       0.90640    0.75000    0.39560    1.000
    C11      C        0.11340    0.75000    0.27850    1.000
    C12      C        0.71360    0.75000    0.28200    1.000
    Cd3      Cd       0.40640    0.75000    0.10440    1.000
    C13      C        0.61340    0.75000    0.22150    1.000
    C14      C        0.21360    0.75000    0.21800    1.000
    Cd4      Cd       0.09360    0.25000    0.60440    1.000
    C15      C        0.88660    0.25000    0.72150    1.000
    C16      C        0.28640    0.25000    0.71800    1.000
