data_functionalizedCrystal
_audit_creation_method	'EQeq! by Chris Wilmer'
_symmetry_space_group_name_H-M	'P1'
_symmetry_Int_Tables_number	1
_symmetry_cell_setting	triclinic
loop_
_symmetry_equiv_pos_as_xyz
  x,y,z
_cell_length_a	34.6084
_cell_length_b	34.6084
_cell_length_c	25.7181
_cell_angle_alpha	90
_cell_angle_beta	90
_cell_angle_gamma	120
loop_
_atom_site_label
_atom_site_type_symbol
_atom_site_fract_x
_atom_site_fract_y
_atom_site_fract_z
_atom_site_charge
Mof_O 	O 	0.64149	0.78084	0.39724	-0.408
Mof_O 	O 	0.60939	0.76436	0.31832	-0.419
Mof_C 	C 	0.6137	0.75494	0.36379	0.372
Mof_C 	C 	0.5832	0.7079	0.38173	-0.133
Mof_C 	C 	0.55456	0.67616	0.34654	0.065
Mof_H 	H 	0.554	0.6843	0.3114	0.02
Mof_C 	C 	0.52674	0.6325	0.36251	-0.144
Mof_H 	H 	0.5076	0.6109	0.3379	0.091
Mof_C 	C 	0.52641	0.61978	0.41413	0.112
Mof_C 	C 	0.55548	0.65196	0.44816	-0.15
Mof_H 	H 	0.5562	0.6442	0.4834	0.082
Mof_C 	C 	0.58375	0.69562	0.43201	0.07
Mof_H 	H 	0.6036	0.7171	0.4562	0.022
Mof_C 	C 	0.49772	0.57273	0.43159	-0.074
Mof_C 	C 	0.51496	0.55385	0.46421	-0.037
Mof_H 	H 	0.545	0.5714	0.4754	0.042
Mof_H 	H 	0.4359	0.6107	0.4312	-0.065
Mof_H 	H 	0.3756	0.5782	0.3459	0.224
Mof_O 	O 	0.30816	0.11417	0.73057	-0.407
Mof_O 	O 	0.27606	0.09769	0.65165	-0.418
Mof_C 	C 	0.28037	0.08827	0.69712	0.372
Mof_C 	C 	0.24987	0.04123	0.71506	-0.133
Mof_C 	C 	0.22123	0.00949	0.67987	0.065
Mof_H 	H 	0.22067	0.01763	0.64473	0.021
Mof_C 	C 	0.19341	0.96583	0.69584	-0.144
Mof_H 	H 	0.17427	0.94423	0.67123	0.091
Mof_C 	C 	0.19308	0.95311	0.74746	0.112
Mof_C 	C 	0.22215	0.98529	0.78149	-0.149
Mof_H 	H 	0.22287	0.97753	0.81673	0.082
Mof_C 	C 	0.25042	0.02895	0.76534	0.07
Mof_H 	H 	0.27027	0.05043	0.78953	0.022
Mof_C 	C 	0.16439	0.90606	0.76492	-0.074
Mof_C 	C 	0.18163	0.88718	0.79754	-0.037
Mof_H 	H 	0.21167	0.90473	0.80873	0.042
Mof_H 	H 	0.10257	0.94403	0.76453	-0.065
Mof_H 	H 	0.04227	0.91153	0.67923	0.224
Mof_O 	O 	0.97482	0.44751	0.06391	-0.407
Mof_O 	O 	0.94272	0.43103	0.98499	-0.418
Mof_C 	C 	0.94703	0.42161	0.03046	0.373
Mof_C 	C 	0.91653	0.37457	0.0484	-0.133
Mof_C 	C 	0.88789	0.34283	0.01321	0.065
Mof_H 	H 	0.88733	0.35097	0.97807	0.02
Mof_C 	C 	0.86007	0.29917	0.02918	-0.145
Mof_H 	H 	0.84093	0.27757	0.00457	0.091
Mof_C 	C 	0.85974	0.28645	0.0808	0.112
Mof_C 	C 	0.88881	0.31863	0.11483	-0.15
Mof_H 	H 	0.88953	0.31087	0.15007	0.082
Mof_C 	C 	0.91708	0.36229	0.09868	0.071
Mof_H 	H 	0.93693	0.38377	0.12287	0.022
Mof_C 	C 	0.83105	0.2394	0.09826	-0.074
Mof_C 	C 	0.84829	0.22052	0.13088	-0.036
Mof_H 	H 	0.87833	0.23807	0.14207	0.042
Mof_H 	H 	0.76923	0.27737	0.09787	-0.065
Mof_H 	H 	0.70893	0.24487	0.01257	0.224
Mof_O 	O 	0.21916	0.86065	0.39724	-0.407
Mof_O 	O 	0.23564	0.84503	0.31832	-0.418
Mof_C 	C 	0.24506	0.85876	0.36379	0.372
Mof_C 	C 	0.2921	0.8753	0.38173	-0.133
Mof_C 	C 	0.32384	0.8784	0.34654	0.065
Mof_H 	H 	0.3157	0.8697	0.3114	0.02
Mof_C 	C 	0.3675	0.89424	0.36251	-0.144
Mof_H 	H 	0.3891	0.8967	0.3379	0.091
Mof_C 	C 	0.38022	0.90663	0.41413	0.112
Mof_C 	C 	0.34804	0.90352	0.44816	-0.15
Mof_H 	H 	0.3558	0.912	0.4834	0.082
Mof_C 	C 	0.30438	0.88813	0.43201	0.07
Mof_H 	H 	0.2829	0.8865	0.4562	0.022
Mof_C 	C 	0.42727	0.92499	0.43159	-0.074
Mof_C 	C 	0.44615	0.96111	0.46421	-0.037
Mof_H 	H 	0.4286	0.9736	0.4754	0.042
Mof_H 	H 	0.3893	0.8252	0.4312	-0.065
Mof_H 	H 	0.4218	0.7974	0.3459	0.224
Mof_O 	O 	0.88583	0.19398	0.73057	-0.407
Mof_O 	O 	0.90231	0.17836	0.65165	-0.418
Mof_C 	C 	0.91173	0.19209	0.69712	0.372
Mof_C 	C 	0.95877	0.20863	0.71506	-0.133
Mof_C 	C 	0.99051	0.21173	0.67987	0.065
Mof_H 	H 	0.98237	0.20303	0.64473	0.02
Mof_C 	C 	0.03417	0.22757	0.69584	-0.144
Mof_H 	H 	0.05577	0.23003	0.67123	0.091
Mof_C 	C 	0.04689	0.23996	0.74746	0.112
Mof_C 	C 	0.01471	0.23685	0.78149	-0.15
Mof_H 	H 	0.02247	0.24533	0.81673	0.082
Mof_C 	C 	0.97105	0.22146	0.76534	0.07
Mof_H 	H 	0.94957	0.21983	0.78953	0.022
Mof_C 	C 	0.09394	0.25832	0.76492	-0.074
Mof_C 	C 	0.11282	0.29444	0.79754	-0.037
Mof_H 	H 	0.09527	0.30693	0.80873	0.042
Mof_H 	H 	0.05597	0.15853	0.76453	-0.065
Mof_H 	H 	0.08847	0.13073	0.67923	0.224
Mof_O 	O 	0.55249	0.52732	0.06391	-0.407
Mof_O 	O 	0.56897	0.5117	0.98499	-0.418
Mof_C 	C 	0.57839	0.52543	0.03046	0.372
Mof_C 	C 	0.62543	0.54197	0.0484	-0.133
Mof_C 	C 	0.65717	0.54507	0.01321	0.065
Mof_H 	H 	0.64903	0.53637	0.97807	0.02
Mof_C 	C 	0.70083	0.56091	0.02918	-0.144
Mof_H 	H 	0.72243	0.56337	0.00457	0.091
Mof_C 	C 	0.71355	0.5733	0.0808	0.112
Mof_C 	C 	0.68137	0.57019	0.11483	-0.15
Mof_H 	H 	0.68913	0.57867	0.15007	0.082
Mof_C 	C 	0.63771	0.5548	0.09868	0.07
Mof_H 	H 	0.61623	0.55317	0.12287	0.022
Mof_C 	C 	0.7606	0.59166	0.09826	-0.074
Mof_C 	C 	0.77948	0.62778	0.13088	-0.037
Mof_H 	H 	0.76193	0.64027	0.14207	0.042
Mof_H 	H 	0.72263	0.49187	0.09787	-0.065
Mof_H 	H 	0.75513	0.46407	0.01257	0.224
Mof_O 	O 	0.13935	0.35851	0.39724	-0.407
Mof_O 	O 	0.15497	0.39061	0.31832	-0.418
Mof_C 	C 	0.14124	0.3863	0.36379	0.372
Mof_C 	C 	0.1247	0.4168	0.38173	-0.133
Mof_C 	C 	0.1216	0.44544	0.34654	0.065
Mof_H 	H 	0.1303	0.446	0.3114	0.02
Mof_C 	C 	0.10576	0.47326	0.36251	-0.144
Mof_H 	H 	0.1033	0.4924	0.3379	0.091
Mof_C 	C 	0.09337	0.47359	0.41413	0.112
Mof_C 	C 	0.09648	0.44452	0.44816	-0.15
Mof_H 	H 	0.088	0.4438	0.4834	0.082
Mof_C 	C 	0.11187	0.41625	0.43201	0.07
Mof_H 	H 	0.1135	0.3964	0.4562	0.022
Mof_C 	C 	0.07501	0.50228	0.43159	-0.074
Mof_C 	C 	0.03889	0.48504	0.46421	-0.037
Mof_H 	H 	0.0264	0.455	0.4754	0.042
Mof_H 	H 	0.1748	0.5641	0.4312	-0.065
Mof_H 	H 	0.2026	0.6244	0.3459	0.224
Mof_O 	O 	0.80602	0.69184	0.73057	-0.407
Mof_O 	O 	0.82164	0.72394	0.65165	-0.418
Mof_C 	C 	0.80791	0.71963	0.69712	0.372
Mof_C 	C 	0.79137	0.75013	0.71506	-0.133
Mof_C 	C 	0.78827	0.77877	0.67987	0.065
Mof_H 	H 	0.79697	0.77933	0.64473	0.02
Mof_C 	C 	0.77243	0.80659	0.69584	-0.144
Mof_H 	H 	0.76997	0.82573	0.67123	0.091
Mof_C 	C 	0.76004	0.80692	0.74746	0.112
Mof_C 	C 	0.76315	0.77785	0.78149	-0.15
Mof_H 	H 	0.75467	0.77713	0.81673	0.082
Mof_C 	C 	0.77854	0.74958	0.76534	0.07
Mof_H 	H 	0.78017	0.72973	0.78953	0.022
Mof_C 	C 	0.74168	0.83561	0.76492	-0.074
Mof_C 	C 	0.70556	0.81837	0.79754	-0.037
Mof_H 	H 	0.69307	0.78833	0.80873	0.042
Mof_H 	H 	0.84147	0.89743	0.76453	-0.065
Mof_H 	H 	0.86927	0.95773	0.67923	0.224
Mof_O 	O 	0.47268	0.02518	0.06391	-0.407
Mof_O 	O 	0.4883	0.05728	0.98499	-0.418
Mof_C 	C 	0.47457	0.05297	0.03046	0.373
Mof_C 	C 	0.45803	0.08347	0.0484	-0.133
Mof_C 	C 	0.45493	0.11211	0.01321	0.065
Mof_H 	H 	0.46363	0.11267	0.97807	0.02
Mof_C 	C 	0.43909	0.13993	0.02918	-0.145
Mof_H 	H 	0.43663	0.15907	0.00457	0.091
Mof_C 	C 	0.4267	0.14026	0.0808	0.112
Mof_C 	C 	0.42981	0.11119	0.11483	-0.15
Mof_H 	H 	0.42133	0.11047	0.15007	0.082
Mof_C 	C 	0.4452	0.08292	0.09868	0.071
Mof_H 	H 	0.44683	0.06307	0.12287	0.022
Mof_C 	C 	0.40834	0.16895	0.09826	-0.074
Mof_C 	C 	0.37222	0.15171	0.13088	-0.037
Mof_H 	H 	0.35973	0.12167	0.14207	0.042
Mof_H 	H 	0.50813	0.23077	0.09787	-0.065
Mof_H 	H 	0.53593	0.29107	0.01257	0.224
Mof_O 	O 	0.78084	0.64149	0.60276	-0.407
Mof_O 	O 	0.76436	0.60939	0.68168	-0.418
Mof_C 	C 	0.75494	0.6137	0.63621	0.372
Mof_C 	C 	0.7079	0.5832	0.61827	-0.133
Mof_C 	C 	0.67616	0.55456	0.65346	0.065
Mof_H 	H 	0.6843	0.554	0.6886	0.02
Mof_C 	C 	0.6325	0.52674	0.63749	-0.144
Mof_H 	H 	0.6109	0.5076	0.6621	0.091
Mof_C 	C 	0.61978	0.52641	0.58587	0.112
Mof_C 	C 	0.65196	0.55548	0.55184	-0.15
Mof_H 	H 	0.6442	0.5562	0.5166	0.082
Mof_C 	C 	0.69562	0.58375	0.56799	0.07
Mof_H 	H 	0.7171	0.6036	0.5438	0.022
Mof_C 	C 	0.57273	0.49772	0.56841	-0.074
Mof_C 	C 	0.55385	0.51496	0.53579	-0.037
Mof_H 	H 	0.5714	0.545	0.5246	0.042
Mof_H 	H 	0.6107	0.4359	0.5688	-0.065
Mof_H 	H 	0.5782	0.3756	0.6541	0.224
Mof_O 	O 	0.44751	0.97482	0.93609	-0.407
Mof_O 	O 	0.43103	0.94272	0.01501	-0.418
Mof_C 	C 	0.42161	0.94703	0.96954	0.373
Mof_C 	C 	0.37457	0.91653	0.9516	-0.133
Mof_C 	C 	0.34283	0.88789	0.98679	0.065
Mof_H 	H 	0.35097	0.88733	0.02193	0.02
Mof_C 	C 	0.29917	0.86007	0.97082	-0.145
Mof_H 	H 	0.27757	0.84093	0.99543	0.091
Mof_C 	C 	0.28645	0.85974	0.9192	0.112
Mof_C 	C 	0.31863	0.88881	0.88517	-0.15
Mof_H 	H 	0.31087	0.88953	0.84993	0.082
Mof_C 	C 	0.36229	0.91708	0.90132	0.071
Mof_H 	H 	0.38377	0.93693	0.87713	0.022
Mof_C 	C 	0.2394	0.83105	0.90174	-0.074
Mof_C 	C 	0.22052	0.84829	0.86912	-0.036
Mof_H 	H 	0.23807	0.87833	0.85793	0.042
Mof_H 	H 	0.27737	0.76923	0.90213	-0.065
Mof_H 	H 	0.24487	0.70893	0.98743	0.224
Mof_O 	O 	0.11417	0.30816	0.26943	-0.407
Mof_O 	O 	0.09769	0.27606	0.34835	-0.418
Mof_C 	C 	0.08827	0.28037	0.30288	0.372
Mof_C 	C 	0.04123	0.24987	0.28494	-0.133
Mof_C 	C 	0.00949	0.22123	0.32013	0.065
Mof_H 	H 	0.01763	0.22067	0.35527	0.021
Mof_C 	C 	0.96583	0.19341	0.30416	-0.144
Mof_H 	H 	0.94423	0.17427	0.32877	0.091
Mof_C 	C 	0.95311	0.19308	0.25254	0.112
Mof_C 	C 	0.98529	0.22215	0.21851	-0.149
Mof_H 	H 	0.97753	0.22287	0.18327	0.082
Mof_C 	C 	0.02895	0.25042	0.23466	0.07
Mof_H 	H 	0.05043	0.27027	0.21047	0.022
Mof_C 	C 	0.90606	0.16439	0.23508	-0.074
Mof_C 	C 	0.88718	0.18163	0.20246	-0.037
Mof_H 	H 	0.90473	0.21167	0.19127	0.042
Mof_H 	H 	0.94403	0.10257	0.23547	-0.065
Mof_H 	H 	0.91153	0.04227	0.32077	0.224
Mof_O 	O 	0.86065	0.21916	0.60276	-0.407
Mof_O 	O 	0.84503	0.23564	0.68168	-0.418
Mof_C 	C 	0.85876	0.24506	0.63621	0.372
Mof_C 	C 	0.8753	0.2921	0.61827	-0.133
Mof_C 	C 	0.8784	0.32384	0.65346	0.065
Mof_H 	H 	0.8697	0.3157	0.6886	0.02
Mof_C 	C 	0.89424	0.3675	0.63749	-0.144
Mof_H 	H 	0.8967	0.3891	0.6621	0.091
Mof_C 	C 	0.90663	0.38022	0.58587	0.112
Mof_C 	C 	0.90352	0.34804	0.55184	-0.15
Mof_H 	H 	0.912	0.3558	0.5166	0.082
Mof_C 	C 	0.88813	0.30438	0.56799	0.07
Mof_H 	H 	0.8865	0.2829	0.5438	0.022
Mof_C 	C 	0.92499	0.42727	0.56841	-0.074
Mof_C 	C 	0.96111	0.44615	0.53579	-0.037
Mof_H 	H 	0.9736	0.4286	0.5246	0.042
Mof_H 	H 	0.8252	0.3893	0.5688	-0.065
Mof_H 	H 	0.7974	0.4218	0.6541	0.224
Mof_O 	O 	0.52732	0.55249	0.93609	-0.407
Mof_O 	O 	0.5117	0.56897	0.01501	-0.418
Mof_C 	C 	0.52543	0.57839	0.96954	0.372
Mof_C 	C 	0.54197	0.62543	0.9516	-0.133
Mof_C 	C 	0.54507	0.65717	0.98679	0.065
Mof_H 	H 	0.53637	0.64903	0.02193	0.02
Mof_C 	C 	0.56091	0.70083	0.97082	-0.144
Mof_H 	H 	0.56337	0.72243	0.99543	0.091
Mof_C 	C 	0.5733	0.71355	0.9192	0.112
Mof_C 	C 	0.57019	0.68137	0.88517	-0.15
Mof_H 	H 	0.57867	0.68913	0.84993	0.082
Mof_C 	C 	0.5548	0.63771	0.90132	0.07
Mof_H 	H 	0.55317	0.61623	0.87713	0.022
Mof_C 	C 	0.59166	0.7606	0.90174	-0.074
Mof_C 	C 	0.62778	0.77948	0.86912	-0.037
Mof_H 	H 	0.64027	0.76193	0.85793	0.042
Mof_H 	H 	0.49187	0.72263	0.90213	-0.065
Mof_H 	H 	0.46407	0.75513	0.98743	0.224
Mof_O 	O 	0.19398	0.88583	0.26943	-0.407
Mof_O 	O 	0.17836	0.90231	0.34835	-0.418
Mof_C 	C 	0.19209	0.91173	0.30288	0.372
Mof_C 	C 	0.20863	0.95877	0.28494	-0.133
Mof_C 	C 	0.21173	0.99051	0.32013	0.065
Mof_H 	H 	0.20303	0.98237	0.35527	0.02
Mof_C 	C 	0.22757	0.03417	0.30416	-0.144
Mof_H 	H 	0.23003	0.05577	0.32877	0.091
Mof_C 	C 	0.23996	0.04689	0.25254	0.112
Mof_C 	C 	0.23685	0.01471	0.21851	-0.15
Mof_H 	H 	0.24533	0.02247	0.18327	0.082
Mof_C 	C 	0.22146	0.97105	0.23466	0.07
Mof_H 	H 	0.21983	0.94957	0.21047	0.022
Mof_C 	C 	0.25832	0.09394	0.23508	-0.074
Mof_C 	C 	0.29444	0.11282	0.20246	-0.037
Mof_H 	H 	0.30693	0.09527	0.19127	0.042
Mof_H 	H 	0.15853	0.05597	0.23547	-0.065
Mof_H 	H 	0.13073	0.08847	0.32077	0.224
Mof_O 	O 	0.35851	0.13935	0.60276	-0.407
Mof_O 	O 	0.39061	0.15497	0.68168	-0.418
Mof_C 	C 	0.3863	0.14124	0.63621	0.372
Mof_C 	C 	0.4168	0.1247	0.61827	-0.133
Mof_C 	C 	0.44544	0.1216	0.65346	0.065
Mof_H 	H 	0.446	0.1303	0.6886	0.02
Mof_C 	C 	0.47326	0.10576	0.63749	-0.144
Mof_H 	H 	0.4924	0.1033	0.6621	0.091
Mof_C 	C 	0.47359	0.09337	0.58587	0.112
Mof_C 	C 	0.44452	0.09648	0.55184	-0.15
Mof_H 	H 	0.4438	0.088	0.5166	0.082
Mof_C 	C 	0.41625	0.11187	0.56799	0.07
Mof_H 	H 	0.3964	0.1135	0.5438	0.022
Mof_C 	C 	0.50228	0.07501	0.56841	-0.074
Mof_C 	C 	0.48504	0.03889	0.53579	-0.037
Mof_H 	H 	0.455	0.0264	0.5246	0.042
Mof_H 	H 	0.5641	0.1748	0.5688	-0.065
Mof_H 	H 	0.6244	0.2026	0.6541	0.224
Mof_O 	O 	0.02518	0.47268	0.93609	-0.407
Mof_O 	O 	0.05728	0.4883	0.01501	-0.418
Mof_C 	C 	0.05297	0.47457	0.96954	0.373
Mof_C 	C 	0.08347	0.45803	0.9516	-0.133
Mof_C 	C 	0.11211	0.45493	0.98679	0.065
Mof_H 	H 	0.11267	0.46363	0.02193	0.02
Mof_C 	C 	0.13993	0.43909	0.97082	-0.145
Mof_H 	H 	0.15907	0.43663	0.99543	0.091
Mof_C 	C 	0.14026	0.4267	0.9192	0.112
Mof_C 	C 	0.11119	0.42981	0.88517	-0.15
Mof_H 	H 	0.11047	0.42133	0.84993	0.082
Mof_C 	C 	0.08292	0.4452	0.90132	0.071
Mof_H 	H 	0.06307	0.44683	0.87713	0.022
Mof_C 	C 	0.16895	0.40834	0.90174	-0.074
Mof_C 	C 	0.15171	0.37222	0.86912	-0.037
Mof_H 	H 	0.12167	0.35973	0.85793	0.042
Mof_H 	H 	0.23077	0.50813	0.90213	-0.065
Mof_H 	H 	0.29107	0.53593	0.98743	0.224
Mof_O 	O 	0.69184	0.80602	0.26943	-0.407
Mof_O 	O 	0.72394	0.82164	0.34835	-0.418
Mof_C 	C 	0.71963	0.80791	0.30288	0.372
Mof_C 	C 	0.75013	0.79137	0.28494	-0.133
Mof_C 	C 	0.77877	0.78827	0.32013	0.065
Mof_H 	H 	0.77933	0.79697	0.35527	0.02
Mof_C 	C 	0.80659	0.77243	0.30416	-0.144
Mof_H 	H 	0.82573	0.76997	0.32877	0.091
Mof_C 	C 	0.80692	0.76004	0.25254	0.112
Mof_C 	C 	0.77785	0.76315	0.21851	-0.15
Mof_H 	H 	0.77713	0.75467	0.18327	0.082
Mof_C 	C 	0.74958	0.77854	0.23466	0.07
Mof_H 	H 	0.72973	0.78017	0.21047	0.022
Mof_C 	C 	0.83561	0.74168	0.23508	-0.074
Mof_C 	C 	0.81837	0.70556	0.20246	-0.037
Mof_H 	H 	0.78833	0.69307	0.19127	0.042
Mof_H 	H 	0.89743	0.84147	0.23547	-0.065
Mof_H 	H 	0.95773	0.86927	0.32077	0.224
Mof_O 	O 	0.35851	0.21916	0.60276	-0.407
Mof_O 	O 	0.39061	0.23564	0.68168	-0.418
Mof_C 	C 	0.3863	0.24506	0.63621	0.372
Mof_C 	C 	0.4168	0.2921	0.61827	-0.133
Mof_C 	C 	0.44544	0.32384	0.65346	0.065
Mof_H 	H 	0.446	0.3157	0.6886	0.02
Mof_C 	C 	0.47326	0.3675	0.63749	-0.144
Mof_H 	H 	0.4924	0.3891	0.6621	0.091
Mof_C 	C 	0.47359	0.38022	0.58587	0.112
Mof_C 	C 	0.44452	0.34804	0.55184	-0.15
Mof_H 	H 	0.4438	0.3558	0.5166	0.082
Mof_C 	C 	0.41625	0.30438	0.56799	0.07
Mof_H 	H 	0.3964	0.2829	0.5438	0.022
Mof_C 	C 	0.50228	0.42727	0.56841	-0.074
Mof_C 	C 	0.48504	0.44615	0.53579	-0.037
Mof_H 	H 	0.455	0.4286	0.5246	0.042
Mof_H 	H 	0.5641	0.3893	0.5688	-0.065
Mof_H 	H 	0.6244	0.4218	0.6541	0.224
Mof_O 	O 	0.02518	0.55249	0.93609	-0.407
Mof_O 	O 	0.05728	0.56897	0.01501	-0.418
Mof_C 	C 	0.05297	0.57839	0.96954	0.373
Mof_C 	C 	0.08347	0.62543	0.9516	-0.133
Mof_C 	C 	0.11211	0.65717	0.98679	0.065
Mof_H 	H 	0.11267	0.64903	0.02193	0.02
Mof_C 	C 	0.13993	0.70083	0.97082	-0.145
Mof_H 	H 	0.15907	0.72243	0.99543	0.091
Mof_C 	C 	0.14026	0.71355	0.9192	0.112
Mof_C 	C 	0.11119	0.68137	0.88517	-0.15
Mof_H 	H 	0.11047	0.68913	0.84993	0.082
Mof_C 	C 	0.08292	0.63771	0.90132	0.071
Mof_H 	H 	0.06307	0.61623	0.87713	0.022
Mof_C 	C 	0.16895	0.7606	0.90174	-0.074
Mof_C 	C 	0.15171	0.77948	0.86912	-0.036
Mof_H 	H 	0.12167	0.76193	0.85793	0.042
Mof_H 	H 	0.23077	0.72263	0.90213	-0.065
Mof_H 	H 	0.29107	0.75513	0.98743	0.224
Mof_O 	O 	0.69184	0.88583	0.26943	-0.407
Mof_O 	O 	0.72394	0.90231	0.34835	-0.418
Mof_C 	C 	0.71963	0.91173	0.30288	0.372
Mof_C 	C 	0.75013	0.95877	0.28494	-0.133
Mof_C 	C 	0.77877	0.99051	0.32013	0.065
Mof_H 	H 	0.77933	0.98237	0.35527	0.021
Mof_C 	C 	0.80659	0.03417	0.30416	-0.144
Mof_H 	H 	0.82573	0.05577	0.32877	0.091
Mof_C 	C 	0.80692	0.04689	0.25254	0.112
Mof_C 	C 	0.77785	0.01471	0.21851	-0.149
Mof_H 	H 	0.77713	0.02247	0.18327	0.082
Mof_C 	C 	0.74958	0.97105	0.23466	0.07
Mof_H 	H 	0.72973	0.94957	0.21047	0.022
Mof_C 	C 	0.83561	0.09394	0.23508	-0.074
Mof_C 	C 	0.81837	0.11282	0.20246	-0.037
Mof_H 	H 	0.78833	0.09527	0.19127	0.042
Mof_H 	H 	0.89743	0.05597	0.23547	-0.065
Mof_H 	H 	0.95773	0.08847	0.32077	0.224
Mof_O 	O 	0.78084	0.13935	0.60276	-0.407
Mof_O 	O 	0.76436	0.15497	0.68168	-0.418
Mof_C 	C 	0.75494	0.14124	0.63621	0.372
Mof_C 	C 	0.7079	0.1247	0.61827	-0.133
Mof_C 	C 	0.67616	0.1216	0.65346	0.065
Mof_H 	H 	0.6843	0.1303	0.6886	0.02
Mof_C 	C 	0.6325	0.10576	0.63749	-0.144
Mof_H 	H 	0.6109	0.1033	0.6621	0.091
Mof_C 	C 	0.61978	0.09337	0.58587	0.112
Mof_C 	C 	0.65196	0.09648	0.55184	-0.15
Mof_H 	H 	0.6442	0.088	0.5166	0.082
Mof_C 	C 	0.69562	0.11187	0.56799	0.07
Mof_H 	H 	0.7171	0.1135	0.5438	0.022
Mof_C 	C 	0.57273	0.07501	0.56841	-0.074
Mof_C 	C 	0.55385	0.03889	0.53579	-0.037
Mof_H 	H 	0.5714	0.0264	0.5246	0.042
Mof_H 	H 	0.6107	0.1748	0.5688	-0.065
Mof_H 	H 	0.5782	0.2026	0.6541	0.224
Mof_O 	O 	0.44751	0.47268	0.93609	-0.407
Mof_O 	O 	0.43103	0.4883	0.01501	-0.418
Mof_C 	C 	0.42161	0.47457	0.96954	0.372
Mof_C 	C 	0.37457	0.45803	0.9516	-0.133
Mof_C 	C 	0.34283	0.45493	0.98679	0.065
Mof_H 	H 	0.35097	0.46363	0.02193	0.02
Mof_C 	C 	0.29917	0.43909	0.97082	-0.144
Mof_H 	H 	0.27757	0.43663	0.99543	0.091
Mof_C 	C 	0.28645	0.4267	0.9192	0.112
Mof_C 	C 	0.31863	0.42981	0.88517	-0.15
Mof_H 	H 	0.31087	0.42133	0.84993	0.082
Mof_C 	C 	0.36229	0.4452	0.90132	0.07
Mof_H 	H 	0.38377	0.44683	0.87713	0.022
Mof_C 	C 	0.2394	0.40834	0.90174	-0.074
Mof_C 	C 	0.22052	0.37222	0.86912	-0.037
Mof_H 	H 	0.23807	0.35973	0.85793	0.042
Mof_H 	H 	0.27737	0.50813	0.90213	-0.065
Mof_H 	H 	0.24487	0.53593	0.98743	0.224
Mof_O 	O 	0.11417	0.80602	0.26943	-0.407
Mof_O 	O 	0.09769	0.82164	0.34835	-0.418
Mof_C 	C 	0.08827	0.80791	0.30288	0.372
Mof_C 	C 	0.04123	0.79137	0.28494	-0.133
Mof_C 	C 	0.00949	0.78827	0.32013	0.065
Mof_H 	H 	0.01763	0.79697	0.35527	0.02
Mof_C 	C 	0.96583	0.77243	0.30416	-0.144
Mof_H 	H 	0.94423	0.76997	0.32877	0.091
Mof_C 	C 	0.95311	0.76004	0.25254	0.112
Mof_C 	C 	0.98529	0.76315	0.21851	-0.15
Mof_H 	H 	0.97753	0.75467	0.18327	0.082
Mof_C 	C 	0.02895	0.77854	0.23466	0.07
Mof_H 	H 	0.05043	0.78017	0.21047	0.022
Mof_C 	C 	0.90606	0.74168	0.23508	-0.074
Mof_C 	C 	0.88718	0.70556	0.20246	-0.037
Mof_H 	H 	0.90473	0.69307	0.19127	0.042
Mof_H 	H 	0.94403	0.84147	0.23547	-0.065
Mof_H 	H 	0.91153	0.86927	0.32077	0.224
Mof_O 	O 	0.86065	0.64149	0.60276	-0.407
Mof_O 	O 	0.84503	0.60939	0.68168	-0.418
Mof_C 	C 	0.85876	0.6137	0.63621	0.372
Mof_C 	C 	0.8753	0.5832	0.61827	-0.133
Mof_C 	C 	0.8784	0.55456	0.65346	0.065
Mof_H 	H 	0.8697	0.554	0.6886	0.02
Mof_C 	C 	0.89424	0.52674	0.63749	-0.144
Mof_H 	H 	0.8967	0.5076	0.6621	0.091
Mof_C 	C 	0.90663	0.52641	0.58587	0.112
Mof_C 	C 	0.90352	0.55548	0.55184	-0.15
Mof_H 	H 	0.912	0.5562	0.5166	0.082
Mof_C 	C 	0.88813	0.58375	0.56799	0.07
Mof_H 	H 	0.8865	0.6036	0.5438	0.022
Mof_C 	C 	0.92499	0.49772	0.56841	-0.074
Mof_C 	C 	0.96111	0.51496	0.53579	-0.037
Mof_H 	H 	0.9736	0.545	0.5246	0.042
Mof_H 	H 	0.8252	0.4359	0.5688	-0.065
Mof_H 	H 	0.7974	0.3756	0.6541	0.224
Mof_O 	O 	0.52732	0.97482	0.93609	-0.407
Mof_O 	O 	0.5117	0.94272	0.01501	-0.418
Mof_C 	C 	0.52543	0.94703	0.96954	0.373
Mof_C 	C 	0.54197	0.91653	0.9516	-0.133
Mof_C 	C 	0.54507	0.88789	0.98679	0.065
Mof_H 	H 	0.53637	0.88733	0.02193	0.02
Mof_C 	C 	0.56091	0.86007	0.97082	-0.145
Mof_H 	H 	0.56337	0.84093	0.99543	0.091
Mof_C 	C 	0.5733	0.85974	0.9192	0.112
Mof_C 	C 	0.57019	0.88881	0.88517	-0.15
Mof_H 	H 	0.57867	0.88953	0.84993	0.082
Mof_C 	C 	0.5548	0.91708	0.90132	0.071
Mof_H 	H 	0.55317	0.93693	0.87713	0.022
Mof_C 	C 	0.59166	0.83105	0.90174	-0.074
Mof_C 	C 	0.62778	0.84829	0.86912	-0.037
Mof_H 	H 	0.64027	0.87833	0.85793	0.042
Mof_H 	H 	0.49187	0.76923	0.90213	-0.065
Mof_H 	H 	0.46407	0.70893	0.98743	0.224
Mof_O 	O 	0.19398	0.30816	0.26943	-0.407
Mof_O 	O 	0.17836	0.27606	0.34835	-0.418
Mof_C 	C 	0.19209	0.28037	0.30288	0.372
Mof_C 	C 	0.20863	0.24987	0.28494	-0.133
Mof_C 	C 	0.21173	0.22123	0.32013	0.065
Mof_H 	H 	0.20303	0.22067	0.35527	0.02
Mof_C 	C 	0.22757	0.19341	0.30416	-0.144
Mof_H 	H 	0.23003	0.17427	0.32877	0.091
Mof_C 	C 	0.23996	0.19308	0.25254	0.112
Mof_C 	C 	0.23685	0.22215	0.21851	-0.15
Mof_H 	H 	0.24533	0.22287	0.18327	0.082
Mof_C 	C 	0.22146	0.25042	0.23466	0.07
Mof_H 	H 	0.21983	0.27027	0.21047	0.022
Mof_C 	C 	0.25832	0.16439	0.23508	-0.074
Mof_C 	C 	0.29444	0.18163	0.20246	-0.037
Mof_H 	H 	0.30693	0.21167	0.19127	0.042
Mof_H 	H 	0.15853	0.10257	0.23547	-0.065
Mof_H 	H 	0.13073	0.04227	0.32077	0.224
Mof_O 	O 	0.21916	0.35851	0.39724	-0.407
Mof_O 	O 	0.23564	0.39061	0.31832	-0.418
Mof_C 	C 	0.24506	0.3863	0.36379	0.372
Mof_C 	C 	0.2921	0.4168	0.38173	-0.133
Mof_C 	C 	0.32384	0.44544	0.34654	0.065
Mof_H 	H 	0.3157	0.446	0.3114	0.02
Mof_C 	C 	0.3675	0.47326	0.36251	-0.144
Mof_H 	H 	0.3891	0.4924	0.3379	0.091
Mof_C 	C 	0.38022	0.47359	0.41413	0.112
Mof_C 	C 	0.34804	0.44452	0.44816	-0.15
Mof_H 	H 	0.3558	0.4438	0.4834	0.082
Mof_C 	C 	0.30438	0.41625	0.43201	0.07
Mof_H 	H 	0.2829	0.3964	0.4562	0.022
Mof_C 	C 	0.42727	0.50228	0.43159	-0.074
Mof_C 	C 	0.44615	0.48504	0.46421	-0.037
Mof_H 	H 	0.4286	0.455	0.4754	0.042
Mof_H 	H 	0.3893	0.5641	0.4312	-0.065
Mof_H 	H 	0.4218	0.6244	0.3459	0.224
Mof_O 	O 	0.88583	0.69184	0.73057	-0.407
Mof_O 	O 	0.90231	0.72394	0.65165	-0.418
Mof_C 	C 	0.91173	0.71963	0.69712	0.372
Mof_C 	C 	0.95877	0.75013	0.71506	-0.133
Mof_C 	C 	0.99051	0.77877	0.67987	0.065
Mof_H 	H 	0.98237	0.77933	0.64473	0.021
Mof_C 	C 	0.03417	0.80659	0.69584	-0.144
Mof_H 	H 	0.05577	0.82573	0.67123	0.091
Mof_C 	C 	0.04689	0.80692	0.74746	0.112
Mof_C 	C 	0.01471	0.77785	0.78149	-0.149
Mof_H 	H 	0.02247	0.77713	0.81673	0.082
Mof_C 	C 	0.97105	0.74958	0.76534	0.07
Mof_H 	H 	0.94957	0.72973	0.78953	0.022
Mof_C 	C 	0.09394	0.83561	0.76492	-0.074
Mof_C 	C 	0.11282	0.81837	0.79754	-0.037
Mof_H 	H 	0.09527	0.78833	0.80873	0.042
Mof_H 	H 	0.05597	0.89743	0.76453	-0.065
Mof_H 	H 	0.08847	0.95773	0.67923	0.224
Mof_O 	O 	0.55249	0.02518	0.06391	-0.407
Mof_O 	O 	0.56897	0.05728	0.98499	-0.418
Mof_C 	C 	0.57839	0.05297	0.03046	0.373
Mof_C 	C 	0.62543	0.08347	0.0484	-0.133
Mof_C 	C 	0.65717	0.11211	0.01321	0.065
Mof_H 	H 	0.64903	0.11267	0.97807	0.02
Mof_C 	C 	0.70083	0.13993	0.02918	-0.145
Mof_H 	H 	0.72243	0.15907	0.00457	0.091
Mof_C 	C 	0.71355	0.14026	0.0808	0.112
Mof_C 	C 	0.68137	0.11119	0.11483	-0.15
Mof_H 	H 	0.68913	0.11047	0.15007	0.082
Mof_C 	C 	0.63771	0.08292	0.09868	0.071
Mof_H 	H 	0.61623	0.06307	0.12287	0.022
Mof_C 	C 	0.7606	0.16895	0.09826	-0.074
Mof_C 	C 	0.77948	0.15171	0.13088	-0.036
Mof_H 	H 	0.76193	0.12167	0.14207	0.042
Mof_H 	H 	0.72263	0.23077	0.09787	-0.065
Mof_H 	H 	0.75513	0.29107	0.01257	0.224
Mof_O 	O 	0.13935	0.78084	0.39724	-0.407
Mof_O 	O 	0.15497	0.76436	0.31832	-0.418
Mof_C 	C 	0.14124	0.75494	0.36379	0.372
Mof_C 	C 	0.1247	0.7079	0.38173	-0.133
Mof_C 	C 	0.1216	0.67616	0.34654	0.065
Mof_H 	H 	0.1303	0.6843	0.3114	0.02
Mof_C 	C 	0.10576	0.6325	0.36251	-0.144
Mof_H 	H 	0.1033	0.6109	0.3379	0.091
Mof_C 	C 	0.09337	0.61978	0.41413	0.112
Mof_C 	C 	0.09648	0.65196	0.44816	-0.15
Mof_H 	H 	0.088	0.6442	0.4834	0.082
Mof_C 	C 	0.11187	0.69562	0.43201	0.07
Mof_H 	H 	0.1135	0.7171	0.4562	0.022
Mof_C 	C 	0.07501	0.57273	0.43159	-0.074
Mof_C 	C 	0.03889	0.55385	0.46421	-0.037
Mof_H 	H 	0.0264	0.5714	0.4754	0.042
Mof_H 	H 	0.1748	0.6107	0.4312	-0.065
Mof_H 	H 	0.2026	0.5782	0.3459	0.224
Mof_O 	O 	0.80602	0.11417	0.73057	-0.407
Mof_O 	O 	0.82164	0.09769	0.65165	-0.418
Mof_C 	C 	0.80791	0.08827	0.69712	0.372
Mof_C 	C 	0.79137	0.04123	0.71506	-0.133
Mof_C 	C 	0.78827	0.00949	0.67987	0.065
Mof_H 	H 	0.79697	0.01763	0.64473	0.02
Mof_C 	C 	0.77243	0.96583	0.69584	-0.144
Mof_H 	H 	0.76997	0.94423	0.67123	0.091
Mof_C 	C 	0.76004	0.95311	0.74746	0.112
Mof_C 	C 	0.76315	0.98529	0.78149	-0.15
Mof_H 	H 	0.75467	0.97753	0.81673	0.082
Mof_C 	C 	0.77854	0.02895	0.76534	0.07
Mof_H 	H 	0.78017	0.05043	0.78953	0.022
Mof_C 	C 	0.74168	0.90606	0.76492	-0.074
Mof_C 	C 	0.70556	0.88718	0.79754	-0.037
Mof_H 	H 	0.69307	0.90473	0.80873	0.042
Mof_H 	H 	0.84147	0.94403	0.76453	-0.065
Mof_H 	H 	0.86927	0.91153	0.67923	0.224
Mof_O 	O 	0.47268	0.44751	0.06391	-0.407
Mof_O 	O 	0.4883	0.43103	0.98499	-0.418
Mof_C 	C 	0.47457	0.42161	0.03046	0.372
Mof_C 	C 	0.45803	0.37457	0.0484	-0.133
Mof_C 	C 	0.45493	0.34283	0.01321	0.065
Mof_H 	H 	0.46363	0.35097	0.97807	0.02
Mof_C 	C 	0.43909	0.29917	0.02918	-0.144
Mof_H 	H 	0.43663	0.27757	0.00457	0.091
Mof_C 	C 	0.4267	0.28645	0.0808	0.112
Mof_C 	C 	0.42981	0.31863	0.11483	-0.15
Mof_H 	H 	0.42133	0.31087	0.15007	0.082
Mof_C 	C 	0.4452	0.36229	0.09868	0.07
Mof_H 	H 	0.44683	0.38377	0.12287	0.022
Mof_C 	C 	0.40834	0.2394	0.09826	-0.074
Mof_C 	C 	0.37222	0.22052	0.13088	-0.037
Mof_H 	H 	0.35973	0.23807	0.14207	0.042
Mof_H 	H 	0.50813	0.27737	0.09787	-0.065
Mof_H 	H 	0.53593	0.24487	0.01257	0.224
Mof_O 	O 	0.64149	0.86065	0.39724	-0.407
Mof_O 	O 	0.60939	0.84503	0.31832	-0.418
Mof_C 	C 	0.6137	0.85876	0.36379	0.372
Mof_C 	C 	0.5832	0.8753	0.38173	-0.133
Mof_C 	C 	0.55456	0.8784	0.34654	0.065
Mof_H 	H 	0.554	0.8697	0.3114	0.02
Mof_C 	C 	0.52674	0.89424	0.36251	-0.144
Mof_H 	H 	0.5076	0.8967	0.3379	0.091
Mof_C 	C 	0.52641	0.90663	0.41413	0.112
Mof_C 	C 	0.55548	0.90352	0.44816	-0.15
Mof_H 	H 	0.5562	0.912	0.4834	0.082
Mof_C 	C 	0.58375	0.88813	0.43201	0.07
Mof_H 	H 	0.6036	0.8865	0.4562	0.022
Mof_C 	C 	0.49772	0.92499	0.43159	-0.074
Mof_C 	C 	0.51496	0.96111	0.46421	-0.037
Mof_H 	H 	0.545	0.9736	0.4754	0.042
Mof_H 	H 	0.4359	0.8252	0.4312	-0.065
Mof_H 	H 	0.3756	0.7974	0.3459	0.224
Mof_O 	O 	0.30816	0.19398	0.73057	-0.407
Mof_O 	O 	0.27606	0.17836	0.65165	-0.418
Mof_C 	C 	0.28037	0.19209	0.69712	0.372
Mof_C 	C 	0.24987	0.20863	0.71506	-0.133
Mof_C 	C 	0.22123	0.21173	0.67987	0.065
Mof_H 	H 	0.22067	0.20303	0.64473	0.02
Mof_C 	C 	0.19341	0.22757	0.69584	-0.144
Mof_H 	H 	0.17427	0.23003	0.67123	0.091
Mof_C 	C 	0.19308	0.23996	0.74746	0.112
Mof_C 	C 	0.22215	0.23685	0.78149	-0.15
Mof_H 	H 	0.22287	0.24533	0.81673	0.082
Mof_C 	C 	0.25042	0.22146	0.76534	0.07
Mof_H 	H 	0.27027	0.21983	0.78953	0.022
Mof_C 	C 	0.16439	0.25832	0.76492	-0.074
Mof_C 	C 	0.18163	0.29444	0.79754	-0.037
Mof_H 	H 	0.21167	0.30693	0.80873	0.042
Mof_H 	H 	0.10257	0.15853	0.76453	-0.065
Mof_H 	H 	0.04227	0.13073	0.67923	0.224
Mof_O 	O 	0.97482	0.52732	0.06391	-0.407
Mof_O 	O 	0.94272	0.5117	0.98499	-0.418
Mof_C 	C 	0.94703	0.52543	0.03046	0.373
Mof_C 	C 	0.91653	0.54197	0.0484	-0.133
Mof_C 	C 	0.88789	0.54507	0.01321	0.065
Mof_H 	H 	0.88733	0.53637	0.97807	0.02
Mof_C 	C 	0.86007	0.56091	0.02918	-0.145
Mof_H 	H 	0.84093	0.56337	0.00457	0.091
Mof_C 	C 	0.85974	0.5733	0.0808	0.112
Mof_C 	C 	0.88881	0.57019	0.11483	-0.15
Mof_H 	H 	0.88953	0.57867	0.15007	0.082
Mof_C 	C 	0.91708	0.5548	0.09868	0.071
Mof_H 	H 	0.93693	0.55317	0.12287	0.022
Mof_C 	C 	0.83105	0.59166	0.09826	-0.074
Mof_C 	C 	0.84829	0.62778	0.13088	-0.037
Mof_H 	H 	0.87833	0.64027	0.14207	0.042
Mof_H 	H 	0.76923	0.49187	0.09787	-0.065
Mof_H 	H 	0.70893	0.46407	0.01257	0.224
Mof_Cu	Cu	0.64736	0.82368	0.2875	0.9
Mof_Cu	Cu	0.31403	0.15701	0.62083	0.9
Mof_Cu	Cu	0.98069	0.49035	0.95417	0.9
Mof_Cu	Cu	0.17632	0.82368	0.2875	0.9
Mof_Cu	Cu	0.84299	0.15701	0.62083	0.9
Mof_Cu	Cu	0.50965	0.49035	0.95417	0.9
Mof_Cu	Cu	0.17632	0.35264	0.2875	0.9
Mof_Cu	Cu	0.84299	0.68597	0.62083	0.9
Mof_Cu	Cu	0.50965	0.01931	0.95417	0.9
Mof_Cu	Cu	0.82368	0.64736	0.7125	0.9
Mof_Cu	Cu	0.49035	0.98069	0.04583	0.9
Mof_Cu	Cu	0.15701	0.31403	0.37917	0.9
Mof_Cu	Cu	0.82368	0.17632	0.7125	0.9
Mof_Cu	Cu	0.49035	0.50965	0.04583	0.9
Mof_Cu	Cu	0.15701	0.84299	0.37917	0.9
Mof_Cu	Cu	0.35264	0.17632	0.7125	0.9
Mof_Cu	Cu	0.01931	0.50965	0.04583	0.9
Mof_Cu	Cu	0.68597	0.84299	0.37917	0.9
Mof_O 	O 	0.43477	0.56523	0.38219	-0.281
Mof_C 	C 	0.49021	0.50979	0.48172	0.003
Mof_C 	C 	0.45304	0.54696	0.41576	0.149
Mof_C 	C 	0.41402	0.58598	0.4091	0.34
Mof_C 	C 	0.39692	0.60308	0.3675	-0.666
Mof_H 	H 	0.382	0.618	0.3832	0.21
Mof_O 	O 	0.10144	0.89856	0.71552	-0.281
Mof_C 	C 	0.15688	0.84312	0.81505	0.003
Mof_C 	C 	0.11971	0.88029	0.74909	0.149
Mof_C 	C 	0.08069	0.91931	0.74243	0.34
Mof_C 	C 	0.06359	0.93641	0.70083	-0.666
Mof_H 	H 	0.04867	0.95133	0.71653	0.21
Mof_O 	O 	0.7681	0.2319	0.04886	-0.281
Mof_C 	C 	0.82354	0.17646	0.14839	0.003
Mof_C 	C 	0.78637	0.21363	0.08243	0.149
Mof_C 	C 	0.74735	0.25265	0.07577	0.34
Mof_C 	C 	0.73025	0.26975	0.03417	-0.666
Mof_H 	H 	0.71533	0.28467	0.04987	0.21
Mof_O 	O 	0.43477	0.86954	0.38219	-0.281
Mof_C 	C 	0.49021	0.98042	0.48172	0.003
Mof_C 	C 	0.45304	0.90608	0.41576	0.149
Mof_C 	C 	0.41402	0.82804	0.4091	0.34
Mof_C 	C 	0.39692	0.79384	0.3675	-0.666
Mof_H 	H 	0.382	0.764	0.3832	0.21
Mof_O 	O 	0.10144	0.20287	0.71552	-0.281
Mof_C 	C 	0.15688	0.31375	0.81505	0.003
Mof_C 	C 	0.11971	0.23941	0.74909	0.149
Mof_C 	C 	0.08069	0.16137	0.74243	0.34
Mof_C 	C 	0.06359	0.12717	0.70083	-0.666
Mof_H 	H 	0.04867	0.09733	0.71653	0.21
Mof_O 	O 	0.7681	0.53621	0.04886	-0.281
Mof_C 	C 	0.82354	0.64709	0.14839	0.003
Mof_C 	C 	0.78637	0.57275	0.08243	0.149
Mof_C 	C 	0.74735	0.49471	0.07577	0.34
Mof_C 	C 	0.73025	0.46051	0.03417	-0.666
Mof_H 	H 	0.71533	0.43067	0.04987	0.21
Mof_O 	O 	0.13046	0.56523	0.38219	-0.281
Mof_C 	C 	0.01958	0.50979	0.48172	0.003
Mof_C 	C 	0.09392	0.54696	0.41576	0.149
Mof_C 	C 	0.17196	0.58598	0.4091	0.34
Mof_C 	C 	0.20616	0.60308	0.3675	-0.666
Mof_H 	H 	0.236	0.618	0.3832	0.21
Mof_O 	O 	0.79713	0.89856	0.71552	-0.281
Mof_C 	C 	0.68625	0.84312	0.81505	0.003
Mof_C 	C 	0.76059	0.88029	0.74909	0.149
Mof_C 	C 	0.83863	0.91931	0.74243	0.34
Mof_C 	C 	0.87283	0.93641	0.70083	-0.666
Mof_H 	H 	0.90267	0.95133	0.71653	0.21
Mof_O 	O 	0.46379	0.2319	0.04886	-0.281
Mof_C 	C 	0.35291	0.17646	0.14839	0.003
Mof_C 	C 	0.42725	0.21363	0.08243	0.149
Mof_C 	C 	0.50529	0.25265	0.07577	0.34
Mof_C 	C 	0.53949	0.26975	0.03417	-0.666
Mof_H 	H 	0.56933	0.28467	0.04987	0.21
Mof_O 	O 	0.56523	0.43477	0.61781	-0.281
Mof_C 	C 	0.50979	0.49021	0.51828	0.003
Mof_C 	C 	0.54696	0.45304	0.58424	0.149
Mof_C 	C 	0.58598	0.41402	0.5909	0.34
Mof_C 	C 	0.60308	0.39692	0.6325	-0.666
Mof_H 	H 	0.618	0.382	0.6168	0.21
Mof_O 	O 	0.2319	0.7681	0.95114	-0.281
Mof_C 	C 	0.17646	0.82354	0.85161	0.003
Mof_C 	C 	0.21363	0.78637	0.91757	0.149
Mof_C 	C 	0.25265	0.74735	0.92423	0.34
Mof_C 	C 	0.26975	0.73025	0.96583	-0.666
Mof_H 	H 	0.28467	0.71533	0.95013	0.21
Mof_O 	O 	0.89856	0.10144	0.28448	-0.281
Mof_C 	C 	0.84312	0.15688	0.18495	0.003
Mof_C 	C 	0.88029	0.11971	0.25091	0.149
Mof_C 	C 	0.91931	0.08069	0.25757	0.34
Mof_C 	C 	0.93641	0.06359	0.29917	-0.666
Mof_H 	H 	0.95133	0.04867	0.28347	0.21
Mof_O 	O 	0.86954	0.43477	0.61781	-0.281
Mof_C 	C 	0.98042	0.49021	0.51828	0.003
Mof_C 	C 	0.90608	0.45304	0.58424	0.149
Mof_C 	C 	0.82804	0.41402	0.5909	0.34
Mof_C 	C 	0.79384	0.39692	0.6325	-0.666
Mof_H 	H 	0.764	0.382	0.6168	0.21
Mof_O 	O 	0.53621	0.7681	0.95114	-0.281
Mof_C 	C 	0.64709	0.82354	0.85161	0.003
Mof_C 	C 	0.57275	0.78637	0.91757	0.149
Mof_C 	C 	0.49471	0.74735	0.92423	0.34
Mof_C 	C 	0.46051	0.73025	0.96583	-0.666
Mof_H 	H 	0.43067	0.71533	0.95013	0.21
Mof_O 	O 	0.20287	0.10144	0.28448	-0.281
Mof_C 	C 	0.31375	0.15688	0.18495	0.003
Mof_C 	C 	0.23941	0.11971	0.25091	0.149
Mof_C 	C 	0.16137	0.08069	0.25757	0.34
Mof_C 	C 	0.12717	0.06359	0.29917	-0.666
Mof_H 	H 	0.09733	0.04867	0.28347	0.21
Mof_O 	O 	0.56523	0.13046	0.61781	-0.281
Mof_C 	C 	0.50979	0.01958	0.51828	0.003
Mof_C 	C 	0.54696	0.09392	0.58424	0.149
Mof_C 	C 	0.58598	0.17196	0.5909	0.34
Mof_C 	C 	0.60308	0.20616	0.6325	-0.666
Mof_H 	H 	0.618	0.236	0.6168	0.21
Mof_O 	O 	0.2319	0.46379	0.95114	-0.281
Mof_C 	C 	0.17646	0.35291	0.85161	0.003
Mof_C 	C 	0.21363	0.42725	0.91757	0.149
Mof_C 	C 	0.25265	0.50529	0.92423	0.34
Mof_C 	C 	0.26975	0.53949	0.96583	-0.666
Mof_H 	H 	0.28467	0.56933	0.95013	0.21
Mof_O 	O 	0.89856	0.79713	0.28448	-0.281
Mof_C 	C 	0.84312	0.68625	0.18495	0.003
Mof_C 	C 	0.88029	0.76059	0.25091	0.149
Mof_C 	C 	0.91931	0.83863	0.25757	0.34
Mof_C 	C 	0.93641	0.87283	0.29917	-0.666
Mof_H 	H 	0.95133	0.90267	0.28347	0.21
_end
