# CIF file generated by openbabel 3.1.0, see https://openbabel.org
data_I
_chemical_name_common 'image0'
_cell_length_a 17.1161
_cell_length_b 38.6862
_cell_length_c 25.6467
_cell_angle_alpha 90
_cell_angle_beta 101.441
_cell_angle_gamma 90
_space_group_name_H-M_alt 'P 1'
_space_group_name_Hall 'P 1'
loop_
    _symmetry_equiv_pos_as_xyz
    x,y,z
loop_
    _atom_site_label
    _atom_site_type_symbol
    _atom_site_fract_x
    _atom_site_fract_y
    _atom_site_fract_z
    _atom_site_occupancy
    Cu1      Cu       0.94020    0.26600    0.20506    1.000
    Cu2      Cu       0.07217    0.25232    0.27420    1.000
    Cu3      Cu       0.00609    0.96601    0.49967    1.000
    O1       O        0.11504    0.97656    0.49088    1.000
    O2       O        0.88430    0.78903    0.26432    1.000
    O3       O        0.99500    0.79992    0.32421    1.000
    O4       O        0.89470    0.23100    0.24423    1.000
    O5       O        0.00880    0.21751    0.30243    1.000
    O6       O        0.03870    0.97130    0.57630    1.000
    O7       O        0.97900    0.22885    0.16429    1.000
    O8       O        0.09170    0.21834    0.22207    1.000
    O9       O        0.07790    0.80083    0.24328    1.000
    O10      O        0.96740    0.78817    0.18361    1.000
    C1       C        0.14140    0.00664    0.48752    1.000
    C2       C        0.22390    0.00967    0.47529    1.000
    C3       C        0.25630    0.04156    0.46990    1.000
    H1       H        0.22820    0.06170    0.47510    1.000
    C4       C        0.33250    0.04374    0.45660    1.000
    H2       H        0.35510    0.06550    0.45250    1.000
    C5       C        0.37310    0.01427    0.44960    1.000
    C6       C        0.34080    0.98260    0.45630    1.000
    H3       H        0.36990    0.96240    0.45260    1.000
    C7       C        0.26490    0.97993    0.46880    1.000
    H4       H        0.24240    0.95810    0.47270    1.000
    C8       C        0.45050    0.01649    0.43520    1.000
    C9       C        0.51670    0.01629    0.42240    1.000
    C10      C        0.59120    0.01511    0.40848    1.000
    C11      C        0.62670    0.98374    0.40344    1.000
    H5       H        0.60120    0.96320    0.41010    1.000
    C12      C        0.70170    0.98250    0.38819    1.000
    C13      C        0.74010    0.01274    0.37970    1.000
    H6       H        0.79110    0.01190    0.37120    1.000
    C14      C        0.70370    0.04402    0.38360    1.000
    C15      C        0.62880    0.04535    0.39817    1.000
    H7       H        0.60410    0.06680    0.40090    1.000
    C16      C        0.73910    0.94935    0.38190    1.000
    C17      C        0.77100    0.92336    0.37240    1.000
    C18      C        0.80800    0.89286    0.35940    1.000
    C19      C        0.76590    0.87078    0.32100    1.000
    H8       H        0.71160    0.87470    0.30700    1.000
    C20      C        0.80530    0.84279    0.30380    1.000
    H9       H        0.77740    0.82840    0.27680    1.000
    C21      C        0.88250    0.83564    0.32460    1.000
    C22      C        0.92250    0.85646    0.36350    1.000
    H10      H        0.97560    0.85140    0.37940    1.000
    C23      C        0.88550    0.88521    0.37990    1.000
    H11      H        0.91480    0.89980    0.40590    1.000
    C24      C        0.92320    0.80515    0.30280    1.000
    C25      C        0.74270    0.07495    0.37150    1.000
    C26      C        0.77570    0.09952    0.35960    1.000
    C27      C        0.81600    0.12943    0.34290    1.000
    C28      C        0.89670    0.13352    0.35820    1.000
    H12      H        0.92610    0.11710    0.38110    1.000
    C29      C        0.93650    0.16144    0.34070    1.000
    H13      H        0.99180    0.16420    0.35230    1.000
    C30      C        0.89240    0.18521    0.30570    1.000
    C31      C        0.81160    0.18177    0.28990    1.000
    H14      H        0.78270    0.19770    0.26590    1.000
    C32      C        0.77090    0.15383    0.30990    1.000
    H15      H        0.71510    0.15200    0.30100    1.000
    C33      C        0.93340    0.21407    0.28170    1.000
    C34      C        0.04250    0.00012    0.59874    1.000
    C35      C        0.06230    0.99975    0.65900    1.000
    C36      C        0.07220    0.96915    0.68710    1.000
    H16      H        0.06950    0.94810    0.66860    1.000
    C37      C        0.08590    0.96900    0.74160    1.000
    H17      H        0.09280    0.94780    0.75990    1.000
    C38      C        0.08970    0.99975    0.77010    1.000
    C39      C        0.08590    0.03011    0.74250    1.000
    H18      H        0.09320    0.05110    0.76120    1.000
    C40      C        0.07130    0.03042    0.68690    1.000
    H19      H        0.06760    0.05160    0.66860    1.000
    C41      C        0.09850    0.00008    0.82690    1.000
    C42      C        0.10300    0.00073    0.87320    1.000
    C43      C        0.10440    0.00226    0.93040    1.000
    C44      C        0.10260    0.03386    0.95470    1.000
    H20      H        0.10130    0.05430    0.93480    1.000
    C45      C        0.10280    0.03539    0.00840    1.000
    C46      C        0.10440    0.00551    0.03710    1.000
    H21      H        0.10460    0.00670    0.07380    1.000
    C47      C        0.10580    0.97360    0.01300    1.000
    C48      C        0.10390    0.97178    0.95950    1.000
    H22      H        0.10230    0.95020    0.94240    1.000
    C49      C        0.10030    0.06868    0.03420    1.000
    C50      C        0.09290    0.09545    0.05710    1.000
    C51      C        0.08270    0.12562    0.08570    1.000
    C52      C        0.01840    0.14644    0.07010    1.000
    H23      H        0.98220    0.14130    0.03840    1.000
    C53      C        0.00440    0.17506    0.09950    1.000
    H24      H        0.95890    0.18880    0.08830    1.000
    C54      C        0.05830    0.18299    0.14530    1.000
    C55      C        0.12490    0.16354    0.16130    1.000
    H25      H        0.16270    0.16990    0.19160    1.000
    C56      C        0.13690    0.13391    0.13220    1.000
    H26      H        0.18140    0.11970    0.14410    1.000
    C57      C        0.04270    0.21216    0.17980    1.000
    C58      C        0.10080    0.94204    0.04410    1.000
    C59      C        0.09020    0.91753    0.06870    1.000
    C60      C        0.07740    0.88846    0.10000    1.000
    C61      C        0.01110    0.86871    0.08530    1.000
    H27      H        0.97480    0.87370    0.05360    1.000
    C62      C        0.99660    0.84085    0.11740    1.000
    H28      H        0.95110    0.82700    0.10670    1.000
    C63      C        0.04850    0.83392    0.16410    1.000
    C64      C        0.11460    0.85290    0.17880    1.000
    H29      H        0.15020    0.84750    0.21060    1.000
    C65      C        0.13200    0.88122    0.14690    1.000
    H30      H        0.17860    0.89450    0.15720    1.000
    C66      C        0.03040    0.80502    0.19890    1.000
    O11      O        0.10507    0.03418    0.49134    1.000
    O12      O        0.02957    0.02915    0.57670    1.000
    Cu4      Cu       0.05980    0.76600    0.29494    1.000
    Cu5      Cu       0.92783    0.75232    0.22580    1.000
    Cu6      Cu       0.99391    0.46601    0.00033    1.000
    O13      O        0.88496    0.47656    0.00912    1.000
    O14      O        0.11570    0.28903    0.23568    1.000
    O15      O        0.00500    0.29992    0.17579    1.000
    O16      O        0.10530    0.73100    0.25577    1.000
    O17      O        0.99120    0.71751    0.19757    1.000
    O18      O        0.96130    0.47130    0.92370    1.000
    O19      O        0.02100    0.72885    0.33571    1.000
    O20      O        0.90830    0.71834    0.27793    1.000
    O21      O        0.92210    0.30083    0.25672    1.000
    O22      O        0.03260    0.28817    0.31639    1.000
    C67      C        0.85860    0.50664    0.01248    1.000
    C68      C        0.77610    0.50967    0.02471    1.000
    C69      C        0.74370    0.54156    0.03010    1.000
    H31      H        0.77180    0.56170    0.02490    1.000
    C70      C        0.66750    0.54374    0.04340    1.000
    H32      H        0.64490    0.56550    0.04750    1.000
    C71      C        0.62690    0.51427    0.05040    1.000
    C72      C        0.65920    0.48260    0.04370    1.000
    H33      H        0.63010    0.46240    0.04740    1.000
    C73      C        0.73510    0.47993    0.03120    1.000
    H34      H        0.75760    0.45810    0.02730    1.000
    C74      C        0.54950    0.51649    0.06480    1.000
    C75      C        0.48330    0.51629    0.07760    1.000
    C76      C        0.40880    0.51511    0.09152    1.000
    C77      C        0.37330    0.48374    0.09656    1.000
    H35      H        0.39880    0.46320    0.08990    1.000
    C78      C        0.29830    0.48250    0.11181    1.000
    C79      C        0.25990    0.51274    0.12030    1.000
    H36      H        0.20890    0.51190    0.12880    1.000
    C80      C        0.29630    0.54402    0.11640    1.000
    C81      C        0.37120    0.54535    0.10183    1.000
    H37      H        0.39590    0.56680    0.09910    1.000
    C82      C        0.26090    0.44935    0.11810    1.000
    C83      C        0.22900    0.42336    0.12760    1.000
    C84      C        0.19200    0.39286    0.14060    1.000
    C85      C        0.23410    0.37078    0.17900    1.000
    H38      H        0.28840    0.37470    0.19300    1.000
    C86      C        0.19470    0.34279    0.19620    1.000
    H39      H        0.22260    0.32840    0.22320    1.000
    C87      C        0.11750    0.33564    0.17540    1.000
    C88      C        0.07750    0.35646    0.13650    1.000
    H40      H        0.02440    0.35140    0.12060    1.000
    C89      C        0.11450    0.38521    0.12010    1.000
    H41      H        0.08520    0.39980    0.09410    1.000
    C90      C        0.07680    0.30515    0.19720    1.000
    C91      C        0.25730    0.57495    0.12850    1.000
    C92      C        0.22430    0.59952    0.14040    1.000
    C93      C        0.18400    0.62943    0.15710    1.000
    C94      C        0.10330    0.63352    0.14180    1.000
    H42      H        0.07390    0.61710    0.11890    1.000
    C95      C        0.06350    0.66144    0.15930    1.000
    H43      H        0.00820    0.66420    0.14770    1.000
    C96      C        0.10760    0.68521    0.19430    1.000
    C97      C        0.18840    0.68177    0.21010    1.000
    H44      H        0.21730    0.69770    0.23410    1.000
    C98      C        0.22910    0.65383    0.19010    1.000
    H45      H        0.28490    0.65200    0.19900    1.000
    C99      C        0.06660    0.71407    0.21830    1.000
    C100     C        0.95750    0.50012    0.90126    1.000
    C101     C        0.93770    0.49975    0.84100    1.000
    C102     C        0.92780    0.46915    0.81290    1.000
    H46      H        0.93050    0.44810    0.83140    1.000
    C103     C        0.91410    0.46900    0.75840    1.000
    H47      H        0.90720    0.44780    0.74010    1.000
    C104     C        0.91030    0.49975    0.72990    1.000
    C105     C        0.91410    0.53011    0.75750    1.000
    H48      H        0.90680    0.55110    0.73880    1.000
    C106     C        0.92870    0.53042    0.81310    1.000
    H49      H        0.93240    0.55160    0.83140    1.000
    C107     C        0.90150    0.50008    0.67310    1.000
    C108     C        0.89700    0.50073    0.62680    1.000
    C109     C        0.89560    0.50226    0.56960    1.000
    C110     C        0.89740    0.53386    0.54530    1.000
    H50      H        0.89870    0.55430    0.56520    1.000
    C111     C        0.89720    0.53539    0.49160    1.000
    C112     C        0.89560    0.50551    0.46290    1.000
    H51      H        0.89540    0.50670    0.42620    1.000
    C113     C        0.89420    0.47360    0.48700    1.000
    C114     C        0.89610    0.47178    0.54050    1.000
    H52      H        0.89770    0.45020    0.55760    1.000
    C115     C        0.89970    0.56868    0.46580    1.000
    C116     C        0.90710    0.59545    0.44290    1.000
    C117     C        0.91730    0.62562    0.41430    1.000
    C118     C        0.98160    0.64644    0.42990    1.000
    H53      H        0.01780    0.64130    0.46160    1.000
    C119     C        0.99560    0.67506    0.40050    1.000
    H54      H        0.04110    0.68880    0.41170    1.000
    C120     C        0.94170    0.68299    0.35470    1.000
    C121     C        0.87510    0.66354    0.33870    1.000
    H55      H        0.83730    0.66990    0.30840    1.000
    C122     C        0.86310    0.63391    0.36780    1.000
    H56      H        0.81860    0.61970    0.35590    1.000
    C123     C        0.95730    0.71216    0.32020    1.000
    C124     C        0.89920    0.44204    0.45590    1.000
    C125     C        0.90980    0.41753    0.43130    1.000
    C126     C        0.92260    0.38846    0.40000    1.000
    C127     C        0.98890    0.36871    0.41470    1.000
    H57      H        0.02520    0.37370    0.44640    1.000
    C128     C        0.00340    0.34085    0.38260    1.000
    H58      H        0.04890    0.32700    0.39330    1.000
    C129     C        0.95150    0.33392    0.33590    1.000
    C130     C        0.88540    0.35290    0.32120    1.000
    H59      H        0.84980    0.34750    0.28940    1.000
    C131     C        0.86800    0.38122    0.35310    1.000
    H60      H        0.82140    0.39450    0.34280    1.000
    C132     C        0.96960    0.30502    0.30110    1.000
    O23      O        0.89493    0.53418    0.00866    1.000
    O24      O        0.97043    0.52915    0.92330    1.000
    Cu7      Cu       0.05980    0.73400    0.79494    1.000
    Cu8      Cu       0.92783    0.74768    0.72580    1.000
    Cu9      Cu       0.99391    0.03399    0.50033    1.000
    O25      O        0.88496    0.02344    0.50912    1.000
    O26      O        0.11570    0.21097    0.73568    1.000
    O27      O        0.00500    0.20008    0.67579    1.000
    O28      O        0.10530    0.76900    0.75577    1.000
    O29      O        0.99120    0.78249    0.69757    1.000
    O30      O        0.96130    0.02870    0.42370    1.000
    O31      O        0.02100    0.77115    0.83571    1.000
    O32      O        0.90830    0.78166    0.77793    1.000
    O33      O        0.92210    0.19917    0.75672    1.000
    O34      O        0.03260    0.21183    0.81639    1.000
    C133     C        0.85860    0.99336    0.51248    1.000
    C134     C        0.77610    0.99033    0.52471    1.000
    C135     C        0.74370    0.95844    0.53010    1.000
    H61      H        0.77180    0.93830    0.52490    1.000
    C136     C        0.66750    0.95626    0.54340    1.000
    H62      H        0.64490    0.93450    0.54750    1.000
    C137     C        0.62690    0.98573    0.55040    1.000
    C138     C        0.65920    0.01740    0.54370    1.000
    H63      H        0.63010    0.03760    0.54740    1.000
    C139     C        0.73510    0.02007    0.53120    1.000
    H64      H        0.75760    0.04190    0.52730    1.000
    C140     C        0.54950    0.98351    0.56480    1.000
    C141     C        0.48330    0.98371    0.57760    1.000
    C142     C        0.40880    0.98489    0.59152    1.000
    C143     C        0.37330    0.01626    0.59656    1.000
    H65      H        0.39880    0.03680    0.58990    1.000
    C144     C        0.29830    0.01750    0.61181    1.000
    C145     C        0.25990    0.98726    0.62030    1.000
    H66      H        0.20890    0.98810    0.62880    1.000
    C146     C        0.29630    0.95598    0.61640    1.000
    C147     C        0.37120    0.95465    0.60183    1.000
    H67      H        0.39590    0.93320    0.59910    1.000
    C148     C        0.26090    0.05065    0.61810    1.000
    C149     C        0.22900    0.07664    0.62760    1.000
    C150     C        0.19200    0.10714    0.64060    1.000
    C151     C        0.23410    0.12922    0.67900    1.000
    H68      H        0.28840    0.12530    0.69300    1.000
    C152     C        0.19470    0.15721    0.69620    1.000
    H69      H        0.22260    0.17160    0.72320    1.000
    C153     C        0.11750    0.16436    0.67540    1.000
    C154     C        0.07750    0.14354    0.63650    1.000
    H70      H        0.02440    0.14860    0.62060    1.000
    C155     C        0.11450    0.11479    0.62010    1.000
    H71      H        0.08520    0.10020    0.59410    1.000
    C156     C        0.07680    0.19485    0.69720    1.000
    C157     C        0.25730    0.92505    0.62850    1.000
    C158     C        0.22430    0.90048    0.64040    1.000
    C159     C        0.18400    0.87057    0.65710    1.000
    C160     C        0.10330    0.86648    0.64180    1.000
    H72      H        0.07390    0.88290    0.61890    1.000
    C161     C        0.06350    0.83856    0.65930    1.000
    H73      H        0.00820    0.83580    0.64770    1.000
    C162     C        0.10760    0.81479    0.69430    1.000
    C163     C        0.18840    0.81823    0.71010    1.000
    H74      H        0.21730    0.80230    0.73410    1.000
    C164     C        0.22910    0.84617    0.69010    1.000
    H75      H        0.28490    0.84800    0.69900    1.000
    C165     C        0.06660    0.78593    0.71830    1.000
    C166     C        0.95750    0.99988    0.40126    1.000
    C167     C        0.93770    0.00025    0.34100    1.000
    C168     C        0.92780    0.03085    0.31290    1.000
    H76      H        0.93050    0.05190    0.33140    1.000
    C169     C        0.91410    0.03100    0.25840    1.000
    H77      H        0.90720    0.05220    0.24010    1.000
    C170     C        0.91030    0.00025    0.22990    1.000
    C171     C        0.91410    0.96989    0.25750    1.000
    H78      H        0.90680    0.94890    0.23880    1.000
    C172     C        0.92870    0.96958    0.31310    1.000
    H79      H        0.93240    0.94840    0.33140    1.000
    C173     C        0.90150    0.99992    0.17310    1.000
    C174     C        0.89700    0.99927    0.12680    1.000
    C175     C        0.89560    0.99774    0.06960    1.000
    C176     C        0.89740    0.96614    0.04530    1.000
    H80      H        0.89870    0.94570    0.06520    1.000
    C177     C        0.89720    0.96461    0.99160    1.000
    C178     C        0.89560    0.99449    0.96290    1.000
    H81      H        0.89540    0.99330    0.92620    1.000
    C179     C        0.89420    0.02640    0.98700    1.000
    C180     C        0.89610    0.02822    0.04050    1.000
    H82      H        0.89770    0.04980    0.05760    1.000
    C181     C        0.89970    0.93132    0.96580    1.000
    C182     C        0.90710    0.90455    0.94290    1.000
    C183     C        0.91730    0.87438    0.91430    1.000
    C184     C        0.98160    0.85356    0.92990    1.000
    H83      H        0.01780    0.85870    0.96160    1.000
    C185     C        0.99560    0.82494    0.90050    1.000
    H84      H        0.04110    0.81120    0.91170    1.000
    C186     C        0.94170    0.81701    0.85470    1.000
    C187     C        0.87510    0.83646    0.83870    1.000
    H85      H        0.83730    0.83010    0.80840    1.000
    C188     C        0.86310    0.86609    0.86780    1.000
    H86      H        0.81860    0.88030    0.85590    1.000
    C189     C        0.95730    0.78784    0.82020    1.000
    C190     C        0.89920    0.05796    0.95590    1.000
    C191     C        0.90980    0.08247    0.93130    1.000
    C192     C        0.92260    0.11154    0.90000    1.000
    C193     C        0.98890    0.13129    0.91470    1.000
    H87      H        0.02520    0.12630    0.94640    1.000
    C194     C        0.00340    0.15915    0.88260    1.000
    H88      H        0.04890    0.17300    0.89330    1.000
    C195     C        0.95150    0.16608    0.83590    1.000
    C196     C        0.88540    0.14710    0.82120    1.000
    H89      H        0.84980    0.15250    0.78940    1.000
    C197     C        0.86800    0.11878    0.85310    1.000
    H90      H        0.82140    0.10550    0.84280    1.000
    C198     C        0.96960    0.19498    0.80110    1.000
    O35      O        0.89493    0.96582    0.50866    1.000
    O36      O        0.97043    0.97085    0.42330    1.000
    Cu10     Cu       0.94020    0.23400    0.70506    1.000
    Cu11     Cu       0.07217    0.24768    0.77420    1.000
    Cu12     Cu       0.00609    0.53399    0.99967    1.000
    O37      O        0.11504    0.52344    0.99088    1.000
    O38      O        0.88430    0.71097    0.76432    1.000
    O39      O        0.99500    0.70008    0.82421    1.000
    O40      O        0.89470    0.26900    0.74423    1.000
    O41      O        0.00880    0.28249    0.80243    1.000
    O42      O        0.03870    0.52870    0.07630    1.000
    O43      O        0.97900    0.27115    0.66429    1.000
    O44      O        0.09170    0.28166    0.72207    1.000
    O45      O        0.07790    0.69917    0.74328    1.000
    O46      O        0.96740    0.71183    0.68361    1.000
    C199     C        0.14140    0.49336    0.98752    1.000
    C200     C        0.22390    0.49033    0.97529    1.000
    C201     C        0.25630    0.45844    0.96990    1.000
    H91      H        0.22820    0.43830    0.97510    1.000
    C202     C        0.33250    0.45626    0.95660    1.000
    H92      H        0.35510    0.43450    0.95250    1.000
    C203     C        0.37310    0.48573    0.94960    1.000
    C204     C        0.34080    0.51740    0.95630    1.000
    H93      H        0.36990    0.53760    0.95260    1.000
    C205     C        0.26490    0.52007    0.96880    1.000
    H94      H        0.24240    0.54190    0.97270    1.000
    C206     C        0.45050    0.48351    0.93520    1.000
    C207     C        0.51670    0.48371    0.92240    1.000
    C208     C        0.59120    0.48489    0.90848    1.000
    C209     C        0.62670    0.51626    0.90344    1.000
    H95      H        0.60120    0.53680    0.91010    1.000
    C210     C        0.70170    0.51750    0.88819    1.000
    C211     C        0.74010    0.48726    0.87970    1.000
    H96      H        0.79110    0.48810    0.87120    1.000
    C212     C        0.70370    0.45598    0.88360    1.000
    C213     C        0.62880    0.45465    0.89817    1.000
    H97      H        0.60410    0.43320    0.90090    1.000
    C214     C        0.73910    0.55065    0.88190    1.000
    C215     C        0.77100    0.57664    0.87240    1.000
    C216     C        0.80800    0.60714    0.85940    1.000
    C217     C        0.76590    0.62922    0.82100    1.000
    H98      H        0.71160    0.62530    0.80700    1.000
    C218     C        0.80530    0.65721    0.80380    1.000
    H99      H        0.77740    0.67160    0.77680    1.000
    C219     C        0.88250    0.66436    0.82460    1.000
    C220     C        0.92250    0.64354    0.86350    1.000
    H100     H        0.97560    0.64860    0.87940    1.000
    C221     C        0.88550    0.61479    0.87990    1.000
    H101     H        0.91480    0.60020    0.90590    1.000
    C222     C        0.92320    0.69485    0.80280    1.000
    C223     C        0.74270    0.42505    0.87150    1.000
    C224     C        0.77570    0.40048    0.85960    1.000
    C225     C        0.81600    0.37057    0.84290    1.000
    C226     C        0.89670    0.36648    0.85820    1.000
    H102     H        0.92610    0.38290    0.88110    1.000
    C227     C        0.93650    0.33856    0.84070    1.000
    H103     H        0.99180    0.33580    0.85230    1.000
    C228     C        0.89240    0.31479    0.80570    1.000
    C229     C        0.81160    0.31823    0.78990    1.000
    H104     H        0.78270    0.30230    0.76590    1.000
    C230     C        0.77090    0.34617    0.80990    1.000
    H105     H        0.71510    0.34800    0.80100    1.000
    C231     C        0.93340    0.28593    0.78170    1.000
    C232     C        0.04250    0.49988    0.09874    1.000
    C233     C        0.06230    0.50025    0.15900    1.000
    C234     C        0.07220    0.53085    0.18710    1.000
    H106     H        0.06950    0.55190    0.16860    1.000
    C235     C        0.08590    0.53100    0.24160    1.000
    H107     H        0.09280    0.55220    0.25990    1.000
    C236     C        0.08970    0.50025    0.27010    1.000
    C237     C        0.08590    0.46989    0.24250    1.000
    H108     H        0.09320    0.44890    0.26120    1.000
    C238     C        0.07130    0.46958    0.18690    1.000
    H109     H        0.06760    0.44840    0.16860    1.000
    C239     C        0.09850    0.49992    0.32690    1.000
    C240     C        0.10300    0.49927    0.37320    1.000
    C241     C        0.10440    0.49774    0.43040    1.000
    C242     C        0.10260    0.46614    0.45470    1.000
    H110     H        0.10130    0.44570    0.43480    1.000
    C243     C        0.10280    0.46461    0.50840    1.000
    C244     C        0.10440    0.49449    0.53710    1.000
    H111     H        0.10460    0.49330    0.57380    1.000
    C245     C        0.10580    0.52640    0.51300    1.000
    C246     C        0.10390    0.52822    0.45950    1.000
    H112     H        0.10230    0.54980    0.44240    1.000
    C247     C        0.10030    0.43132    0.53420    1.000
    C248     C        0.09290    0.40455    0.55710    1.000
    C249     C        0.08270    0.37438    0.58570    1.000
    C250     C        0.01840    0.35356    0.57010    1.000
    H113     H        0.98220    0.35870    0.53840    1.000
    C251     C        0.00440    0.32494    0.59950    1.000
    H114     H        0.95890    0.31120    0.58830    1.000
    C252     C        0.05830    0.31701    0.64530    1.000
    C253     C        0.12490    0.33646    0.66130    1.000
    H115     H        0.16270    0.33010    0.69160    1.000
    C254     C        0.13690    0.36609    0.63220    1.000
    H116     H        0.18140    0.38030    0.64410    1.000
    C255     C        0.04270    0.28784    0.67980    1.000
    C256     C        0.10080    0.55796    0.54410    1.000
    C257     C        0.09020    0.58247    0.56870    1.000
    C258     C        0.07740    0.61154    0.60000    1.000
    C259     C        0.01110    0.63129    0.58530    1.000
    H117     H        0.97480    0.62630    0.55360    1.000
    C260     C        0.99660    0.65915    0.61740    1.000
    H118     H        0.95110    0.67300    0.60670    1.000
    C261     C        0.04850    0.66608    0.66410    1.000
    C262     C        0.11460    0.64710    0.67880    1.000
    H119     H        0.15020    0.65250    0.71060    1.000
    C263     C        0.13200    0.61878    0.64690    1.000
    H120     H        0.17860    0.60550    0.65720    1.000
    C264     C        0.03040    0.69498    0.69890    1.000
    O47      O        0.10507    0.46582    0.99134    1.000
    O48      O        0.02957    0.47085    0.07670    1.000
