# CIF file generated by openbabel 3.1.0, see https://openbabel.org
data_I
_chemical_name_common 'image0'
_cell_length_a 9.6615
_cell_length_b 10.49
_cell_length_c 11.9404
_cell_angle_alpha 110.295
_cell_angle_beta 91.875
_cell_angle_gamma 114.86
_space_group_name_H-M_alt 'P 1'
_space_group_name_Hall 'P 1'
loop_
    _symmetry_equiv_pos_as_xyz
    x,y,z
loop_
    _atom_site_label
    _atom_site_type_symbol
    _atom_site_fract_x
    _atom_site_fract_y
    _atom_site_fract_z
    _atom_site_occupancy
    S1       S        0.02389    0.05301    0.24333    1.000
    S2       S        0.50972    0.54185    0.36569    1.000
    Mg1      Mg       0.52862    0.08436    0.32661    1.000
    O1       O        0.45540    0.88410    0.35015    1.000
    O2       O        0.76170    0.10720    0.33026    1.000
    O3       O        0.44050    0.79410    0.49545    1.000
    O4       O        0.59200    0.28500    0.30318    1.000
    O5       O        0.30680    0.01560    0.25045    1.000
    O6       O        0.28480    0.92080    0.04735    1.000
    O7       O        0.59743    0.98560    0.15410    1.000
    O8       O        0.54640    0.22190    0.10122    1.000
    C1       C        0.46270    0.79430    0.39240    1.000
    C2       C        0.56360    0.30660    0.21010    1.000
    C3       C        0.72750    0.02650    0.21720    1.000
    C4       C        0.83810    0.97430    0.16090    1.000
    C5       C        0.07090    0.93840    0.12660    1.000
    C6       C        0.23480    0.95930    0.14170    1.000
    C7       C        0.81460    0.86380    0.04930    1.000
    H1       H        0.72040    0.80770    0.99260    1.000
    C8       C        0.94880    0.84390    0.02890    1.000
    H2       H        0.95330    0.77430    0.95710    1.000
    C9       C        0.54600    0.44740    0.23070    1.000
    C10      C        0.49630    0.66970    0.31280    1.000
    C11      C        0.52030    0.64110    0.19690    1.000
    H3       H        0.51850    0.69950    0.15390    1.000
    C12      C        0.54840    0.51270    0.14910    1.000
    H4       H        0.56640    0.47670    0.07100    1.000
    S3       S        0.97611    0.94699    0.75667    1.000
    S4       S        0.49028    0.45815    0.63431    1.000
    Mg2      Mg       0.47138    0.91564    0.67339    1.000
    O9       O        0.54460    0.11590    0.64985    1.000
    O10      O        0.23830    0.89280    0.66974    1.000
    O11      O        0.55950    0.20590    0.50455    1.000
    O12      O        0.40800    0.71500    0.69682    1.000
    O13      O        0.69320    0.98440    0.74955    1.000
    O14      O        0.71520    0.07920    0.95265    1.000
    O15      O        0.40257    0.01440    0.84590    1.000
    O16      O        0.45360    0.77810    0.89878    1.000
    C13      C        0.53730    0.20570    0.60760    1.000
    C14      C        0.43640    0.69340    0.78990    1.000
    C15      C        0.27250    0.97350    0.78280    1.000
    C16      C        0.16190    0.02570    0.83910    1.000
    C17      C        0.92910    0.06160    0.87340    1.000
    C18      C        0.76520    0.04070    0.85830    1.000
    C19      C        0.18540    0.13620    0.95070    1.000
    H5       H        0.27960    0.19230    0.00740    1.000
    C20      C        0.05120    0.15610    0.97110    1.000
    H6       H        0.04670    0.22570    0.04290    1.000
    C21      C        0.45400    0.55260    0.76930    1.000
    C22      C        0.50370    0.33030    0.68720    1.000
    C23      C        0.47970    0.35890    0.80310    1.000
    H7       H        0.48150    0.30050    0.84610    1.000
    C24      C        0.45160    0.48730    0.85090    1.000
    H8       H        0.43360    0.52330    0.92900    1.000
    Mg3      Mg       0.50000    0.00000    0.00000    1.000
