data_functionalizedCrystal
_audit_creation_method	'EQeq! by Chris Wilmer'
_symmetry_space_group_name_H-M	'P1'
_symmetry_Int_Tables_number	1
_symmetry_cell_setting	triclinic
loop_
_symmetry_equiv_pos_as_xyz
  x,y,z
_cell_length_a	16.833
_cell_length_b	29.227
_cell_length_c	53.531
_cell_angle_alpha	90
_cell_angle_beta	96.338
_cell_angle_gamma	90
loop_
_atom_site_label
_atom_site_type_symbol
_atom_site_fract_x
_atom_site_fract_y
_atom_site_fract_z
_atom_site_charge
Mof_C 	C 	0.6658	0.0921	0.1539	0.577
Mof_C 	C 	0.6243	0.0919	0.1807	-0.175
Mof_C 	C 	0.5414	0.1014	0.17636	0.092
Mof_H 	H 	0.5174	0.1089	0.1604	0.007
Mof_C 	C 	0.4973	0.0989	0.1968	-0.184
Mof_H 	H 	0.4429	0.1054	0.1947	0.105
Mof_C 	C 	0.5346	0.0868	0.22034	0.161
Mof_C 	C 	0.6159	0.0771	0.22344	-0.196
Mof_H 	H 	0.6408	0.069	0.2392	0.11
Mof_C 	C 	0.66	0.0795	0.20299	0.125
Mof_H 	H 	0.7144	0.073	0.2051	0.007
Mof_C 	C 	0.7214	0.0186	0.0963	0.293
Mof_C 	C 	0.6749	0.0091	0.0713	-0.114
Mof_C 	C 	0.6453	0.0455	0.0557	0.062
Mof_H 	H 	0.6611	0.0753	0.0598	0.025
Mof_C 	C 	0.5926	0.0373	0.03431	-0.163
Mof_H 	H 	0.5742	0.0614	0.0239	0.102
Mof_C 	C 	0.5674	0.9929	0.02841	0.152
Mof_C 	C 	0.5949	0.9568	0.0439	-0.166
Mof_H 	H 	0.578	0.9271	0.04	0.099
Mof_C 	C 	0.6476	0.965	0.06529	0.061
Mof_H 	H 	0.666	0.9408	0.0757	0.019
Mof_C 	C 	0.1327	0.9301	0.1012	0.355
Mof_C 	C 	0.105	0.9466	0.075	-0.141
Mof_C 	C 	0.1244	0.9926	0.07126	0.072
Mof_H 	H 	0.1546	0.009	0.0838	0.013
Mof_C 	C 	0.0977	0.0132	0.04846	-0.17
Mof_H 	H 	0.1091	0.0438	0.0458	0.1
Mof_C 	C 	0.0539	0.988	0.02968	0.151
Mof_C 	C 	0.0368	0.9422	0.0337	-0.172
Mof_H 	H 	0.0075	0.9253	0.0211	0.105
Mof_C 	C 	0.0635	0.9216	0.0565	0.09
Mof_H 	H 	0.0521	0.891	0.0592	0.017
Mof_C 	C 	0.7593	0.9519	0.1888	0.151
Mof_C 	C 	0.951	0.9078	0.12937	0.137
Mof_H 	H 	0.9591	0.9065	0.1125	-0.03
Mof_C 	C 	0.879	0.9244	0.1362	-0.27
Mof_H 	H 	0.8395	0.9344	0.1239	0.136
Mof_C 	C 	0.8663	0.9261	0.1614	0.279
Mof_C 	C 	0.9254	0.9112	0.17977	-0.258
Mof_H 	H 	0.9169	0.9123	0.1966	0.152
Mof_C 	C 	0.9973	0.8946	0.17294	0.119
Mof_H 	H 	0.0369	0.8846	0.1852	-0.047
Mof_C 	C 	0.1754	0.9935	0.1889	0.244
Mof_C 	C 	0.9509	0.03914	0.12634	0.105
Mof_H 	H 	0.9355	0.0451	0.1094	-0.024
Mof_C 	C 	0.0266	0.02164	0.13385	-0.218
Mof_H 	H 	0.0616	0.0157	0.122	0.12
Mof_C 	C 	0.05	0.01305	0.15914	0.207
Mof_C 	C 	0.9977	0.02194	0.17691	-0.211
Mof_H 	H 	0.0133	0.0162	0.1938	0.135
Mof_C 	C 	0.922	0.03943	0.1694	0.105
Mof_H 	H 	0.887	0.0454	0.1813	-0.006
Mof_C 	C 	0.2558	0.9822	0.1886	-0.11
Mof_C 	C 	0.2912	0.96788	0.16768	0.019
Mof_H 	H 	0.2597	0.9616	0.1527	0.014
Mof_C 	C 	0.3737	0.96299	0.16915	-0.113
Mof_H 	H 	0.3974	0.9534	0.1552	0.07
Mof_C 	C 	0.4209	0.97243	0.19155	0.049
Mof_C 	C 	0.3854	0.98675	0.21247	-0.108
Mof_H 	H 	0.417	0.9931	0.2275	0.07
Mof_C 	C 	0.3029	0.99164	0.21099	0.028
Mof_H 	H 	0.2792	0.0012	0.225	0.038
Mof_C 	C 	0.5144	0.96999	0.19121	0.022
Mof_C 	C 	0.546	0.97865	0.16878	-0.073
Mof_H 	H 	0.5129	0.9886	0.1548	0.06
Mof_C 	C 	0.6272	0.9724	0.16726	-0.015
Mof_H 	H 	0.6484	0.9782	0.1523	0.044
Mof_C 	C 	0.6767	0.95749	0.18818	-0.041
Mof_C 	C 	0.6451	0.94884	0.21062	-0.016
Mof_H 	H 	0.6782	0.9389	0.2246	0.048
Mof_C 	C 	0.5639	0.95509	0.21213	-0.072
Mof_H 	H 	0.5427	0.9493	0.2271	0.053
Mof_C 	C 	0.7968	0.17528	0.142	0.089
Mof_H 	H 	0.7673	0.1656	0.1547	-0.013
Mof_C 	C 	0.809	0.22172	0.1383	-0.201
Mof_H 	H 	0.7877	0.2431	0.1486	0.089
Mof_C 	C 	0.853	0.23618	0.11927	0.2
Mof_C 	C 	0.8848	0.20421	0.10393	-0.212
Mof_H 	H 	0.9143	0.2139	0.0912	0.127
Mof_C 	C 	0.8727	0.15777	0.10763	0.11
Mof_H 	H 	0.894	0.1364	0.0974	-0.017
Mof_C 	C 	0.8407	0.3781	0.10091	-0.004
Mof_H 	H 	0.7924	0.3624	0.0995	0.017
Mof_C 	C 	0.9124	0.35406	0.10384	-0.05
Mof_C 	C 	0.9846	0.37755	0.10597	-0.006
Mof_H 	H 	0.0326	0.3615	0.1079	0.05
Mof_C 	C 	0.9852	0.42508	0.10516	-0.089
Mof_H 	H 	0.0335	0.4408	0.1066	0.065
Mof_C 	C 	0.9135	0.44912	0.10223	0.04
Mof_C 	C 	0.8413	0.42563	0.1001	-0.098
Mof_H 	H 	0.7933	0.4417	0.0981	0.07
Mof_C 	C 	0.9288	0.3017	0.1049	0.192
Mof_C 	C 	0.8576	0.5732	0.11113	-0.032
Mof_H 	H 	0.8146	0.5895	0.1161	0.062
Mof_C 	C 	0.8542	0.5258	0.10946	-0.064
Mof_H 	H 	0.8088	0.5103	0.1133	0.059
Mof_C 	C 	0.9186	0.5015	0.10207	0.015
Mof_C 	C 	0.9865	0.5246	0.09635	-0.06
Mof_H 	H 	0.0296	0.5083	0.0914	0.058
Mof_C 	C 	0.9899	0.572	0.09803	-0.037
Mof_H 	H 	0.0353	0.5875	0.0942	0.054
Mof_C 	C 	0.9255	0.5963	0.10542	-0.007
Mof_C 	C 	0.9262	0.6463	0.1013	0.123
Mof_N 	N 	0.8268	0.1424	0.1262	-0.27
Mof_N 	N 	0.8642	0.283	0.1175	-0.243
Mof_H 	H 	0.8322	0.3013	0.124	0.115
Mof_N 	N 	0.4822	0.0867	0.2408	-0.093
Mof_N 	N 	0.5253	0.9818	0.0036	-0.098
Mof_N 	N 	0.8988	0.0477	0.1439	-0.277
Mof_N 	N 	0.1288	0.994	0.1652	-0.256
Mof_H 	H 	0.1499	0.9814	0.1529	0.142
Mof_N 	N 	0.7997	0.9419	0.16574	-0.263
Mof_H 	H 	0.77	0.9487	0.1521	0.147
Mof_N 	N 	0.0098	0.8935	0.14733	-0.297
Mof_N 	N 	0.0203	0.0094	0.006	-0.087
Mof_N 	N 	0.0028	0.66111	0.11362	-0.23
Mof_H 	H 	0.0377	0.6403	0.118	0.16
Mof_C 	C 	0.1152	0.76216	0.14244	0.096
Mof_H 	H 	0.1582	0.7677	0.1545	-0.05
Mof_C 	C 	0.0898	0.71756	0.13732	-0.21
Mof_H 	H 	0.1157	0.6933	0.146	0.118
Mof_C 	C 	0.0256	0.70926	0.11924	0.195
Mof_C 	C 	0.9868	0.74557	0.10629	-0.202
Mof_H 	H 	0.9439	0.74	0.0942	0.119
Mof_C 	C 	0.0123	0.79017	0.11142	0.099
Mof_H 	H 	0.9863	0.8145	0.1028	-0.02
Mof_N 	N 	0.0764	0.79846	0.12949	-0.293
Mof_O 	O 	0.8233	0.9463	0.2086	-0.189
Mof_O 	O 	0.1461	0.0024	0.20749	-0.245
Mof_O 	O 	0.7279	0.991	0.1146	-0.311
Mof_O 	O 	0.7579	0.0597	0.09821	-0.438
Mof_O 	O 	0.6431	0.1088	0.1371	-0.476
Mof_O 	O 	0.7308	0.0777	0.15966	-0.553
Mof_O 	O 	0.1114	0.8875	0.10238	-0.478
Mof_O 	O 	0.1604	0.9525	0.11884	-0.368
Mof_O 	O 	0.9873	0.2856	0.0956	-0.218
Mof_O 	O 	0.8447	0.6675	0.1049	-0.171
Mof_Zn	Zn	0.10967	0.86395	0.13635	1.162
Mof_Zn	Zn	0.79517	0.0776	0.1316	1.218
Mof_C 	C 	0.3342	0.0921	0.3461	0.578
Mof_C 	C 	0.3757	0.0919	0.3193	-0.174
Mof_C 	C 	0.4586	0.1014	0.32364	0.093
Mof_H 	H 	0.4826	0.1089	0.3396	0.008
Mof_C 	C 	0.5027	0.0989	0.3032	-0.183
Mof_H 	H 	0.5571	0.1054	0.3053	0.106
Mof_C 	C 	0.4654	0.0868	0.27966	0.162
Mof_C 	C 	0.3841	0.0771	0.27656	-0.195
Mof_H 	H 	0.3592	0.069	0.2608	0.111
Mof_C 	C 	0.34	0.0795	0.29701	0.126
Mof_H 	H 	0.2856	0.073	0.2949	0.008
Mof_C 	C 	0.2786	0.0186	0.4037	0.294
Mof_C 	C 	0.3251	0.0091	0.4287	-0.113
Mof_C 	C 	0.3547	0.0455	0.4443	0.063
Mof_H 	H 	0.3389	0.0753	0.4402	0.026
Mof_C 	C 	0.4074	0.0373	0.46569	-0.162
Mof_H 	H 	0.4258	0.0614	0.4761	0.103
Mof_C 	C 	0.4326	0.9929	0.47159	0.153
Mof_C 	C 	0.4051	0.9568	0.4561	-0.165
Mof_H 	H 	0.422	0.9271	0.46	0.1
Mof_C 	C 	0.3524	0.965	0.43471	0.062
Mof_H 	H 	0.334	0.9408	0.4243	0.02
Mof_C 	C 	0.8673	0.9301	0.3988	0.356
Mof_C 	C 	0.895	0.9466	0.425	-0.14
Mof_C 	C 	0.8756	0.9926	0.42874	0.073
Mof_H 	H 	0.8454	0.009	0.4162	0.014
Mof_C 	C 	0.9023	0.0132	0.45154	-0.17
Mof_H 	H 	0.8909	0.0438	0.4542	0.1
Mof_C 	C 	0.9461	0.988	0.47032	0.151
Mof_C 	C 	0.9632	0.9422	0.4663	-0.172
Mof_H 	H 	0.9925	0.9253	0.4789	0.105
Mof_C 	C 	0.9365	0.9216	0.4435	0.091
Mof_H 	H 	0.9479	0.891	0.4408	0.017
Mof_C 	C 	0.2407	0.9519	0.3112	0.151
Mof_C 	C 	0.049	0.9078	0.37063	0.137
Mof_H 	H 	0.0409	0.9065	0.3875	-0.03
Mof_C 	C 	0.121	0.9244	0.3638	-0.27
Mof_H 	H 	0.1605	0.9344	0.3761	0.136
Mof_C 	C 	0.1337	0.9261	0.3386	0.279
Mof_C 	C 	0.0746	0.9112	0.32023	-0.258
Mof_H 	H 	0.0831	0.9123	0.3034	0.152
Mof_C 	C 	0.0027	0.8946	0.32706	0.119
Mof_H 	H 	0.9631	0.8846	0.3148	-0.047
Mof_C 	C 	0.8246	0.9935	0.3111	0.244
Mof_C 	C 	0.0491	0.03914	0.37366	0.105
Mof_H 	H 	0.0645	0.0451	0.3906	-0.024
Mof_C 	C 	0.9734	0.02164	0.36615	-0.218
Mof_H 	H 	0.9384	0.0157	0.378	0.12
Mof_C 	C 	0.95	0.01305	0.34086	0.207
Mof_C 	C 	0.0023	0.02194	0.32309	-0.211
Mof_H 	H 	0.9867	0.0162	0.3062	0.135
Mof_C 	C 	0.078	0.03943	0.3306	0.105
Mof_H 	H 	0.113	0.0454	0.3187	-0.006
Mof_C 	C 	0.7442	0.9822	0.3114	-0.11
Mof_C 	C 	0.7088	0.96788	0.33232	0.019
Mof_H 	H 	0.7403	0.9616	0.3473	0.014
Mof_C 	C 	0.6263	0.96299	0.33085	-0.113
Mof_H 	H 	0.6026	0.9534	0.3448	0.07
Mof_C 	C 	0.5791	0.97243	0.30845	0.049
Mof_C 	C 	0.6146	0.98675	0.28753	-0.108
Mof_H 	H 	0.583	0.9931	0.2725	0.07
Mof_C 	C 	0.6971	0.99164	0.28901	0.028
Mof_H 	H 	0.7208	0.0012	0.275	0.038
Mof_C 	C 	0.4856	0.96999	0.30879	0.022
Mof_C 	C 	0.454	0.97865	0.33122	-0.073
Mof_H 	H 	0.4871	0.9886	0.3452	0.06
Mof_C 	C 	0.3728	0.9724	0.33274	-0.015
Mof_H 	H 	0.3516	0.9782	0.3477	0.044
Mof_C 	C 	0.3233	0.95749	0.31182	-0.041
Mof_C 	C 	0.3549	0.94884	0.28938	-0.016
Mof_H 	H 	0.3218	0.9389	0.2754	0.048
Mof_C 	C 	0.4361	0.95509	0.28787	-0.072
Mof_H 	H 	0.4573	0.9493	0.2729	0.053
Mof_C 	C 	0.2032	0.17528	0.358	0.089
Mof_H 	H 	0.2327	0.1656	0.3453	-0.013
Mof_C 	C 	0.191	0.22172	0.3617	-0.201
Mof_H 	H 	0.2123	0.2431	0.3514	0.089
Mof_C 	C 	0.147	0.23618	0.38073	0.2
Mof_C 	C 	0.1152	0.20421	0.39607	-0.212
Mof_H 	H 	0.0857	0.2139	0.4088	0.127
Mof_C 	C 	0.1273	0.15777	0.39237	0.11
Mof_H 	H 	0.106	0.1364	0.4026	-0.017
Mof_C 	C 	0.1593	0.3781	0.39909	-0.004
Mof_H 	H 	0.2076	0.3624	0.4005	0.017
Mof_C 	C 	0.0876	0.35406	0.39616	-0.05
Mof_C 	C 	0.0154	0.37755	0.39403	-0.006
Mof_H 	H 	0.9674	0.3615	0.3921	0.05
Mof_C 	C 	0.0148	0.42508	0.39484	-0.089
Mof_H 	H 	0.9665	0.4408	0.3934	0.065
Mof_C 	C 	0.0865	0.44912	0.39777	0.04
Mof_C 	C 	0.1587	0.42563	0.3999	-0.098
Mof_H 	H 	0.2067	0.4417	0.4019	0.07
Mof_C 	C 	0.0712	0.3017	0.3951	0.192
Mof_C 	C 	0.1424	0.5732	0.38887	-0.032
Mof_H 	H 	0.1854	0.5895	0.3839	0.062
Mof_C 	C 	0.1458	0.5258	0.39054	-0.064
Mof_H 	H 	0.1912	0.5103	0.3867	0.059
Mof_C 	C 	0.0814	0.5015	0.39793	0.015
Mof_C 	C 	0.0135	0.5246	0.40365	-0.06
Mof_H 	H 	0.9704	0.5083	0.4086	0.058
Mof_C 	C 	0.0101	0.572	0.40197	-0.037
Mof_H 	H 	0.9647	0.5875	0.4058	0.054
Mof_C 	C 	0.0745	0.5963	0.39458	-0.007
Mof_C 	C 	0.0738	0.6463	0.3987	0.123
Mof_N 	N 	0.1732	0.1424	0.3738	-0.27
Mof_N 	N 	0.1358	0.283	0.3825	-0.243
Mof_H 	H 	0.1678	0.3013	0.376	0.115
Mof_N 	N 	0.5178	0.0867	0.2592	-0.093
Mof_N 	N 	0.4747	0.9818	0.4964	-0.098
Mof_N 	N 	0.1012	0.0477	0.3561	-0.277
Mof_N 	N 	0.8712	0.994	0.3348	-0.256
Mof_H 	H 	0.8501	0.9814	0.3471	0.142
Mof_N 	N 	0.2003	0.9419	0.33426	-0.263
Mof_H 	H 	0.23	0.9487	0.3479	0.147
Mof_N 	N 	0.9902	0.8935	0.35267	-0.297
Mof_N 	N 	0.9797	0.0094	0.494	-0.087
Mof_N 	N 	0.9972	0.66111	0.38638	-0.23
Mof_H 	H 	0.9623	0.6403	0.382	0.16
Mof_C 	C 	0.8848	0.76216	0.35756	0.096
Mof_H 	H 	0.8418	0.7677	0.3455	-0.05
Mof_C 	C 	0.9102	0.71756	0.36268	-0.21
Mof_H 	H 	0.8843	0.6933	0.354	0.118
Mof_C 	C 	0.9744	0.70926	0.38076	0.195
Mof_C 	C 	0.0132	0.74557	0.39371	-0.202
Mof_H 	H 	0.0561	0.74	0.4058	0.119
Mof_C 	C 	0.9877	0.79017	0.38858	0.099
Mof_H 	H 	0.0137	0.8145	0.3972	-0.02
Mof_N 	N 	0.9236	0.79846	0.37051	-0.293
Mof_O 	O 	0.1767	0.9463	0.2914	-0.189
Mof_O 	O 	0.8539	0.0024	0.29251	-0.245
Mof_O 	O 	0.2721	0.991	0.3854	-0.311
Mof_O 	O 	0.2421	0.0597	0.40179	-0.438
Mof_O 	O 	0.3569	0.1088	0.3629	-0.476
Mof_O 	O 	0.2692	0.0777	0.34034	-0.553
Mof_O 	O 	0.8886	0.8875	0.39762	-0.478
Mof_O 	O 	0.8396	0.9525	0.38116	-0.368
Mof_O 	O 	0.0127	0.2856	0.4044	-0.218
Mof_O 	O 	0.1553	0.6675	0.3951	-0.171
Mof_Zn	Zn	0.89033	0.86395	0.36365	1.162
Mof_Zn	Zn	0.20483	0.0776	0.3684	1.218
Mof_C 	C 	0.3342	0.9079	0.8461	0.578
Mof_C 	C 	0.3757	0.9081	0.8193	-0.174
Mof_C 	C 	0.4586	0.8986	0.82364	0.093
Mof_H 	H 	0.4826	0.8911	0.8396	0.008
Mof_C 	C 	0.5027	0.9011	0.8032	-0.183
Mof_H 	H 	0.5571	0.8946	0.8053	0.106
Mof_C 	C 	0.4654	0.9132	0.77966	0.162
Mof_C 	C 	0.3841	0.9229	0.77656	-0.195
Mof_H 	H 	0.3592	0.931	0.7608	0.111
Mof_C 	C 	0.34	0.9205	0.79701	0.126
Mof_H 	H 	0.2856	0.927	0.7949	0.008
Mof_C 	C 	0.2786	0.9814	0.9037	0.294
Mof_C 	C 	0.3251	0.9909	0.9287	-0.113
Mof_C 	C 	0.3547	0.9545	0.9443	0.063
Mof_H 	H 	0.3389	0.9247	0.9402	0.026
Mof_C 	C 	0.4074	0.9627	0.96569	-0.162
Mof_H 	H 	0.4258	0.9386	0.9761	0.103
Mof_C 	C 	0.4326	0.0071	0.97159	0.153
Mof_C 	C 	0.4051	0.0432	0.9561	-0.165
Mof_H 	H 	0.422	0.0729	0.96	0.1
Mof_C 	C 	0.3524	0.035	0.93471	0.062
Mof_H 	H 	0.334	0.0592	0.9243	0.02
Mof_C 	C 	0.8673	0.0699	0.8988	0.356
Mof_C 	C 	0.895	0.0534	0.925	-0.14
Mof_C 	C 	0.8756	0.0074	0.92874	0.073
Mof_H 	H 	0.8454	0.991	0.9162	0.014
Mof_C 	C 	0.9023	0.9868	0.95154	-0.17
Mof_H 	H 	0.8909	0.9562	0.9542	0.1
Mof_C 	C 	0.9461	0.012	0.97032	0.151
Mof_C 	C 	0.9632	0.0578	0.9663	-0.172
Mof_H 	H 	0.9925	0.0747	0.9789	0.105
Mof_C 	C 	0.9365	0.0784	0.9435	0.09
Mof_H 	H 	0.9479	0.109	0.9408	0.017
Mof_C 	C 	0.2407	0.0481	0.8112	0.151
Mof_C 	C 	0.049	0.0922	0.87063	0.137
Mof_H 	H 	0.0409	0.0935	0.8875	-0.03
Mof_C 	C 	0.121	0.0756	0.8638	-0.27
Mof_H 	H 	0.1605	0.0656	0.8761	0.136
Mof_C 	C 	0.1337	0.0739	0.8386	0.279
Mof_C 	C 	0.0746	0.0888	0.82023	-0.258
Mof_H 	H 	0.0831	0.0877	0.8034	0.152
Mof_C 	C 	0.0027	0.1054	0.82706	0.119
Mof_H 	H 	0.9631	0.1154	0.8148	-0.047
Mof_C 	C 	0.8246	0.0065	0.8111	0.244
Mof_C 	C 	0.0491	0.96086	0.87366	0.105
Mof_H 	H 	0.0645	0.9549	0.8906	-0.024
Mof_C 	C 	0.9734	0.97836	0.86615	-0.218
Mof_H 	H 	0.9384	0.9843	0.878	0.12
Mof_C 	C 	0.95	0.98695	0.84086	0.207
Mof_C 	C 	0.0023	0.97806	0.82309	-0.211
Mof_H 	H 	0.9867	0.9838	0.8062	0.135
Mof_C 	C 	0.078	0.96057	0.8306	0.105
Mof_H 	H 	0.113	0.9546	0.8187	-0.006
Mof_C 	C 	0.7442	0.0178	0.8114	-0.11
Mof_C 	C 	0.7088	0.03212	0.83232	0.019
Mof_H 	H 	0.7403	0.0384	0.8473	0.014
Mof_C 	C 	0.6263	0.03701	0.83085	-0.113
Mof_H 	H 	0.6026	0.0466	0.8448	0.07
Mof_C 	C 	0.5791	0.02757	0.80845	0.049
Mof_C 	C 	0.6146	0.01325	0.78753	-0.108
Mof_H 	H 	0.583	0.0069	0.7725	0.07
Mof_C 	C 	0.6971	0.00836	0.78901	0.028
Mof_H 	H 	0.7208	0.9988	0.775	0.038
Mof_C 	C 	0.4856	0.03001	0.80879	0.022
Mof_C 	C 	0.454	0.02135	0.83122	-0.073
Mof_H 	H 	0.4871	0.0114	0.8452	0.06
Mof_C 	C 	0.3728	0.0276	0.83274	-0.015
Mof_H 	H 	0.3516	0.0218	0.8477	0.044
Mof_C 	C 	0.3233	0.04251	0.81182	-0.041
Mof_C 	C 	0.3549	0.05116	0.78938	-0.016
Mof_H 	H 	0.3218	0.0611	0.7754	0.048
Mof_C 	C 	0.4361	0.04491	0.78787	-0.072
Mof_H 	H 	0.4573	0.0507	0.7729	0.053
Mof_C 	C 	0.2032	0.82472	0.858	0.089
Mof_H 	H 	0.2327	0.8344	0.8453	-0.013
Mof_C 	C 	0.191	0.77828	0.8617	-0.201
Mof_H 	H 	0.2123	0.7569	0.8514	0.089
Mof_C 	C 	0.147	0.76382	0.88073	0.2
Mof_C 	C 	0.1152	0.79579	0.89607	-0.212
Mof_H 	H 	0.0857	0.7861	0.9088	0.127
Mof_C 	C 	0.1273	0.84223	0.89237	0.11
Mof_H 	H 	0.106	0.8636	0.9026	-0.017
Mof_C 	C 	0.1593	0.6219	0.89909	-0.004
Mof_H 	H 	0.2076	0.6376	0.9005	0.017
Mof_C 	C 	0.0876	0.64594	0.89616	-0.05
Mof_C 	C 	0.0154	0.62245	0.89403	-0.006
Mof_H 	H 	0.9674	0.6385	0.8921	0.05
Mof_C 	C 	0.0148	0.57492	0.89484	-0.089
Mof_H 	H 	0.9665	0.5592	0.8934	0.065
Mof_C 	C 	0.0865	0.55088	0.89777	0.04
Mof_C 	C 	0.1587	0.57437	0.8999	-0.098
Mof_H 	H 	0.2067	0.5583	0.9019	0.07
Mof_C 	C 	0.0712	0.6983	0.8951	0.192
Mof_C 	C 	0.1424	0.4268	0.88887	-0.032
Mof_H 	H 	0.1854	0.4105	0.8839	0.062
Mof_C 	C 	0.1458	0.4742	0.89054	-0.064
Mof_H 	H 	0.1912	0.4897	0.8867	0.059
Mof_C 	C 	0.0814	0.4985	0.89793	0.015
Mof_C 	C 	0.0135	0.4754	0.90365	-0.06
Mof_H 	H 	0.9704	0.4917	0.9086	0.058
Mof_C 	C 	0.0101	0.428	0.90197	-0.037
Mof_H 	H 	0.9647	0.4125	0.9058	0.054
Mof_C 	C 	0.0745	0.4037	0.89458	-0.007
Mof_C 	C 	0.0738	0.3537	0.8987	0.123
Mof_N 	N 	0.1732	0.8576	0.8738	-0.27
Mof_N 	N 	0.1358	0.717	0.8825	-0.243
Mof_H 	H 	0.1678	0.6987	0.876	0.115
Mof_N 	N 	0.5178	0.9133	0.7592	-0.093
Mof_N 	N 	0.4747	0.0182	0.9964	-0.098
Mof_N 	N 	0.1012	0.9523	0.8561	-0.277
Mof_N 	N 	0.8712	0.006	0.8348	-0.256
Mof_H 	H 	0.8501	0.0186	0.8471	0.142
Mof_N 	N 	0.2003	0.0581	0.83426	-0.263
Mof_H 	H 	0.23	0.0513	0.8479	0.147
Mof_N 	N 	0.9902	0.1065	0.85267	-0.297
Mof_N 	N 	0.9797	0.9906	0.994	-0.087
Mof_N 	N 	0.9972	0.33889	0.88638	-0.23
Mof_H 	H 	0.9623	0.3597	0.882	0.16
Mof_C 	C 	0.8848	0.23784	0.85756	0.096
Mof_H 	H 	0.8418	0.2323	0.8455	-0.05
Mof_C 	C 	0.9102	0.28244	0.86268	-0.21
Mof_H 	H 	0.8843	0.3067	0.854	0.118
Mof_C 	C 	0.9744	0.29074	0.88076	0.195
Mof_C 	C 	0.0132	0.25443	0.89371	-0.202
Mof_H 	H 	0.0561	0.26	0.9058	0.119
Mof_C 	C 	0.9877	0.20983	0.88858	0.099
Mof_H 	H 	0.0137	0.1855	0.8972	-0.02
Mof_N 	N 	0.9236	0.20154	0.87051	-0.293
Mof_O 	O 	0.1767	0.0537	0.7914	-0.189
Mof_O 	O 	0.8539	0.9976	0.79251	-0.245
Mof_O 	O 	0.2721	0.009	0.8854	-0.311
Mof_O 	O 	0.2421	0.9403	0.90179	-0.438
Mof_O 	O 	0.3569	0.8912	0.8629	-0.476
Mof_O 	O 	0.2692	0.9223	0.84034	-0.553
Mof_O 	O 	0.8886	0.1125	0.89762	-0.478
Mof_O 	O 	0.8396	0.0475	0.88116	-0.368
Mof_O 	O 	0.0127	0.7144	0.9044	-0.218
Mof_O 	O 	0.1553	0.3325	0.8951	-0.171
Mof_Zn	Zn	0.89033	0.13605	0.86365	1.162
Mof_Zn	Zn	0.20483	0.9224	0.8684	1.218
Mof_C 	C 	0.6658	0.9079	0.6539	0.578
Mof_C 	C 	0.6243	0.9081	0.6807	-0.174
Mof_C 	C 	0.5414	0.8986	0.67636	0.093
Mof_H 	H 	0.5174	0.8911	0.6604	0.008
Mof_C 	C 	0.4973	0.9011	0.6968	-0.183
Mof_H 	H 	0.4429	0.8946	0.6947	0.106
Mof_C 	C 	0.5346	0.9132	0.72034	0.162
Mof_C 	C 	0.6159	0.9229	0.72344	-0.195
Mof_H 	H 	0.6408	0.931	0.7392	0.111
Mof_C 	C 	0.66	0.9205	0.70299	0.126
Mof_H 	H 	0.7144	0.927	0.7051	0.008
Mof_C 	C 	0.7214	0.9814	0.5963	0.294
Mof_C 	C 	0.6749	0.9909	0.5713	-0.113
Mof_C 	C 	0.6453	0.9545	0.5557	0.063
Mof_H 	H 	0.6611	0.9247	0.5598	0.026
Mof_C 	C 	0.5926	0.9627	0.53431	-0.162
Mof_H 	H 	0.5742	0.9386	0.5239	0.103
Mof_C 	C 	0.5674	0.0071	0.52841	0.153
Mof_C 	C 	0.5949	0.0432	0.5439	-0.165
Mof_H 	H 	0.578	0.0729	0.54	0.1
Mof_C 	C 	0.6476	0.035	0.56529	0.062
Mof_H 	H 	0.666	0.0592	0.5757	0.02
Mof_C 	C 	0.1327	0.0699	0.6012	0.356
Mof_C 	C 	0.105	0.0534	0.575	-0.14
Mof_C 	C 	0.1244	0.0074	0.57126	0.073
Mof_H 	H 	0.1546	0.991	0.5838	0.014
Mof_C 	C 	0.0977	0.9868	0.54846	-0.17
Mof_H 	H 	0.1091	0.9562	0.5458	0.1
Mof_C 	C 	0.0539	0.012	0.52968	0.151
Mof_C 	C 	0.0368	0.0578	0.5337	-0.172
Mof_H 	H 	0.0075	0.0747	0.5211	0.105
Mof_C 	C 	0.0635	0.0784	0.5565	0.091
Mof_H 	H 	0.0521	0.109	0.5592	0.017
Mof_C 	C 	0.7593	0.0481	0.6888	0.151
Mof_C 	C 	0.951	0.0922	0.62937	0.137
Mof_H 	H 	0.9591	0.0935	0.6125	-0.03
Mof_C 	C 	0.879	0.0756	0.6362	-0.27
Mof_H 	H 	0.8395	0.0656	0.6239	0.136
Mof_C 	C 	0.8663	0.0739	0.6614	0.279
Mof_C 	C 	0.9254	0.0888	0.67977	-0.258
Mof_H 	H 	0.9169	0.0877	0.6966	0.152
Mof_C 	C 	0.9973	0.1054	0.67294	0.119
Mof_H 	H 	0.0369	0.1154	0.6852	-0.047
Mof_C 	C 	0.1754	0.0065	0.6889	0.244
Mof_C 	C 	0.9509	0.96086	0.62634	0.105
Mof_H 	H 	0.9355	0.9549	0.6094	-0.024
Mof_C 	C 	0.0266	0.97836	0.63385	-0.218
Mof_H 	H 	0.0616	0.9843	0.622	0.12
Mof_C 	C 	0.05	0.98695	0.65914	0.207
Mof_C 	C 	0.9977	0.97806	0.67691	-0.211
Mof_H 	H 	0.0133	0.9838	0.6938	0.135
Mof_C 	C 	0.922	0.96057	0.6694	0.105
Mof_H 	H 	0.887	0.9546	0.6813	-0.006
Mof_C 	C 	0.2558	0.0178	0.6886	-0.11
Mof_C 	C 	0.2912	0.03212	0.66768	0.019
Mof_H 	H 	0.2597	0.0384	0.6527	0.014
Mof_C 	C 	0.3737	0.03701	0.66915	-0.113
Mof_H 	H 	0.3974	0.0466	0.6552	0.07
Mof_C 	C 	0.4209	0.02757	0.69155	0.049
Mof_C 	C 	0.3854	0.01325	0.71247	-0.108
Mof_H 	H 	0.417	0.0069	0.7275	0.07
Mof_C 	C 	0.3029	0.00836	0.71099	0.028
Mof_H 	H 	0.2792	0.9988	0.725	0.038
Mof_C 	C 	0.5144	0.03001	0.69121	0.022
Mof_C 	C 	0.546	0.02135	0.66878	-0.073
Mof_H 	H 	0.5129	0.0114	0.6548	0.06
Mof_C 	C 	0.6272	0.0276	0.66726	-0.015
Mof_H 	H 	0.6484	0.0218	0.6523	0.044
Mof_C 	C 	0.6767	0.04251	0.68818	-0.041
Mof_C 	C 	0.6451	0.05116	0.71062	-0.016
Mof_H 	H 	0.6782	0.0611	0.7246	0.048
Mof_C 	C 	0.5639	0.04491	0.71213	-0.072
Mof_H 	H 	0.5427	0.0507	0.7271	0.053
Mof_C 	C 	0.7968	0.82472	0.642	0.089
Mof_H 	H 	0.7673	0.8344	0.6547	-0.013
Mof_C 	C 	0.809	0.77828	0.6383	-0.201
Mof_H 	H 	0.7877	0.7569	0.6486	0.089
Mof_C 	C 	0.853	0.76382	0.61927	0.2
Mof_C 	C 	0.8848	0.79579	0.60393	-0.212
Mof_H 	H 	0.9143	0.7861	0.5912	0.127
Mof_C 	C 	0.8727	0.84223	0.60763	0.11
Mof_H 	H 	0.894	0.8636	0.5974	-0.017
Mof_C 	C 	0.8407	0.6219	0.60091	-0.004
Mof_H 	H 	0.7924	0.6376	0.5995	0.017
Mof_C 	C 	0.9124	0.64594	0.60384	-0.05
Mof_C 	C 	0.9846	0.62245	0.60597	-0.006
Mof_H 	H 	0.0326	0.6385	0.6079	0.05
Mof_C 	C 	0.9852	0.57492	0.60516	-0.089
Mof_H 	H 	0.0335	0.5592	0.6066	0.065
Mof_C 	C 	0.9135	0.55088	0.60223	0.04
Mof_C 	C 	0.8413	0.57437	0.6001	-0.098
Mof_H 	H 	0.7933	0.5583	0.5981	0.07
Mof_C 	C 	0.9288	0.6983	0.6049	0.192
Mof_C 	C 	0.8576	0.4268	0.61113	-0.032
Mof_H 	H 	0.8146	0.4105	0.6161	0.062
Mof_C 	C 	0.8542	0.4742	0.60946	-0.064
Mof_H 	H 	0.8088	0.4897	0.6133	0.059
Mof_C 	C 	0.9186	0.4985	0.60207	0.015
Mof_C 	C 	0.9865	0.4754	0.59635	-0.06
Mof_H 	H 	0.0296	0.4917	0.5914	0.058
Mof_C 	C 	0.9899	0.428	0.59803	-0.037
Mof_H 	H 	0.0353	0.4125	0.5942	0.054
Mof_C 	C 	0.9255	0.4037	0.60542	-0.007
Mof_C 	C 	0.9262	0.3537	0.6013	0.123
Mof_N 	N 	0.8268	0.8576	0.6262	-0.27
Mof_N 	N 	0.8642	0.717	0.6175	-0.243
Mof_H 	H 	0.8322	0.6987	0.624	0.115
Mof_N 	N 	0.4822	0.9133	0.7408	-0.093
Mof_N 	N 	0.5253	0.0182	0.5036	-0.098
Mof_N 	N 	0.8988	0.9523	0.6439	-0.277
Mof_N 	N 	0.1288	0.006	0.6652	-0.256
Mof_H 	H 	0.1499	0.0186	0.6529	0.142
Mof_N 	N 	0.7997	0.0581	0.66574	-0.263
Mof_H 	H 	0.77	0.0513	0.6521	0.147
Mof_N 	N 	0.0098	0.1065	0.64733	-0.297
Mof_N 	N 	0.0203	0.9906	0.506	-0.087
Mof_N 	N 	0.0028	0.33889	0.61362	-0.23
Mof_H 	H 	0.0377	0.3597	0.618	0.16
Mof_C 	C 	0.1152	0.23784	0.64244	0.096
Mof_H 	H 	0.1582	0.2323	0.6545	-0.05
Mof_C 	C 	0.0898	0.28244	0.63732	-0.21
Mof_H 	H 	0.1157	0.3067	0.646	0.118
Mof_C 	C 	0.0256	0.29074	0.61924	0.195
Mof_C 	C 	0.9868	0.25443	0.60629	-0.202
Mof_H 	H 	0.9439	0.26	0.5942	0.119
Mof_C 	C 	0.0123	0.20983	0.61142	0.099
Mof_H 	H 	0.9863	0.1855	0.6028	-0.02
Mof_N 	N 	0.0764	0.20154	0.62949	-0.293
Mof_O 	O 	0.8233	0.0537	0.7086	-0.189
Mof_O 	O 	0.1461	0.9976	0.70749	-0.245
Mof_O 	O 	0.7279	0.009	0.6146	-0.311
Mof_O 	O 	0.7579	0.9403	0.59821	-0.438
Mof_O 	O 	0.6431	0.8912	0.6371	-0.476
Mof_O 	O 	0.7308	0.9223	0.65966	-0.553
Mof_O 	O 	0.1114	0.1125	0.60238	-0.478
Mof_O 	O 	0.1604	0.0475	0.61884	-0.368
Mof_O 	O 	0.9873	0.7144	0.5956	-0.218
Mof_O 	O 	0.8447	0.3325	0.6049	-0.171
Mof_Zn	Zn	0.10967	0.13605	0.63635	1.162
Mof_Zn	Zn	0.79517	0.9224	0.6316	1.218
Mof_C 	C 	0.1658	0.5921	0.1539	0.578
Mof_C 	C 	0.1243	0.5919	0.1807	-0.174
Mof_C 	C 	0.0414	0.6014	0.17636	0.093
Mof_H 	H 	0.0174	0.6089	0.1604	0.008
Mof_C 	C 	0.9973	0.5989	0.1968	-0.183
Mof_H 	H 	0.9429	0.6054	0.1947	0.106
Mof_C 	C 	0.0346	0.5868	0.22034	0.162
Mof_C 	C 	0.1159	0.5771	0.22344	-0.195
Mof_H 	H 	0.1408	0.569	0.2392	0.111
Mof_C 	C 	0.16	0.5795	0.20299	0.126
Mof_H 	H 	0.2144	0.573	0.2051	0.008
Mof_C 	C 	0.2214	0.5186	0.0963	0.294
Mof_C 	C 	0.1749	0.5091	0.0713	-0.113
Mof_C 	C 	0.1453	0.5455	0.0557	0.063
Mof_H 	H 	0.1611	0.5753	0.0598	0.026
Mof_C 	C 	0.0926	0.5373	0.03431	-0.162
Mof_H 	H 	0.0742	0.5614	0.0239	0.103
Mof_C 	C 	0.0674	0.4929	0.02841	0.153
Mof_C 	C 	0.0949	0.4568	0.0439	-0.165
Mof_H 	H 	0.078	0.4271	0.04	0.1
Mof_C 	C 	0.1476	0.465	0.06529	0.062
Mof_H 	H 	0.166	0.4408	0.0757	0.02
Mof_C 	C 	0.6327	0.4301	0.1012	0.356
Mof_C 	C 	0.605	0.4466	0.075	-0.14
Mof_C 	C 	0.6244	0.4926	0.07126	0.073
Mof_H 	H 	0.6546	0.509	0.0838	0.014
Mof_C 	C 	0.5977	0.5132	0.04846	-0.17
Mof_H 	H 	0.6091	0.5438	0.0458	0.1
Mof_C 	C 	0.5539	0.488	0.02968	0.151
Mof_C 	C 	0.5368	0.4422	0.0337	-0.172
Mof_H 	H 	0.5075	0.4253	0.0211	0.105
Mof_C 	C 	0.5635	0.4216	0.0565	0.091
Mof_H 	H 	0.5521	0.391	0.0592	0.017
Mof_C 	C 	0.2593	0.4519	0.1888	0.151
Mof_C 	C 	0.451	0.4078	0.12937	0.137
Mof_H 	H 	0.4591	0.4065	0.1125	-0.03
Mof_C 	C 	0.379	0.4244	0.1362	-0.27
Mof_H 	H 	0.3395	0.4344	0.1239	0.136
Mof_C 	C 	0.3663	0.4261	0.1614	0.279
Mof_C 	C 	0.4254	0.4112	0.17977	-0.258
Mof_H 	H 	0.4169	0.4123	0.1966	0.152
Mof_C 	C 	0.4973	0.3946	0.17294	0.119
Mof_H 	H 	0.5369	0.3846	0.1852	-0.047
Mof_C 	C 	0.6754	0.4935	0.1889	0.244
Mof_C 	C 	0.4509	0.53914	0.12634	0.105
Mof_H 	H 	0.4355	0.5451	0.1094	-0.024
Mof_C 	C 	0.5266	0.52164	0.13385	-0.218
Mof_H 	H 	0.5616	0.5157	0.122	0.12
Mof_C 	C 	0.55	0.51305	0.15914	0.207
Mof_C 	C 	0.4977	0.52194	0.17691	-0.211
Mof_H 	H 	0.5133	0.5162	0.1938	0.135
Mof_C 	C 	0.422	0.53943	0.1694	0.105
Mof_H 	H 	0.387	0.5454	0.1813	-0.006
Mof_C 	C 	0.7558	0.4822	0.1886	-0.11
Mof_C 	C 	0.7912	0.46788	0.16768	0.019
Mof_H 	H 	0.7597	0.4616	0.1527	0.014
Mof_C 	C 	0.8737	0.46299	0.16915	-0.113
Mof_H 	H 	0.8974	0.4534	0.1552	0.07
Mof_C 	C 	0.9209	0.47243	0.19155	0.049
Mof_C 	C 	0.8854	0.48675	0.21247	-0.108
Mof_H 	H 	0.917	0.4931	0.2275	0.07
Mof_C 	C 	0.8029	0.49164	0.21099	0.028
Mof_H 	H 	0.7792	0.5012	0.225	0.038
Mof_C 	C 	0.0144	0.46999	0.19121	0.022
Mof_C 	C 	0.046	0.47865	0.16878	-0.073
Mof_H 	H 	0.0129	0.4886	0.1548	0.06
Mof_C 	C 	0.1272	0.4724	0.16726	-0.015
Mof_H 	H 	0.1484	0.4782	0.1523	0.044
Mof_C 	C 	0.1767	0.45749	0.18818	-0.041
Mof_C 	C 	0.1451	0.44884	0.21062	-0.016
Mof_H 	H 	0.1782	0.4389	0.2246	0.048
Mof_C 	C 	0.0639	0.45509	0.21213	-0.072
Mof_H 	H 	0.0427	0.4493	0.2271	0.053
Mof_C 	C 	0.2968	0.67528	0.142	0.089
Mof_H 	H 	0.2673	0.6656	0.1547	-0.013
Mof_C 	C 	0.309	0.72172	0.1383	-0.201
Mof_H 	H 	0.2877	0.7431	0.1486	0.089
Mof_C 	C 	0.353	0.73618	0.11927	0.2
Mof_C 	C 	0.3848	0.70421	0.10393	-0.212
Mof_H 	H 	0.4143	0.7139	0.0912	0.127
Mof_C 	C 	0.3727	0.65777	0.10763	0.11
Mof_H 	H 	0.394	0.6364	0.0974	-0.017
Mof_C 	C 	0.3407	0.8781	0.10091	-0.004
Mof_H 	H 	0.2924	0.8624	0.0995	0.017
Mof_C 	C 	0.4124	0.85406	0.10384	-0.05
Mof_C 	C 	0.4846	0.87755	0.10597	-0.006
Mof_H 	H 	0.5326	0.8615	0.1079	0.05
Mof_C 	C 	0.4852	0.92508	0.10516	-0.089
Mof_H 	H 	0.5335	0.9408	0.1066	0.065
Mof_C 	C 	0.4135	0.94912	0.10223	0.04
Mof_C 	C 	0.3413	0.92563	0.1001	-0.098
Mof_H 	H 	0.2933	0.9417	0.0981	0.07
Mof_C 	C 	0.4288	0.8017	0.1049	0.192
Mof_C 	C 	0.3576	0.0732	0.11113	-0.032
Mof_H 	H 	0.3146	0.0895	0.1161	0.062
Mof_C 	C 	0.3542	0.0258	0.10946	-0.064
Mof_H 	H 	0.3088	0.0103	0.1133	0.059
Mof_C 	C 	0.4186	0.0015	0.10207	0.015
Mof_C 	C 	0.4865	0.0246	0.09635	-0.059
Mof_H 	H 	0.5296	0.0083	0.0914	0.058
Mof_C 	C 	0.4899	0.072	0.09803	-0.037
Mof_H 	H 	0.5353	0.0875	0.0942	0.054
Mof_C 	C 	0.4255	0.0963	0.10542	-0.007
Mof_C 	C 	0.4262	0.1463	0.1013	0.123
Mof_N 	N 	0.3268	0.6424	0.1262	-0.27
Mof_N 	N 	0.3642	0.783	0.1175	-0.243
Mof_H 	H 	0.3322	0.8013	0.124	0.115
Mof_N 	N 	0.9822	0.5867	0.2408	-0.094
Mof_N 	N 	0.0253	0.4818	0.0036	-0.098
Mof_N 	N 	0.3988	0.5477	0.1439	-0.277
Mof_N 	N 	0.6288	0.494	0.1652	-0.256
Mof_H 	H 	0.6499	0.4814	0.1529	0.142
Mof_N 	N 	0.2997	0.4419	0.16574	-0.263
Mof_H 	H 	0.27	0.4487	0.1521	0.147
Mof_N 	N 	0.5098	0.3935	0.14733	-0.297
Mof_N 	N 	0.5203	0.5094	0.006	-0.087
Mof_N 	N 	0.5028	0.16111	0.11362	-0.23
Mof_H 	H 	0.5377	0.1403	0.118	0.16
Mof_C 	C 	0.6152	0.26216	0.14244	0.096
Mof_H 	H 	0.6582	0.2677	0.1545	-0.05
Mof_C 	C 	0.5898	0.21756	0.13732	-0.21
Mof_H 	H 	0.6157	0.1933	0.146	0.118
Mof_C 	C 	0.5256	0.20926	0.11924	0.195
Mof_C 	C 	0.4868	0.24557	0.10629	-0.202
Mof_H 	H 	0.4439	0.24	0.0942	0.119
Mof_C 	C 	0.5123	0.29017	0.11142	0.099
Mof_H 	H 	0.4863	0.3145	0.1028	-0.02
Mof_N 	N 	0.5764	0.29846	0.12949	-0.293
Mof_O 	O 	0.3233	0.4463	0.2086	-0.189
Mof_O 	O 	0.6461	0.5024	0.20749	-0.245
Mof_O 	O 	0.2279	0.491	0.1146	-0.311
Mof_O 	O 	0.2579	0.5597	0.09821	-0.438
Mof_O 	O 	0.1431	0.6088	0.1371	-0.476
Mof_O 	O 	0.2308	0.5777	0.15966	-0.553
Mof_O 	O 	0.6114	0.3875	0.10238	-0.478
Mof_O 	O 	0.6604	0.4525	0.11884	-0.368
Mof_O 	O 	0.4873	0.7856	0.0956	-0.218
Mof_O 	O 	0.3447	0.1675	0.1049	-0.172
Mof_Zn	Zn	0.60967	0.36395	0.13635	1.162
Mof_Zn	Zn	0.29517	0.5776	0.1316	1.218
Mof_C 	C 	0.8342	0.5921	0.3461	0.578
Mof_C 	C 	0.8757	0.5919	0.3193	-0.174
Mof_C 	C 	0.9586	0.6014	0.32364	0.093
Mof_H 	H 	0.9826	0.6089	0.3396	0.008
Mof_C 	C 	0.0027	0.5989	0.3032	-0.183
Mof_H 	H 	0.0571	0.6054	0.3053	0.106
Mof_C 	C 	0.9654	0.5868	0.27966	0.162
Mof_C 	C 	0.8841	0.5771	0.27656	-0.195
Mof_H 	H 	0.8592	0.569	0.2608	0.111
Mof_C 	C 	0.84	0.5795	0.29701	0.126
Mof_H 	H 	0.7856	0.573	0.2949	0.008
Mof_C 	C 	0.7786	0.5186	0.4037	0.294
Mof_C 	C 	0.8251	0.5091	0.4287	-0.113
Mof_C 	C 	0.8547	0.5455	0.4443	0.063
Mof_H 	H 	0.8389	0.5753	0.4402	0.026
Mof_C 	C 	0.9074	0.5373	0.46569	-0.162
Mof_H 	H 	0.9258	0.5614	0.4761	0.103
Mof_C 	C 	0.9326	0.4929	0.47159	0.153
Mof_C 	C 	0.9051	0.4568	0.4561	-0.165
Mof_H 	H 	0.922	0.4271	0.46	0.1
Mof_C 	C 	0.8524	0.465	0.43471	0.062
Mof_H 	H 	0.834	0.4408	0.4243	0.02
Mof_C 	C 	0.3673	0.4301	0.3988	0.356
Mof_C 	C 	0.395	0.4466	0.425	-0.14
Mof_C 	C 	0.3756	0.4926	0.42874	0.073
Mof_H 	H 	0.3454	0.509	0.4162	0.014
Mof_C 	C 	0.4023	0.5132	0.45154	-0.17
Mof_H 	H 	0.3909	0.5438	0.4542	0.1
Mof_C 	C 	0.4461	0.488	0.47032	0.151
Mof_C 	C 	0.4632	0.4422	0.4663	-0.172
Mof_H 	H 	0.4925	0.4253	0.4789	0.105
Mof_C 	C 	0.4365	0.4216	0.4435	0.091
Mof_H 	H 	0.4479	0.391	0.4408	0.017
Mof_C 	C 	0.7407	0.4519	0.3112	0.151
Mof_C 	C 	0.549	0.4078	0.37063	0.137
Mof_H 	H 	0.5409	0.4065	0.3875	-0.03
Mof_C 	C 	0.621	0.4244	0.3638	-0.27
Mof_H 	H 	0.6605	0.4344	0.3761	0.136
Mof_C 	C 	0.6337	0.4261	0.3386	0.279
Mof_C 	C 	0.5746	0.4112	0.32023	-0.258
Mof_H 	H 	0.5831	0.4123	0.3034	0.152
Mof_C 	C 	0.5027	0.3946	0.32706	0.119
Mof_H 	H 	0.4631	0.3846	0.3148	-0.047
Mof_C 	C 	0.3246	0.4935	0.3111	0.244
Mof_C 	C 	0.5491	0.53914	0.37366	0.105
Mof_H 	H 	0.5645	0.5451	0.3906	-0.024
Mof_C 	C 	0.4734	0.52164	0.36615	-0.218
Mof_H 	H 	0.4384	0.5157	0.378	0.12
Mof_C 	C 	0.45	0.51305	0.34086	0.207
Mof_C 	C 	0.5023	0.52194	0.32309	-0.211
Mof_H 	H 	0.4867	0.5162	0.3062	0.135
Mof_C 	C 	0.578	0.53943	0.3306	0.105
Mof_H 	H 	0.613	0.5454	0.3187	-0.006
Mof_C 	C 	0.2442	0.4822	0.3114	-0.11
Mof_C 	C 	0.2088	0.46788	0.33232	0.019
Mof_H 	H 	0.2403	0.4616	0.3473	0.014
Mof_C 	C 	0.1263	0.46299	0.33085	-0.113
Mof_H 	H 	0.1026	0.4534	0.3448	0.07
Mof_C 	C 	0.0791	0.47243	0.30845	0.049
Mof_C 	C 	0.1146	0.48675	0.28753	-0.108
Mof_H 	H 	0.083	0.4931	0.2725	0.07
Mof_C 	C 	0.1971	0.49164	0.28901	0.028
Mof_H 	H 	0.2208	0.5012	0.275	0.038
Mof_C 	C 	0.9856	0.46999	0.30879	0.022
Mof_C 	C 	0.954	0.47865	0.33122	-0.073
Mof_H 	H 	0.9871	0.4886	0.3452	0.06
Mof_C 	C 	0.8728	0.4724	0.33274	-0.015
Mof_H 	H 	0.8516	0.4782	0.3477	0.044
Mof_C 	C 	0.8233	0.45749	0.31182	-0.041
Mof_C 	C 	0.8549	0.44884	0.28938	-0.016
Mof_H 	H 	0.8218	0.4389	0.2754	0.048
Mof_C 	C 	0.9361	0.45509	0.28787	-0.072
Mof_H 	H 	0.9573	0.4493	0.2729	0.053
Mof_C 	C 	0.7032	0.67528	0.358	0.089
Mof_H 	H 	0.7327	0.6656	0.3453	-0.013
Mof_C 	C 	0.691	0.72172	0.3617	-0.201
Mof_H 	H 	0.7123	0.7431	0.3514	0.089
Mof_C 	C 	0.647	0.73618	0.38073	0.2
Mof_C 	C 	0.6152	0.70421	0.39607	-0.212
Mof_H 	H 	0.5857	0.7139	0.4088	0.127
Mof_C 	C 	0.6273	0.65777	0.39237	0.11
Mof_H 	H 	0.606	0.6364	0.4026	-0.017
Mof_C 	C 	0.6593	0.8781	0.39909	-0.004
Mof_H 	H 	0.7076	0.8624	0.4005	0.017
Mof_C 	C 	0.5876	0.85406	0.39616	-0.05
Mof_C 	C 	0.5154	0.87755	0.39403	-0.006
Mof_H 	H 	0.4674	0.8615	0.3921	0.05
Mof_C 	C 	0.5148	0.92508	0.39484	-0.089
Mof_H 	H 	0.4665	0.9408	0.3934	0.065
Mof_C 	C 	0.5865	0.94912	0.39777	0.04
Mof_C 	C 	0.6587	0.92563	0.3999	-0.098
Mof_H 	H 	0.7067	0.9417	0.4019	0.07
Mof_C 	C 	0.5712	0.8017	0.3951	0.192
Mof_C 	C 	0.6424	0.0732	0.38887	-0.032
Mof_H 	H 	0.6854	0.0895	0.3839	0.062
Mof_C 	C 	0.6458	0.0258	0.39054	-0.064
Mof_H 	H 	0.6912	0.0103	0.3867	0.059
Mof_C 	C 	0.5814	0.0015	0.39793	0.015
Mof_C 	C 	0.5135	0.0246	0.40365	-0.059
Mof_H 	H 	0.4704	0.0083	0.4086	0.058
Mof_C 	C 	0.5101	0.072	0.40197	-0.037
Mof_H 	H 	0.4647	0.0875	0.4058	0.054
Mof_C 	C 	0.5745	0.0963	0.39458	-0.007
Mof_C 	C 	0.5738	0.1463	0.3987	0.123
Mof_N 	N 	0.6732	0.6424	0.3738	-0.27
Mof_N 	N 	0.6358	0.783	0.3825	-0.243
Mof_H 	H 	0.6678	0.8013	0.376	0.115
Mof_N 	N 	0.0178	0.5867	0.2592	-0.094
Mof_N 	N 	0.9747	0.4818	0.4964	-0.098
Mof_N 	N 	0.6012	0.5477	0.3561	-0.277
Mof_N 	N 	0.3712	0.494	0.3348	-0.256
Mof_H 	H 	0.3501	0.4814	0.3471	0.142
Mof_N 	N 	0.7003	0.4419	0.33426	-0.263
Mof_H 	H 	0.73	0.4487	0.3479	0.147
Mof_N 	N 	0.4902	0.3935	0.35267	-0.297
Mof_N 	N 	0.4797	0.5094	0.494	-0.087
Mof_N 	N 	0.4972	0.16111	0.38638	-0.23
Mof_H 	H 	0.4623	0.1403	0.382	0.16
Mof_C 	C 	0.3848	0.26216	0.35756	0.096
Mof_H 	H 	0.3418	0.2677	0.3455	-0.05
Mof_C 	C 	0.4102	0.21756	0.36268	-0.21
Mof_H 	H 	0.3843	0.1933	0.354	0.118
Mof_C 	C 	0.4744	0.20926	0.38076	0.195
Mof_C 	C 	0.5132	0.24557	0.39371	-0.202
Mof_H 	H 	0.5561	0.24	0.4058	0.119
Mof_C 	C 	0.4877	0.29017	0.38858	0.099
Mof_H 	H 	0.5137	0.3145	0.3972	-0.02
Mof_N 	N 	0.4236	0.29846	0.37051	-0.293
Mof_O 	O 	0.6767	0.4463	0.2914	-0.189
Mof_O 	O 	0.3539	0.5024	0.29251	-0.245
Mof_O 	O 	0.7721	0.491	0.3854	-0.311
Mof_O 	O 	0.7421	0.5597	0.40179	-0.438
Mof_O 	O 	0.8569	0.6088	0.3629	-0.476
Mof_O 	O 	0.7692	0.5777	0.34034	-0.553
Mof_O 	O 	0.3886	0.3875	0.39762	-0.478
Mof_O 	O 	0.3396	0.4525	0.38116	-0.368
Mof_O 	O 	0.5127	0.7856	0.4044	-0.218
Mof_O 	O 	0.6553	0.1675	0.3951	-0.172
Mof_Zn	Zn	0.39033	0.36395	0.36365	1.162
Mof_Zn	Zn	0.70483	0.5776	0.3684	1.218
Mof_C 	C 	0.8342	0.4079	0.8461	0.578
Mof_C 	C 	0.8757	0.4081	0.8193	-0.174
Mof_C 	C 	0.9586	0.3986	0.82364	0.093
Mof_H 	H 	0.9826	0.3911	0.8396	0.008
Mof_C 	C 	0.0027	0.4011	0.8032	-0.183
Mof_H 	H 	0.0571	0.3946	0.8053	0.106
Mof_C 	C 	0.9654	0.4132	0.77966	0.162
Mof_C 	C 	0.8841	0.4229	0.77656	-0.195
Mof_H 	H 	0.8592	0.431	0.7608	0.111
Mof_C 	C 	0.84	0.4205	0.79701	0.126
Mof_H 	H 	0.7856	0.427	0.7949	0.008
Mof_C 	C 	0.7786	0.4814	0.9037	0.294
Mof_C 	C 	0.8251	0.4909	0.9287	-0.113
Mof_C 	C 	0.8547	0.4545	0.9443	0.063
Mof_H 	H 	0.8389	0.4247	0.9402	0.026
Mof_C 	C 	0.9074	0.4627	0.96569	-0.162
Mof_H 	H 	0.9258	0.4386	0.9761	0.103
Mof_C 	C 	0.9326	0.5071	0.97159	0.153
Mof_C 	C 	0.9051	0.5432	0.9561	-0.165
Mof_H 	H 	0.922	0.5729	0.96	0.1
Mof_C 	C 	0.8524	0.535	0.93471	0.062
Mof_H 	H 	0.834	0.5592	0.9243	0.02
Mof_C 	C 	0.3673	0.5699	0.8988	0.356
Mof_C 	C 	0.395	0.5534	0.925	-0.14
Mof_C 	C 	0.3756	0.5074	0.92874	0.073
Mof_H 	H 	0.3454	0.491	0.9162	0.014
Mof_C 	C 	0.4023	0.4868	0.95154	-0.17
Mof_H 	H 	0.3909	0.4562	0.9542	0.1
Mof_C 	C 	0.4461	0.512	0.97032	0.151
Mof_C 	C 	0.4632	0.5578	0.9663	-0.172
Mof_H 	H 	0.4925	0.5747	0.9789	0.105
Mof_C 	C 	0.4365	0.5784	0.9435	0.091
Mof_H 	H 	0.4479	0.609	0.9408	0.017
Mof_C 	C 	0.7407	0.5481	0.8112	0.151
Mof_C 	C 	0.549	0.5922	0.87063	0.137
Mof_H 	H 	0.5409	0.5935	0.8875	-0.03
Mof_C 	C 	0.621	0.5756	0.8638	-0.27
Mof_H 	H 	0.6605	0.5656	0.8761	0.136
Mof_C 	C 	0.6337	0.5739	0.8386	0.279
Mof_C 	C 	0.5746	0.5888	0.82023	-0.258
Mof_H 	H 	0.5831	0.5877	0.8034	0.152
Mof_C 	C 	0.5027	0.6054	0.82706	0.119
Mof_H 	H 	0.4631	0.6154	0.8148	-0.047
Mof_C 	C 	0.3246	0.5065	0.8111	0.244
Mof_C 	C 	0.5491	0.46086	0.87366	0.105
Mof_H 	H 	0.5645	0.4549	0.8906	-0.024
Mof_C 	C 	0.4734	0.47836	0.86615	-0.218
Mof_H 	H 	0.4384	0.4843	0.878	0.12
Mof_C 	C 	0.45	0.48695	0.84086	0.207
Mof_C 	C 	0.5023	0.47806	0.82309	-0.211
Mof_H 	H 	0.4867	0.4838	0.8062	0.135
Mof_C 	C 	0.578	0.46057	0.8306	0.105
Mof_H 	H 	0.613	0.4546	0.8187	-0.006
Mof_C 	C 	0.2442	0.5178	0.8114	-0.11
Mof_C 	C 	0.2088	0.53212	0.83232	0.019
Mof_H 	H 	0.2403	0.5384	0.8473	0.014
Mof_C 	C 	0.1263	0.53701	0.83085	-0.113
Mof_H 	H 	0.1026	0.5466	0.8448	0.07
Mof_C 	C 	0.0791	0.52757	0.80845	0.049
Mof_C 	C 	0.1146	0.51325	0.78753	-0.108
Mof_H 	H 	0.083	0.5069	0.7725	0.07
Mof_C 	C 	0.1971	0.50836	0.78901	0.028
Mof_H 	H 	0.2208	0.4988	0.775	0.038
Mof_C 	C 	0.9856	0.53001	0.80879	0.022
Mof_C 	C 	0.954	0.52135	0.83122	-0.073
Mof_H 	H 	0.9871	0.5114	0.8452	0.06
Mof_C 	C 	0.8728	0.5276	0.83274	-0.015
Mof_H 	H 	0.8516	0.5218	0.8477	0.044
Mof_C 	C 	0.8233	0.54251	0.81182	-0.041
Mof_C 	C 	0.8549	0.55116	0.78938	-0.016
Mof_H 	H 	0.8218	0.5611	0.7754	0.048
Mof_C 	C 	0.9361	0.54491	0.78787	-0.072
Mof_H 	H 	0.9573	0.5507	0.7729	0.053
Mof_C 	C 	0.7032	0.32472	0.858	0.089
Mof_H 	H 	0.7327	0.3344	0.8453	-0.013
Mof_C 	C 	0.691	0.27828	0.8617	-0.201
Mof_H 	H 	0.7123	0.2569	0.8514	0.089
Mof_C 	C 	0.647	0.26382	0.88073	0.2
Mof_C 	C 	0.6152	0.29579	0.89607	-0.212
Mof_H 	H 	0.5857	0.2861	0.9088	0.127
Mof_C 	C 	0.6273	0.34223	0.89237	0.11
Mof_H 	H 	0.606	0.3636	0.9026	-0.017
Mof_C 	C 	0.6593	0.1219	0.89909	-0.004
Mof_H 	H 	0.7076	0.1376	0.9005	0.017
Mof_C 	C 	0.5876	0.14594	0.89616	-0.05
Mof_C 	C 	0.5154	0.12245	0.89403	-0.006
Mof_H 	H 	0.4674	0.1385	0.8921	0.05
Mof_C 	C 	0.5148	0.07492	0.89484	-0.089
Mof_H 	H 	0.4665	0.0592	0.8934	0.065
Mof_C 	C 	0.5865	0.05088	0.89777	0.04
Mof_C 	C 	0.6587	0.07437	0.8999	-0.098
Mof_H 	H 	0.7067	0.0583	0.9019	0.07
Mof_C 	C 	0.5712	0.1983	0.8951	0.192
Mof_C 	C 	0.6424	0.9268	0.88887	-0.032
Mof_H 	H 	0.6854	0.9105	0.8839	0.062
Mof_C 	C 	0.6458	0.9742	0.89054	-0.064
Mof_H 	H 	0.6912	0.9897	0.8867	0.059
Mof_C 	C 	0.5814	0.9985	0.89793	0.015
Mof_C 	C 	0.5135	0.9754	0.90365	-0.059
Mof_H 	H 	0.4704	0.9917	0.9086	0.058
Mof_C 	C 	0.5101	0.928	0.90197	-0.037
Mof_H 	H 	0.4647	0.9125	0.9058	0.054
Mof_C 	C 	0.5745	0.9037	0.89458	-0.007
Mof_C 	C 	0.5738	0.8537	0.8987	0.123
Mof_N 	N 	0.6732	0.3576	0.8738	-0.27
Mof_N 	N 	0.6358	0.217	0.8825	-0.243
Mof_H 	H 	0.6678	0.1987	0.876	0.115
Mof_N 	N 	0.0178	0.4133	0.7592	-0.094
Mof_N 	N 	0.9747	0.5182	0.9964	-0.098
Mof_N 	N 	0.6012	0.4523	0.8561	-0.277
Mof_N 	N 	0.3712	0.506	0.8348	-0.256
Mof_H 	H 	0.3501	0.5186	0.8471	0.142
Mof_N 	N 	0.7003	0.5581	0.83426	-0.263
Mof_H 	H 	0.73	0.5513	0.8479	0.147
Mof_N 	N 	0.4902	0.6065	0.85267	-0.297
Mof_N 	N 	0.4797	0.4906	0.994	-0.087
Mof_N 	N 	0.4972	0.83889	0.88638	-0.23
Mof_H 	H 	0.4623	0.8597	0.882	0.16
Mof_C 	C 	0.3848	0.73784	0.85756	0.096
Mof_H 	H 	0.3418	0.7323	0.8455	-0.05
Mof_C 	C 	0.4102	0.78244	0.86268	-0.21
Mof_H 	H 	0.3843	0.8067	0.854	0.118
Mof_C 	C 	0.4744	0.79074	0.88076	0.195
Mof_C 	C 	0.5132	0.75443	0.89371	-0.202
Mof_H 	H 	0.5561	0.76	0.9058	0.119
Mof_C 	C 	0.4877	0.70983	0.88858	0.099
Mof_H 	H 	0.5137	0.6855	0.8972	-0.02
Mof_N 	N 	0.4236	0.70154	0.87051	-0.293
Mof_O 	O 	0.6767	0.5537	0.7914	-0.189
Mof_O 	O 	0.3539	0.4976	0.79251	-0.245
Mof_O 	O 	0.7721	0.509	0.8854	-0.311
Mof_O 	O 	0.7421	0.4403	0.90179	-0.438
Mof_O 	O 	0.8569	0.3912	0.8629	-0.476
Mof_O 	O 	0.7692	0.4223	0.84034	-0.553
Mof_O 	O 	0.3886	0.6125	0.89762	-0.478
Mof_O 	O 	0.3396	0.5475	0.88116	-0.368
Mof_O 	O 	0.5127	0.2144	0.9044	-0.218
Mof_O 	O 	0.6553	0.8325	0.8951	-0.172
Mof_Zn	Zn	0.39033	0.63605	0.86365	1.162
Mof_Zn	Zn	0.70483	0.4224	0.8684	1.218
Mof_C 	C 	0.1658	0.4079	0.6539	0.578
Mof_C 	C 	0.1243	0.4081	0.6807	-0.174
Mof_C 	C 	0.0414	0.3986	0.67636	0.093
Mof_H 	H 	0.0174	0.3911	0.6604	0.008
Mof_C 	C 	0.9973	0.4011	0.6968	-0.183
Mof_H 	H 	0.9429	0.3946	0.6947	0.106
Mof_C 	C 	0.0346	0.4132	0.72034	0.162
Mof_C 	C 	0.1159	0.4229	0.72344	-0.195
Mof_H 	H 	0.1408	0.431	0.7392	0.111
Mof_C 	C 	0.16	0.4205	0.70299	0.126
Mof_H 	H 	0.2144	0.427	0.7051	0.008
Mof_C 	C 	0.2214	0.4814	0.5963	0.294
Mof_C 	C 	0.1749	0.4909	0.5713	-0.113
Mof_C 	C 	0.1453	0.4545	0.5557	0.063
Mof_H 	H 	0.1611	0.4247	0.5598	0.026
Mof_C 	C 	0.0926	0.4627	0.53431	-0.162
Mof_H 	H 	0.0742	0.4386	0.5239	0.103
Mof_C 	C 	0.0674	0.5071	0.52841	0.153
Mof_C 	C 	0.0949	0.5432	0.5439	-0.165
Mof_H 	H 	0.078	0.5729	0.54	0.1
Mof_C 	C 	0.1476	0.535	0.56529	0.062
Mof_H 	H 	0.166	0.5592	0.5757	0.02
Mof_C 	C 	0.6327	0.5699	0.6012	0.356
Mof_C 	C 	0.605	0.5534	0.575	-0.14
Mof_C 	C 	0.6244	0.5074	0.57126	0.073
Mof_H 	H 	0.6546	0.491	0.5838	0.014
Mof_C 	C 	0.5977	0.4868	0.54846	-0.17
Mof_H 	H 	0.6091	0.4562	0.5458	0.1
Mof_C 	C 	0.5539	0.512	0.52968	0.151
Mof_C 	C 	0.5368	0.5578	0.5337	-0.172
Mof_H 	H 	0.5075	0.5747	0.5211	0.105
Mof_C 	C 	0.5635	0.5784	0.5565	0.091
Mof_H 	H 	0.5521	0.609	0.5592	0.017
Mof_C 	C 	0.2593	0.5481	0.6888	0.151
Mof_C 	C 	0.451	0.5922	0.62937	0.137
Mof_H 	H 	0.4591	0.5935	0.6125	-0.03
Mof_C 	C 	0.379	0.5756	0.6362	-0.27
Mof_H 	H 	0.3395	0.5656	0.6239	0.136
Mof_C 	C 	0.3663	0.5739	0.6614	0.279
Mof_C 	C 	0.4254	0.5888	0.67977	-0.258
Mof_H 	H 	0.4169	0.5877	0.6966	0.152
Mof_C 	C 	0.4973	0.6054	0.67294	0.119
Mof_H 	H 	0.5369	0.6154	0.6852	-0.047
Mof_C 	C 	0.6754	0.5065	0.6889	0.244
Mof_C 	C 	0.4509	0.46086	0.62634	0.105
Mof_H 	H 	0.4355	0.4549	0.6094	-0.024
Mof_C 	C 	0.5266	0.47836	0.63385	-0.218
Mof_H 	H 	0.5616	0.4843	0.622	0.12
Mof_C 	C 	0.55	0.48695	0.65914	0.207
Mof_C 	C 	0.4977	0.47806	0.67691	-0.211
Mof_H 	H 	0.5133	0.4838	0.6938	0.135
Mof_C 	C 	0.422	0.46057	0.6694	0.105
Mof_H 	H 	0.387	0.4546	0.6813	-0.006
Mof_C 	C 	0.7558	0.5178	0.6886	-0.11
Mof_C 	C 	0.7912	0.53212	0.66768	0.019
Mof_H 	H 	0.7597	0.5384	0.6527	0.014
Mof_C 	C 	0.8737	0.53701	0.66915	-0.113
Mof_H 	H 	0.8974	0.5466	0.6552	0.07
Mof_C 	C 	0.9209	0.52757	0.69155	0.049
Mof_C 	C 	0.8854	0.51325	0.71247	-0.108
Mof_H 	H 	0.917	0.5069	0.7275	0.07
Mof_C 	C 	0.8029	0.50836	0.71099	0.028
Mof_H 	H 	0.7792	0.4988	0.725	0.038
Mof_C 	C 	0.0144	0.53001	0.69121	0.022
Mof_C 	C 	0.046	0.52135	0.66878	-0.073
Mof_H 	H 	0.0129	0.5114	0.6548	0.06
Mof_C 	C 	0.1272	0.5276	0.66726	-0.015
Mof_H 	H 	0.1484	0.5218	0.6523	0.044
Mof_C 	C 	0.1767	0.54251	0.68818	-0.041
Mof_C 	C 	0.1451	0.55116	0.71062	-0.016
Mof_H 	H 	0.1782	0.5611	0.7246	0.048
Mof_C 	C 	0.0639	0.54491	0.71213	-0.072
Mof_H 	H 	0.0427	0.5507	0.7271	0.053
Mof_C 	C 	0.2968	0.32472	0.642	0.089
Mof_H 	H 	0.2673	0.3344	0.6547	-0.013
Mof_C 	C 	0.309	0.27828	0.6383	-0.201
Mof_H 	H 	0.2877	0.2569	0.6486	0.089
Mof_C 	C 	0.353	0.26382	0.61927	0.2
Mof_C 	C 	0.3848	0.29579	0.60393	-0.212
Mof_H 	H 	0.4143	0.2861	0.5912	0.127
Mof_C 	C 	0.3727	0.34223	0.60763	0.11
Mof_H 	H 	0.394	0.3636	0.5974	-0.017
Mof_C 	C 	0.3407	0.1219	0.60091	-0.004
Mof_H 	H 	0.2924	0.1376	0.5995	0.017
Mof_C 	C 	0.4124	0.14594	0.60384	-0.05
Mof_C 	C 	0.4846	0.12245	0.60597	-0.006
Mof_H 	H 	0.5326	0.1385	0.6079	0.05
Mof_C 	C 	0.4852	0.07492	0.60516	-0.089
Mof_H 	H 	0.5335	0.0592	0.6066	0.065
Mof_C 	C 	0.4135	0.05088	0.60223	0.04
Mof_C 	C 	0.3413	0.07437	0.6001	-0.098
Mof_H 	H 	0.2933	0.0583	0.5981	0.07
Mof_C 	C 	0.4288	0.1983	0.6049	0.192
Mof_C 	C 	0.3576	0.9268	0.61113	-0.032
Mof_H 	H 	0.3146	0.9105	0.6161	0.062
Mof_C 	C 	0.3542	0.9742	0.60946	-0.064
Mof_H 	H 	0.3088	0.9897	0.6133	0.059
Mof_C 	C 	0.4186	0.9985	0.60207	0.015
Mof_C 	C 	0.4865	0.9754	0.59635	-0.059
Mof_H 	H 	0.5296	0.9917	0.5914	0.058
Mof_C 	C 	0.4899	0.928	0.59803	-0.037
Mof_H 	H 	0.5353	0.9125	0.5942	0.054
Mof_C 	C 	0.4255	0.9037	0.60542	-0.007
Mof_C 	C 	0.4262	0.8537	0.6013	0.123
Mof_N 	N 	0.3268	0.3576	0.6262	-0.27
Mof_N 	N 	0.3642	0.217	0.6175	-0.243
Mof_H 	H 	0.3322	0.1987	0.624	0.115
Mof_N 	N 	0.9822	0.4133	0.7408	-0.094
Mof_N 	N 	0.0253	0.5182	0.5036	-0.098
Mof_N 	N 	0.3988	0.4523	0.6439	-0.277
Mof_N 	N 	0.6288	0.506	0.6652	-0.256
Mof_H 	H 	0.6499	0.5186	0.6529	0.142
Mof_N 	N 	0.2997	0.5581	0.66574	-0.263
Mof_H 	H 	0.27	0.5513	0.6521	0.147
Mof_N 	N 	0.5098	0.6065	0.64733	-0.297
Mof_N 	N 	0.5203	0.4906	0.506	-0.087
Mof_N 	N 	0.5028	0.83889	0.61362	-0.23
Mof_H 	H 	0.5377	0.8597	0.618	0.16
Mof_C 	C 	0.6152	0.73784	0.64244	0.096
Mof_H 	H 	0.6582	0.7323	0.6545	-0.05
Mof_C 	C 	0.5898	0.78244	0.63732	-0.21
Mof_H 	H 	0.6157	0.8067	0.646	0.118
Mof_C 	C 	0.5256	0.79074	0.61924	0.195
Mof_C 	C 	0.4868	0.75443	0.60629	-0.202
Mof_H 	H 	0.4439	0.76	0.5942	0.119
Mof_C 	C 	0.5123	0.70983	0.61142	0.099
Mof_H 	H 	0.4863	0.6855	0.6028	-0.02
Mof_N 	N 	0.5764	0.70154	0.62949	-0.293
Mof_O 	O 	0.3233	0.5537	0.7086	-0.189
Mof_O 	O 	0.6461	0.4976	0.70749	-0.245
Mof_O 	O 	0.2279	0.509	0.6146	-0.311
Mof_O 	O 	0.2579	0.4403	0.59821	-0.438
Mof_O 	O 	0.1431	0.3912	0.6371	-0.476
Mof_O 	O 	0.2308	0.4223	0.65966	-0.553
Mof_O 	O 	0.6114	0.6125	0.60238	-0.478
Mof_O 	O 	0.6604	0.5475	0.61884	-0.368
Mof_O 	O 	0.4873	0.2144	0.5956	-0.218
Mof_O 	O 	0.3447	0.8325	0.6049	-0.172
Mof_Zn	Zn	0.60967	0.63605	0.63635	1.162
Mof_Zn	Zn	0.29517	0.4224	0.6316	1.218
_end
