# CIF file generated by openbabel 3.1.0, see https://openbabel.org
data_I
_chemical_name_common 'image0'
_cell_length_a 18.7119
_cell_length_b 18.7119
_cell_length_c 9.3991
_cell_angle_alpha 90
_cell_angle_beta 90
_cell_angle_gamma 90
_space_group_name_H-M_alt 'P 1'
_space_group_name_Hall 'P 1'
loop_
    _symmetry_equiv_pos_as_xyz
    x,y,z
loop_
    _atom_site_label
    _atom_site_type_symbol
    _atom_site_fract_x
    _atom_site_fract_y
    _atom_site_fract_z
    _atom_site_occupancy
    Si1      Si       0.66733    0.43493    0.59263    1.000
    Si2      Si       0.83241    0.55072    0.34042    1.000
    P1       P        0.05259    0.56170    0.16585    1.000
    Al1      Al       0.66460    0.54488    0.33858    1.000
    Al2      Al       0.83449    0.43375    0.59170    1.000
    Al3      Al       0.93016    0.44186    0.15934    1.000
    O1       O        0.65868    0.50071    0.50739    1.000
    O2       O        0.74802    0.42037    0.62086    1.000
    O3       O        0.63561    0.36951    0.52128    1.000
    O4       O        0.63462    0.44221    0.74275    1.000
    O5       O        0.75242    0.56204    0.30635    1.000
    O6       O        0.00651    0.62645    0.20640    1.000
    O7       O        0.87003    0.61837    0.34592    1.000
    O8       O        0.84068    0.51982    0.48882    1.000
    O9       O        0.85918    0.49824    0.22132    1.000
    O10      O        0.11797    0.56803    0.25217    1.000
    O11      O        0.07864    0.57980    0.00746    1.000
    O12      O        0.01487    0.49539    0.17445    1.000
    Si3      Si       0.83267    0.06507    0.59263    1.000
    Si4      Si       0.66759    0.94928    0.34042    1.000
    P2       P        0.44741    0.93830    0.16585    1.000
    Al4      Al       0.83540    0.95512    0.33858    1.000
    Al5      Al       0.66551    0.06625    0.59170    1.000
    Al6      Al       0.56984    0.05814    0.15934    1.000
    O13      O        0.84132    0.99929    0.50739    1.000
    O14      O        0.75198    0.07963    0.62086    1.000
    O15      O        0.86439    0.13049    0.52128    1.000
    O16      O        0.86538    0.05779    0.74275    1.000
    O17      O        0.74758    0.93796    0.30635    1.000
    O18      O        0.49349    0.87355    0.20640    1.000
    O19      O        0.62997    0.88163    0.34592    1.000
    O20      O        0.65932    0.98018    0.48882    1.000
    O21      O        0.64082    0.00176    0.22132    1.000
    O22      O        0.38203    0.93197    0.25217    1.000
    O23      O        0.42136    0.92020    0.00746    1.000
    O24      O        0.48513    0.00461    0.17445    1.000
    Si5      Si       0.06507    0.66733    0.59263    1.000
    Si6      Si       0.94928    0.83241    0.34042    1.000
    P3       P        0.93830    0.05259    0.16585    1.000
    Al7      Al       0.95512    0.66460    0.33858    1.000
    Al8      Al       0.06625    0.83449    0.59170    1.000
    Al9      Al       0.05814    0.93016    0.15934    1.000
    O25      O        0.99929    0.65868    0.50739    1.000
    O26      O        0.07963    0.74802    0.62086    1.000
    O27      O        0.13049    0.63561    0.52128    1.000
    O28      O        0.05779    0.63462    0.74275    1.000
    O29      O        0.93796    0.75242    0.30635    1.000
    O30      O        0.87355    0.00651    0.20640    1.000
    O31      O        0.88163    0.87003    0.34592    1.000
    O32      O        0.98018    0.84068    0.48882    1.000
    O33      O        0.00176    0.85918    0.22132    1.000
    O34      O        0.93197    0.11797    0.25217    1.000
    O35      O        0.92020    0.07864    0.00746    1.000
    O36      O        0.00461    0.01487    0.17445    1.000
    Si7      Si       0.43493    0.83267    0.59263    1.000
    Si8      Si       0.55072    0.66759    0.34042    1.000
    P4       P        0.56170    0.44741    0.16585    1.000
    Al10     Al       0.54488    0.83540    0.33858    1.000
    Al11     Al       0.43375    0.66551    0.59170    1.000
    Al12     Al       0.44186    0.56984    0.15934    1.000
    O37      O        0.50071    0.84132    0.50739    1.000
    O38      O        0.42037    0.75198    0.62086    1.000
    O39      O        0.36951    0.86439    0.52128    1.000
    O40      O        0.44221    0.86538    0.74275    1.000
    O41      O        0.56204    0.74758    0.30635    1.000
    O42      O        0.62645    0.49349    0.20640    1.000
    O43      O        0.61837    0.62997    0.34592    1.000
    O44      O        0.51982    0.65932    0.48882    1.000
    O45      O        0.49824    0.64082    0.22132    1.000
    O46      O        0.56803    0.38203    0.25217    1.000
    O47      O        0.57980    0.42136    0.00746    1.000
    O48      O        0.49539    0.48513    0.17445    1.000
    Si9      Si       0.33267    0.56507    0.40737    1.000
    Si10     Si       0.16759    0.44928    0.65958    1.000
    P5       P        0.94741    0.43830    0.83415    1.000
    Al13     Al       0.33540    0.45512    0.66142    1.000
    Al14     Al       0.16551    0.56625    0.40830    1.000
    Al15     Al       0.06984    0.55814    0.84066    1.000
    O49      O        0.34132    0.49929    0.49261    1.000
    O50      O        0.25198    0.57963    0.37914    1.000
    O51      O        0.36439    0.63049    0.47872    1.000
    O52      O        0.36538    0.55779    0.25725    1.000
    O53      O        0.24758    0.43796    0.69365    1.000
    O54      O        0.99349    0.37355    0.79360    1.000
    O55      O        0.12997    0.38163    0.65408    1.000
    O56      O        0.15932    0.48018    0.51118    1.000
    O57      O        0.14082    0.50176    0.77868    1.000
    O58      O        0.88203    0.43197    0.74783    1.000
    O59      O        0.92136    0.42020    0.99254    1.000
    O60      O        0.98513    0.50461    0.82555    1.000
    Si11     Si       0.16733    0.93493    0.40737    1.000
    Si12     Si       0.33241    0.05072    0.65958    1.000
    P6       P        0.55259    0.06170    0.83415    1.000
    Al16     Al       0.16460    0.04488    0.66142    1.000
    Al17     Al       0.33449    0.93375    0.40830    1.000
    Al18     Al       0.43016    0.94186    0.84066    1.000
    O61      O        0.15868    0.00071    0.49261    1.000
    O62      O        0.24802    0.92037    0.37914    1.000
    O63      O        0.13561    0.86951    0.47872    1.000
    O64      O        0.13462    0.94221    0.25725    1.000
    O65      O        0.25242    0.06204    0.69365    1.000
    O66      O        0.50651    0.12645    0.79360    1.000
    O67      O        0.37003    0.11837    0.65408    1.000
    O68      O        0.34068    0.01982    0.51118    1.000
    O69      O        0.35918    0.99824    0.77868    1.000
    O70      O        0.61797    0.06803    0.74783    1.000
    O71      O        0.57864    0.07980    0.99254    1.000
    O72      O        0.51487    0.99539    0.82555    1.000
    Si13     Si       0.93493    0.33267    0.40737    1.000
    Si14     Si       0.05072    0.16759    0.65958    1.000
    P7       P        0.06170    0.94741    0.83415    1.000
    Al19     Al       0.04488    0.33540    0.66142    1.000
    Al20     Al       0.93375    0.16551    0.40830    1.000
    Al21     Al       0.94186    0.06984    0.84066    1.000
    O73      O        0.00071    0.34132    0.49261    1.000
    O74      O        0.92037    0.25198    0.37914    1.000
    O75      O        0.86951    0.36439    0.47872    1.000
    O76      O        0.94221    0.36538    0.25725    1.000
    O77      O        0.06204    0.24758    0.69365    1.000
    O78      O        0.12645    0.99349    0.79360    1.000
    O79      O        0.11837    0.12997    0.65408    1.000
    O80      O        0.01982    0.15932    0.51118    1.000
    O81      O        0.99824    0.14082    0.77868    1.000
    O82      O        0.06803    0.88203    0.74783    1.000
    O83      O        0.07980    0.92136    0.99254    1.000
    O84      O        0.99539    0.98513    0.82555    1.000
    Si15     Si       0.56507    0.16733    0.40737    1.000
    Si16     Si       0.44928    0.33241    0.65958    1.000
    P8       P        0.43830    0.55259    0.83415    1.000
    Al22     Al       0.45512    0.16460    0.66142    1.000
    Al23     Al       0.56625    0.33449    0.40830    1.000
    Al24     Al       0.55814    0.43016    0.84066    1.000
    O85      O        0.49929    0.15868    0.49261    1.000
    O86      O        0.57963    0.24802    0.37914    1.000
    O87      O        0.63049    0.13561    0.47872    1.000
    O88      O        0.55779    0.13462    0.25725    1.000
    O89      O        0.43796    0.25242    0.69365    1.000
    O90      O        0.37355    0.50651    0.79360    1.000
    O91      O        0.38163    0.37003    0.65408    1.000
    O92      O        0.48018    0.34068    0.51118    1.000
    O93      O        0.50176    0.35918    0.77868    1.000
    O94      O        0.43197    0.61797    0.74783    1.000
    O95      O        0.42020    0.57864    0.99254    1.000
    O96      O        0.50461    0.51487    0.82555    1.000
