# CIF file generated by openbabel 3.1.0, see https://openbabel.org
data_I
_chemical_name_common 'image0'
_cell_length_a 15.3873
_cell_length_b 15.3873
_cell_length_c 9.8379
_cell_angle_alpha 90
_cell_angle_beta 90
_cell_angle_gamma 90
_space_group_name_H-M_alt 'P 1'
_space_group_name_Hall 'P 1'
loop_
    _symmetry_equiv_pos_as_xyz
    x,y,z
loop_
    _atom_site_label
    _atom_site_type_symbol
    _atom_site_fract_x
    _atom_site_fract_y
    _atom_site_fract_z
    _atom_site_occupancy
    C1       C        0.38697    0.24501    0.12220    1.000
    H1       H        0.41160    0.26270    0.20400    1.000
    C2       C        0.31227    0.19518    0.12190    1.000
    H2       H        0.28760    0.17820    0.20400    1.000
    O1       O        0.53184    0.37360    0.12230    1.000
    C3       C        0.61303    0.75499    0.12220    1.000
    H3       H        0.58840    0.73730    0.20400    1.000
    C4       C        0.68773    0.80482    0.12190    1.000
    H4       H        0.71240    0.82180    0.20400    1.000
    O2       O        0.46816    0.62640    0.12230    1.000
    C5       C        0.75499    0.38697    0.12220    1.000
    H5       H        0.73730    0.41160    0.20400    1.000
    C6       C        0.80482    0.31227    0.12190    1.000
    H6       H        0.82180    0.28760    0.20400    1.000
    O3       O        0.62640    0.53184    0.12230    1.000
    C7       C        0.24501    0.61303    0.12220    1.000
    H7       H        0.26270    0.58840    0.20400    1.000
    C8       C        0.19518    0.68773    0.12190    1.000
    H8       H        0.17820    0.71240    0.20400    1.000
    O4       O        0.37360    0.46816    0.12230    1.000
    C9       C        0.61303    0.24501    0.37780    1.000
    H9       H        0.58840    0.26270    0.29600    1.000
    C10      C        0.68773    0.19518    0.37810    1.000
    H10      H        0.71240    0.17820    0.29600    1.000
    O5       O        0.46816    0.37360    0.37770    1.000
    C11      C        0.38697    0.75499    0.37780    1.000
    H11      H        0.41160    0.73730    0.29600    1.000
    C12      C        0.31227    0.80482    0.37810    1.000
    H12      H        0.28760    0.82180    0.29600    1.000
    O6       O        0.53184    0.62640    0.37770    1.000
    C13      C        0.24501    0.38697    0.37780    1.000
    H13      H        0.26270    0.41160    0.29600    1.000
    C14      C        0.19518    0.31227    0.37810    1.000
    H14      H        0.17820    0.28760    0.29600    1.000
    O7       O        0.37360    0.53184    0.37770    1.000
    C15      C        0.75499    0.61303    0.37780    1.000
    H15      H        0.73730    0.58840    0.29600    1.000
    C16      C        0.80482    0.68773    0.37810    1.000
    H16      H        0.82180    0.71240    0.29600    1.000
    O8       O        0.62640    0.46816    0.37770    1.000
    C17      C        0.61303    0.75499    0.87780    1.000
    H17      H        0.58840    0.73730    0.79600    1.000
    C18      C        0.68773    0.80482    0.87810    1.000
    H18      H        0.71240    0.82180    0.79600    1.000
    O9       O        0.46816    0.62640    0.87770    1.000
    C19      C        0.38697    0.24501    0.87780    1.000
    H19      H        0.41160    0.26270    0.79600    1.000
    C20      C        0.31227    0.19518    0.87810    1.000
    H20      H        0.28760    0.17820    0.79600    1.000
    O10      O        0.53184    0.37360    0.87770    1.000
    C21      C        0.24501    0.61303    0.87780    1.000
    H21      H        0.26270    0.58840    0.79600    1.000
    C22      C        0.19518    0.68773    0.87810    1.000
    H22      H        0.17820    0.71240    0.79600    1.000
    O11      O        0.37360    0.46816    0.87770    1.000
    C23      C        0.75499    0.38697    0.87780    1.000
    H23      H        0.73730    0.41160    0.79600    1.000
    C24      C        0.80482    0.31227    0.87810    1.000
    H24      H        0.82180    0.28760    0.79600    1.000
    O12      O        0.62640    0.53184    0.87770    1.000
    C25      C        0.38697    0.75499    0.62220    1.000
    H25      H        0.41160    0.73730    0.70400    1.000
    C26      C        0.31227    0.80482    0.62190    1.000
    H26      H        0.28760    0.82180    0.70400    1.000
    O13      O        0.53184    0.62640    0.62230    1.000
    C27      C        0.61303    0.24501    0.62220    1.000
    H27      H        0.58840    0.26270    0.70400    1.000
    C28      C        0.68773    0.19518    0.62190    1.000
    H28      H        0.71240    0.17820    0.70400    1.000
    O14      O        0.46816    0.37360    0.62230    1.000
    C29      C        0.75499    0.61303    0.62220    1.000
    H29      H        0.73730    0.58840    0.70400    1.000
    C30      C        0.80482    0.68773    0.62190    1.000
    H30      H        0.82180    0.71240    0.70400    1.000
    O15      O        0.62640    0.46816    0.62230    1.000
    C31      C        0.24501    0.38697    0.62220    1.000
    H31      H        0.26270    0.41160    0.70400    1.000
    C32      C        0.19518    0.31227    0.62190    1.000
    H32      H        0.17820    0.28760    0.70400    1.000
    O16      O        0.37360    0.53184    0.62230    1.000
    Tb1      Tb       0.50000    0.50000    0.25000    1.000
    Tb2      Tb       0.50000    0.50000    0.75000    1.000
    S1       S        0.52674    0.32096    0.00000    1.000
    N1       N        0.02990    0.12970    0.00000    1.000
    C33      C        0.42500    0.26850    0.00000    1.000
    C34      C        0.27350    0.17000    0.00000    1.000
    C35      C        0.19150    0.11790    0.00000    1.000
    C36      C        0.11270    0.16440    0.00000    1.000
    C37      C        0.10580    0.25800    0.00000    1.000
    H33      H        0.15160    0.29740    0.00000    1.000
    C38      C        0.02070    0.27740    0.00000    1.000
    H34      H        0.99720    0.33310    0.00000    1.000
    C39      C        0.97200    0.19810    0.00000    1.000
    O17      O        0.58954    0.25267    0.00000    1.000
    S2       S        0.47326    0.67904    0.00000    1.000
    N2       N        0.97010    0.87030    0.00000    1.000
    C40      C        0.57500    0.73150    0.00000    1.000
    C41      C        0.72650    0.83000    0.00000    1.000
    C42      C        0.80850    0.88210    0.00000    1.000
    C43      C        0.88730    0.83560    0.00000    1.000
    C44      C        0.89420    0.74200    0.00000    1.000
    H35      H        0.84840    0.70260    0.00000    1.000
    C45      C        0.97930    0.72260    0.00000    1.000
    H36      H        0.00280    0.66690    0.00000    1.000
    C46      C        0.02800    0.80190    0.00000    1.000
    O18      O        0.41046    0.74733    0.00000    1.000
    S3       S        0.67904    0.52674    0.00000    1.000
    N3       N        0.87030    0.02990    0.00000    1.000
    C47      C        0.73150    0.42500    0.00000    1.000
    C48      C        0.83000    0.27350    0.00000    1.000
    C49      C        0.88210    0.19150    0.00000    1.000
    C50      C        0.83560    0.11270    0.00000    1.000
    C51      C        0.74200    0.10580    0.00000    1.000
    H37      H        0.70260    0.15160    0.00000    1.000
    C52      C        0.72260    0.02070    0.00000    1.000
    H38      H        0.66690    0.99720    0.00000    1.000
    C53      C        0.80190    0.97200    0.00000    1.000
    O19      O        0.74733    0.58954    0.00000    1.000
    S4       S        0.32096    0.47326    0.00000    1.000
    N4       N        0.12970    0.97010    0.00000    1.000
    C54      C        0.26850    0.57500    0.00000    1.000
    C55      C        0.17000    0.72650    0.00000    1.000
    C56      C        0.11790    0.80850    0.00000    1.000
    C57      C        0.16440    0.88730    0.00000    1.000
    C58      C        0.25800    0.89420    0.00000    1.000
    H39      H        0.29740    0.84840    0.00000    1.000
    C59      C        0.27740    0.97930    0.00000    1.000
    H40      H        0.33310    0.00280    0.00000    1.000
    C60      C        0.19810    0.02800    0.00000    1.000
    O20      O        0.25267    0.41046    0.00000    1.000
    S5       S        0.47326    0.32096    0.50000    1.000
    N5       N        0.97010    0.12970    0.50000    1.000
    C61      C        0.57500    0.26850    0.50000    1.000
    C62      C        0.72650    0.17000    0.50000    1.000
    C63      C        0.80850    0.11790    0.50000    1.000
    C64      C        0.88730    0.16440    0.50000    1.000
    C65      C        0.89420    0.25800    0.50000    1.000
    H41      H        0.84840    0.29740    0.50000    1.000
    C66      C        0.97930    0.27740    0.50000    1.000
    H42      H        0.00280    0.33310    0.50000    1.000
    C67      C        0.02800    0.19810    0.50000    1.000
    O21      O        0.41046    0.25267    0.50000    1.000
    S6       S        0.52674    0.67904    0.50000    1.000
    N6       N        0.02990    0.87030    0.50000    1.000
    C68      C        0.42500    0.73150    0.50000    1.000
    C69      C        0.27350    0.83000    0.50000    1.000
    C70      C        0.19150    0.88210    0.50000    1.000
    C71      C        0.11270    0.83560    0.50000    1.000
    C72      C        0.10580    0.74200    0.50000    1.000
    H43      H        0.15160    0.70260    0.50000    1.000
    C73      C        0.02070    0.72260    0.50000    1.000
    H44      H        0.99720    0.66690    0.50000    1.000
    C74      C        0.97200    0.80190    0.50000    1.000
    O22      O        0.58954    0.74733    0.50000    1.000
    S7       S        0.32096    0.52674    0.50000    1.000
    N7       N        0.12970    0.02990    0.50000    1.000
    C75      C        0.26850    0.42500    0.50000    1.000
    C76      C        0.17000    0.27350    0.50000    1.000
    C77      C        0.11790    0.19150    0.50000    1.000
    C78      C        0.16440    0.11270    0.50000    1.000
    C79      C        0.25800    0.10580    0.50000    1.000
    H45      H        0.29740    0.15160    0.50000    1.000
    C80      C        0.27740    0.02070    0.50000    1.000
    H46      H        0.33310    0.99720    0.50000    1.000
    C81      C        0.19810    0.97200    0.50000    1.000
    O23      O        0.25267    0.58954    0.50000    1.000
    S8       S        0.67904    0.47326    0.50000    1.000
    N8       N        0.87030    0.97010    0.50000    1.000
    C82      C        0.73150    0.57500    0.50000    1.000
    C83      C        0.83000    0.72650    0.50000    1.000
    C84      C        0.88210    0.80850    0.50000    1.000
    C85      C        0.83560    0.88730    0.50000    1.000
    C86      C        0.74200    0.89420    0.50000    1.000
    H47      H        0.70260    0.84840    0.50000    1.000
    C87      C        0.72260    0.97930    0.50000    1.000
    H48      H        0.66690    0.00280    0.50000    1.000
    C88      C        0.80190    0.02800    0.50000    1.000
    O24      O        0.74733    0.41046    0.50000    1.000
