# CIF file generated by openbabel 3.1.0, see https://openbabel.org
data_I
_chemical_name_common 'VACFOV_clean_h'
_cell_length_a 12.032
_cell_length_b 15.087
_cell_length_c 15.087
_cell_angle_alpha 120
_cell_angle_beta 90
_cell_angle_gamma 90
_space_group_name_H-M_alt 'P 1'
_space_group_name_Hall 'P 1'
loop_
    _symmetry_equiv_pos_as_xyz
    x,y,z
loop_
    _atom_site_label
    _atom_site_type_symbol
    _atom_site_fract_x
    _atom_site_fract_y
    _atom_site_fract_z
    _atom_site_occupancy
    In1      In       0.00000    0.50000    0.50000    1.000
    In2      In       0.66667    0.00000    0.50000    1.000
    In3      In       0.33333    0.50000    0.00000    1.000
    C1       C        0.84830    0.49050    0.61920    1.000
    C2       C        0.75370    0.49550    0.68920    1.000
    C3       C        0.71360    0.58620    0.76550    1.000
    C4       C        0.70910    0.40040    0.67160    1.000
    C5       C        0.51497    0.12870    0.50950    1.000
    C6       C        0.42037    0.19370    0.50450    1.000
    C7       C        0.38027    0.17930    0.41380    1.000
    C8       C        0.37577    0.27120    0.59960    1.000
    C9       C        0.18163    0.38080    0.87130    1.000
    C10      C        0.08703    0.31080    0.80630    1.000
    C11      C        0.04693    0.23450    0.82070    1.000
    C12      C        0.04243    0.32840    0.72880    1.000
    C13      C        0.84830    0.50950    0.38080    1.000
    C14      C        0.75370    0.50450    0.31080    1.000
    C15      C        0.71360    0.41380    0.23450    1.000
    C16      C        0.70910    0.59960    0.32840    1.000
    C17      C        0.51497    0.87130    0.49050    1.000
    C18      C        0.42037    0.80630    0.49550    1.000
    C19      C        0.38027    0.82070    0.58620    1.000
    C20      C        0.37577    0.72880    0.40040    1.000
    C21      C        0.18163    0.61920    0.12870    1.000
    C22      C        0.08703    0.68920    0.19370    1.000
    C23      C        0.04693    0.76550    0.17930    1.000
    C24      C        0.04243    0.67160    0.27120    1.000
    C25      C        0.81837    0.87130    0.38080    1.000
    C26      C        0.91297    0.80630    0.31080    1.000
    C27      C        0.95307    0.82070    0.23450    1.000
    C28      C        0.95757    0.72880    0.32840    1.000
    C29      C        0.15170    0.61920    0.49050    1.000
    C30      C        0.24630    0.68920    0.49550    1.000
    C31      C        0.28640    0.76550    0.58620    1.000
    C32      C        0.29090    0.67160    0.40040    1.000
    C33      C        0.48503    0.50950    0.12870    1.000
    C34      C        0.57963    0.50450    0.19370    1.000
    C35      C        0.61973    0.41380    0.17930    1.000
    C36      C        0.62423    0.59960    0.27120    1.000
    C37      C        0.81837    0.12870    0.61920    1.000
    C38      C        0.91297    0.19370    0.68920    1.000
    C39      C        0.95307    0.17930    0.76550    1.000
    C40      C        0.95757    0.27120    0.67160    1.000
    C41      C        0.15170    0.38080    0.50950    1.000
    C42      C        0.24630    0.31080    0.50450    1.000
    C43      C        0.28640    0.23450    0.41380    1.000
    C44      C        0.29090    0.32840    0.59960    1.000
    C45      C        0.48503    0.49050    0.87130    1.000
    C46      C        0.57963    0.49550    0.80630    1.000
    C47      C        0.61973    0.58620    0.82070    1.000
    C48      C        0.62423    0.40040    0.72880    1.000
    O1       O        0.89710    0.57840    0.64520    1.000
    O2       O        0.87420    0.41350    0.54160    1.000
    O3       O        0.56377    0.06680    0.42160    1.000
    O4       O        0.54087    0.12810    0.58650    1.000
    O5       O        0.23043    0.35480    0.93320    1.000
    O6       O        0.20753    0.45840    0.87190    1.000
    O7       O        0.89710    0.42160    0.35480    1.000
    O8       O        0.87420    0.58650    0.45840    1.000
    O9       O        0.56377    0.93320    0.57840    1.000
    O10      O        0.54087    0.87190    0.41350    1.000
    O11      O        0.23043    0.64520    0.06680    1.000
    O12      O        0.20753    0.54160    0.12810    1.000
    O13      O        0.76957    0.93320    0.35480    1.000
    O14      O        0.79247    0.87190    0.45840    1.000
    O15      O        0.10290    0.64520    0.57840    1.000
    O16      O        0.12580    0.54160    0.41350    1.000
    O17      O        0.43623    0.42160    0.06680    1.000
    O18      O        0.45913    0.58650    0.12810    1.000
    O19      O        0.76957    0.06680    0.64520    1.000
    O20      O        0.79247    0.12810    0.54160    1.000
    O21      O        0.10290    0.35480    0.42160    1.000
    O22      O        0.12580    0.45840    0.58650    1.000
    O23      O        0.43623    0.57840    0.93320    1.000
    O24      O        0.45913    0.41350    0.87190    1.000
    H1       H        0.75623    0.66097    0.78389    1.000
    H2       H        0.74583    0.32526    0.60919    1.000
    H3       H        0.42290    0.12292    0.33903    1.000
    H4       H        0.41250    0.28393    0.67474    1.000
    H5       H        0.08956    0.21611    0.87708    1.000
    H6       H        0.07916    0.39081    0.71608    1.000
    H7       H        0.75623    0.33903    0.21611    1.000
    H8       H        0.74583    0.67474    0.39081    1.000
    H9       H        0.42290    0.87708    0.66097    1.000
    H10      H        0.41250    0.71607    0.32526    1.000
    H11      H        0.08956    0.78389    0.12292    1.000
    H12      H        0.07916    0.60919    0.28392    1.000
    H13      H        0.91128    0.87683    0.21529    1.000
    H14      H        0.92144    0.71546    0.39062    1.000
    H15      H        0.24460    0.78472    0.66155    1.000
    H16      H        0.25477    0.60938    0.32484    1.000
    H17      H        0.57710    0.33903    0.12292    1.000
    H18      H        0.58750    0.67474    0.28393    1.000
    H19      H        0.91128    0.12317    0.78471    1.000
    H20      H        0.92144    0.28454    0.60938    1.000
    H21      H        0.24460    0.21528    0.33845    1.000
    H22      H        0.25477    0.39062    0.67516    1.000
    H23      H        0.57793    0.66155    0.87683    1.000
    H24      H        0.58810    0.32484    0.71546    1.000
