data_functionalizedCrystal
_audit_creation_method	'EQeq! by Chris Wilmer'
_symmetry_space_group_name_H-M	'P1'
_symmetry_Int_Tables_number	1
_symmetry_cell_setting	triclinic
loop_
_symmetry_equiv_pos_as_xyz
  x,y,z
_cell_length_a	19.6796
_cell_length_b	15.5684
_cell_length_c	28.5978
_cell_angle_alpha	90
_cell_angle_beta	103.83
_cell_angle_gamma	90
loop_
_atom_site_label
_atom_site_type_symbol
_atom_site_fract_x
_atom_site_fract_y
_atom_site_fract_z
_atom_site_charge
Mof_Sn	Sn	0.76711	0.72816	0.0041	1.183
Mof_C 	C 	0.8391	0.7577	0.96221	-0.957
Mof_H 	H 	0.8709	0.709	0.9628	0.262
Mof_H 	H 	0.8662	0.8086	0.9755	0.253
Mof_H 	H 	0.8137	0.7691	0.9289	0.248
Mof_C 	C 	0.7993	0.656	0.06816	-0.954
Mof_H 	H 	0.8034	0.694	0.096	0.251
Mof_H 	H 	0.8447	0.6293	0.0692	0.251
Mof_H 	H 	0.7646	0.6112	0.069	0.246
Mof_C 	C 	0.6629	0.7716	0.9818	-0.968
Mof_H 	H 	0.6319	0.7225	0.9711	0.257
Mof_H 	H 	0.659	0.8123	0.9551	0.256
Mof_H 	H 	0.6495	0.8001	0.0088	0.271
Mof_Sn	Sn	0.74688	0.26573	0.73531	1.132
Mof_C 	C 	0.842	0.2859	0.71489	-0.912
Mof_H 	H 	0.88	0.2941	0.7438	0.229
Mof_H 	H 	0.838	0.3372	0.6945	0.23
Mof_H 	H 	0.8523	0.2359	0.6969	0.233
Mof_C 	C 	0.6554	0.3286	0.69592	-0.905
Mof_H 	H 	0.6502	0.3838	0.7112	0.226
Mof_H 	H 	0.6145	0.2926	0.6956	0.232
Mof_H 	H 	0.6593	0.3384	0.6628	0.23
Mof_C 	C 	0.7381	0.1793	0.79092	-0.929
Mof_H 	H 	0.707	0.1318	0.7772	0.244
Mof_H 	H 	0.7189	0.2096	0.8149	0.254
Mof_H 	H 	0.7845	0.1565	0.8064	0.241
Mof_Sn	Sn	0.7738	0.67135	0.23564	1.149
Mof_C 	C 	0.77	0.7559	0.29316	-0.935
Mof_H 	H 	0.7921	0.7284	0.3239	0.257
Mof_H 	H 	0.7212	0.7694	0.2925	0.247
Mof_H 	H 	0.7951	0.809	0.2897	0.242
Mof_C 	C 	0.8697	0.6427	0.21844	-0.937
Mof_H 	H 	0.8966	0.6029	0.2424	0.245
Mof_H 	H 	0.8965	0.6958	0.2184	0.238
Mof_H 	H 	0.8607	0.6161	0.1865	0.241
Mof_C 	C 	0.6819	0.6153	0.19301	-0.917
Mof_H 	H 	0.6408	0.6412	0.2012	0.229
Mof_H 	H 	0.6822	0.5534	0.1992	0.234
Mof_H 	H 	0.6799	0.6253	0.1589	0.235
Mof_Sn	Sn	0.00666	0.99042	0.25378	1.14
Mof_C 	C 	0.0747	0.9399	0.21359	-0.919
Mof_H 	H 	0.0872	0.8807	0.2238	0.228
Mof_H 	H 	0.0513	0.9405	0.1793	0.239
Mof_H 	H 	0.1172	0.975	0.2191	0.232
Mof_C 	C 	0.9927	0.1247	0.25614	-0.928
Mof_H 	H 	0.9695	0.1388	0.2819	0.235
Mof_H 	H 	0.0384	0.1532	0.2624	0.241
Mof_H 	H 	0.9638	0.1444	0.2252	0.243
Mof_C 	C 	0.9548	0.906	0.2917	-0.92
Mof_H 	H 	0.916	0.8778	0.269	0.234
Mof_H 	H 	0.9878	0.8626	0.3084	0.235
Mof_H 	H 	0.9365	0.9387	0.3153	0.233
Mof_Fe	Fe	0.75887	0.9603	0.13006	0.668
Mof_C 	C 	0.78479	0.89653	0.07943	-0.126
Mof_N 	N 	0.79504	0.85325	0.04927	-0.188
Mof_C 	C 	0.75737	0.8518	0.16302	-0.131
Mof_N 	N 	0.75877	0.7882	0.18335	-0.193
Mof_C 	C 	0.72978	0.0205	0.18067	-0.125
Mof_N 	N 	0.715	0.0581	0.2111	-0.192
Mof_C 	C 	0.85469	0.9741	0.16613	-0.129
Mof_N 	N 	0.91115	0.9815	0.18887	-0.194
Mof_C 	C 	0.76473	0.071	0.10004	-0.129
Mof_N 	N 	0.76789	0.13751	0.08367	-0.1
Mof_C 	C 	0.6631	0.9448	0.09359	-0.134
Mof_N 	N 	0.60778	0.9345	0.07007	-0.103
Mof_Fe	Fe	0.75606	0.4882	0.8752	0.669
Mof_C 	C 	0.74289	0.55865	0.92754	-0.121
Mof_N 	N 	0.73849	0.60388	0.95828	-0.188
Mof_C 	C 	0.76819	0.4181	0.82242	-0.124
Mof_N 	N 	0.77044	0.3751	0.79058	-0.195
Mof_C 	C 	0.77015	0.5912	0.84098	-0.129
Mof_N 	N 	0.77615	0.652	0.81977	-0.189
Mof_C 	C 	0.65849	0.4944	0.84153	-0.128
Mof_N 	N 	0.6019	0.4991	0.81902	-0.192
Mof_C 	C 	0.85475	0.48904	0.90715	-0.132
Mof_N 	N 	0.91269	0.4936	0.92724	-0.102
Mof_C 	C 	0.73833	0.38336	0.90685	-0.131
Mof_N 	N 	0.7276	0.32	0.92411	-0.099
Mof_Sn	Sn	0.73289	0.22816	0.4959	1.187
Mof_C 	C 	0.6609	0.2577	0.53779	-0.958
Mof_H 	H 	0.6291	0.209	0.5372	0.263
Mof_H 	H 	0.6338	0.3086	0.5245	0.254
Mof_H 	H 	0.6863	0.2691	0.5711	0.249
Mof_C 	C 	0.7007	0.156	0.43184	-0.954
Mof_H 	H 	0.6966	0.194	0.404	0.252
Mof_H 	H 	0.6553	0.1293	0.4308	0.252
Mof_H 	H 	0.7354	0.1112	0.431	0.247
Mof_C 	C 	0.8371	0.2716	0.5182	-0.972
Mof_H 	H 	0.8681	0.2225	0.5289	0.258
Mof_H 	H 	0.841	0.3123	0.5449	0.257
Mof_H 	H 	0.8505	0.3001	0.4912	0.273
Mof_Sn	Sn	0.75312	0.76573	0.76469	1.133
Mof_C 	C 	0.658	0.7859	0.78511	-0.913
Mof_H 	H 	0.62	0.7941	0.7562	0.23
Mof_H 	H 	0.662	0.8372	0.8055	0.231
Mof_H 	H 	0.6477	0.7359	0.8031	0.233
Mof_C 	C 	0.8446	0.8286	0.80408	-0.906
Mof_H 	H 	0.8498	0.8838	0.7888	0.226
Mof_H 	H 	0.8855	0.7926	0.8044	0.233
Mof_H 	H 	0.8407	0.8384	0.8372	0.23
Mof_C 	C 	0.7619	0.6793	0.70908	-0.929
Mof_H 	H 	0.793	0.6318	0.7228	0.245
Mof_H 	H 	0.7811	0.7096	0.6851	0.254
Mof_H 	H 	0.7155	0.6565	0.6936	0.242
Mof_Sn	Sn	0.7262	0.17135	0.26436	1.149
Mof_C 	C 	0.73	0.2559	0.20684	-0.935
Mof_H 	H 	0.7079	0.2284	0.1761	0.257
Mof_H 	H 	0.7788	0.2694	0.2075	0.248
Mof_H 	H 	0.7049	0.309	0.2103	0.242
Mof_C 	C 	0.6303	0.1427	0.28156	-0.937
Mof_H 	H 	0.6034	0.1029	0.2576	0.245
Mof_H 	H 	0.6035	0.1958	0.2816	0.238
Mof_H 	H 	0.6393	0.1161	0.3135	0.241
Mof_C 	C 	0.8181	0.1153	0.30699	-0.917
Mof_H 	H 	0.8592	0.1412	0.2988	0.229
Mof_H 	H 	0.8178	0.0534	0.3008	0.234
Mof_H 	H 	0.8201	0.1253	0.3411	0.235
Mof_Sn	Sn	0.49334	0.49042	0.24622	1.144
Mof_C 	C 	0.4253	0.4399	0.28641	-0.921
Mof_H 	H 	0.4128	0.3807	0.2762	0.229
Mof_H 	H 	0.4487	0.4405	0.3207	0.24
Mof_H 	H 	0.3828	0.475	0.2809	0.233
Mof_C 	C 	0.5073	0.6247	0.24386	-0.927
Mof_H 	H 	0.5305	0.6388	0.2181	0.235
Mof_H 	H 	0.4616	0.6532	0.2376	0.24
Mof_H 	H 	0.5362	0.6444	0.2748	0.242
Mof_C 	C 	0.5452	0.406	0.2083	-0.922
Mof_H 	H 	0.584	0.3778	0.231	0.234
Mof_H 	H 	0.5122	0.3626	0.1916	0.235
Mof_H 	H 	0.5635	0.4387	0.1847	0.234
Mof_Fe	Fe	0.74113	0.4603	0.36994	0.669
Mof_C 	C 	0.71521	0.39653	0.42057	-0.126
Mof_N 	N 	0.70496	0.35325	0.45073	-0.188
Mof_C 	C 	0.74263	0.3518	0.33698	-0.131
Mof_N 	N 	0.74123	0.2882	0.31665	-0.193
Mof_C 	C 	0.77022	0.5205	0.31933	-0.126
Mof_N 	N 	0.785	0.5581	0.2889	-0.192
Mof_C 	C 	0.64531	0.4741	0.33387	-0.129
Mof_N 	N 	0.58885	0.4815	0.31113	-0.194
Mof_C 	C 	0.73527	0.571	0.39996	-0.13
Mof_N 	N 	0.73211	0.63751	0.41633	-0.1
Mof_C 	C 	0.8369	0.4448	0.40641	-0.134
Mof_N 	N 	0.89222	0.4345	0.42993	-0.103
Mof_Fe	Fe	0.74394	0.9882	0.6248	0.671
Mof_C 	C 	0.75711	0.05865	0.57246	-0.122
Mof_N 	N 	0.76151	0.10388	0.54172	-0.188
Mof_C 	C 	0.73181	0.9181	0.67758	-0.124
Mof_N 	N 	0.72956	0.8751	0.70942	-0.194
Mof_C 	C 	0.72985	0.0912	0.65902	-0.13
Mof_N 	N 	0.72385	0.152	0.68023	-0.189
Mof_C 	C 	0.84151	0.9944	0.65847	-0.127
Mof_N 	N 	0.8981	0.9991	0.68098	-0.191
Mof_C 	C 	0.64525	0.98904	0.59285	-0.131
Mof_N 	N 	0.58731	0.9936	0.57276	-0.102
Mof_C 	C 	0.76167	0.88336	0.59315	-0.131
Mof_N 	N 	0.7724	0.82	0.57589	-0.099
Mof_Sn	Sn	0.23289	0.27184	0.9959	1.184
Mof_C 	C 	0.1609	0.2423	0.03779	-0.956
Mof_H 	H 	0.1291	0.291	0.0372	0.263
Mof_H 	H 	0.1338	0.1914	0.0245	0.254
Mof_H 	H 	0.1863	0.2309	0.0711	0.249
Mof_C 	C 	0.2007	0.344	0.93184	-0.953
Mof_H 	H 	0.1966	0.306	0.904	0.252
Mof_H 	H 	0.1553	0.3707	0.9308	0.252
Mof_H 	H 	0.2354	0.3888	0.931	0.246
Mof_C 	C 	0.3371	0.2284	0.0182	-0.968
Mof_H 	H 	0.3681	0.2775	0.0289	0.257
Mof_H 	H 	0.341	0.1877	0.0449	0.256
Mof_H 	H 	0.3505	0.1999	0.9912	0.271
Mof_Sn	Sn	0.25312	0.73427	0.26469	1.132
Mof_C 	C 	0.158	0.7141	0.28511	-0.912
Mof_H 	H 	0.12	0.7059	0.2562	0.229
Mof_H 	H 	0.162	0.6628	0.3055	0.23
Mof_H 	H 	0.1477	0.7641	0.3031	0.233
Mof_C 	C 	0.3446	0.6714	0.30408	-0.905
Mof_H 	H 	0.3498	0.6162	0.2888	0.226
Mof_H 	H 	0.3855	0.7074	0.3044	0.232
Mof_H 	H 	0.3407	0.6616	0.3372	0.23
Mof_C 	C 	0.2619	0.8207	0.20908	-0.929
Mof_H 	H 	0.293	0.8682	0.2228	0.244
Mof_H 	H 	0.2811	0.7904	0.1851	0.254
Mof_H 	H 	0.2155	0.8435	0.1936	0.241
Mof_Sn	Sn	0.2262	0.32865	0.76436	1.149
Mof_C 	C 	0.23	0.2441	0.70684	-0.935
Mof_H 	H 	0.2079	0.2716	0.6761	0.257
Mof_H 	H 	0.2788	0.2306	0.7075	0.247
Mof_H 	H 	0.2049	0.191	0.7103	0.242
Mof_C 	C 	0.1303	0.3573	0.78156	-0.937
Mof_H 	H 	0.1034	0.3971	0.7576	0.245
Mof_H 	H 	0.1035	0.3042	0.7816	0.238
Mof_H 	H 	0.1393	0.3839	0.8135	0.241
Mof_C 	C 	0.3181	0.3847	0.80699	-0.917
Mof_H 	H 	0.3592	0.3588	0.7988	0.229
Mof_H 	H 	0.3178	0.4466	0.8008	0.234
Mof_H 	H 	0.3201	0.3747	0.8411	0.235
Mof_Sn	Sn	0.99334	0.00958	0.74622	1.14
Mof_C 	C 	0.9253	0.0601	0.78641	-0.919
Mof_H 	H 	0.9128	0.1193	0.7762	0.228
Mof_H 	H 	0.9487	0.0595	0.8207	0.239
Mof_H 	H 	0.8828	0.025	0.7809	0.232
Mof_C 	C 	0.0073	0.8753	0.74386	-0.928
Mof_H 	H 	0.0305	0.8612	0.7181	0.235
Mof_H 	H 	0.9616	0.8468	0.7376	0.241
Mof_H 	H 	0.0362	0.8556	0.7748	0.243
Mof_C 	C 	0.0452	0.094	0.7083	-0.92
Mof_H 	H 	0.084	0.1222	0.731	0.234
Mof_H 	H 	0.0122	0.1374	0.6916	0.235
Mof_H 	H 	0.0635	0.0613	0.6847	0.233
Mof_Fe	Fe	0.24113	0.0397	0.86994	0.668
Mof_C 	C 	0.21521	0.10347	0.92057	-0.126
Mof_N 	N 	0.20496	0.14675	0.95073	-0.188
Mof_C 	C 	0.24263	0.1482	0.83698	-0.131
Mof_N 	N 	0.24123	0.2118	0.81665	-0.193
Mof_C 	C 	0.27022	0.9795	0.81933	-0.125
Mof_N 	N 	0.285	0.9419	0.7889	-0.192
Mof_C 	C 	0.14531	0.0259	0.83387	-0.129
Mof_N 	N 	0.08885	0.0185	0.81113	-0.194
Mof_C 	C 	0.23527	0.929	0.89996	-0.129
Mof_N 	N 	0.23211	0.86249	0.91633	-0.1
Mof_C 	C 	0.3369	0.0552	0.90641	-0.134
Mof_N 	N 	0.39222	0.0655	0.92993	-0.103
Mof_Fe	Fe	0.24394	0.5118	0.1248	0.669
Mof_C 	C 	0.25711	0.44135	0.07246	-0.121
Mof_N 	N 	0.26151	0.39612	0.04172	-0.188
Mof_C 	C 	0.23181	0.5819	0.17758	-0.124
Mof_N 	N 	0.22956	0.6249	0.20942	-0.195
Mof_C 	C 	0.22985	0.4088	0.15902	-0.129
Mof_N 	N 	0.22385	0.348	0.18023	-0.189
Mof_C 	C 	0.34151	0.5056	0.15847	-0.128
Mof_N 	N 	0.3981	0.5009	0.18098	-0.192
Mof_C 	C 	0.14525	0.51096	0.09285	-0.132
Mof_N 	N 	0.08731	0.5064	0.07276	-0.102
Mof_C 	C 	0.26167	0.61664	0.09315	-0.131
Mof_N 	N 	0.2724	0.68	0.07589	-0.099
Mof_Sn	Sn	0.26711	0.77184	0.5041	1.187
Mof_C 	C 	0.3391	0.7423	0.46221	-0.958
Mof_H 	H 	0.3709	0.791	0.4628	0.263
Mof_H 	H 	0.3662	0.6914	0.4755	0.254
Mof_H 	H 	0.3137	0.7309	0.4289	0.249
Mof_C 	C 	0.2993	0.844	0.56816	-0.954
Mof_H 	H 	0.3034	0.806	0.596	0.252
Mof_H 	H 	0.3447	0.8707	0.5692	0.252
Mof_H 	H 	0.2646	0.8888	0.569	0.247
Mof_C 	C 	0.1629	0.7284	0.4818	-0.972
Mof_H 	H 	0.1319	0.7775	0.4711	0.258
Mof_H 	H 	0.159	0.6877	0.4551	0.257
Mof_H 	H 	0.1495	0.6999	0.5088	0.273
Mof_Sn	Sn	0.24688	0.23427	0.23531	1.133
Mof_C 	C 	0.342	0.2141	0.21489	-0.913
Mof_H 	H 	0.38	0.2059	0.2438	0.23
Mof_H 	H 	0.338	0.1628	0.1945	0.231
Mof_H 	H 	0.3523	0.2641	0.1969	0.233
Mof_C 	C 	0.1554	0.1714	0.19592	-0.906
Mof_H 	H 	0.1502	0.1162	0.2112	0.226
Mof_H 	H 	0.1145	0.2074	0.1956	0.233
Mof_H 	H 	0.1593	0.1616	0.1628	0.23
Mof_C 	C 	0.2381	0.3207	0.29092	-0.929
Mof_H 	H 	0.207	0.3682	0.2772	0.245
Mof_H 	H 	0.2189	0.2904	0.3149	0.254
Mof_H 	H 	0.2845	0.3435	0.3064	0.242
Mof_Sn	Sn	0.2738	0.82865	0.73564	1.149
Mof_C 	C 	0.27	0.7441	0.79316	-0.935
Mof_H 	H 	0.2921	0.7716	0.8239	0.257
Mof_H 	H 	0.2212	0.7306	0.7925	0.248
Mof_H 	H 	0.2951	0.691	0.7897	0.242
Mof_C 	C 	0.3697	0.8573	0.71844	-0.937
Mof_H 	H 	0.3966	0.8971	0.7424	0.245
Mof_H 	H 	0.3965	0.8042	0.7184	0.238
Mof_H 	H 	0.3607	0.8839	0.6865	0.241
Mof_C 	C 	0.1819	0.8847	0.69301	-0.917
Mof_H 	H 	0.1408	0.8588	0.7012	0.229
Mof_H 	H 	0.1822	0.9466	0.6992	0.234
Mof_H 	H 	0.1799	0.8747	0.6589	0.235
Mof_Sn	Sn	0.50666	0.50958	0.75378	1.144
Mof_C 	C 	0.5747	0.5601	0.71359	-0.921
Mof_H 	H 	0.5872	0.6193	0.7238	0.229
Mof_H 	H 	0.5513	0.5595	0.6793	0.24
Mof_H 	H 	0.6172	0.525	0.7191	0.233
Mof_C 	C 	0.4927	0.3753	0.75614	-0.927
Mof_H 	H 	0.4695	0.3612	0.7819	0.235
Mof_H 	H 	0.5384	0.3468	0.7624	0.24
Mof_H 	H 	0.4638	0.3556	0.7252	0.242
Mof_C 	C 	0.4548	0.594	0.7917	-0.922
Mof_H 	H 	0.416	0.6222	0.769	0.234
Mof_H 	H 	0.4878	0.6374	0.8084	0.235
Mof_H 	H 	0.4365	0.5613	0.8153	0.234
Mof_Fe	Fe	0.25887	0.5397	0.63006	0.669
Mof_C 	C 	0.28479	0.60347	0.57943	-0.126
Mof_N 	N 	0.29504	0.64675	0.54927	-0.188
Mof_C 	C 	0.25737	0.6482	0.66302	-0.131
Mof_N 	N 	0.25877	0.7118	0.68335	-0.193
Mof_C 	C 	0.22978	0.4795	0.68067	-0.126
Mof_N 	N 	0.215	0.4419	0.7111	-0.192
Mof_C 	C 	0.35469	0.5259	0.66613	-0.129
Mof_N 	N 	0.41115	0.5185	0.68887	-0.194
Mof_C 	C 	0.26473	0.429	0.60004	-0.13
Mof_N 	N 	0.26789	0.36249	0.58367	-0.1
Mof_C 	C 	0.1631	0.5552	0.59359	-0.134
Mof_N 	N 	0.10778	0.5655	0.57007	-0.103
Mof_Fe	Fe	0.25606	0.0118	0.3752	0.671
Mof_C 	C 	0.24289	0.94135	0.42754	-0.122
Mof_N 	N 	0.23849	0.89612	0.45828	-0.188
Mof_C 	C 	0.26819	0.0819	0.32242	-0.124
Mof_N 	N 	0.27044	0.1249	0.29058	-0.194
Mof_C 	C 	0.27015	0.9088	0.34098	-0.13
Mof_N 	N 	0.27615	0.848	0.31977	-0.189
Mof_C 	C 	0.15849	0.0056	0.34153	-0.127
Mof_N 	N 	0.1019	0.0009	0.31902	-0.191
Mof_C 	C 	0.35475	0.01096	0.40715	-0.131
Mof_N 	N 	0.41269	0.0064	0.42724	-0.102
Mof_C 	C 	0.23833	0.11664	0.40685	-0.131
Mof_N 	N 	0.2276	0.18	0.42411	-0.099
_end
