data_functionalizedCrystal
_audit_creation_method	'EQeq! by Chris Wilmer'
_symmetry_space_group_name_H-M	'P1'
_symmetry_Int_Tables_number	1
_symmetry_cell_setting	triclinic
loop_
_symmetry_equiv_pos_as_xyz
  x,y,z
_cell_length_a	11.104
_cell_length_b	19.8834
_cell_length_c	21.3025
_cell_angle_alpha	90
_cell_angle_beta	90
_cell_angle_gamma	90
loop_
_atom_site_label
_atom_site_type_symbol
_atom_site_fract_x
_atom_site_fract_y
_atom_site_fract_z
_atom_site_charge
Mof_Co	Co	0.30595	0.53703	0.77648	1.163
Mof_Co	Co	0.19405	0.96297	0.77648	1.176
Mof_Co	Co	0.69405	0.03703	0.72352	1.149
Mof_Co	Co	0.80595	0.46297	0.72352	1.164
Mof_Co	Co	0.69405	0.46297	0.22352	1.162
Mof_Co	Co	0.80595	0.03703	0.22352	1.149
Mof_Co	Co	0.30595	0.96297	0.27648	1.176
Mof_Co	Co	0.19405	0.53703	0.27648	1.161
Mof_Co	Co	-0	0.5	-0	1.11
Mof_Co	Co	0.5	0	-0	1.106
Mof_Co	Co	3.59652e-33	0	0.5	1.108
Mof_Co	Co	0.5	0.5	0.5	1.149
Mof_H 	H 	0.0457	0.6526	0.0291	-0.082
Mof_H 	H 	0.2081	0.4192	0.6893	0
Mof_H 	H 	0.3164	0.4146	0.8649	0.018
Mof_H 	H 	0.7562	0.5584	0.971	-0.011
Mof_H 	H 	0.3079	0.299	0.8666	0.079
Mof_H 	H 	0.3741	0.6595	0.6925	-0.005
Mof_H 	H 	0.794	0.4487	0.8851	-0.003
Mof_H 	H 	0.9467	0.7547	0.0292	0.115
Mof_H 	H 	0.1967	0.3033	0.6861	0.067
Mof_H 	H 	0.6471	0.6574	0.9692	0.101
Mof_H 	H 	0.4293	0.7714	0.6975	0.076
Mof_H 	H 	0.4306	0.7568	0.8858	0.08
Mof_H 	H 	0.3738	0.6446	0.8759	0.022
Mof_H 	H 	0.4548	0.8227	0.7953	0.021
Mof_H 	H 	0.4543	0.8474	0.0291	-0.019
Mof_H 	H 	0.2919	0.0808	0.6893	-0.01
Mof_H 	H 	0.1836	0.0854	0.8649	0.005
Mof_H 	H 	0.7438	0.9416	0.971	0.013
Mof_H 	H 	0.1921	0.201	0.8666	0.076
Mof_H 	H 	0.1259	0.8405	0.6925	-0.005
Mof_H 	H 	0.706	0.0513	0.8851	-0.003
Mof_H 	H 	0.5533	0.7453	0.0292	0.08
Mof_H 	H 	0.3033	0.1967	0.6861	0.073
Mof_H 	H 	0.8529	0.8426	0.9692	0.102
Mof_H 	H 	0.0707	0.7286	0.6975	0.067
Mof_H 	H 	0.0694	0.7432	0.8858	0.071
Mof_H 	H 	0.1262	0.8554	0.8759	0.022
Mof_H 	H 	0.0452	0.6773	0.7953	0.016
Mof_H 	H 	0.9543	0.1526	0.4709	0.055
Mof_H 	H 	0.7919	0.9192	0.8107	0.024
Mof_H 	H 	0.6836	0.9146	0.6351	0.022
Mof_H 	H 	0.2438	0.0584	0.529	-0.009
Mof_H 	H 	0.6921	0.799	0.6334	0.073
Mof_H 	H 	0.6259	0.1595	0.8075	-0.002
Mof_H 	H 	0.206	0.9487	0.6149	-0.003
Mof_H 	H 	0.0533	0.2547	0.4708	0.042
Mof_H 	H 	0.8033	0.8033	0.8139	0.081
Mof_H 	H 	0.3529	0.1574	0.5308	0.064
Mof_H 	H 	0.5707	0.2714	0.8025	0.078
Mof_H 	H 	0.5694	0.2568	0.6142	0.072
Mof_H 	H 	0.6262	0.1446	0.6241	0.015
Mof_H 	H 	0.5452	0.3227	0.7047	0.021
Mof_H 	H 	0.5457	0.3474	0.4709	-0.002
Mof_H 	H 	0.7081	0.5808	0.8107	0.006
Mof_H 	H 	0.8164	0.5854	0.6351	0.014
Mof_H 	H 	0.2562	0.4416	0.529	-0.002
Mof_H 	H 	0.8079	0.701	0.6334	0.077
Mof_H 	H 	0.8741	0.3405	0.8075	0.001
Mof_H 	H 	0.294	0.5513	0.6149	-0.013
Mof_H 	H 	0.4467	0.2453	0.4708	0.073
Mof_H 	H 	0.6967	0.6967	0.8139	0.077
Mof_H 	H 	0.1471	0.3426	0.5308	0.067
Mof_H 	H 	0.9293	0.2286	0.8025	0.087
Mof_H 	H 	0.9306	0.2432	0.6142	0.082
Mof_H 	H 	0.8738	0.3554	0.6241	0.022
Mof_H 	H 	0.9548	0.1773	0.7047	0.026
Mof_H 	H 	0.9543	0.3474	0.9709	0.073
Mof_H 	H 	0.7919	0.5808	0.3107	0.009
Mof_H 	H 	0.6836	0.5854	0.1351	0.006
Mof_H 	H 	0.2438	0.4416	0.029	0.02
Mof_H 	H 	0.6921	0.701	0.1334	0.068
Mof_H 	H 	0.6259	0.3405	0.3075	-0.002
Mof_H 	H 	0.206	0.5513	0.1149	-0.013
Mof_H 	H 	0.0533	0.2453	0.9708	0.029
Mof_H 	H 	0.8033	0.6967	0.3139	0.081
Mof_H 	H 	0.3529	0.3426	0.0308	0.044
Mof_H 	H 	0.5707	0.2286	0.3025	0.075
Mof_H 	H 	0.5694	0.2432	0.1142	0.064
Mof_H 	H 	0.6262	0.3554	0.1241	0.015
Mof_H 	H 	0.5452	0.1773	0.2047	0.021
Mof_H 	H 	0.5457	0.1526	0.9709	0.017
Mof_H 	H 	0.7081	0.9192	0.3107	0.02
Mof_H 	H 	0.8164	0.9146	0.1351	0.02
Mof_H 	H 	0.2562	0.0584	0.029	-0.004
Mof_H 	H 	0.8079	0.799	0.1334	0.071
Mof_H 	H 	0.8741	0.1595	0.3075	-0.001
Mof_H 	H 	0.294	0.9487	0.1149	-0.013
Mof_H 	H 	0.4467	0.2547	0.9708	0.061
Mof_H 	H 	0.6967	0.8033	0.3139	0.076
Mof_H 	H 	0.1471	0.1574	0.0308	0.041
Mof_H 	H 	0.9293	0.2714	0.3025	0.085
Mof_H 	H 	0.9306	0.2568	0.1142	0.074
Mof_H 	H 	0.8738	0.1446	0.1241	0.015
Mof_H 	H 	0.9548	0.3227	0.2047	0.026
Mof_H 	H 	0.0457	0.8474	0.5291	-0.059
Mof_H 	H 	0.2081	0.0808	0.1893	-0.016
Mof_H 	H 	0.3164	0.0854	0.3649	0.002
Mof_H 	H 	0.7562	0.9416	0.471	0.017
Mof_H 	H 	0.3079	0.201	0.3666	0.073
Mof_H 	H 	0.3741	0.8405	0.1925	-0.004
Mof_H 	H 	0.794	0.0513	0.3851	-0.013
Mof_H 	H 	0.9467	0.7453	0.5292	0.1
Mof_H 	H 	0.1967	0.1967	0.1861	0.066
Mof_H 	H 	0.6471	0.8426	0.4692	0.081
Mof_H 	H 	0.4293	0.7286	0.1975	0.073
Mof_H 	H 	0.4306	0.7432	0.3858	0.072
Mof_H 	H 	0.3738	0.8554	0.3759	0.022
Mof_H 	H 	0.4548	0.6773	0.2953	0.021
Mof_H 	H 	0.4543	0.6526	0.5291	-0.003
Mof_H 	H 	0.2919	0.4192	0.1893	0.003
Mof_H 	H 	0.1836	0.4146	0.3649	0.009
Mof_H 	H 	0.7438	0.5584	0.471	0.007
Mof_H 	H 	0.1921	0.299	0.3666	0.069
Mof_H 	H 	0.1259	0.6595	0.1925	-0.008
Mof_H 	H 	0.706	0.4487	0.3851	-0.004
Mof_H 	H 	0.5533	0.7547	0.5292	0.07
Mof_H 	H 	0.3033	0.3033	0.1861	0.071
Mof_H 	H 	0.8529	0.6574	0.4692	0.079
Mof_H 	H 	0.0707	0.7714	0.1975	0.064
Mof_H 	H 	0.0694	0.7568	0.3858	0.062
Mof_H 	H 	0.1262	0.6446	0.3759	0.015
Mof_H 	H 	0.0452	0.8227	0.2953	0.015
Mof_C 	C 	0.1566	0.53563	0.89693	0.331
Mof_C 	C 	0.2529	0.28742	0.77577	0.048
Mof_C 	C 	0.9634	0.65397	0.01683	0.206
Mof_C 	C 	0.2288	0.39433	0.72589	0.068
Mof_C 	C 	0.0439	0.51164	0.86722	-0.088
Mof_C 	C 	0.2917	0.39151	0.828	0.069
Mof_C 	C 	0.7948	0.59901	0.983	0.155
Mof_C 	C 	0.2874	0.32258	0.82936	-0.121
Mof_C 	C 	0.7834	0.71808	0.9998	0.132
Mof_C 	C 	0.3844	0.67971	0.73255	0.073
Mof_C 	C 	0.867	0.46744	0.86976	0.12
Mof_C 	C 	0.905	0.715	0.01723	-0.26
Mof_C 	C 	0.2222	0.32511	0.72346	-0.125
Mof_C 	C 	0.7291	0.65791	0.98197	-0.179
Mof_C 	C 	0.4176	0.7465	0.7351	-0.122
Mof_C 	C 	0.4182	0.7379	0.8454	-0.12
Mof_C 	C 	0.3843	0.6708	0.83901	0.069
Mof_C 	C 	0.4337	0.7765	0.7923	0.049
Mof_C 	C 	0.0026	0.50433	0.80588	-0.064
Mof_C 	C 	0.0455	0.52153	0.74189	0.256
Mof_C 	C 	0.3434	0.96437	0.89693	0.321
Mof_C 	C 	0.2471	0.21258	0.77577	0.05
Mof_C 	C 	0.5366	0.84603	0.01683	0.099
Mof_C 	C 	0.2712	0.10567	0.72589	0.067
Mof_C 	C 	0.4561	0.98836	0.86722	-0.023
Mof_C 	C 	0.2083	0.10849	0.828	0.067
Mof_C 	C 	0.7052	0.90099	0.983	0.139
Mof_C 	C 	0.2126	0.17742	0.82936	-0.128
Mof_C 	C 	0.7166	0.78192	0.9998	0.093
Mof_C 	C 	0.1156	0.82029	0.73255	0.067
Mof_C 	C 	0.633	0.03256	0.86976	0.102
Mof_C 	C 	0.595	0.785	0.01723	-0.2
Mof_C 	C 	0.2778	0.17489	0.72346	-0.128
Mof_C 	C 	0.7709	0.84209	0.98197	-0.151
Mof_C 	C 	0.0824	0.7535	0.7351	-0.122
Mof_C 	C 	0.0818	0.7621	0.8454	-0.12
Mof_C 	C 	0.1157	0.8292	0.83901	0.063
Mof_C 	C 	0.0663	0.7235	0.7923	0.039
Mof_C 	C 	0.4974	0.99567	0.80588	-0.012
Mof_C 	C 	0.4545	0.97847	0.74189	0.3
Mof_C 	C 	0.8434	0.03563	0.60307	0.324
Mof_C 	C 	0.7471	0.78742	0.72423	0.054
Mof_C 	C 	0.0366	0.15397	0.48317	-0.024
Mof_C 	C 	0.7712	0.89433	0.77411	0.076
Mof_C 	C 	0.9561	0.01164	0.63278	-0.065
Mof_C 	C 	0.7083	0.89151	0.672	0.073
Mof_C 	C 	0.2052	0.09901	0.517	0.054
Mof_C 	C 	0.7126	0.82258	0.67064	-0.117
Mof_C 	C 	0.2166	0.21808	0.5002	0.02
Mof_C 	C 	0.6156	0.17971	0.76745	0.072
Mof_C 	C 	0.133	0.96744	0.63024	0.119
Mof_C 	C 	0.095	0.215	0.48277	-0.08
Mof_C 	C 	0.7778	0.82511	0.77654	-0.116
Mof_C 	C 	0.2709	0.15791	0.51803	-0.108
Mof_C 	C 	0.5824	0.2465	0.7649	-0.121
Mof_C 	C 	0.5818	0.2379	0.6546	-0.119
Mof_C 	C 	0.6157	0.1708	0.66099	0.067
Mof_C 	C 	0.5663	0.2765	0.7077	0.046
Mof_C 	C 	0.9974	0.00433	0.69412	-0.067
Mof_C 	C 	0.9545	0.02153	0.75811	0.353
Mof_C 	C 	0.6566	0.46437	0.60307	0.327
Mof_C 	C 	0.7529	0.71258	0.72423	0.057
Mof_C 	C 	0.4634	0.34603	0.48317	0.078
Mof_C 	C 	0.7288	0.60567	0.77411	0.077
Mof_C 	C 	0.5439	0.48836	0.63278	-0.063
Mof_C 	C 	0.7917	0.60849	0.672	0.075
Mof_C 	C 	0.2948	0.40099	0.517	0.071
Mof_C 	C 	0.7874	0.67742	0.67064	-0.119
Mof_C 	C 	0.2834	0.28192	0.5002	0.055
Mof_C 	C 	0.8844	0.32029	0.76745	0.08
Mof_C 	C 	0.367	0.53256	0.63024	0.114
Mof_C 	C 	0.405	0.285	0.48277	-0.133
Mof_C 	C 	0.7222	0.67489	0.77654	-0.121
Mof_C 	C 	0.2291	0.34209	0.51803	-0.128
Mof_C 	C 	0.9176	0.2535	0.7649	-0.119
Mof_C 	C 	0.9182	0.2621	0.6546	-0.117
Mof_C 	C 	0.8843	0.3292	0.66099	0.074
Mof_C 	C 	0.9337	0.2235	0.7077	0.055
Mof_C 	C 	0.5026	0.49567	0.69412	-0.047
Mof_C 	C 	0.5455	0.47847	0.75811	0.303
Mof_C 	C 	0.8434	0.46437	0.10307	0.322
Mof_C 	C 	0.7471	0.71258	0.22423	0.056
Mof_C 	C 	0.0366	0.34603	0.98317	-0.048
Mof_C 	C 	0.7712	0.60567	0.27411	0.075
Mof_C 	C 	0.9561	0.48836	0.13278	-0.032
Mof_C 	C 	0.7083	0.60849	0.172	0.073
Mof_C 	C 	0.2052	0.40099	0.017	-0.023
Mof_C 	C 	0.7126	0.67742	0.17064	-0.121
Mof_C 	C 	0.2166	0.28192	0.0002	-0.044
Mof_C 	C 	0.6156	0.32029	0.26745	0.071
Mof_C 	C 	0.133	0.53256	0.13024	0.107
Mof_C 	C 	0.095	0.285	0.98277	0.008
Mof_C 	C 	0.7778	0.67489	0.27654	-0.12
Mof_C 	C 	0.2709	0.34209	0.01803	-0.063
Mof_C 	C 	0.5824	0.2535	0.2649	-0.118
Mof_C 	C 	0.5818	0.2621	0.1546	-0.116
Mof_C 	C 	0.6157	0.3292	0.16099	0.065
Mof_C 	C 	0.5663	0.2235	0.2077	0.043
Mof_C 	C 	0.9974	0.49567	0.19412	-0.03
Mof_C 	C 	0.9545	0.47847	0.25811	0.352
Mof_C 	C 	0.6566	0.03563	0.10307	0.332
Mof_C 	C 	0.7529	0.78742	0.22423	0.054
Mof_C 	C 	0.4634	0.15397	0.98317	0.049
Mof_C 	C 	0.7288	0.89433	0.27411	0.077
Mof_C 	C 	0.5439	0.01164	0.13278	-0.102
Mof_C 	C 	0.7917	0.89151	0.172	0.075
Mof_C 	C 	0.2948	0.09901	0.017	-0.009
Mof_C 	C 	0.7874	0.82258	0.17064	-0.115
Mof_C 	C 	0.2834	0.21808	0.0002	-0.007
Mof_C 	C 	0.8844	0.17971	0.26745	0.078
Mof_C 	C 	0.367	0.96744	0.13024	0.125
Mof_C 	C 	0.405	0.215	0.98277	-0.047
Mof_C 	C 	0.7222	0.82511	0.27654	-0.117
Mof_C 	C 	0.2291	0.15791	0.01803	-0.09
Mof_C 	C 	0.9176	0.2465	0.2649	-0.118
Mof_C 	C 	0.9182	0.2379	0.1546	-0.116
Mof_C 	C 	0.8843	0.1708	0.16099	0.071
Mof_C 	C 	0.9337	0.2765	0.2077	0.053
Mof_C 	C 	0.5026	0.00433	0.19412	-0.084
Mof_C 	C 	0.5455	0.02153	0.25811	0.307
Mof_C 	C 	0.1566	0.96437	0.39693	0.329
Mof_C 	C 	0.2529	0.21258	0.27577	0.049
Mof_C 	C 	0.9634	0.84603	0.51683	0.175
Mof_C 	C 	0.2288	0.10567	0.22589	0.067
Mof_C 	C 	0.0439	0.98836	0.36722	-0.058
Mof_C 	C 	0.2917	0.10849	0.328	0.068
Mof_C 	C 	0.7948	0.90099	0.483	0.085
Mof_C 	C 	0.2874	0.17742	0.32936	-0.126
Mof_C 	C 	0.7834	0.78192	0.4998	0.072
Mof_C 	C 	0.3844	0.82029	0.23255	0.073
Mof_C 	C 	0.867	0.03256	0.36976	0.108
Mof_C 	C 	0.905	0.785	0.51723	-0.176
Mof_C 	C 	0.2222	0.17489	0.22346	-0.129
Mof_C 	C 	0.7291	0.84209	0.48197	-0.136
Mof_C 	C 	0.4176	0.7535	0.2351	-0.12
Mof_C 	C 	0.4182	0.7621	0.3454	-0.117
Mof_C 	C 	0.3843	0.8292	0.33901	0.068
Mof_C 	C 	0.4337	0.7235	0.2923	0.045
Mof_C 	C 	0.0026	0.99567	0.30588	-0.026
Mof_C 	C 	0.0455	0.97847	0.24189	0.25
Mof_C 	C 	0.3434	0.53563	0.39693	0.328
Mof_C 	C 	0.2471	0.28742	0.27577	0.046
Mof_C 	C 	0.5366	0.65397	0.51683	0.074
Mof_C 	C 	0.2712	0.39433	0.22589	0.066
Mof_C 	C 	0.4561	0.51164	0.36722	-0.063
Mof_C 	C 	0.2083	0.39151	0.328	0.066
Mof_C 	C 	0.7052	0.59901	0.483	0.068
Mof_C 	C 	0.2126	0.32258	0.32936	-0.124
Mof_C 	C 	0.7166	0.71808	0.4998	0.038
Mof_C 	C 	0.1156	0.67971	0.23255	0.064
Mof_C 	C 	0.633	0.46744	0.36976	0.114
Mof_C 	C 	0.595	0.715	0.51723	-0.124
Mof_C 	C 	0.2778	0.32511	0.22346	-0.124
Mof_C 	C 	0.7709	0.65791	0.48197	-0.117
Mof_C 	C 	0.0824	0.7465	0.2351	-0.121
Mof_C 	C 	0.0818	0.7379	0.3454	-0.119
Mof_C 	C 	0.1157	0.6708	0.33901	0.06
Mof_C 	C 	0.0663	0.7765	0.2923	0.036
Mof_C 	C 	0.4974	0.50433	0.30588	-0.047
Mof_C 	C 	0.4545	0.52153	0.24189	0.304
Mof_N 	N 	0.9566	0.48807	0.90718	-0.193
Mof_N 	N 	0.366	0.6418	0.78361	-0.22
Mof_N 	N 	0.2626	0.42814	0.77705	-0.217
Mof_N 	N 	0.9104	0.59674	9e-05	-0.278
Mof_N 	N 	0.8902	0.47586	0.80881	-0.21
Mof_N 	N 	0.5434	0.01193	0.90718	-0.248
Mof_N 	N 	0.134	0.8582	0.78361	-0.218
Mof_N 	N 	0.2374	0.07186	0.77705	-0.233
Mof_N 	N 	0.5896	0.90326	9e-05	-0.256
Mof_N 	N 	0.6098	0.02414	0.80881	-0.254
Mof_N 	N 	0.0434	0.98807	0.59282	-0.217
Mof_N 	N 	0.634	0.1418	0.71639	-0.222
Mof_N 	N 	0.7374	0.92814	0.72295	-0.202
Mof_N 	N 	0.0896	0.09674	0.49991	-0.224
Mof_N 	N 	0.1098	0.97586	0.69119	-0.214
Mof_N 	N 	0.4566	0.51193	0.59282	-0.229
Mof_N 	N 	0.866	0.3582	0.71639	-0.218
Mof_N 	N 	0.7626	0.57186	0.72295	-0.216
Mof_N 	N 	0.4104	0.40326	0.49991	-0.231
Mof_N 	N 	0.3902	0.52414	0.69119	-0.227
Mof_N 	N 	0.0434	0.51193	0.09282	-0.256
Mof_N 	N 	0.634	0.3582	0.21639	-0.219
Mof_N 	N 	0.7374	0.57186	0.22295	-0.218
Mof_N 	N 	0.0896	0.40326	0.99991	-0.17
Mof_N 	N 	0.1098	0.52414	0.19119	-0.244
Mof_N 	N 	0.4566	0.98807	0.09282	-0.196
Mof_N 	N 	0.866	0.1418	0.21639	-0.221
Mof_N 	N 	0.7626	0.92814	0.22295	-0.201
Mof_N 	N 	0.4104	0.09674	0.99991	-0.188
Mof_N 	N 	0.3902	0.97586	0.19119	-0.197
Mof_N 	N 	0.9566	0.01193	0.40718	-0.23
Mof_N 	N 	0.366	0.8582	0.28361	-0.217
Mof_N 	N 	0.2626	0.07186	0.27705	-0.233
Mof_N 	N 	0.9104	0.90326	0.50009	-0.226
Mof_N 	N 	0.8902	0.02414	0.30881	-0.239
Mof_N 	N 	0.5434	0.48807	0.40718	-0.228
Mof_N 	N 	0.134	0.6418	0.28361	-0.221
Mof_N 	N 	0.2374	0.42814	0.27705	-0.219
Mof_N 	N 	0.5896	0.59674	0.50009	-0.229
Mof_N 	N 	0.6098	0.47586	0.30881	-0.226
Mof_O 	O 	0.15285	0.54239	0.95638	-0.373
Mof_O 	O 	0.14093	0.55584	0.73381	-0.392
Mof_O 	O 	0.25072	0.54682	0.86648	-0.408
Mof_O 	O 	0.98089	0.50098	0.69721	-0.327
Mof_O 	O 	0.34715	0.95761	0.95638	-0.347
Mof_O 	O 	0.35907	0.94416	0.73381	-0.39
Mof_O 	O 	0.24928	0.95318	0.86648	-0.394
Mof_O 	O 	0.51911	0.99902	0.69721	-0.341
Mof_O 	O 	0.84715	0.04239	0.54362	-0.394
Mof_O 	O 	0.85907	0.05584	0.76619	-0.409
Mof_O 	O 	0.74928	0.04682	0.63352	-0.424
Mof_O 	O 	0.01911	0.00098	0.80279	-0.437
Mof_O 	O 	0.65285	0.45761	0.54362	-0.389
Mof_O 	O 	0.64093	0.44416	0.76619	-0.396
Mof_O 	O 	0.75072	0.45318	0.63352	-0.409
Mof_O 	O 	0.48089	0.49902	0.80279	-0.367
Mof_O 	O 	0.84715	0.45761	0.04362	-0.397
Mof_O 	O 	0.85907	0.44416	0.26619	-0.403
Mof_O 	O 	0.74928	0.45318	0.13352	-0.414
Mof_O 	O 	0.01911	0.49902	0.30279	-0.415
Mof_O 	O 	0.65285	0.04239	0.04362	-0.424
Mof_O 	O 	0.64093	0.05584	0.26619	-0.405
Mof_O 	O 	0.75072	0.04682	0.13352	-0.429
Mof_O 	O 	0.48089	0.00098	0.30279	-0.4
Mof_O 	O 	0.15285	0.95761	0.45638	-0.377
Mof_O 	O 	0.14093	0.94416	0.23381	-0.385
Mof_O 	O 	0.25072	0.95318	0.36648	-0.398
Mof_O 	O 	0.98089	0.99902	0.19721	-0.298
Mof_O 	O 	0.34715	0.54239	0.45638	-0.395
Mof_O 	O 	0.35907	0.55584	0.23381	-0.399
Mof_O 	O 	0.24928	0.54682	0.36648	-0.414
Mof_O 	O 	0.51911	0.50098	0.19721	-0.373
_end
