data_functionalizedCrystal
_audit_creation_method	'EQeq! by Chris Wilmer'
_symmetry_space_group_name_H-M	'P1'
_symmetry_Int_Tables_number	1
_symmetry_cell_setting	triclinic
loop_
_symmetry_equiv_pos_as_xyz
  x,y,z
_cell_length_a	15.923
_cell_length_b	26.37
_cell_length_c	20.627
_cell_angle_alpha	90
_cell_angle_beta	91.005
_cell_angle_gamma	90
loop_
_atom_site_label
_atom_site_type_symbol
_atom_site_fract_x
_atom_site_fract_y
_atom_site_fract_z
_atom_site_charge
Mof_S 	S 	0.23739	0.01639	0.69862	0.006
Mof_C 	C 	0.1479	0.0415	0.6566	-0.057
Mof_C 	C 	0.0805	0.011	0.6356	0.132
Mof_C 	C 	0.0133	0.0327	0.6019	-0.052
Mof_C 	C 	0.0161	0.084	0.5838	0.049
Mof_H 	H 	0.9705	0.0981	0.5596	0.007
Mof_C 	C 	0.0855	0.1151	0.6007	-0.206
Mof_C 	C 	0.1494	0.0925	0.6393	0.046
Mof_H 	H 	0.1951	0.1129	0.6539	-0.003
Mof_O 	O 	0.0814	0.95906	0.6467	-0.194
Mof_C 	C 	0.1313	0.934	0.5973	-0.017
Mof_H 	H 	0.191	0.9442	0.602	0.037
Mof_H 	H 	0.111	0.9441	0.5535	0.037
Mof_C 	C 	0.1235	0.8775	0.6051	0.003
Mof_C 	C 	0.1749	0.8478	0.5676	-0.011
Mof_H 	H 	0.2143	0.8645	0.5409	0.024
Mof_N 	N 	0.1726	0.7964	0.5665	-0.166
Mof_C 	C 	0.1194	0.774	0.606	0.034
Mof_H 	H 	0.1176	0.738	0.6064	0.006
Mof_C 	C 	0.0671	0.7997	0.6462	-0.094
Mof_H 	H 	0.0303	0.7818	0.6739	0.032
Mof_C 	C 	0.0688	0.8528	0.6459	-0.057
Mof_H 	H 	0.0329	0.8716	0.6733	0.056
Mof_C 	C 	0.092	0.1702	0.5783	0.579
Mof_C 	C 	0.1741	0.1769	0.5414	-0.828
Mof_H 	H 	0.2212	0.1645	0.5682	0.247
Mof_H 	H 	0.1825	0.2129	0.5316	0.235
Mof_H 	H 	0.171	0.1575	0.5009	0.243
Mof_C 	C 	0.0954	0.2057	0.6379	-0.838
Mof_H 	H 	0.0474	0.1987	0.6656	0.265
Mof_H 	H 	0.0935	0.241	0.6234	0.246
Mof_H 	H 	0.1477	0.1997	0.6625	0.25
Mof_C 	C 	0.0177	0.1863	0.5352	-0.886
Mof_H 	H 	0.0153	0.1649	0.4964	0.277
Mof_H 	H 	0.0247	0.2218	0.5223	0.271
Mof_H 	H 	0.9655	0.1826	0.5591	0.287
Mof_S 	S 	0.92828	0.99489	0.56965	0.014
Mof_C 	C 	0.8778	0.9696	0.639	-0.066
Mof_C 	C 	0.8499	0.9997	0.688	0.139
Mof_C 	C 	0.8036	0.9783	0.7383	-0.065
Mof_C 	C 	0.7844	0.9266	0.7362	0.075
Mof_H 	H 	0.7547	0.9121	0.7712	-0.003
Mof_C 	C 	0.8066	0.8962	0.6861	-0.232
Mof_C 	C 	0.8559	0.9182	0.6372	0.062
Mof_H 	H 	0.8745	0.8977	0.6024	-0.014
Mof_O 	O 	0.8643	0.052	0.6872	-0.192
Mof_C 	C 	0.7926	0.0776	0.6556	-0.019
Mof_H 	H 	0.7414	0.0731	0.6816	0.037
Mof_H 	H 	0.782	0.0631	0.612	0.036
Mof_C 	C 	0.8135	0.133	0.6503	0.007
Mof_C 	C 	0.7811	0.1605	0.5982	-0.009
Mof_H 	H 	0.7478	0.1431	0.5666	0.025
Mof_N 	N 	0.7944	0.2107	0.59	-0.163
Mof_C 	C 	0.8401	0.2354	0.6362	0.022
Mof_H 	H 	0.8492	0.2708	0.6315	0.007
Mof_C 	C 	0.874	0.211	0.6898	-0.09
Mof_H 	H 	0.9055	0.2295	0.7214	0.026
Mof_C 	C 	0.8617	0.1593	0.6969	-0.052
Mof_H 	H 	0.8856	0.1418	0.733	0.051
Mof_C 	C 	0.7765	0.8414	0.6785	0.615
Mof_C 	C 	0.7345	0.822	0.7395	-0.897
Mof_H 	H 	0.7208	0.786	0.7342	0.271
Mof_H 	H 	0.6828	0.8413	0.7467	0.273
Mof_H 	H 	0.7728	0.8263	0.7768	0.287
Mof_C 	C 	0.8465	0.8053	0.6629	-0.902
Mof_H 	H 	0.8877	0.8049	0.6987	0.28
Mof_H 	H 	0.8739	0.8163	0.6231	0.27
Mof_H 	H 	0.8235	0.7711	0.6566	0.262
Mof_C 	C 	0.7099	0.8408	0.6226	-0.841
Mof_H 	H 	0.7343	0.8551	0.5833	0.251
Mof_H 	H 	0.6612	0.8612	0.635	0.259
Mof_H 	H 	0.692	0.8058	0.6142	0.242
Mof_N 	N 	0.6516	0.1963	0.4894	-0.196
Mof_C 	C 	0.5863	0.178	0.4758	0.08
Mof_S 	S 	0.4969	0.15439	0.4566	-0.126
Mof_S 	S 	0.73739	0.51639	0.69862	0.006
Mof_C 	C 	0.6479	0.5415	0.6566	-0.056
Mof_C 	C 	0.5805	0.511	0.6356	0.133
Mof_C 	C 	0.5133	0.5327	0.6019	-0.052
Mof_C 	C 	0.5161	0.584	0.5838	0.049
Mof_H 	H 	0.4705	0.5981	0.5596	0.009
Mof_C 	C 	0.5855	0.6151	0.6007	-0.205
Mof_C 	C 	0.6494	0.5925	0.6393	0.047
Mof_H 	H 	0.6951	0.6129	0.6539	-0.003
Mof_O 	O 	0.5814	0.45906	0.6467	-0.193
Mof_C 	C 	0.6313	0.434	0.5973	-0.017
Mof_H 	H 	0.691	0.4442	0.602	0.037
Mof_H 	H 	0.611	0.4441	0.5535	0.037
Mof_C 	C 	0.6235	0.3775	0.6051	0.003
Mof_C 	C 	0.6749	0.3478	0.5676	-0.011
Mof_H 	H 	0.7143	0.3645	0.5409	0.024
Mof_N 	N 	0.6726	0.2964	0.5665	-0.166
Mof_C 	C 	0.6194	0.274	0.606	0.034
Mof_H 	H 	0.6176	0.238	0.6064	0.006
Mof_C 	C 	0.5671	0.2997	0.6462	-0.094
Mof_H 	H 	0.5303	0.2818	0.6739	0.032
Mof_C 	C 	0.5688	0.3528	0.6459	-0.057
Mof_H 	H 	0.5329	0.3716	0.6733	0.056
Mof_C 	C 	0.592	0.6702	0.5783	0.58
Mof_C 	C 	0.6741	0.6769	0.5414	-0.829
Mof_H 	H 	0.7212	0.6645	0.5682	0.247
Mof_H 	H 	0.6825	0.7129	0.5316	0.235
Mof_H 	H 	0.671	0.6575	0.5009	0.243
Mof_C 	C 	0.5954	0.7057	0.6379	-0.839
Mof_H 	H 	0.5474	0.6987	0.6656	0.265
Mof_H 	H 	0.5935	0.741	0.6234	0.246
Mof_H 	H 	0.6477	0.6997	0.6625	0.25
Mof_C 	C 	0.5177	0.6863	0.5352	-0.888
Mof_H 	H 	0.5153	0.6649	0.4964	0.278
Mof_H 	H 	0.5247	0.7218	0.5223	0.272
Mof_H 	H 	0.4655	0.6826	0.5591	0.288
Mof_S 	S 	0.42828	0.49489	0.56965	0.014
Mof_C 	C 	0.3778	0.4696	0.639	-0.066
Mof_C 	C 	0.3499	0.4997	0.688	0.139
Mof_C 	C 	0.3036	0.4783	0.7383	-0.065
Mof_C 	C 	0.2844	0.4266	0.7362	0.075
Mof_H 	H 	0.2547	0.4121	0.7712	-0.003
Mof_C 	C 	0.3066	0.3962	0.6861	-0.232
Mof_C 	C 	0.3559	0.4182	0.6372	0.062
Mof_H 	H 	0.3745	0.3977	0.6024	-0.014
Mof_O 	O 	0.3643	0.552	0.6872	-0.192
Mof_C 	C 	0.2926	0.5776	0.6556	-0.019
Mof_H 	H 	0.2414	0.5731	0.6816	0.037
Mof_H 	H 	0.282	0.5631	0.612	0.036
Mof_C 	C 	0.3135	0.633	0.6503	0.007
Mof_C 	C 	0.2811	0.6605	0.5982	-0.009
Mof_H 	H 	0.2478	0.6431	0.5666	0.025
Mof_N 	N 	0.2944	0.7107	0.59	-0.163
Mof_C 	C 	0.3401	0.7354	0.6362	0.022
Mof_H 	H 	0.3492	0.7708	0.6315	0.007
Mof_C 	C 	0.374	0.711	0.6898	-0.09
Mof_H 	H 	0.4055	0.7295	0.7214	0.026
Mof_C 	C 	0.3617	0.6593	0.6969	-0.052
Mof_H 	H 	0.3856	0.6418	0.733	0.051
Mof_C 	C 	0.2765	0.3414	0.6785	0.615
Mof_C 	C 	0.2345	0.322	0.7395	-0.897
Mof_H 	H 	0.2208	0.286	0.7342	0.271
Mof_H 	H 	0.1828	0.3413	0.7467	0.273
Mof_H 	H 	0.2728	0.3263	0.7768	0.287
Mof_C 	C 	0.3465	0.3053	0.6629	-0.902
Mof_H 	H 	0.3877	0.3049	0.6987	0.28
Mof_H 	H 	0.3739	0.3163	0.6231	0.27
Mof_H 	H 	0.3235	0.2711	0.6566	0.262
Mof_C 	C 	0.2099	0.3408	0.6226	-0.841
Mof_H 	H 	0.2343	0.3551	0.5833	0.251
Mof_H 	H 	0.1612	0.3612	0.635	0.259
Mof_H 	H 	0.192	0.3058	0.6142	0.242
Mof_N 	N 	0.1516	0.6963	0.4894	-0.196
Mof_C 	C 	0.0863	0.678	0.4758	0.081
Mof_S 	S 	0.9969	0.65439	0.4566	-0.127
Mof_S 	S 	0.76261	0.01639	0.80138	0.008
Mof_C 	C 	0.8521	0.0415	0.8434	-0.053
Mof_C 	C 	0.9195	0.011	0.8644	0.132
Mof_C 	C 	0.9867	0.0327	0.8981	-0.048
Mof_C 	C 	0.9839	0.084	0.9162	0.046
Mof_H 	H 	0.0295	0.0981	0.9404	0.014
Mof_C 	C 	0.9145	0.1151	0.8993	-0.192
Mof_C 	C 	0.8506	0.0925	0.8607	0.041
Mof_H 	H 	0.8049	0.1129	0.8461	0
Mof_O 	O 	0.9186	0.95906	0.8533	-0.192
Mof_C 	C 	0.8687	0.934	0.9027	-0.022
Mof_H 	H 	0.809	0.9442	0.898	0.04
Mof_H 	H 	0.889	0.9441	0.9465	0.043
Mof_C 	C 	0.8765	0.8775	0.8949	0.007
Mof_C 	C 	0.8251	0.8478	0.9324	-0.012
Mof_H 	H 	0.7857	0.8645	0.9591	0.03
Mof_N 	N 	0.8274	0.7964	0.9335	-0.159
Mof_C 	C 	0.8806	0.774	0.894	0.034
Mof_H 	H 	0.8824	0.738	0.8936	0.01
Mof_C 	C 	0.9329	0.7997	0.8538	-0.091
Mof_H 	H 	0.9697	0.7818	0.8261	0.032
Mof_C 	C 	0.9312	0.8528	0.8541	-0.06
Mof_H 	H 	0.9671	0.8716	0.8267	0.057
Mof_C 	C 	0.908	0.1702	0.9217	0.554
Mof_C 	C 	0.8259	0.1769	0.9586	-0.816
Mof_H 	H 	0.7788	0.1645	0.9318	0.246
Mof_H 	H 	0.8175	0.2129	0.9684	0.237
Mof_H 	H 	0.829	0.1575	0.9991	0.248
Mof_C 	C 	0.9046	0.2057	0.8621	-0.818
Mof_H 	H 	0.9526	0.1987	0.8344	0.259
Mof_H 	H 	0.9065	0.241	0.8766	0.24
Mof_H 	H 	0.8523	0.1997	0.8375	0.245
Mof_C 	C 	0.9823	0.1863	0.9648	-0.807
Mof_H 	H 	0.9847	0.1649	0.0036	0.24
Mof_H 	H 	0.9753	0.2218	0.9777	0.253
Mof_H 	H 	0.0345	0.1826	0.9409	0.267
Mof_S 	S 	0.07172	0.99489	0.93035	0.023
Mof_C 	C 	0.1222	0.9696	0.861	-0.068
Mof_C 	C 	0.1501	0.9997	0.812	0.139
Mof_C 	C 	0.1964	0.9783	0.7617	-0.065
Mof_C 	C 	0.2156	0.9266	0.7638	0.076
Mof_H 	H 	0.2453	0.9121	0.7288	-0.004
Mof_C 	C 	0.1934	0.8962	0.8139	-0.235
Mof_C 	C 	0.1441	0.9182	0.8628	0.064
Mof_H 	H 	0.1255	0.8977	0.8976	-0.012
Mof_O 	O 	0.1357	0.052	0.8128	-0.192
Mof_C 	C 	0.2074	0.0776	0.8444	-0.021
Mof_H 	H 	0.2586	0.0731	0.8184	0.038
Mof_H 	H 	0.218	0.0631	0.888	0.039
Mof_C 	C 	0.1865	0.133	0.8497	0.01
Mof_C 	C 	0.2189	0.1605	0.9018	-0.009
Mof_H 	H 	0.2522	0.1431	0.9334	0.031
Mof_N 	N 	0.2056	0.2107	0.91	-0.158
Mof_C 	C 	0.1599	0.2354	0.8638	0.022
Mof_H 	H 	0.1508	0.2708	0.8685	0.008
Mof_C 	C 	0.126	0.211	0.8102	-0.089
Mof_H 	H 	0.0945	0.2295	0.7786	0.026
Mof_C 	C 	0.1383	0.1593	0.8031	-0.053
Mof_H 	H 	0.1144	0.1418	0.767	0.052
Mof_C 	C 	0.2235	0.8414	0.8215	0.621
Mof_C 	C 	0.2655	0.822	0.7605	-0.902
Mof_H 	H 	0.2792	0.786	0.7658	0.273
Mof_H 	H 	0.3172	0.8413	0.7533	0.275
Mof_H 	H 	0.2272	0.8263	0.7232	0.289
Mof_C 	C 	0.1535	0.8053	0.8371	-0.909
Mof_H 	H 	0.1123	0.8049	0.8013	0.282
Mof_H 	H 	0.1261	0.8163	0.8769	0.274
Mof_H 	H 	0.1765	0.7711	0.8434	0.266
Mof_C 	C 	0.2901	0.8408	0.8774	-0.851
Mof_H 	H 	0.2657	0.8551	0.9167	0.257
Mof_H 	H 	0.3388	0.8612	0.865	0.263
Mof_H 	H 	0.308	0.8058	0.8858	0.246
Mof_N 	N 	0.3484	0.1963	0.0106	-0.198
Mof_C 	C 	0.4137	0.178	0.0242	0.076
Mof_S 	S 	0.5031	0.15439	0.0434	-0.134
Mof_S 	S 	0.26261	0.51639	0.80138	0.007
Mof_C 	C 	0.3521	0.5415	0.8434	-0.053
Mof_C 	C 	0.4195	0.511	0.8644	0.132
Mof_C 	C 	0.4867	0.5327	0.8981	-0.049
Mof_C 	C 	0.4839	0.584	0.9162	0.045
Mof_H 	H 	0.5295	0.5981	0.9404	0.015
Mof_C 	C 	0.4145	0.6151	0.8993	-0.194
Mof_C 	C 	0.3506	0.5925	0.8607	0.042
Mof_H 	H 	0.3049	0.6129	0.8461	-0
Mof_O 	O 	0.4186	0.45906	0.8533	-0.192
Mof_C 	C 	0.3687	0.434	0.9027	-0.021
Mof_H 	H 	0.309	0.4442	0.898	0.04
Mof_H 	H 	0.389	0.4441	0.9465	0.043
Mof_C 	C 	0.3765	0.3775	0.8949	0.006
Mof_C 	C 	0.3251	0.3478	0.9324	-0.012
Mof_H 	H 	0.2857	0.3645	0.9591	0.029
Mof_N 	N 	0.3274	0.2964	0.9335	-0.16
Mof_C 	C 	0.3806	0.274	0.894	0.034
Mof_H 	H 	0.3824	0.238	0.8936	0.01
Mof_C 	C 	0.4329	0.2997	0.8538	-0.091
Mof_H 	H 	0.4697	0.2818	0.8261	0.032
Mof_C 	C 	0.4312	0.3528	0.8541	-0.06
Mof_H 	H 	0.4671	0.3716	0.8267	0.056
Mof_C 	C 	0.408	0.6702	0.9217	0.558
Mof_C 	C 	0.3259	0.6769	0.9586	-0.819
Mof_H 	H 	0.2788	0.6645	0.9318	0.247
Mof_H 	H 	0.3175	0.7129	0.9684	0.237
Mof_H 	H 	0.329	0.6575	0.9991	0.248
Mof_C 	C 	0.4046	0.7057	0.8621	-0.821
Mof_H 	H 	0.4526	0.6987	0.8344	0.26
Mof_H 	H 	0.4065	0.741	0.8766	0.241
Mof_H 	H 	0.3523	0.6997	0.8375	0.245
Mof_C 	C 	0.4823	0.6863	0.9648	-0.818
Mof_H 	H 	0.4847	0.6649	0.0036	0.245
Mof_H 	H 	0.4753	0.7218	0.9777	0.256
Mof_H 	H 	0.5345	0.6826	0.9409	0.271
Mof_S 	S 	0.57172	0.49489	0.93035	0.025
Mof_C 	C 	0.6222	0.4696	0.861	-0.068
Mof_C 	C 	0.6501	0.4997	0.812	0.14
Mof_C 	C 	0.6964	0.4783	0.7617	-0.065
Mof_C 	C 	0.7156	0.4266	0.7638	0.077
Mof_H 	H 	0.7453	0.4121	0.7288	-0.004
Mof_C 	C 	0.6934	0.3962	0.8139	-0.235
Mof_C 	C 	0.6441	0.4182	0.8628	0.065
Mof_H 	H 	0.6255	0.3977	0.8976	-0.012
Mof_O 	O 	0.6357	0.552	0.8128	-0.192
Mof_C 	C 	0.7074	0.5776	0.8444	-0.021
Mof_H 	H 	0.7586	0.5731	0.8184	0.038
Mof_H 	H 	0.718	0.5631	0.888	0.039
Mof_C 	C 	0.6865	0.633	0.8497	0.01
Mof_C 	C 	0.7189	0.6605	0.9018	-0.009
Mof_H 	H 	0.7522	0.6431	0.9334	0.031
Mof_N 	N 	0.7056	0.7107	0.91	-0.157
Mof_C 	C 	0.6599	0.7354	0.8638	0.022
Mof_H 	H 	0.6508	0.7708	0.8685	0.008
Mof_C 	C 	0.626	0.711	0.8102	-0.088
Mof_H 	H 	0.5945	0.7295	0.7786	0.026
Mof_C 	C 	0.6383	0.6593	0.8031	-0.053
Mof_H 	H 	0.6144	0.6418	0.767	0.052
Mof_C 	C 	0.7235	0.3414	0.8215	0.622
Mof_C 	C 	0.7655	0.322	0.7605	-0.903
Mof_H 	H 	0.7792	0.286	0.7658	0.273
Mof_H 	H 	0.8172	0.3413	0.7533	0.275
Mof_H 	H 	0.7272	0.3263	0.7232	0.289
Mof_C 	C 	0.6535	0.3053	0.8371	-0.911
Mof_H 	H 	0.6123	0.3049	0.8013	0.283
Mof_H 	H 	0.6261	0.3163	0.8769	0.275
Mof_H 	H 	0.6765	0.2711	0.8434	0.266
Mof_C 	C 	0.7901	0.3408	0.8774	-0.852
Mof_H 	H 	0.7657	0.3551	0.9167	0.258
Mof_H 	H 	0.8388	0.3612	0.865	0.263
Mof_H 	H 	0.808	0.3058	0.8858	0.247
Mof_N 	N 	0.8484	0.6963	0.0106	-0.198
Mof_C 	C 	0.9137	0.678	0.0242	0.072
Mof_S 	S 	0.0031	0.65439	0.0434	-0.13
Mof_S 	S 	0.76261	0.98361	0.30138	0.005
Mof_C 	C 	0.8521	0.9585	0.3434	-0.056
Mof_C 	C 	0.9195	0.989	0.3644	0.132
Mof_C 	C 	0.9867	0.9673	0.3981	-0.052
Mof_C 	C 	0.9839	0.916	0.4162	0.047
Mof_H 	H 	0.0295	0.9019	0.4404	0.01
Mof_C 	C 	0.9145	0.8849	0.3993	-0.205
Mof_C 	C 	0.8506	0.9075	0.3607	0.046
Mof_H 	H 	0.8049	0.8871	0.3461	-0.003
Mof_O 	O 	0.9186	0.04094	0.3533	-0.193
Mof_C 	C 	0.8687	0.066	0.4027	-0.017
Mof_H 	H 	0.809	0.0558	0.398	0.037
Mof_H 	H 	0.889	0.0559	0.4465	0.037
Mof_C 	C 	0.8765	0.1225	0.3949	0.003
Mof_C 	C 	0.8251	0.1522	0.4324	-0.011
Mof_H 	H 	0.7857	0.1355	0.4591	0.024
Mof_N 	N 	0.8274	0.2036	0.4335	-0.166
Mof_C 	C 	0.8806	0.226	0.394	0.034
Mof_H 	H 	0.8824	0.262	0.3936	0.006
Mof_C 	C 	0.9329	0.2003	0.3538	-0.094
Mof_H 	H 	0.9697	0.2182	0.3261	0.031
Mof_C 	C 	0.9312	0.1472	0.3541	-0.057
Mof_H 	H 	0.9671	0.1284	0.3267	0.055
Mof_C 	C 	0.908	0.8298	0.4217	0.58
Mof_C 	C 	0.8259	0.8231	0.4586	-0.829
Mof_H 	H 	0.7788	0.8355	0.4318	0.247
Mof_H 	H 	0.8175	0.7871	0.4684	0.236
Mof_H 	H 	0.829	0.8425	0.4991	0.243
Mof_C 	C 	0.9046	0.7943	0.3621	-0.839
Mof_H 	H 	0.9526	0.8013	0.3344	0.265
Mof_H 	H 	0.9065	0.759	0.3766	0.246
Mof_H 	H 	0.8523	0.8003	0.3375	0.25
Mof_C 	C 	0.9823	0.8137	0.4648	-0.891
Mof_H 	H 	0.9847	0.8351	0.5036	0.278
Mof_H 	H 	0.9753	0.7782	0.4777	0.272
Mof_H 	H 	0.0345	0.8174	0.4409	0.289
Mof_S 	S 	0.07172	0.00511	0.43035	0.016
Mof_C 	C 	0.1222	0.0304	0.361	-0.066
Mof_C 	C 	0.1501	0.0003	0.312	0.139
Mof_C 	C 	0.1964	0.0217	0.2617	-0.064
Mof_C 	C 	0.2156	0.0734	0.2638	0.074
Mof_H 	H 	0.2453	0.0879	0.2288	-0.004
Mof_C 	C 	0.1934	0.1038	0.3139	-0.232
Mof_C 	C 	0.1441	0.0818	0.3628	0.062
Mof_H 	H 	0.1255	0.1023	0.3976	-0.014
Mof_O 	O 	0.1357	0.948	0.3128	-0.192
Mof_C 	C 	0.2074	0.9224	0.3444	-0.018
Mof_H 	H 	0.2586	0.9269	0.3184	0.036
Mof_H 	H 	0.218	0.9369	0.388	0.036
Mof_C 	C 	0.1865	0.867	0.3497	0.007
Mof_C 	C 	0.2189	0.8395	0.4018	-0.009
Mof_H 	H 	0.2522	0.8569	0.4334	0.025
Mof_N 	N 	0.2056	0.7893	0.41	-0.163
Mof_C 	C 	0.1599	0.7646	0.3638	0.022
Mof_H 	H 	0.1508	0.7292	0.3685	0.007
Mof_C 	C 	0.126	0.789	0.3102	-0.09
Mof_H 	H 	0.0945	0.7705	0.2786	0.026
Mof_C 	C 	0.1383	0.8407	0.3031	-0.052
Mof_H 	H 	0.1144	0.8582	0.267	0.052
Mof_C 	C 	0.2235	0.1586	0.3215	0.615
Mof_C 	C 	0.2655	0.178	0.2605	-0.897
Mof_H 	H 	0.2792	0.214	0.2658	0.271
Mof_H 	H 	0.3172	0.1587	0.2533	0.273
Mof_H 	H 	0.2272	0.1737	0.2232	0.287
Mof_C 	C 	0.1535	0.1947	0.3371	-0.902
Mof_H 	H 	0.1123	0.1951	0.3013	0.28
Mof_H 	H 	0.1261	0.1837	0.3769	0.27
Mof_H 	H 	0.1765	0.2289	0.3434	0.262
Mof_C 	C 	0.2901	0.1592	0.3774	-0.841
Mof_H 	H 	0.2657	0.1449	0.4167	0.251
Mof_H 	H 	0.3388	0.1388	0.365	0.259
Mof_H 	H 	0.308	0.1942	0.3858	0.242
Mof_N 	N 	0.3484	0.8037	0.5106	-0.196
Mof_C 	C 	0.4137	0.822	0.5242	0.079
Mof_S 	S 	0.5031	0.84561	0.5434	-0.126
Mof_S 	S 	0.26261	0.48361	0.30138	0.005
Mof_C 	C 	0.3521	0.4585	0.3434	-0.056
Mof_C 	C 	0.4195	0.489	0.3644	0.133
Mof_C 	C 	0.4867	0.4673	0.3981	-0.051
Mof_C 	C 	0.4839	0.416	0.4162	0.049
Mof_H 	H 	0.5295	0.4019	0.4404	0.009
Mof_C 	C 	0.4145	0.3849	0.3993	-0.205
Mof_C 	C 	0.3506	0.4075	0.3607	0.046
Mof_H 	H 	0.3049	0.3871	0.3461	-0.003
Mof_O 	O 	0.4186	0.54094	0.3533	-0.193
Mof_C 	C 	0.3687	0.566	0.4027	-0.017
Mof_H 	H 	0.309	0.5558	0.398	0.037
Mof_H 	H 	0.389	0.5559	0.4465	0.037
Mof_C 	C 	0.3765	0.6225	0.3949	0.003
Mof_C 	C 	0.3251	0.6522	0.4324	-0.011
Mof_H 	H 	0.2857	0.6355	0.4591	0.024
Mof_N 	N 	0.3274	0.7036	0.4335	-0.166
Mof_C 	C 	0.3806	0.726	0.394	0.034
Mof_H 	H 	0.3824	0.762	0.3936	0.006
Mof_C 	C 	0.4329	0.7003	0.3538	-0.094
Mof_H 	H 	0.4697	0.7182	0.3261	0.032
Mof_C 	C 	0.4312	0.6472	0.3541	-0.057
Mof_H 	H 	0.4671	0.6284	0.3267	0.056
Mof_C 	C 	0.408	0.3298	0.4217	0.58
Mof_C 	C 	0.3259	0.3231	0.4586	-0.829
Mof_H 	H 	0.2788	0.3355	0.4318	0.247
Mof_H 	H 	0.3175	0.2871	0.4684	0.235
Mof_H 	H 	0.329	0.3425	0.4991	0.243
Mof_C 	C 	0.4046	0.2943	0.3621	-0.839
Mof_H 	H 	0.4526	0.3013	0.3344	0.265
Mof_H 	H 	0.4065	0.259	0.3766	0.246
Mof_H 	H 	0.3523	0.3003	0.3375	0.25
Mof_C 	C 	0.4823	0.3137	0.4648	-0.888
Mof_H 	H 	0.4847	0.3351	0.5036	0.278
Mof_H 	H 	0.4753	0.2782	0.4777	0.272
Mof_H 	H 	0.5345	0.3174	0.4409	0.288
Mof_S 	S 	0.57172	0.50511	0.43035	0.014
Mof_C 	C 	0.6222	0.5304	0.361	-0.066
Mof_C 	C 	0.6501	0.5003	0.312	0.139
Mof_C 	C 	0.6964	0.5217	0.2617	-0.064
Mof_C 	C 	0.7156	0.5734	0.2638	0.074
Mof_H 	H 	0.7453	0.5879	0.2288	-0.004
Mof_C 	C 	0.6934	0.6038	0.3139	-0.232
Mof_C 	C 	0.6441	0.5818	0.3628	0.062
Mof_H 	H 	0.6255	0.6023	0.3976	-0.014
Mof_O 	O 	0.6357	0.448	0.3128	-0.192
Mof_C 	C 	0.7074	0.4224	0.3444	-0.018
Mof_H 	H 	0.7586	0.4269	0.3184	0.036
Mof_H 	H 	0.718	0.4369	0.388	0.036
Mof_C 	C 	0.6865	0.367	0.3497	0.007
Mof_C 	C 	0.7189	0.3395	0.4018	-0.009
Mof_H 	H 	0.7522	0.3569	0.4334	0.025
Mof_N 	N 	0.7056	0.2893	0.41	-0.163
Mof_C 	C 	0.6599	0.2646	0.3638	0.022
Mof_H 	H 	0.6508	0.2292	0.3685	0.007
Mof_C 	C 	0.626	0.289	0.3102	-0.09
Mof_H 	H 	0.5945	0.2705	0.2786	0.026
Mof_C 	C 	0.6383	0.3407	0.3031	-0.052
Mof_H 	H 	0.6144	0.3582	0.267	0.051
Mof_C 	C 	0.7235	0.6586	0.3215	0.614
Mof_C 	C 	0.7655	0.678	0.2605	-0.896
Mof_H 	H 	0.7792	0.714	0.2658	0.271
Mof_H 	H 	0.8172	0.6587	0.2533	0.272
Mof_H 	H 	0.7272	0.6737	0.2232	0.287
Mof_C 	C 	0.6535	0.6947	0.3371	-0.901
Mof_H 	H 	0.6123	0.6951	0.3013	0.28
Mof_H 	H 	0.6261	0.6837	0.3769	0.27
Mof_H 	H 	0.6765	0.7289	0.3434	0.262
Mof_C 	C 	0.7901	0.6592	0.3774	-0.841
Mof_H 	H 	0.7657	0.6449	0.4167	0.251
Mof_H 	H 	0.8388	0.6388	0.365	0.258
Mof_H 	H 	0.808	0.6942	0.3858	0.241
Mof_N 	N 	0.8484	0.3037	0.5106	-0.196
Mof_C 	C 	0.9137	0.322	0.5242	0.079
Mof_S 	S 	0.0031	0.34561	0.5434	-0.125
Mof_S 	S 	0.23739	0.98361	0.19862	0.004
Mof_C 	C 	0.1479	0.9585	0.1566	-0.058
Mof_C 	C 	0.0805	0.989	0.1356	0.133
Mof_C 	C 	0.0133	0.9673	0.1019	-0.053
Mof_C 	C 	0.0161	0.916	0.0838	0.056
Mof_H 	H 	0.9705	0.9019	0.0596	0
Mof_C 	C 	0.0855	0.8849	0.1007	-0.215
Mof_C 	C 	0.1494	0.9075	0.1393	0.05
Mof_H 	H 	0.1951	0.8871	0.1539	-0.005
Mof_O 	O 	0.0814	0.04094	0.1467	-0.193
Mof_C 	C 	0.1313	0.066	0.0973	-0.014
Mof_H 	H 	0.191	0.0558	0.102	0.035
Mof_H 	H 	0.111	0.0559	0.0535	0.032
Mof_C 	C 	0.1235	0.1225	0.1051	0
Mof_C 	C 	0.1749	0.1522	0.0676	-0.011
Mof_H 	H 	0.2143	0.1355	0.0409	0.021
Mof_N 	N 	0.1726	0.2036	0.0665	-0.166
Mof_C 	C 	0.1194	0.226	0.106	0.034
Mof_H 	H 	0.1176	0.262	0.1064	0.004
Mof_C 	C 	0.0671	0.2003	0.1462	-0.095
Mof_H 	H 	0.0303	0.2182	0.1739	0.032
Mof_C 	C 	0.0688	0.1472	0.1459	-0.056
Mof_H 	H 	0.0329	0.1284	0.1733	0.056
Mof_C 	C 	0.092	0.8298	0.0783	0.596
Mof_C 	C 	0.1741	0.8231	0.0414	-0.835
Mof_H 	H 	0.2212	0.8355	0.0682	0.246
Mof_H 	H 	0.1825	0.7871	0.0316	0.233
Mof_H 	H 	0.171	0.8425	0.0009	0.238
Mof_C 	C 	0.0954	0.7943	0.1379	-0.852
Mof_H 	H 	0.0474	0.8013	0.1656	0.27
Mof_H 	H 	0.0935	0.759	0.1234	0.25
Mof_H 	H 	0.1477	0.8003	0.1625	0.254
Mof_C 	C 	0.0177	0.8137	0.0352	-0.94
Mof_H 	H 	0.0153	0.8351	0.9964	0.304
Mof_H 	H 	0.0247	0.7782	0.0223	0.283
Mof_H 	H 	0.9655	0.8174	0.0591	0.299
Mof_S 	S 	0.92828	0.00511	0.06965	0.002
Mof_C 	C 	0.8778	0.0304	0.139	-0.064
Mof_C 	C 	0.8499	0.0003	0.188	0.137
Mof_C 	C 	0.8036	0.0217	0.2383	-0.063
Mof_C 	C 	0.7844	0.0734	0.2362	0.072
Mof_H 	H 	0.7547	0.0879	0.2712	-0.003
Mof_C 	C 	0.8066	0.1038	0.1861	-0.229
Mof_C 	C 	0.8559	0.0818	0.1372	0.059
Mof_H 	H 	0.8745	0.1023	0.1024	-0.015
Mof_O 	O 	0.8643	0.948	0.1872	-0.193
Mof_C 	C 	0.7926	0.9224	0.1556	-0.016
Mof_H 	H 	0.7414	0.9269	0.1816	0.035
Mof_H 	H 	0.782	0.9369	0.112	0.033
Mof_C 	C 	0.8135	0.867	0.1503	0.005
Mof_C 	C 	0.7811	0.8395	0.0982	-0.009
Mof_H 	H 	0.7478	0.8569	0.0666	0.02
Mof_N 	N 	0.7944	0.7893	0.09	-0.164
Mof_C 	C 	0.8401	0.7646	0.1362	0.021
Mof_H 	H 	0.8492	0.7292	0.1315	0.007
Mof_C 	C 	0.874	0.789	0.1898	-0.091
Mof_H 	H 	0.9055	0.7705	0.2214	0.026
Mof_C 	C 	0.8617	0.8407	0.1969	-0.052
Mof_H 	H 	0.8856	0.8582	0.233	0.051
Mof_C 	C 	0.7765	0.1586	0.1785	0.607
Mof_C 	C 	0.7345	0.178	0.2395	-0.89
Mof_H 	H 	0.7208	0.214	0.2342	0.269
Mof_H 	H 	0.6828	0.1587	0.2467	0.271
Mof_H 	H 	0.7728	0.1737	0.2768	0.285
Mof_C 	C 	0.8465	0.1947	0.1629	-0.891
Mof_H 	H 	0.8877	0.1951	0.1987	0.276
Mof_H 	H 	0.8739	0.1837	0.1231	0.265
Mof_H 	H 	0.8235	0.2289	0.1566	0.258
Mof_C 	C 	0.7099	0.1592	0.1226	-0.83
Mof_H 	H 	0.7343	0.1449	0.0833	0.244
Mof_H 	H 	0.6612	0.1388	0.135	0.255
Mof_H 	H 	0.692	0.1942	0.1142	0.236
Mof_N 	N 	0.6516	0.8037	0.9894	-0.187
Mof_C 	C 	0.5863	0.822	0.9758	0.083
Mof_S 	S 	0.4969	0.84561	0.9566	-0.117
Mof_S 	S 	0.73739	0.48361	0.19862	0.003
Mof_C 	C 	0.6479	0.4585	0.1566	-0.059
Mof_C 	C 	0.5805	0.489	0.1356	0.133
Mof_C 	C 	0.5133	0.4673	0.1019	-0.054
Mof_C 	C 	0.5161	0.416	0.0838	0.052
Mof_H 	H 	0.4705	0.4019	0.0596	0.003
Mof_C 	C 	0.5855	0.3849	0.1007	-0.216
Mof_C 	C 	0.6494	0.4075	0.1393	0.051
Mof_H 	H 	0.6951	0.3871	0.1539	-0.006
Mof_O 	O 	0.5814	0.54094	0.1467	-0.194
Mof_C 	C 	0.6313	0.566	0.0973	-0.013
Mof_H 	H 	0.691	0.5558	0.102	0.034
Mof_H 	H 	0.611	0.5559	0.0535	0.031
Mof_C 	C 	0.6235	0.6225	0.1051	-0
Mof_C 	C 	0.6749	0.6522	0.0676	-0.011
Mof_H 	H 	0.7143	0.6355	0.0409	0.02
Mof_N 	N 	0.6726	0.7036	0.0665	-0.167
Mof_C 	C 	0.6194	0.726	0.106	0.034
Mof_H 	H 	0.6176	0.762	0.1064	0.004
Mof_C 	C 	0.5671	0.7003	0.1462	-0.095
Mof_H 	H 	0.5303	0.7182	0.1739	0.032
Mof_C 	C 	0.5688	0.6472	0.1459	-0.056
Mof_H 	H 	0.5329	0.6284	0.1733	0.055
Mof_C 	C 	0.592	0.3298	0.0783	0.602
Mof_C 	C 	0.6741	0.3231	0.0414	-0.839
Mof_H 	H 	0.7212	0.3355	0.0682	0.247
Mof_H 	H 	0.6825	0.2871	0.0316	0.234
Mof_H 	H 	0.671	0.3425	0.0009	0.238
Mof_C 	C 	0.5954	0.2943	0.1379	-0.857
Mof_H 	H 	0.5474	0.3013	0.1656	0.271
Mof_H 	H 	0.5935	0.259	0.1234	0.251
Mof_H 	H 	0.6477	0.3003	0.1625	0.255
Mof_C 	C 	0.5177	0.3137	0.0352	-0.96
Mof_H 	H 	0.5153	0.3351	0.9964	0.312
Mof_H 	H 	0.5247	0.2782	0.0223	0.288
Mof_H 	H 	0.4655	0.3174	0.0591	0.306
Mof_S 	S 	0.42828	0.50511	0.06965	0.005
Mof_C 	C 	0.3778	0.5304	0.139	-0.065
Mof_C 	C 	0.3499	0.5003	0.188	0.138
Mof_C 	C 	0.3036	0.5217	0.2383	-0.064
Mof_C 	C 	0.2844	0.5734	0.2362	0.073
Mof_H 	H 	0.2547	0.5879	0.2712	-0.003
Mof_C 	C 	0.3066	0.6038	0.1861	-0.23
Mof_C 	C 	0.3559	0.5818	0.1372	0.06
Mof_H 	H 	0.3745	0.6023	0.1024	-0.015
Mof_O 	O 	0.3643	0.448	0.1872	-0.192
Mof_C 	C 	0.2926	0.4224	0.1556	-0.017
Mof_H 	H 	0.2414	0.4269	0.1816	0.035
Mof_H 	H 	0.282	0.4369	0.112	0.033
Mof_C 	C 	0.3135	0.367	0.1503	0.006
Mof_C 	C 	0.2811	0.3395	0.0982	-0.009
Mof_H 	H 	0.2478	0.3569	0.0666	0.02
Mof_N 	N 	0.2944	0.2893	0.09	-0.164
Mof_C 	C 	0.3401	0.2646	0.1362	0.021
Mof_H 	H 	0.3492	0.2292	0.1315	0.007
Mof_C 	C 	0.374	0.289	0.1898	-0.09
Mof_H 	H 	0.4055	0.2705	0.2214	0.026
Mof_C 	C 	0.3617	0.3407	0.1969	-0.052
Mof_H 	H 	0.3856	0.3582	0.233	0.051
Mof_C 	C 	0.2765	0.6586	0.1785	0.608
Mof_C 	C 	0.2345	0.678	0.2395	-0.891
Mof_H 	H 	0.2208	0.714	0.2342	0.269
Mof_H 	H 	0.1828	0.6587	0.2467	0.271
Mof_H 	H 	0.2728	0.6737	0.2768	0.286
Mof_C 	C 	0.3465	0.6947	0.1629	-0.893
Mof_H 	H 	0.3877	0.6951	0.1987	0.277
Mof_H 	H 	0.3739	0.6837	0.1231	0.266
Mof_H 	H 	0.3235	0.7289	0.1566	0.259
Mof_C 	C 	0.2099	0.6592	0.1226	-0.832
Mof_H 	H 	0.2343	0.6449	0.0833	0.244
Mof_H 	H 	0.1612	0.6388	0.135	0.255
Mof_H 	H 	0.192	0.6942	0.1142	0.237
Mof_N 	N 	0.1516	0.3037	0.9894	-0.187
Mof_C 	C 	0.0863	0.322	0.9758	0.081
Mof_S 	S 	0.9969	0.34561	0.9566	-0.115
Mof_Fe	Fe	0.75	0.25	0.5	0.623
Mof_Fe	Fe	0.25	0.25	-0	0.601
Mof_Fe	Fe	0.25	0.75	0.5	0.623
Mof_Fe	Fe	0.75	0.75	-0	0.598
_end
