data_functionalizedCrystal
_audit_creation_method	'EQeq! by Chris Wilmer'
_symmetry_space_group_name_H-M	'P1'
_symmetry_Int_Tables_number	1
_symmetry_cell_setting	triclinic
loop_
_symmetry_equiv_pos_as_xyz
  x,y,z
_cell_length_a	34.0239
_cell_length_b	34.0239
_cell_length_c	34.0239
_cell_angle_alpha	90
_cell_angle_beta	90
_cell_angle_gamma	90
loop_
_atom_site_label
_atom_site_type_symbol
_atom_site_fract_x
_atom_site_fract_y
_atom_site_fract_z
_atom_site_charge
Mof_C 	C 	0.2829	0.764	0.4188	0.071
Mof_N 	N 	0.283	0.7642	0.4602	-0.123
Mof_N 	N 	0.3003	0.8579	0.5424	-0.081
Mof_C 	C 	0.2829	0.264	0.9188	0.071
Mof_N 	N 	0.283	0.2642	0.9602	-0.121
Mof_N 	N 	0.3003	0.3579	0.0424	-0.084
Mof_C 	C 	0.7829	0.764	0.9188	0.072
Mof_N 	N 	0.783	0.7642	0.9602	-0.121
Mof_N 	N 	0.8003	0.8579	0.0424	-0.082
Mof_C 	C 	0.7829	0.264	0.4188	0.071
Mof_N 	N 	0.783	0.2642	0.4602	-0.124
Mof_N 	N 	0.8003	0.3579	0.5424	-0.082
Mof_C 	C 	0.7171	0.236	0.4188	0.07
Mof_N 	N 	0.717	0.2358	0.4602	-0.124
Mof_N 	N 	0.6997	0.1421	0.5424	-0.083
Mof_C 	C 	0.7171	0.736	0.9188	0.072
Mof_N 	N 	0.717	0.7358	0.9602	-0.121
Mof_N 	N 	0.6997	0.6421	0.0424	-0.084
Mof_C 	C 	0.2171	0.236	0.9188	0.071
Mof_N 	N 	0.217	0.2358	0.9602	-0.121
Mof_N 	N 	0.1997	0.1421	0.0424	-0.085
Mof_C 	C 	0.2171	0.736	0.4188	0.07
Mof_N 	N 	0.217	0.7358	0.4602	-0.124
Mof_N 	N 	0.1997	0.6421	0.5424	-0.083
Mof_C 	C 	0.7171	0.764	0.5812	0.07
Mof_N 	N 	0.717	0.7642	0.5398	-0.124
Mof_N 	N 	0.6997	0.8579	0.4576	-0.081
Mof_C 	C 	0.7171	0.264	0.0812	0.069
Mof_N 	N 	0.717	0.2642	0.0398	-0.122
Mof_N 	N 	0.6997	0.3579	0.9576	-0.076
Mof_C 	C 	0.2171	0.764	0.0812	0.069
Mof_N 	N 	0.217	0.7642	0.0398	-0.122
Mof_N 	N 	0.1997	0.8579	0.9576	-0.076
Mof_C 	C 	0.2171	0.264	0.5812	0.069
Mof_N 	N 	0.217	0.2642	0.5398	-0.124
Mof_N 	N 	0.1997	0.3579	0.4576	-0.083
Mof_C 	C 	0.2829	0.236	0.5812	0.071
Mof_N 	N 	0.283	0.2358	0.5398	-0.124
Mof_N 	N 	0.3003	0.1421	0.4576	-0.083
Mof_C 	C 	0.2829	0.736	0.0812	0.07
Mof_N 	N 	0.283	0.7358	0.0398	-0.122
Mof_N 	N 	0.3003	0.6421	0.9576	-0.077
Mof_C 	C 	0.7829	0.236	0.0812	0.071
Mof_N 	N 	0.783	0.2358	0.0398	-0.122
Mof_N 	N 	0.8003	0.1421	0.9576	-0.077
Mof_C 	C 	0.7829	0.736	0.5812	0.072
Mof_N 	N 	0.783	0.7358	0.5398	-0.124
Mof_N 	N 	0.8003	0.6421	0.4576	-0.082
Mof_C 	C 	0.4188	0.2829	0.764	0.07
Mof_N 	N 	0.4602	0.283	0.7642	-0.124
Mof_N 	N 	0.5424	0.3003	0.8579	-0.081
Mof_C 	C 	0.4188	0.7829	0.264	0.071
Mof_N 	N 	0.4602	0.783	0.2642	-0.124
Mof_N 	N 	0.5424	0.8003	0.3579	-0.082
Mof_C 	C 	0.9188	0.2829	0.264	0.071
Mof_N 	N 	0.9602	0.283	0.2642	-0.121
Mof_N 	N 	0.0424	0.3003	0.3579	-0.084
Mof_C 	C 	0.9188	0.7829	0.764	0.072
Mof_N 	N 	0.9602	0.783	0.7642	-0.121
Mof_N 	N 	0.0424	0.8003	0.8579	-0.082
Mof_C 	C 	0.4188	0.7171	0.236	0.07
Mof_N 	N 	0.4602	0.717	0.2358	-0.124
Mof_N 	N 	0.5424	0.6997	0.1421	-0.083
Mof_C 	C 	0.4188	0.2171	0.736	0.07
Mof_N 	N 	0.4602	0.217	0.7358	-0.124
Mof_N 	N 	0.5424	0.1997	0.6421	-0.083
Mof_C 	C 	0.9188	0.7171	0.736	0.072
Mof_N 	N 	0.9602	0.717	0.7358	-0.121
Mof_N 	N 	0.0424	0.6997	0.6421	-0.084
Mof_C 	C 	0.9188	0.2171	0.236	0.071
Mof_N 	N 	0.9602	0.217	0.2358	-0.121
Mof_N 	N 	0.0424	0.1997	0.1421	-0.085
Mof_C 	C 	0.5812	0.7171	0.764	0.07
Mof_N 	N 	0.5398	0.717	0.7642	-0.124
Mof_N 	N 	0.4576	0.6997	0.8579	-0.081
Mof_C 	C 	0.5812	0.2171	0.264	0.069
Mof_N 	N 	0.5398	0.217	0.2642	-0.124
Mof_N 	N 	0.4576	0.1997	0.3579	-0.083
Mof_C 	C 	0.0812	0.7171	0.264	0.069
Mof_N 	N 	0.0398	0.717	0.2642	-0.122
Mof_N 	N 	0.9576	0.6997	0.3579	-0.076
Mof_C 	C 	0.0812	0.2171	0.764	0.069
Mof_N 	N 	0.0398	0.217	0.7642	-0.122
Mof_N 	N 	0.9576	0.1997	0.8579	-0.076
Mof_C 	C 	0.5812	0.2829	0.236	0.071
Mof_N 	N 	0.5398	0.283	0.2358	-0.124
Mof_N 	N 	0.4576	0.3003	0.1421	-0.083
Mof_C 	C 	0.5812	0.7829	0.736	0.072
Mof_N 	N 	0.5398	0.783	0.7358	-0.124
Mof_N 	N 	0.4576	0.8003	0.6421	-0.082
Mof_C 	C 	0.0812	0.2829	0.736	0.07
Mof_N 	N 	0.0398	0.283	0.7358	-0.122
Mof_N 	N 	0.9576	0.3003	0.6421	-0.077
Mof_C 	C 	0.0812	0.7829	0.236	0.071
Mof_N 	N 	0.0398	0.783	0.2358	-0.122
Mof_N 	N 	0.9576	0.8003	0.1421	-0.077
Mof_C 	C 	0.764	0.4188	0.2829	0.07
Mof_N 	N 	0.7642	0.4602	0.283	-0.124
Mof_N 	N 	0.8579	0.5424	0.3003	-0.081
Mof_C 	C 	0.764	0.9188	0.7829	0.072
Mof_N 	N 	0.7642	0.9602	0.783	-0.121
Mof_N 	N 	0.8579	0.0424	0.8003	-0.082
Mof_C 	C 	0.264	0.4188	0.7829	0.071
Mof_N 	N 	0.2642	0.4602	0.783	-0.124
Mof_N 	N 	0.3579	0.5424	0.8003	-0.082
Mof_C 	C 	0.264	0.9188	0.2829	0.071
Mof_N 	N 	0.2642	0.9602	0.283	-0.121
Mof_N 	N 	0.3579	0.0424	0.3003	-0.084
Mof_C 	C 	0.236	0.4188	0.7171	0.07
Mof_N 	N 	0.2358	0.4602	0.717	-0.124
Mof_N 	N 	0.1421	0.5424	0.6997	-0.083
Mof_C 	C 	0.236	0.9188	0.2171	0.071
Mof_N 	N 	0.2358	0.9602	0.217	-0.121
Mof_N 	N 	0.1421	0.0424	0.1997	-0.085
Mof_C 	C 	0.736	0.4188	0.2171	0.07
Mof_N 	N 	0.7358	0.4602	0.217	-0.124
Mof_N 	N 	0.6421	0.5424	0.1997	-0.083
Mof_C 	C 	0.736	0.9188	0.7171	0.072
Mof_N 	N 	0.7358	0.9602	0.717	-0.121
Mof_N 	N 	0.6421	0.0424	0.6997	-0.084
Mof_C 	C 	0.764	0.5812	0.7171	0.07
Mof_N 	N 	0.7642	0.5398	0.717	-0.124
Mof_N 	N 	0.8579	0.4576	0.6997	-0.081
Mof_C 	C 	0.764	0.0812	0.2171	0.069
Mof_N 	N 	0.7642	0.0398	0.217	-0.122
Mof_N 	N 	0.8579	0.9576	0.1997	-0.076
Mof_C 	C 	0.264	0.5812	0.2171	0.069
Mof_N 	N 	0.2642	0.5398	0.217	-0.124
Mof_N 	N 	0.3579	0.4576	0.1997	-0.083
Mof_C 	C 	0.264	0.0812	0.7171	0.069
Mof_N 	N 	0.2642	0.0398	0.717	-0.122
Mof_N 	N 	0.3579	0.9576	0.6997	-0.076
Mof_C 	C 	0.236	0.5812	0.2829	0.071
Mof_N 	N 	0.2358	0.5398	0.283	-0.124
Mof_N 	N 	0.1421	0.4576	0.3003	-0.083
Mof_C 	C 	0.236	0.0812	0.7829	0.071
Mof_N 	N 	0.2358	0.0398	0.783	-0.122
Mof_N 	N 	0.1421	0.9576	0.8003	-0.077
Mof_C 	C 	0.736	0.5812	0.7829	0.072
Mof_N 	N 	0.7358	0.5398	0.783	-0.124
Mof_N 	N 	0.6421	0.4576	0.8003	-0.082
Mof_C 	C 	0.736	0.0812	0.2829	0.07
Mof_N 	N 	0.7358	0.0398	0.283	-0.122
Mof_N 	N 	0.6421	0.9576	0.3003	-0.077
Mof_C 	C 	0.764	0.2829	0.5812	0.07
Mof_N 	N 	0.7642	0.283	0.5398	-0.124
Mof_N 	N 	0.8579	0.3003	0.4576	-0.081
Mof_C 	C 	0.764	0.7829	0.0812	0.07
Mof_N 	N 	0.7642	0.783	0.0398	-0.122
Mof_N 	N 	0.8579	0.8003	0.9576	-0.075
Mof_C 	C 	0.264	0.2829	0.0812	0.07
Mof_N 	N 	0.2642	0.283	0.0398	-0.122
Mof_N 	N 	0.3579	0.3003	0.9576	-0.077
Mof_C 	C 	0.264	0.7829	0.5812	0.071
Mof_N 	N 	0.2642	0.783	0.5398	-0.124
Mof_N 	N 	0.3579	0.8003	0.4576	-0.082
Mof_C 	C 	0.236	0.7171	0.5812	0.07
Mof_N 	N 	0.2358	0.717	0.5398	-0.124
Mof_N 	N 	0.1421	0.6997	0.4576	-0.083
Mof_C 	C 	0.236	0.2171	0.0812	0.069
Mof_N 	N 	0.2358	0.217	0.0398	-0.122
Mof_N 	N 	0.1421	0.1997	0.9576	-0.078
Mof_C 	C 	0.736	0.7171	0.0812	0.07
Mof_N 	N 	0.7358	0.717	0.0398	-0.122
Mof_N 	N 	0.6421	0.6997	0.9576	-0.076
Mof_C 	C 	0.736	0.2171	0.5812	0.07
Mof_N 	N 	0.7358	0.217	0.5398	-0.124
Mof_N 	N 	0.6421	0.1997	0.4576	-0.083
Mof_C 	C 	0.764	0.7171	0.4188	0.07
Mof_N 	N 	0.7642	0.717	0.4602	-0.124
Mof_N 	N 	0.8579	0.6997	0.5424	-0.081
Mof_C 	C 	0.764	0.2171	0.9188	0.07
Mof_N 	N 	0.7642	0.217	0.9602	-0.121
Mof_N 	N 	0.8579	0.1997	0.0424	-0.083
Mof_C 	C 	0.264	0.7171	0.9188	0.071
Mof_N 	N 	0.2642	0.717	0.9602	-0.121
Mof_N 	N 	0.3579	0.6997	0.0424	-0.084
Mof_C 	C 	0.264	0.2171	0.4188	0.069
Mof_N 	N 	0.2642	0.217	0.4602	-0.124
Mof_N 	N 	0.3579	0.1997	0.5424	-0.083
Mof_C 	C 	0.236	0.2829	0.4188	0.071
Mof_N 	N 	0.2358	0.283	0.4602	-0.124
Mof_N 	N 	0.1421	0.3003	0.5424	-0.083
Mof_C 	C 	0.236	0.7829	0.9188	0.073
Mof_N 	N 	0.2358	0.783	0.9602	-0.121
Mof_N 	N 	0.1421	0.8003	0.0424	-0.084
Mof_C 	C 	0.736	0.2829	0.9188	0.072
Mof_N 	N 	0.7358	0.283	0.9602	-0.121
Mof_N 	N 	0.6421	0.3003	0.0424	-0.084
Mof_C 	C 	0.736	0.7829	0.4188	0.072
Mof_N 	N 	0.7358	0.783	0.4602	-0.124
Mof_N 	N 	0.6421	0.8003	0.5424	-0.082
Mof_C 	C 	0.2829	0.4188	0.236	0.071
Mof_N 	N 	0.283	0.4602	0.2358	-0.124
Mof_N 	N 	0.3003	0.5424	0.1421	-0.083
Mof_C 	C 	0.2829	0.9188	0.736	0.072
Mof_N 	N 	0.283	0.9602	0.7358	-0.121
Mof_N 	N 	0.3003	0.0424	0.6421	-0.084
Mof_C 	C 	0.7829	0.4188	0.736	0.072
Mof_N 	N 	0.783	0.4602	0.7358	-0.124
Mof_N 	N 	0.8003	0.5424	0.6421	-0.082
Mof_C 	C 	0.7829	0.9188	0.236	0.073
Mof_N 	N 	0.783	0.9602	0.2358	-0.121
Mof_N 	N 	0.8003	0.0424	0.1421	-0.084
Mof_C 	C 	0.7171	0.4188	0.764	0.07
Mof_N 	N 	0.717	0.4602	0.7642	-0.124
Mof_N 	N 	0.6997	0.5424	0.8579	-0.081
Mof_C 	C 	0.7171	0.9188	0.264	0.071
Mof_N 	N 	0.717	0.9602	0.2642	-0.121
Mof_N 	N 	0.6997	0.0424	0.3579	-0.084
Mof_C 	C 	0.2171	0.4188	0.264	0.069
Mof_N 	N 	0.217	0.4602	0.2642	-0.124
Mof_N 	N 	0.1997	0.5424	0.3579	-0.083
Mof_C 	C 	0.2171	0.9188	0.764	0.07
Mof_N 	N 	0.217	0.9602	0.7642	-0.121
Mof_N 	N 	0.1997	0.0424	0.8579	-0.083
Mof_C 	C 	0.7171	0.5812	0.236	0.07
Mof_N 	N 	0.717	0.5398	0.2358	-0.124
Mof_N 	N 	0.6997	0.4576	0.1421	-0.083
Mof_C 	C 	0.7171	0.0812	0.736	0.07
Mof_N 	N 	0.717	0.0398	0.7358	-0.122
Mof_N 	N 	0.6997	0.9576	0.6421	-0.076
Mof_C 	C 	0.2171	0.5812	0.736	0.07
Mof_N 	N 	0.217	0.5398	0.7358	-0.124
Mof_N 	N 	0.1997	0.4576	0.6421	-0.083
Mof_C 	C 	0.2171	0.0812	0.236	0.069
Mof_N 	N 	0.217	0.0398	0.2358	-0.122
Mof_N 	N 	0.1997	0.9576	0.1421	-0.078
Mof_C 	C 	0.2829	0.5812	0.764	0.07
Mof_N 	N 	0.283	0.5398	0.7642	-0.124
Mof_N 	N 	0.3003	0.4576	0.8579	-0.081
Mof_C 	C 	0.2829	0.0812	0.264	0.07
Mof_N 	N 	0.283	0.0398	0.2642	-0.122
Mof_N 	N 	0.3003	0.9576	0.3579	-0.077
Mof_C 	C 	0.7829	0.5812	0.264	0.071
Mof_N 	N 	0.783	0.5398	0.2642	-0.124
Mof_N 	N 	0.8003	0.4576	0.3579	-0.082
Mof_C 	C 	0.7829	0.0812	0.764	0.07
Mof_N 	N 	0.783	0.0398	0.7642	-0.122
Mof_N 	N 	0.8003	0.9576	0.8579	-0.075
Mof_C 	C 	0.4188	0.764	0.7171	0.07
Mof_N 	N 	0.4602	0.7642	0.717	-0.124
Mof_N 	N 	0.5424	0.8579	0.6997	-0.081
Mof_C 	C 	0.4188	0.264	0.2171	0.069
Mof_N 	N 	0.4602	0.2642	0.217	-0.124
Mof_N 	N 	0.5424	0.3579	0.1997	-0.083
Mof_C 	C 	0.9188	0.764	0.2171	0.07
Mof_N 	N 	0.9602	0.7642	0.217	-0.121
Mof_N 	N 	0.0424	0.8579	0.1997	-0.083
Mof_C 	C 	0.9188	0.264	0.7171	0.071
Mof_N 	N 	0.9602	0.2642	0.717	-0.121
Mof_N 	N 	0.0424	0.3579	0.6997	-0.084
Mof_C 	C 	0.4188	0.236	0.2829	0.071
Mof_N 	N 	0.4602	0.2358	0.283	-0.124
Mof_N 	N 	0.5424	0.1421	0.3003	-0.083
Mof_C 	C 	0.4188	0.736	0.7829	0.072
Mof_N 	N 	0.4602	0.7358	0.783	-0.124
Mof_N 	N 	0.5424	0.6421	0.8003	-0.082
Mof_C 	C 	0.9188	0.236	0.7829	0.073
Mof_N 	N 	0.9602	0.2358	0.783	-0.121
Mof_N 	N 	0.0424	0.1421	0.8003	-0.084
Mof_C 	C 	0.9188	0.736	0.2829	0.072
Mof_N 	N 	0.9602	0.7358	0.283	-0.121
Mof_N 	N 	0.0424	0.6421	0.3003	-0.084
Mof_C 	C 	0.5812	0.764	0.2829	0.07
Mof_N 	N 	0.5398	0.7642	0.283	-0.124
Mof_N 	N 	0.4576	0.8579	0.3003	-0.081
Mof_C 	C 	0.5812	0.264	0.7829	0.071
Mof_N 	N 	0.5398	0.2642	0.783	-0.124
Mof_N 	N 	0.4576	0.3579	0.8003	-0.082
Mof_C 	C 	0.0812	0.764	0.7829	0.07
Mof_N 	N 	0.0398	0.7642	0.783	-0.122
Mof_N 	N 	0.9576	0.8579	0.8003	-0.075
Mof_C 	C 	0.0812	0.264	0.2829	0.07
Mof_N 	N 	0.0398	0.2642	0.283	-0.122
Mof_N 	N 	0.9576	0.3579	0.3003	-0.077
Mof_C 	C 	0.5812	0.236	0.7171	0.07
Mof_N 	N 	0.5398	0.2358	0.717	-0.124
Mof_N 	N 	0.4576	0.1421	0.6997	-0.083
Mof_C 	C 	0.5812	0.736	0.2171	0.07
Mof_N 	N 	0.5398	0.7358	0.217	-0.124
Mof_N 	N 	0.4576	0.6421	0.1997	-0.083
Mof_C 	C 	0.0812	0.236	0.2171	0.069
Mof_N 	N 	0.0398	0.2358	0.217	-0.122
Mof_N 	N 	0.9576	0.1421	0.1997	-0.078
Mof_C 	C 	0.0812	0.736	0.7171	0.07
Mof_N 	N 	0.0398	0.7358	0.717	-0.122
Mof_N 	N 	0.9576	0.6421	0.6997	-0.076
Mof_C 	C 	0.7171	0.236	0.5812	0.07
Mof_N 	N 	0.717	0.2358	0.5398	-0.124
Mof_N 	N 	0.6997	0.1421	0.4576	-0.083
Mof_C 	C 	0.7171	0.736	0.0812	0.07
Mof_N 	N 	0.717	0.7358	0.0398	-0.122
Mof_N 	N 	0.6997	0.6421	0.9576	-0.076
Mof_C 	C 	0.2171	0.236	0.0812	0.069
Mof_N 	N 	0.217	0.2358	0.0398	-0.122
Mof_N 	N 	0.1997	0.1421	0.9576	-0.078
Mof_C 	C 	0.2171	0.736	0.5812	0.07
Mof_N 	N 	0.217	0.7358	0.5398	-0.124
Mof_N 	N 	0.1997	0.6421	0.4576	-0.083
Mof_C 	C 	0.2829	0.764	0.5812	0.07
Mof_N 	N 	0.283	0.7642	0.5398	-0.124
Mof_N 	N 	0.3003	0.8579	0.4576	-0.081
Mof_C 	C 	0.2829	0.264	0.0812	0.07
Mof_N 	N 	0.283	0.2642	0.0398	-0.122
Mof_N 	N 	0.3003	0.3579	0.9576	-0.077
Mof_C 	C 	0.7829	0.764	0.0812	0.07
Mof_N 	N 	0.783	0.7642	0.0398	-0.122
Mof_N 	N 	0.8003	0.8579	0.9576	-0.075
Mof_C 	C 	0.7829	0.264	0.5812	0.071
Mof_N 	N 	0.783	0.2642	0.5398	-0.124
Mof_N 	N 	0.8003	0.3579	0.4576	-0.082
Mof_C 	C 	0.2829	0.236	0.4188	0.071
Mof_N 	N 	0.283	0.2358	0.4602	-0.124
Mof_N 	N 	0.3003	0.1421	0.5424	-0.083
Mof_C 	C 	0.2829	0.736	0.9188	0.072
Mof_N 	N 	0.283	0.7358	0.9602	-0.121
Mof_N 	N 	0.3003	0.6421	0.0424	-0.084
Mof_C 	C 	0.7829	0.236	0.9188	0.073
Mof_N 	N 	0.783	0.2358	0.9602	-0.121
Mof_N 	N 	0.8003	0.1421	0.0424	-0.084
Mof_C 	C 	0.7829	0.736	0.4188	0.072
Mof_N 	N 	0.783	0.7358	0.4602	-0.124
Mof_N 	N 	0.8003	0.6421	0.5424	-0.082
Mof_C 	C 	0.7171	0.764	0.4188	0.07
Mof_N 	N 	0.717	0.7642	0.4602	-0.124
Mof_N 	N 	0.6997	0.8579	0.5424	-0.081
Mof_C 	C 	0.7171	0.264	0.9188	0.071
Mof_N 	N 	0.717	0.2642	0.9602	-0.121
Mof_N 	N 	0.6997	0.3579	0.0424	-0.084
Mof_C 	C 	0.2171	0.764	0.9188	0.07
Mof_N 	N 	0.217	0.7642	0.9602	-0.121
Mof_N 	N 	0.1997	0.8579	0.0424	-0.083
Mof_C 	C 	0.2171	0.264	0.4188	0.069
Mof_N 	N 	0.217	0.2642	0.4602	-0.124
Mof_N 	N 	0.1997	0.3579	0.5424	-0.083
Mof_C 	C 	0.5812	0.7171	0.236	0.07
Mof_N 	N 	0.5398	0.717	0.2358	-0.124
Mof_N 	N 	0.4576	0.6997	0.1421	-0.083
Mof_C 	C 	0.5812	0.2171	0.736	0.07
Mof_N 	N 	0.5398	0.217	0.7358	-0.124
Mof_N 	N 	0.4576	0.1997	0.6421	-0.083
Mof_C 	C 	0.0812	0.7171	0.736	0.07
Mof_N 	N 	0.0398	0.717	0.7358	-0.122
Mof_N 	N 	0.9576	0.6997	0.6421	-0.076
Mof_C 	C 	0.0812	0.2171	0.236	0.069
Mof_N 	N 	0.0398	0.217	0.2358	-0.122
Mof_N 	N 	0.9576	0.1997	0.1421	-0.078
Mof_C 	C 	0.5812	0.2829	0.764	0.07
Mof_N 	N 	0.5398	0.283	0.7642	-0.124
Mof_N 	N 	0.4576	0.3003	0.8579	-0.081
Mof_C 	C 	0.5812	0.7829	0.264	0.071
Mof_N 	N 	0.5398	0.783	0.2642	-0.124
Mof_N 	N 	0.4576	0.8003	0.3579	-0.082
Mof_C 	C 	0.0812	0.2829	0.264	0.07
Mof_N 	N 	0.0398	0.283	0.2642	-0.122
Mof_N 	N 	0.9576	0.3003	0.3579	-0.077
Mof_C 	C 	0.0812	0.7829	0.764	0.07
Mof_N 	N 	0.0398	0.783	0.7642	-0.122
Mof_N 	N 	0.9576	0.8003	0.8579	-0.075
Mof_C 	C 	0.4188	0.2829	0.236	0.071
Mof_N 	N 	0.4602	0.283	0.2358	-0.124
Mof_N 	N 	0.5424	0.3003	0.1421	-0.083
Mof_C 	C 	0.4188	0.7829	0.736	0.072
Mof_N 	N 	0.4602	0.783	0.7358	-0.124
Mof_N 	N 	0.5424	0.8003	0.6421	-0.082
Mof_C 	C 	0.9188	0.2829	0.736	0.072
Mof_N 	N 	0.9602	0.283	0.7358	-0.121
Mof_N 	N 	0.0424	0.3003	0.6421	-0.084
Mof_C 	C 	0.9188	0.7829	0.236	0.073
Mof_N 	N 	0.9602	0.783	0.2358	-0.121
Mof_N 	N 	0.0424	0.8003	0.1421	-0.084
Mof_C 	C 	0.4188	0.7171	0.764	0.07
Mof_N 	N 	0.4602	0.717	0.7642	-0.124
Mof_N 	N 	0.5424	0.6997	0.8579	-0.081
Mof_C 	C 	0.4188	0.2171	0.264	0.069
Mof_N 	N 	0.4602	0.217	0.2642	-0.124
Mof_N 	N 	0.5424	0.1997	0.3579	-0.083
Mof_C 	C 	0.9188	0.7171	0.264	0.071
Mof_N 	N 	0.9602	0.717	0.2642	-0.121
Mof_N 	N 	0.0424	0.6997	0.3579	-0.084
Mof_C 	C 	0.9188	0.2171	0.764	0.07
Mof_N 	N 	0.9602	0.217	0.7642	-0.121
Mof_N 	N 	0.0424	0.1997	0.8579	-0.083
Mof_C 	C 	0.236	0.5812	0.7171	0.07
Mof_N 	N 	0.2358	0.5398	0.717	-0.124
Mof_N 	N 	0.1421	0.4576	0.6997	-0.083
Mof_C 	C 	0.236	0.0812	0.2171	0.069
Mof_N 	N 	0.2358	0.0398	0.217	-0.122
Mof_N 	N 	0.1421	0.9576	0.1997	-0.078
Mof_C 	C 	0.736	0.5812	0.2171	0.07
Mof_N 	N 	0.7358	0.5398	0.217	-0.124
Mof_N 	N 	0.6421	0.4576	0.1997	-0.083
Mof_C 	C 	0.736	0.0812	0.7171	0.07
Mof_N 	N 	0.7358	0.0398	0.717	-0.122
Mof_N 	N 	0.6421	0.9576	0.6997	-0.076
Mof_C 	C 	0.764	0.5812	0.2829	0.07
Mof_N 	N 	0.7642	0.5398	0.283	-0.124
Mof_N 	N 	0.8579	0.4576	0.3003	-0.081
Mof_C 	C 	0.764	0.0812	0.7829	0.07
Mof_N 	N 	0.7642	0.0398	0.783	-0.122
Mof_N 	N 	0.8579	0.9576	0.8003	-0.075
Mof_C 	C 	0.264	0.5812	0.7829	0.071
Mof_N 	N 	0.2642	0.5398	0.783	-0.124
Mof_N 	N 	0.3579	0.4576	0.8003	-0.082
Mof_C 	C 	0.264	0.0812	0.2829	0.07
Mof_N 	N 	0.2642	0.0398	0.283	-0.122
Mof_N 	N 	0.3579	0.9576	0.3003	-0.077
Mof_C 	C 	0.236	0.4188	0.2829	0.071
Mof_N 	N 	0.2358	0.4602	0.283	-0.124
Mof_N 	N 	0.1421	0.5424	0.3003	-0.083
Mof_C 	C 	0.236	0.9188	0.7829	0.073
Mof_N 	N 	0.2358	0.9602	0.783	-0.121
Mof_N 	N 	0.1421	0.0424	0.8003	-0.084
Mof_C 	C 	0.736	0.4188	0.7829	0.072
Mof_N 	N 	0.7358	0.4602	0.783	-0.124
Mof_N 	N 	0.6421	0.5424	0.8003	-0.082
Mof_C 	C 	0.736	0.9188	0.2829	0.072
Mof_N 	N 	0.7358	0.9602	0.283	-0.121
Mof_N 	N 	0.6421	0.0424	0.3003	-0.084
Mof_C 	C 	0.764	0.4188	0.7171	0.07
Mof_N 	N 	0.7642	0.4602	0.717	-0.124
Mof_N 	N 	0.8579	0.5424	0.6997	-0.081
Mof_C 	C 	0.764	0.9188	0.2171	0.07
Mof_N 	N 	0.7642	0.9602	0.217	-0.121
Mof_N 	N 	0.8579	0.0424	0.1997	-0.083
Mof_C 	C 	0.264	0.4188	0.2171	0.069
Mof_N 	N 	0.2642	0.4602	0.217	-0.124
Mof_N 	N 	0.3579	0.5424	0.1997	-0.083
Mof_C 	C 	0.264	0.9188	0.7171	0.071
Mof_N 	N 	0.2642	0.9602	0.717	-0.121
Mof_N 	N 	0.3579	0.0424	0.6997	-0.084
Mof_C 	C 	0.236	0.7171	0.4188	0.07
Mof_N 	N 	0.2358	0.717	0.4602	-0.124
Mof_N 	N 	0.1421	0.6997	0.5424	-0.083
Mof_C 	C 	0.236	0.2171	0.9188	0.071
Mof_N 	N 	0.2358	0.217	0.9602	-0.121
Mof_N 	N 	0.1421	0.1997	0.0424	-0.085
Mof_C 	C 	0.736	0.7171	0.9188	0.072
Mof_N 	N 	0.7358	0.717	0.9602	-0.121
Mof_N 	N 	0.6421	0.6997	0.0424	-0.084
Mof_C 	C 	0.736	0.2171	0.4188	0.07
Mof_N 	N 	0.7358	0.217	0.4602	-0.124
Mof_N 	N 	0.6421	0.1997	0.5424	-0.083
Mof_C 	C 	0.764	0.2829	0.4188	0.07
Mof_N 	N 	0.7642	0.283	0.4602	-0.124
Mof_N 	N 	0.8579	0.3003	0.5424	-0.081
Mof_C 	C 	0.764	0.7829	0.9188	0.072
Mof_N 	N 	0.7642	0.783	0.9602	-0.121
Mof_N 	N 	0.8579	0.8003	0.0424	-0.082
Mof_C 	C 	0.264	0.2829	0.9188	0.071
Mof_N 	N 	0.2642	0.283	0.9602	-0.121
Mof_N 	N 	0.3579	0.3003	0.0424	-0.084
Mof_C 	C 	0.264	0.7829	0.4188	0.071
Mof_N 	N 	0.2642	0.783	0.4602	-0.124
Mof_N 	N 	0.3579	0.8003	0.5424	-0.082
Mof_C 	C 	0.236	0.2829	0.5812	0.071
Mof_N 	N 	0.2358	0.283	0.5398	-0.124
Mof_N 	N 	0.1421	0.3003	0.4576	-0.083
Mof_C 	C 	0.236	0.7829	0.0812	0.071
Mof_N 	N 	0.2358	0.783	0.0398	-0.122
Mof_N 	N 	0.1421	0.8003	0.9576	-0.077
Mof_C 	C 	0.736	0.2829	0.0812	0.07
Mof_N 	N 	0.7358	0.283	0.0398	-0.122
Mof_N 	N 	0.6421	0.3003	0.9576	-0.077
Mof_C 	C 	0.736	0.7829	0.5812	0.072
Mof_N 	N 	0.7358	0.783	0.5398	-0.124
Mof_N 	N 	0.6421	0.8003	0.4576	-0.082
Mof_C 	C 	0.764	0.7171	0.5812	0.07
Mof_N 	N 	0.7642	0.717	0.5398	-0.124
Mof_N 	N 	0.8579	0.6997	0.4576	-0.081
Mof_C 	C 	0.764	0.2171	0.0812	0.069
Mof_N 	N 	0.7642	0.217	0.0398	-0.122
Mof_N 	N 	0.8579	0.1997	0.9576	-0.076
Mof_C 	C 	0.264	0.7171	0.0812	0.069
Mof_N 	N 	0.2642	0.717	0.0398	-0.122
Mof_N 	N 	0.3579	0.6997	0.9576	-0.076
Mof_C 	C 	0.264	0.2171	0.5812	0.069
Mof_N 	N 	0.2642	0.217	0.5398	-0.124
Mof_N 	N 	0.3579	0.1997	0.4576	-0.083
Mof_C 	C 	0.7171	0.5812	0.764	0.07
Mof_N 	N 	0.717	0.5398	0.7642	-0.124
Mof_N 	N 	0.6997	0.4576	0.8579	-0.081
Mof_C 	C 	0.7171	0.0812	0.264	0.069
Mof_N 	N 	0.717	0.0398	0.2642	-0.122
Mof_N 	N 	0.6997	0.9576	0.3579	-0.076
Mof_C 	C 	0.2171	0.5812	0.264	0.069
Mof_N 	N 	0.217	0.5398	0.2642	-0.124
Mof_N 	N 	0.1997	0.4576	0.3579	-0.083
Mof_C 	C 	0.2171	0.0812	0.764	0.069
Mof_N 	N 	0.217	0.0398	0.7642	-0.122
Mof_N 	N 	0.1997	0.9576	0.8579	-0.076
Mof_C 	C 	0.2829	0.5812	0.236	0.071
Mof_N 	N 	0.283	0.5398	0.2358	-0.124
Mof_N 	N 	0.3003	0.4576	0.1421	-0.083
Mof_C 	C 	0.2829	0.0812	0.736	0.07
Mof_N 	N 	0.283	0.0398	0.7358	-0.122
Mof_N 	N 	0.3003	0.9576	0.6421	-0.077
Mof_C 	C 	0.7829	0.5812	0.736	0.072
Mof_N 	N 	0.783	0.5398	0.7358	-0.124
Mof_N 	N 	0.8003	0.4576	0.6421	-0.082
Mof_C 	C 	0.7829	0.0812	0.236	0.071
Mof_N 	N 	0.783	0.0398	0.2358	-0.122
Mof_N 	N 	0.8003	0.9576	0.1421	-0.077
Mof_C 	C 	0.2829	0.4188	0.764	0.07
Mof_N 	N 	0.283	0.4602	0.7642	-0.124
Mof_N 	N 	0.3003	0.5424	0.8579	-0.081
Mof_C 	C 	0.2829	0.9188	0.264	0.071
Mof_N 	N 	0.283	0.9602	0.2642	-0.121
Mof_N 	N 	0.3003	0.0424	0.3579	-0.084
Mof_C 	C 	0.7829	0.4188	0.264	0.071
Mof_N 	N 	0.783	0.4602	0.2642	-0.124
Mof_N 	N 	0.8003	0.5424	0.3579	-0.082
Mof_C 	C 	0.7829	0.9188	0.764	0.072
Mof_N 	N 	0.783	0.9602	0.7642	-0.121
Mof_N 	N 	0.8003	0.0424	0.8579	-0.082
Mof_C 	C 	0.7171	0.4188	0.236	0.07
Mof_N 	N 	0.717	0.4602	0.2358	-0.124
Mof_N 	N 	0.6997	0.5424	0.1421	-0.083
Mof_C 	C 	0.7171	0.9188	0.736	0.072
Mof_N 	N 	0.717	0.9602	0.7358	-0.121
Mof_N 	N 	0.6997	0.0424	0.6421	-0.084
Mof_C 	C 	0.2171	0.4188	0.736	0.07
Mof_N 	N 	0.217	0.4602	0.7358	-0.124
Mof_N 	N 	0.1997	0.5424	0.6421	-0.083
Mof_C 	C 	0.2171	0.9188	0.236	0.071
Mof_N 	N 	0.217	0.9602	0.2358	-0.121
Mof_N 	N 	0.1997	0.0424	0.1421	-0.085
Mof_C 	C 	0.5812	0.236	0.2829	0.071
Mof_N 	N 	0.5398	0.2358	0.283	-0.124
Mof_N 	N 	0.4576	0.1421	0.3003	-0.083
Mof_C 	C 	0.5812	0.736	0.7829	0.072
Mof_N 	N 	0.5398	0.7358	0.783	-0.124
Mof_N 	N 	0.4576	0.6421	0.8003	-0.082
Mof_C 	C 	0.0812	0.236	0.7829	0.071
Mof_N 	N 	0.0398	0.2358	0.783	-0.122
Mof_N 	N 	0.9576	0.1421	0.8003	-0.077
Mof_C 	C 	0.0812	0.736	0.2829	0.07
Mof_N 	N 	0.0398	0.7358	0.283	-0.122
Mof_N 	N 	0.9576	0.6421	0.3003	-0.077
Mof_C 	C 	0.5812	0.764	0.7171	0.07
Mof_N 	N 	0.5398	0.7642	0.717	-0.124
Mof_N 	N 	0.4576	0.8579	0.6997	-0.081
Mof_C 	C 	0.5812	0.264	0.2171	0.069
Mof_N 	N 	0.5398	0.2642	0.217	-0.124
Mof_N 	N 	0.4576	0.3579	0.1997	-0.083
Mof_C 	C 	0.0812	0.764	0.2171	0.069
Mof_N 	N 	0.0398	0.7642	0.217	-0.122
Mof_N 	N 	0.9576	0.8579	0.1997	-0.076
Mof_C 	C 	0.0812	0.264	0.7171	0.069
Mof_N 	N 	0.0398	0.2642	0.717	-0.122
Mof_N 	N 	0.9576	0.3579	0.6997	-0.076
Mof_C 	C 	0.4188	0.236	0.7171	0.07
Mof_N 	N 	0.4602	0.2358	0.717	-0.124
Mof_N 	N 	0.5424	0.1421	0.6997	-0.083
Mof_C 	C 	0.4188	0.736	0.2171	0.07
Mof_N 	N 	0.4602	0.7358	0.217	-0.124
Mof_N 	N 	0.5424	0.6421	0.1997	-0.083
Mof_C 	C 	0.9188	0.236	0.2171	0.071
Mof_N 	N 	0.9602	0.2358	0.217	-0.121
Mof_N 	N 	0.0424	0.1421	0.1997	-0.085
Mof_C 	C 	0.9188	0.736	0.7171	0.072
Mof_N 	N 	0.9602	0.7358	0.717	-0.121
Mof_N 	N 	0.0424	0.6421	0.6997	-0.084
Mof_C 	C 	0.4188	0.764	0.2829	0.07
Mof_N 	N 	0.4602	0.7642	0.283	-0.124
Mof_N 	N 	0.5424	0.8579	0.3003	-0.081
Mof_C 	C 	0.4188	0.264	0.7829	0.071
Mof_N 	N 	0.4602	0.2642	0.783	-0.124
Mof_N 	N 	0.5424	0.3579	0.8003	-0.082
Mof_C 	C 	0.9188	0.764	0.7829	0.072
Mof_N 	N 	0.9602	0.7642	0.783	-0.121
Mof_N 	N 	0.0424	0.8579	0.8003	-0.082
Mof_C 	C 	0.9188	0.264	0.2829	0.071
Mof_N 	N 	0.9602	0.2642	0.283	-0.121
Mof_N 	N 	0.0424	0.3579	0.3003	-0.084
Mof_C 	C 	0.25	0.75	0.3568	0.168
Mof_C 	C 	0.25	0.75	0.401	-0.113
Mof_C 	C 	0.25	0.75	0.4784	0.082
Mof_C 	C 	0.25	0.25	0.8568	0.168
Mof_C 	C 	0.25	0.25	0.901	-0.114
Mof_C 	C 	0.25	0.25	0.9784	0.097
Mof_C 	C 	0.75	0.25	0.3568	0.168
Mof_C 	C 	0.75	0.25	0.401	-0.113
Mof_C 	C 	0.75	0.25	0.4784	0.082
Mof_C 	C 	0.75	0.75	0.8568	0.169
Mof_C 	C 	0.75	0.75	0.901	-0.114
Mof_C 	C 	0.75	0.75	0.9784	0.097
Mof_C 	C 	0.75	0.75	0.6432	0.168
Mof_C 	C 	0.75	0.75	0.599	-0.113
Mof_C 	C 	0.75	0.75	0.5216	0.082
Mof_C 	C 	0.75	0.25	0.1432	0.167
Mof_C 	C 	0.75	0.25	0.099	-0.112
Mof_C 	C 	0.75	0.25	0.0216	0.072
Mof_C 	C 	0.25	0.25	0.6432	0.167
Mof_C 	C 	0.25	0.25	0.599	-0.113
Mof_C 	C 	0.25	0.25	0.5216	0.082
Mof_C 	C 	0.25	0.75	0.1432	0.167
Mof_C 	C 	0.25	0.75	0.099	-0.112
Mof_C 	C 	0.25	0.75	0.0216	0.072
Mof_C 	C 	0.3568	0.25	0.75	0.168
Mof_C 	C 	0.401	0.25	0.75	-0.113
Mof_C 	C 	0.4784	0.25	0.75	0.082
Mof_C 	C 	0.8568	0.25	0.25	0.168
Mof_C 	C 	0.901	0.25	0.25	-0.114
Mof_C 	C 	0.9784	0.25	0.25	0.097
Mof_C 	C 	0.3568	0.75	0.25	0.168
Mof_C 	C 	0.401	0.75	0.25	-0.113
Mof_C 	C 	0.4784	0.75	0.25	0.082
Mof_C 	C 	0.8568	0.75	0.75	0.169
Mof_C 	C 	0.901	0.75	0.75	-0.114
Mof_C 	C 	0.9784	0.75	0.75	0.097
Mof_C 	C 	0.6432	0.75	0.75	0.168
Mof_C 	C 	0.599	0.75	0.75	-0.113
Mof_C 	C 	0.5216	0.75	0.75	0.082
Mof_C 	C 	0.1432	0.75	0.25	0.167
Mof_C 	C 	0.099	0.75	0.25	-0.112
Mof_C 	C 	0.0216	0.75	0.25	0.072
Mof_C 	C 	0.6432	0.25	0.25	0.167
Mof_C 	C 	0.599	0.25	0.25	-0.113
Mof_C 	C 	0.5216	0.25	0.25	0.082
Mof_C 	C 	0.1432	0.25	0.75	0.167
Mof_C 	C 	0.099	0.25	0.75	-0.112
Mof_C 	C 	0.0216	0.25	0.75	0.072
Mof_C 	C 	0.75	0.3568	0.25	0.168
Mof_C 	C 	0.75	0.401	0.25	-0.113
Mof_C 	C 	0.75	0.4784	0.25	0.082
Mof_C 	C 	0.75	0.8568	0.75	0.169
Mof_C 	C 	0.75	0.901	0.75	-0.114
Mof_C 	C 	0.75	0.9784	0.75	0.097
Mof_C 	C 	0.25	0.3568	0.75	0.168
Mof_C 	C 	0.25	0.401	0.75	-0.113
Mof_C 	C 	0.25	0.4784	0.75	0.082
Mof_C 	C 	0.25	0.8568	0.25	0.168
Mof_C 	C 	0.25	0.901	0.25	-0.114
Mof_C 	C 	0.25	0.9784	0.25	0.097
Mof_C 	C 	0.75	0.6432	0.75	0.168
Mof_C 	C 	0.75	0.599	0.75	-0.113
Mof_C 	C 	0.75	0.5216	0.75	0.082
Mof_C 	C 	0.75	0.1432	0.25	0.167
Mof_C 	C 	0.75	0.099	0.25	-0.112
Mof_C 	C 	0.75	0.0216	0.25	0.072
Mof_C 	C 	0.25	0.6432	0.25	0.167
Mof_C 	C 	0.25	0.599	0.25	-0.113
Mof_C 	C 	0.25	0.5216	0.25	0.082
Mof_C 	C 	0.25	0.1432	0.75	0.167
Mof_C 	C 	0.25	0.099	0.75	-0.112
Mof_C 	C 	0.25	0.0216	0.75	0.072
Mof_C 	C 	0.75	0.25	0.6432	0.168
Mof_C 	C 	0.75	0.25	0.599	-0.113
Mof_C 	C 	0.75	0.25	0.5216	0.082
Mof_C 	C 	0.75	0.75	0.1432	0.168
Mof_C 	C 	0.75	0.75	0.099	-0.112
Mof_C 	C 	0.75	0.75	0.0216	0.073
Mof_C 	C 	0.25	0.75	0.6432	0.168
Mof_C 	C 	0.25	0.75	0.599	-0.113
Mof_C 	C 	0.25	0.75	0.5216	0.082
Mof_C 	C 	0.25	0.25	0.1432	0.167
Mof_C 	C 	0.25	0.25	0.099	-0.112
Mof_C 	C 	0.25	0.25	0.0216	0.072
Mof_C 	C 	0.75	0.75	0.3568	0.168
Mof_C 	C 	0.75	0.75	0.401	-0.113
Mof_C 	C 	0.75	0.75	0.4784	0.082
Mof_C 	C 	0.75	0.25	0.8568	0.169
Mof_C 	C 	0.75	0.25	0.901	-0.114
Mof_C 	C 	0.75	0.25	0.9784	0.097
Mof_C 	C 	0.25	0.25	0.3568	0.167
Mof_C 	C 	0.25	0.25	0.401	-0.113
Mof_C 	C 	0.25	0.25	0.4784	0.082
Mof_C 	C 	0.25	0.75	0.8568	0.169
Mof_C 	C 	0.25	0.75	0.901	-0.114
Mof_C 	C 	0.25	0.75	0.9784	0.097
Mof_C 	C 	0.25	0.3568	0.25	0.167
Mof_C 	C 	0.25	0.401	0.25	-0.113
Mof_C 	C 	0.25	0.4784	0.25	0.082
Mof_C 	C 	0.25	0.8568	0.75	0.169
Mof_C 	C 	0.25	0.901	0.75	-0.114
Mof_C 	C 	0.25	0.9784	0.75	0.097
Mof_C 	C 	0.75	0.3568	0.75	0.168
Mof_C 	C 	0.75	0.401	0.75	-0.113
Mof_C 	C 	0.75	0.4784	0.75	0.082
Mof_C 	C 	0.75	0.8568	0.25	0.169
Mof_C 	C 	0.75	0.901	0.25	-0.114
Mof_C 	C 	0.75	0.9784	0.25	0.097
Mof_C 	C 	0.75	0.6432	0.25	0.168
Mof_C 	C 	0.75	0.599	0.25	-0.113
Mof_C 	C 	0.75	0.5216	0.25	0.082
Mof_C 	C 	0.75	0.1432	0.75	0.168
Mof_C 	C 	0.75	0.099	0.75	-0.112
Mof_C 	C 	0.75	0.0216	0.75	0.073
Mof_C 	C 	0.25	0.6432	0.75	0.168
Mof_C 	C 	0.25	0.599	0.75	-0.113
Mof_C 	C 	0.25	0.5216	0.75	0.082
Mof_C 	C 	0.25	0.1432	0.25	0.167
Mof_C 	C 	0.25	0.099	0.25	-0.112
Mof_C 	C 	0.25	0.0216	0.25	0.072
Mof_C 	C 	0.3568	0.75	0.75	0.168
Mof_C 	C 	0.401	0.75	0.75	-0.113
Mof_C 	C 	0.4784	0.75	0.75	0.082
Mof_C 	C 	0.8568	0.75	0.25	0.169
Mof_C 	C 	0.901	0.75	0.25	-0.114
Mof_C 	C 	0.9784	0.75	0.25	0.097
Mof_C 	C 	0.3568	0.25	0.25	0.167
Mof_C 	C 	0.401	0.25	0.25	-0.113
Mof_C 	C 	0.4784	0.25	0.25	0.082
Mof_C 	C 	0.8568	0.25	0.75	0.169
Mof_C 	C 	0.901	0.25	0.75	-0.114
Mof_C 	C 	0.9784	0.25	0.75	0.097
Mof_C 	C 	0.6432	0.75	0.25	0.168
Mof_C 	C 	0.599	0.75	0.25	-0.113
Mof_C 	C 	0.5216	0.75	0.25	0.082
Mof_C 	C 	0.1432	0.75	0.75	0.168
Mof_C 	C 	0.099	0.75	0.75	-0.112
Mof_C 	C 	0.0216	0.75	0.75	0.073
Mof_C 	C 	0.6432	0.25	0.75	0.168
Mof_C 	C 	0.599	0.25	0.75	-0.113
Mof_C 	C 	0.5216	0.25	0.75	0.082
Mof_C 	C 	0.1432	0.25	0.25	0.167
Mof_C 	C 	0.099	0.25	0.25	-0.112
Mof_C 	C 	0.0216	0.25	0.25	0.072
Mof_O 	O 	0.2217	0.7217	0.3332	-0.427
Mof_O 	O 	0.2217	0.2217	0.8332	-0.427
Mof_O 	O 	0.7217	0.7217	0.8332	-0.427
Mof_O 	O 	0.7783	0.2783	0.3332	-0.427
Mof_O 	O 	0.7783	0.7783	0.8332	-0.426
Mof_O 	O 	0.7783	0.7217	0.6668	-0.427
Mof_O 	O 	0.7783	0.2217	0.1668	-0.427
Mof_O 	O 	0.2217	0.2783	0.6668	-0.427
Mof_O 	O 	0.2217	0.7783	0.1668	-0.427
Mof_O 	O 	0.7217	0.7783	0.6668	-0.427
Mof_O 	O 	0.3332	0.2217	0.7217	-0.427
Mof_O 	O 	0.8332	0.2217	0.2217	-0.427
Mof_O 	O 	0.8332	0.7217	0.7217	-0.427
Mof_O 	O 	0.3332	0.7783	0.2783	-0.427
Mof_O 	O 	0.8332	0.7783	0.7783	-0.426
Mof_O 	O 	0.6668	0.7783	0.7217	-0.427
Mof_O 	O 	0.1668	0.7783	0.2217	-0.427
Mof_O 	O 	0.6668	0.2217	0.2783	-0.427
Mof_O 	O 	0.6668	0.7217	0.7783	-0.427
Mof_O 	O 	0.1668	0.2217	0.7783	-0.427
Mof_O 	O 	0.7217	0.3332	0.2217	-0.427
Mof_O 	O 	0.7217	0.8332	0.7217	-0.427
Mof_O 	O 	0.2783	0.3332	0.7783	-0.427
Mof_O 	O 	0.2783	0.8332	0.2783	-0.427
Mof_O 	O 	0.7783	0.8332	0.7783	-0.426
Mof_O 	O 	0.7217	0.6668	0.7783	-0.427
Mof_O 	O 	0.7217	0.1668	0.2783	-0.427
Mof_O 	O 	0.2783	0.6668	0.2217	-0.427
Mof_O 	O 	0.2783	0.1668	0.7217	-0.427
Mof_O 	O 	0.7783	0.6668	0.7217	-0.427
Mof_O 	O 	0.7217	0.2217	0.6668	-0.427
Mof_O 	O 	0.7217	0.7217	0.1668	-0.427
Mof_O 	O 	0.2783	0.7783	0.6668	-0.427
Mof_O 	O 	0.2783	0.2783	0.1668	-0.428
Mof_O 	O 	0.7783	0.7783	0.1668	-0.427
Mof_O 	O 	0.7217	0.7783	0.3332	-0.427
Mof_O 	O 	0.7217	0.2783	0.8332	-0.427
Mof_O 	O 	0.2783	0.2217	0.3332	-0.427
Mof_O 	O 	0.2783	0.7217	0.8332	-0.427
Mof_O 	O 	0.7783	0.7217	0.3332	-0.427
Mof_O 	O 	0.2217	0.3332	0.2783	-0.427
Mof_O 	O 	0.2217	0.8332	0.7783	-0.427
Mof_O 	O 	0.7217	0.3332	0.7783	-0.427
Mof_O 	O 	0.7783	0.3332	0.7217	-0.427
Mof_O 	O 	0.7783	0.8332	0.2217	-0.427
Mof_O 	O 	0.7783	0.6668	0.2783	-0.427
Mof_O 	O 	0.7783	0.1668	0.7783	-0.427
Mof_O 	O 	0.2217	0.6668	0.7217	-0.427
Mof_O 	O 	0.2217	0.1668	0.2217	-0.428
Mof_O 	O 	0.7217	0.1668	0.7217	-0.427
Mof_O 	O 	0.3332	0.7217	0.7783	-0.427
Mof_O 	O 	0.8332	0.7217	0.2783	-0.427
Mof_O 	O 	0.3332	0.2783	0.2217	-0.427
Mof_O 	O 	0.3332	0.7783	0.7217	-0.427
Mof_O 	O 	0.8332	0.2783	0.7217	-0.427
Mof_O 	O 	0.6668	0.7217	0.2217	-0.427
Mof_O 	O 	0.1668	0.7217	0.7217	-0.427
Mof_O 	O 	0.6668	0.2783	0.7783	-0.427
Mof_O 	O 	0.1668	0.2783	0.2783	-0.428
Mof_O 	O 	0.1668	0.7783	0.7783	-0.427
Mof_O 	O 	0.7783	0.2783	0.6668	-0.427
Mof_O 	O 	0.2217	0.7217	0.6668	-0.427
Mof_O 	O 	0.2217	0.2217	0.1668	-0.428
Mof_O 	O 	0.2217	0.2783	0.3332	-0.427
Mof_O 	O 	0.2217	0.7783	0.8332	-0.427
Mof_O 	O 	0.7783	0.2217	0.8332	-0.427
Mof_O 	O 	0.6668	0.7783	0.2783	-0.427
Mof_O 	O 	0.6668	0.2217	0.7217	-0.427
Mof_O 	O 	0.1668	0.2217	0.2217	-0.428
Mof_O 	O 	0.3332	0.2217	0.2783	-0.427
Mof_O 	O 	0.8332	0.2217	0.7783	-0.427
Mof_O 	O 	0.8332	0.7783	0.2217	-0.427
Mof_O 	O 	0.2783	0.6668	0.7783	-0.427
Mof_O 	O 	0.2783	0.1668	0.2783	-0.428
Mof_O 	O 	0.7217	0.6668	0.2217	-0.427
Mof_O 	O 	0.2783	0.3332	0.2217	-0.427
Mof_O 	O 	0.2783	0.8332	0.7217	-0.427
Mof_O 	O 	0.7217	0.8332	0.2783	-0.427
Mof_O 	O 	0.2783	0.7783	0.3332	-0.427
Mof_O 	O 	0.2783	0.2783	0.8332	-0.427
Mof_O 	O 	0.7217	0.2217	0.3332	-0.427
Mof_O 	O 	0.2783	0.2217	0.6668	-0.427
Mof_O 	O 	0.2783	0.7217	0.1668	-0.427
Mof_O 	O 	0.7217	0.2783	0.1668	-0.427
Mof_O 	O 	0.7783	0.1668	0.2217	-0.427
Mof_O 	O 	0.2217	0.6668	0.2783	-0.427
Mof_O 	O 	0.2217	0.1668	0.7783	-0.427
Mof_O 	O 	0.2217	0.3332	0.7217	-0.427
Mof_O 	O 	0.2217	0.8332	0.2217	-0.427
Mof_O 	O 	0.7783	0.3332	0.2783	-0.427
Mof_O 	O 	0.6668	0.2783	0.2217	-0.427
Mof_O 	O 	0.1668	0.2783	0.7217	-0.427
Mof_O 	O 	0.1668	0.7217	0.2783	-0.427
Mof_O 	O 	0.3332	0.2783	0.7783	-0.427
Mof_O 	O 	0.8332	0.2783	0.2783	-0.427
Mof_O 	O 	0.3332	0.7217	0.2217	-0.427
Mof_Zn	Zn	0.2171	0.7171	0.2829	1.247
Mof_Zn	Zn	0.2171	0.2171	0.7829	1.247
Mof_Zn	Zn	0.7829	0.2829	0.2829	1.247
Mof_Zn	Zn	0.7829	0.7829	0.7829	1.247
Mof_Zn	Zn	0.7829	0.7171	0.7171	1.247
Mof_Zn	Zn	0.7829	0.2171	0.2171	1.247
Mof_Zn	Zn	0.2171	0.2829	0.7171	1.247
Mof_Zn	Zn	0.2171	0.7829	0.2171	1.247
Mof_Zn	Zn	0.2829	0.2171	0.7171	1.247
Mof_Zn	Zn	0.2829	0.7829	0.2829	1.247
Mof_Zn	Zn	0.7171	0.7829	0.7171	1.247
Mof_Zn	Zn	0.7171	0.2171	0.2829	1.247
Mof_Zn	Zn	0.7171	0.2829	0.2171	1.247
Mof_Zn	Zn	0.2829	0.2829	0.7829	1.247
Mof_Zn	Zn	0.7171	0.7171	0.7829	1.247
Mof_Zn	Zn	0.2829	0.7171	0.2171	1.247
Mof_Zn	Zn	0.7171	0.2171	0.7171	1.247
Mof_Zn	Zn	0.2829	0.7829	0.7171	1.247
Mof_Zn	Zn	0.7171	0.7829	0.2829	1.247
Mof_Zn	Zn	0.2829	0.2171	0.2829	1.247
Mof_Zn	Zn	0.2171	0.2829	0.2829	1.247
Mof_Zn	Zn	0.2171	0.7829	0.7829	1.247
Mof_Zn	Zn	0.7829	0.2829	0.7171	1.247
Mof_Zn	Zn	0.7829	0.7829	0.2171	1.247
Mof_Zn	Zn	0.7829	0.7171	0.2829	1.247
Mof_Zn	Zn	0.7829	0.2171	0.7829	1.247
Mof_Zn	Zn	0.2171	0.7171	0.7171	1.247
Mof_Zn	Zn	0.2171	0.2171	0.2171	1.247
Mof_Zn	Zn	0.2829	0.7171	0.7829	1.247
Mof_Zn	Zn	0.2829	0.2829	0.2171	1.247
Mof_Zn	Zn	0.7171	0.7171	0.2171	1.247
Mof_Zn	Zn	0.7171	0.2829	0.7829	1.247
Mof_O 	O 	0.25	0.75	0.25	-0.945
Mof_O 	O 	0.75	0.25	0.25	-0.945
Mof_O 	O 	0.75	0.75	0.75	-0.945
Mof_O 	O 	0.25	0.25	0.75	-0.945
Mof_O 	O 	0.75	0.25	0.75	-0.945
Mof_O 	O 	0.25	0.75	0.75	-0.945
Mof_O 	O 	0.25	0.25	0.25	-0.945
Mof_O 	O 	0.75	0.75	0.25	-0.945
Mof_Ir	Ir	0.273	0.8139	0.5	0.295
Mof_Ir	Ir	0.273	0.3139	-0	0.281
Mof_Ir	Ir	0.773	0.8139	-0	0.283
Mof_Ir	Ir	0.773	0.3139	0.5	0.294
Mof_Ir	Ir	0.727	0.1861	0.5	0.293
Mof_Ir	Ir	0.727	0.6861	-0	0.282
Mof_Ir	Ir	0.227	0.1861	-0	0.281
Mof_Ir	Ir	0.227	0.6861	0.5	0.294
Mof_Ir	Ir	0.727	0.8139	0.5	0.296
Mof_Ir	Ir	0.727	0.3139	-0	0.283
Mof_Ir	Ir	0.227	0.8139	-0	0.283
Mof_Ir	Ir	0.227	0.3139	0.5	0.294
Mof_Ir	Ir	0.273	0.1861	0.5	0.292
Mof_Ir	Ir	0.273	0.6861	-0	0.281
Mof_Ir	Ir	0.773	0.1861	-0	0.281
Mof_Ir	Ir	0.773	0.6861	0.5	0.293
Mof_Ir	Ir	0.5	0.273	0.8139	0.295
Mof_Ir	Ir	0.5	0.773	0.3139	0.294
Mof_Ir	Ir	3.74058e-33	0.273	0.3139	0.281
Mof_Ir	Ir	3.05164e-33	0.773	0.8139	0.283
Mof_Ir	Ir	0.5	0.727	0.1861	0.293
Mof_Ir	Ir	0.5	0.227	0.6861	0.294
Mof_Ir	Ir	-7.68212e-33	0.727	0.6861	0.282
Mof_Ir	Ir	6.97763e-34	0.227	0.1861	0.281
Mof_Ir	Ir	0.5	0.727	0.8139	0.296
Mof_Ir	Ir	0.5	0.227	0.3139	0.294
Mof_Ir	Ir	1.17694e-33	0.727	0.3139	0.283
Mof_Ir	Ir	3.05164e-33	0.227	0.8139	0.283
Mof_Ir	Ir	0.5	0.273	0.1861	0.292
Mof_Ir	Ir	0.5	0.773	0.6861	0.293
Mof_Ir	Ir	-7.68212e-33	0.273	0.6861	0.281
Mof_Ir	Ir	-1.86588e-33	0.773	0.1861	0.281
Mof_Ir	Ir	0.8139	0.5	0.273	0.295
Mof_Ir	Ir	0.8139	0	0.773	0.283
Mof_Ir	Ir	0.3139	0.5	0.773	0.294
Mof_Ir	Ir	0.3139	0	0.273	0.281
Mof_Ir	Ir	0.1861	0.5	0.727	0.293
Mof_Ir	Ir	0.1861	0	0.227	0.281
Mof_Ir	Ir	0.6861	0.5	0.227	0.294
Mof_Ir	Ir	0.6861	-5.12729e-33	0.727	0.282
Mof_Ir	Ir	0.8139	0.5	0.727	0.296
Mof_Ir	Ir	0.8139	0	0.227	0.283
Mof_Ir	Ir	0.3139	0.5	0.227	0.294
Mof_Ir	Ir	0.3139	-5.12729e-33	0.727	0.283
Mof_Ir	Ir	0.1861	0.5	0.273	0.292
Mof_Ir	Ir	0.1861	0	0.773	0.281
Mof_Ir	Ir	0.6861	0.5	0.773	0.293
Mof_Ir	Ir	0.6861	0	0.273	0.281
Mof_Ir	Ir	0.8139	0.273	0.5	0.295
Mof_Ir	Ir	0.8139	0.773	-0	0.283
Mof_Ir	Ir	0.3139	0.273	-0	0.281
Mof_Ir	Ir	0.3139	0.773	0.5	0.294
Mof_Ir	Ir	0.1861	0.727	0.5	0.293
Mof_Ir	Ir	0.1861	0.227	-0	0.281
Mof_Ir	Ir	0.6861	0.727	-0	0.282
Mof_Ir	Ir	0.6861	0.227	0.5	0.294
Mof_Ir	Ir	0.8139	0.727	0.5	0.296
Mof_Ir	Ir	0.8139	0.227	-0	0.283
Mof_Ir	Ir	0.3139	0.727	-0	0.283
Mof_Ir	Ir	0.3139	0.227	0.5	0.294
Mof_Ir	Ir	0.1861	0.273	0.5	0.292
Mof_Ir	Ir	0.1861	0.773	-0	0.281
Mof_Ir	Ir	0.6861	0.273	-0	0.281
Mof_Ir	Ir	0.6861	0.773	0.5	0.293
Mof_Ir	Ir	0.273	0.5	0.1861	0.292
Mof_Ir	Ir	0.273	0	0.6861	0.281
Mof_Ir	Ir	0.773	0.5	0.6861	0.293
Mof_Ir	Ir	0.773	-1.28182e-33	0.1861	0.281
Mof_Ir	Ir	0.727	0.5	0.8139	0.296
Mof_Ir	Ir	0.727	0	0.3139	0.283
Mof_Ir	Ir	0.227	0.5	0.3139	0.294
Mof_Ir	Ir	0.227	0	0.8139	0.283
Mof_Ir	Ir	0.727	0.5	0.1861	0.293
Mof_Ir	Ir	0.727	0	0.6861	0.282
Mof_Ir	Ir	0.227	0.5	0.6861	0.294
Mof_Ir	Ir	0.227	-1.28182e-33	0.1861	0.281
Mof_Ir	Ir	0.273	0.5	0.8139	0.295
Mof_Ir	Ir	0.273	0	0.3139	0.281
Mof_Ir	Ir	0.773	0.5	0.3139	0.294
Mof_Ir	Ir	0.773	0	0.8139	0.283
Mof_Ir	Ir	0.5	0.8139	0.727	0.296
Mof_Ir	Ir	0.5	0.3139	0.227	0.294
Mof_Ir	Ir	3.41476e-33	0.8139	0.227	0.283
Mof_Ir	Ir	2.72581e-33	0.3139	0.727	0.283
Mof_Ir	Ir	0.5	0.1861	0.273	0.292
Mof_Ir	Ir	0.5	0.6861	0.773	0.293
Mof_Ir	Ir	-7.3563e-33	0.1861	0.773	0.281
Mof_Ir	Ir	-6.66735e-33	0.6861	0.273	0.281
Mof_Ir	Ir	0.5	0.8139	0.273	0.295
Mof_Ir	Ir	0.5	0.3139	0.773	0.294
Mof_Ir	Ir	2.89829e-33	0.8139	0.773	0.283
Mof_Ir	Ir	3.58723e-33	0.3139	0.273	0.281
Mof_Ir	Ir	0.5	0.1861	0.727	0.293
Mof_Ir	Ir	0.5	0.6861	0.227	0.294
Mof_Ir	Ir	-1.71253e-33	0.1861	0.227	0.281
Mof_Ir	Ir	-7.52877e-33	0.6861	0.727	0.282
_end
