data_functionalizedCrystal
_audit_creation_method	'EQeq! by Chris Wilmer'
_symmetry_space_group_name_H-M	'P1'
_symmetry_Int_Tables_number	1
_symmetry_cell_setting	triclinic
loop_
_symmetry_equiv_pos_as_xyz
  x,y,z
_cell_length_a	7.3181
_cell_length_b	29.042
_cell_length_c	23.593
_cell_angle_alpha	90
_cell_angle_beta	91.721
_cell_angle_gamma	90
loop_
_atom_site_label
_atom_site_type_symbol
_atom_site_fract_x
_atom_site_fract_y
_atom_site_fract_z
_atom_site_charge
Mof_C 	C 	0.7785	0.71122	0.16395	0.393
Mof_C 	C 	0.8721	0.67875	0.20449	-0.208
Mof_C 	C 	0.0556	0.68478	0.22054	0.184
Mof_H 	H 	0.1217	0.7089	0.2054	-0.004
Mof_C 	C 	0.1398	0.65496	0.2589	-0.313
Mof_H 	H 	0.2615	0.6597	0.2699	0.182
Mof_C 	C 	0.0444	0.61783	0.2813	0.387
Mof_C 	C 	0.8634	0.61187	0.26432	-0.31
Mof_H 	H 	0.7979	0.5872	0.2785	0.269
Mof_C 	C 	0.778	0.64203	0.2265	0.21
Mof_H 	H 	0.656	0.6375	0.2158	0.03
Mof_C 	C 	0.1479	0.58595	0.32337	-0.516
Mof_C 	C 	0.0157	0.55297	0.35406	0.971
Mof_C 	C 	0.2821	0.55669	0.28849	0.988
Mof_C 	C 	0.2465	0.61408	0.37091	0.385
Mof_C 	C 	0.1524	0.65154	0.39309	-0.314
Mof_H 	H 	0.0386	0.6597	0.3776	0.175
Mof_C 	C 	0.2276	0.67657	0.43794	0.202
Mof_H 	H 	0.1626	0.7011	0.4526	-0.013
Mof_C 	C 	0.3975	0.66569	0.46127	-0.217
Mof_C 	C 	0.4928	0.62893	0.43863	0.209
Mof_H 	H 	0.6086	0.6216	0.4533	0.012
Mof_C 	C 	0.4167	0.60313	0.39444	-0.318
Mof_H 	H 	0.4808	0.5781	0.3804	0.245
Mof_C 	C 	0.477	0.69229	0.51053	0.399
Mof_C 	C 	0.4443	0.80185	0.16695	0.405
Mof_C 	C 	0.3598	0.82793	0.21446	-0.225
Mof_C 	C 	0.1926	0.8151	0.2358	0.213
Mof_H 	H 	0.1293	0.7902	0.2202	-0.014
Mof_C 	C 	0.1201	0.83936	0.28035	-0.333
Mof_H 	H 	0.0094	0.83	0.295	0.178
Mof_C 	C 	0.2094	0.87725	0.3035	0.402
Mof_C 	C 	0.3756	0.89041	0.28177	-0.327
Mof_H 	H 	0.4373	0.9159	0.2966	0.275
Mof_C 	C 	0.4489	0.86564	0.23804	0.234
Mof_H 	H 	0.561	0.8745	0.2241	0.018
Mof_C 	C 	0.1114	0.90556	0.34948	-0.528
Mof_C 	C 	0.2474	0.93541	0.38617	0.991
Mof_C 	C 	0.9793	0.93825	0.31693	0.988
Mof_C 	C 	0.0141	0.87409	0.3912	0.391
Mof_C 	C 	0.1125	0.83719	0.41529	-0.315
Mof_H 	H 	0.2314	0.8317	0.4043	0.182
Mof_C 	C 	0.0355	0.80873	0.45524	0.19
Mof_H 	H 	0.1033	0.7847	0.4713	-0.007
Mof_C 	C 	0.8576	0.8162	0.47122	-0.207
Mof_C 	C 	0.7601	0.85257	0.44756	0.21
Mof_H 	H 	0.6404	0.8577	0.4582	0.029
Mof_C 	C 	0.8373	0.88132	0.40858	-0.318
Mof_H 	H 	0.7699	0.9059	0.3937	0.264
Mof_C 	C 	0.7717	0.78641	0.51532	0.387
Mof_C 	C 	0.0833	0.85893	0.0775	0.114
Mof_H 	H 	0.1272	0.8429	0.0466	0.014
Mof_C 	C 	0.9297	0.87774	0.14847	0.039
Mof_H 	H 	0.843	0.8771	0.1765	0.079
Mof_C 	C 	0.0565	0.91087	0.14269	0.006
Mof_H 	H 	0.0738	0.9366	0.1657	0.158
Mof_C 	C 	0.2986	0.92511	0.07276	0.087
Mof_C 	C 	0.4783	0.91936	0.08054	-0.066
Mof_H 	H 	0.5307	0.8968	0.1038	0.096
Mof_C 	C 	0.5804	0.95151	0.04945	-0.006
Mof_H 	H 	0.7075	0.9523	0.0499	0.1
Mof_C 	C 	0.473	0.98129	0.01871	0.023
Mof_C 	C 	0.0471	0.6053	0.086	-1.12
Mof_H 	H 	0.9229	0.6159	0.0867	0.411
Mof_H 	H 	0.0735	0.5868	0.119	0.454
Mof_H 	H 	0.0639	0.5872	0.0525	0.447
Mof_C 	C 	0.1776	0.6472	0.0858	0.41
Mof_Cu	Cu	0.76402	0.78893	0.09261	0.92
Mof_Cu	Cu	0.47225	0.73205	0.08769	0.928
Mof_F 	F 	0.8845	0.57521	0.37948	-0.525
Mof_F 	F 	0.9368	0.52204	0.31879	-0.435
Mof_F 	F 	0.1055	0.52817	0.39432	-0.483
Mof_F 	F 	0.1987	0.53942	0.24203	-0.42
Mof_F 	F 	0.3529	0.52065	0.31691	-0.446
Mof_F 	F 	0.421	0.58155	0.27129	-0.51
Mof_F 	F 	0.1648	0.95262	0.43111	-0.462
Mof_F 	F 	0.3142	0.97114	0.35803	-0.435
Mof_F 	F 	0.3893	0.91112	0.40532	-0.515
Mof_F 	F 	0.0636	0.96098	0.27606	-0.42
Mof_F 	F 	0.9053	0.97018	0.35019	-0.429
Mof_F 	F 	0.8417	0.9154	0.29203	-0.504
Mof_N 	N 	0.9469	0.84514	0.10706	-0.182
Mof_N 	N 	0.1546	0.89929	0.09657	-0.117
Mof_N 	N 	0.2561	0.68058	0.08428	-0.267
Mof_O 	O 	0.8598	0.74779	0.15187	-0.4
Mof_O 	O 	0.6246	0.69865	0.14427	-0.397
Mof_O 	O 	0.3792	0.72378	0.53005	-0.4
Mof_O 	O 	0.6325	0.68059	0.52944	-0.405
Mof_O 	O 	0.5922	0.8172	0.14883	-0.406
Mof_O 	O 	0.3624	0.76666	0.14893	-0.398
Mof_O 	O 	0.8653	0.75386	0.53602	-0.392
Mof_O 	O 	0.6108	0.79702	0.52823	-0.396
Mof_S 	S 	0.24476	0.96978	0.02746	0.13
Mof_C 	C 	0.2215	0.21122	0.33605	0.394
Mof_C 	C 	0.1279	0.17875	0.29551	-0.205
Mof_C 	C 	0.9444	0.18478	0.27946	0.182
Mof_H 	H 	0.8783	0.2089	0.2946	-0.002
Mof_C 	C 	0.8602	0.15496	0.2411	-0.311
Mof_H 	H 	0.7385	0.1597	0.2301	0.183
Mof_C 	C 	0.9556	0.11783	0.2187	0.385
Mof_C 	C 	0.1366	0.11187	0.23568	-0.306
Mof_H 	H 	0.2021	0.0872	0.2215	0.268
Mof_C 	C 	0.222	0.14203	0.2735	0.209
Mof_H 	H 	0.344	0.1375	0.2842	0.031
Mof_C 	C 	0.8521	0.08595	0.17663	-0.515
Mof_C 	C 	0.9843	0.05297	0.14594	0.969
Mof_C 	C 	0.7179	0.05669	0.21151	0.988
Mof_C 	C 	0.7535	0.11408	0.12909	0.385
Mof_C 	C 	0.8476	0.15154	0.10691	-0.314
Mof_H 	H 	0.9614	0.1597	0.1224	0.174
Mof_C 	C 	0.7724	0.17657	0.06206	0.201
Mof_H 	H 	0.8374	0.2011	0.0474	-0.013
Mof_C 	C 	0.6025	0.16569	0.03873	-0.216
Mof_C 	C 	0.5072	0.12893	0.06137	0.208
Mof_H 	H 	0.3914	0.1216	0.0467	0.012
Mof_C 	C 	0.5833	0.10313	0.10556	-0.317
Mof_H 	H 	0.5192	0.0781	0.1196	0.245
Mof_C 	C 	0.523	0.19229	0.98947	0.399
Mof_C 	C 	0.5557	0.30185	0.33305	0.405
Mof_C 	C 	0.6402	0.32793	0.28554	-0.225
Mof_C 	C 	0.8074	0.3151	0.2642	0.213
Mof_H 	H 	0.8707	0.2902	0.2798	-0.014
Mof_C 	C 	0.8799	0.33936	0.21965	-0.333
Mof_H 	H 	0.9906	0.33	0.205	0.178
Mof_C 	C 	0.7906	0.37725	0.1965	0.402
Mof_C 	C 	0.6244	0.39041	0.21823	-0.327
Mof_H 	H 	0.5627	0.4159	0.2034	0.275
Mof_C 	C 	0.5511	0.36564	0.26196	0.234
Mof_H 	H 	0.439	0.3745	0.2759	0.018
Mof_C 	C 	0.8886	0.40556	0.15052	-0.527
Mof_C 	C 	0.7526	0.43541	0.11383	0.991
Mof_C 	C 	0.0207	0.43825	0.18307	0.988
Mof_C 	C 	0.9859	0.37409	0.1088	0.39
Mof_C 	C 	0.8875	0.33719	0.08471	-0.314
Mof_H 	H 	0.7686	0.3317	0.0957	0.182
Mof_C 	C 	0.9645	0.30873	0.04476	0.188
Mof_H 	H 	0.8967	0.2847	0.0287	-0.006
Mof_C 	C 	0.1424	0.3162	0.02878	-0.204
Mof_C 	C 	0.2399	0.35257	0.05244	0.209
Mof_H 	H 	0.3596	0.3577	0.0418	0.03
Mof_C 	C 	0.1627	0.38132	0.09142	-0.317
Mof_H 	H 	0.2301	0.4059	0.1063	0.263
Mof_C 	C 	0.2283	0.28641	0.98468	0.386
Mof_C 	C 	0.9167	0.35893	0.4225	0.114
Mof_H 	H 	0.8728	0.3429	0.4534	0.014
Mof_C 	C 	0.0703	0.37774	0.35153	0.04
Mof_H 	H 	0.157	0.3771	0.3235	0.078
Mof_C 	C 	0.9435	0.41087	0.35731	0.006
Mof_H 	H 	0.9262	0.4366	0.3343	0.158
Mof_C 	C 	0.7014	0.42511	0.42724	0.087
Mof_C 	C 	0.5217	0.41936	0.41946	-0.066
Mof_H 	H 	0.4693	0.3968	0.3962	0.096
Mof_C 	C 	0.4196	0.45151	0.45055	-0.006
Mof_H 	H 	0.2925	0.4523	0.4501	0.1
Mof_C 	C 	0.527	0.48129	0.48129	0.024
Mof_C 	C 	0.9529	0.1053	0.414	-1.123
Mof_H 	H 	0.0771	0.1159	0.4133	0.412
Mof_H 	H 	0.9265	0.0868	0.381	0.454
Mof_H 	H 	0.9361	0.0872	0.4475	0.448
Mof_C 	C 	0.8224	0.1472	0.4142	0.41
Mof_Cu	Cu	0.23598	0.28893	0.40739	0.92
Mof_Cu	Cu	0.52775	0.23205	0.41231	0.928
Mof_F 	F 	0.1155	0.07521	0.12052	-0.524
Mof_F 	F 	0.0632	0.02204	0.18121	-0.435
Mof_F 	F 	0.8945	0.02817	0.10568	-0.483
Mof_F 	F 	0.8013	0.03942	0.25797	-0.42
Mof_F 	F 	0.6471	0.02065	0.18309	-0.446
Mof_F 	F 	0.579	0.08155	0.22871	-0.51
Mof_F 	F 	0.8352	0.45262	0.06889	-0.462
Mof_F 	F 	0.6858	0.47114	0.14197	-0.435
Mof_F 	F 	0.6107	0.41112	0.09468	-0.515
Mof_F 	F 	0.9364	0.46098	0.22394	-0.42
Mof_F 	F 	0.0947	0.47018	0.14981	-0.428
Mof_F 	F 	0.1583	0.4154	0.20797	-0.504
Mof_N 	N 	0.0531	0.34514	0.39294	-0.182
Mof_N 	N 	0.8454	0.39929	0.40343	-0.117
Mof_N 	N 	0.7439	0.18058	0.41572	-0.267
Mof_O 	O 	0.1402	0.24779	0.34813	-0.399
Mof_O 	O 	0.3754	0.19865	0.35573	-0.396
Mof_O 	O 	0.6208	0.22378	0.96995	-0.4
Mof_O 	O 	0.3675	0.18059	0.97056	-0.405
Mof_O 	O 	0.4078	0.3172	0.35117	-0.406
Mof_O 	O 	0.6376	0.26666	0.35107	-0.398
Mof_O 	O 	0.1347	0.25386	0.96398	-0.392
Mof_O 	O 	0.3892	0.29702	0.97177	-0.395
Mof_S 	S 	0.75524	0.46978	0.47254	0.131
Mof_C 	C 	0.2215	0.28878	0.83605	0.394
Mof_C 	C 	0.1279	0.32125	0.79551	-0.207
Mof_C 	C 	0.9444	0.31522	0.77946	0.185
Mof_H 	H 	0.8783	0.2911	0.7946	-0.003
Mof_C 	C 	0.8602	0.34504	0.7411	-0.312
Mof_H 	H 	0.7385	0.3403	0.7301	0.183
Mof_C 	C 	0.9556	0.38217	0.7187	0.388
Mof_C 	C 	0.1366	0.38813	0.73568	-0.309
Mof_H 	H 	0.2021	0.4128	0.7215	0.269
Mof_C 	C 	0.222	0.35797	0.7735	0.21
Mof_H 	H 	0.344	0.3625	0.7842	0.03
Mof_C 	C 	0.8521	0.41405	0.67663	-0.516
Mof_C 	C 	0.9843	0.44703	0.64594	0.971
Mof_C 	C 	0.7179	0.44331	0.71151	0.988
Mof_C 	C 	0.7535	0.38592	0.62909	0.385
Mof_C 	C 	0.8476	0.34846	0.60691	-0.314
Mof_H 	H 	0.9614	0.3403	0.6224	0.175
Mof_C 	C 	0.7724	0.32343	0.56206	0.202
Mof_H 	H 	0.8374	0.2989	0.5474	-0.013
Mof_C 	C 	0.6025	0.33431	0.53873	-0.217
Mof_C 	C 	0.5072	0.37107	0.56137	0.209
Mof_H 	H 	0.3914	0.3784	0.5467	0.012
Mof_C 	C 	0.5833	0.39687	0.60556	-0.318
Mof_H 	H 	0.5192	0.4219	0.6196	0.245
Mof_C 	C 	0.523	0.30771	0.48947	0.399
Mof_C 	C 	0.5557	0.19815	0.83305	0.405
Mof_C 	C 	0.6402	0.17207	0.78554	-0.225
Mof_C 	C 	0.8074	0.1849	0.7642	0.213
Mof_H 	H 	0.8707	0.2098	0.7798	-0.014
Mof_C 	C 	0.8799	0.16064	0.71965	-0.333
Mof_H 	H 	0.9906	0.17	0.705	0.178
Mof_C 	C 	0.7906	0.12275	0.6965	0.402
Mof_C 	C 	0.6244	0.10959	0.71823	-0.327
Mof_H 	H 	0.5627	0.0841	0.7034	0.275
Mof_C 	C 	0.5511	0.13436	0.76196	0.234
Mof_H 	H 	0.439	0.1255	0.7759	0.018
Mof_C 	C 	0.8886	0.09444	0.65052	-0.528
Mof_C 	C 	0.7526	0.06459	0.61383	0.991
Mof_C 	C 	0.0207	0.06175	0.68307	0.988
Mof_C 	C 	0.9859	0.12591	0.6088	0.391
Mof_C 	C 	0.8875	0.16281	0.58471	-0.315
Mof_H 	H 	0.7686	0.1683	0.5957	0.182
Mof_C 	C 	0.9645	0.19127	0.54476	0.19
Mof_H 	H 	0.8967	0.2153	0.5287	-0.007
Mof_C 	C 	0.1424	0.1838	0.52878	-0.207
Mof_C 	C 	0.2399	0.14743	0.55244	0.21
Mof_H 	H 	0.3596	0.1423	0.5418	0.029
Mof_C 	C 	0.1627	0.11868	0.59142	-0.318
Mof_H 	H 	0.2301	0.0941	0.6063	0.264
Mof_C 	C 	0.2283	0.21359	0.48468	0.387
Mof_C 	C 	0.9167	0.14107	0.9225	0.114
Mof_H 	H 	0.8728	0.1571	0.9534	0.014
Mof_C 	C 	0.0703	0.12226	0.85153	0.039
Mof_H 	H 	0.157	0.1229	0.8235	0.079
Mof_C 	C 	0.9435	0.08913	0.85731	0.006
Mof_H 	H 	0.9262	0.0634	0.8343	0.158
Mof_C 	C 	0.7014	0.07489	0.92724	0.087
Mof_C 	C 	0.5217	0.08064	0.91946	-0.066
Mof_H 	H 	0.4693	0.1032	0.8962	0.096
Mof_C 	C 	0.4196	0.04849	0.95055	-0.006
Mof_H 	H 	0.2925	0.0477	0.9501	0.1
Mof_C 	C 	0.527	0.01871	0.98129	0.023
Mof_C 	C 	0.9529	0.3947	0.914	-1.12
Mof_H 	H 	0.0771	0.3841	0.9133	0.411
Mof_H 	H 	0.9265	0.4132	0.881	0.454
Mof_H 	H 	0.9361	0.4128	0.9475	0.447
Mof_C 	C 	0.8224	0.3528	0.9142	0.41
Mof_Cu	Cu	0.23598	0.21107	0.90739	0.92
Mof_Cu	Cu	0.52775	0.26795	0.91231	0.928
Mof_F 	F 	0.1155	0.42479	0.62052	-0.525
Mof_F 	F 	0.0632	0.47796	0.68121	-0.435
Mof_F 	F 	0.8945	0.47183	0.60568	-0.483
Mof_F 	F 	0.8013	0.46058	0.75797	-0.42
Mof_F 	F 	0.6471	0.47935	0.68309	-0.446
Mof_F 	F 	0.579	0.41845	0.72871	-0.51
Mof_F 	F 	0.8352	0.04738	0.56889	-0.462
Mof_F 	F 	0.6858	0.02886	0.64197	-0.435
Mof_F 	F 	0.6107	0.08888	0.59468	-0.515
Mof_F 	F 	0.9364	0.03902	0.72394	-0.42
Mof_F 	F 	0.0947	0.02982	0.64981	-0.429
Mof_F 	F 	0.1583	0.0846	0.70797	-0.504
Mof_N 	N 	0.0531	0.15486	0.89294	-0.182
Mof_N 	N 	0.8454	0.10071	0.90343	-0.117
Mof_N 	N 	0.7439	0.31942	0.91572	-0.267
Mof_O 	O 	0.1402	0.25221	0.84813	-0.4
Mof_O 	O 	0.3754	0.30135	0.85573	-0.397
Mof_O 	O 	0.6208	0.27622	0.46995	-0.4
Mof_O 	O 	0.3675	0.31941	0.47056	-0.405
Mof_O 	O 	0.4078	0.1828	0.85117	-0.406
Mof_O 	O 	0.6376	0.23334	0.85107	-0.398
Mof_O 	O 	0.1347	0.24614	0.46398	-0.392
Mof_O 	O 	0.3892	0.20298	0.47177	-0.396
Mof_S 	S 	0.75524	0.03022	0.97254	0.13
Mof_C 	C 	0.7785	0.78878	0.66395	0.394
Mof_C 	C 	0.8721	0.82125	0.70449	-0.205
Mof_C 	C 	0.0556	0.81522	0.72054	0.182
Mof_H 	H 	0.1217	0.7911	0.7054	-0.002
Mof_C 	C 	0.1398	0.84504	0.7589	-0.311
Mof_H 	H 	0.2615	0.8403	0.7699	0.183
Mof_C 	C 	0.0444	0.88217	0.7813	0.385
Mof_C 	C 	0.8634	0.88813	0.76432	-0.306
Mof_H 	H 	0.7979	0.9128	0.7785	0.268
Mof_C 	C 	0.778	0.85797	0.7265	0.209
Mof_H 	H 	0.656	0.8625	0.7158	0.031
Mof_C 	C 	0.1479	0.91405	0.82337	-0.515
Mof_C 	C 	0.0157	0.94703	0.85406	0.969
Mof_C 	C 	0.2821	0.94331	0.78849	0.988
Mof_C 	C 	0.2465	0.88592	0.87091	0.385
Mof_C 	C 	0.1524	0.84846	0.89309	-0.314
Mof_H 	H 	0.0386	0.8403	0.8776	0.174
Mof_C 	C 	0.2276	0.82343	0.93794	0.201
Mof_H 	H 	0.1626	0.7989	0.9526	-0.013
Mof_C 	C 	0.3975	0.83431	0.96127	-0.216
Mof_C 	C 	0.4928	0.87107	0.93863	0.208
Mof_H 	H 	0.6086	0.8784	0.9533	0.012
Mof_C 	C 	0.4167	0.89687	0.89444	-0.317
Mof_H 	H 	0.4808	0.9219	0.8804	0.245
Mof_C 	C 	0.477	0.80771	0.01053	0.399
Mof_C 	C 	0.4443	0.69815	0.66695	0.405
Mof_C 	C 	0.3598	0.67207	0.71446	-0.225
Mof_C 	C 	0.1926	0.6849	0.7358	0.213
Mof_H 	H 	0.1293	0.7098	0.7202	-0.014
Mof_C 	C 	0.1201	0.66064	0.78035	-0.333
Mof_H 	H 	0.0094	0.67	0.795	0.178
Mof_C 	C 	0.2094	0.62275	0.8035	0.402
Mof_C 	C 	0.3756	0.60959	0.78177	-0.327
Mof_H 	H 	0.4373	0.5841	0.7966	0.275
Mof_C 	C 	0.4489	0.63436	0.73804	0.234
Mof_H 	H 	0.561	0.6255	0.7241	0.018
Mof_C 	C 	0.1114	0.59444	0.84948	-0.527
Mof_C 	C 	0.2474	0.56459	0.88617	0.991
Mof_C 	C 	0.9793	0.56175	0.81693	0.988
Mof_C 	C 	0.0141	0.62591	0.8912	0.39
Mof_C 	C 	0.1125	0.66281	0.91529	-0.314
Mof_H 	H 	0.2314	0.6683	0.9043	0.182
Mof_C 	C 	0.0355	0.69127	0.95524	0.188
Mof_H 	H 	0.1033	0.7153	0.9713	-0.006
Mof_C 	C 	0.8576	0.6838	0.97122	-0.204
Mof_C 	C 	0.7601	0.64743	0.94756	0.209
Mof_H 	H 	0.6404	0.6423	0.9582	0.03
Mof_C 	C 	0.8373	0.61868	0.90858	-0.317
Mof_H 	H 	0.7699	0.5941	0.8937	0.263
Mof_C 	C 	0.7717	0.71359	0.01532	0.386
Mof_C 	C 	0.0833	0.64107	0.5775	0.114
Mof_H 	H 	0.1272	0.6571	0.5466	0.014
Mof_C 	C 	0.9297	0.62226	0.64847	0.04
Mof_H 	H 	0.843	0.6229	0.6765	0.078
Mof_C 	C 	0.0565	0.58913	0.64269	0.006
Mof_H 	H 	0.0738	0.5634	0.6657	0.158
Mof_C 	C 	0.2986	0.57489	0.57276	0.087
Mof_C 	C 	0.4783	0.58064	0.58054	-0.066
Mof_H 	H 	0.5307	0.6032	0.6038	0.096
Mof_C 	C 	0.5804	0.54849	0.54945	-0.006
Mof_H 	H 	0.7075	0.5477	0.5499	0.1
Mof_C 	C 	0.473	0.51871	0.51871	0.024
Mof_C 	C 	0.0471	0.8947	0.586	-1.123
Mof_H 	H 	0.9229	0.8841	0.5867	0.412
Mof_H 	H 	0.0735	0.9132	0.619	0.454
Mof_H 	H 	0.0639	0.9128	0.5525	0.448
Mof_C 	C 	0.1776	0.8528	0.5858	0.41
Mof_Cu	Cu	0.76402	0.71107	0.59261	0.92
Mof_Cu	Cu	0.47225	0.76795	0.58769	0.928
Mof_F 	F 	0.8845	0.92479	0.87948	-0.524
Mof_F 	F 	0.9368	0.97796	0.81879	-0.435
Mof_F 	F 	0.1055	0.97183	0.89432	-0.483
Mof_F 	F 	0.1987	0.96058	0.74203	-0.42
Mof_F 	F 	0.3529	0.97935	0.81691	-0.446
Mof_F 	F 	0.421	0.91845	0.77129	-0.51
Mof_F 	F 	0.1648	0.54738	0.93111	-0.462
Mof_F 	F 	0.3142	0.52886	0.85803	-0.435
Mof_F 	F 	0.3893	0.58888	0.90532	-0.515
Mof_F 	F 	0.0636	0.53902	0.77606	-0.42
Mof_F 	F 	0.9053	0.52982	0.85019	-0.428
Mof_F 	F 	0.8417	0.5846	0.79203	-0.504
Mof_N 	N 	0.9469	0.65486	0.60706	-0.182
Mof_N 	N 	0.1546	0.60071	0.59657	-0.117
Mof_N 	N 	0.2561	0.81942	0.58428	-0.267
Mof_O 	O 	0.8598	0.75221	0.65187	-0.399
Mof_O 	O 	0.6246	0.80135	0.64427	-0.396
Mof_O 	O 	0.3792	0.77622	0.03005	-0.4
Mof_O 	O 	0.6325	0.81941	0.02944	-0.405
Mof_O 	O 	0.5922	0.6828	0.64883	-0.406
Mof_O 	O 	0.3624	0.73334	0.64893	-0.398
Mof_O 	O 	0.8653	0.74614	0.03602	-0.392
Mof_O 	O 	0.6108	0.70298	0.02823	-0.395
Mof_S 	S 	0.24476	0.53022	0.52746	0.131
_end
