data_functionalizedCrystal
_audit_creation_method	'EQeq! by Chris Wilmer'
_symmetry_space_group_name_H-M	'P1'
_symmetry_Int_Tables_number	1
_symmetry_cell_setting	triclinic
loop_
_symmetry_equiv_pos_as_xyz
  x,y,z
_cell_length_a	11.8325
_cell_length_b	14.5026
_cell_length_c	21.1003
_cell_angle_alpha	90
_cell_angle_beta	100.648
_cell_angle_gamma	90
loop_
_atom_site_label
_atom_site_type_symbol
_atom_site_fract_x
_atom_site_fract_y
_atom_site_fract_z
_atom_site_charge
Mof_Cd	Cd	0.57079	0.22745	0.94922	0.431
Mof_N 	N 	0.9246	0.8557	0.2477	-0.107
Mof_C 	C 	0.11	0.48	0.019	0.061
Mof_O 	O 	0.6483	0.1054	0.0175	-0.295
Mof_O 	O 	0.6919	0.2453	0.0518	-0.277
Mof_O 	O 	0.9837	0.4715	0.396	-0.309
Mof_O 	O 	0.0065	0.337	0.3551	-0.318
Mof_O 	O 	0.3734	0.099	0.01	-0.302
Mof_O 	O 	0.4055	0.2436	0.987	-0.303
Mof_C 	C 	0.85	0.89	0.19	-0.034
Mof_C 	C 	0.791	0.828	0.152	-0.333
Mof_H 	H 	0.742	0.8489	0.1151	0.15
Mof_C 	C 	0.804	0.734	0.163	0.023
Mof_H 	H 	0.7611	0.6923	0.1349	0.024
Mof_C 	C 	0.878	0.701	0.217	0.28
Mof_C 	C 	0.9434	0.763	0.2584	0.004
Mof_H 	H 	0.9983	0.7422	0.2928	0.049
Mof_C 	C 	0.6995	0.1593	0.0601	0.292
Mof_C 	C 	0.7703	0.1235	0.1193	-0.043
Mof_C 	C 	0.7843	0.0283	0.1276	-0.078
Mof_H 	H 	0.7503	0.9885	0.095	0.08
Mof_C 	C 	0.8504	0.9915	0.1858	0.05
Mof_C 	C 	0.8944	0.0512	0.2317	-0.089
Mof_H 	H 	0.9391	0.0279	0.2692	0.072
Mof_C 	C 	0.8779	0.148	0.2272	-0.018
Mof_H 	H 	0.9084	0.1868	0.2611	0.045
Mof_C 	C 	0.8168	0.1816	0.1723	-0.042
Mof_H 	H 	0.8043	0.2448	0.1686	0.058
Mof_C 	C 	0.9874	0.421	0.3514	0.364
Mof_C 	C 	0.9663	0.4663	0.2865	-0.058
Mof_C 	C 	0.9456	0.5598	0.2776	-0.066
Mof_H 	H 	0.9425	0.5962	0.3136	0.07
Mof_C 	C 	0.93	0.5993	0.2206	0.06
Mof_C 	C 	0.9356	0.5521	0.1683	-0.08
Mof_H 	H 	0.9344	0.582	0.1292	0.066
Mof_C 	C 	0.9438	0.4536	0.1725	-0.029
Mof_H 	H 	0.9292	0.4164	0.136	0.047
Mof_C 	C 	0.9749	0.4165	0.2343	-0.008
Mof_H 	H 	0.002	0.3563	0.2393	0.043
Mof_C 	C 	0.0375	0.4105	0.0128	-0.1
Mof_C 	C 	0.0758	0.5732	0.0057	-0.194
Mof_H 	H 	0.1291	0.6209	0.0094	0.098
Mof_C 	C 	0.3512	0.1834	0.0059	0.329
Mof_C 	C 	0.2371	0.2057	0.0221	-0.034
Mof_C 	C 	0.1925	0.2941	0.0115	-0.102
Mof_H 	H 	0.2364	0.3389	0.9959	0.081
Mof_C 	C 	0.0832	0.3182	0.0236	0.08
Mof_C 	C 	0.0159	0.2484	0.0457	-0.127
Mof_H 	H 	0.9423	0.2629	0.0523	0.085
Mof_C 	C 	0.0549	0.1622	0.0574	0.012
Mof_H 	H 	0.01	0.1175	0.0725	0.028
Mof_C 	C 	0.1724	0.1398	0.0455	-0.056
Mof_H 	H 	0.202	0.0808	0.0541	0.067
Mof_C 	C 	0.88	0.89	0.19	0.079
Mof_C 	C 	0.857	0.828	0.138	0.268
Mof_H 	H 	0.8245	0.8486	0.0971	-0.06
Mof_C 	C 	0.882	0.735	0.147	-0.097
Mof_H 	H 	0.8672	0.6946	0.1118	0.06
Mof_C 	C 	0.928	0.702	0.207	-0.288
Mof_H 	H 	0.1889	0.4686	0.0337	0.011
Mof_N 	N 	0.89	0.52	0.981	-0.201
Mof_Cd	Cd	0.92921	0.72745	0.55078	0.43
Mof_N 	N 	0.5754	0.3557	0.2523	-0.112
Mof_C 	C 	0.39	0.98	0.481	0.033
Mof_O 	O 	0.8517	0.6054	0.4825	-0.292
Mof_O 	O 	0.8081	0.7453	0.4482	-0.275
Mof_O 	O 	0.5163	0.9715	0.104	-0.302
Mof_O 	O 	0.4935	0.837	0.1449	-0.308
Mof_O 	O 	0.1266	0.599	0.49	-0.305
Mof_O 	O 	0.0945	0.7436	0.513	-0.315
Mof_C 	C 	0.65	0.39	0.31	-0.039
Mof_C 	C 	0.709	0.328	0.348	-0.364
Mof_H 	H 	0.758	0.3489	0.3849	0.162
Mof_C 	C 	0.696	0.234	0.337	0.036
Mof_H 	H 	0.7389	0.1923	0.3651	0.02
Mof_C 	C 	0.622	0.201	0.283	0.298
Mof_C 	C 	0.5566	0.263	0.2416	0.009
Mof_H 	H 	0.5017	0.2422	0.2072	0.045
Mof_C 	C 	0.8005	0.6593	0.4399	0.298
Mof_C 	C 	0.7297	0.6235	0.3807	-0.06
Mof_C 	C 	0.7157	0.5283	0.3724	-0.044
Mof_H 	H 	0.7497	0.4885	0.405	0.065
Mof_C 	C 	0.6496	0.4915	0.3142	0.019
Mof_C 	C 	0.6056	0.5512	0.2683	-0.06
Mof_H 	H 	0.5609	0.5279	0.2308	0.062
Mof_C 	C 	0.6221	0.648	0.2728	-0.04
Mof_H 	H 	0.5916	0.6868	0.2389	0.052
Mof_C 	C 	0.6832	0.6816	0.3277	-0.024
Mof_H 	H 	0.6957	0.7448	0.3314	0.053
Mof_C 	C 	0.5126	0.921	0.1486	0.34
Mof_C 	C 	0.5337	0.9663	0.2135	-0.016
Mof_C 	C 	0.5544	0.0598	0.2224	-0.112
Mof_H 	H 	0.5575	0.0962	0.1864	0.083
Mof_C 	C 	0.57	0.0993	0.2794	0.096
Mof_C 	C 	0.5644	0.0521	0.3317	-0.125
Mof_H 	H 	0.5656	0.082	0.3708	0.081
Mof_C 	C 	0.5562	0.9536	0.3275	0.019
Mof_H 	H 	0.5708	0.9164	0.364	0.031
Mof_C 	C 	0.5251	0.9165	0.2657	-0.06
Mof_H 	H 	0.498	0.8563	0.2607	0.065
Mof_C 	C 	0.4625	0.9105	0.4872	-0.056
Mof_C 	C 	0.4242	0.0732	0.4943	-0.156
Mof_H 	H 	0.3709	0.1209	0.4906	0.087
Mof_C 	C 	0.1488	0.6834	0.4941	0.347
Mof_C 	C 	0.2629	0.7057	0.4779	-0.056
Mof_C 	C 	0.3075	0.7941	0.4885	-0.064
Mof_H 	H 	0.2636	0.8389	0.5041	0.063
Mof_C 	C 	0.4168	0.8182	0.4764	0.047
Mof_C 	C 	0.4841	0.7484	0.4543	-0.086
Mof_H 	H 	0.5577	0.7629	0.4477	0.069
Mof_C 	C 	0.4451	0.6622	0.4426	-0.015
Mof_H 	H 	0.49	0.6175	0.4275	0.041
Mof_C 	C 	0.3276	0.6398	0.4545	-0.033
Mof_H 	H 	0.298	0.5808	0.4459	0.062
Mof_C 	C 	0.62	0.39	0.31	0.092
Mof_C 	C 	0.643	0.328	0.362	0.293
Mof_H 	H 	0.6755	0.3486	0.4029	-0.067
Mof_C 	C 	0.618	0.235	0.353	-0.104
Mof_H 	H 	0.6328	0.1946	0.3882	0.062
Mof_C 	C 	0.572	0.202	0.293	-0.319
Mof_H 	H 	0.3111	0.9686	0.4663	0.023
Mof_N 	N 	0.61	0.02	0.519	-0.193
Mof_Cd	Cd	0.42921	0.77255	0.05078	0.421
Mof_N 	N 	0.0754	0.1443	0.7523	-0.114
Mof_O 	O 	0.3517	0.8946	0.9825	-0.29
Mof_O 	O 	0.3081	0.7547	0.9482	-0.276
Mof_O 	O 	0.0163	0.5285	0.604	-0.306
Mof_O 	O 	0.9935	0.663	0.6449	-0.301
Mof_O 	O 	0.6266	0.901	0.99	-0.304
Mof_O 	O 	0.5945	0.7564	0.013	-0.326
Mof_C 	C 	0.15	0.11	0.81	-0.035
Mof_C 	C 	0.209	0.172	0.848	-0.359
Mof_H 	H 	0.258	0.1511	0.8849	0.161
Mof_C 	C 	0.196	0.266	0.837	0.035
Mof_H 	H 	0.2389	0.3077	0.8651	0.02
Mof_C 	C 	0.122	0.299	0.783	0.293
Mof_C 	C 	0.0566	0.237	0.7416	0.008
Mof_H 	H 	0.0017	0.2578	0.7072	0.044
Mof_C 	C 	0.3005	0.8407	0.9399	0.305
Mof_C 	C 	0.2297	0.8765	0.8807	-0.078
Mof_C 	C 	0.2157	0.9717	0.8724	-0.01
Mof_H 	H 	0.2497	0.0115	0.905	0.051
Mof_C 	C 	0.1496	0.0085	0.8142	-0.012
Mof_C 	C 	0.1056	0.9488	0.7683	-0.03
Mof_H 	H 	0.0609	0.9721	0.7308	0.054
Mof_C 	C 	0.1221	0.852	0.7728	-0.063
Mof_H 	H 	0.0916	0.8132	0.7389	0.059
Mof_C 	C 	0.1832	0.8184	0.8277	-0.005
Mof_H 	H 	0.1957	0.7552	0.8314	0.046
Mof_C 	C 	0.0126	0.579	0.6486	0.336
Mof_C 	C 	0.0337	0.5337	0.7135	-0.026
Mof_C 	C 	0.0544	0.4402	0.7224	-0.096
Mof_H 	H 	0.0575	0.4038	0.6864	0.079
Mof_C 	C 	0.07	0.4007	0.7794	0.084
Mof_C 	C 	0.0644	0.4479	0.8317	-0.108
Mof_H 	H 	0.0656	0.418	0.8708	0.076
Mof_C 	C 	0.0562	0.5464	0.8275	0.006
Mof_H 	H 	0.0708	0.5836	0.864	0.034
Mof_C 	C 	0.0251	0.5835	0.7657	-0.062
Mof_H 	H 	0.998	0.6437	0.7607	0.071
Mof_C 	C 	0.9625	0.5895	0.9872	0.159
Mof_C 	C 	0.9242	0.4268	0.9943	0.072
Mof_H 	H 	0.8709	0.3791	0.9906	0.013
Mof_C 	C 	0.6488	0.8166	0.9941	0.376
Mof_C 	C 	0.7629	0.7943	0.9779	-0.109
Mof_C 	C 	0.8075	0.7059	0.9885	0.03
Mof_H 	H 	0.7636	0.6611	0.0041	0.024
Mof_C 	C 	0.9168	0.6818	0.9764	-0.074
Mof_C 	C 	0.9841	0.7516	0.9543	0.015
Mof_H 	H 	0.0577	0.7371	0.9477	0.028
Mof_C 	C 	0.9451	0.8378	0.9426	-0.085
Mof_H 	H 	0.99	0.8825	0.9275	0.07
Mof_C 	C 	0.8276	0.8602	0.9545	0.022
Mof_H 	H 	0.798	0.9192	0.9459	0.047
Mof_C 	C 	0.12	0.11	0.81	0.095
Mof_C 	C 	0.143	0.172	0.862	0.283
Mof_H 	H 	0.1755	0.1514	0.9029	-0.063
Mof_C 	C 	0.118	0.265	0.853	-0.102
Mof_H 	H 	0.1328	0.3054	0.8882	0.063
Mof_C 	C 	0.072	0.298	0.793	-0.311
Mof_H 	H 	0.8111	0.5314	0.9663	0.108
Mof_Cd	Cd	0.07079	0.27255	0.44922	0.42
Mof_N 	N 	0.4246	0.6443	0.7477	-0.11
Mof_O 	O 	0.1483	0.3946	0.5175	-0.296
Mof_O 	O 	0.1919	0.2547	0.5518	-0.279
Mof_O 	O 	0.4837	0.0285	0.896	-0.31
Mof_O 	O 	0.5065	0.163	0.8551	-0.312
Mof_O 	O 	0.8734	0.401	0.51	-0.304
Mof_O 	O 	0.9055	0.2564	0.487	-0.314
Mof_C 	C 	0.35	0.61	0.69	-0.03
Mof_C 	C 	0.291	0.672	0.652	-0.329
Mof_H 	H 	0.242	0.6511	0.6151	0.149
Mof_C 	C 	0.304	0.766	0.663	0.022
Mof_H 	H 	0.2611	0.8077	0.6349	0.025
Mof_C 	C 	0.378	0.799	0.717	0.276
Mof_C 	C 	0.4434	0.737	0.7584	0.003
Mof_H 	H 	0.4983	0.7578	0.7928	0.048
Mof_C 	C 	0.1995	0.3407	0.5601	0.299
Mof_C 	C 	0.2703	0.3765	0.6193	-0.062
Mof_C 	C 	0.2843	0.4717	0.6276	-0.044
Mof_H 	H 	0.2503	0.5115	0.595	0.065
Mof_C 	C 	0.3504	0.5085	0.6858	0.019
Mof_C 	C 	0.3944	0.4488	0.7317	-0.059
Mof_H 	H 	0.4391	0.4721	0.7692	0.063
Mof_C 	C 	0.3779	0.352	0.7272	-0.041
Mof_H 	H 	0.4084	0.3132	0.7611	0.053
Mof_C 	C 	0.3168	0.3184	0.6723	-0.023
Mof_H 	H 	0.3043	0.2552	0.6686	0.051
Mof_C 	C 	0.4874	0.079	0.8514	0.358
Mof_C 	C 	0.4663	0.0337	0.7865	-0.066
Mof_C 	C 	0.4456	0.9402	0.7776	-0.051
Mof_H 	H 	0.4425	0.9038	0.8136	0.066
Mof_C 	C 	0.43	0.9007	0.7206	0.049
Mof_C 	C 	0.4356	0.9479	0.6683	-0.064
Mof_H 	H 	0.4344	0.918	0.6292	0.062
Mof_C 	C 	0.4438	0.0464	0.6725	-0.041
Mof_H 	H 	0.4292	0.0836	0.636	0.05
Mof_C 	C 	0.4749	0.0835	0.7343	-0.011
Mof_H 	H 	0.502	0.1437	0.7393	0.049
Mof_C 	C 	0.5375	0.0895	0.5128	0.123
Mof_C 	C 	0.5758	0.9268	0.5057	0.042
Mof_H 	H 	0.6291	0.8791	0.5094	0.022
Mof_C 	C 	0.8512	0.3166	0.5059	0.359
Mof_C 	C 	0.7371	0.2943	0.5221	-0.089
Mof_C 	C 	0.6925	0.2059	0.5115	-0.005
Mof_H 	H 	0.7364	0.1611	0.4959	0.041
Mof_C 	C 	0.5832	0.1818	0.5236	-0.045
Mof_C 	C 	0.5159	0.2516	0.5457	-0.022
Mof_H 	H 	0.4423	0.2371	0.5523	0.043
Mof_C 	C 	0.5549	0.3378	0.5574	-0.061
Mof_H 	H 	0.51	0.3825	0.5725	0.058
Mof_C 	C 	0.6724	0.3602	0.5455	0.001
Mof_H 	H 	0.702	0.4192	0.5541	0.051
Mof_C 	C 	0.38	0.61	0.69	0.083
Mof_C 	C 	0.357	0.672	0.638	0.26
Mof_H 	H 	0.3245	0.6514	0.5971	-0.056
Mof_C 	C 	0.382	0.765	0.647	-0.095
Mof_H 	H 	0.3672	0.8054	0.6118	0.061
Mof_C 	C 	0.428	0.798	0.707	-0.281
Mof_H 	H 	0.6889	0.0314	0.5337	0.103
Mof_Cd	Cd	0.5	0	-0	0.538
Mof_Cd	Cd	-3.19479e-17	0.5	0.5	0.545
_end
