data_functionalizedCrystal
_audit_creation_method	'EQeq! by Chris Wilmer'
_symmetry_space_group_name_H-M	'P1'
_symmetry_Int_Tables_number	1
_symmetry_cell_setting	triclinic
loop_
_symmetry_equiv_pos_as_xyz
  x,y,z
_cell_length_a	38.028
_cell_length_b	9.647
_cell_length_c	9.871
_cell_angle_alpha	90
_cell_angle_beta	97.49
_cell_angle_gamma	90
loop_
_atom_site_label
_atom_site_type_symbol
_atom_site_fract_x
_atom_site_fract_y
_atom_site_fract_z
_atom_site_charge
Mof_Zn	Zn	0.28442	0.17537	0.40152	1.188
Mof_N 	N 	0.26802	0.969	0.7579	-0.286
Mof_N 	N 	0.24357	0.1534	0.6462	-0.268
Mof_N 	N 	0.26879	0.0978	0.5743	-0.261
Mof_O 	O 	0.3305	0.2311	0.314	-0.496
Mof_O 	O 	0.3393	0.096	0.459	-0.513
Mof_C 	C 	0.3509	0.152	0.3775	0.573
Mof_C 	C 	0.3876	0.1514	0.3485	-0.261
Mof_C 	C 	0.4121	0.0857	0.444	0.151
Mof_H 	H 	0.4048	0.0453	0.5212	-0.007
Mof_C 	C 	0.4476	0.0804	0.4242	-0.21
Mof_H 	H 	0.4641	0.0364	0.4881	0.1
Mof_C 	C 	0.45859	0.1407	0.3088	0.148
Mof_C 	C 	0.43404	0.2064	0.2133	-0.216
Mof_H 	H 	0.4414	0.2467	0.1361	0.105
Mof_C 	C 	0.39854	0.2117	0.2332	0.163
Mof_H 	H 	0.3821	0.2557	0.1693	-0.013
Mof_C 	C 	0.4961	0.1446	0.2997	-0.089
Mof_H 	H 	0.5127	0.1471	0.3776	0.056
Mof_C 	C 	0.24465	0.0723	0.7555	0.108
Mof_H 	H 	0.2304	0.0862	0.8241	-0.042
Mof_C 	C 	0.28218	0.9907	0.6416	0.105
Mof_H 	H 	0.2997	0.9348	0.6126	-0.021
Mof_Zn	Zn	0.78442	0.67537	0.40152	1.187
Mof_N 	N 	0.76802	0.469	0.7579	-0.287
Mof_N 	N 	0.74357	0.6534	0.6462	-0.269
Mof_N 	N 	0.76879	0.5978	0.5743	-0.262
Mof_O 	O 	0.8305	0.7311	0.314	-0.497
Mof_O 	O 	0.8393	0.596	0.459	-0.514
Mof_C 	C 	0.8509	0.652	0.3775	0.573
Mof_C 	C 	0.8876	0.6514	0.3485	-0.263
Mof_C 	C 	0.9121	0.5857	0.444	0.151
Mof_H 	H 	0.9048	0.5453	0.5212	-0.009
Mof_C 	C 	0.9476	0.5804	0.4242	-0.212
Mof_H 	H 	0.9641	0.5364	0.4881	0.1
Mof_C 	C 	0.95859	0.6407	0.3088	0.149
Mof_C 	C 	0.93404	0.7064	0.2133	-0.219
Mof_H 	H 	0.9414	0.7467	0.1361	0.105
Mof_C 	C 	0.89854	0.7117	0.2332	0.164
Mof_H 	H 	0.8821	0.7557	0.1693	-0.014
Mof_C 	C 	0.9961	0.6446	0.2997	-0.093
Mof_H 	H 	0.0127	0.6471	0.3776	0.057
Mof_C 	C 	0.74465	0.5723	0.7555	0.108
Mof_H 	H 	0.7304	0.5862	0.8241	-0.042
Mof_C 	C 	0.78218	0.4907	0.6416	0.106
Mof_H 	H 	0.7997	0.4348	0.6126	-0.021
Mof_Zn	Zn	0.71558	0.17537	0.09848	1.187
Mof_N 	N 	0.73198	0.969	0.7421	-0.287
Mof_N 	N 	0.75643	0.1534	0.8538	-0.269
Mof_N 	N 	0.73121	0.0978	0.9257	-0.261
Mof_O 	O 	0.6695	0.2311	0.186	-0.497
Mof_O 	O 	0.6607	0.096	0.041	-0.515
Mof_C 	C 	0.6491	0.152	0.1225	0.572
Mof_C 	C 	0.6124	0.1514	0.1515	-0.263
Mof_C 	C 	0.5879	0.0857	0.056	0.15
Mof_H 	H 	0.5952	0.0453	0.9788	-0.008
Mof_C 	C 	0.5524	0.0804	0.0758	-0.212
Mof_H 	H 	0.5359	0.0364	0.0119	0.1
Mof_C 	C 	0.54141	0.1407	0.1912	0.15
Mof_C 	C 	0.56596	0.2064	0.2867	-0.219
Mof_H 	H 	0.5586	0.2467	0.3639	0.106
Mof_C 	C 	0.60146	0.2117	0.2668	0.164
Mof_H 	H 	0.6179	0.2557	0.3307	-0.014
Mof_C 	C 	0.5039	0.1446	0.2003	-0.096
Mof_H 	H 	0.4873	0.1471	0.1224	0.058
Mof_C 	C 	0.75535	0.0723	0.7445	0.108
Mof_H 	H 	0.7696	0.0862	0.6759	-0.042
Mof_C 	C 	0.71782	0.9907	0.8584	0.105
Mof_H 	H 	0.7003	0.9348	0.8874	-0.02
Mof_Zn	Zn	0.21558	0.67537	0.09848	1.187
Mof_N 	N 	0.23198	0.469	0.7421	-0.287
Mof_N 	N 	0.25643	0.6534	0.8538	-0.269
Mof_N 	N 	0.23121	0.5978	0.9257	-0.262
Mof_O 	O 	0.1695	0.7311	0.186	-0.497
Mof_O 	O 	0.1607	0.596	0.041	-0.514
Mof_C 	C 	0.1491	0.652	0.1225	0.573
Mof_C 	C 	0.1124	0.6514	0.1515	-0.263
Mof_C 	C 	0.0879	0.5857	0.056	0.151
Mof_H 	H 	0.0952	0.5453	0.9788	-0.009
Mof_C 	C 	0.0524	0.5804	0.0758	-0.212
Mof_H 	H 	0.0359	0.5364	0.0119	0.1
Mof_C 	C 	0.04141	0.6407	0.1912	0.149
Mof_C 	C 	0.06596	0.7064	0.2867	-0.219
Mof_H 	H 	0.0586	0.7467	0.3639	0.105
Mof_C 	C 	0.10146	0.7117	0.2668	0.164
Mof_H 	H 	0.1179	0.7557	0.3307	-0.014
Mof_C 	C 	0.0039	0.6446	0.2003	-0.093
Mof_H 	H 	0.9873	0.6471	0.1224	0.057
Mof_C 	C 	0.25535	0.5723	0.7445	0.108
Mof_H 	H 	0.2696	0.5862	0.6759	-0.042
Mof_C 	C 	0.21782	0.4907	0.8584	0.106
Mof_H 	H 	0.2003	0.4348	0.8874	-0.021
Mof_Zn	Zn	0.71558	0.82463	0.59848	1.187
Mof_N 	N 	0.73198	0.031	0.2421	-0.287
Mof_N 	N 	0.75643	0.8466	0.3538	-0.269
Mof_N 	N 	0.73121	0.9022	0.4257	-0.262
Mof_O 	O 	0.6695	0.7689	0.686	-0.497
Mof_O 	O 	0.6607	0.904	0.541	-0.514
Mof_C 	C 	0.6491	0.848	0.6225	0.572
Mof_C 	C 	0.6124	0.8486	0.6515	-0.262
Mof_C 	C 	0.5879	0.9143	0.556	0.15
Mof_H 	H 	0.5952	0.9547	0.4788	-0.008
Mof_C 	C 	0.5524	0.9196	0.5758	-0.211
Mof_H 	H 	0.5359	0.9636	0.5119	0.099
Mof_C 	C 	0.54141	0.8593	0.6912	0.147
Mof_C 	C 	0.56596	0.7936	0.7867	-0.217
Mof_H 	H 	0.5586	0.7533	0.8639	0.105
Mof_C 	C 	0.60146	0.7883	0.7668	0.163
Mof_H 	H 	0.6179	0.7443	0.8307	-0.013
Mof_C 	C 	0.5039	0.8554	0.7003	-0.089
Mof_H 	H 	0.4873	0.8529	0.6224	0.056
Mof_C 	C 	0.75535	0.9277	0.2445	0.108
Mof_H 	H 	0.7696	0.9138	0.1759	-0.042
Mof_C 	C 	0.71782	0.0093	0.3584	0.105
Mof_H 	H 	0.7003	0.0652	0.3874	-0.021
Mof_Zn	Zn	0.21558	0.32463	0.59848	1.187
Mof_N 	N 	0.23198	0.531	0.2421	-0.287
Mof_N 	N 	0.25643	0.3466	0.3538	-0.269
Mof_N 	N 	0.23121	0.4022	0.4257	-0.262
Mof_O 	O 	0.1695	0.2689	0.686	-0.497
Mof_O 	O 	0.1607	0.404	0.541	-0.514
Mof_C 	C 	0.1491	0.348	0.6225	0.573
Mof_C 	C 	0.1124	0.3486	0.6515	-0.263
Mof_C 	C 	0.0879	0.4143	0.556	0.151
Mof_H 	H 	0.0952	0.4547	0.4788	-0.009
Mof_C 	C 	0.0524	0.4196	0.5758	-0.212
Mof_H 	H 	0.0359	0.4636	0.5119	0.1
Mof_C 	C 	0.04141	0.3593	0.6912	0.149
Mof_C 	C 	0.06596	0.2936	0.7867	-0.219
Mof_H 	H 	0.0586	0.2533	0.8639	0.105
Mof_C 	C 	0.10146	0.2883	0.7668	0.164
Mof_H 	H 	0.1179	0.2443	0.8307	-0.014
Mof_C 	C 	0.0039	0.3554	0.7003	-0.093
Mof_H 	H 	0.9873	0.3529	0.6224	0.057
Mof_C 	C 	0.25535	0.4277	0.2445	0.108
Mof_H 	H 	0.2696	0.4138	0.1759	-0.042
Mof_C 	C 	0.21782	0.5093	0.3584	0.106
Mof_H 	H 	0.2003	0.5652	0.3874	-0.021
Mof_Zn	Zn	0.28442	0.82463	0.90152	1.187
Mof_N 	N 	0.26802	0.031	0.2579	-0.287
Mof_N 	N 	0.24357	0.8466	0.1462	-0.269
Mof_N 	N 	0.26879	0.9022	0.0743	-0.261
Mof_O 	O 	0.3305	0.7689	0.814	-0.497
Mof_O 	O 	0.3393	0.904	0.959	-0.515
Mof_C 	C 	0.3509	0.848	0.8775	0.572
Mof_C 	C 	0.3876	0.8486	0.8485	-0.263
Mof_C 	C 	0.4121	0.9143	0.944	0.15
Mof_H 	H 	0.4048	0.9547	0.0212	-0.008
Mof_C 	C 	0.4476	0.9196	0.9242	-0.212
Mof_H 	H 	0.4641	0.9636	0.9881	0.1
Mof_C 	C 	0.45859	0.8593	0.8088	0.15
Mof_C 	C 	0.43404	0.7936	0.7133	-0.219
Mof_H 	H 	0.4414	0.7533	0.6361	0.106
Mof_C 	C 	0.39854	0.7883	0.7332	0.164
Mof_H 	H 	0.3821	0.7443	0.6693	-0.014
Mof_C 	C 	0.4961	0.8554	0.7997	-0.096
Mof_H 	H 	0.5127	0.8529	0.8776	0.058
Mof_C 	C 	0.24465	0.9277	0.2555	0.108
Mof_H 	H 	0.2304	0.9138	0.3241	-0.042
Mof_C 	C 	0.28218	0.0093	0.1416	0.105
Mof_H 	H 	0.2997	0.0652	0.1126	-0.02
Mof_Zn	Zn	0.78442	0.32463	0.90152	1.187
Mof_N 	N 	0.76802	0.531	0.2579	-0.287
Mof_N 	N 	0.74357	0.3466	0.1462	-0.269
Mof_N 	N 	0.76879	0.4022	0.0743	-0.262
Mof_O 	O 	0.8305	0.2689	0.814	-0.497
Mof_O 	O 	0.8393	0.404	0.959	-0.514
Mof_C 	C 	0.8509	0.348	0.8775	0.573
Mof_C 	C 	0.8876	0.3486	0.8485	-0.263
Mof_C 	C 	0.9121	0.4143	0.944	0.151
Mof_H 	H 	0.9048	0.4547	0.0212	-0.009
Mof_C 	C 	0.9476	0.4196	0.9242	-0.212
Mof_H 	H 	0.9641	0.4636	0.9881	0.1
Mof_C 	C 	0.95859	0.3593	0.8088	0.149
Mof_C 	C 	0.93404	0.2936	0.7133	-0.219
Mof_H 	H 	0.9414	0.2533	0.6361	0.105
Mof_C 	C 	0.89854	0.2883	0.7332	0.164
Mof_H 	H 	0.8821	0.2443	0.6693	-0.014
Mof_C 	C 	0.9961	0.3554	0.7997	-0.093
Mof_H 	H 	0.0127	0.3529	0.8776	0.057
Mof_C 	C 	0.74465	0.4277	0.2555	0.108
Mof_H 	H 	0.7304	0.4138	0.3241	-0.042
Mof_C 	C 	0.78218	0.5093	0.1416	0.106
Mof_H 	H 	0.7997	0.5652	0.1126	-0.021
_end
