# CIF file generated by openbabel 3.1.0, see https://openbabel.org
data_I
_chemical_name_common 'image0'
_cell_length_a 9.5137
_cell_length_b 16.1134
_cell_length_c 27.5845
_cell_angle_alpha 91.802
_cell_angle_beta 91.489
_cell_angle_gamma 94.441
_space_group_name_H-M_alt 'P 1'
_space_group_name_Hall 'P 1'
loop_
    _symmetry_equiv_pos_as_xyz
    x,y,z
loop_
    _atom_site_label
    _atom_site_type_symbol
    _atom_site_fract_x
    _atom_site_fract_y
    _atom_site_fract_z
    _atom_site_occupancy
    Zn1      Zn       0.97161    0.01331    0.15163    1.000
    Zn2      Zn       0.37893    0.46171    0.03075    1.000
    Zn3      Zn       0.12525    0.04650    0.47407    1.000
    Zn4      Zn       0.52723    0.53236    0.34459    1.000
    O1       O        0.40430    0.59245    0.30059    1.000
    O2       O        0.30140    0.09479    0.44689    1.000
    O3       O        0.57580    0.63457    0.01718    1.000
    O4       O        0.94630    0.09313    0.20771    1.000
    O5       O        0.20190    0.41608    0.05759    1.000
    O6       O        0.54320    0.42824    0.07127    1.000
    O7       O        0.40990    0.57762    0.06478    1.000
    O8       O        0.10360    0.94803    0.19152    1.000
    O9       O        0.54940    0.42708    0.30686    1.000
    O10      O        0.69680    0.39143    0.36534    1.000
    O11      O        0.84220    0.14432    0.14463    1.000
    O12      O        0.71540    0.48034    0.02428    1.000
    O13      O        0.26050    0.20671    0.40403    1.000
    O14      O        0.90740    0.87055    0.46977    1.000
    O15      O        0.78377    0.02565    0.47753    1.000
    O16      O        0.79182    0.94879    0.14784    1.000
    O17      O        0.95853    0.09179    0.43989    1.000
    O18      O        0.66307    0.61560    0.38321    1.000
    O19      O        0.23804    0.90137    0.13301    1.000
    O20      O        0.83805    0.90373    0.07329    1.000
    C1       C        0.08975    0.81644    0.36212    1.000
    H1       H        0.16320    0.86000    0.36390    1.000
    C2       C        0.81520    0.20980    0.22308    1.000
    O21      O        0.73190    0.58713    0.30955    1.000
    C3       C        0.87020    0.14620    0.18901    1.000
    C4       C        0.16090    0.82490    0.25139    1.000
    H2       H        0.08670    0.85980    0.25730    1.000
    O22      O        0.33070    0.67635    0.35890    1.000
    C5       C        0.83210    0.07520    0.44802    1.000
    C6       C        0.73130    0.34380    0.24281    1.000
    H3       H        0.71630    0.39890    0.23370    1.000
    C7       C        0.64380    0.38320    0.32376    1.000
    C8       C        0.77940    0.18550    0.26944    1.000
    H4       H        0.79680    0.13080    0.27870    1.000
    C9       C        0.83410    0.32450    0.16145    1.000
    C10      C        0.33790    0.15350    0.41934    1.000
    C11      C        0.72720    0.11910    0.41875    1.000
    O23      O        0.24990    0.32219    0.11322    1.000
    C12      C        0.58740    0.11540    0.43110    1.000
    H5       H        0.55700    0.08330    0.45780    1.000
    O24      O        0.07890    0.94030    0.43218    1.000
    C13      C        0.30030    0.71510    0.27762    1.000
    C14      C        0.71920    0.23740    0.30268    1.000
    C15      C        0.23690    0.83590    0.20964    1.000
    C16      C        0.16930    0.36620    0.09127    1.000
    C17      C        0.97280    0.32430    0.14692    1.000
    H6       H        0.03890    0.29730    0.16600    1.000
    C18      C        0.79060    0.29090    0.20932    1.000
    C19      C        0.34630    0.78380    0.20119    1.000
    C20      C        0.34770    0.65690    0.31564    1.000
    C21      C        0.51000    0.71220    0.08613    1.000
    C22      C        0.08690    0.75580    0.32519    1.000
    C23      C        0.67090    0.43961    0.05946    1.000
    C24      C        0.76960    0.16200    0.37761    1.000
    H7       H        0.86530    0.16350    0.36840    1.000
    C25      C        0.69310    0.31930    0.28908    1.000
    C26      C        0.76470    0.90190    0.11010    1.000
    C27      C        0.01650    0.36330    0.10474    1.000
    C28      C        0.77710    0.39940    0.08987    1.000
    C29      C        0.48990    0.15800    0.40495    1.000
    C30      C        0.18780    0.76550    0.28502    1.000
    C31      C        0.91730    0.40180    0.07677    1.000
    H8       H        0.94600    0.42990    0.04850    1.000
    C32      C        0.67340    0.20260    0.35002    1.000
    C33      C        0.87550    0.75110    0.39337    1.000
    H9       H        0.80290    0.74970    0.41640    1.000
    C34      C        0.42100    0.71780    0.12460    1.000
    H10      H        0.34830    0.67500    0.12880    1.000
    C35      C        0.62020    0.77390    0.08004    1.000
    H11      H        0.68160    0.76980    0.05360    1.000
    C36      C        0.73490    0.36060    0.13267    1.000
    H12      H        0.63920    0.35910    0.14190    1.000
    C37      C        0.49670    0.63530    0.05344    1.000
    C38      C        0.99110    0.88150    0.43612    1.000
    C39      C        0.98450    0.81360    0.39679    1.000
    C40      C        0.37630    0.72510    0.23553    1.000
    H13      H        0.45140    0.69080    0.22990    1.000
    C41      C        0.63840    0.84160    0.11338    1.000
    C42      C        0.54500    0.84680    0.15170    1.000
    H14      H        0.55630    0.89300    0.17410    1.000
    C43      C        0.53390    0.20300    0.36475    1.000
    H15      H        0.46900    0.23380    0.34750    1.000
    C44      C        0.97920    0.69340    0.32265    1.000
    H16      H        0.97790    0.65160    0.29750    1.000
    C45      C        0.74930    0.62630    0.34867    1.000
    C46      C        0.87260    0.69050    0.35615    1.000
    C47      C        0.43680    0.78590    0.15751    1.000
    C48      C        0.19160    0.89940    0.17470    1.000
    Zn5      Zn       0.02839    0.98669    0.84837    1.000
    Zn6      Zn       0.62107    0.53829    0.96925    1.000
    Zn7      Zn       0.87475    0.95350    0.52593    1.000
    Zn8      Zn       0.47277    0.46764    0.65541    1.000
    O25      O        0.59570    0.40755    0.69941    1.000
    O26      O        0.69860    0.90521    0.55311    1.000
    O27      O        0.42420    0.36543    0.98282    1.000
    O28      O        0.05370    0.90687    0.79229    1.000
    O29      O        0.79810    0.58392    0.94241    1.000
    O30      O        0.45680    0.57176    0.92873    1.000
    O31      O        0.59010    0.42238    0.93522    1.000
    O32      O        0.89640    0.05197    0.80848    1.000
    O33      O        0.45060    0.57292    0.69314    1.000
    O34      O        0.30320    0.60857    0.63466    1.000
    O35      O        0.15780    0.85568    0.85537    1.000
    O36      O        0.28460    0.51966    0.97572    1.000
    O37      O        0.73950    0.79329    0.59597    1.000
    O38      O        0.09260    0.12945    0.53023    1.000
    O39      O        0.21623    0.97435    0.52247    1.000
    O40      O        0.20818    0.05121    0.85216    1.000
    O41      O        0.04147    0.90821    0.56011    1.000
    O42      O        0.33693    0.38440    0.61679    1.000
    O43      O        0.76196    0.09863    0.86699    1.000
    O44      O        0.16195    0.09627    0.92671    1.000
    C49      C        0.91025    0.18356    0.63788    1.000
    H17      H        0.83680    0.14000    0.63610    1.000
    C50      C        0.18480    0.79020    0.77692    1.000
    O45      O        0.26810    0.41287    0.69045    1.000
    C51      C        0.12980    0.85380    0.81099    1.000
    C52      C        0.83910    0.17510    0.74861    1.000
    H18      H        0.91330    0.14020    0.74270    1.000
    O46      O        0.66930    0.32365    0.64110    1.000
    C53      C        0.16790    0.92480    0.55198    1.000
    C54      C        0.26870    0.65620    0.75719    1.000
    H19      H        0.28370    0.60110    0.76630    1.000
    C55      C        0.35620    0.61680    0.67624    1.000
    C56      C        0.22060    0.81450    0.73056    1.000
    H20      H        0.20320    0.86920    0.72130    1.000
    C57      C        0.16590    0.67550    0.83855    1.000
    C58      C        0.66210    0.84650    0.58066    1.000
    C59      C        0.27280    0.88090    0.58125    1.000
    O47      O        0.75010    0.67781    0.88678    1.000
    C60      C        0.41260    0.88460    0.56890    1.000
    H21      H        0.44300    0.91670    0.54220    1.000
    O48      O        0.92110    0.05970    0.56782    1.000
    C61      C        0.69970    0.28490    0.72238    1.000
    C62      C        0.28080    0.76260    0.69732    1.000
    C63      C        0.76310    0.16410    0.79036    1.000
    C64      C        0.83070    0.63380    0.90873    1.000
    C65      C        0.02720    0.67570    0.85308    1.000
    H22      H        0.96110    0.70270    0.83400    1.000
    C66      C        0.20940    0.70910    0.79068    1.000
    C67      C        0.65370    0.21620    0.79881    1.000
    C68      C        0.65230    0.34310    0.68436    1.000
    C69      C        0.49000    0.28780    0.91387    1.000
    C70      C        0.91310    0.24420    0.67481    1.000
    C71      C        0.32910    0.56039    0.94054    1.000
    C72      C        0.23040    0.83800    0.62239    1.000
    H23      H        0.13470    0.83650    0.63160    1.000
    C73      C        0.30690    0.68070    0.71092    1.000
    C74      C        0.23530    0.09810    0.88990    1.000
    C75      C        0.98350    0.63670    0.89526    1.000
    C76      C        0.22290    0.60060    0.91013    1.000
    C77      C        0.51010    0.84200    0.59505    1.000
    C78      C        0.81220    0.23450    0.71498    1.000
    C79      C        0.08270    0.59820    0.92323    1.000
    H24      H        0.05400    0.57010    0.95150    1.000
    C80      C        0.32660    0.79740    0.64998    1.000
    C81      C        0.12450    0.24890    0.60663    1.000
    H25      H        0.19710    0.25030    0.58360    1.000
    C82      C        0.57900    0.28220    0.87540    1.000
    H26      H        0.65170    0.32500    0.87120    1.000
    C83      C        0.37980    0.22610    0.91996    1.000
    H27      H        0.31840    0.23020    0.94640    1.000
    C84      C        0.26510    0.63940    0.86733    1.000
    H28      H        0.36080    0.64090    0.85810    1.000
    C85      C        0.50330    0.36470    0.94656    1.000
    C86      C        0.00890    0.11850    0.56388    1.000
    C87      C        0.01550    0.18640    0.60321    1.000
    C88      C        0.62370    0.27490    0.76447    1.000
    H29      H        0.54860    0.30920    0.77010    1.000
    C89      C        0.36160    0.15840    0.88662    1.000
    C90      C        0.45500    0.15320    0.84830    1.000
    H30      H        0.44370    0.10700    0.82590    1.000
    C91      C        0.46610    0.79700    0.63525    1.000
    H31      H        0.53100    0.76620    0.65250    1.000
    C92      C        0.02080    0.30660    0.67735    1.000
    H32      H        0.02210    0.34840    0.70250    1.000
    C93      C        0.25070    0.37370    0.65133    1.000
    C94      C        0.12740    0.30950    0.64385    1.000
    C95      C        0.56320    0.21410    0.84249    1.000
    C96      C        0.80840    0.10060    0.82530    1.000
