# CIF file generated by openbabel 3.1.0, see https://openbabel.org
data_I
_chemical_name_common 'image0'
_cell_length_a 27.112
_cell_length_b 17.0697
_cell_length_c 27.5614
_cell_angle_alpha 90
_cell_angle_beta 101.518
_cell_angle_gamma 90
_space_group_name_H-M_alt 'P 1'
_space_group_name_Hall 'P 1'
loop_
    _symmetry_equiv_pos_as_xyz
    x,y,z
loop_
    _atom_site_label
    _atom_site_type_symbol
    _atom_site_fract_x
    _atom_site_fract_y
    _atom_site_fract_z
    _atom_site_occupancy
    Cu1      Cu       0.19521    0.20202    0.62084    1.000
    Cu2      Cu       0.37714    0.21262    0.61144    1.000
    Cu3      Cu       0.45309    0.97709    0.70650    1.000
    Cu4      Cu       0.39503    0.34646    0.45865    1.000
    Cu5      Cu       0.60214    0.89967    0.63723    1.000
    Cu6      Cu       0.38132    0.58507    0.35398    1.000
    Cu7      Cu       0.68982    0.15256    0.62558    1.000
    Cu8      Cu       0.87143    0.19638    0.62188    1.000
    Cu9      Cu       0.98676    0.02144    0.73042    1.000
    Cu10     Cu       0.11188    0.69578    0.54185    1.000
    Cu11     Cu       0.10326    0.45047    0.63472    1.000
    Cu12     Cu       0.12033    0.94056    0.64026    1.000
    Cu13     Cu       0.19060    0.18470    0.62250    1.000
    Cu14     Cu       0.37230    0.20160    0.62130    1.000
    Cu15     Cu       0.48390    0.01770    0.72720    1.000
    Cu16     Cu       0.38730    0.30880    0.45580    1.000
    Cu17     Cu       0.38240    0.06620    0.35860    1.000
    Cu18     Cu       0.39620    0.55650    0.36290    1.000
    Cu19     Cu       0.31010    0.80650    0.37830    1.000
    Cu20     Cu       0.12430    0.79540    0.38490    1.000
    Cu21     Cu       0.02230    0.98650    0.27890    1.000
    Cu22     Cu       0.10990    0.68440    0.54390    1.000
    Cu23     Cu       0.10990    0.43620    0.64240    1.000
    Cu24     Cu       0.11300    0.92480    0.64110    1.000
    C1       C        0.30860    0.22310    0.61920    1.000
    N1       N        0.26590    0.21720    0.62080    1.000
    C2       C        0.13380    0.35220    0.62760    1.000
    N2       N        0.15500    0.29360    0.62430    1.000
    C3       C        0.41290    0.13150    0.65070    1.000
    N3       N        0.42850    0.07540    0.67230    1.000
    C4       C        0.39830    0.30600    0.52270    1.000
    N4       N        0.39460    0.27440    0.55940    1.000
    C5       C        0.51110    0.93550    0.68700    1.000
    N5       N        0.54800    0.92010    0.67270    1.000
    N6       N        0.38970    0.20040    0.39190    1.000
    C6       C        0.38940    0.25830    0.41300    1.000
    C7       C        0.39150    0.44150    0.42500    1.000
    N7       N        0.38710    0.49710    0.39950    1.000
    N8       N        0.40150    0.93730    0.79200    1.000
    C8       C        0.41940    0.94930    0.75700    1.000
    C9       C        0.34560    0.75150    0.37260    1.000
    N9       N        0.36090    0.68900    0.36800    1.000
    N10      N        0.66010    0.05260    0.62930    1.000
    C10      C        0.63940    0.99200    0.63280    1.000
    N11      N        0.80060    0.18800    0.62360    1.000
    C11      C        0.75840    0.17400    0.62350    1.000
    C12      C        0.92200    0.15260    0.67090    1.000
    N12      N        0.95140    0.11450    0.69780    1.000
    C13      C        0.11040    0.73180    0.47730    1.000
    N13      N        0.11440    0.75720    0.43960    1.000
    C14      C        0.10580    0.59670    0.57000    1.000
    N14      N        0.10490    0.53870    0.59140    1.000
    C15      C        0.12510    0.83950    0.61250    1.000
    N15      N        0.12460    0.78190    0.59023    1.000
    C16      C        0.03900    0.98090    0.70150    1.000
    N16      N        0.07100    0.96090    0.68230    1.000
    C17      C        0.15270    0.03450    0.62860    1.000
    N17      N        0.16920    0.09540    0.62290    1.000
    N18      N        0.06930    0.47330    0.68870    1.000
    C18      C        0.04600    0.49040    0.71850    1.000
    Cu25     Cu       0.80479    0.70202    0.87916    1.000
    Cu26     Cu       0.62286    0.71262    0.88856    1.000
    Cu27     Cu       0.54691    0.47709    0.79350    1.000
    Cu28     Cu       0.60497    0.84646    0.04135    1.000
    Cu29     Cu       0.39786    0.39967    0.86277    1.000
    Cu30     Cu       0.61868    0.08507    0.14602    1.000
    Cu31     Cu       0.31018    0.65256    0.87442    1.000
    Cu32     Cu       0.12857    0.69638    0.87812    1.000
    Cu33     Cu       0.01324    0.52144    0.76958    1.000
    Cu34     Cu       0.88812    0.19578    0.95815    1.000
    Cu35     Cu       0.89674    0.95047    0.86528    1.000
    Cu36     Cu       0.87967    0.44056    0.85974    1.000
    Cu37     Cu       0.80940    0.68470    0.87750    1.000
    Cu38     Cu       0.62770    0.70160    0.87870    1.000
    Cu39     Cu       0.51610    0.51770    0.77280    1.000
    Cu40     Cu       0.61270    0.80880    0.04420    1.000
    Cu41     Cu       0.61760    0.56620    0.14140    1.000
    Cu42     Cu       0.60380    0.05650    0.13710    1.000
    Cu43     Cu       0.68990    0.30650    0.12170    1.000
    Cu44     Cu       0.87570    0.29540    0.11510    1.000
    Cu45     Cu       0.97770    0.48650    0.22110    1.000
    Cu46     Cu       0.89010    0.18440    0.95610    1.000
    Cu47     Cu       0.89010    0.93620    0.85760    1.000
    Cu48     Cu       0.88700    0.42480    0.85890    1.000
    C19      C        0.69140    0.72310    0.88080    1.000
    N19      N        0.73410    0.71720    0.87920    1.000
    C20      C        0.86620    0.85220    0.87240    1.000
    N20      N        0.84500    0.79360    0.87570    1.000
    C21      C        0.58710    0.63150    0.84930    1.000
    N21      N        0.57150    0.57540    0.82770    1.000
    C22      C        0.60170    0.80600    0.97730    1.000
    N22      N        0.60540    0.77440    0.94060    1.000
    C23      C        0.48890    0.43550    0.81300    1.000
    N23      N        0.45200    0.42010    0.82730    1.000
    N24      N        0.61030    0.70040    0.10810    1.000
    C24      C        0.61060    0.75830    0.08700    1.000
    C25      C        0.60850    0.94150    0.07500    1.000
    N25      N        0.61290    0.99710    0.10050    1.000
    N26      N        0.59850    0.43730    0.70800    1.000
    C26      C        0.58060    0.44930    0.74300    1.000
    C27      C        0.65440    0.25150    0.12740    1.000
    N27      N        0.63910    0.18900    0.13200    1.000
    N28      N        0.33990    0.55260    0.87070    1.000
    C28      C        0.36060    0.49200    0.86720    1.000
    N29      N        0.19940    0.68800    0.87640    1.000
    C29      C        0.24160    0.67400    0.87650    1.000
    C30      C        0.07800    0.65260    0.82910    1.000
    N30      N        0.04860    0.61450    0.80220    1.000
    C31      C        0.88960    0.23180    0.02270    1.000
    N31      N        0.88560    0.25720    0.06040    1.000
    C32      C        0.89420    0.09670    0.93000    1.000
    N32      N        0.89510    0.03870    0.90860    1.000
    C33      C        0.87490    0.33950    0.88750    1.000
    N33      N        0.87540    0.28190    0.90977    1.000
    C34      C        0.96100    0.48090    0.79850    1.000
    N34      N        0.92900    0.46090    0.81770    1.000
    C35      C        0.84730    0.53450    0.87140    1.000
    N35      N        0.83080    0.59540    0.87710    1.000
    N36      N        0.93070    0.97330    0.81130    1.000
    C36      C        0.95400    0.99040    0.78150    1.000
    Cu49     Cu       0.80479    0.79798    0.37916    1.000
    Cu50     Cu       0.62286    0.78738    0.38856    1.000
    Cu51     Cu       0.54691    0.02291    0.29350    1.000
    Cu52     Cu       0.60497    0.65354    0.54135    1.000
    Cu53     Cu       0.39786    0.10033    0.36277    1.000
    Cu54     Cu       0.61868    0.41493    0.64602    1.000
    Cu55     Cu       0.31018    0.84744    0.37442    1.000
    Cu56     Cu       0.12857    0.80362    0.37812    1.000
    Cu57     Cu       0.01324    0.97856    0.26958    1.000
    Cu58     Cu       0.88812    0.30422    0.45815    1.000
    Cu59     Cu       0.89674    0.54953    0.36528    1.000
    Cu60     Cu       0.87967    0.05944    0.35974    1.000
    Cu61     Cu       0.80940    0.81530    0.37750    1.000
    Cu62     Cu       0.62770    0.79840    0.37870    1.000
    Cu63     Cu       0.51610    0.98230    0.27280    1.000
    Cu64     Cu       0.61270    0.69120    0.54420    1.000
    Cu65     Cu       0.61760    0.93380    0.64140    1.000
    Cu66     Cu       0.60380    0.44350    0.63710    1.000
    Cu67     Cu       0.68990    0.19350    0.62170    1.000
    Cu68     Cu       0.87570    0.20460    0.61510    1.000
    Cu69     Cu       0.97770    0.01350    0.72110    1.000
    Cu70     Cu       0.89010    0.31560    0.45610    1.000
    Cu71     Cu       0.89010    0.56380    0.35760    1.000
    Cu72     Cu       0.88700    0.07520    0.35890    1.000
    C37      C        0.69140    0.77690    0.38080    1.000
    N37      N        0.73410    0.78280    0.37920    1.000
    C38      C        0.86620    0.64780    0.37240    1.000
    N38      N        0.84500    0.70640    0.37570    1.000
    C39      C        0.58710    0.86850    0.34930    1.000
    N39      N        0.57150    0.92460    0.32770    1.000
    C40      C        0.60170    0.69400    0.47730    1.000
    N40      N        0.60540    0.72560    0.44060    1.000
    C41      C        0.48890    0.06450    0.31300    1.000
    N41      N        0.45200    0.07990    0.32730    1.000
    N42      N        0.61030    0.79960    0.60810    1.000
    C42      C        0.61060    0.74170    0.58700    1.000
    C43      C        0.60850    0.55850    0.57500    1.000
    N43      N        0.61290    0.50290    0.60050    1.000
    N44      N        0.59850    0.06270    0.20800    1.000
    C44      C        0.58060    0.05070    0.24300    1.000
    C45      C        0.65440    0.24850    0.62740    1.000
    N45      N        0.63910    0.31100    0.63200    1.000
    N46      N        0.33990    0.94740    0.37070    1.000
    C46      C        0.36060    0.00800    0.36720    1.000
    N47      N        0.19940    0.81200    0.37640    1.000
    C47      C        0.24160    0.82600    0.37650    1.000
    C48      C        0.07800    0.84740    0.32910    1.000
    N48      N        0.04860    0.88550    0.30220    1.000
    C49      C        0.88960    0.26820    0.52270    1.000
    N49      N        0.88560    0.24280    0.56040    1.000
    C50      C        0.89420    0.40330    0.43000    1.000
    N50      N        0.89510    0.46130    0.40860    1.000
    C51      C        0.87490    0.16050    0.38750    1.000
    N51      N        0.87540    0.21810    0.40977    1.000
    C52      C        0.96100    0.01910    0.29850    1.000
    N52      N        0.92900    0.03910    0.31770    1.000
    C53      C        0.84730    0.96550    0.37140    1.000
    N53      N        0.83080    0.90460    0.37710    1.000
    N54      N        0.93070    0.52670    0.31130    1.000
    C54      C        0.95400    0.50960    0.28150    1.000
    Cu73     Cu       0.19521    0.29798    0.12084    1.000
    Cu74     Cu       0.37714    0.28738    0.11144    1.000
    Cu75     Cu       0.45309    0.52291    0.20650    1.000
    Cu76     Cu       0.39503    0.15354    0.95865    1.000
    Cu77     Cu       0.60214    0.60033    0.13723    1.000
    Cu78     Cu       0.38132    0.91493    0.85398    1.000
    Cu79     Cu       0.68982    0.34744    0.12558    1.000
    Cu80     Cu       0.87143    0.30362    0.12188    1.000
    Cu81     Cu       0.98676    0.47856    0.23042    1.000
    Cu82     Cu       0.11188    0.80422    0.04185    1.000
    Cu83     Cu       0.10326    0.04953    0.13472    1.000
    Cu84     Cu       0.12033    0.55944    0.14026    1.000
    Cu85     Cu       0.19060    0.31530    0.12250    1.000
    Cu86     Cu       0.37230    0.29840    0.12130    1.000
    Cu87     Cu       0.48390    0.48230    0.22720    1.000
    Cu88     Cu       0.38730    0.19120    0.95580    1.000
    Cu89     Cu       0.38240    0.43380    0.85860    1.000
    Cu90     Cu       0.39620    0.94350    0.86290    1.000
    Cu91     Cu       0.31010    0.69350    0.87830    1.000
    Cu92     Cu       0.12430    0.70460    0.88490    1.000
    Cu93     Cu       0.02230    0.51350    0.77890    1.000
    Cu94     Cu       0.10990    0.81560    0.04390    1.000
    Cu95     Cu       0.10990    0.06380    0.14240    1.000
    Cu96     Cu       0.11300    0.57520    0.14110    1.000
    C55      C        0.30860    0.27690    0.11920    1.000
    N55      N        0.26590    0.28280    0.12080    1.000
    C56      C        0.13380    0.14780    0.12760    1.000
    N56      N        0.15500    0.20640    0.12430    1.000
    C57      C        0.41290    0.36850    0.15070    1.000
    N57      N        0.42850    0.42460    0.17230    1.000
    C58      C        0.39830    0.19400    0.02270    1.000
    N58      N        0.39460    0.22560    0.05940    1.000
    C59      C        0.51110    0.56450    0.18700    1.000
    N59      N        0.54800    0.57990    0.17270    1.000
    N60      N        0.38970    0.29960    0.89190    1.000
    C60      C        0.38940    0.24170    0.91300    1.000
    C61      C        0.39150    0.05850    0.92500    1.000
    N61      N        0.38710    0.00290    0.89950    1.000
    N62      N        0.40150    0.56270    0.29200    1.000
    C62      C        0.41940    0.55070    0.25700    1.000
    C63      C        0.34560    0.74850    0.87260    1.000
    N63      N        0.36090    0.81100    0.86800    1.000
    N64      N        0.66010    0.44740    0.12930    1.000
    C64      C        0.63940    0.50800    0.13280    1.000
    N65      N        0.80060    0.31200    0.12360    1.000
    C65      C        0.75840    0.32600    0.12350    1.000
    C66      C        0.92200    0.34740    0.17090    1.000
    N66      N        0.95140    0.38550    0.19780    1.000
    C67      C        0.11040    0.76820    0.97730    1.000
    N67      N        0.11440    0.74280    0.93960    1.000
    C68      C        0.10580    0.90330    0.07000    1.000
    N68      N        0.10490    0.96130    0.09140    1.000
    C69      C        0.12510    0.66050    0.11250    1.000
    N69      N        0.12460    0.71810    0.09023    1.000
    C70      C        0.03900    0.51910    0.20150    1.000
    N70      N        0.07100    0.53910    0.18230    1.000
    C71      C        0.15270    0.46550    0.12860    1.000
    N71      N        0.16920    0.40460    0.12290    1.000
    N72      N        0.06930    0.02670    0.18870    1.000
    C72      C        0.04600    0.00960    0.21850    1.000
