data_functionalizedCrystal
_audit_creation_method	'EQeq! by Chris Wilmer'
_symmetry_space_group_name_H-M	'P1'
_symmetry_Int_Tables_number	1
_symmetry_cell_setting	triclinic
loop_
_symmetry_equiv_pos_as_xyz
  x,y,z
_cell_length_a	26.633
_cell_length_b	26.633
_cell_length_c	5.1305
_cell_angle_alpha	90
_cell_angle_beta	90
_cell_angle_gamma	90
loop_
_atom_site_label
_atom_site_type_symbol
_atom_site_fract_x
_atom_site_fract_y
_atom_site_fract_z
_atom_site_charge
Mof_Zn	Zn	0.27287	0.21413	0.9149	1.226
Mof_O 	O 	0.2211	0.2533	0.088	-0.784
Mof_H 	H 	0.2004	0.2643	0.9756	0.289
Mof_N 	N 	0.2541	0.1425	0.901	-0.283
Mof_C 	C 	0.268	0.1041	0.042	0.131
Mof_H 	H 	0.2933	0.1066	0.1661	-0.013
Mof_N 	N 	0.2433	0.0604	0.9969	-0.173
Mof_C 	C 	0.214	0.1218	0.7387	0.024
Mof_O 	O 	0.2763	0.8328	0.37	-0.517
Mof_C 	C 	0.1844	0.1435	0.5485	-0.117
Mof_H 	H 	0.1882	0.1772	0.5054	0.038
Mof_O 	O 	0.3209	0.8694	0.665	-0.243
Mof_C 	C 	0.1489	0.1142	0.4234	0.035
Mof_C 	C 	0.1195	0.1365	0.2338	-0.082
Mof_H 	H 	0.1243	0.1703	0.195	0.055
Mof_C 	C 	0.0828	0.1094	0.099	-0.025
Mof_H 	H 	0.063	0.1243	0.9713	0.031
Mof_C 	C 	0.0774	0.0588	0.1659	-0.024
Mof_H 	H 	0.0533	0.0396	0.0803	0.033
Mof_C 	C 	0.107	0.0365	0.357	-0.093
Mof_H 	H 	0.1023	0.0027	0.3972	0.061
Mof_C 	C 	0.1435	0.0637	0.4899	0.051
Mof_C 	C 	0.1729	0.0411	0.6815	-0.138
Mof_H 	H 	0.169	0.0074	0.7255	0.077
Mof_C 	C 	0.2085	0.0713	0.8035	0.083
Mof_C 	C 	0.2581	0.0126	0.103	0.177
Mof_C 	C 	0.2868	0.923	0.321	-0.155
Mof_C 	C 	0.2786	0.011	0.351	-0.196
Mof_H 	H 	0.2825	0.0409	0.4431	0.104
Mof_C 	C 	0.2932	0.9667	0.464	0.115
Mof_H 	H 	0.3069	0.966	0.6312	0.004
Mof_C 	C 	0.2667	0.9225	0.074	0.131
Mof_H 	H 	0.2629	0.8927	0.9826	-0.003
Mof_C 	C 	0.2525	0.9679	0.968	-0.2
Mof_H 	H 	0.2387	0.9685	0.8014	0.1
Mof_C 	C 	0.2991	0.8719	0.436	0.43
Mof_O 	O 	0.3483	0.8699	0.467	-0.206
Mof_C 	C 	0.3081	0.0044	0.164	-0.025
Mof_H 	H 	0.3316	0.0295	0.1297	0.051
Mof_C 	C 	0.324	0.9591	0.275	-0.032
Mof_H 	H 	0.3575	0.9533	0.3157	0.062
Mof_C 	C 	0.2356	0.9277	0.266	-0.07
Mof_H 	H 	0.212	0.9027	0.2975	0.052
Mof_C 	C 	0.224	0.9744	0.156	-0.006
Mof_H 	H 	0.1905	0.9804	0.1155	0.03
Mof_Zn	Zn	0.77287	0.71413	0.4149	1.229
Mof_O 	O 	0.7211	0.7533	0.588	-0.807
Mof_H 	H 	0.7004	0.7643	0.4756	0.297
Mof_N 	N 	0.7541	0.6425	0.401	-0.273
Mof_C 	C 	0.768	0.6041	0.542	0.114
Mof_H 	H 	0.7933	0.6066	0.6661	-0.009
Mof_N 	N 	0.7433	0.5604	0.4969	-0.16
Mof_C 	C 	0.714	0.6218	0.2387	0.023
Mof_O 	O 	0.7763	0.3328	0.87	-0.509
Mof_C 	C 	0.6844	0.6435	0.0485	-0.094
Mof_H 	H 	0.6882	0.6772	0.0054	0.037
Mof_O 	O 	0.8209	0.3694	0.165	-0.265
Mof_C 	C 	0.6489	0.6142	0.9234	0.015
Mof_C 	C 	0.6195	0.6365	0.7338	-0.061
Mof_H 	H 	0.6243	0.6703	0.695	0.045
Mof_C 	C 	0.5828	0.6094	0.599	-0.042
Mof_H 	H 	0.563	0.6243	0.4713	0.03
Mof_C 	C 	0.5774	0.5588	0.6659	-0.014
Mof_H 	H 	0.5533	0.5396	0.5803	0.028
Mof_C 	C 	0.607	0.5365	0.857	-0.109
Mof_H 	H 	0.6023	0.5027	0.8972	0.064
Mof_C 	C 	0.6435	0.5637	0.9899	0.059
Mof_C 	C 	0.6729	0.5411	0.1815	-0.14
Mof_H 	H 	0.669	0.5074	0.2255	0.078
Mof_C 	C 	0.7085	0.5713	0.3035	0.092
Mof_C 	C 	0.7581	0.5126	0.603	0.122
Mof_C 	C 	0.7868	0.423	0.821	-0.083
Mof_C 	C 	0.7786	0.511	0.851	0.966
Mof_H 	H 	0.7825	0.5409	0.9431	-0.297
Mof_C 	C 	0.7932	0.4667	0.964	-0.923
Mof_H 	H 	0.8069	0.466	0.1312	0.36
Mof_C 	C 	0.7667	0.4225	0.574	-0.91
Mof_H 	H 	0.7629	0.3927	0.4826	0.352
Mof_C 	C 	0.7525	0.4679	0.468	0.931
Mof_H 	H 	0.7387	0.4685	0.3014	-0.296
Mof_C 	C 	0.7991	0.3719	0.936	0.404
Mof_O 	O 	0.8483	0.3699	0.967	-0.184
Mof_C 	C 	0.8081	0.5044	0.664	-1.103
Mof_H 	H 	0.8316	0.5295	0.6297	0.422
Mof_C 	C 	0.824	0.4591	0.775	0.943
Mof_H 	H 	0.8575	0.4533	0.8157	-0.281
Mof_C 	C 	0.7356	0.4277	0.766	0.919
Mof_H 	H 	0.712	0.4027	0.7975	-0.297
Mof_C 	C 	0.724	0.4744	0.656	-1.065
Mof_H 	H 	0.6905	0.4804	0.6155	0.396
Mof_Zn	Zn	0.72713	0.78587	0.9149	1.225
Mof_O 	O 	0.7789	0.7467	0.088	-0.785
Mof_H 	H 	0.7996	0.7357	0.9756	0.288
Mof_N 	N 	0.7459	0.8575	0.901	-0.284
Mof_C 	C 	0.732	0.8959	0.042	0.13
Mof_H 	H 	0.7067	0.8934	0.1661	-0.014
Mof_N 	N 	0.7567	0.9396	0.9969	-0.174
Mof_C 	C 	0.786	0.8782	0.7387	0.023
Mof_O 	O 	0.7237	0.1672	0.37	-0.518
Mof_C 	C 	0.8156	0.8565	0.5485	-0.118
Mof_H 	H 	0.8118	0.8228	0.5054	0.037
Mof_O 	O 	0.6791	0.1306	0.665	-0.244
Mof_C 	C 	0.8511	0.8858	0.4234	0.035
Mof_C 	C 	0.8805	0.8635	0.2338	-0.082
Mof_H 	H 	0.8757	0.8297	0.195	0.055
Mof_C 	C 	0.9172	0.8906	0.099	-0.025
Mof_H 	H 	0.937	0.8757	0.9713	0.031
Mof_C 	C 	0.9226	0.9412	0.1659	-0.024
Mof_H 	H 	0.9467	0.9604	0.0803	0.033
Mof_C 	C 	0.893	0.9635	0.357	-0.093
Mof_H 	H 	0.8977	0.9973	0.3972	0.061
Mof_C 	C 	0.8565	0.9363	0.4899	0.051
Mof_C 	C 	0.8271	0.9589	0.6815	-0.138
Mof_H 	H 	0.831	0.9926	0.7255	0.077
Mof_C 	C 	0.7915	0.9287	0.8035	0.083
Mof_C 	C 	0.7419	0.9874	0.103	0.177
Mof_C 	C 	0.7132	0.077	0.321	-0.155
Mof_C 	C 	0.7214	0.989	0.351	-0.196
Mof_H 	H 	0.7175	0.9591	0.4431	0.104
Mof_C 	C 	0.7068	0.0333	0.464	0.115
Mof_H 	H 	0.6931	0.034	0.6312	0.004
Mof_C 	C 	0.7333	0.0775	0.074	0.131
Mof_H 	H 	0.7371	0.1073	0.9826	-0.003
Mof_C 	C 	0.7475	0.0321	0.968	-0.2
Mof_H 	H 	0.7613	0.0315	0.8014	0.1
Mof_C 	C 	0.7009	0.1281	0.436	0.43
Mof_O 	O 	0.6517	0.1301	0.467	-0.206
Mof_C 	C 	0.6919	0.9956	0.164	-0.025
Mof_H 	H 	0.6684	0.9705	0.1297	0.051
Mof_C 	C 	0.676	0.0409	0.275	-0.032
Mof_H 	H 	0.6425	0.0467	0.3157	0.062
Mof_C 	C 	0.7644	0.0723	0.266	-0.07
Mof_H 	H 	0.788	0.0973	0.2975	0.052
Mof_C 	C 	0.776	0.0256	0.156	-0.006
Mof_H 	H 	0.8095	0.0196	0.1155	0.03
Mof_Zn	Zn	0.22713	0.28587	0.4149	1.229
Mof_O 	O 	0.2789	0.2467	0.588	-0.807
Mof_H 	H 	0.2996	0.2357	0.4756	0.297
Mof_N 	N 	0.2459	0.3575	0.401	-0.273
Mof_C 	C 	0.232	0.3959	0.542	0.114
Mof_H 	H 	0.2067	0.3934	0.6661	-0.009
Mof_N 	N 	0.2567	0.4396	0.4969	-0.16
Mof_C 	C 	0.286	0.3782	0.2387	0.023
Mof_O 	O 	0.2237	0.6672	0.87	-0.509
Mof_C 	C 	0.3156	0.3565	0.0485	-0.094
Mof_H 	H 	0.3118	0.3228	0.0054	0.037
Mof_O 	O 	0.1791	0.6306	0.165	-0.265
Mof_C 	C 	0.3511	0.3858	0.9234	0.015
Mof_C 	C 	0.3805	0.3635	0.7338	-0.061
Mof_H 	H 	0.3757	0.3297	0.695	0.045
Mof_C 	C 	0.4172	0.3906	0.599	-0.042
Mof_H 	H 	0.437	0.3757	0.4713	0.03
Mof_C 	C 	0.4226	0.4412	0.6659	-0.014
Mof_H 	H 	0.4467	0.4604	0.5803	0.028
Mof_C 	C 	0.393	0.4635	0.857	-0.109
Mof_H 	H 	0.3977	0.4973	0.8972	0.064
Mof_C 	C 	0.3565	0.4363	0.9899	0.059
Mof_C 	C 	0.3271	0.4589	0.1815	-0.14
Mof_H 	H 	0.331	0.4926	0.2255	0.078
Mof_C 	C 	0.2915	0.4287	0.3035	0.092
Mof_C 	C 	0.2419	0.4874	0.603	0.122
Mof_C 	C 	0.2132	0.577	0.821	-0.083
Mof_C 	C 	0.2214	0.489	0.851	0.966
Mof_H 	H 	0.2175	0.4591	0.9431	-0.297
Mof_C 	C 	0.2068	0.5333	0.964	-0.923
Mof_H 	H 	0.1931	0.534	0.1312	0.36
Mof_C 	C 	0.2333	0.5775	0.574	-0.91
Mof_H 	H 	0.2371	0.6073	0.4826	0.352
Mof_C 	C 	0.2475	0.5321	0.468	0.931
Mof_H 	H 	0.2613	0.5315	0.3014	-0.296
Mof_C 	C 	0.2009	0.6281	0.936	0.404
Mof_O 	O 	0.1517	0.6301	0.967	-0.184
Mof_C 	C 	0.1919	0.4956	0.664	-1.103
Mof_H 	H 	0.1684	0.4705	0.6297	0.422
Mof_C 	C 	0.176	0.5409	0.775	0.943
Mof_H 	H 	0.1425	0.5467	0.8157	-0.281
Mof_C 	C 	0.2644	0.5723	0.766	0.919
Mof_H 	H 	0.288	0.5973	0.7975	-0.297
Mof_C 	C 	0.276	0.5256	0.656	-1.065
Mof_H 	H 	0.3095	0.5196	0.6155	0.396
Mof_Zn	Zn	0.21413	0.72713	0.0851	1.225
Mof_O 	O 	0.2533	0.7789	0.912	-0.785
Mof_H 	H 	0.2643	0.7996	0.0244	0.288
Mof_N 	N 	0.1425	0.7459	0.099	-0.284
Mof_C 	C 	0.1041	0.732	0.958	0.13
Mof_H 	H 	0.1066	0.7067	0.8339	-0.014
Mof_N 	N 	0.0604	0.7567	0.0031	-0.174
Mof_C 	C 	0.1218	0.786	0.2613	0.023
Mof_O 	O 	0.8328	0.7237	0.63	-0.518
Mof_C 	C 	0.1435	0.8156	0.4515	-0.118
Mof_H 	H 	0.1772	0.8118	0.4946	0.037
Mof_O 	O 	0.8694	0.6791	0.335	-0.244
Mof_C 	C 	0.1142	0.8511	0.5766	0.035
Mof_C 	C 	0.1365	0.8805	0.7662	-0.082
Mof_H 	H 	0.1703	0.8757	0.805	0.055
Mof_C 	C 	0.1094	0.9172	0.901	-0.025
Mof_H 	H 	0.1243	0.937	0.0287	0.031
Mof_C 	C 	0.0588	0.9226	0.8341	-0.024
Mof_H 	H 	0.0396	0.9467	0.9197	0.033
Mof_C 	C 	0.0365	0.893	0.643	-0.093
Mof_H 	H 	0.0027	0.8977	0.6028	0.061
Mof_C 	C 	0.0637	0.8565	0.5101	0.051
Mof_C 	C 	0.0411	0.8271	0.3185	-0.138
Mof_H 	H 	0.0074	0.831	0.2745	0.077
Mof_C 	C 	0.0713	0.7915	0.1965	0.083
Mof_C 	C 	0.0126	0.7419	0.897	0.177
Mof_C 	C 	0.923	0.7132	0.679	-0.155
Mof_C 	C 	0.011	0.7214	0.649	-0.196
Mof_H 	H 	0.0409	0.7175	0.5569	0.104
Mof_C 	C 	0.9667	0.7068	0.536	0.115
Mof_H 	H 	0.966	0.6931	0.3688	0.004
Mof_C 	C 	0.9225	0.7333	0.926	0.131
Mof_H 	H 	0.8927	0.7371	0.0174	-0.003
Mof_C 	C 	0.9679	0.7475	0.032	-0.2
Mof_H 	H 	0.9685	0.7613	0.1986	0.1
Mof_C 	C 	0.8719	0.7009	0.564	0.43
Mof_O 	O 	0.8699	0.6517	0.533	-0.206
Mof_C 	C 	0.0044	0.6919	0.836	-0.025
Mof_H 	H 	0.0295	0.6684	0.8703	0.051
Mof_C 	C 	0.9591	0.676	0.725	-0.032
Mof_H 	H 	0.9533	0.6425	0.6843	0.062
Mof_C 	C 	0.9277	0.7644	0.734	-0.07
Mof_H 	H 	0.9027	0.788	0.7025	0.052
Mof_C 	C 	0.9744	0.776	0.844	-0.006
Mof_H 	H 	0.9804	0.8095	0.8845	0.03
Mof_Zn	Zn	0.71413	0.22713	0.5851	1.229
Mof_O 	O 	0.7533	0.2789	0.412	-0.807
Mof_H 	H 	0.7643	0.2996	0.5244	0.297
Mof_N 	N 	0.6425	0.2459	0.599	-0.273
Mof_C 	C 	0.6041	0.232	0.458	0.114
Mof_H 	H 	0.6066	0.2067	0.3339	-0.009
Mof_N 	N 	0.5604	0.2567	0.5031	-0.16
Mof_C 	C 	0.6218	0.286	0.7613	0.023
Mof_O 	O 	0.3328	0.2237	0.13	-0.509
Mof_C 	C 	0.6435	0.3156	0.9515	-0.094
Mof_H 	H 	0.6772	0.3118	0.9946	0.037
Mof_O 	O 	0.3694	0.1791	0.835	-0.265
Mof_C 	C 	0.6142	0.3511	0.0766	0.015
Mof_C 	C 	0.6365	0.3805	0.2662	-0.061
Mof_H 	H 	0.6703	0.3757	0.305	0.045
Mof_C 	C 	0.6094	0.4172	0.401	-0.042
Mof_H 	H 	0.6243	0.437	0.5287	0.03
Mof_C 	C 	0.5588	0.4226	0.3341	-0.014
Mof_H 	H 	0.5396	0.4467	0.4197	0.028
Mof_C 	C 	0.5365	0.393	0.143	-0.109
Mof_H 	H 	0.5027	0.3977	0.1028	0.064
Mof_C 	C 	0.5637	0.3565	0.0101	0.059
Mof_C 	C 	0.5411	0.3271	0.8185	-0.14
Mof_H 	H 	0.5074	0.331	0.7745	0.078
Mof_C 	C 	0.5713	0.2915	0.6965	0.092
Mof_C 	C 	0.5126	0.2419	0.397	0.122
Mof_C 	C 	0.423	0.2132	0.179	-0.083
Mof_C 	C 	0.511	0.2214	0.149	0.966
Mof_H 	H 	0.5409	0.2175	0.0569	-0.297
Mof_C 	C 	0.4667	0.2068	0.036	-0.923
Mof_H 	H 	0.466	0.1931	0.8688	0.36
Mof_C 	C 	0.4225	0.2333	0.426	-0.91
Mof_H 	H 	0.3927	0.2371	0.5174	0.352
Mof_C 	C 	0.4679	0.2475	0.532	0.931
Mof_H 	H 	0.4685	0.2613	0.6986	-0.296
Mof_C 	C 	0.3719	0.2009	0.064	0.404
Mof_O 	O 	0.3699	0.1517	0.033	-0.184
Mof_C 	C 	0.5044	0.1919	0.336	-1.103
Mof_H 	H 	0.5295	0.1684	0.3703	0.422
Mof_C 	C 	0.4591	0.176	0.225	0.943
Mof_H 	H 	0.4533	0.1425	0.1843	-0.281
Mof_C 	C 	0.4277	0.2644	0.234	0.919
Mof_H 	H 	0.4027	0.288	0.2025	-0.297
Mof_C 	C 	0.4744	0.276	0.344	-1.065
Mof_H 	H 	0.4804	0.3095	0.3845	0.396
Mof_Zn	Zn	0.78587	0.27287	0.0851	1.225
Mof_O 	O 	0.7467	0.2211	0.912	-0.785
Mof_H 	H 	0.7357	0.2004	0.0244	0.288
Mof_N 	N 	0.8575	0.2541	0.099	-0.284
Mof_C 	C 	0.8959	0.268	0.958	0.13
Mof_H 	H 	0.8934	0.2933	0.8339	-0.014
Mof_N 	N 	0.9396	0.2433	0.0031	-0.174
Mof_C 	C 	0.8782	0.214	0.2613	0.023
Mof_O 	O 	0.1672	0.2763	0.63	-0.518
Mof_C 	C 	0.8565	0.1844	0.4515	-0.118
Mof_H 	H 	0.8228	0.1882	0.4946	0.037
Mof_O 	O 	0.1306	0.3209	0.335	-0.244
Mof_C 	C 	0.8858	0.1489	0.5766	0.035
Mof_C 	C 	0.8635	0.1195	0.7662	-0.082
Mof_H 	H 	0.8297	0.1243	0.805	0.055
Mof_C 	C 	0.8906	0.0828	0.901	-0.025
Mof_H 	H 	0.8757	0.063	0.0287	0.031
Mof_C 	C 	0.9412	0.0774	0.8341	-0.024
Mof_H 	H 	0.9604	0.0533	0.9197	0.033
Mof_C 	C 	0.9635	0.107	0.643	-0.093
Mof_H 	H 	0.9973	0.1023	0.6028	0.061
Mof_C 	C 	0.9363	0.1435	0.5101	0.051
Mof_C 	C 	0.9589	0.1729	0.3185	-0.138
Mof_H 	H 	0.9926	0.169	0.2745	0.077
Mof_C 	C 	0.9287	0.2085	0.1965	0.083
Mof_C 	C 	0.9874	0.2581	0.897	0.177
Mof_C 	C 	0.077	0.2868	0.679	-0.155
Mof_C 	C 	0.989	0.2786	0.649	-0.196
Mof_H 	H 	0.9591	0.2825	0.5569	0.104
Mof_C 	C 	0.0333	0.2932	0.536	0.115
Mof_H 	H 	0.034	0.3069	0.3688	0.004
Mof_C 	C 	0.0775	0.2667	0.926	0.131
Mof_H 	H 	0.1073	0.2629	0.0174	-0.003
Mof_C 	C 	0.0321	0.2525	0.032	-0.2
Mof_H 	H 	0.0315	0.2387	0.1986	0.1
Mof_C 	C 	0.1281	0.2991	0.564	0.43
Mof_O 	O 	0.1301	0.3483	0.533	-0.206
Mof_C 	C 	0.9956	0.3081	0.836	-0.025
Mof_H 	H 	0.9705	0.3316	0.8703	0.051
Mof_C 	C 	0.0409	0.324	0.725	-0.032
Mof_H 	H 	0.0467	0.3575	0.6843	0.062
Mof_C 	C 	0.0723	0.2356	0.734	-0.07
Mof_H 	H 	0.0973	0.212	0.7025	0.052
Mof_C 	C 	0.0256	0.224	0.844	-0.006
Mof_H 	H 	0.0196	0.1905	0.8845	0.03
Mof_Zn	Zn	0.28587	0.77287	0.5851	1.229
Mof_O 	O 	0.2467	0.7211	0.412	-0.807
Mof_H 	H 	0.2357	0.7004	0.5244	0.297
Mof_N 	N 	0.3575	0.7541	0.599	-0.273
Mof_C 	C 	0.3959	0.768	0.458	0.114
Mof_H 	H 	0.3934	0.7933	0.3339	-0.009
Mof_N 	N 	0.4396	0.7433	0.5031	-0.16
Mof_C 	C 	0.3782	0.714	0.7613	0.023
Mof_O 	O 	0.6672	0.7763	0.13	-0.509
Mof_C 	C 	0.3565	0.6844	0.9515	-0.094
Mof_H 	H 	0.3228	0.6882	0.9946	0.037
Mof_O 	O 	0.6306	0.8209	0.835	-0.265
Mof_C 	C 	0.3858	0.6489	0.0766	0.015
Mof_C 	C 	0.3635	0.6195	0.2662	-0.061
Mof_H 	H 	0.3297	0.6243	0.305	0.045
Mof_C 	C 	0.3906	0.5828	0.401	-0.042
Mof_H 	H 	0.3757	0.563	0.5287	0.03
Mof_C 	C 	0.4412	0.5774	0.3341	-0.014
Mof_H 	H 	0.4604	0.5533	0.4197	0.028
Mof_C 	C 	0.4635	0.607	0.143	-0.109
Mof_H 	H 	0.4973	0.6023	0.1028	0.064
Mof_C 	C 	0.4363	0.6435	0.0101	0.059
Mof_C 	C 	0.4589	0.6729	0.8185	-0.14
Mof_H 	H 	0.4926	0.669	0.7745	0.078
Mof_C 	C 	0.4287	0.7085	0.6965	0.092
Mof_C 	C 	0.4874	0.7581	0.397	0.122
Mof_C 	C 	0.577	0.7868	0.179	-0.083
Mof_C 	C 	0.489	0.7786	0.149	0.966
Mof_H 	H 	0.4591	0.7825	0.0569	-0.297
Mof_C 	C 	0.5333	0.7932	0.036	-0.923
Mof_H 	H 	0.534	0.8069	0.8688	0.36
Mof_C 	C 	0.5775	0.7667	0.426	-0.91
Mof_H 	H 	0.6073	0.7629	0.5174	0.352
Mof_C 	C 	0.5321	0.7525	0.532	0.931
Mof_H 	H 	0.5315	0.7387	0.6986	-0.296
Mof_C 	C 	0.6281	0.7991	0.064	0.404
Mof_O 	O 	0.6301	0.8483	0.033	-0.184
Mof_C 	C 	0.4956	0.8081	0.336	-1.103
Mof_H 	H 	0.4705	0.8316	0.3703	0.422
Mof_C 	C 	0.5409	0.824	0.225	0.943
Mof_H 	H 	0.5467	0.8575	0.1843	-0.281
Mof_C 	C 	0.5723	0.7356	0.234	0.919
Mof_H 	H 	0.5973	0.712	0.2025	-0.297
Mof_C 	C 	0.5256	0.724	0.344	-1.065
Mof_H 	H 	0.5196	0.6905	0.3845	0.396
_end
