data_functionalizedCrystal
_audit_creation_method	'EQeq! by Chris Wilmer'
_symmetry_space_group_name_H-M	'P1'
_symmetry_Int_Tables_number	1
_symmetry_cell_setting	triclinic
loop_
_symmetry_equiv_pos_as_xyz
  x,y,z
_cell_length_a	17.9598
_cell_length_b	21.8386
_cell_length_c	12.6661
_cell_angle_alpha	90
_cell_angle_beta	90
_cell_angle_gamma	90
loop_
_atom_site_label
_atom_site_type_symbol
_atom_site_fract_x
_atom_site_fract_y
_atom_site_fract_z
_atom_site_charge
Mof_Co	Co	0.33797	0.72853	0.03432	1.155
Mof_Co	Co	0.17465	0.72006	0.02574	1.149
Mof_N 	N 	0.4438	0.76	0.053	-0.253
Mof_O 	O 	0.3455	0.7032	0.878	-0.41
Mof_O 	O 	0.3164	0.7507	0.1954	-0.397
Mof_O 	O 	0.2134	0.3076	0.502	-0.468
Mof_O 	O 	0.1747	0.1393	0.5722	-0.435
Mof_O 	O 	0.2221	0.6934	0.892	-0.46
Mof_O 	O 	0.1918	0.7482	0.1738	-0.444
Mof_N 	N 	0.5618	0.7929	0.0404	-0.304
Mof_O 	O 	0.3353	0.3086	0.4732	-0.413
Mof_O 	O 	0.2986	0.1314	0.5837	-0.427
Mof_N 	N 	0.4597	0.799	0.1382	-0.117
Mof_C 	C 	0.5056	0.7595	0.9977	0.279
Mof_C 	C 	0.2814	0.6919	0.84	0.388
Mof_C 	C 	0.2512	0.7555	0.2271	0.367
Mof_C 	C 	0.5307	0.8169	0.1308	0.207
Mof_N 	N 	0.5129	0.7311	0.9034	-0.362
Mof_C 	C 	0.2756	0.6719	0.7273	-0.104
Mof_C 	C 	0.2385	0.7738	0.3419	-0.077
Mof_N 	N 	0.5652	0.854	0.1976	-0.35
Mof_H 	H 	0.4757	0.712	0.8763	0.184
Mof_H 	H 	0.5548	0.7323	0.8705	0.182
Mof_C 	C 	0.2055	0.6669	0.6821	0.038
Mof_C 	C 	0.3386	0.659	0.6681	0.036
Mof_C 	C 	0.2986	0.7793	0.4083	0.013
Mof_C 	C 	0.1671	0.7848	0.379	0.013
Mof_H 	H 	0.5416	0.8686	0.2511	0.178
Mof_H 	H 	0.6111	0.8634	0.1876	0.19
Mof_H 	H 	0.1635	0.6769	0.7212	0.037
Mof_C 	C 	0.1981	0.6471	0.5795	-0.084
Mof_C 	C 	0.3326	0.6396	0.5663	-0.086
Mof_H 	H 	0.3855	0.6635	0.6983	0.035
Mof_H 	H 	0.3463	0.7712	0.3833	0.05
Mof_C 	C 	0.2884	0.797	0.5131	-0.068
Mof_C 	C 	0.1566	0.8029	0.4839	-0.069
Mof_H 	H 	0.1263	0.7802	0.3344	0.046
Mof_H 	H 	0.1512	0.6426	0.5493	0.074
Mof_C 	C 	0.2611	0.6341	0.5226	0.015
Mof_H 	H 	0.3747	0.6302	0.5268	0.072
Mof_H 	H 	0.3289	0.8001	0.5585	0.069
Mof_C 	C 	0.2181	0.8099	0.5481	0.002
Mof_H 	H 	0.1089	0.81	0.5099	0.067
Mof_S 	S 	0.2513	0.60461	0.3915	0.267
Mof_S 	S 	0.20597	0.83886	0.67811	0.267
Mof_O 	O 	0.1778	0.6192	0.3544	-0.225
Mof_O 	O 	0.3144	0.6238	0.3298	-0.209
Mof_C 	C 	0.2573	0.5245	0.412	0.009
Mof_O 	O 	0.1306	0.8255	0.7109	-0.222
Mof_O 	O 	0.2679	0.819	0.7417	-0.214
Mof_C 	C 	0.2144	0.9191	0.6583	0.009
Mof_C 	C 	0.1933	0.4931	0.4377	-0.081
Mof_C 	C 	0.3259	0.496	0.4043	-0.08
Mof_C 	C 	0.2833	0.947	0.6679	-0.078
Mof_C 	C 	0.1522	0.9526	0.629	-0.081
Mof_H 	H 	0.1476	0.513	0.4423	0.068
Mof_C 	C 	0.1992	0.4302	0.4564	0.031
Mof_C 	C 	0.3307	0.4339	0.4246	0.033
Mof_H 	H 	0.3681	0.5182	0.3859	0.073
Mof_H 	H 	0.3249	0.9244	0.6877	0.072
Mof_C 	C 	0.2893	0.0094	0.6474	0.027
Mof_C 	C 	0.1588	0.0136	0.609	0.029
Mof_H 	H 	0.1061	0.9335	0.6231	0.07
Mof_H 	H 	0.1568	0.4078	0.4731	0.039
Mof_C 	C 	0.2672	0.401	0.4507	-0.105
Mof_H 	H 	0.3765	0.4142	0.4208	0.041
Mof_H 	H 	0.3352	0.0287	0.6544	0.037
Mof_C 	C 	0.227	0.0432	0.6163	-0.099
Mof_H 	H 	0.1168	0.0359	0.59	0.04
Mof_C 	C 	0.2719	0.335	0.4758	0.386
Mof_C 	C 	0.2341	0.1095	0.5883	0.382
Mof_Co	Co	0.66203	0.27147	0.53432	1.164
Mof_Co	Co	0.82535	0.27994	0.52574	1.162
Mof_N 	N 	0.5562	0.24	0.553	-0.226
Mof_O 	O 	0.6545	0.2968	0.378	-0.424
Mof_O 	O 	0.6836	0.2493	0.6954	-0.392
Mof_O 	O 	0.7866	0.6924	0.002	-0.509
Mof_O 	O 	0.8253	0.8607	0.0722	-0.444
Mof_O 	O 	0.7779	0.3066	0.392	-0.477
Mof_O 	O 	0.8082	0.2518	0.6738	-0.436
Mof_N 	N 	0.4382	0.2071	0.5404	-0.279
Mof_O 	O 	0.6647	0.6914	0.9732	-0.41
Mof_O 	O 	0.7014	0.8686	0.0837	-0.433
Mof_N 	N 	0.5403	0.201	0.6382	-0.113
Mof_C 	C 	0.4944	0.2405	0.4977	0.22
Mof_C 	C 	0.7186	0.3081	0.34	0.385
Mof_C 	C 	0.7488	0.2445	0.7271	0.36
Mof_C 	C 	0.4693	0.1831	0.6308	0.214
Mof_N 	N 	0.4871	0.2689	0.4034	-0.349
Mof_C 	C 	0.7244	0.3281	0.2273	-0.094
Mof_C 	C 	0.7615	0.2262	0.8419	-0.048
Mof_N 	N 	0.4348	0.146	0.6976	-0.351
Mof_H 	H 	0.5243	0.288	0.3763	0.175
Mof_H 	H 	0.4452	0.2677	0.3705	0.175
Mof_C 	C 	0.7945	0.3331	0.1821	0.016
Mof_C 	C 	0.6614	0.341	0.1681	0.014
Mof_C 	C 	0.7014	0.2207	0.9083	0.029
Mof_C 	C 	0.8329	0.2152	0.879	-0.056
Mof_H 	H 	0.4584	0.1314	0.7511	0.184
Mof_H 	H 	0.3889	0.1366	0.6876	0.192
Mof_H 	H 	0.8365	0.3231	0.2212	0.041
Mof_C 	C 	0.8019	0.3529	0.0795	-0.06
Mof_C 	C 	0.6674	0.3604	0.0663	-0.063
Mof_H 	H 	0.6145	0.3365	0.1983	0.039
Mof_H 	H 	0.6537	0.2288	0.8833	0.054
Mof_C 	C 	0.7116	0.203	0.0131	-0.07
Mof_C 	C 	0.8434	0.1971	0.9839	0.082
Mof_H 	H 	0.8737	0.2198	0.8344	0.078
Mof_H 	H 	0.8488	0.3574	0.0493	0.054
Mof_C 	C 	0.7389	0.3659	0.0226	-0.033
Mof_H 	H 	0.6253	0.3698	0.0268	0.053
Mof_H 	H 	0.6711	0.1999	0.0585	0.064
Mof_C 	C 	0.7819	0.1901	0.0481	-0.072
Mof_H 	H 	0.8911	0.19	0.0099	-0.005
Mof_S 	S 	0.7487	0.39539	0.8915	0.302
Mof_S 	S 	0.79403	0.16114	0.17811	0.291
Mof_O 	O 	0.8222	0.3808	0.8544	-0.225
Mof_O 	O 	0.6856	0.3762	0.8298	-0.21
Mof_C 	C 	0.7427	0.4755	0.912	0.011
Mof_O 	O 	0.8694	0.1745	0.2109	-0.228
Mof_O 	O 	0.7321	0.181	0.2417	-0.22
Mof_C 	C 	0.7856	0.0809	0.1583	-0.002
Mof_C 	C 	0.8067	0.5069	0.9377	-0.081
Mof_C 	C 	0.6741	0.504	0.9043	-0.08
Mof_C 	C 	0.7167	0.053	0.1679	-0.071
Mof_C 	C 	0.8478	0.0474	0.129	-0.075
Mof_H 	H 	0.8524	0.487	0.9423	0.076
Mof_C 	C 	0.8008	0.5698	0.9564	0.043
Mof_C 	C 	0.6693	0.5661	0.9246	0.044
Mof_H 	H 	0.6319	0.4818	0.8859	0.079
Mof_H 	H 	0.6751	0.0756	0.1877	0.067
Mof_C 	C 	0.7107	0.9906	0.1474	0.02
Mof_C 	C 	0.8412	0.9864	0.109	0.022
Mof_H 	H 	0.8939	0.0665	0.1231	0.065
Mof_H 	H 	0.8432	0.5922	0.9731	0.045
Mof_C 	C 	0.7328	0.599	0.9507	-0.116
Mof_H 	H 	0.6235	0.5858	0.9208	0.042
Mof_H 	H 	0.6648	0.9713	0.1544	0.036
Mof_C 	C 	0.773	0.9568	0.1163	-0.099
Mof_H 	H 	0.8832	0.9641	0.09	0.036
Mof_C 	C 	0.7281	0.665	0.9758	0.43
Mof_C 	C 	0.7659	0.8905	0.0883	0.38
Mof_Co	Co	0.83797	0.77147	0.03432	1.156
Mof_Co	Co	0.67465	0.77994	0.02574	1.15
Mof_N 	N 	0.9438	0.74	0.053	-0.252
Mof_O 	O 	0.8455	0.7968	0.878	-0.41
Mof_O 	O 	0.8164	0.7493	0.1954	-0.397
Mof_O 	O 	0.7134	0.1924	0.502	-0.467
Mof_O 	O 	0.6747	0.3607	0.5722	-0.435
Mof_O 	O 	0.7221	0.8066	0.892	-0.46
Mof_O 	O 	0.6918	0.7518	0.1738	-0.444
Mof_N 	N 	0.0618	0.7071	0.0404	-0.304
Mof_O 	O 	0.8353	0.1914	0.4732	-0.412
Mof_O 	O 	0.7986	0.3686	0.5837	-0.427
Mof_N 	N 	0.9597	0.701	0.1382	-0.116
Mof_C 	C 	0.0056	0.7405	0.9977	0.278
Mof_C 	C 	0.7814	0.8081	0.84	0.388
Mof_C 	C 	0.7512	0.7445	0.2271	0.367
Mof_C 	C 	0.0307	0.6831	0.1308	0.206
Mof_N 	N 	0.0129	0.7689	0.9034	-0.362
Mof_C 	C 	0.7756	0.8281	0.7273	-0.104
Mof_C 	C 	0.7385	0.7262	0.3419	-0.077
Mof_N 	N 	0.0652	0.646	0.1976	-0.349
Mof_H 	H 	0.9757	0.788	0.8763	0.184
Mof_H 	H 	0.0548	0.7677	0.8705	0.182
Mof_C 	C 	0.7055	0.8331	0.6821	0.038
Mof_C 	C 	0.8386	0.841	0.6681	0.036
Mof_C 	C 	0.7986	0.7207	0.4083	0.013
Mof_C 	C 	0.6671	0.7152	0.379	0.013
Mof_H 	H 	0.0416	0.6314	0.2511	0.177
Mof_H 	H 	0.1111	0.6366	0.1876	0.19
Mof_H 	H 	0.6635	0.8231	0.7212	0.037
Mof_C 	C 	0.6981	0.8529	0.5795	-0.084
Mof_C 	C 	0.8326	0.8604	0.5663	-0.086
Mof_H 	H 	0.8855	0.8365	0.6983	0.035
Mof_H 	H 	0.8463	0.7288	0.3833	0.05
Mof_C 	C 	0.7884	0.703	0.5131	-0.068
Mof_C 	C 	0.6566	0.6971	0.4839	-0.069
Mof_H 	H 	0.6263	0.7198	0.3344	0.046
Mof_H 	H 	0.6512	0.8574	0.5493	0.074
Mof_C 	C 	0.7611	0.8659	0.5226	0.014
Mof_H 	H 	0.8747	0.8698	0.5268	0.072
Mof_H 	H 	0.8289	0.6999	0.5585	0.069
Mof_C 	C 	0.7181	0.6901	0.5481	0.002
Mof_H 	H 	0.6089	0.69	0.5099	0.067
Mof_S 	S 	0.7513	0.89539	0.3915	0.268
Mof_S 	S 	0.70597	0.66114	0.67811	0.267
Mof_O 	O 	0.6778	0.8808	0.3544	-0.225
Mof_O 	O 	0.8144	0.8762	0.3298	-0.21
Mof_C 	C 	0.7573	0.9755	0.412	0.005
Mof_O 	O 	0.6306	0.6745	0.7109	-0.221
Mof_O 	O 	0.7679	0.681	0.7417	-0.213
Mof_C 	C 	0.7144	0.5809	0.6583	0.01
Mof_C 	C 	0.6933	0.0069	0.4377	-0.076
Mof_C 	C 	0.8259	0.004	0.4043	-0.074
Mof_C 	C 	0.7833	0.553	0.6679	-0.08
Mof_C 	C 	0.6522	0.5474	0.629	-0.083
Mof_H 	H 	0.6476	0.987	0.4423	0.067
Mof_C 	C 	0.6992	0.0698	0.4564	0.028
Mof_C 	C 	0.8307	0.0661	0.4246	0.029
Mof_H 	H 	0.8681	0.9818	0.3859	0.07
Mof_H 	H 	0.8249	0.5756	0.6877	0.073
Mof_C 	C 	0.7893	0.4906	0.6474	0.03
Mof_C 	C 	0.6588	0.4864	0.609	0.031
Mof_H 	H 	0.6061	0.5665	0.6231	0.071
Mof_H 	H 	0.6568	0.0922	0.4731	0.04
Mof_C 	C 	0.7672	0.099	0.4507	-0.102
Mof_H 	H 	0.8765	0.0858	0.4208	0.043
Mof_H 	H 	0.8352	0.4713	0.6544	0.036
Mof_C 	C 	0.727	0.4568	0.6163	-0.1
Mof_H 	H 	0.6168	0.4641	0.59	0.039
Mof_C 	C 	0.7719	0.165	0.4758	0.385
Mof_C 	C 	0.7341	0.3905	0.5883	0.383
Mof_Co	Co	0.16203	0.22853	0.53432	1.164
Mof_Co	Co	0.32535	0.22006	0.52574	1.162
Mof_N 	N 	0.0562	0.26	0.553	-0.227
Mof_O 	O 	0.1545	0.2032	0.378	-0.424
Mof_O 	O 	0.1836	0.2507	0.6954	-0.392
Mof_O 	O 	0.2866	0.8076	0.002	-0.51
Mof_O 	O 	0.3253	0.6393	0.0722	-0.444
Mof_O 	O 	0.2779	0.1934	0.392	-0.477
Mof_O 	O 	0.3082	0.2482	0.6738	-0.436
Mof_N 	N 	0.9382	0.2929	0.5404	-0.279
Mof_O 	O 	0.1647	0.8086	0.9732	-0.409
Mof_O 	O 	0.2014	0.6314	0.0837	-0.433
Mof_N 	N 	0.0403	0.299	0.6382	-0.114
Mof_C 	C 	0.9944	0.2595	0.4977	0.221
Mof_C 	C 	0.2186	0.1919	0.34	0.385
Mof_C 	C 	0.2488	0.2555	0.7271	0.359
Mof_C 	C 	0.9693	0.3169	0.6308	0.216
Mof_N 	N 	0.9871	0.2311	0.4034	-0.348
Mof_C 	C 	0.2244	0.1719	0.2273	-0.093
Mof_C 	C 	0.2615	0.2738	0.8419	-0.046
Mof_N 	N 	0.9348	0.354	0.6976	-0.352
Mof_H 	H 	0.0243	0.212	0.3763	0.174
Mof_H 	H 	0.9452	0.2323	0.3705	0.174
Mof_C 	C 	0.2945	0.1669	0.1821	0.016
Mof_C 	C 	0.1614	0.159	0.1681	0.014
Mof_C 	C 	0.2014	0.2793	0.9083	0.028
Mof_C 	C 	0.3329	0.2848	0.879	-0.059
Mof_H 	H 	0.9584	0.3686	0.7511	0.185
Mof_H 	H 	0.8889	0.3634	0.6876	0.192
Mof_H 	H 	0.3365	0.1769	0.2212	0.041
Mof_C 	C 	0.3019	0.1471	0.0795	-0.059
Mof_C 	C 	0.1674	0.1396	0.0663	-0.062
Mof_H 	H 	0.1145	0.1635	0.1983	0.039
Mof_H 	H 	0.1537	0.2712	0.8833	0.054
Mof_C 	C 	0.2116	0.297	0.0131	-0.069
Mof_C 	C 	0.3434	0.3029	0.9839	0.089
Mof_H 	H 	0.3737	0.2802	0.8344	0.079
Mof_H 	H 	0.3488	0.1426	0.0493	0.054
Mof_C 	C 	0.2389	0.1341	0.0226	-0.034
Mof_H 	H 	0.1253	0.1302	0.0268	0.052
Mof_H 	H 	0.1711	0.3001	0.0585	0.063
Mof_C 	C 	0.2819	0.3099	0.0481	-0.075
Mof_H 	H 	0.3911	0.31	0.0099	-0.008
Mof_S 	S 	0.2487	0.10461	0.8915	0.305
Mof_S 	S 	0.29403	0.33886	0.17811	0.291
Mof_O 	O 	0.3222	0.1192	0.8544	-0.226
Mof_O 	O 	0.1856	0.1238	0.8298	-0.21
Mof_C 	C 	0.2427	0.0245	0.912	0.003
Mof_O 	O 	0.3694	0.3255	0.2109	-0.229
Mof_O 	O 	0.2321	0.319	0.2417	-0.22
Mof_C 	C 	0.2856	0.4191	0.1583	0.001
Mof_C 	C 	0.3067	0.9931	0.9377	-0.071
Mof_C 	C 	0.1741	0.996	0.9043	-0.07
Mof_C 	C 	0.2167	0.447	0.1679	-0.076
Mof_C 	C 	0.3478	0.4526	0.129	-0.081
Mof_H 	H 	0.3524	0.013	0.9423	0.072
Mof_C 	C 	0.3008	0.9302	0.9564	0.036
Mof_C 	C 	0.1693	0.9339	0.9246	0.037
Mof_H 	H 	0.1319	0.0182	0.8859	0.074
Mof_H 	H 	0.1751	0.4244	0.1877	0.068
Mof_C 	C 	0.2107	0.5094	0.1474	0.026
Mof_C 	C 	0.3412	0.5136	0.109	0.027
Mof_H 	H 	0.3939	0.4335	0.1231	0.066
Mof_H 	H 	0.3432	0.9078	0.9731	0.048
Mof_C 	C 	0.2328	0.901	0.9507	-0.111
Mof_H 	H 	0.1235	0.9142	0.9208	0.044
Mof_H 	H 	0.1648	0.5287	0.1544	0.034
Mof_C 	C 	0.273	0.5432	0.1163	-0.102
Mof_H 	H 	0.3832	0.5359	0.09	0.034
Mof_C 	C 	0.2281	0.835	0.9758	0.429
Mof_C 	C 	0.2659	0.6095	0.0883	0.381
_end
