data_functionalizedCrystal
_audit_creation_method	'EQeq! by Chris Wilmer'
_symmetry_space_group_name_H-M	'P1'
_symmetry_Int_Tables_number	1
_symmetry_cell_setting	triclinic
loop_
_symmetry_equiv_pos_as_xyz
  x,y,z
_cell_length_a	15.238
_cell_length_b	15.238
_cell_length_c	15.663
_cell_angle_alpha	90
_cell_angle_beta	90
_cell_angle_gamma	120
loop_
_atom_site_label
_atom_site_type_symbol
_atom_site_fract_x
_atom_site_fract_y
_atom_site_fract_z
_atom_site_charge
Mof_Eu	Eu	0.66667	0.33334	0.75	2.306
Mof_Eu	Eu	0.33333	0.66666	0.75	2.306
Mof_Eu	Eu	0.33333	0.66666	0.25	2.293
Mof_Eu	Eu	0.66667	0.33334	0.25	2.293
Mof_Fe	Fe	0.5	0.5	0.5	0.816
Mof_Fe	Fe	-2.6845e-17	0.5	0.5	0.745
Mof_Fe	Fe	0.5	0	0.5	0.745
Mof_Fe	Fe	-0	0.5	-0	0.627
Mof_Fe	Fe	0.5	0.5	-0	0.695
Mof_Fe	Fe	0.5	0	-0	0.627
Mof_H 	H 	0.2873	0.0562	0.8453	0.051
Mof_H 	H 	0.7689	0.7127	0.8453	0.071
Mof_H 	H 	0.9438	0.2311	0.8453	0.075
Mof_H 	H 	0.7127	0.9438	0.8453	0.08
Mof_H 	H 	0.2311	0.2873	0.8453	0.06
Mof_H 	H 	0.0562	0.7689	0.8453	0.056
Mof_H 	H 	0.2311	0.9438	0.6547	0.062
Mof_H 	H 	0.0562	0.2873	0.6547	0.037
Mof_H 	H 	0.7127	0.7689	0.6547	0.057
Mof_H 	H 	0.7689	0.0562	0.6547	0.043
Mof_H 	H 	0.9438	0.7127	0.6547	0.067
Mof_H 	H 	0.2873	0.2311	0.6547	0.046
Mof_H 	H 	0.7127	0.9438	0.1547	0.055
Mof_H 	H 	0.2311	0.2873	0.1547	0.034
Mof_H 	H 	0.0562	0.7689	0.1547	0.031
Mof_H 	H 	0.2873	0.0562	0.1547	0.025
Mof_H 	H 	0.7689	0.7127	0.1547	0.045
Mof_H 	H 	0.9438	0.2311	0.1547	0.05
Mof_H 	H 	0.7689	0.0562	0.3453	0.041
Mof_H 	H 	0.9438	0.7127	0.3453	0.065
Mof_H 	H 	0.2873	0.2311	0.3453	0.044
Mof_H 	H 	0.2311	0.9438	0.3453	0.06
Mof_H 	H 	0.0562	0.2873	0.3453	0.035
Mof_H 	H 	0.7127	0.7689	0.3453	0.055
Mof_H 	H 	0.1995	0.09975	0.75	0.025
Mof_H 	H 	0.90025	0.8005	0.75	0.057
Mof_H 	H 	0.90025	0.09975	0.75	0.04
Mof_H 	H 	0.8005	0.90025	0.75	0.057
Mof_H 	H 	0.09975	0.1995	0.75	0.025
Mof_H 	H 	0.09975	0.90025	0.75	0.04
Mof_H 	H 	0.8005	0.90025	0.25	0.054
Mof_H 	H 	0.09975	0.1995	0.25	0.021
Mof_H 	H 	0.09975	0.90025	0.25	0.037
Mof_H 	H 	0.1995	0.09975	0.25	0.021
Mof_H 	H 	0.90025	0.8005	0.25	0.054
Mof_H 	H 	0.90025	0.09975	0.25	0.037
Mof_C 	C 	0.3217	0.1085	0.8064	-0.036
Mof_C 	C 	0.426	0.1617	0.8039	-0.024
Mof_C 	C 	0.4916	0.1391	0.8613	0.351
Mof_C 	C 	0.7868	0.6783	0.8064	-0.028
Mof_C 	C 	0.7357	0.574	0.8039	-0.014
Mof_C 	C 	0.6475	0.5084	0.8613	0.354
Mof_C 	C 	0.8915	0.2132	0.8064	-0.033
Mof_C 	C 	0.8383	0.2643	0.8039	-0.011
Mof_C 	C 	0.8609	0.3525	0.8613	0.348
Mof_C 	C 	0.6783	0.8915	0.8064	-0.029
Mof_C 	C 	0.574	0.8383	0.8039	-0.008
Mof_C 	C 	0.5084	0.8609	0.8613	0.349
Mof_C 	C 	0.2132	0.3217	0.8064	-0.035
Mof_C 	C 	0.2643	0.426	0.8039	-0.021
Mof_C 	C 	0.3525	0.4916	0.8613	0.353
Mof_C 	C 	0.1085	0.7868	0.8064	-0.033
Mof_C 	C 	0.1617	0.7357	0.8039	-0.02
Mof_C 	C 	0.1391	0.6475	0.8613	0.352
Mof_C 	C 	0.2132	0.8915	0.6936	-0.031
Mof_C 	C 	0.2643	0.8383	0.6961	-0.022
Mof_C 	C 	0.3525	0.8609	0.6387	0.356
Mof_C 	C 	0.1085	0.3217	0.6936	-0.033
Mof_C 	C 	0.1617	0.426	0.6961	-0.035
Mof_C 	C 	0.1391	0.4916	0.6387	0.359
Mof_C 	C 	0.6783	0.7868	0.6936	-0.026
Mof_C 	C 	0.574	0.7357	0.6961	-0.025
Mof_C 	C 	0.5084	0.6475	0.6387	0.363
Mof_C 	C 	0.7868	0.1085	0.6936	-0.031
Mof_C 	C 	0.7357	0.1617	0.6961	-0.031
Mof_C 	C 	0.6475	0.1391	0.6387	0.36
Mof_C 	C 	0.8915	0.6783	0.6936	-0.027
Mof_C 	C 	0.8383	0.574	0.6961	-0.019
Mof_C 	C 	0.8609	0.5084	0.6387	0.357
Mof_C 	C 	0.3217	0.2132	0.6936	-0.033
Mof_C 	C 	0.426	0.2643	0.6961	-0.032
Mof_C 	C 	0.4916	0.3525	0.6387	0.362
Mof_C 	C 	0.6783	0.8915	0.1936	-0.022
Mof_C 	C 	0.574	0.8383	0.1961	-0.028
Mof_C 	C 	0.5084	0.8609	0.1387	0.353
Mof_C 	C 	0.2132	0.3217	0.1936	-0.027
Mof_C 	C 	0.2643	0.426	0.1961	-0.041
Mof_C 	C 	0.3525	0.4916	0.1387	0.357
Mof_C 	C 	0.1085	0.7868	0.1936	-0.026
Mof_C 	C 	0.1617	0.7357	0.1961	-0.04
Mof_C 	C 	0.1391	0.6475	0.1387	0.356
Mof_C 	C 	0.3217	0.1085	0.1936	-0.028
Mof_C 	C 	0.426	0.1617	0.1961	-0.044
Mof_C 	C 	0.4916	0.1391	0.1387	0.355
Mof_C 	C 	0.7868	0.6783	0.1936	-0.021
Mof_C 	C 	0.7357	0.574	0.1961	-0.034
Mof_C 	C 	0.6475	0.5084	0.1387	0.359
Mof_C 	C 	0.8915	0.2132	0.1936	-0.026
Mof_C 	C 	0.8383	0.2643	0.1961	-0.03
Mof_C 	C 	0.8609	0.3525	0.1387	0.352
Mof_C 	C 	0.7868	0.1085	0.3064	-0.025
Mof_C 	C 	0.7357	0.1617	0.3039	-0.035
Mof_C 	C 	0.6475	0.1391	0.3613	0.361
Mof_C 	C 	0.8915	0.6783	0.3064	-0.021
Mof_C 	C 	0.8383	0.574	0.3039	-0.023
Mof_C 	C 	0.8609	0.5084	0.3613	0.358
Mof_C 	C 	0.3217	0.2132	0.3064	-0.027
Mof_C 	C 	0.426	0.2643	0.3039	-0.037
Mof_C 	C 	0.4916	0.3525	0.3613	0.362
Mof_C 	C 	0.2132	0.8915	0.3064	-0.025
Mof_C 	C 	0.2643	0.8383	0.3039	-0.026
Mof_C 	C 	0.3525	0.8609	0.3613	0.357
Mof_C 	C 	0.1085	0.3217	0.3064	-0.028
Mof_C 	C 	0.1617	0.426	0.3039	-0.04
Mof_C 	C 	0.1391	0.4916	0.3613	0.36
Mof_C 	C 	0.6783	0.7868	0.3064	-0.021
Mof_C 	C 	0.574	0.7357	0.3039	-0.029
Mof_C 	C 	0.5084	0.6475	0.3613	0.364
Mof_C 	C 	0.27	0.135	0.75	-0.038
Mof_C 	C 	0.865	0.73	0.75	-0.025
Mof_C 	C 	0.865	0.135	0.75	-0.03
Mof_C 	C 	0.73	0.865	0.75	-0.025
Mof_C 	C 	0.135	0.27	0.75	-0.038
Mof_C 	C 	0.135	0.865	0.75	-0.03
Mof_C 	C 	0.73	0.865	0.25	-0.039
Mof_C 	C 	0.135	0.27	0.25	-0.052
Mof_C 	C 	0.135	0.865	0.25	-0.044
Mof_C 	C 	0.27	0.135	0.25	-0.052
Mof_C 	C 	0.865	0.73	0.25	-0.039
Mof_C 	C 	0.865	0.135	0.25	-0.044
Mof_N 	N 	0.4773	0.23865	0.75	-0.218
Mof_N 	N 	0.76135	0.5227	0.75	-0.218
Mof_N 	N 	0.76135	0.23865	0.75	-0.218
Mof_N 	N 	0.5227	0.76135	0.75	-0.218
Mof_N 	N 	0.23865	0.4773	0.75	-0.218
Mof_N 	N 	0.23865	0.76135	0.75	-0.219
Mof_N 	N 	0.5227	0.76135	0.25	-0.215
Mof_N 	N 	0.23865	0.4773	0.25	-0.216
Mof_N 	N 	0.23865	0.76135	0.25	-0.216
Mof_N 	N 	0.4773	0.23865	0.25	-0.216
Mof_N 	N 	0.76135	0.5227	0.25	-0.215
Mof_N 	N 	0.76135	0.23865	0.25	-0.216
Mof_O 	O 	0.5867	0.1987	0.85649	-0.455
Mof_O 	O 	0.4475	0.0632	0.9085	-0.311
Mof_O 	O 	0.612	0.4133	0.85649	-0.451
Mof_O 	O 	0.6157	0.5525	0.9085	-0.301
Mof_O 	O 	0.8013	0.388	0.85649	-0.442
Mof_O 	O 	0.9368	0.3843	0.9085	-0.272
Mof_O 	O 	0.4133	0.8013	0.85649	-0.441
Mof_O 	O 	0.5525	0.9368	0.9085	-0.271
Mof_O 	O 	0.388	0.5867	0.85649	-0.452
Mof_O 	O 	0.3843	0.4475	0.9085	-0.305
Mof_O 	O 	0.1987	0.612	0.85649	-0.454
Mof_O 	O 	0.0632	0.6157	0.9085	-0.309
Mof_O 	O 	0.388	0.8013	0.64351	-0.464
Mof_O 	O 	0.3843	0.9368	0.5915	-0.326
Mof_O 	O 	0.1987	0.5867	0.64351	-0.478
Mof_O 	O 	0.0632	0.4475	0.5915	-0.366
Mof_O 	O 	0.4133	0.612	0.64351	-0.474
Mof_O 	O 	0.5525	0.6157	0.5915	-0.356
Mof_O 	O 	0.612	0.1987	0.64351	-0.477
Mof_O 	O 	0.6157	0.0632	0.5915	-0.364
Mof_O 	O 	0.8013	0.4133	0.64351	-0.464
Mof_O 	O 	0.9368	0.5525	0.5915	-0.324
Mof_O 	O 	0.5867	0.388	0.64351	-0.475
Mof_O 	O 	0.4475	0.3843	0.5915	-0.36
Mof_O 	O 	0.4133	0.8013	0.14351	-0.471
Mof_O 	O 	0.5525	0.9368	0.0915	-0.331
Mof_O 	O 	0.388	0.5867	0.14351	-0.482
Mof_O 	O 	0.3843	0.4475	0.0915	-0.368
Mof_O 	O 	0.1987	0.612	0.14351	-0.485
Mof_O 	O 	0.0632	0.6157	0.0915	-0.371
Mof_O 	O 	0.5867	0.1987	0.14351	-0.485
Mof_O 	O 	0.4475	0.0632	0.0915	-0.373
Mof_O 	O 	0.612	0.4133	0.14351	-0.481
Mof_O 	O 	0.6157	0.5525	0.0915	-0.363
Mof_O 	O 	0.8013	0.388	0.14351	-0.472
Mof_O 	O 	0.9368	0.3843	0.0915	-0.332
Mof_O 	O 	0.612	0.1987	0.35649	-0.476
Mof_O 	O 	0.6157	0.0632	0.4085	-0.364
Mof_O 	O 	0.8013	0.4133	0.35649	-0.462
Mof_O 	O 	0.9368	0.5525	0.4085	-0.324
Mof_O 	O 	0.5867	0.388	0.35649	-0.473
Mof_O 	O 	0.4475	0.3843	0.4085	-0.36
Mof_O 	O 	0.388	0.8013	0.35649	-0.463
Mof_O 	O 	0.3843	0.9368	0.4085	-0.326
Mof_O 	O 	0.1987	0.5867	0.35649	-0.476
Mof_O 	O 	0.0632	0.4475	0.4085	-0.366
Mof_O 	O 	0.4133	0.612	0.35649	-0.472
Mof_O 	O 	0.5525	0.6157	0.4085	-0.356
_end
