# CIF file generated by openbabel 3.1.0, see https://openbabel.org
data_I
_chemical_name_common 'image0'
_cell_length_a 10.089
_cell_length_b 14.789
_cell_length_c 13.988
_cell_angle_alpha 90
_cell_angle_beta 90
_cell_angle_gamma 90
_space_group_name_H-M_alt 'P 1'
_space_group_name_Hall 'P 1'
loop_
    _symmetry_equiv_pos_as_xyz
    x,y,z
loop_
    _atom_site_label
    _atom_site_type_symbol
    _atom_site_fract_x
    _atom_site_fract_y
    _atom_site_fract_z
    _atom_site_occupancy
    Zn1      Zn       0.04048    0.41273    0.10600    1.000
    P1       P        0.01889    0.37686    0.88962    1.000
    H1       H        0.11700    0.39300    0.83300    1.000
    P2       P        0.26875    0.10697    0.78128    1.000
    O1       O        0.08620    0.35680    0.98460    1.000
    O2       O        0.94100    0.29560    0.85370    1.000
    O3       O        0.93110    0.45910    0.89450    1.000
    O4       O        0.33700    0.14510    0.69180    1.000
    O5       O        0.14220    0.15020    0.80300    1.000
    O6       O        0.35550    0.11370    0.87000    1.000
    P3       P        0.20500    0.33250    0.28610    1.000
    Zn2      Zn       0.45952    0.08727    0.60600    1.000
    P4       P        0.48111    0.12314    0.38962    1.000
    H2       H        0.38300    0.10700    0.33300    1.000
    P5       P        0.23125    0.39303    0.28128    1.000
    O7       O        0.41380    0.14320    0.48460    1.000
    O8       O        0.55900    0.20440    0.35370    1.000
    O9       O        0.56890    0.04090    0.39450    1.000
    O10      O        0.16300    0.35490    0.19180    1.000
    O11      O        0.35780    0.34980    0.30300    1.000
    O12      O        0.14450    0.38630    0.37000    1.000
    P6       P        0.29500    0.16750    0.78610    1.000
    Zn3      Zn       0.95952    0.41273    0.39400    1.000
    P7       P        0.98111    0.37686    0.61038    1.000
    H3       H        0.88300    0.39300    0.66700    1.000
    P8       P        0.73125    0.10697    0.71872    1.000
    O13      O        0.91380    0.35680    0.51540    1.000
    O14      O        0.05900    0.29560    0.64630    1.000
    O15      O        0.06890    0.45910    0.60550    1.000
    O16      O        0.66300    0.14510    0.80820    1.000
    O17      O        0.85780    0.15020    0.69700    1.000
    O18      O        0.64450    0.11370    0.63000    1.000
    P9       P        0.79500    0.33250    0.21390    1.000
    Zn4      Zn       0.54048    0.08727    0.89400    1.000
    P10      P        0.51889    0.12314    0.11038    1.000
    H4       H        0.61700    0.10700    0.16700    1.000
    P11      P        0.76875    0.39303    0.21872    1.000
    O19      O        0.58620    0.14320    0.01540    1.000
    O20      O        0.44100    0.20440    0.14630    1.000
    O21      O        0.43110    0.04090    0.10550    1.000
    O22      O        0.83700    0.35490    0.30820    1.000
    O23      O        0.64220    0.34980    0.19700    1.000
    O24      O        0.85550    0.38630    0.13000    1.000
    P12      P        0.70500    0.16750    0.71390    1.000
    Zn5      Zn       0.95952    0.58727    0.89400    1.000
    P13      P        0.98111    0.62314    0.11038    1.000
    H5       H        0.88300    0.60700    0.16700    1.000
    P14      P        0.73125    0.89303    0.21872    1.000
    O25      O        0.91380    0.64320    0.01540    1.000
    O26      O        0.05900    0.70440    0.14630    1.000
    O27      O        0.06890    0.54090    0.10550    1.000
    O28      O        0.66300    0.85490    0.30820    1.000
    O29      O        0.85780    0.84980    0.19700    1.000
    O30      O        0.64450    0.88630    0.13000    1.000
    P15      P        0.79500    0.66750    0.71390    1.000
    Zn6      Zn       0.54048    0.91273    0.39400    1.000
    P16      P        0.51889    0.87686    0.61038    1.000
    H6       H        0.61700    0.89300    0.66700    1.000
    P17      P        0.76875    0.60697    0.71872    1.000
    O31      O        0.58620    0.85680    0.51540    1.000
    O32      O        0.44100    0.79560    0.64630    1.000
    O33      O        0.43110    0.95910    0.60550    1.000
    O34      O        0.83700    0.64510    0.80820    1.000
    O35      O        0.64220    0.65020    0.69700    1.000
    O36      O        0.85550    0.61370    0.63000    1.000
    P18      P        0.70500    0.83250    0.21390    1.000
    Zn7      Zn       0.04048    0.58727    0.60600    1.000
    P19      P        0.01889    0.62314    0.38962    1.000
    H7       H        0.11700    0.60700    0.33300    1.000
    P20      P        0.26875    0.89303    0.28128    1.000
    O37      O        0.08620    0.64320    0.48460    1.000
    O38      O        0.94100    0.70440    0.35370    1.000
    O39      O        0.93110    0.54090    0.39450    1.000
    O40      O        0.33700    0.85490    0.19180    1.000
    O41      O        0.14220    0.84980    0.30300    1.000
    O42      O        0.35550    0.88630    0.37000    1.000
    P21      P        0.20500    0.66750    0.78610    1.000
    Zn8      Zn       0.45952    0.91273    0.10600    1.000
    P22      P        0.48111    0.87686    0.88962    1.000
    H8       H        0.38300    0.89300    0.83300    1.000
    P23      P        0.23125    0.60697    0.78128    1.000
    O43      O        0.41380    0.85680    0.98460    1.000
    O44      O        0.55900    0.79560    0.85370    1.000
    O45      O        0.56890    0.95910    0.89450    1.000
    O46      O        0.16300    0.64510    0.69180    1.000
    O47      O        0.35780    0.65020    0.80300    1.000
    O48      O        0.14450    0.61370    0.87000    1.000
    P24      P        0.29500    0.83250    0.28610    1.000
    Zn9      Zn       0.00000    0.21703    0.75000    1.000
    Zn10     Zn       0.50000    0.28297    0.25000    1.000
    Zn11     Zn       0.00000    0.78297    0.25000    1.000
    Zn12     Zn       0.50000    0.71703    0.75000    1.000
