data_functionalizedCrystal
_audit_creation_method	'EQeq! by Chris Wilmer'
_symmetry_space_group_name_H-M	'P1'
_symmetry_Int_Tables_number	1
_symmetry_cell_setting	triclinic
loop_
_symmetry_equiv_pos_as_xyz
  x,y,z
_cell_length_a	14.71
_cell_length_b	13.074
_cell_length_c	15.261
_cell_angle_alpha	90
_cell_angle_beta	111.04
_cell_angle_gamma	90
loop_
_atom_site_label
_atom_site_type_symbol
_atom_site_fract_x
_atom_site_fract_y
_atom_site_fract_z
_atom_site_charge
Mof_Al	Al	0.25026	0.62905	0.58198	4.451
Mof_Al	Al	0.08357	0.39527	0.66327	5.985
Mof_Al	Al	0.87562	0.6907	0.6232	5.429
Mof_P 	P 	0.09202	0.63458	0.67058	1.46
Mof_P 	P 	0.24583	0.38831	0.57898	1.489
Mof_P 	P 	0.12278	0.68508	0.37194	1.427
Mof_O 	O 	0.0637	0.5266	0.6357	-1.977
Mof_O 	O 	0.2795	0.4944	0.6127	-1.452
Mof_O 	O 	0.1729	0.3483	0.6209	-1.902
Mof_O 	O 	0.1615	0.6793	0.6293	-1.438
Mof_O 	O 	0.0013	0.7024	0.6406	-1.728
Mof_O 	O 	0.2085	0.6435	0.4542	-1.469
Mof_O 	O 	0.1212	0.6267	0.2856	-1.865
Mof_O 	O 	0.3351	0.3197	0.6089	-1.671
Mof_O 	O 	0.1978	0.3878	0.4726	-1.736
Mof_O 	O 	0.1359	0.7997	0.3624	-1.413
Mof_O 	O 	0.1401	0.6316	0.777	-1.731
Mof_O 	O 	0.0276	0.6705	0.3881	-1.864
Mof_Al	Al	0.75026	0.12905	0.58198	4.452
Mof_Al	Al	0.58357	0.89527	0.66327	5.981
Mof_Al	Al	0.37562	0.1907	0.6232	5.433
Mof_P 	P 	0.59202	0.13458	0.67058	1.461
Mof_P 	P 	0.74583	0.88831	0.57898	1.489
Mof_P 	P 	0.62278	0.18508	0.37194	1.427
Mof_O 	O 	0.5637	0.0266	0.6357	-1.976
Mof_O 	O 	0.7795	0.9944	0.6127	-1.453
Mof_O 	O 	0.6729	0.8483	0.6209	-1.901
Mof_O 	O 	0.6615	0.1793	0.6293	-1.438
Mof_O 	O 	0.5013	0.2024	0.6406	-1.728
Mof_O 	O 	0.7085	0.1435	0.4542	-1.469
Mof_O 	O 	0.6212	0.1267	0.2856	-1.866
Mof_O 	O 	0.8351	0.8197	0.6089	-1.671
Mof_O 	O 	0.6978	0.8878	0.4726	-1.736
Mof_O 	O 	0.6359	0.2997	0.3624	-1.413
Mof_O 	O 	0.6401	0.1316	0.777	-1.73
Mof_O 	O 	0.5276	0.1705	0.3881	-1.862
Mof_Al	Al	0.74974	0.62905	0.91802	4.447
Mof_Al	Al	0.91643	0.39527	0.83673	5.975
Mof_Al	Al	0.12438	0.6907	0.8768	5.438
Mof_P 	P 	0.90798	0.63458	0.82942	1.46
Mof_P 	P 	0.75417	0.38831	0.92102	1.488
Mof_P 	P 	0.87722	0.68508	0.12806	1.428
Mof_O 	O 	0.9363	0.5266	0.8643	-1.975
Mof_O 	O 	0.7205	0.4944	0.8873	-1.451
Mof_O 	O 	0.8271	0.3483	0.8791	-1.9
Mof_O 	O 	0.8385	0.6793	0.8707	-1.438
Mof_O 	O 	0.9987	0.7024	0.8594	-1.731
Mof_O 	O 	0.7915	0.6435	0.0458	-1.466
Mof_O 	O 	0.8788	0.6267	0.2144	-1.866
Mof_O 	O 	0.6649	0.3197	0.8911	-1.671
Mof_O 	O 	0.8022	0.3878	0.0274	-1.736
Mof_O 	O 	0.8641	0.7997	0.1376	-1.414
Mof_O 	O 	0.8599	0.6316	0.723	-1.729
Mof_O 	O 	0.9724	0.6705	0.1119	-1.859
Mof_Al	Al	0.24974	0.12905	0.91802	4.462
Mof_Al	Al	0.41643	0.89527	0.83673	5.979
Mof_Al	Al	0.62438	0.1907	0.8768	5.433
Mof_P 	P 	0.40798	0.13458	0.82942	1.461
Mof_P 	P 	0.25417	0.88831	0.92102	1.49
Mof_P 	P 	0.37722	0.18508	0.12806	1.428
Mof_O 	O 	0.4363	0.0266	0.8643	-1.975
Mof_O 	O 	0.2205	0.9944	0.8873	-1.456
Mof_O 	O 	0.3271	0.8483	0.8791	-1.901
Mof_O 	O 	0.3385	0.1793	0.8707	-1.44
Mof_O 	O 	0.4987	0.2024	0.8594	-1.728
Mof_O 	O 	0.2915	0.1435	0.0458	-1.472
Mof_O 	O 	0.3788	0.1267	0.2144	-1.866
Mof_O 	O 	0.1649	0.8197	0.8911	-1.672
Mof_O 	O 	0.3022	0.8878	0.0274	-1.736
Mof_O 	O 	0.3641	0.2997	0.1376	-1.412
Mof_O 	O 	0.3599	0.1316	0.723	-1.73
Mof_O 	O 	0.4724	0.1705	0.1119	-1.862
Mof_Al	Al	0.74974	0.37095	0.41802	4.452
Mof_Al	Al	0.91643	0.60473	0.33673	5.986
Mof_Al	Al	0.12438	0.3093	0.3768	5.43
Mof_P 	P 	0.90798	0.36542	0.32942	1.461
Mof_P 	P 	0.75417	0.61169	0.42102	1.489
Mof_P 	P 	0.87722	0.31492	0.62806	1.427
Mof_O 	O 	0.9363	0.4734	0.3643	-1.977
Mof_O 	O 	0.7205	0.5056	0.3873	-1.452
Mof_O 	O 	0.8271	0.6517	0.3791	-1.902
Mof_O 	O 	0.8385	0.3207	0.3707	-1.438
Mof_O 	O 	0.9987	0.2976	0.3594	-1.728
Mof_O 	O 	0.7915	0.3565	0.5458	-1.469
Mof_O 	O 	0.8788	0.3733	0.7144	-1.865
Mof_O 	O 	0.6649	0.6803	0.3911	-1.671
Mof_O 	O 	0.8022	0.6122	0.5274	-1.736
Mof_O 	O 	0.8641	0.2003	0.6376	-1.413
Mof_O 	O 	0.8599	0.3684	0.223	-1.731
Mof_O 	O 	0.9724	0.3295	0.6119	-1.864
Mof_Al	Al	0.24974	0.87095	0.41802	4.452
Mof_Al	Al	0.41643	0.10473	0.33673	5.981
Mof_Al	Al	0.62438	0.8093	0.3768	5.433
Mof_P 	P 	0.40798	0.86542	0.32942	1.461
Mof_P 	P 	0.25417	0.11169	0.42102	1.489
Mof_P 	P 	0.37722	0.81492	0.62806	1.427
Mof_O 	O 	0.4363	0.9734	0.3643	-1.976
Mof_O 	O 	0.2205	0.0056	0.3873	-1.453
Mof_O 	O 	0.3271	0.1517	0.3791	-1.901
Mof_O 	O 	0.3385	0.8207	0.3707	-1.438
Mof_O 	O 	0.4987	0.7976	0.3594	-1.728
Mof_O 	O 	0.2915	0.8565	0.5458	-1.469
Mof_O 	O 	0.3788	0.8733	0.7144	-1.866
Mof_O 	O 	0.1649	0.1803	0.3911	-1.671
Mof_O 	O 	0.3022	0.1122	0.5274	-1.736
Mof_O 	O 	0.3641	0.7003	0.6376	-1.413
Mof_O 	O 	0.3599	0.8684	0.223	-1.73
Mof_O 	O 	0.4724	0.8295	0.6119	-1.862
Mof_Al	Al	0.25026	0.37095	0.08198	4.447
Mof_Al	Al	0.08357	0.60473	0.16327	5.975
Mof_Al	Al	0.87562	0.3093	0.1232	5.438
Mof_P 	P 	0.09202	0.36542	0.17058	1.46
Mof_P 	P 	0.24583	0.61169	0.07898	1.488
Mof_P 	P 	0.12278	0.31492	0.87194	1.428
Mof_O 	O 	0.0637	0.4734	0.1357	-1.975
Mof_O 	O 	0.2795	0.5056	0.1127	-1.451
Mof_O 	O 	0.1729	0.6517	0.1209	-1.9
Mof_O 	O 	0.1615	0.3207	0.1293	-1.438
Mof_O 	O 	0.0013	0.2976	0.1406	-1.731
Mof_O 	O 	0.2085	0.3565	0.9542	-1.466
Mof_O 	O 	0.1212	0.3733	0.7856	-1.866
Mof_O 	O 	0.3351	0.6803	0.1089	-1.671
Mof_O 	O 	0.1978	0.6122	0.9726	-1.736
Mof_O 	O 	0.1359	0.2003	0.8624	-1.414
Mof_O 	O 	0.1401	0.3684	0.277	-1.729
Mof_O 	O 	0.0276	0.3295	0.8881	-1.859
Mof_Al	Al	0.75026	0.87095	0.08198	4.462
Mof_Al	Al	0.58357	0.10473	0.16327	5.979
Mof_Al	Al	0.37562	0.8093	0.1232	5.433
Mof_P 	P 	0.59202	0.86542	0.17058	1.461
Mof_P 	P 	0.74583	0.11169	0.07898	1.49
Mof_P 	P 	0.62278	0.81492	0.87194	1.428
Mof_O 	O 	0.5637	0.9734	0.1357	-1.975
Mof_O 	O 	0.7795	0.0056	0.1127	-1.456
Mof_O 	O 	0.6729	0.1517	0.1209	-1.901
Mof_O 	O 	0.6615	0.8207	0.1293	-1.44
Mof_O 	O 	0.5013	0.7976	0.1406	-1.728
Mof_O 	O 	0.7085	0.8565	0.9542	-1.472
Mof_O 	O 	0.6212	0.8733	0.7856	-1.866
Mof_O 	O 	0.8351	0.1803	0.1089	-1.672
Mof_O 	O 	0.6978	0.1122	0.9726	-1.736
Mof_O 	O 	0.6359	0.7003	0.8624	-1.412
Mof_O 	O 	0.6401	0.8684	0.277	-1.73
Mof_O 	O 	0.5276	0.8295	0.8881	-1.862
_end
