data_functionalizedCrystal
_audit_creation_method	'EQeq! by Chris Wilmer'
_symmetry_space_group_name_H-M	'P1'
_symmetry_Int_Tables_number	1
_symmetry_cell_setting	triclinic
loop_
_symmetry_equiv_pos_as_xyz
  x,y,z
_cell_length_a	22.219
_cell_length_b	5.5243
_cell_length_c	18.4719
_cell_angle_alpha	90
_cell_angle_beta	115.962
_cell_angle_gamma	90
loop_
_atom_site_label
_atom_site_type_symbol
_atom_site_fract_x
_atom_site_fract_y
_atom_site_fract_z
_atom_site_charge
Mof_C 	C 	0.6449	0.6073	0.33038	-0.176
Mof_H 	H 	0.6546	0.7372	0.3052	0.087
Mof_O 	O 	0.49831	0.81802	0.16494	-0.457
Mof_O 	O 	0.56339	0.0993	0.15187	-0.333
Mof_C 	C 	0.6138	0.2205	0.39869	0.094
Mof_H 	H 	0.6034	0.0878	0.4221	-0.01
Mof_N 	N 	0.57894	0.25422	0.31851	-0.267
Mof_C 	C 	0.53356	0.9035	0.13172	0.365
Mof_C 	C 	0.68058	0.5756	0.41339	0.123
Mof_C 	C 	0.66403	0.3745	0.44723	-0.173
Mof_H 	H 	0.6869	0.345	0.5022	0.094
Mof_C 	C 	0.59504	0.4449	0.28554	0.091
Mof_H 	H 	0.5718	0.4689	0.2303	0.001
Mof_C 	C 	0.49965	0.567	0.03358	0.027
Mof_C 	C 	0.53677	0.7627	0.06509	-0.206
Mof_C 	C 	0.73244	0.7518	0.45995	-0.09
Mof_H 	H 	0.5656	0.822	0.044	0.114
Mof_H 	H 	0.7404	0.875	0.4308	0.064
Mof_H 	H 	0.4703	0.512	0.0554	0.043
Mof_C 	C 	0.1449	0.1073	0.33038	-0.178
Mof_H 	H 	0.1546	0.2372	0.3052	0.087
Mof_O 	O 	0.99831	0.31802	0.16494	-0.416
Mof_O 	O 	0.06339	0.5993	0.15187	-0.345
Mof_C 	C 	0.1138	0.7205	0.39869	0.092
Mof_H 	H 	0.1034	0.5878	0.4221	-0.016
Mof_N 	N 	0.07894	0.75422	0.31851	-0.272
Mof_C 	C 	0.03356	0.4035	0.13172	0.37
Mof_C 	C 	0.18058	0.0756	0.41339	0.125
Mof_C 	C 	0.16403	0.8745	0.44723	-0.179
Mof_H 	H 	0.1869	0.845	0.5022	0.093
Mof_C 	C 	0.09504	0.9449	0.28554	0.088
Mof_H 	H 	0.0718	0.9689	0.2303	-0.008
Mof_C 	C 	0.99965	0.067	0.03358	0.289
Mof_C 	C 	0.03677	0.2627	0.06509	-0.385
Mof_C 	C 	0.23244	0.2518	0.45995	-0.091
Mof_H 	H 	0.0656	0.322	0.044	0.167
Mof_H 	H 	0.2404	0.375	0.4308	0.063
Mof_H 	H 	0.9703	0.012	0.0554	-0.03
Mof_C 	C 	0.3551	0.6073	0.16962	-0.179
Mof_H 	H 	0.3454	0.7372	0.1948	0.089
Mof_O 	O 	0.50169	0.81802	0.33506	-0.456
Mof_O 	O 	0.43661	0.0993	0.34813	-0.333
Mof_C 	C 	0.3862	0.2205	0.10131	0.099
Mof_H 	H 	0.3966	0.0878	0.0779	-0.013
Mof_N 	N 	0.42106	0.25422	0.18149	-0.268
Mof_C 	C 	0.46644	0.9035	0.36828	0.367
Mof_C 	C 	0.31942	0.5756	0.08661	0.129
Mof_C 	C 	0.33597	0.3745	0.05277	-0.183
Mof_H 	H 	0.3131	0.345	0.9978	0.099
Mof_C 	C 	0.40496	0.4449	0.21446	0.093
Mof_H 	H 	0.4282	0.4689	0.2697	0
Mof_C 	C 	0.50035	0.567	0.46642	0.033
Mof_C 	C 	0.46323	0.7627	0.43491	-0.209
Mof_C 	C 	0.26756	0.7518	0.04005	-0.099
Mof_H 	H 	0.4344	0.822	0.456	0.116
Mof_H 	H 	0.2596	0.875	0.0692	0.066
Mof_H 	H 	0.5297	0.512	0.4446	0.041
Mof_C 	C 	0.8551	0.1073	0.16962	-0.173
Mof_H 	H 	0.8454	0.2372	0.1948	0.089
Mof_O 	O 	0.00169	0.31802	0.33506	-0.491
Mof_O 	O 	0.93661	0.5993	0.34813	-0.315
Mof_C 	C 	0.8862	0.7205	0.10131	0.1
Mof_H 	H 	0.8966	0.5878	0.0779	-0.005
Mof_N 	N 	0.92106	0.75422	0.18149	-0.257
Mof_C 	C 	0.96644	0.4035	0.36828	0.355
Mof_C 	C 	0.81942	0.0756	0.08661	0.126
Mof_C 	C 	0.83597	0.8745	0.05277	-0.175
Mof_H 	H 	0.8131	0.845	0.9978	0.096
Mof_C 	C 	0.90496	0.9449	0.21446	0.092
Mof_H 	H 	0.9282	0.9689	0.2697	0.011
Mof_C 	C 	0.00035	0.067	0.46642	-0.233
Mof_C 	C 	0.96323	0.2627	0.43491	-0.026
Mof_C 	C 	0.76756	0.2518	0.04005	-0.095
Mof_H 	H 	0.9344	0.322	0.456	0.062
Mof_H 	H 	0.7596	0.375	0.0692	0.064
Mof_H 	H 	0.0297	0.012	0.4446	0.116
Mof_C 	C 	0.3551	0.3927	0.66962	-0.175
Mof_H 	H 	0.3454	0.2628	0.6948	0.088
Mof_O 	O 	0.50169	0.18198	0.83506	-0.457
Mof_O 	O 	0.43661	0.9007	0.84813	-0.334
Mof_C 	C 	0.3862	0.7795	0.60131	0.094
Mof_H 	H 	0.3966	0.9122	0.5779	-0.01
Mof_N 	N 	0.42106	0.74578	0.68149	-0.267
Mof_C 	C 	0.46644	0.0965	0.86828	0.368
Mof_C 	C 	0.31942	0.4244	0.58661	0.122
Mof_C 	C 	0.33597	0.6255	0.55277	-0.173
Mof_H 	H 	0.3131	0.655	0.4978	0.093
Mof_C 	C 	0.40496	0.5551	0.71446	0.09
Mof_H 	H 	0.4282	0.5311	0.7697	0.001
Mof_C 	C 	0.50035	0.433	0.96642	0.039
Mof_C 	C 	0.46323	0.2373	0.93491	-0.212
Mof_C 	C 	0.26756	0.2482	0.54005	-0.088
Mof_H 	H 	0.4344	0.178	0.956	0.118
Mof_H 	H 	0.2596	0.125	0.5692	0.063
Mof_H 	H 	0.5297	0.488	0.9446	0.04
Mof_C 	C 	0.8551	0.8927	0.66962	-0.171
Mof_H 	H 	0.8454	0.7628	0.6948	0.088
Mof_O 	O 	0.00169	0.68198	0.83506	-0.49
Mof_O 	O 	0.93661	0.4007	0.84813	-0.316
Mof_C 	C 	0.8862	0.2795	0.60131	0.098
Mof_H 	H 	0.8966	0.4122	0.5779	-0.004
Mof_N 	N 	0.92106	0.24578	0.68149	-0.257
Mof_C 	C 	0.96644	0.5965	0.86828	0.356
Mof_C 	C 	0.81942	0.9244	0.58661	0.122
Mof_C 	C 	0.83597	0.1255	0.55277	-0.17
Mof_H 	H 	0.8131	0.155	0.4978	0.094
Mof_C 	C 	0.90496	0.0551	0.71446	0.09
Mof_H 	H 	0.9282	0.0311	0.7697	0.011
Mof_C 	C 	0.00035	0.933	0.96642	-0.223
Mof_C 	C 	0.96323	0.7373	0.93491	-0.032
Mof_C 	C 	0.76756	0.7482	0.54005	-0.088
Mof_H 	H 	0.9344	0.678	0.956	0.064
Mof_H 	H 	0.7596	0.625	0.5692	0.062
Mof_H 	H 	0.0297	0.988	0.9446	0.113
Mof_C 	C 	0.6449	0.3927	0.83038	-0.172
Mof_H 	H 	0.6546	0.2628	0.8052	0.087
Mof_O 	O 	0.49831	0.18198	0.66494	-0.456
Mof_O 	O 	0.56339	0.9007	0.65187	-0.333
Mof_C 	C 	0.6138	0.7795	0.89869	0.091
Mof_H 	H 	0.6034	0.9122	0.9221	-0.009
Mof_N 	N 	0.57894	0.74578	0.81851	-0.266
Mof_C 	C 	0.53356	0.0965	0.63172	0.367
Mof_C 	C 	0.68058	0.4244	0.91339	0.118
Mof_C 	C 	0.66403	0.6255	0.94723	-0.166
Mof_H 	H 	0.6869	0.655	0.0022	0.09
Mof_C 	C 	0.59504	0.5551	0.78554	0.089
Mof_H 	H 	0.5718	0.5311	0.7303	0.002
Mof_C 	C 	0.49965	0.433	0.53358	0.033
Mof_C 	C 	0.53677	0.2373	0.56509	-0.209
Mof_C 	C 	0.73244	0.2482	0.95995	-0.082
Mof_H 	H 	0.5656	0.178	0.544	0.116
Mof_H 	H 	0.7404	0.125	0.9308	0.062
Mof_H 	H 	0.4703	0.488	0.5554	0.042
Mof_C 	C 	0.1449	0.8927	0.83038	-0.173
Mof_H 	H 	0.1546	0.7628	0.8052	0.086
Mof_O 	O 	0.99831	0.68198	0.66494	-0.417
Mof_O 	O 	0.06339	0.4007	0.65187	-0.345
Mof_C 	C 	0.1138	0.2795	0.89869	0.086
Mof_H 	H 	0.1034	0.4122	0.9221	-0.013
Mof_N 	N 	0.07894	0.24578	0.81851	-0.271
Mof_C 	C 	0.03356	0.5965	0.63172	0.372
Mof_C 	C 	0.18058	0.9244	0.91339	0.117
Mof_C 	C 	0.16403	0.1255	0.94723	-0.167
Mof_H 	H 	0.1869	0.155	0.0022	0.087
Mof_C 	C 	0.09504	0.0551	0.78554	0.086
Mof_H 	H 	0.0718	0.0311	0.7303	-0.007
Mof_C 	C 	0.99965	0.933	0.53358	0.298
Mof_C 	C 	0.03677	0.7373	0.56509	-0.39
Mof_C 	C 	0.23244	0.7482	0.95995	-0.08
Mof_H 	H 	0.0656	0.678	0.544	0.169
Mof_H 	H 	0.2404	0.625	0.9308	0.06
Mof_H 	H 	0.9703	0.988	0.5554	-0.032
Mof_Zn	Zn	0.5	0.03681	0.25	1.208
Mof_Zn	Zn	-1.39424e-17	0.53681	0.25	1.194
Mof_Zn	Zn	0.5	0.96319	0.75	1.208
Mof_Zn	Zn	3.36125e-33	0.46319	0.75	1.195
_end
