data_functionalizedCrystal
_audit_creation_method	'EQeq! by Chris Wilmer'
_symmetry_space_group_name_H-M	'P1'
_symmetry_Int_Tables_number	1
_symmetry_cell_setting	triclinic
loop_
_symmetry_equiv_pos_as_xyz
  x,y,z
_cell_length_a	30.516
_cell_length_b	30.516
_cell_length_c	17.704
_cell_angle_alpha	90
_cell_angle_beta	90
_cell_angle_gamma	120
loop_
_atom_site_label
_atom_site_type_symbol
_atom_site_fract_x
_atom_site_fract_y
_atom_site_fract_z
_atom_site_charge
Mof_Zn	Zn	0.63184	0.85363	0.5234	1.21
Mof_N 	N 	0.63886	0.89247	0.42369	-0.248
Mof_N 	N 	0.60453	0.79395	0.44729	-0.248
Mof_N 	N 	0.5855	0.77118	0.32836	-0.199
Mof_H 	H 	0.5829	0.7735	0.2792	0.15
Mof_O 	O 	0.4794	0.49953	0.24583	-0.462
Mof_O 	O 	0.45028	0.52959	0.15604	-0.319
Mof_O 	O 	0.58592	0.62749	0.74709	-0.358
Mof_O 	O 	0.50335	0.59083	0.73154	-0.426
Mof_C 	C 	0.65316	0.94156	0.41679	0.074
Mof_H 	H 	0.6632	0.9622	0.4607	0.006
Mof_C 	C 	0.65373	0.9632	0.34796	-0.115
Mof_H 	H 	0.6635	0.998	0.3447	0.084
Mof_C 	C 	0.63998	0.9335	0.28417	0.038
Mof_H 	H 	0.6406	0.9478	0.2362	0.025
Mof_C 	C 	0.62518	0.88272	0.29001	-0.096
Mof_H 	H 	0.6158	0.8617	0.2465	0.07
Mof_C 	C 	0.62446	0.86342	0.36113	0.036
Mof_C 	C 	0.60596	0.80996	0.37723	0.083
Mof_C 	C 	0.58134	0.74194	0.44346	0.029
Mof_C 	C 	0.5693	0.72705	0.36867	0.036
Mof_C 	C 	0.54469	0.67782	0.33096	0.049
Mof_C 	C 	0.51704	0.67074	0.26424	-0.103
Mof_H 	H 	0.5145	0.6981	0.2436	0.08
Mof_C 	C 	0.49346	0.62419	0.22837	0.037
Mof_H 	H 	0.4748	0.6199	0.1834	0.032
Mof_C 	C 	0.49687	0.58366	0.25752	-0.111
Mof_C 	C 	0.52456	0.59066	0.3237	0.036
Mof_H 	H 	0.5271	0.5633	0.3442	0.033
Mof_C 	C 	0.54827	0.63708	0.35962	-0.106
Mof_H 	H 	0.5672	0.6413	0.4043	0.072
Mof_C 	C 	0.47302	0.53395	0.2162	0.348
Mof_C 	C 	0.57191	0.7119	0.51286	0.027
Mof_C 	C 	0.60916	0.72848	0.56862	-0.095
Mof_H 	H 	0.6402	0.7592	0.5618	0.053
Mof_C 	C 	0.60108	0.70036	0.63387	0.02
Mof_H 	H 	0.6267	0.7118	0.6714	0.033
Mof_C 	C 	0.55573	0.65562	0.64459	-0.085
Mof_C 	C 	0.51779	0.64004	0.59047	0.019
Mof_H 	H 	0.4861	0.6103	0.5986	0.042
Mof_C 	C 	0.52605	0.66777	0.52452	-0.089
Mof_H 	H 	0.5002	0.6565	0.4873	0.065
Mof_C 	C 	0.54862	0.62344	0.71247	0.303
Mof_Zn	Zn	0.29851	0.18696	0.85673	1.209
Mof_N 	N 	0.30553	0.2258	0.75702	-0.249
Mof_N 	N 	0.2712	0.12728	0.78062	-0.249
Mof_N 	N 	0.25217	0.10451	0.66169	-0.2
Mof_H 	H 	0.24957	0.10683	0.61253	0.149
Mof_O 	O 	0.14607	0.83286	0.57916	-0.463
Mof_O 	O 	0.11695	0.86292	0.48937	-0.32
Mof_O 	O 	0.25259	0.96082	0.08042	-0.359
Mof_O 	O 	0.17002	0.92416	0.06487	-0.427
Mof_C 	C 	0.31983	0.27489	0.75012	0.073
Mof_H 	H 	0.32987	0.29553	0.79403	0.005
Mof_C 	C 	0.3204	0.29653	0.68129	-0.116
Mof_H 	H 	0.33017	0.33133	0.67803	0.083
Mof_C 	C 	0.30665	0.26683	0.6175	0.037
Mof_H 	H 	0.30727	0.28113	0.56953	0.024
Mof_C 	C 	0.29185	0.21605	0.62334	-0.097
Mof_H 	H 	0.28247	0.19503	0.57983	0.069
Mof_C 	C 	0.29113	0.19675	0.69446	0.035
Mof_C 	C 	0.27263	0.14329	0.71056	0.082
Mof_C 	C 	0.24801	0.07527	0.77679	0.028
Mof_C 	C 	0.23597	0.06038	0.702	0.035
Mof_C 	C 	0.21136	0.01115	0.66429	0.048
Mof_C 	C 	0.18371	0.00407	0.59757	-0.104
Mof_H 	H 	0.18117	0.03143	0.57693	0.079
Mof_C 	C 	0.16013	0.95752	0.5617	0.036
Mof_H 	H 	0.14147	0.95323	0.51673	0.031
Mof_C 	C 	0.16354	0.91699	0.59085	-0.112
Mof_C 	C 	0.19123	0.92399	0.65703	0.035
Mof_H 	H 	0.19377	0.89663	0.67753	0.032
Mof_C 	C 	0.21494	0.97041	0.69295	-0.107
Mof_H 	H 	0.23387	0.97463	0.73763	0.071
Mof_C 	C 	0.13969	0.86728	0.54953	0.347
Mof_C 	C 	0.23858	0.04523	0.84619	0.027
Mof_C 	C 	0.27583	0.06181	0.90195	-0.096
Mof_H 	H 	0.30687	0.09253	0.89513	0.053
Mof_C 	C 	0.26775	0.03369	0.9672	0.022
Mof_H 	H 	0.29337	0.04513	0.00473	0.032
Mof_C 	C 	0.2224	0.98895	0.97792	-0.088
Mof_C 	C 	0.18446	0.97337	0.9238	0.018
Mof_H 	H 	0.15277	0.94363	0.93193	0.042
Mof_C 	C 	0.19272	0.0011	0.85785	-0.087
Mof_H 	H 	0.16687	0.98983	0.82063	0.064
Mof_C 	C 	0.21529	0.95677	0.0458	0.305
Mof_Zn	Zn	0.96517	0.5203	0.19007	1.209
Mof_N 	N 	0.97219	0.55914	0.09036	-0.249
Mof_N 	N 	0.93786	0.46062	0.11396	-0.249
Mof_N 	N 	0.91883	0.43785	0.99503	-0.199
Mof_H 	H 	0.91623	0.44017	0.94587	0.148
Mof_O 	O 	0.81273	0.1662	0.9125	-0.463
Mof_O 	O 	0.78361	0.19626	0.82271	-0.32
Mof_O 	O 	0.91925	0.29416	0.41376	-0.359
Mof_O 	O 	0.83668	0.2575	0.39821	-0.427
Mof_C 	C 	0.98649	0.60823	0.08346	0.074
Mof_H 	H 	0.99653	0.62887	0.12737	0.005
Mof_C 	C 	0.98706	0.62987	0.01463	-0.117
Mof_H 	H 	0.99683	0.66467	0.01137	0.084
Mof_C 	C 	0.97331	0.60017	0.95084	0.038
Mof_H 	H 	0.97393	0.61447	0.90287	0.024
Mof_C 	C 	0.95851	0.54939	0.95668	-0.097
Mof_H 	H 	0.94913	0.52837	0.91317	0.069
Mof_C 	C 	0.95779	0.53009	0.0278	0.035
Mof_C 	C 	0.93929	0.47663	0.0439	0.082
Mof_C 	C 	0.91467	0.40861	0.11013	0.029
Mof_C 	C 	0.90263	0.39372	0.03534	0.032
Mof_C 	C 	0.87802	0.34449	0.99763	0.053
Mof_C 	C 	0.85037	0.33741	0.93091	-0.107
Mof_H 	H 	0.84783	0.36477	0.91027	0.08
Mof_C 	C 	0.82679	0.29086	0.89504	0.039
Mof_H 	H 	0.80813	0.28657	0.85007	0.03
Mof_C 	C 	0.8302	0.25033	0.92419	-0.115
Mof_C 	C 	0.85789	0.25733	0.99037	0.041
Mof_H 	H 	0.86043	0.22997	0.01087	0.029
Mof_C 	C 	0.8816	0.30375	0.02629	-0.113
Mof_H 	H 	0.90053	0.30797	0.07097	0.073
Mof_C 	C 	0.80635	0.20062	0.88287	0.349
Mof_C 	C 	0.90524	0.37857	0.17953	0.027
Mof_C 	C 	0.94249	0.39515	0.23529	-0.094
Mof_H 	H 	0.97353	0.42587	0.22847	0.053
Mof_C 	C 	0.93441	0.36703	0.30054	0.019
Mof_H 	H 	0.96003	0.37847	0.33807	0.033
Mof_C 	C 	0.88906	0.32229	0.31126	-0.085
Mof_C 	C 	0.85112	0.30671	0.25714	0.018
Mof_H 	H 	0.81943	0.27697	0.26527	0.042
Mof_C 	C 	0.85938	0.33444	0.19119	-0.088
Mof_H 	H 	0.83353	0.32317	0.15397	0.065
Mof_C 	C 	0.88195	0.29011	0.37914	0.303
Mof_Zn	Zn	0.14637	0.77821	0.5234	1.209
Mof_N 	N 	0.10753	0.74639	0.42369	-0.249
Mof_N 	N 	0.20605	0.81058	0.44729	-0.249
Mof_N 	N 	0.22882	0.81432	0.32836	-0.2
Mof_H 	H 	0.2265	0.8094	0.2792	0.149
Mof_O 	O 	0.50047	0.97987	0.24583	-0.463
Mof_O 	O 	0.47041	0.92069	0.15604	-0.32
Mof_O 	O 	0.37251	0.95843	0.74709	-0.359
Mof_O 	O 	0.40917	0.91252	0.73154	-0.427
Mof_C 	C 	0.05844	0.7116	0.41679	0.073
Mof_H 	H 	0.0378	0.701	0.4607	0.005
Mof_C 	C 	0.0368	0.69053	0.34796	-0.116
Mof_H 	H 	0.002	0.6655	0.3447	0.083
Mof_C 	C 	0.0665	0.70648	0.28417	0.037
Mof_H 	H 	0.0522	0.6928	0.2362	0.024
Mof_C 	C 	0.11728	0.74246	0.29001	-0.097
Mof_H 	H 	0.1383	0.7541	0.2465	0.069
Mof_C 	C 	0.13658	0.76104	0.36113	0.035
Mof_C 	C 	0.19004	0.796	0.37723	0.082
Mof_C 	C 	0.25806	0.8394	0.44346	0.028
Mof_C 	C 	0.27295	0.84225	0.36867	0.035
Mof_C 	C 	0.32218	0.86687	0.33096	0.048
Mof_C 	C 	0.32926	0.8463	0.26424	-0.104
Mof_H 	H 	0.3019	0.8164	0.2436	0.079
Mof_C 	C 	0.37581	0.86927	0.22837	0.036
Mof_H 	H 	0.3801	0.8549	0.1834	0.031
Mof_C 	C 	0.41634	0.91321	0.25752	-0.112
Mof_C 	C 	0.40934	0.9339	0.3237	0.035
Mof_H 	H 	0.4367	0.9638	0.3442	0.032
Mof_C 	C 	0.36292	0.91119	0.35962	-0.107
Mof_H 	H 	0.3587	0.9259	0.4043	0.071
Mof_C 	C 	0.46605	0.93907	0.2162	0.347
Mof_C 	C 	0.2881	0.86001	0.51286	0.027
Mof_C 	C 	0.27152	0.88068	0.56862	-0.095
Mof_H 	H 	0.2408	0.881	0.5618	0.053
Mof_C 	C 	0.29964	0.90072	0.63387	0.02
Mof_H 	H 	0.2882	0.9149	0.6714	0.033
Mof_C 	C 	0.34438	0.90011	0.64459	-0.085
Mof_C 	C 	0.35996	0.87775	0.59047	0.019
Mof_H 	H 	0.3897	0.8758	0.5986	0.042
Mof_C 	C 	0.33223	0.85828	0.52452	-0.089
Mof_H 	H 	0.3435	0.8437	0.4873	0.065
Mof_C 	C 	0.37656	0.92518	0.71247	0.303
Mof_Zn	Zn	0.81304	0.11154	0.85673	1.209
Mof_N 	N 	0.7742	0.07972	0.75702	-0.249
Mof_N 	N 	0.87272	0.14391	0.78062	-0.249
Mof_N 	N 	0.89549	0.14765	0.66169	-0.2
Mof_H 	H 	0.89317	0.14273	0.61253	0.149
Mof_O 	O 	0.16714	0.3132	0.57916	-0.463
Mof_O 	O 	0.13708	0.25402	0.48937	-0.32
Mof_O 	O 	0.03918	0.29176	0.08042	-0.359
Mof_O 	O 	0.07584	0.24585	0.06487	-0.427
Mof_C 	C 	0.72511	0.04493	0.75012	0.073
Mof_H 	H 	0.70447	0.03433	0.79403	0.005
Mof_C 	C 	0.70347	0.02386	0.68129	-0.115
Mof_H 	H 	0.66867	0.99883	0.67803	0.083
Mof_C 	C 	0.73317	0.03981	0.6175	0.037
Mof_H 	H 	0.71887	0.02613	0.56953	0.024
Mof_C 	C 	0.78395	0.07579	0.62334	-0.097
Mof_H 	H 	0.80497	0.08743	0.57983	0.068
Mof_C 	C 	0.80325	0.09437	0.69446	0.035
Mof_C 	C 	0.85671	0.12933	0.71056	0.082
Mof_C 	C 	0.92473	0.17273	0.77679	0.028
Mof_C 	C 	0.93962	0.17558	0.702	0.035
Mof_C 	C 	0.98885	0.2002	0.66429	0.048
Mof_C 	C 	0.99593	0.17963	0.59757	-0.104
Mof_H 	H 	0.96857	0.14973	0.57693	0.079
Mof_C 	C 	0.04248	0.2026	0.5617	0.036
Mof_H 	H 	0.04677	0.18823	0.51673	0.031
Mof_C 	C 	0.08301	0.24654	0.59085	-0.112
Mof_C 	C 	0.07601	0.26723	0.65703	0.035
Mof_H 	H 	0.10337	0.29713	0.67753	0.032
Mof_C 	C 	0.02959	0.24452	0.69295	-0.107
Mof_H 	H 	0.02537	0.25923	0.73763	0.071
Mof_C 	C 	0.13272	0.2724	0.54953	0.347
Mof_C 	C 	0.95477	0.19334	0.84619	0.028
Mof_C 	C 	0.93819	0.21401	0.90195	-0.096
Mof_H 	H 	0.90747	0.21433	0.89513	0.054
Mof_C 	C 	0.96631	0.23405	0.9672	0.024
Mof_H 	H 	0.95487	0.24823	0.00473	0.031
Mof_C 	C 	0.01105	0.23344	0.97792	-0.087
Mof_C 	C 	0.02663	0.21108	0.9238	0.018
Mof_H 	H 	0.05637	0.20913	0.93193	0.042
Mof_C 	C 	0.9989	0.19161	0.85785	-0.087
Mof_H 	H 	0.01017	0.17703	0.82063	0.064
Mof_C 	C 	0.04323	0.25851	0.0458	0.304
Mof_Zn	Zn	0.4797	0.44488	0.19007	1.209
Mof_N 	N 	0.44086	0.41306	0.09036	-0.249
Mof_N 	N 	0.53938	0.47725	0.11396	-0.249
Mof_N 	N 	0.56215	0.48099	0.99503	-0.2
Mof_H 	H 	0.55983	0.47607	0.94587	0.148
Mof_O 	O 	0.8338	0.64654	0.9125	-0.463
Mof_O 	O 	0.80374	0.58736	0.82271	-0.32
Mof_O 	O 	0.70584	0.6251	0.41376	-0.359
Mof_O 	O 	0.7425	0.57919	0.39821	-0.427
Mof_C 	C 	0.39177	0.37827	0.08346	0.073
Mof_H 	H 	0.37113	0.36767	0.12737	0.005
Mof_C 	C 	0.37013	0.3572	0.01463	-0.116
Mof_H 	H 	0.33533	0.33217	0.01137	0.083
Mof_C 	C 	0.39983	0.37315	0.95084	0.037
Mof_H 	H 	0.38553	0.35947	0.90287	0.024
Mof_C 	C 	0.45061	0.40913	0.95668	-0.097
Mof_H 	H 	0.47163	0.42077	0.91317	0.069
Mof_C 	C 	0.46991	0.42771	0.0278	0.035
Mof_C 	C 	0.52337	0.46267	0.0439	0.082
Mof_C 	C 	0.59139	0.50607	0.11013	0.028
Mof_C 	C 	0.60628	0.50892	0.03534	0.034
Mof_C 	C 	0.65551	0.53354	0.99763	0.049
Mof_C 	C 	0.66259	0.51297	0.93091	-0.105
Mof_H 	H 	0.63523	0.48307	0.91027	0.079
Mof_C 	C 	0.70914	0.53594	0.89504	0.036
Mof_H 	H 	0.71343	0.52157	0.85007	0.031
Mof_C 	C 	0.74967	0.57988	0.92419	-0.113
Mof_C 	C 	0.74267	0.60057	0.99037	0.036
Mof_H 	H 	0.77003	0.63047	0.01087	0.031
Mof_C 	C 	0.69625	0.57786	0.02629	-0.108
Mof_H 	H 	0.69203	0.59257	0.07097	0.071
Mof_C 	C 	0.79938	0.60574	0.88287	0.348
Mof_C 	C 	0.62143	0.52668	0.17953	0.027
Mof_C 	C 	0.60485	0.54735	0.23529	-0.095
Mof_H 	H 	0.57413	0.54767	0.22847	0.053
Mof_C 	C 	0.63297	0.56739	0.30054	0.02
Mof_H 	H 	0.62153	0.58157	0.33807	0.033
Mof_C 	C 	0.67771	0.56678	0.31126	-0.085
Mof_C 	C 	0.69329	0.54442	0.25714	0.018
Mof_H 	H 	0.72303	0.54247	0.26527	0.042
Mof_C 	C 	0.66556	0.52495	0.19119	-0.089
Mof_H 	H 	0.67683	0.51037	0.15397	0.065
Mof_C 	C 	0.70989	0.59185	0.37914	0.303
Mof_Zn	Zn	0.22179	0.36816	0.5234	1.209
Mof_N 	N 	0.25361	0.36114	0.42369	-0.249
Mof_N 	N 	0.18942	0.39547	0.44729	-0.249
Mof_N 	N 	0.18568	0.4145	0.32836	-0.2
Mof_H 	H 	0.1906	0.4171	0.2792	0.149
Mof_O 	O 	0.02013	0.5206	0.24583	-0.463
Mof_O 	O 	0.07931	0.54972	0.15604	-0.32
Mof_O 	O 	0.04157	0.41408	0.74709	-0.359
Mof_O 	O 	0.08748	0.49665	0.73154	-0.427
Mof_C 	C 	0.2884	0.34684	0.41679	0.073
Mof_H 	H 	0.299	0.3368	0.4607	0.005
Mof_C 	C 	0.30947	0.34627	0.34796	-0.116
Mof_H 	H 	0.3345	0.3365	0.3447	0.083
Mof_C 	C 	0.29352	0.36002	0.28417	0.037
Mof_H 	H 	0.3072	0.3594	0.2362	0.024
Mof_C 	C 	0.25754	0.37482	0.29001	-0.097
Mof_H 	H 	0.2459	0.3842	0.2465	0.069
Mof_C 	C 	0.23896	0.37554	0.36113	0.035
Mof_C 	C 	0.204	0.39404	0.37723	0.082
Mof_C 	C 	0.1606	0.41866	0.44346	0.028
Mof_C 	C 	0.15775	0.4307	0.36867	0.035
Mof_C 	C 	0.13313	0.45531	0.33096	0.048
Mof_C 	C 	0.1537	0.48296	0.26424	-0.104
Mof_H 	H 	0.1836	0.4855	0.2436	0.079
Mof_C 	C 	0.13073	0.50654	0.22837	0.036
Mof_H 	H 	0.1451	0.5252	0.1834	0.031
Mof_C 	C 	0.08679	0.50313	0.25752	-0.112
Mof_C 	C 	0.0661	0.47544	0.3237	0.035
Mof_H 	H 	0.0362	0.4729	0.3442	0.032
Mof_C 	C 	0.08881	0.45173	0.35962	-0.107
Mof_H 	H 	0.0741	0.4328	0.4043	0.071
Mof_C 	C 	0.06093	0.52698	0.2162	0.347
Mof_C 	C 	0.13999	0.42809	0.51286	0.027
Mof_C 	C 	0.11932	0.39084	0.56862	-0.095
Mof_H 	H 	0.119	0.3598	0.5618	0.053
Mof_C 	C 	0.09928	0.39892	0.63387	0.02
Mof_H 	H 	0.0851	0.3733	0.6714	0.033
Mof_C 	C 	0.09989	0.44427	0.64459	-0.085
Mof_C 	C 	0.12225	0.48221	0.59047	0.019
Mof_H 	H 	0.1242	0.5139	0.5986	0.042
Mof_C 	C 	0.14172	0.47395	0.52452	-0.089
Mof_H 	H 	0.1563	0.4998	0.4873	0.065
Mof_C 	C 	0.07482	0.45138	0.71247	0.303
Mof_Zn	Zn	0.88846	0.70149	0.85673	1.209
Mof_N 	N 	0.92028	0.69447	0.75702	-0.249
Mof_N 	N 	0.85609	0.7288	0.78062	-0.249
Mof_N 	N 	0.85235	0.74783	0.66169	-0.2
Mof_H 	H 	0.85727	0.75043	0.61253	0.149
Mof_O 	O 	0.6868	0.85393	0.57916	-0.463
Mof_O 	O 	0.74598	0.88305	0.48937	-0.32
Mof_O 	O 	0.70824	0.74741	0.08042	-0.359
Mof_O 	O 	0.75415	0.82998	0.06487	-0.427
Mof_C 	C 	0.95507	0.68017	0.75012	0.073
Mof_H 	H 	0.96567	0.67013	0.79403	0.005
Mof_C 	C 	0.97614	0.6796	0.68129	-0.115
Mof_H 	H 	0.00117	0.66983	0.67803	0.083
Mof_C 	C 	0.96019	0.69335	0.6175	0.037
Mof_H 	H 	0.97387	0.69273	0.56953	0.024
Mof_C 	C 	0.92421	0.70815	0.62334	-0.097
Mof_H 	H 	0.91257	0.71753	0.57983	0.068
Mof_C 	C 	0.90563	0.70887	0.69446	0.035
Mof_C 	C 	0.87067	0.72737	0.71056	0.082
Mof_C 	C 	0.82727	0.75199	0.77679	0.028
Mof_C 	C 	0.82442	0.76403	0.702	0.035
Mof_C 	C 	0.7998	0.78864	0.66429	0.048
Mof_C 	C 	0.82037	0.81629	0.59757	-0.104
Mof_H 	H 	0.85027	0.81883	0.57693	0.079
Mof_C 	C 	0.7974	0.83987	0.5617	0.036
Mof_H 	H 	0.81177	0.85853	0.51673	0.031
Mof_C 	C 	0.75346	0.83646	0.59085	-0.112
Mof_C 	C 	0.73277	0.80877	0.65703	0.035
Mof_H 	H 	0.70287	0.80623	0.67753	0.032
Mof_C 	C 	0.75548	0.78506	0.69295	-0.107
Mof_H 	H 	0.74077	0.76613	0.73763	0.071
Mof_C 	C 	0.7276	0.86031	0.54953	0.347
Mof_C 	C 	0.80666	0.76142	0.84619	0.027
Mof_C 	C 	0.78599	0.72417	0.90195	-0.095
Mof_H 	H 	0.78567	0.69313	0.89513	0.053
Mof_C 	C 	0.76595	0.73225	0.9672	0.02
Mof_H 	H 	0.75177	0.70663	0.00473	0.033
Mof_C 	C 	0.76656	0.7776	0.97792	-0.085
Mof_C 	C 	0.78892	0.81554	0.9238	0.019
Mof_H 	H 	0.79087	0.84723	0.93193	0.042
Mof_C 	C 	0.80839	0.80728	0.85785	-0.089
Mof_H 	H 	0.82297	0.83313	0.82063	0.065
Mof_C 	C 	0.74149	0.78471	0.0458	0.303
Mof_Zn	Zn	0.55512	0.03483	0.19007	1.209
Mof_N 	N 	0.58694	0.02781	0.09036	-0.249
Mof_N 	N 	0.52275	0.06214	0.11396	-0.249
Mof_N 	N 	0.51901	0.08117	0.99503	-0.2
Mof_H 	H 	0.52393	0.08377	0.94587	0.148
Mof_O 	O 	0.35346	0.18727	0.9125	-0.463
Mof_O 	O 	0.41264	0.21639	0.82271	-0.32
Mof_O 	O 	0.3749	0.08075	0.41376	-0.359
Mof_O 	O 	0.42081	0.16332	0.39821	-0.427
Mof_C 	C 	0.62173	0.01351	0.08346	0.074
Mof_H 	H 	0.63233	0.00347	0.12737	0.005
Mof_C 	C 	0.6428	0.01294	0.01463	-0.118
Mof_H 	H 	0.66783	0.00317	0.01137	0.084
Mof_C 	C 	0.62685	0.02669	0.95084	0.039
Mof_H 	H 	0.64053	0.02607	0.90287	0.024
Mof_C 	C 	0.59087	0.04149	0.95668	-0.097
Mof_H 	H 	0.57923	0.05087	0.91317	0.069
Mof_C 	C 	0.57229	0.04221	0.0278	0.035
Mof_C 	C 	0.53733	0.06071	0.0439	0.082
Mof_C 	C 	0.49393	0.08533	0.11013	0.029
Mof_C 	C 	0.49108	0.09737	0.03534	0.033
Mof_C 	C 	0.46646	0.12198	0.99763	0.051
Mof_C 	C 	0.48703	0.14963	0.93091	-0.106
Mof_H 	H 	0.51693	0.15217	0.91027	0.08
Mof_C 	C 	0.46406	0.17321	0.89504	0.037
Mof_H 	H 	0.47843	0.19187	0.85007	0.03
Mof_C 	C 	0.42012	0.1698	0.92419	-0.113
Mof_C 	C 	0.39943	0.14211	0.99037	0.038
Mof_H 	H 	0.36953	0.13957	0.01087	0.031
Mof_C 	C 	0.42214	0.1184	0.02629	-0.11
Mof_H 	H 	0.40743	0.09947	0.07097	0.072
Mof_C 	C 	0.39426	0.19365	0.88287	0.348
Mof_C 	C 	0.47332	0.09476	0.17953	0.027
Mof_C 	C 	0.45265	0.05751	0.23529	-0.094
Mof_H 	H 	0.45233	0.02647	0.22847	0.053
Mof_C 	C 	0.43261	0.06559	0.30054	0.019
Mof_H 	H 	0.41843	0.03997	0.33807	0.033
Mof_C 	C 	0.43322	0.11094	0.31126	-0.085
Mof_C 	C 	0.45558	0.14888	0.25714	0.018
Mof_H 	H 	0.45753	0.18057	0.26527	0.042
Mof_C 	C 	0.47505	0.14062	0.19119	-0.088
Mof_H 	H 	0.48963	0.16647	0.15397	0.065
Mof_C 	C 	0.40815	0.11805	0.37914	0.303
Mof_Zn	Zn	0.36816	0.14637	0.4766	1.209
Mof_N 	N 	0.36114	0.10753	0.57631	-0.249
Mof_N 	N 	0.39547	0.20605	0.55271	-0.249
Mof_N 	N 	0.4145	0.22882	0.67164	-0.2
Mof_H 	H 	0.4171	0.2265	0.7208	0.149
Mof_O 	O 	0.5206	0.50047	0.75417	-0.463
Mof_O 	O 	0.54972	0.47041	0.84396	-0.32
Mof_O 	O 	0.41408	0.37251	0.25291	-0.359
Mof_O 	O 	0.49665	0.40917	0.26846	-0.427
Mof_C 	C 	0.34684	0.05844	0.58321	0.073
Mof_H 	H 	0.3368	0.0378	0.5393	0.005
Mof_C 	C 	0.34627	0.0368	0.65204	-0.116
Mof_H 	H 	0.3365	0.002	0.6553	0.083
Mof_C 	C 	0.36002	0.0665	0.71583	0.037
Mof_H 	H 	0.3594	0.0522	0.7638	0.024
Mof_C 	C 	0.37482	0.11728	0.70999	-0.097
Mof_H 	H 	0.3842	0.1383	0.7535	0.069
Mof_C 	C 	0.37554	0.13658	0.63887	0.035
Mof_C 	C 	0.39404	0.19004	0.62277	0.082
Mof_C 	C 	0.41866	0.25806	0.55654	0.028
Mof_C 	C 	0.4307	0.27295	0.63133	0.035
Mof_C 	C 	0.45531	0.32218	0.66904	0.048
Mof_C 	C 	0.48296	0.32926	0.73576	-0.104
Mof_H 	H 	0.4855	0.3019	0.7564	0.079
Mof_C 	C 	0.50654	0.37581	0.77163	0.036
Mof_H 	H 	0.5252	0.3801	0.8166	0.031
Mof_C 	C 	0.50313	0.41634	0.74248	-0.112
Mof_C 	C 	0.47544	0.40934	0.6763	0.035
Mof_H 	H 	0.4729	0.4367	0.6558	0.032
Mof_C 	C 	0.45173	0.36292	0.64038	-0.107
Mof_H 	H 	0.4328	0.3587	0.5957	0.071
Mof_C 	C 	0.52698	0.46605	0.7838	0.347
Mof_C 	C 	0.42809	0.2881	0.48714	0.027
Mof_C 	C 	0.39084	0.27152	0.43138	-0.095
Mof_H 	H 	0.3598	0.2408	0.4382	0.053
Mof_C 	C 	0.39892	0.29964	0.36613	0.02
Mof_H 	H 	0.3733	0.2882	0.3286	0.033
Mof_C 	C 	0.44427	0.34438	0.35541	-0.085
Mof_C 	C 	0.48221	0.35996	0.40953	0.019
Mof_H 	H 	0.5139	0.3897	0.4014	0.042
Mof_C 	C 	0.47395	0.33223	0.47548	-0.089
Mof_H 	H 	0.4998	0.3435	0.5127	0.065
Mof_C 	C 	0.45138	0.37656	0.28753	0.303
Mof_Zn	Zn	0.03483	0.4797	0.80993	1.209
Mof_N 	N 	0.02781	0.44086	0.90964	-0.249
Mof_N 	N 	0.06214	0.53938	0.88604	-0.249
Mof_N 	N 	0.08117	0.56215	0.00497	-0.199
Mof_H 	H 	0.08377	0.55983	0.05413	0.148
Mof_O 	O 	0.18727	0.8338	0.0875	-0.463
Mof_O 	O 	0.21639	0.80374	0.17729	-0.32
Mof_O 	O 	0.08075	0.70584	0.58624	-0.359
Mof_O 	O 	0.16332	0.7425	0.60179	-0.427
Mof_C 	C 	0.01351	0.39177	0.91654	0.074
Mof_H 	H 	0.00347	0.37113	0.87263	0.005
Mof_C 	C 	0.01294	0.37013	0.98537	-0.117
Mof_H 	H 	0.00317	0.33533	0.98863	0.084
Mof_C 	C 	0.02669	0.39983	0.04916	0.038
Mof_H 	H 	0.02607	0.38553	0.09713	0.024
Mof_C 	C 	0.04149	0.45061	0.04332	-0.097
Mof_H 	H 	0.05087	0.47163	0.08683	0.069
Mof_C 	C 	0.04221	0.46991	0.9722	0.035
Mof_C 	C 	0.06071	0.52337	0.9561	0.082
Mof_C 	C 	0.08533	0.59139	0.88987	0.029
Mof_C 	C 	0.09737	0.60628	0.96466	0.032
Mof_C 	C 	0.12198	0.65551	0.00237	0.053
Mof_C 	C 	0.14963	0.66259	0.06909	-0.107
Mof_H 	H 	0.15217	0.63523	0.08973	0.08
Mof_C 	C 	0.17321	0.70914	0.10496	0.039
Mof_H 	H 	0.19187	0.71343	0.14993	0.03
Mof_C 	C 	0.1698	0.74967	0.07581	-0.115
Mof_C 	C 	0.14211	0.74267	0.00963	0.041
Mof_H 	H 	0.13957	0.77003	0.98913	0.029
Mof_C 	C 	0.1184	0.69625	0.97371	-0.113
Mof_H 	H 	0.09947	0.69203	0.92903	0.073
Mof_C 	C 	0.19365	0.79938	0.11713	0.349
Mof_C 	C 	0.09476	0.62143	0.82047	0.027
Mof_C 	C 	0.05751	0.60485	0.76471	-0.094
Mof_H 	H 	0.02647	0.57413	0.77153	0.053
Mof_C 	C 	0.06559	0.63297	0.69946	0.019
Mof_H 	H 	0.03997	0.62153	0.66193	0.033
Mof_C 	C 	0.11094	0.67771	0.68874	-0.085
Mof_C 	C 	0.14888	0.69329	0.74286	0.018
Mof_H 	H 	0.18057	0.72303	0.73473	0.042
Mof_C 	C 	0.14062	0.66556	0.80881	-0.088
Mof_H 	H 	0.16647	0.67683	0.84603	0.065
Mof_C 	C 	0.11805	0.70989	0.62086	0.303
Mof_Zn	Zn	0.70149	0.81304	0.14327	1.209
Mof_N 	N 	0.69447	0.7742	0.24298	-0.249
Mof_N 	N 	0.7288	0.87272	0.21938	-0.249
Mof_N 	N 	0.74783	0.89549	0.33831	-0.2
Mof_H 	H 	0.75043	0.89317	0.38747	0.149
Mof_O 	O 	0.85393	0.16714	0.42084	-0.463
Mof_O 	O 	0.88305	0.13708	0.51063	-0.32
Mof_O 	O 	0.74741	0.03918	0.91958	-0.359
Mof_O 	O 	0.82998	0.07584	0.93513	-0.427
Mof_C 	C 	0.68017	0.72511	0.24988	0.073
Mof_H 	H 	0.67013	0.70447	0.20597	0.005
Mof_C 	C 	0.6796	0.70347	0.31871	-0.116
Mof_H 	H 	0.66983	0.66867	0.32197	0.083
Mof_C 	C 	0.69335	0.73317	0.3825	0.037
Mof_H 	H 	0.69273	0.71887	0.43047	0.024
Mof_C 	C 	0.70815	0.78395	0.37666	-0.097
Mof_H 	H 	0.71753	0.80497	0.42017	0.069
Mof_C 	C 	0.70887	0.80325	0.30554	0.035
Mof_C 	C 	0.72737	0.85671	0.28944	0.082
Mof_C 	C 	0.75199	0.92473	0.22321	0.028
Mof_C 	C 	0.76403	0.93962	0.298	0.035
Mof_C 	C 	0.78864	0.98885	0.33571	0.048
Mof_C 	C 	0.81629	0.99593	0.40243	-0.104
Mof_H 	H 	0.81883	0.96857	0.42307	0.079
Mof_C 	C 	0.83987	0.04248	0.4383	0.036
Mof_H 	H 	0.85853	0.04677	0.48327	0.031
Mof_C 	C 	0.83646	0.08301	0.40915	-0.112
Mof_C 	C 	0.80877	0.07601	0.34297	0.035
Mof_H 	H 	0.80623	0.10337	0.32247	0.032
Mof_C 	C 	0.78506	0.02959	0.30705	-0.107
Mof_H 	H 	0.76613	0.02537	0.26237	0.071
Mof_C 	C 	0.86031	0.13272	0.45047	0.347
Mof_C 	C 	0.76142	0.95477	0.15381	0.027
Mof_C 	C 	0.72417	0.93819	0.09805	-0.096
Mof_H 	H 	0.69313	0.90747	0.10487	0.053
Mof_C 	C 	0.73225	0.96631	0.0328	0.022
Mof_H 	H 	0.70663	0.95487	0.99527	0.032
Mof_C 	C 	0.7776	0.01105	0.02208	-0.088
Mof_C 	C 	0.81554	0.02663	0.0762	0.018
Mof_H 	H 	0.84723	0.05637	0.06807	0.042
Mof_C 	C 	0.80728	0.9989	0.14215	-0.087
Mof_H 	H 	0.83313	0.01017	0.17937	0.064
Mof_C 	C 	0.78471	0.04323	0.9542	0.305
Mof_Zn	Zn	0.85363	0.22179	0.4766	1.209
Mof_N 	N 	0.89247	0.25361	0.57631	-0.249
Mof_N 	N 	0.79395	0.18942	0.55271	-0.249
Mof_N 	N 	0.77118	0.18568	0.67164	-0.2
Mof_H 	H 	0.7735	0.1906	0.7208	0.149
Mof_O 	O 	0.49953	0.02013	0.75417	-0.463
Mof_O 	O 	0.52959	0.07931	0.84396	-0.32
Mof_O 	O 	0.62749	0.04157	0.25291	-0.359
Mof_O 	O 	0.59083	0.08748	0.26846	-0.427
Mof_C 	C 	0.94156	0.2884	0.58321	0.073
Mof_H 	H 	0.9622	0.299	0.5393	0.005
Mof_C 	C 	0.9632	0.30947	0.65204	-0.116
Mof_H 	H 	0.998	0.3345	0.6553	0.083
Mof_C 	C 	0.9335	0.29352	0.71583	0.037
Mof_H 	H 	0.9478	0.3072	0.7638	0.024
Mof_C 	C 	0.88272	0.25754	0.70999	-0.097
Mof_H 	H 	0.8617	0.2459	0.7535	0.069
Mof_C 	C 	0.86342	0.23896	0.63887	0.035
Mof_C 	C 	0.80996	0.204	0.62277	0.082
Mof_C 	C 	0.74194	0.1606	0.55654	0.028
Mof_C 	C 	0.72705	0.15775	0.63133	0.035
Mof_C 	C 	0.67782	0.13313	0.66904	0.048
Mof_C 	C 	0.67074	0.1537	0.73576	-0.104
Mof_H 	H 	0.6981	0.1836	0.7564	0.079
Mof_C 	C 	0.62419	0.13073	0.77163	0.036
Mof_H 	H 	0.6199	0.1451	0.8166	0.031
Mof_C 	C 	0.58366	0.08679	0.74248	-0.112
Mof_C 	C 	0.59066	0.0661	0.6763	0.035
Mof_H 	H 	0.5633	0.0362	0.6558	0.032
Mof_C 	C 	0.63708	0.08881	0.64038	-0.107
Mof_H 	H 	0.6413	0.0741	0.5957	0.071
Mof_C 	C 	0.53395	0.06093	0.7838	0.347
Mof_C 	C 	0.7119	0.13999	0.48714	0.027
Mof_C 	C 	0.72848	0.11932	0.43138	-0.095
Mof_H 	H 	0.7592	0.119	0.4382	0.053
Mof_C 	C 	0.70036	0.09928	0.36613	0.02
Mof_H 	H 	0.7118	0.0851	0.3286	0.033
Mof_C 	C 	0.65562	0.09989	0.35541	-0.085
Mof_C 	C 	0.64004	0.12225	0.40953	0.019
Mof_H 	H 	0.6103	0.1242	0.4014	0.042
Mof_C 	C 	0.66777	0.14172	0.47548	-0.089
Mof_H 	H 	0.6565	0.1563	0.5127	0.065
Mof_C 	C 	0.62344	0.07482	0.28753	0.303
Mof_Zn	Zn	0.5203	0.55512	0.80993	1.209
Mof_N 	N 	0.55914	0.58694	0.90964	-0.249
Mof_N 	N 	0.46062	0.52275	0.88604	-0.249
Mof_N 	N 	0.43785	0.51901	0.00497	-0.2
Mof_H 	H 	0.44017	0.52393	0.05413	0.148
Mof_O 	O 	0.1662	0.35346	0.0875	-0.463
Mof_O 	O 	0.19626	0.41264	0.17729	-0.32
Mof_O 	O 	0.29416	0.3749	0.58624	-0.359
Mof_O 	O 	0.2575	0.42081	0.60179	-0.427
Mof_C 	C 	0.60823	0.62173	0.91654	0.073
Mof_H 	H 	0.62887	0.63233	0.87263	0.005
Mof_C 	C 	0.62987	0.6428	0.98537	-0.116
Mof_H 	H 	0.66467	0.66783	0.98863	0.083
Mof_C 	C 	0.60017	0.62685	0.04916	0.037
Mof_H 	H 	0.61447	0.64053	0.09713	0.024
Mof_C 	C 	0.54939	0.59087	0.04332	-0.097
Mof_H 	H 	0.52837	0.57923	0.08683	0.069
Mof_C 	C 	0.53009	0.57229	0.9722	0.035
Mof_C 	C 	0.47663	0.53733	0.9561	0.082
Mof_C 	C 	0.40861	0.49393	0.88987	0.028
Mof_C 	C 	0.39372	0.49108	0.96466	0.034
Mof_C 	C 	0.34449	0.46646	0.00237	0.049
Mof_C 	C 	0.33741	0.48703	0.06909	-0.105
Mof_H 	H 	0.36477	0.51693	0.08973	0.079
Mof_C 	C 	0.29086	0.46406	0.10496	0.036
Mof_H 	H 	0.28657	0.47843	0.14993	0.031
Mof_C 	C 	0.25033	0.42012	0.07581	-0.113
Mof_C 	C 	0.25733	0.39943	0.00963	0.036
Mof_H 	H 	0.22997	0.36953	0.98913	0.031
Mof_C 	C 	0.30375	0.42214	0.97371	-0.108
Mof_H 	H 	0.30797	0.40743	0.92903	0.071
Mof_C 	C 	0.20062	0.39426	0.11713	0.348
Mof_C 	C 	0.37857	0.47332	0.82047	0.027
Mof_C 	C 	0.39515	0.45265	0.76471	-0.095
Mof_H 	H 	0.42587	0.45233	0.77153	0.053
Mof_C 	C 	0.36703	0.43261	0.69946	0.02
Mof_H 	H 	0.37847	0.41843	0.66193	0.033
Mof_C 	C 	0.32229	0.43322	0.68874	-0.085
Mof_C 	C 	0.30671	0.45558	0.74286	0.018
Mof_H 	H 	0.27697	0.45753	0.73473	0.042
Mof_C 	C 	0.33444	0.47505	0.80881	-0.089
Mof_H 	H 	0.32317	0.48963	0.84603	0.065
Mof_C 	C 	0.29011	0.40815	0.62086	0.303
Mof_Zn	Zn	0.18696	0.88846	0.14327	1.209
Mof_N 	N 	0.2258	0.92028	0.24298	-0.249
Mof_N 	N 	0.12728	0.85609	0.21938	-0.249
Mof_N 	N 	0.10451	0.85235	0.33831	-0.2
Mof_H 	H 	0.10683	0.85727	0.38747	0.149
Mof_O 	O 	0.83286	0.6868	0.42084	-0.463
Mof_O 	O 	0.86292	0.74598	0.51063	-0.32
Mof_O 	O 	0.96082	0.70824	0.91958	-0.359
Mof_O 	O 	0.92416	0.75415	0.93513	-0.427
Mof_C 	C 	0.27489	0.95507	0.24988	0.073
Mof_H 	H 	0.29553	0.96567	0.20597	0.005
Mof_C 	C 	0.29653	0.97614	0.31871	-0.115
Mof_H 	H 	0.33133	0.00117	0.32197	0.083
Mof_C 	C 	0.26683	0.96019	0.3825	0.037
Mof_H 	H 	0.28113	0.97387	0.43047	0.024
Mof_C 	C 	0.21605	0.92421	0.37666	-0.097
Mof_H 	H 	0.19503	0.91257	0.42017	0.068
Mof_C 	C 	0.19675	0.90563	0.30554	0.035
Mof_C 	C 	0.14329	0.87067	0.28944	0.082
Mof_C 	C 	0.07527	0.82727	0.22321	0.028
Mof_C 	C 	0.06038	0.82442	0.298	0.035
Mof_C 	C 	0.01115	0.7998	0.33571	0.048
Mof_C 	C 	0.00407	0.82037	0.40243	-0.104
Mof_H 	H 	0.03143	0.85027	0.42307	0.079
Mof_C 	C 	0.95752	0.7974	0.4383	0.036
Mof_H 	H 	0.95323	0.81177	0.48327	0.031
Mof_C 	C 	0.91699	0.75346	0.40915	-0.112
Mof_C 	C 	0.92399	0.73277	0.34297	0.035
Mof_H 	H 	0.89663	0.70287	0.32247	0.032
Mof_C 	C 	0.97041	0.75548	0.30705	-0.107
Mof_H 	H 	0.97463	0.74077	0.26237	0.071
Mof_C 	C 	0.86728	0.7276	0.45047	0.347
Mof_C 	C 	0.04523	0.80666	0.15381	0.028
Mof_C 	C 	0.06181	0.78599	0.09805	-0.096
Mof_H 	H 	0.09253	0.78567	0.10487	0.054
Mof_C 	C 	0.03369	0.76595	0.0328	0.024
Mof_H 	H 	0.04513	0.75177	0.99527	0.031
Mof_C 	C 	0.98895	0.76656	0.02208	-0.087
Mof_C 	C 	0.97337	0.78892	0.0762	0.018
Mof_H 	H 	0.94363	0.79087	0.06807	0.042
Mof_C 	C 	0.0011	0.80839	0.14215	-0.087
Mof_H 	H 	0.98983	0.82297	0.17937	0.064
Mof_C 	C 	0.95677	0.74149	0.9542	0.304
Mof_Zn	Zn	0.77821	0.63184	0.4766	1.209
Mof_N 	N 	0.74639	0.63886	0.57631	-0.249
Mof_N 	N 	0.81058	0.60453	0.55271	-0.249
Mof_N 	N 	0.81432	0.5855	0.67164	-0.2
Mof_H 	H 	0.8094	0.5829	0.7208	0.149
Mof_O 	O 	0.97987	0.4794	0.75417	-0.463
Mof_O 	O 	0.92069	0.45028	0.84396	-0.32
Mof_O 	O 	0.95843	0.58592	0.25291	-0.359
Mof_O 	O 	0.91252	0.50335	0.26846	-0.427
Mof_C 	C 	0.7116	0.65316	0.58321	0.073
Mof_H 	H 	0.701	0.6632	0.5393	0.005
Mof_C 	C 	0.69053	0.65373	0.65204	-0.116
Mof_H 	H 	0.6655	0.6635	0.6553	0.083
Mof_C 	C 	0.70648	0.63998	0.71583	0.037
Mof_H 	H 	0.6928	0.6406	0.7638	0.024
Mof_C 	C 	0.74246	0.62518	0.70999	-0.097
Mof_H 	H 	0.7541	0.6158	0.7535	0.069
Mof_C 	C 	0.76104	0.62446	0.63887	0.035
Mof_C 	C 	0.796	0.60596	0.62277	0.082
Mof_C 	C 	0.8394	0.58134	0.55654	0.028
Mof_C 	C 	0.84225	0.5693	0.63133	0.035
Mof_C 	C 	0.86687	0.54469	0.66904	0.048
Mof_C 	C 	0.8463	0.51704	0.73576	-0.104
Mof_H 	H 	0.8164	0.5145	0.7564	0.079
Mof_C 	C 	0.86927	0.49346	0.77163	0.036
Mof_H 	H 	0.8549	0.4748	0.8166	0.031
Mof_C 	C 	0.91321	0.49687	0.74248	-0.112
Mof_C 	C 	0.9339	0.52456	0.6763	0.035
Mof_H 	H 	0.9638	0.5271	0.6558	0.032
Mof_C 	C 	0.91119	0.54827	0.64038	-0.107
Mof_H 	H 	0.9259	0.5672	0.5957	0.071
Mof_C 	C 	0.93907	0.47302	0.7838	0.347
Mof_C 	C 	0.86001	0.57191	0.48714	0.027
Mof_C 	C 	0.88068	0.60916	0.43138	-0.095
Mof_H 	H 	0.881	0.6402	0.4382	0.053
Mof_C 	C 	0.90072	0.60108	0.36613	0.02
Mof_H 	H 	0.9149	0.6267	0.3286	0.033
Mof_C 	C 	0.90011	0.55573	0.35541	-0.085
Mof_C 	C 	0.87775	0.51779	0.40953	0.019
Mof_H 	H 	0.8758	0.4861	0.4014	0.042
Mof_C 	C 	0.85828	0.52605	0.47548	-0.089
Mof_H 	H 	0.8437	0.5002	0.5127	0.065
Mof_C 	C 	0.92518	0.54862	0.28753	0.303
Mof_Zn	Zn	0.44488	0.96517	0.80993	1.209
Mof_N 	N 	0.41306	0.97219	0.90964	-0.249
Mof_N 	N 	0.47725	0.93786	0.88604	-0.249
Mof_N 	N 	0.48099	0.91883	0.00497	-0.2
Mof_H 	H 	0.47607	0.91623	0.05413	0.148
Mof_O 	O 	0.64654	0.81273	0.0875	-0.463
Mof_O 	O 	0.58736	0.78361	0.17729	-0.32
Mof_O 	O 	0.6251	0.91925	0.58624	-0.359
Mof_O 	O 	0.57919	0.83668	0.60179	-0.427
Mof_C 	C 	0.37827	0.98649	0.91654	0.074
Mof_H 	H 	0.36767	0.99653	0.87263	0.005
Mof_C 	C 	0.3572	0.98706	0.98537	-0.118
Mof_H 	H 	0.33217	0.99683	0.98863	0.084
Mof_C 	C 	0.37315	0.97331	0.04916	0.039
Mof_H 	H 	0.35947	0.97393	0.09713	0.024
Mof_C 	C 	0.40913	0.95851	0.04332	-0.097
Mof_H 	H 	0.42077	0.94913	0.08683	0.069
Mof_C 	C 	0.42771	0.95779	0.9722	0.035
Mof_C 	C 	0.46267	0.93929	0.9561	0.082
Mof_C 	C 	0.50607	0.91467	0.88987	0.029
Mof_C 	C 	0.50892	0.90263	0.96466	0.033
Mof_C 	C 	0.53354	0.87802	0.00237	0.051
Mof_C 	C 	0.51297	0.85037	0.06909	-0.106
Mof_H 	H 	0.48307	0.84783	0.08973	0.08
Mof_C 	C 	0.53594	0.82679	0.10496	0.037
Mof_H 	H 	0.52157	0.80813	0.14993	0.03
Mof_C 	C 	0.57988	0.8302	0.07581	-0.113
Mof_C 	C 	0.60057	0.85789	0.00963	0.038
Mof_H 	H 	0.63047	0.86043	0.98913	0.031
Mof_C 	C 	0.57786	0.8816	0.97371	-0.11
Mof_H 	H 	0.59257	0.90053	0.92903	0.072
Mof_C 	C 	0.60574	0.80635	0.11713	0.348
Mof_C 	C 	0.52668	0.90524	0.82047	0.027
Mof_C 	C 	0.54735	0.94249	0.76471	-0.094
Mof_H 	H 	0.54767	0.97353	0.77153	0.053
Mof_C 	C 	0.56739	0.93441	0.69946	0.019
Mof_H 	H 	0.58157	0.96003	0.66193	0.033
Mof_C 	C 	0.56678	0.88906	0.68874	-0.085
Mof_C 	C 	0.54442	0.85112	0.74286	0.018
Mof_H 	H 	0.54247	0.81943	0.73473	0.042
Mof_C 	C 	0.52495	0.85938	0.80881	-0.088
Mof_H 	H 	0.51037	0.83353	0.84603	0.065
Mof_C 	C 	0.59185	0.88195	0.62086	0.303
Mof_Zn	Zn	0.11154	0.29851	0.14327	1.209
Mof_N 	N 	0.07972	0.30553	0.24298	-0.249
Mof_N 	N 	0.14391	0.2712	0.21938	-0.249
Mof_N 	N 	0.14765	0.25217	0.33831	-0.2
Mof_H 	H 	0.14273	0.24957	0.38747	0.149
Mof_O 	O 	0.3132	0.14607	0.42084	-0.463
Mof_O 	O 	0.25402	0.11695	0.51063	-0.32
Mof_O 	O 	0.29176	0.25259	0.91958	-0.359
Mof_O 	O 	0.24585	0.17002	0.93513	-0.427
Mof_C 	C 	0.04493	0.31983	0.24988	0.073
Mof_H 	H 	0.03433	0.32987	0.20597	0.005
Mof_C 	C 	0.02386	0.3204	0.31871	-0.115
Mof_H 	H 	0.99883	0.33017	0.32197	0.083
Mof_C 	C 	0.03981	0.30665	0.3825	0.037
Mof_H 	H 	0.02613	0.30727	0.43047	0.024
Mof_C 	C 	0.07579	0.29185	0.37666	-0.097
Mof_H 	H 	0.08743	0.28247	0.42017	0.068
Mof_C 	C 	0.09437	0.29113	0.30554	0.035
Mof_C 	C 	0.12933	0.27263	0.28944	0.082
Mof_C 	C 	0.17273	0.24801	0.22321	0.028
Mof_C 	C 	0.17558	0.23597	0.298	0.035
Mof_C 	C 	0.2002	0.21136	0.33571	0.048
Mof_C 	C 	0.17963	0.18371	0.40243	-0.104
Mof_H 	H 	0.14973	0.18117	0.42307	0.079
Mof_C 	C 	0.2026	0.16013	0.4383	0.036
Mof_H 	H 	0.18823	0.14147	0.48327	0.031
Mof_C 	C 	0.24654	0.16354	0.40915	-0.112
Mof_C 	C 	0.26723	0.19123	0.34297	0.035
Mof_H 	H 	0.29713	0.19377	0.32247	0.032
Mof_C 	C 	0.24452	0.21494	0.30705	-0.107
Mof_H 	H 	0.25923	0.23387	0.26237	0.071
Mof_C 	C 	0.2724	0.13969	0.45047	0.347
Mof_C 	C 	0.19334	0.23858	0.15381	0.027
Mof_C 	C 	0.21401	0.27583	0.09805	-0.095
Mof_H 	H 	0.21433	0.30687	0.10487	0.053
Mof_C 	C 	0.23405	0.26775	0.0328	0.02
Mof_H 	H 	0.24823	0.29337	0.99527	0.033
Mof_C 	C 	0.23344	0.2224	0.02208	-0.085
Mof_C 	C 	0.21108	0.18446	0.0762	0.019
Mof_H 	H 	0.20913	0.15277	0.06807	0.042
Mof_C 	C 	0.19161	0.19272	0.14215	-0.089
Mof_H 	H 	0.17703	0.16687	0.17937	0.065
Mof_C 	C 	0.25851	0.21529	0.9542	0.303
_end
