data_functionalizedCrystal
_audit_creation_method	'EQeq! by Chris Wilmer'
_symmetry_space_group_name_H-M	'P1'
_symmetry_Int_Tables_number	1
_symmetry_cell_setting	triclinic
loop_
_symmetry_equiv_pos_as_xyz
  x,y,z
_cell_length_a	9.943
_cell_length_b	10.5668
_cell_length_c	10.9169
_cell_angle_alpha	80.596
_cell_angle_beta	72.149
_cell_angle_gamma	74.574
loop_
_atom_site_label
_atom_site_type_symbol
_atom_site_fract_x
_atom_site_fract_y
_atom_site_fract_z
_atom_site_charge
Mof_Tb	Tb	0.17437	0.19375	0.03409	1.884
Mof_Zn	Zn	0.29172	0.36786	0.61719	1.196
Mof_N 	N 	0.4779	0.2042	0.5712	-0.232
Mof_N 	N 	0.1303	0.3027	0.5752	-0.247
Mof_C 	C 	0.6882	0.9616	0.7825	0.31
Mof_C 	C 	0.6402	0.037	0.6673	-0.059
Mof_C 	C 	0.5145	0.1357	0.6755	-0.013
Mof_C 	C 	0.5625	0.1724	0.4541	0.076
Mof_H 	H 	0.534	0.22	0.385	0.002
Mof_C 	C 	0.687	0.0726	0.4367	-0.134
Mof_H 	H 	0.741	0.06	0.353	0.099
Mof_C 	C 	0.7265	0.0062	0.5445	0.037
Mof_H 	H 	0.799	0.946	0.54	0.022
Mof_C 	C 	0.404	0.1692	0.8016	0.304
Mof_C 	C 	0.2251	0.4238	0.3737	0.297
Mof_C 	C 	0.1115	0.3513	0.4583	0.025
Mof_C 	C 	0.9936	0.3385	0.4229	-0.183
Mof_C 	C 	0.972	0.3833	0.291	0.507
Mof_C 	C 	0.8927	0.2766	0.5129	0.115
Mof_H 	H 	0.807	0.273	0.494	-0.016
Mof_C 	C 	0.9143	0.2261	0.6317	-0.188
Mof_H 	H 	0.847	0.185	0.692	0.118
Mof_C 	C 	0.0351	0.2406	0.6593	0.133
Mof_H 	H 	0.052	0.206	0.736	-0.033
Mof_C 	C 	0.9403	0.0207	0.0623	0.253
Mof_O 	O 	0.42134	0.1055	0.90322	-0.385
Mof_O 	O 	0.29062	0.259	0.79795	-0.565
Mof_O 	O 	0.6704	0.847	0.81452	-0.386
Mof_O 	O 	0.7561	0.01088	0.83457	-0.386
Mof_O 	O 	0.3161	0.4394	0.42599	-0.438
Mof_O 	O 	0.2202	0.4648	0.26214	-0.265
Mof_O 	O 	0.0292	0.30077	0.21029	-0.553
Mof_O 	O 	0.8926	0.49363	0.27168	-0.493
Mof_O 	O 	0.9571	0.10681	0.11838	-0.403
Mof_O 	O 	0.838	0.96381	0.09647	-0.399
Mof_Tb	Tb	0.82563	0.80625	0.96591	1.884
Mof_Zn	Zn	0.70828	0.63214	0.38281	1.196
Mof_N 	N 	0.5221	0.7958	0.4288	-0.232
Mof_N 	N 	0.8697	0.6973	0.4248	-0.247
Mof_C 	C 	0.3118	0.0384	0.2175	0.31
Mof_C 	C 	0.3598	0.963	0.3327	-0.059
Mof_C 	C 	0.4855	0.8643	0.3245	-0.013
Mof_C 	C 	0.4375	0.8276	0.5459	0.076
Mof_H 	H 	0.466	0.78	0.615	0.002
Mof_C 	C 	0.313	0.9274	0.5633	-0.134
Mof_H 	H 	0.259	0.94	0.647	0.099
Mof_C 	C 	0.2735	0.9938	0.4555	0.037
Mof_H 	H 	0.201	0.054	0.46	0.022
Mof_C 	C 	0.596	0.8308	0.1984	0.304
Mof_C 	C 	0.7749	0.5762	0.6263	0.297
Mof_C 	C 	0.8885	0.6487	0.5417	0.025
Mof_C 	C 	0.0064	0.6615	0.5771	-0.183
Mof_C 	C 	0.028	0.6167	0.709	0.507
Mof_C 	C 	0.1073	0.7234	0.4871	0.115
Mof_H 	H 	0.193	0.727	0.506	-0.016
Mof_C 	C 	0.0857	0.7739	0.3683	-0.188
Mof_H 	H 	0.153	0.815	0.308	0.118
Mof_C 	C 	0.9649	0.7594	0.3407	0.133
Mof_H 	H 	0.948	0.794	0.264	-0.033
Mof_C 	C 	0.0597	0.9793	0.9377	0.253
Mof_O 	O 	0.57866	0.8945	0.09678	-0.385
Mof_O 	O 	0.70938	0.741	0.20205	-0.565
Mof_O 	O 	0.3296	0.153	0.18548	-0.386
Mof_O 	O 	0.2439	0.98912	0.16543	-0.386
Mof_O 	O 	0.6839	0.5606	0.57401	-0.438
Mof_O 	O 	0.7798	0.5352	0.73786	-0.265
Mof_O 	O 	0.9708	0.69923	0.78971	-0.553
Mof_O 	O 	0.1074	0.50637	0.72832	-0.493
Mof_O 	O 	0.0429	0.89319	0.88162	-0.403
Mof_O 	O 	0.162	0.03619	0.90353	-0.399
_end
