data_functionalizedCrystal
_audit_creation_method	'EQeq! by Chris Wilmer'
_symmetry_space_group_name_H-M	'P1'
_symmetry_Int_Tables_number	1
_symmetry_cell_setting	triclinic
loop_
_symmetry_equiv_pos_as_xyz
  x,y,z
_cell_length_a	18.431
_cell_length_b	18.431
_cell_length_c	40.52
_cell_angle_alpha	90
_cell_angle_beta	90
_cell_angle_gamma	120
loop_
_atom_site_label
_atom_site_type_symbol
_atom_site_fract_x
_atom_site_fract_y
_atom_site_fract_z
_atom_site_charge
Mof_Co	Co	0.11626	0.05813	0.75	1.2
Mof_Co	Co	0.94187	0.88374	0.75	1.2
Mof_Co	Co	0.94187	0.05813	0.75	1.198
Mof_Co	Co	0.88374	0.94187	0.25	1.2
Mof_Co	Co	0.05813	0.11626	0.25	1.2
Mof_Co	Co	0.05813	0.94187	0.25	1.198
Mof_Cu	Cu	0.47607	0.52393	0.47399	0.906
Mof_Cu	Cu	0.04786	0.52393	0.47399	0.906
Mof_Cu	Cu	0.47607	0.95214	0.47399	0.906
Mof_Cu	Cu	0.52393	0.47607	0.97399	0.906
Mof_Cu	Cu	0.95214	0.47607	0.97399	0.906
Mof_Cu	Cu	0.52393	0.04786	0.97399	0.906
Mof_Cu	Cu	0.95214	0.47607	0.52601	0.906
Mof_Cu	Cu	0.52393	0.47607	0.52601	0.906
Mof_Cu	Cu	0.52393	0.04786	0.52601	0.906
Mof_Cu	Cu	0.04786	0.52393	0.02601	0.906
Mof_Cu	Cu	0.47607	0.52393	0.02601	0.906
Mof_Cu	Cu	0.47607	0.95214	0.02601	0.906
Mof_H 	H 	0.2926	0.3672	0.5826	-0.072
Mof_H 	H 	0.0436	0.2892	0.6199	0.391
Mof_H 	H 	0.0114	0.2234	0.6732	-0.279
Mof_H 	H 	0.0746	0.7074	0.5826	-0.071
Mof_H 	H 	0.2456	0.9564	0.6199	0.39
Mof_H 	H 	0.212	0.9886	0.6732	-0.278
Mof_H 	H 	0.6328	0.9254	0.5826	-0.072
Mof_H 	H 	0.7108	0.7544	0.6199	0.391
Mof_H 	H 	0.7766	0.788	0.6732	-0.28
Mof_H 	H 	0.7074	0.6328	0.0826	-0.072
Mof_H 	H 	0.9564	0.7108	0.1199	0.391
Mof_H 	H 	0.9886	0.7766	0.1732	-0.279
Mof_H 	H 	0.9254	0.2926	0.0826	-0.07
Mof_H 	H 	0.7544	0.0436	0.1199	0.391
Mof_H 	H 	0.788	0.0114	0.1732	-0.277
Mof_H 	H 	0.3672	0.0746	0.0826	-0.071
Mof_H 	H 	0.2892	0.2456	0.1199	0.392
Mof_H 	H 	0.2234	0.212	0.1732	-0.279
Mof_H 	H 	0.9254	0.6328	0.4174	-0.071
Mof_H 	H 	0.7544	0.7108	0.3801	0.392
Mof_H 	H 	0.788	0.7766	0.3268	-0.279
Mof_H 	H 	0.3672	0.2926	0.4174	-0.071
Mof_H 	H 	0.2892	0.0436	0.3801	0.392
Mof_H 	H 	0.2234	0.0114	0.3268	-0.278
Mof_H 	H 	0.7074	0.0746	0.4174	-0.07
Mof_H 	H 	0.9564	0.2456	0.3801	0.391
Mof_H 	H 	0.9886	0.212	0.3268	-0.277
Mof_H 	H 	0.0746	0.3672	0.9174	-0.071
Mof_H 	H 	0.2456	0.2892	0.8801	0.392
Mof_H 	H 	0.212	0.2234	0.8268	-0.279
Mof_H 	H 	0.6328	0.7074	0.9174	-0.071
Mof_H 	H 	0.7108	0.9564	0.8801	0.392
Mof_H 	H 	0.7766	0.9886	0.8268	-0.278
Mof_H 	H 	0.2926	0.9254	0.9174	-0.07
Mof_H 	H 	0.0436	0.7544	0.8801	0.391
Mof_H 	H 	0.0114	0.788	0.8268	-0.277
Mof_H 	H 	0.7074	0.6328	0.4174	-0.071
Mof_H 	H 	0.9564	0.7108	0.3801	0.392
Mof_H 	H 	0.9886	0.7766	0.3268	-0.278
Mof_H 	H 	0.9254	0.2926	0.4174	-0.07
Mof_H 	H 	0.7544	0.0436	0.3801	0.391
Mof_H 	H 	0.788	0.0114	0.3268	-0.277
Mof_H 	H 	0.3672	0.0746	0.4174	-0.071
Mof_H 	H 	0.2892	0.2456	0.3801	0.392
Mof_H 	H 	0.2234	0.212	0.3268	-0.279
Mof_H 	H 	0.2926	0.3672	0.9174	-0.071
Mof_H 	H 	0.0436	0.2892	0.8801	0.392
Mof_H 	H 	0.0114	0.2234	0.8268	-0.278
Mof_H 	H 	0.0746	0.7074	0.9174	-0.07
Mof_H 	H 	0.2456	0.9564	0.8801	0.391
Mof_H 	H 	0.212	0.9886	0.8268	-0.277
Mof_H 	H 	0.6328	0.9254	0.9174	-0.071
Mof_H 	H 	0.7108	0.7544	0.8801	0.392
Mof_H 	H 	0.7766	0.788	0.8268	-0.279
Mof_H 	H 	0.0746	0.3672	0.5826	-0.071
Mof_H 	H 	0.2456	0.2892	0.6199	0.392
Mof_H 	H 	0.212	0.2234	0.6732	-0.279
Mof_H 	H 	0.6328	0.7074	0.5826	-0.071
Mof_H 	H 	0.7108	0.9564	0.6199	0.392
Mof_H 	H 	0.7766	0.9886	0.6732	-0.278
Mof_H 	H 	0.2926	0.9254	0.5826	-0.07
Mof_H 	H 	0.0436	0.7544	0.6199	0.391
Mof_H 	H 	0.0114	0.788	0.6732	-0.277
Mof_H 	H 	0.9254	0.6328	0.0826	-0.071
Mof_H 	H 	0.7544	0.7108	0.1199	0.392
Mof_H 	H 	0.788	0.7766	0.1732	-0.279
Mof_H 	H 	0.3672	0.2926	0.0826	-0.071
Mof_H 	H 	0.2892	0.0436	0.1199	0.392
Mof_H 	H 	0.2234	0.0114	0.1732	-0.278
Mof_H 	H 	0.7074	0.0746	0.0826	-0.07
Mof_H 	H 	0.9564	0.2456	0.1199	0.391
Mof_H 	H 	0.9886	0.212	0.1732	-0.277
Mof_H 	H 	0.2365	0.473	0.5086	0.004
Mof_H 	H 	0.2365	0.7635	0.5086	0.004
Mof_H 	H 	0.527	0.7635	0.5086	0.004
Mof_H 	H 	0.7635	0.527	0.0086	0.004
Mof_H 	H 	0.7635	0.2365	0.0086	0.004
Mof_H 	H 	0.473	0.2365	0.0086	0.004
Mof_H 	H 	0.7635	0.527	0.4914	0.004
Mof_H 	H 	0.473	0.2365	0.4914	0.004
Mof_H 	H 	0.7635	0.2365	0.4914	0.004
Mof_H 	H 	0.2365	0.473	0.9914	0.004
Mof_H 	H 	0.527	0.7635	0.9914	0.004
Mof_H 	H 	0.2365	0.7635	0.9914	0.004
Mof_C 	C 	0.3581	0.4492	0.5266	0.388
Mof_C 	C 	0.2778	0.4235	0.5429	-0.247
Mof_C 	C 	0.2554	0.3804	0.57245	0.293
Mof_C 	C 	0.0832	0.2805	0.6306	-1.025
Mof_C 	C 	0.0605	0.2336	0.6628	0.995
Mof_C 	C 	0.0911	0.6419	0.5266	0.387
Mof_C 	C 	0.1457	0.7222	0.5429	-0.246
Mof_C 	C 	0.125	0.7446	0.57245	0.291
Mof_C 	C 	0.1973	0.9168	0.6306	-1.02
Mof_C 	C 	0.1731	0.9395	0.6628	0.991
Mof_C 	C 	0.5508	0.9089	0.5266	0.388
Mof_C 	C 	0.5765	0.8543	0.5429	-0.247
Mof_C 	C 	0.6196	0.875	0.57245	0.293
Mof_C 	C 	0.7195	0.8027	0.6306	-1.025
Mof_C 	C 	0.7664	0.8269	0.6628	0.995
Mof_C 	C 	0.6419	0.5508	0.0266	0.388
Mof_C 	C 	0.7222	0.5765	0.0429	-0.247
Mof_C 	C 	0.7446	0.6196	0.07245	0.293
Mof_C 	C 	0.9168	0.7195	0.1306	-1.025
Mof_C 	C 	0.9395	0.7664	0.1628	0.995
Mof_C 	C 	0.9089	0.3581	0.0266	0.388
Mof_C 	C 	0.8543	0.2778	0.0429	-0.246
Mof_C 	C 	0.875	0.2554	0.07245	0.291
Mof_C 	C 	0.8027	0.0832	0.1306	-1.021
Mof_C 	C 	0.8269	0.0605	0.1628	0.991
Mof_C 	C 	0.4492	0.0911	0.0266	0.388
Mof_C 	C 	0.4235	0.1457	0.0429	-0.247
Mof_C 	C 	0.3804	0.125	0.07245	0.293
Mof_C 	C 	0.2805	0.1973	0.1306	-1.025
Mof_C 	C 	0.2336	0.1731	0.1628	0.995
Mof_C 	C 	0.9089	0.5508	0.4734	0.388
Mof_C 	C 	0.8543	0.5765	0.4571	-0.247
Mof_C 	C 	0.875	0.6196	0.42755	0.293
Mof_C 	C 	0.8027	0.7195	0.3694	-1.025
Mof_C 	C 	0.8269	0.7664	0.3372	0.995
Mof_C 	C 	0.4492	0.3581	0.4734	0.388
Mof_C 	C 	0.4235	0.2778	0.4571	-0.247
Mof_C 	C 	0.3804	0.2554	0.42755	0.293
Mof_C 	C 	0.2805	0.0832	0.3694	-1.025
Mof_C 	C 	0.2336	0.0605	0.3372	0.995
Mof_C 	C 	0.6419	0.0911	0.4734	0.387
Mof_C 	C 	0.7222	0.1457	0.4571	-0.246
Mof_C 	C 	0.7446	0.125	0.42755	0.291
Mof_C 	C 	0.9168	0.1973	0.3694	-1.02
Mof_C 	C 	0.9395	0.1731	0.3372	0.991
Mof_C 	C 	0.0911	0.4492	0.9734	0.388
Mof_C 	C 	0.1457	0.4235	0.9571	-0.247
Mof_C 	C 	0.125	0.3804	0.92755	0.293
Mof_C 	C 	0.1973	0.2805	0.8694	-1.025
Mof_C 	C 	0.1731	0.2336	0.8372	0.995
Mof_C 	C 	0.5508	0.6419	0.9734	0.388
Mof_C 	C 	0.5765	0.7222	0.9571	-0.247
Mof_C 	C 	0.6196	0.7446	0.92755	0.293
Mof_C 	C 	0.7195	0.9168	0.8694	-1.025
Mof_C 	C 	0.7664	0.9395	0.8372	0.995
Mof_C 	C 	0.3581	0.9089	0.9734	0.388
Mof_C 	C 	0.2778	0.8543	0.9571	-0.246
Mof_C 	C 	0.2554	0.875	0.92755	0.291
Mof_C 	C 	0.0832	0.8027	0.8694	-1.021
Mof_C 	C 	0.0605	0.8269	0.8372	0.991
Mof_C 	C 	0.6419	0.5508	0.4734	0.388
Mof_C 	C 	0.7222	0.5765	0.4571	-0.247
Mof_C 	C 	0.7446	0.6196	0.42755	0.293
Mof_C 	C 	0.9168	0.7195	0.3694	-1.025
Mof_C 	C 	0.9395	0.7664	0.3372	0.995
Mof_C 	C 	0.9089	0.3581	0.4734	0.387
Mof_C 	C 	0.8543	0.2778	0.4571	-0.246
Mof_C 	C 	0.875	0.2554	0.42755	0.291
Mof_C 	C 	0.8027	0.0832	0.3694	-1.02
Mof_C 	C 	0.8269	0.0605	0.3372	0.991
Mof_C 	C 	0.4492	0.0911	0.4734	0.388
Mof_C 	C 	0.4235	0.1457	0.4571	-0.247
Mof_C 	C 	0.3804	0.125	0.42755	0.293
Mof_C 	C 	0.2805	0.1973	0.3694	-1.025
Mof_C 	C 	0.2336	0.1731	0.3372	0.995
Mof_C 	C 	0.3581	0.4492	0.9734	0.388
Mof_C 	C 	0.2778	0.4235	0.9571	-0.247
Mof_C 	C 	0.2554	0.3804	0.92755	0.293
Mof_C 	C 	0.0832	0.2805	0.8694	-1.025
Mof_C 	C 	0.0605	0.2336	0.8372	0.995
Mof_C 	C 	0.0911	0.6419	0.9734	0.388
Mof_C 	C 	0.1457	0.7222	0.9571	-0.246
Mof_C 	C 	0.125	0.7446	0.92755	0.291
Mof_C 	C 	0.1973	0.9168	0.8694	-1.021
Mof_C 	C 	0.1731	0.9395	0.8372	0.991
Mof_C 	C 	0.5508	0.9089	0.9734	0.388
Mof_C 	C 	0.5765	0.8543	0.9571	-0.247
Mof_C 	C 	0.6196	0.875	0.92755	0.293
Mof_C 	C 	0.7195	0.8027	0.8694	-1.025
Mof_C 	C 	0.7664	0.8269	0.8372	0.995
Mof_C 	C 	0.0911	0.4492	0.5266	0.388
Mof_C 	C 	0.1457	0.4235	0.5429	-0.247
Mof_C 	C 	0.125	0.3804	0.57245	0.293
Mof_C 	C 	0.1973	0.2805	0.6306	-1.025
Mof_C 	C 	0.1731	0.2336	0.6628	0.995
Mof_C 	C 	0.5508	0.6419	0.5266	0.388
Mof_C 	C 	0.5765	0.7222	0.5429	-0.247
Mof_C 	C 	0.6196	0.7446	0.57245	0.293
Mof_C 	C 	0.7195	0.9168	0.6306	-1.025
Mof_C 	C 	0.7664	0.9395	0.6628	0.995
Mof_C 	C 	0.3581	0.9089	0.5266	0.387
Mof_C 	C 	0.2778	0.8543	0.5429	-0.246
Mof_C 	C 	0.2554	0.875	0.57245	0.291
Mof_C 	C 	0.0832	0.8027	0.6306	-1.02
Mof_C 	C 	0.0605	0.8269	0.6628	0.991
Mof_C 	C 	0.9089	0.5508	0.0266	0.388
Mof_C 	C 	0.8543	0.5765	0.0429	-0.247
Mof_C 	C 	0.875	0.6196	0.07245	0.293
Mof_C 	C 	0.8027	0.7195	0.1306	-1.025
Mof_C 	C 	0.8269	0.7664	0.1628	0.995
Mof_C 	C 	0.4492	0.3581	0.0266	0.388
Mof_C 	C 	0.4235	0.2778	0.0429	-0.247
Mof_C 	C 	0.3804	0.2554	0.07245	0.293
Mof_C 	C 	0.2805	0.0832	0.1306	-1.025
Mof_C 	C 	0.2336	0.0605	0.1628	0.995
Mof_C 	C 	0.6419	0.0911	0.0266	0.388
Mof_C 	C 	0.7222	0.1457	0.0429	-0.246
Mof_C 	C 	0.7446	0.125	0.07245	0.291
Mof_C 	C 	0.9168	0.1973	0.1306	-1.021
Mof_C 	C 	0.9395	0.1731	0.1628	0.991
Mof_C 	C 	0.2221	0.4442	0.5286	0.179
Mof_C 	C 	0.178	0.356	0.5876	-0.502
Mof_C 	C 	0.154	0.308	0.618	1.001
Mof_C 	C 	0.1039	0.2078	0.676	-1.141
Mof_C 	C 	0.0768	0.1536	0.7043	1.001
Mof_C 	C 	0.2221	0.7779	0.5286	0.178
Mof_C 	C 	0.178	0.822	0.5876	-0.499
Mof_C 	C 	0.154	0.846	0.618	0.997
Mof_C 	C 	0.1039	0.8961	0.676	-1.136
Mof_C 	C 	0.0768	0.9232	0.7043	0.998
Mof_C 	C 	0.5558	0.7779	0.5286	0.179
Mof_C 	C 	0.644	0.822	0.5876	-0.502
Mof_C 	C 	0.692	0.846	0.618	1.001
Mof_C 	C 	0.7922	0.8961	0.676	-1.141
Mof_C 	C 	0.8464	0.9232	0.7043	1.001
Mof_C 	C 	0.7779	0.5558	0.0286	0.179
Mof_C 	C 	0.822	0.644	0.0876	-0.502
Mof_C 	C 	0.846	0.692	0.118	1.001
Mof_C 	C 	0.8961	0.7922	0.176	-1.141
Mof_C 	C 	0.9232	0.8464	0.2043	1.001
Mof_C 	C 	0.7779	0.2221	0.0286	0.178
Mof_C 	C 	0.822	0.178	0.0876	-0.499
Mof_C 	C 	0.846	0.154	0.118	0.997
Mof_C 	C 	0.8961	0.1039	0.176	-1.136
Mof_C 	C 	0.9232	0.0768	0.2043	0.998
Mof_C 	C 	0.4442	0.2221	0.0286	0.179
Mof_C 	C 	0.356	0.178	0.0876	-0.502
Mof_C 	C 	0.308	0.154	0.118	1.001
Mof_C 	C 	0.2078	0.1039	0.176	-1.141
Mof_C 	C 	0.1536	0.0768	0.2043	1.001
Mof_C 	C 	0.7779	0.5558	0.4714	0.179
Mof_C 	C 	0.822	0.644	0.4124	-0.502
Mof_C 	C 	0.846	0.692	0.382	1.001
Mof_C 	C 	0.8961	0.7922	0.324	-1.141
Mof_C 	C 	0.9232	0.8464	0.2957	1.001
Mof_C 	C 	0.4442	0.2221	0.4714	0.179
Mof_C 	C 	0.356	0.178	0.4124	-0.502
Mof_C 	C 	0.308	0.154	0.382	1.001
Mof_C 	C 	0.2078	0.1039	0.324	-1.141
Mof_C 	C 	0.1536	0.0768	0.2957	1.001
Mof_C 	C 	0.7779	0.2221	0.4714	0.178
Mof_C 	C 	0.822	0.178	0.4124	-0.499
Mof_C 	C 	0.846	0.154	0.382	0.997
Mof_C 	C 	0.8961	0.1039	0.324	-1.136
Mof_C 	C 	0.9232	0.0768	0.2957	0.998
Mof_C 	C 	0.2221	0.4442	0.9714	0.179
Mof_C 	C 	0.178	0.356	0.9124	-0.502
Mof_C 	C 	0.154	0.308	0.882	1.001
Mof_C 	C 	0.1039	0.2078	0.824	-1.141
Mof_C 	C 	0.0768	0.1536	0.7957	1.001
Mof_C 	C 	0.5558	0.7779	0.9714	0.179
Mof_C 	C 	0.644	0.822	0.9124	-0.502
Mof_C 	C 	0.692	0.846	0.882	1.001
Mof_C 	C 	0.7922	0.8961	0.824	-1.141
Mof_C 	C 	0.8464	0.9232	0.7957	1.001
Mof_C 	C 	0.2221	0.7779	0.9714	0.178
Mof_C 	C 	0.178	0.822	0.9124	-0.499
Mof_C 	C 	0.154	0.846	0.882	0.997
Mof_C 	C 	0.1039	0.8961	0.824	-1.136
Mof_C 	C 	0.0768	0.9232	0.7957	0.998
Mof_O 	O 	0.3718	0.4815	0.49767	-0.41
Mof_O 	O 	0.1222	0.1317	0.71525	-0.659
Mof_O 	O 	0.4115	0.4379	0.54332	-0.402
Mof_O 	O 	0.1097	0.6282	0.49767	-0.41
Mof_O 	O 	0.0095	0.8778	0.71525	-0.656
Mof_O 	O 	0.0264	0.5885	0.54332	-0.402
Mof_O 	O 	0.5185	0.8903	0.49767	-0.41
Mof_O 	O 	0.8683	0.9905	0.71525	-0.658
Mof_O 	O 	0.5621	0.9736	0.54332	-0.402
Mof_O 	O 	0.6282	0.5185	0.99767	-0.41
Mof_O 	O 	0.8778	0.8683	0.21525	-0.659
Mof_O 	O 	0.5885	0.5621	0.04332	-0.402
Mof_O 	O 	0.8903	0.3718	0.99767	-0.411
Mof_O 	O 	0.9905	0.1222	0.21525	-0.656
Mof_O 	O 	0.9736	0.4115	0.04332	-0.402
Mof_O 	O 	0.4815	0.1097	0.99767	-0.411
Mof_O 	O 	0.1317	0.0095	0.21525	-0.658
Mof_O 	O 	0.4379	0.0264	0.04332	-0.402
Mof_O 	O 	0.8903	0.5185	0.50233	-0.41
Mof_O 	O 	0.9905	0.8683	0.28475	-0.658
Mof_O 	O 	0.9736	0.5621	0.45668	-0.402
Mof_O 	O 	0.4815	0.3718	0.50233	-0.41
Mof_O 	O 	0.1317	0.1222	0.28475	-0.659
Mof_O 	O 	0.4379	0.4115	0.45668	-0.402
Mof_O 	O 	0.6282	0.1097	0.50233	-0.41
Mof_O 	O 	0.8778	0.0095	0.28475	-0.656
Mof_O 	O 	0.5885	0.0264	0.45668	-0.402
Mof_O 	O 	0.1097	0.4815	0.00233	-0.411
Mof_O 	O 	0.0095	0.1317	0.78475	-0.658
Mof_O 	O 	0.0264	0.4379	0.95668	-0.402
Mof_O 	O 	0.5185	0.6282	0.00233	-0.41
Mof_O 	O 	0.8683	0.8778	0.78475	-0.659
Mof_O 	O 	0.5621	0.5885	0.95668	-0.402
Mof_O 	O 	0.3718	0.8903	0.00233	-0.411
Mof_O 	O 	0.1222	0.9905	0.78475	-0.656
Mof_O 	O 	0.4115	0.9736	0.95668	-0.402
Mof_O 	O 	0.6282	0.5185	0.50233	-0.41
Mof_O 	O 	0.8778	0.8683	0.28475	-0.659
Mof_O 	O 	0.5885	0.5621	0.45668	-0.402
Mof_O 	O 	0.8903	0.3718	0.50233	-0.41
Mof_O 	O 	0.9905	0.1222	0.28475	-0.656
Mof_O 	O 	0.9736	0.4115	0.45668	-0.402
Mof_O 	O 	0.4815	0.1097	0.50233	-0.41
Mof_O 	O 	0.1317	0.0095	0.28475	-0.658
Mof_O 	O 	0.4379	0.0264	0.45668	-0.402
Mof_O 	O 	0.3718	0.4815	0.00233	-0.41
Mof_O 	O 	0.1222	0.1317	0.78475	-0.659
Mof_O 	O 	0.4115	0.4379	0.95668	-0.402
Mof_O 	O 	0.1097	0.6282	0.00233	-0.411
Mof_O 	O 	0.0095	0.8778	0.78475	-0.656
Mof_O 	O 	0.0264	0.5885	0.95668	-0.402
Mof_O 	O 	0.5185	0.8903	0.00233	-0.411
Mof_O 	O 	0.8683	0.9905	0.78475	-0.658
Mof_O 	O 	0.5621	0.9736	0.95668	-0.402
Mof_O 	O 	0.1097	0.4815	0.49767	-0.41
Mof_O 	O 	0.0095	0.1317	0.71525	-0.658
Mof_O 	O 	0.0264	0.4379	0.54332	-0.402
Mof_O 	O 	0.5185	0.6282	0.49767	-0.41
Mof_O 	O 	0.8683	0.8778	0.71525	-0.659
Mof_O 	O 	0.5621	0.5885	0.54332	-0.402
Mof_O 	O 	0.3718	0.8903	0.49767	-0.41
Mof_O 	O 	0.1222	0.9905	0.71525	-0.656
Mof_O 	O 	0.4115	0.9736	0.54332	-0.402
Mof_O 	O 	0.8903	0.5185	0.99767	-0.411
Mof_O 	O 	0.9905	0.8683	0.21525	-0.658
Mof_O 	O 	0.9736	0.5621	0.04332	-0.402
Mof_O 	O 	0.4815	0.3718	0.99767	-0.41
Mof_O 	O 	0.1317	0.1222	0.21525	-0.659
Mof_O 	O 	0.4379	0.4115	0.04332	-0.402
Mof_O 	O 	0.6282	0.1097	0.99767	-0.411
Mof_O 	O 	0.8778	0.0095	0.21525	-0.656
Mof_O 	O 	0.5885	0.0264	0.04332	-0.402
_end
