data_functionalizedCrystal
_audit_creation_method	'EQeq! by Chris Wilmer'
_symmetry_space_group_name_H-M	'P1'
_symmetry_Int_Tables_number	1
_symmetry_cell_setting	triclinic
loop_
_symmetry_equiv_pos_as_xyz
  x,y,z
_cell_length_a	15.754
_cell_length_b	15.754
_cell_length_c	15.754
_cell_angle_alpha	90
_cell_angle_beta	90
_cell_angle_gamma	90
loop_
_atom_site_label
_atom_site_type_symbol
_atom_site_fract_x
_atom_site_fract_y
_atom_site_fract_z
_atom_site_charge
Mof_Cu	Cu	0.5	0.25	0.75	0.901
Mof_Cu	Cu	-3.64416e-33	0.25	0.75	0.877
Mof_Cu	Cu	0.75	0.5	0.25	0.901
Mof_Cu	Cu	0.75	0	0.25	0.877
Mof_Cu	Cu	0.25	0.75	0.5	0.893
Mof_Cu	Cu	0.25	0.75	-0	0.878
Mof_Cu	Cu	0.5	0.75	0.25	0.902
Mof_Cu	Cu	9.3735e-34	0.75	0.25	0.878
Mof_Cu	Cu	0.25	0.5	0.75	0.903
Mof_Cu	Cu	0.25	0	0.75	0.878
Mof_Cu	Cu	0.75	0.25	0.5	0.903
Mof_Cu	Cu	0.75	0.25	-0	0.872
Mof_C 	C 	0.6001	0.1039	0.7942	0.284
Mof_C 	C 	0.8999	0.3961	0.7942	0.249
Mof_C 	C 	0.8999	0.1039	0.7058	0.286
Mof_C 	C 	0.6001	0.3961	0.7058	0.263
Mof_C 	C 	0.7942	0.6001	0.1039	0.284
Mof_C 	C 	0.7942	0.8999	0.3961	0.267
Mof_C 	C 	0.7058	0.8999	0.1039	0.285
Mof_C 	C 	0.7058	0.6001	0.3961	0.265
Mof_C 	C 	0.1039	0.7942	0.6001	0.284
Mof_C 	C 	0.3961	0.7942	0.8999	0.267
Mof_C 	C 	0.1039	0.7058	0.8999	0.286
Mof_C 	C 	0.3961	0.7058	0.6001	0.095
Mof_C 	C 	0.6039	0.1001	0.2058	0.264
Mof_C 	C 	0.8961	0.3999	0.2058	0.244
Mof_C 	C 	0.6039	0.3999	0.2942	0.265
Mof_C 	C 	0.8961	0.1001	0.2942	0.243
Mof_C 	C 	0.1001	0.2942	0.8961	0.244
Mof_C 	C 	0.3999	0.2942	0.6039	0.265
Mof_C 	C 	0.3999	0.2058	0.8961	0.246
Mof_C 	C 	0.1001	0.2058	0.6039	0.264
Mof_C 	C 	0.2942	0.6039	0.3999	0.267
Mof_C 	C 	0.2942	0.8961	0.1001	0.244
Mof_C 	C 	0.2058	0.6039	0.1001	0.263
Mof_C 	C 	0.2058	0.8961	0.3999	0.246
Mof_C 	C 	0.3999	0.8961	0.2058	0.245
Mof_C 	C 	0.1001	0.6039	0.2058	0.264
Mof_C 	C 	0.1001	0.8961	0.2942	0.244
Mof_C 	C 	0.3999	0.6039	0.2942	0.265
Mof_C 	C 	0.2058	0.3999	0.8961	0.245
Mof_C 	C 	0.2058	0.1001	0.6039	0.263
Mof_C 	C 	0.2942	0.1001	0.8961	0.245
Mof_C 	C 	0.2942	0.3999	0.6039	0.267
Mof_C 	C 	0.8961	0.2058	0.3999	0.244
Mof_C 	C 	0.6039	0.2058	0.1001	0.264
Mof_C 	C 	0.8961	0.2942	0.1001	0.243
Mof_C 	C 	0.6039	0.2942	0.3999	0.267
Mof_C 	C 	0.3961	0.8999	0.7942	0.264
Mof_C 	C 	0.1039	0.6001	0.7942	0.284
Mof_C 	C 	0.3961	0.6001	0.7058	0.245
Mof_C 	C 	0.1039	0.8999	0.7058	0.286
Mof_C 	C 	0.8999	0.7058	0.1039	0.286
Mof_C 	C 	0.6001	0.7058	0.3961	0.268
Mof_C 	C 	0.6001	0.7942	0.1039	0.283
Mof_C 	C 	0.8999	0.7942	0.3961	0.266
Mof_C 	C 	0.7058	0.3961	0.6001	0.265
Mof_C 	C 	0.7058	0.1039	0.8999	0.286
Mof_C 	C 	0.7942	0.3961	0.8999	0.126
Mof_C 	C 	0.7942	0.1039	0.6001	0.284
Mof_C 	C 	0.631	0.2249	0.869	0.09
Mof_C 	C 	0.6556	0.054	0.8444	-0.273
Mof_C 	C 	0.869	0.2751	0.869	0.091
Mof_C 	C 	0.8444	0.446	0.8444	-0.143
Mof_C 	C 	0.869	0.2249	0.631	0.09
Mof_C 	C 	0.8444	0.054	0.6556	-0.273
Mof_C 	C 	0.631	0.2751	0.631	0.082
Mof_C 	C 	0.6556	0.446	0.6556	-0.206
Mof_C 	C 	0.869	0.631	0.2249	0.09
Mof_C 	C 	0.8444	0.6556	0.054	-0.272
Mof_C 	C 	0.869	0.869	0.2751	0.096
Mof_C 	C 	0.8444	0.8444	0.446	-0.193
Mof_C 	C 	0.631	0.869	0.2249	0.09
Mof_C 	C 	0.6556	0.8444	0.054	-0.269
Mof_C 	C 	0.631	0.631	0.2751	0.082
Mof_C 	C 	0.6556	0.6556	0.446	-0.209
Mof_C 	C 	0.2249	0.869	0.631	0.09
Mof_C 	C 	0.054	0.8444	0.6556	-0.273
Mof_C 	C 	0.2751	0.869	0.869	0.095
Mof_C 	C 	0.446	0.8444	0.8444	-0.195
Mof_C 	C 	0.2249	0.631	0.869	0.09
Mof_C 	C 	0.054	0.6556	0.8444	-0.274
Mof_C 	C 	0.2751	0.631	0.631	0.077
Mof_C 	C 	0.446	0.6556	0.6556	-0.144
Mof_C 	C 	0.7249	0.131	0.131	0.071
Mof_C 	C 	0.554	0.1556	0.1556	-0.219
Mof_C 	C 	0.7751	0.369	0.131	0.068
Mof_C 	C 	0.946	0.3444	0.1556	-0.133
Mof_C 	C 	0.7249	0.369	0.369	0.082
Mof_C 	C 	0.554	0.3444	0.3444	-0.208
Mof_C 	C 	0.7751	0.131	0.369	0.076
Mof_C 	C 	0.946	0.1556	0.3444	-0.133
Mof_C 	C 	0.131	0.369	0.7751	0.075
Mof_C 	C 	0.1556	0.3444	0.946	-0.138
Mof_C 	C 	0.369	0.369	0.7249	0.082
Mof_C 	C 	0.3444	0.3444	0.554	-0.208
Mof_C 	C 	0.369	0.131	0.7751	0.076
Mof_C 	C 	0.3444	0.1556	0.946	-0.138
Mof_C 	C 	0.131	0.131	0.7249	0.071
Mof_C 	C 	0.1556	0.1556	0.554	-0.219
Mof_C 	C 	0.369	0.7249	0.369	0.074
Mof_C 	C 	0.3444	0.554	0.3444	-0.208
Mof_C 	C 	0.369	0.7751	0.131	0.076
Mof_C 	C 	0.3444	0.946	0.1556	-0.134
Mof_C 	C 	0.131	0.7249	0.131	0.071
Mof_C 	C 	0.1556	0.554	0.1556	-0.219
Mof_C 	C 	0.131	0.7751	0.369	0.076
Mof_C 	C 	0.1556	0.946	0.3444	-0.135
Mof_N 	N 	0.5831	0.1808	0.8108	-0.264
Mof_N 	N 	0.9169	0.3192	0.8108	-0.238
Mof_N 	N 	0.9169	0.1808	0.6892	-0.25
Mof_N 	N 	0.5831	0.3192	0.6892	-0.259
Mof_N 	N 	0.8108	0.5831	0.1808	-0.264
Mof_N 	N 	0.8108	0.9169	0.3192	-0.244
Mof_N 	N 	0.6892	0.9169	0.1808	-0.25
Mof_N 	N 	0.6892	0.5831	0.3192	-0.259
Mof_N 	N 	0.1808	0.8108	0.5831	-0.265
Mof_N 	N 	0.3192	0.8108	0.9169	-0.245
Mof_N 	N 	0.1808	0.6892	0.9169	-0.251
Mof_N 	N 	0.3192	0.6892	0.5831	-0.235
Mof_N 	N 	0.6808	0.0831	0.1892	-0.267
Mof_N 	N 	0.8192	0.4169	0.1892	-0.254
Mof_N 	N 	0.6808	0.4169	0.3108	-0.259
Mof_N 	N 	0.8192	0.0831	0.3108	-0.261
Mof_N 	N 	0.0831	0.3108	0.8192	-0.261
Mof_N 	N 	0.4169	0.3108	0.6808	-0.259
Mof_N 	N 	0.4169	0.1892	0.8192	-0.255
Mof_N 	N 	0.0831	0.1892	0.6808	-0.267
Mof_N 	N 	0.3108	0.6808	0.4169	-0.264
Mof_N 	N 	0.3108	0.8192	0.0831	-0.261
Mof_N 	N 	0.1892	0.6808	0.0831	-0.267
Mof_N 	N 	0.1892	0.8192	0.4169	-0.255
Mof_N 	N 	0.4169	0.8192	0.1892	-0.254
Mof_N 	N 	0.0831	0.6808	0.1892	-0.267
Mof_N 	N 	0.0831	0.8192	0.3108	-0.261
Mof_N 	N 	0.4169	0.6808	0.3108	-0.259
Mof_N 	N 	0.1892	0.4169	0.8192	-0.254
Mof_N 	N 	0.1892	0.0831	0.6808	-0.267
Mof_N 	N 	0.3108	0.0831	0.8192	-0.261
Mof_N 	N 	0.3108	0.4169	0.6808	-0.259
Mof_N 	N 	0.8192	0.1892	0.4169	-0.254
Mof_N 	N 	0.6808	0.1892	0.0831	-0.268
Mof_N 	N 	0.8192	0.3108	0.0831	-0.265
Mof_N 	N 	0.6808	0.3108	0.4169	-0.259
Mof_N 	N 	0.3192	0.9169	0.8108	-0.244
Mof_N 	N 	0.1808	0.5831	0.8108	-0.263
Mof_N 	N 	0.3192	0.5831	0.6892	-0.252
Mof_N 	N 	0.1808	0.9169	0.6892	-0.25
Mof_N 	N 	0.9169	0.6892	0.1808	-0.25
Mof_N 	N 	0.5831	0.6892	0.3192	-0.26
Mof_N 	N 	0.5831	0.8108	0.1808	-0.263
Mof_N 	N 	0.9169	0.8108	0.3192	-0.244
Mof_N 	N 	0.6892	0.3192	0.5831	-0.259
Mof_N 	N 	0.6892	0.1808	0.9169	-0.252
Mof_N 	N 	0.8108	0.3192	0.9169	-0.226
Mof_N 	N 	0.8108	0.1808	0.5831	-0.263
Mof_O 	O 	0.55	0.079	0.731	-0.252
Mof_O 	O 	0.95	0.421	0.731	-0.194
Mof_O 	O 	0.95	0.079	0.769	-0.217
Mof_O 	O 	0.55	0.421	0.769	-0.228
Mof_O 	O 	0.731	0.55	0.079	-0.265
Mof_O 	O 	0.731	0.95	0.421	-0.2
Mof_O 	O 	0.769	0.95	0.079	-0.216
Mof_O 	O 	0.769	0.55	0.421	-0.223
Mof_O 	O 	0.079	0.731	0.55	-0.251
Mof_O 	O 	0.421	0.731	0.95	-0.2
Mof_O 	O 	0.079	0.769	0.95	-0.219
Mof_O 	O 	0.579	0.05	0.269	-0.254
Mof_O 	O 	0.921	0.45	0.269	-0.203
Mof_O 	O 	0.579	0.45	0.231	-0.234
Mof_O 	O 	0.921	0.05	0.231	-0.231
Mof_O 	O 	0.05	0.231	0.921	-0.232
Mof_O 	O 	0.45	0.231	0.579	-0.232
Mof_O 	O 	0.45	0.269	0.921	-0.206
Mof_O 	O 	0.05	0.269	0.579	-0.253
Mof_O 	O 	0.231	0.579	0.45	-0.232
Mof_O 	O 	0.231	0.921	0.05	-0.23
Mof_O 	O 	0.269	0.579	0.05	-0.253
Mof_O 	O 	0.269	0.921	0.45	-0.211
Mof_O 	O 	0.45	0.921	0.269	-0.205
Mof_O 	O 	0.05	0.579	0.269	-0.253
Mof_O 	O 	0.05	0.921	0.231	-0.231
Mof_O 	O 	0.45	0.579	0.231	-0.233
Mof_O 	O 	0.269	0.45	0.921	-0.205
Mof_O 	O 	0.269	0.05	0.579	-0.256
Mof_O 	O 	0.231	0.05	0.921	-0.232
Mof_O 	O 	0.231	0.45	0.579	-0.231
Mof_O 	O 	0.921	0.269	0.45	-0.203
Mof_O 	O 	0.579	0.269	0.05	-0.259
Mof_O 	O 	0.921	0.231	0.05	-0.23
Mof_O 	O 	0.579	0.231	0.45	-0.232
Mof_O 	O 	0.421	0.95	0.731	-0.204
Mof_O 	O 	0.079	0.55	0.731	-0.251
Mof_O 	O 	0.421	0.55	0.769	-0.219
Mof_O 	O 	0.079	0.95	0.769	-0.218
Mof_O 	O 	0.95	0.769	0.079	-0.216
Mof_O 	O 	0.55	0.769	0.421	-0.242
Mof_O 	O 	0.55	0.731	0.079	-0.25
Mof_O 	O 	0.95	0.731	0.421	-0.198
Mof_O 	O 	0.769	0.421	0.55	-0.222
Mof_O 	O 	0.769	0.079	0.95	-0.219
Mof_O 	O 	0.731	0.079	0.55	-0.251
Mof_H 	H 	0.42484	0.76416	0.56841	0.013
Mof_H 	H 	0.62196	0.29629	0.87664	0.005
Mof_H 	H 	0.65603	0.982	0.83718	0.159
Mof_H 	H 	0.87804	0.20371	0.87664	0.02
Mof_H 	H 	0.84397	0.518	0.83718	0.094
Mof_H 	H 	0.87804	0.29629	0.62336	0.015
Mof_H 	H 	0.83718	0.982	0.65603	0.159
Mof_H 	H 	0.62196	0.20371	0.62336	0.006
Mof_H 	H 	0.65603	0.518	0.66282	0.105
Mof_H 	H 	0.87664	0.62196	0.29629	0.015
Mof_H 	H 	0.83718	0.65603	0.982	0.155
Mof_H 	H 	0.87664	0.87804	0.20371	0.02
Mof_H 	H 	0.84397	0.83718	0.518	0.112
Mof_H 	H 	0.62336	0.87804	0.29629	0.014
Mof_H 	H 	0.65603	0.83718	0.982	0.157
Mof_H 	H 	0.62336	0.62196	0.20371	0.005
Mof_H 	H 	0.66282	0.65603	0.518	0.105
Mof_H 	H 	0.29629	0.87664	0.62196	0.004
Mof_H 	H 	0.982	0.83718	0.65603	0.16
Mof_H 	H 	0.20371	0.87664	0.87804	0.019
Mof_H 	H 	0.518	0.84397	0.83718	0.111
Mof_H 	H 	0.29629	0.62336	0.87804	0.014
Mof_H 	H 	0.982	0.65603	0.83718	0.159
Mof_H 	H 	0.20371	0.62336	0.62196	0.007
Mof_H 	H 	0.518	0.66282	0.65603	0.084
Mof_H 	H 	0.79629	0.12196	0.12336	0.001
Mof_H 	H 	0.482	0.16282	0.15603	0.096
Mof_H 	H 	0.70371	0.37804	0.12336	-0.004
Mof_H 	H 	0.018	0.33718	0.15603	0.046
Mof_H 	H 	0.79629	0.37804	0.37664	0.011
Mof_H 	H 	0.482	0.34397	0.33718	0.102
Mof_H 	H 	0.70371	0.12196	0.37664	0.003
Mof_H 	H 	0.018	0.15603	0.33718	0.046
Mof_H 	H 	0.12196	0.37664	0.70371	0.003
Mof_H 	H 	0.15603	0.33718	0.018	0.048
Mof_H 	H 	0.37804	0.37664	0.79629	0.01
Mof_H 	H 	0.34397	0.33718	0.482	0.102
Mof_H 	H 	0.37804	0.12336	0.70371	0.003
Mof_H 	H 	0.33718	0.15603	0.018	0.048
Mof_H 	H 	0.12196	0.12336	0.79629	0
Mof_H 	H 	0.16282	0.15603	0.482	0.096
Mof_H 	H 	0.37664	0.79629	0.37804	0.001
Mof_H 	H 	0.34397	0.482	0.33718	0.102
Mof_H 	H 	0.37664	0.70371	0.12196	0.003
Mof_H 	H 	0.33718	0.018	0.15603	0.046
Mof_H 	H 	0.12336	0.79629	0.12196	0.001
Mof_H 	H 	0.16282	0.482	0.15603	0.096
Mof_H 	H 	0.12336	0.70371	0.37804	0.004
Mof_H 	H 	0.15603	0.018	0.33718	0.046
_end
