# CIF file generated by openbabel 3.1.0, see https://openbabel.org
data_I
_chemical_name_common 'EDABOC_clean'
_cell_length_a 7.7965
_cell_length_b 9.5743
_cell_length_c 11.464
_cell_angle_alpha 91.93
_cell_angle_beta 105.87
_cell_angle_gamma 103.38
_space_group_name_H-M_alt 'P 1'
_space_group_name_Hall 'P 1'
loop_
    _symmetry_equiv_pos_as_xyz
    x,y,z
loop_
    _atom_site_label
    _atom_site_type_symbol
    _atom_site_fract_x
    _atom_site_fract_y
    _atom_site_fract_z
    _atom_site_occupancy
    Pr1      Pr       0.71366    0.42010    0.48220    1.000
    Pr2      Pr       0.28634    0.57990    0.51780    1.000
    H1       H        0.94980    0.26070    0.31200    1.000
    H2       H        0.01790    0.05760    0.24790    1.000
    H3       H        0.89280    0.83660    0.30710    1.000
    H4       H        0.64780    0.04290    0.49620    1.000
    H5       H        0.26780    0.41100    0.80920    1.000
    H6       H        0.20850    0.54550    0.85020    1.000
    H7       H        0.00460    0.38860    0.93980    1.000
    H8       H        0.08710    0.26200    0.90870    1.000
    H9       H        0.30760    0.51550    0.06090    1.000
    H10      H        0.37650    0.37860    0.03770    1.000
    H11      H        0.17440    0.24580    0.13950    1.000
    H12      H        0.12000    0.38800    0.16880    1.000
    H13      H        0.05020    0.73930    0.68800    1.000
    H14      H        0.98210    0.94240    0.75210    1.000
    H15      H        0.10720    0.16340    0.69290    1.000
    H16      H        0.35220    0.95710    0.50380    1.000
    H17      H        0.73220    0.58900    0.19080    1.000
    H18      H        0.79150    0.45450    0.14980    1.000
    H19      H        0.99540    0.61140    0.06020    1.000
    H20      H        0.91290    0.73800    0.09130    1.000
    H21      H        0.69240    0.48450    0.93910    1.000
    H22      H        0.62350    0.62140    0.96230    1.000
    H23      H        0.82560    0.75420    0.86050    1.000
    H24      H        0.88000    0.61200    0.83120    1.000
    C1       C        0.90090    0.17330    0.33780    1.000
    C2       C        0.94100    0.05170    0.29790    1.000
    C3       C        0.86620    0.92030    0.33270    1.000
    C4       C        0.75160    0.91490    0.40600    1.000
    C5       C        0.72220    0.04530    0.44480    1.000
    C6       C        0.66210    0.77430    0.44290    1.000
    C7       C        0.01370    0.41970    0.70630    1.000
    C8       C        0.16570    0.44280    0.82440    1.000
    C9       C        0.11430    0.36560    0.92870    1.000
    C10      C        0.27130    0.41100    0.04660    1.000
    C11      C        0.21910    0.34990    0.15600    1.000
    C12      C        0.38050    0.38680    0.27050    1.000
    C13      C        0.09910    0.82670    0.66220    1.000
    C14      C        0.05900    0.94830    0.70210    1.000
    C15      C        0.13380    0.07970    0.66730    1.000
    C16      C        0.24840    0.08510    0.59400    1.000
    C17      C        0.27780    0.95470    0.55520    1.000
    C18      C        0.33790    0.22570    0.55710    1.000
    C19      C        0.98630    0.58030    0.29370    1.000
    C20      C        0.83430    0.55720    0.17560    1.000
    C21      C        0.88570    0.63440    0.07130    1.000
    C22      C        0.72870    0.58900    0.95340    1.000
    C23      C        0.78090    0.65010    0.84400    1.000
    C24      C        0.61950    0.61320    0.72950    1.000
    N1       N        0.79500    0.17280    0.41200    1.000
    N2       N        0.20500    0.82720    0.58800    1.000
    O1       O        0.04070    0.50270    0.62320    1.000
    O2       O        0.86500    0.32760    0.68650    1.000
    O3       O        0.36810    0.45200    0.36480    1.000
    O4       O        0.52460    0.35120    0.26950    1.000
    O5       O        0.52670    0.77050    0.48310    1.000
    O6       O        0.72890    0.66870    0.42920    1.000
    O7       O        0.95930    0.49730    0.37680    1.000
    O8       O        0.13500    0.67240    0.31350    1.000
    O9       O        0.63190    0.54800    0.63520    1.000
    O10      O        0.47540    0.64880    0.73050    1.000
    O11      O        0.47330    0.22950    0.51690    1.000
    O12      O        0.27110    0.33130    0.57080    1.000
