# CIF file generated by openbabel 3.1.0, see https://openbabel.org
data_I
_chemical_name_common 'image0'
_cell_length_a 8.6591
_cell_length_b 32.508
_cell_length_c 9.979
_cell_angle_alpha 90
_cell_angle_beta 97.77
_cell_angle_gamma 90
_space_group_name_H-M_alt 'P 1'
_space_group_name_Hall 'P 1'
loop_
    _symmetry_equiv_pos_as_xyz
    x,y,z
loop_
    _atom_site_label
    _atom_site_type_symbol
    _atom_site_fract_x
    _atom_site_fract_y
    _atom_site_fract_z
    _atom_site_occupancy
    U1       U        0.30893    0.19125    0.27111    1.000
    U2       U        0.16598    0.95945    0.76976    1.000
    O1       O        0.36400    0.11330    0.29600    1.000
    O2       O        0.22830    0.15220    0.06690    1.000
    O3       O        0.47110    0.17975    0.49250    1.000
    O4       O        0.71000    0.20277    0.69240    1.000
    O5       O        0.64070    0.12920    0.46900    1.000
    H1       H        0.64490    0.14170    0.39820    1.000
    O6       O        0.71280    0.20490    0.91640    1.000
    O7       O        0.99850    0.18215    0.04750    1.000
    O8       O        0.30120    0.01840    0.89170    1.000
    O9       O        0.28350    0.01940    0.67130    1.000
    O10      O        0.96500    0.09331    0.38550    1.000
    O11      O        0.84900    0.04344    0.48080    1.000
    O12      O        0.94280    0.09650    0.10470    1.000
    O13      O        0.83370    0.04560    0.98170    1.000
    C1       C        0.57850    0.15000    0.79670    1.000
    C2       C        0.52820    0.13070    0.66930    1.000
    C3       C        0.44500    0.09380    0.67080    1.000
    H2       H        0.41070    0.08070    0.58940    1.000
    C4       C        0.41320    0.07680    0.78860    1.000
    C5       C        0.46050    0.09490    0.91380    1.000
    H3       H        0.43770    0.08280    0.99340    1.000
    C6       C        0.54390    0.13190    0.91530    1.000
    H4       H        0.57680    0.14470    0.99760    1.000
    C7       C        0.67440    0.18900    0.80200    1.000
    C8       C        0.55580    0.14710    0.53500    1.000
    C9       C        0.33000    0.03640    0.78560    1.000
    C10      C        0.04680    0.13500    0.87740    1.000
    C11      C        0.95670    0.09830    0.86560    1.000
    C12      C        0.91990    0.08020    0.74120    1.000
    H5       H        0.86090    0.05620    0.73370    1.000
    C13      C        0.96880    0.09690    0.62650    1.000
    C14      C        0.05750    0.13240    0.63780    1.000
    H6       H        0.09120    0.14380    0.56120    1.000
    C15      C        0.09610    0.15110    0.76150    1.000
    H7       H        0.15630    0.17490    0.76760    1.000
    C16      C        0.09510    0.15730    0.00560    1.000
    C17      C        0.90760    0.07970    0.99060    1.000
    C18      C        0.92580    0.07690    0.49010    1.000
    O14      O        0.72550    0.88400    0.66900    1.000
    U3       U        0.69107    0.69125    0.72889    1.000
    U4       U        0.83402    0.45945    0.23024    1.000
    O15      O        0.63600    0.61330    0.70400    1.000
    O16      O        0.77170    0.65220    0.93310    1.000
    O17      O        0.52890    0.67975    0.50750    1.000
    O18      O        0.29000    0.70277    0.30760    1.000
    O19      O        0.35930    0.62920    0.53100    1.000
    H8       H        0.35510    0.64170    0.60180    1.000
    O20      O        0.28720    0.70490    0.08360    1.000
    O21      O        0.00150    0.68215    0.95250    1.000
    O22      O        0.69880    0.51840    0.10830    1.000
    O23      O        0.71650    0.51940    0.32870    1.000
    O24      O        0.03500    0.59331    0.61450    1.000
    O25      O        0.15100    0.54344    0.51920    1.000
    O26      O        0.05720    0.59650    0.89530    1.000
    O27      O        0.16630    0.54560    0.01830    1.000
    C19      C        0.42150    0.65000    0.20330    1.000
    C20      C        0.47180    0.63070    0.33070    1.000
    C21      C        0.55500    0.59380    0.32920    1.000
    H9       H        0.58930    0.58070    0.41060    1.000
    C22      C        0.58680    0.57680    0.21140    1.000
    C23      C        0.53950    0.59490    0.08620    1.000
    H10      H        0.56230    0.58280    0.00660    1.000
    C24      C        0.45610    0.63190    0.08470    1.000
    H11      H        0.42320    0.64470    0.00240    1.000
    C25      C        0.32560    0.68900    0.19800    1.000
    C26      C        0.44420    0.64710    0.46500    1.000
    C27      C        0.67000    0.53640    0.21440    1.000
    C28      C        0.95320    0.63500    0.12260    1.000
    C29      C        0.04330    0.59830    0.13440    1.000
    C30      C        0.08010    0.58020    0.25880    1.000
    H12      H        0.13910    0.55620    0.26630    1.000
    C31      C        0.03120    0.59690    0.37350    1.000
    C32      C        0.94250    0.63240    0.36220    1.000
    H13      H        0.90880    0.64380    0.43880    1.000
    C33      C        0.90390    0.65110    0.23850    1.000
    H14      H        0.84370    0.67490    0.23240    1.000
    C34      C        0.90490    0.65730    0.99440    1.000
    C35      C        0.09240    0.57970    0.00940    1.000
    C36      C        0.07420    0.57690    0.50990    1.000
    O28      O        0.27450    0.38400    0.33100    1.000
    U5       U        0.69107    0.80875    0.72889    1.000
    U6       U        0.83402    0.04055    0.23024    1.000
    O29      O        0.63600    0.88670    0.70400    1.000
    O30      O        0.77170    0.84780    0.93310    1.000
    O31      O        0.52890    0.82025    0.50750    1.000
    O32      O        0.29000    0.79723    0.30760    1.000
    O33      O        0.35930    0.87080    0.53100    1.000
    H15      H        0.35510    0.85830    0.60180    1.000
    O34      O        0.28720    0.79510    0.08360    1.000
    O35      O        0.00150    0.81785    0.95250    1.000
    O36      O        0.69880    0.98160    0.10830    1.000
    O37      O        0.71650    0.98060    0.32870    1.000
    O38      O        0.03500    0.90669    0.61450    1.000
    O39      O        0.15100    0.95656    0.51920    1.000
    O40      O        0.05720    0.90350    0.89530    1.000
    O41      O        0.16630    0.95440    0.01830    1.000
    C37      C        0.42150    0.85000    0.20330    1.000
    C38      C        0.47180    0.86930    0.33070    1.000
    C39      C        0.55500    0.90620    0.32920    1.000
    H16      H        0.58930    0.91930    0.41060    1.000
    C40      C        0.58680    0.92320    0.21140    1.000
    C41      C        0.53950    0.90510    0.08620    1.000
    H17      H        0.56230    0.91720    0.00660    1.000
    C42      C        0.45610    0.86810    0.08470    1.000
    H18      H        0.42320    0.85530    0.00240    1.000
    C43      C        0.32560    0.81100    0.19800    1.000
    C44      C        0.44420    0.85290    0.46500    1.000
    C45      C        0.67000    0.96360    0.21440    1.000
    C46      C        0.95320    0.86500    0.12260    1.000
    C47      C        0.04330    0.90170    0.13440    1.000
    C48      C        0.08010    0.91980    0.25880    1.000
    H19      H        0.13910    0.94380    0.26630    1.000
    C49      C        0.03120    0.90310    0.37350    1.000
    C50      C        0.94250    0.86760    0.36220    1.000
    H20      H        0.90880    0.85620    0.43880    1.000
    C51      C        0.90390    0.84890    0.23850    1.000
    H21      H        0.84370    0.82510    0.23240    1.000
    C52      C        0.90490    0.84270    0.99440    1.000
    C53      C        0.09240    0.92030    0.00940    1.000
    C54      C        0.07420    0.92310    0.50990    1.000
    O42      O        0.27450    0.11600    0.33100    1.000
    U7       U        0.30893    0.30875    0.27111    1.000
    U8       U        0.16598    0.54055    0.76976    1.000
    O43      O        0.36400    0.38670    0.29600    1.000
    O44      O        0.22830    0.34780    0.06690    1.000
    O45      O        0.47110    0.32025    0.49250    1.000
    O46      O        0.71000    0.29723    0.69240    1.000
    O47      O        0.64070    0.37080    0.46900    1.000
    H22      H        0.64490    0.35830    0.39820    1.000
    O48      O        0.71280    0.29510    0.91640    1.000
    O49      O        0.99850    0.31785    0.04750    1.000
    O50      O        0.30120    0.48160    0.89170    1.000
    O51      O        0.28350    0.48060    0.67130    1.000
    O52      O        0.96500    0.40669    0.38550    1.000
    O53      O        0.84900    0.45656    0.48080    1.000
    O54      O        0.94280    0.40350    0.10470    1.000
    O55      O        0.83370    0.45440    0.98170    1.000
    C55      C        0.57850    0.35000    0.79670    1.000
    C56      C        0.52820    0.36930    0.66930    1.000
    C57      C        0.44500    0.40620    0.67080    1.000
    H23      H        0.41070    0.41930    0.58940    1.000
    C58      C        0.41320    0.42320    0.78860    1.000
    C59      C        0.46050    0.40510    0.91380    1.000
    H24      H        0.43770    0.41720    0.99340    1.000
    C60      C        0.54390    0.36810    0.91530    1.000
    H25      H        0.57680    0.35530    0.99760    1.000
    C61      C        0.67440    0.31100    0.80200    1.000
    C62      C        0.55580    0.35290    0.53500    1.000
    C63      C        0.33000    0.46360    0.78560    1.000
    C64      C        0.04680    0.36500    0.87740    1.000
    C65      C        0.95670    0.40170    0.86560    1.000
    C66      C        0.91990    0.41980    0.74120    1.000
    H26      H        0.86090    0.44380    0.73370    1.000
    C67      C        0.96880    0.40310    0.62650    1.000
    C68      C        0.05750    0.36760    0.63780    1.000
    H27      H        0.09120    0.35620    0.56120    1.000
    C69      C        0.09610    0.34890    0.76150    1.000
    H28      H        0.15630    0.32510    0.76760    1.000
    C70      C        0.09510    0.34270    0.00560    1.000
    C71      C        0.90760    0.42030    0.99060    1.000
    C72      C        0.92580    0.42310    0.49010    1.000
    O56      O        0.72550    0.61600    0.66900    1.000
    U9       U        0.55903    0.25000    0.55500    1.000
    U10      U        0.92605    0.25000    0.00418    1.000
    O57      O        0.37060    0.25000    0.37670    1.000
    O58      O        0.20200    0.25000    0.12930    1.000
    U11      U        0.44097    0.75000    0.44500    1.000
    U12      U        0.07395    0.75000    0.99582    1.000
    O59      O        0.62940    0.75000    0.62330    1.000
    O60      O        0.79800    0.75000    0.87070    1.000
