data_functionalizedCrystal
_audit_creation_method	'EQeq! by Chris Wilmer'
_symmetry_space_group_name_H-M	'P1'
_symmetry_Int_Tables_number	1
_symmetry_cell_setting	triclinic
loop_
_symmetry_equiv_pos_as_xyz
  x,y,z
_cell_length_a	12.6417
_cell_length_b	16.3072
_cell_length_c	13.2331
_cell_angle_alpha	90
_cell_angle_beta	116.079
_cell_angle_gamma	90
loop_
_atom_site_label
_atom_site_type_symbol
_atom_site_fract_x
_atom_site_fract_y
_atom_site_fract_z
_atom_site_charge
Mof_C 	C 	0.4833	0.7329	0.427	0.395
Mof_C 	C 	0.4755	0.6573	0.4906	-0.377
Mof_H 	H 	0.5315	0.6162	0.4918	0.15
Mof_H 	H 	0.397	0.6339	0.4542	0.168
Mof_C 	C 	0.5033	0.6836	0.6104	0.034
Mof_H 	H 	0.5854	0.6998	0.6484	0.038
Mof_H 	H 	0.456	0.7313	0.6069	0.03
Mof_C 	C 	0.5548	0.5408	0.6911	0.336
Mof_C 	C 	0.4395	0.6076	0.8449	-0.066
Mof_C 	C 	0.4745	0.6299	0.9563	-0.806
Mof_C 	C 	0.4084	0.6012	0.0097	-0
Mof_H 	H 	0.342	0.5691	0.9702	0.149
Mof_C 	C 	0.4415	0.6205	0.1218	-0.844
Mof_H 	H 	0.3973	0.6013	0.1575	0.283
Mof_C 	C 	0.5407	0.6685	0.1807	0.157
Mof_H 	H 	0.5628	0.6814	0.2558	-0.165
Mof_C 	C 	0.6068	0.6971	0.1274	-1.172
Mof_H 	H 	0.6731	0.7292	0.1668	0.253
Mof_C 	C 	0.5737	0.6779	0.0152	0.338
Mof_H 	H 	0.6179	0.697	0.9796	-0.512
Mof_C 	C 	0.3306	0.8169	0.1061	0.119
Mof_H 	H 	0.2766	0.7895	0.1241	-0.014
Mof_C 	C 	0.3214	0.8084	0.9991	-0.191
Mof_H 	H 	0.2602	0.7779	0.9456	0.102
Mof_C 	C 	0.4041	0.8456	0.9718	0.156
Mof_C 	C 	0.4904	0.892	0.055	-0.202
Mof_H 	H 	0.5474	0.9182	0.0401	0.113
Mof_C 	C 	0.4926	0.8997	0.1582	0.123
Mof_H 	H 	0.551	0.9318	0.2121	0.005
Mof_C 	C 	0.4042	0.8371	0.8581	-0.156
Mof_H 	H 	0.4808	0.8174	0.8688	0.071
Mof_H 	H 	0.3463	0.7963	0.8146	0.078
Mof_C 	C 	0.3785	0.9127	0.7951	-0.182
Mof_H 	H 	0.433	0.9546	0.841	0.087
Mof_H 	H 	0.2997	0.9303	0.78	0.088
Mof_C 	C 	0.3867	0.9064	0.6838	0.155
Mof_C 	C 	0.2981	0.8695	0.5922	-0.2
Mof_H 	H 	0.2334	0.8473	0.5983	0.104
Mof_C 	C 	0.3052	0.8655	0.4912	0.114
Mof_H 	H 	0.2447	0.8399	0.4305	-0.001
Mof_C 	C 	0.481	0.934	0.5655	0.112
Mof_H 	H 	0.544	0.957	0.557	0.002
Mof_C 	C 	0.4797	0.9396	0.6697	-0.2
Mof_H 	H 	0.541	0.9655	0.7294	0.101
Mof_C 	C 	0.4809	0.6177	0.6798	-0.062
Mof_H 	H 	0.3982	0.6014	0.6379	0.035
Mof_C 	C 	0.4817	0.6268	0.8712	0.742
Mof_C 	C 	0.5284	0.6475	0.9878	-0.01
Mof_C 	C 	0.6239	0.7007	0.034	0.463
Mof_H 	H 	0.6603	0.7192	0.9906	0.178
Mof_C 	C 	0.6649	0.7262	0.1451	0.124
Mof_H 	H 	0.7288	0.7618	0.176	-0.121
Mof_C 	C 	0.6105	0.6986	0.21	0.737
Mof_H 	H 	0.638	0.7156	0.2843	-0.209
Mof_C 	C 	0.5151	0.6454	0.1638	-0.151
Mof_H 	H 	0.4787	0.6269	0.2072	0.234
Mof_C 	C 	0.4741	0.6199	0.0527	1.02
Mof_H 	H 	0.4102	0.5843	0.0218	-0.226
Mof_H 	H 	0.3969	0.6043	0.6487	0.027
Mof_Cu	Cu	0.41382	0.8763	0.33575	0.914
Mof_N 	N 	0.4955	0.6459	0.789	-0.126
Mof_H 	H 	0.5401	0.6874	0.8196	0.176
Mof_N 	N 	0.396	0.8971	0.477	-0.227
Mof_N 	N 	0.4133	0.8626	0.1855	-0.232
Mof_N 	N 	0.525	0.6495	0.7955	-0.209
Mof_H 	H 	0.5815	0.6846	0.8175	-0.007
Mof_O 	O 	0.4981	0.4782	0.6373	-0.4
Mof_O 	O 	0.663	0.5438	0.752	-0.365
Mof_O 	O 	0.3866	0.7599	0.3509	-0.405
Mof_O 	O 	0.5788	0.7673	0.4553	-0.323
Mof_O 	O 	0.3538	0.5568	0.7884	0.204
Mof_O 	O 	0.3921	0.5775	0.83	-0.442
Mof_C 	C 	0.5167	0.2329	0.573	0.39
Mof_C 	C 	0.5245	0.1573	0.5094	-0.365
Mof_H 	H 	0.4685	0.1162	0.5082	0.139
Mof_H 	H 	0.603	0.1339	0.5458	0.159
Mof_C 	C 	0.4967	0.1836	0.3896	0.019
Mof_H 	H 	0.4146	0.1998	0.3516	0.042
Mof_H 	H 	0.544	0.2313	0.3931	0.034
Mof_C 	C 	0.4452	0.0408	0.3089	0.292
Mof_C 	C 	0.5605	0.1076	0.1551	-0.058
Mof_C 	C 	0.5255	0.1299	0.0437	-0.812
Mof_C 	C 	0.5916	0.1012	0.9903	-0.008
Mof_H 	H 	0.658	0.0691	0.0298	0.138
Mof_C 	C 	0.5585	0.1205	0.8782	-0.838
Mof_H 	H 	0.6027	0.1013	0.8425	0.276
Mof_C 	C 	0.4593	0.1685	0.8193	0.154
Mof_H 	H 	0.4372	0.1814	0.7442	-0.162
Mof_C 	C 	0.3932	0.1971	0.8726	-1.146
Mof_H 	H 	0.3269	0.2292	0.8332	0.249
Mof_C 	C 	0.4263	0.1779	0.9848	0.337
Mof_H 	H 	0.3821	0.197	0.0204	-0.501
Mof_C 	C 	0.6694	0.3169	0.8939	0.124
Mof_H 	H 	0.7234	0.2895	0.8759	-0.016
Mof_C 	C 	0.6786	0.3084	0.0009	-0.2
Mof_H 	H 	0.7398	0.2779	0.0544	0.104
Mof_C 	C 	0.5959	0.3456	0.0282	0.155
Mof_C 	C 	0.5096	0.392	0.945	-0.202
Mof_H 	H 	0.4526	0.4182	0.9599	0.107
Mof_C 	C 	0.5074	0.3997	0.8418	0.119
Mof_H 	H 	0.449	0.4318	0.7879	-0.003
Mof_C 	C 	0.5958	0.3371	0.1419	-0.169
Mof_H 	H 	0.5192	0.3174	0.1312	0.073
Mof_H 	H 	0.6537	0.2963	0.1854	0.082
Mof_C 	C 	0.6215	0.4127	0.2049	-0.163
Mof_H 	H 	0.567	0.4546	0.159	0.072
Mof_H 	H 	0.7003	0.4303	0.22	0.075
Mof_C 	C 	0.6133	0.4064	0.3162	0.139
Mof_C 	C 	0.7019	0.3695	0.4078	-0.193
Mof_H 	H 	0.7666	0.3473	0.4017	0.1
Mof_C 	C 	0.6948	0.3655	0.5088	0.106
Mof_H 	H 	0.7553	0.3399	0.5695	0.001
Mof_C 	C 	0.519	0.434	0.4345	0.102
Mof_H 	H 	0.456	0.457	0.443	-0.003
Mof_C 	C 	0.5203	0.4396	0.3303	-0.195
Mof_H 	H 	0.459	0.4655	0.2706	0.089
Mof_C 	C 	0.5191	0.1177	0.3202	-0.047
Mof_H 	H 	0.6018	0.1014	0.3621	0.031
Mof_C 	C 	0.5183	0.1268	0.1288	0.72
Mof_C 	C 	0.4716	0.1475	0.0122	0.004
Mof_C 	C 	0.3761	0.2007	0.966	0.443
Mof_H 	H 	0.3397	0.2192	0.0094	0.175
Mof_C 	C 	0.3351	0.2262	0.8549	0.123
Mof_H 	H 	0.2712	0.2618	0.824	-0.12
Mof_C 	C 	0.3895	0.1986	0.79	0.711
Mof_H 	H 	0.362	0.2156	0.7157	-0.202
Mof_C 	C 	0.4849	0.1454	0.8362	-0.144
Mof_H 	H 	0.5213	0.1269	0.7928	0.226
Mof_C 	C 	0.5259	0.1199	0.9473	1.002
Mof_H 	H 	0.5898	0.0843	0.9782	-0.213
Mof_H 	H 	0.6031	0.1043	0.3513	0.023
Mof_Cu	Cu	0.58618	0.3763	0.66425	0.912
Mof_N 	N 	0.5045	0.1459	0.211	-0.128
Mof_H 	H 	0.4599	0.1874	0.1804	0.181
Mof_N 	N 	0.604	0.3971	0.523	-0.227
Mof_N 	N 	0.5867	0.3626	0.8145	-0.235
Mof_N 	N 	0.475	0.1495	0.2045	-0.207
Mof_H 	H 	0.4185	0.1846	0.1825	-0.013
Mof_O 	O 	0.5019	0.9782	0.3627	-0.364
Mof_O 	O 	0.337	0.0438	0.248	-0.364
Mof_O 	O 	0.6134	0.2599	0.6491	-0.405
Mof_O 	O 	0.4212	0.2673	0.5447	-0.323
Mof_O 	O 	0.6462	0.0568	0.2116	0.172
Mof_O 	O 	0.6079	0.0775	0.17	-0.419
Mof_C 	C 	0.9928	0.1275	0.0526	0.408
Mof_C 	C 	0.9473	0.2003	0.9755	-0.39
Mof_H 	H 	0.9781	0.2503	0.0182	0.155
Mof_H 	H 	0.8621	0.202	0.9444	0.157
Mof_C 	C 	0.9843	0.1959	0.8784	0.073
Mof_H 	H 	0.0671	0.21	0.9072	0.017
Mof_H 	H 	0.9744	0.1402	0.8501	0.021
Mof_C 	C 	0.9109	0.2546	0.7807	-0.117
Mof_H 	H 	0.8278	0.2387	0.7499	0.097
Mof_C 	C 	0.9232	0.3447	0.8198	0.329
Mof_C 	C 	0.8985	0.199	0.6036	0.206
Mof_C 	C 	0.9271	0.2108	0.5056	-0.058
Mof_C 	C 	0.0129	0.2657	0.5073	-0.02
Mof_H 	H 	0.0567	0.2964	0.5715	0.029
Mof_C 	C 	0.0319	0.2738	0.4124	-0.071
Mof_H 	H 	0.0894	0.3098	0.4133	0.056
Mof_C 	C 	0.9661	0.2291	0.3161	-0.003
Mof_H 	H 	0.9798	0.2351	0.253	0.033
Mof_C 	C 	0.8821	0.1766	0.3134	-0.074
Mof_H 	H 	0.8373	0.1474	0.248	0.066
Mof_C 	C 	0.8625	0.1661	0.4079	-0.01
Mof_H 	H 	0.8058	0.1289	0.406	0.044
Mof_C 	C 	0.7977	0.5842	0.6137	0.108
Mof_H 	H 	0.7465	0.6147	0.6322	0.001
Mof_C 	C 	0.7941	0.5946	0.5097	-0.194
Mof_H 	H 	0.7411	0.6315	0.4592	0.107
Mof_C 	C 	0.8694	0.55	0.4791	0.144
Mof_C 	C 	0.9503	0.4993	0.5593	-0.185
Mof_H 	H 	0.0046	0.4701	0.5436	0.092
Mof_C 	C 	0.9499	0.4923	0.6636	0.111
Mof_H 	H 	0.0061	0.4588	0.7173	-0.007
Mof_C 	C 	0.8557	0.5564	0.3591	-0.157
Mof_H 	H 	0.7732	0.5493	0.3075	0.065
Mof_H 	H 	0.8784	0.6112	0.3477	0.076
Mof_C 	C 	0.9275	0.4947	0.3298	-0.181
Mof_H 	H 	0.0104	0.5071	0.3742	0.089
Mof_H 	H 	0.9133	0.4406	0.3517	0.08
Mof_C 	C 	0.9027	0.492	0.2073	0.144
Mof_C 	C 	0.8091	0.5318	0.123	-0.192
Mof_H 	H 	0.7567	0.5621	0.14	0.087
Mof_C 	C 	0.7938	0.5264	0.014	0.098
Mof_H 	H 	0.7294	0.5531	0.9585	0.001
Mof_C 	C 	0.9556	0.4445	0.0644	0.098
Mof_H 	H 	0.0064	0.4143	0.0449	0.002
Mof_C 	C 	0.9755	0.4456	0.1746	-0.188
Mof_H 	H 	0.0375	0.4155	0.2278	0.096
Mof_Cu	Cu	0.86076	0.50545	0.83164	0.918
Mof_N 	N 	0.9478	0.252	0.6912	-0.194
Mof_H 	H 	0.0021	0.2849	0.6937	0.119
Mof_N 	N 	0.8729	0.5312	0.6912	-0.229
Mof_N 	N 	0.866	0.485	0.9825	-0.221
Mof_O 	O 	0.8277	0.1462	0.6007	-0.237
Mof_O 	O 	0.8279	0.3873	0.785	-0.421
Mof_O 	O 	0.0228	0.3716	0.8774	-0.3
Mof_O 	O 	0.1014	0.1223	0.1155	-0.394
Mof_O 	O 	0.9232	0.0736	0.0503	-0.336
Mof_C 	C 	0.0072	0.6275	0.9474	0.402
Mof_C 	C 	0.0527	0.7003	0.0245	-0.387
Mof_H 	H 	0.0219	0.7503	0.9818	0.155
Mof_H 	H 	0.1379	0.702	0.0556	0.156
Mof_C 	C 	0.0157	0.6959	0.1216	0.057
Mof_H 	H 	0.9329	0.71	0.0928	0.025
Mof_H 	H 	0.0256	0.6402	0.1499	0.029
Mof_C 	C 	0.0891	0.7546	0.2193	-0.109
Mof_H 	H 	0.1722	0.7387	0.2501	0.096
Mof_C 	C 	0.0768	0.8447	0.1802	0.318
Mof_C 	C 	0.1015	0.699	0.3964	0.207
Mof_C 	C 	0.0729	0.7108	0.4944	-0.062
Mof_C 	C 	0.9871	0.7657	0.4927	-0.016
Mof_H 	H 	0.9433	0.7964	0.4285	0.03
Mof_C 	C 	0.9681	0.7738	0.5876	-0.061
Mof_H 	H 	0.9106	0.8098	0.5867	0.057
Mof_C 	C 	0.0339	0.7291	0.6839	-0.014
Mof_H 	H 	0.0202	0.7351	0.747	0.036
Mof_C 	C 	0.1179	0.6766	0.6866	-0.067
Mof_H 	H 	0.1627	0.6474	0.752	0.066
Mof_C 	C 	0.1375	0.6661	0.5921	-0.011
Mof_H 	H 	0.1942	0.6289	0.594	0.047
Mof_C 	C 	0.2023	0.0842	0.3863	0.1
Mof_H 	H 	0.2535	0.1147	0.3678	0.001
Mof_C 	C 	0.2059	0.0946	0.4903	-0.197
Mof_H 	H 	0.2589	0.1315	0.5408	0.105
Mof_C 	C 	0.1306	0.05	0.5209	0.126
Mof_C 	C 	0.0497	0.9993	0.4407	-0.159
Mof_H 	H 	0.9954	0.9701	0.4564	0.097
Mof_C 	C 	0.0501	0.9923	0.3364	0.134
Mof_H 	H 	0.9939	0.9588	0.2827	-0.004
Mof_C 	C 	0.1443	0.0564	0.6409	-0.231
Mof_H 	H 	0.2268	0.0493	0.6925	0.076
Mof_H 	H 	0.1216	0.1112	0.6523	0.094
Mof_C 	C 	0.0725	0.9947	0.6702	-0.065
Mof_H 	H 	0.9896	0.0071	0.6258	0.033
Mof_H 	H 	0.0867	0.9406	0.6483	0.05
Mof_C 	C 	0.0973	0.992	0.7927	0.156
Mof_C 	C 	0.1909	0.0318	0.877	-0.223
Mof_H 	H 	0.2433	0.0621	0.86	0.09
Mof_C 	C 	0.2062	0.0264	0.986	0.079
Mof_H 	H 	0.2706	0.0531	0.0415	0
Mof_C 	C 	0.0444	0.9445	0.9356	0.103
Mof_H 	H 	0.9936	0.9143	0.9551	0.009
Mof_C 	C 	0.0245	0.9456	0.8254	-0.187
Mof_H 	H 	0.9625	0.9155	0.7722	0.103
Mof_Cu	Cu	0.13924	0.00545	0.16836	0.903
Mof_N 	N 	0.0522	0.752	0.3088	-0.2
Mof_H 	H 	0.9979	0.7849	0.3063	0.125
Mof_N 	N 	0.1271	0.0312	0.3088	-0.248
Mof_N 	N 	0.134	0.985	0.0175	-0.201
Mof_O 	O 	0.1723	0.6462	0.3993	-0.233
Mof_O 	O 	0.1721	0.8873	0.215	-0.409
Mof_O 	O 	0.9772	0.8716	0.1226	-0.288
Mof_O 	O 	0.8986	0.6223	0.8845	-0.385
Mof_O 	O 	0.0768	0.5736	0.9497	-0.323
_end
