data_functionalizedCrystal
_audit_creation_method	'EQeq! by Chris Wilmer'
_symmetry_space_group_name_H-M	'P1'
_symmetry_Int_Tables_number	1
_symmetry_cell_setting	triclinic
loop_
_symmetry_equiv_pos_as_xyz
  x,y,z
_cell_length_a	14.628
_cell_length_b	16.472
_cell_length_c	21.029
_cell_angle_alpha	97.01
_cell_angle_beta	90
_cell_angle_gamma	90
loop_
_atom_site_label
_atom_site_type_symbol
_atom_site_fract_x
_atom_site_fract_y
_atom_site_fract_z
_atom_site_charge
Mof_Zn	Zn	0.00738	0.0558	0.0727	1.24
Mof_Zn	Zn	0.99262	0.9442	0.9273	1.24
Mof_Zn	Zn	0.3584	0.79414	0.45483	1.243
Mof_Zn	Zn	0.5467	0.74732	0.3849	1.235
Mof_Zn	Zn	0.1416	0.79414	0.95483	1.243
Mof_Zn	Zn	0.49262	0.0558	0.5727	1.244
Mof_Zn	Zn	0.0467	0.25268	0.1151	1.232
Mof_Zn	Zn	0.4533	0.25268	0.6151	1.235
Mof_Zn	Zn	0.50738	0.9442	0.4273	1.245
Mof_Zn	Zn	0.9533	0.74732	0.8849	1.233
Mof_Zn	Zn	0.8584	0.20586	0.04517	1.244
Mof_Zn	Zn	0.6416	0.20586	0.54517	1.244
Mof_Si	Si	0.99765	0.21343	0.86889	1.298
Mof_Si	Si	0.49765	0.78657	0.63111	1.301
Mof_Si	Si	0.00235	0.78657	0.13111	1.298
Mof_Si	Si	0.50235	0.21343	0.36889	1.301
Mof_H 	H 	0.809	0.0129	0.7942	0.098
Mof_H 	H 	0.5613	0.2339	0.8013	0.095
Mof_H 	H 	0.9387	0.2339	0.3013	0.097
Mof_H 	H 	0.3046	0.7925	0.7893	0.141
Mof_H 	H 	0.6703	0.44	0.4951	0.095
Mof_H 	H 	0.2962	0.954	0.2819	0.023
Mof_H 	H 	0.2087	0.0104	0.032	-0.116
Mof_H 	H 	0.7038	0.046	0.7181	0.023
Mof_H 	H 	0.5099	0.4797	0.3647	0.13
Mof_H 	H 	0.9901	0.4797	0.8647	0.123
Mof_H 	H 	0.2038	0.954	0.7819	0.024
Mof_H 	H 	0.7913	0.9896	0.968	-0.116
Mof_H 	H 	0.191	0.9871	0.2058	0.098
Mof_H 	H 	0.691	0.0129	0.2942	0.094
Mof_H 	H 	0.6343	0.2295	0.8993	0.018
Mof_H 	H 	0.2806	0.2215	0.2299	0.135
Mof_H 	H 	0.7806	0.7785	0.2701	0.134
Mof_H 	H 	0.5134	0.8291	0.4855	0.323
Mof_H 	H 	0.7087	0.9896	0.468	-0.114
Mof_H 	H 	0.8657	0.2295	0.3993	0.019
Mof_H 	H 	0.0613	0.7661	0.6987	0.097
Mof_H 	H 	0.4387	0.7661	0.1987	0.095
Mof_H 	H 	0.3125	0.4281	0.5299	0.016
Mof_H 	H 	0.8297	0.44	0.9951	0.088
Mof_H 	H 	0.7194	0.7785	0.7701	0.135
Mof_H 	H 	0.6954	0.2075	0.2107	0.141
Mof_H 	H 	0.2194	0.2215	0.7299	0.134
Mof_H 	H 	0.9866	0.8291	0.9855	0.309
Mof_H 	H 	0.1703	0.56	0.0049	0.088
Mof_H 	H 	0.0134	0.1709	0.0145	0.309
Mof_H 	H 	0.0099	0.5203	0.1353	0.123
Mof_H 	H 	0.3657	0.7705	0.1007	0.018
Mof_H 	H 	0.309	0.9871	0.7058	0.094
Mof_H 	H 	0.6875	0.5719	0.4701	0.016
Mof_H 	H 	0.4866	0.1709	0.5145	0.323
Mof_H 	H 	0.2913	0.0104	0.532	-0.114
Mof_H 	H 	0.1343	0.7705	0.6007	0.019
Mof_H 	H 	0.1875	0.4281	0.0299	0.011
Mof_H 	H 	0.1954	0.7925	0.2893	0.141
Mof_H 	H 	0.8125	0.5719	0.9701	0.011
Mof_H 	H 	0.3297	0.56	0.5049	0.095
Mof_H 	H 	0.7962	0.046	0.2181	0.024
Mof_H 	H 	0.4901	0.5203	0.6353	0.13
Mof_H 	H 	0.8046	0.2075	0.7107	0.141
Mof_C 	C 	0.8631	0.48352	0.01812	-0.112
Mof_C 	C 	0.21542	0.16702	0.74025	-0.202
Mof_C 	C 	0.14547	0.067	0.80094	-0.246
Mof_C 	C 	0.2692	0.02778	0.72622	-0.118
Mof_C 	C 	0.04183	0.38806	0.91218	0.314
Mof_C 	C 	0.64547	0.933	0.69906	-0.249
Mof_C 	C 	0.23611	0.7808	0.13546	-0.251
Mof_C 	C 	0.65014	0.85287	0.7152	0.33
Mof_C 	C 	0.68435	0.21042	0.30771	0.333
Mof_C 	C 	0.30751	0.78302	0.57264	0.427
Mof_C 	C 	0.0301	0.46894	0.89822	-0.186
Mof_C 	C 	0.2308	0.02778	0.22622	-0.126
Mof_C 	C 	0.15014	0.14713	0.7848	0.328
Mof_C 	C 	0.3696	0.77922	0.31673	0.342
Mof_C 	C 	0.84404	0.86858	0.83514	0.352
Mof_C 	C 	0.42047	0.04234	0.34828	0.447
Mof_C 	C 	0.89308	0.70931	0.01503	0.429
Mof_C 	C 	0.8526	0.56174	0.00379	0.115
Mof_C 	C 	0.60692	0.70931	0.51503	0.421
Mof_C 	C 	0.78458	0.83298	0.25975	-0.202
Mof_C 	C 	0.22977	0.78794	0.25073	-0.215
Mof_C 	C 	0.6772	0.22011	0.74673	0.041
Mof_C 	C 	0.6695	0.2259	0.86108	0.116
Mof_C 	C 	0.1258	0.7723	0.69706	-0.128
Mof_C 	C 	0.77023	0.21206	0.74927	-0.215
Mof_C 	C 	0.8228	0.22011	0.24673	0.043
Mof_C 	C 	0.22645	0.10807	0.2115	0.034
Mof_C 	C 	0.8307	0.0254	0.99406	0.499
Mof_C 	C 	0.85453	0.933	0.19906	-0.246
Mof_C 	C 	0.18435	0.78958	0.19229	0.332
Mof_C 	C 	0.794	0.99172	0.22888	0.105
Mof_C 	C 	0.206	0.00828	0.77112	0.105
Mof_C 	C 	0.4429	0.6206	0.42118	0.352
Mof_C 	C 	0.92047	0.95766	0.15172	0.443
Mof_C 	C 	0.76389	0.2192	0.86454	-0.251
Mof_C 	C 	0.77355	0.89193	0.7885	0.034
Mof_C 	C 	0.15596	0.13142	0.16486	0.352
Mof_C 	C 	0.3526	0.43826	0.49621	0.11
Mof_C 	C 	0.73611	0.2192	0.36454	-0.251
Mof_C 	C 	0.28458	0.16702	0.24025	-0.205
Mof_C 	C 	0.54183	0.61194	0.58782	0.314
Mof_C 	C 	0.27023	0.78794	0.75073	-0.215
Mof_C 	C 	0.95817	0.61194	0.08782	0.314
Mof_C 	C 	0.3742	0.7723	0.19706	-0.128
Mof_C 	C 	0.34986	0.14713	0.2848	0.33
Mof_C 	C 	0.5762	0.46756	0.56727	0.03
Mof_C 	C 	0.57953	0.95766	0.65172	0.447
Mof_C 	C 	0.07953	0.04234	0.84828	0.443
Mof_C 	C 	0.706	0.99172	0.72888	0.109
Mof_C 	C 	0.65596	0.86858	0.33514	0.354
Mof_C 	C 	0.72977	0.21206	0.24927	-0.215
Mof_C 	C 	0.69249	0.21698	0.42736	0.427
Mof_C 	C 	0.1304	0.77922	0.81673	0.341
Mof_C 	C 	0.1693	0.9746	0.00594	0.499
Mof_C 	C 	0.1695	0.7741	0.63892	0.117
Mof_C 	C 	0.10045	0.37341	0.9625	-0.243
Mof_C 	C 	0.8305	0.2259	0.36108	0.117
Mof_C 	C 	0.6258	0.2277	0.80294	-0.128
Mof_C 	C 	0.3228	0.77989	0.25327	0.041
Mof_C 	C 	0.6693	0.0254	0.49406	0.501
Mof_C 	C 	0.26389	0.7808	0.63546	-0.251
Mof_C 	C 	0.6369	0.48352	0.51812	-0.121
Mof_C 	C 	0.72645	0.89193	0.2885	0.031
Mof_C 	C 	0.84986	0.85287	0.2152	0.328
Mof_C 	C 	0.9238	0.46756	0.06727	0.023
Mof_C 	C 	0.10692	0.29069	0.98497	0.429
Mof_C 	C 	0.5301	0.53106	0.60178	-0.198
Mof_C 	C 	0.1772	0.77989	0.75327	0.043
Mof_C 	C 	0.19249	0.78302	0.07264	0.427
Mof_C 	C 	0.60045	0.62659	0.5375	-0.241
Mof_C 	C 	0.45817	0.38806	0.41218	0.314
Mof_C 	C 	0.80751	0.21698	0.92736	0.427
Mof_C 	C 	0.8696	0.22078	0.18327	0.341
Mof_C 	C 	0.35453	0.067	0.30094	-0.249
Mof_C 	C 	0.39308	0.29069	0.48497	0.421
Mof_C 	C 	0.0762	0.53244	0.93273	0.023
Mof_C 	C 	0.81565	0.21042	0.80771	0.332
Mof_C 	C 	0.1474	0.43826	0.99621	0.115
Mof_C 	C 	0.34404	0.13142	0.66486	0.354
Mof_C 	C 	0.71542	0.83298	0.75975	-0.205
Mof_C 	C 	0.7308	0.97222	0.27378	-0.118
Mof_C 	C 	0.6304	0.22078	0.68327	0.342
Mof_C 	C 	0.9699	0.53106	0.10178	-0.186
Mof_C 	C 	0.5571	0.3794	0.57882	0.352
Mof_C 	C 	0.3305	0.7741	0.13892	0.116
Mof_C 	C 	0.39955	0.37341	0.4625	-0.241
Mof_C 	C 	0.31565	0.78958	0.69229	0.333
Mof_C 	C 	0.7692	0.97222	0.77378	-0.126
Mof_C 	C 	0.4238	0.53244	0.43273	0.03
Mof_C 	C 	0.4699	0.46894	0.39822	-0.198
Mof_C 	C 	0.27355	0.10807	0.7115	0.031
Mof_C 	C 	0.9429	0.3794	0.07882	0.364
Mof_C 	C 	0.8742	0.2277	0.30294	-0.128
Mof_C 	C 	0.6474	0.56174	0.50379	0.11
Mof_C 	C 	0.3307	0.9746	0.50594	0.501
Mof_C 	C 	0.89955	0.62659	0.0375	-0.243
Mof_C 	C 	0.1369	0.51648	0.98188	-0.112
Mof_C 	C 	0.0571	0.6206	0.92118	0.364
Mof_C 	C 	0.294	0.00828	0.27112	0.109
Mof_C 	C 	0.3631	0.51648	0.48188	-0.121
Mof_O 	O 	0.81776	0.2155	0.13507	-0.44
Mof_O 	O 	0.99487	0.63321	0.8833	-0.459
Mof_O 	O 	0.35911	0.28345	0.53798	-0.401
Mof_O 	O 	0.98828	0.16792	0.05057	-0.876
Mof_O 	O 	0.85154	0.7935	0.84127	-0.449
Mof_O 	O 	0.18224	0.7845	0.86493	-0.44
Mof_O 	O 	0.1045	0.67333	0.95314	-0.451
Mof_O 	O 	0.51172	0.16792	0.55057	-0.893
Mof_O 	O 	0.14089	0.28345	0.03798	-0.407
Mof_O 	O 	0.01172	0.83208	0.94943	-0.876
Mof_O 	O 	0.98027	0.90655	0.12639	-0.455
Mof_O 	O 	0.64089	0.71655	0.46202	-0.401
Mof_O 	O 	0.79676	0.0863	0.02418	-0.432
Mof_O 	O 	0.35154	0.2065	0.65873	-0.448
Mof_O 	O 	0.68224	0.2155	0.63507	-0.441
Mof_O 	O 	0.5452	0.22781	0.684	-0.443
Mof_O 	O 	0.01973	0.09345	0.87361	-0.455
Mof_O 	O 	0.48027	0.09345	0.37361	-0.458
Mof_O 	O 	0.92601	0.77174	0.05114	-0.444
Mof_O 	O 	0.31776	0.7845	0.36493	-0.441
Mof_O 	O 	0.4548	0.77219	0.316	-0.443
Mof_O 	O 	0.99363	0.32865	0.87788	-0.412
Mof_O 	O 	0.76192	0.22865	0.97806	-0.41
Mof_O 	O 	0.91682	0.02919	0.13712	-0.452
Mof_O 	O 	0.42601	0.22826	0.44886	-0.446
Mof_O 	O 	0.50513	0.63321	0.3833	-0.451
Mof_O 	O 	0.00513	0.36679	0.1167	-0.459
Mof_O 	O 	0.08318	0.97081	0.86288	-0.452
Mof_O 	O 	0.08479	0.99327	0.00476	-0.593
Mof_O 	O 	0.41682	0.97081	0.36288	-0.457
Mof_O 	O 	0.09415	0.79765	0.19345	-0.419
Mof_O 	O 	0.39311	0.79977	0.56935	-0.49
Mof_O 	O 	0.57399	0.77174	0.55114	-0.446
Mof_O 	O 	0.61065	0.92605	0.36423	-0.45
Mof_O 	O 	0.49363	0.67135	0.62212	-0.409
Mof_O 	O 	0.89311	0.20023	0.93065	-0.49
Mof_O 	O 	0.91521	0.00673	0.99524	-0.593
Mof_O 	O 	0.6045	0.32667	0.54686	-0.45
Mof_O 	O 	0.23808	0.77135	0.02194	-0.41
Mof_O 	O 	0.0452	0.77219	0.816	-0.44
Mof_O 	O 	0.64846	0.7935	0.34127	-0.448
Mof_O 	O 	0.60689	0.20023	0.43065	-0.49
Mof_O 	O 	0.41521	0.99327	0.50476	-0.594
Mof_O 	O 	0.90463	0.79343	0.18868	-0.416
Mof_O 	O 	0.58479	0.00673	0.49524	-0.594
Mof_O 	O 	0.88935	0.92605	0.86423	-0.454
Mof_O 	O 	0.38935	0.07395	0.63577	-0.45
Mof_O 	O 	0.85911	0.71655	0.96202	-0.407
Mof_O 	O 	0.10689	0.79977	0.06935	-0.49
Mof_O 	O 	0.8955	0.32667	0.04686	-0.451
Mof_O 	O 	0.49487	0.36679	0.6167	-0.451
Mof_O 	O 	0.59415	0.20235	0.30655	-0.42
Mof_O 	O 	0.73808	0.22865	0.47806	-0.408
Mof_O 	O 	0.70324	0.0863	0.52418	-0.435
Mof_O 	O 	0.9548	0.22781	0.184	-0.44
Mof_O 	O 	0.00637	0.67135	0.12212	-0.412
Mof_O 	O 	0.58318	0.02919	0.63712	-0.457
Mof_O 	O 	0.51973	0.90655	0.62639	-0.458
Mof_O 	O 	0.20324	0.9137	0.97582	-0.432
Mof_O 	O 	0.3955	0.67333	0.45314	-0.45
Mof_O 	O 	0.14846	0.2065	0.15873	-0.449
Mof_O 	O 	0.90585	0.20235	0.80655	-0.419
Mof_O 	O 	0.11065	0.07395	0.13577	-0.454
Mof_O 	O 	0.48828	0.83208	0.44943	-0.893
Mof_O 	O 	0.29676	0.9137	0.47582	-0.435
Mof_O 	O 	0.40585	0.79765	0.69345	-0.42
Mof_O 	O 	0.59537	0.79343	0.68868	-0.418
Mof_O 	O 	0.07399	0.22826	0.94886	-0.444
Mof_O 	O 	0.26192	0.77135	0.52194	-0.408
Mof_O 	O 	0.50637	0.32865	0.37788	-0.409
Mof_O 	O 	0.09537	0.20657	0.81132	-0.416
Mof_O 	O 	0.40463	0.20657	0.31132	-0.418
_end
