data_functionalizedCrystal
_audit_creation_method	'EQeq! by Chris Wilmer'
_symmetry_space_group_name_H-M	'P1'
_symmetry_Int_Tables_number	1
_symmetry_cell_setting	triclinic
loop_
_symmetry_equiv_pos_as_xyz
  x,y,z
_cell_length_a	20.896
_cell_length_b	7.3872
_cell_length_c	31.834
_cell_angle_alpha	90
_cell_angle_beta	124.636
_cell_angle_gamma	90
loop_
_atom_site_label
_atom_site_type_symbol
_atom_site_fract_x
_atom_site_fract_y
_atom_site_fract_z
_atom_site_charge
Mof_Zn	Zn	0.67447	0.44651	0.65602	1.217
Mof_Zn	Zn	0.67786	0.81121	0.5905	1.2
Mof_F 	F 	0.0071	0.3079	0.5413	-0.383
Mof_F 	F 	0.0734	0.3858	0.6201	-0.47
Mof_F 	F 	0.1117	0.1666	0.5953	-0.417
Mof_F 	F 	0.9046	0.042	0.51253	-0.424
Mof_F 	F 	0.9337	0.8315	0.56682	-0.488
Mof_F 	F 	0.0119	0.8958	0.54556	-0.368
Mof_F 	F 	0.63	0.3975	0.8115	-0.483
Mof_F 	F 	0.5518	0.5879	0.80941	-0.511
Mof_F 	F 	0.6314	0.445	0.8782	-0.486
Mof_F 	F 	0.7703	0.5173	0.8423	-0.446
Mof_F 	F 	0.8223	0.7139	0.90236	-0.43
Mof_F 	F 	0.7815	0.4623	0.9126	-0.413
Mof_O 	O 	0.7369	0.5903	0.5934	-0.49
Mof_O 	O 	0.7261	0.3336	0.626	-0.509
Mof_O 	O 	0.2591	0.644	0.801	-0.507
Mof_O 	O 	0.2541	0.8923	0.839	-0.501
Mof_O 	O 	0.5725	0.1089	0.98094	-0.517
Mof_O 	O 	0.6976	0.0679	0.04441	-0.496
Mof_O 	O 	0.5856	0.1135	0.6468	-0.348
Mof_O 	O 	0.679	0.2893	0.7061	-0.44
Mof_N 	N 	0.5738	0.5483	0.5964	-0.225
Mof_N 	N 	0.5779	0.6957	0.574	-0.223
Mof_N 	N 	0.5071	0.7518	0.5368	-0.219
Mof_C 	C 	0.756	0.4306	0.6087	0.456
Mof_C 	C 	0.8186	0.3464	0.605	-0.281
Mof_C 	C 	0.8477	0.1776	0.6252	0.278
Mof_H 	H 	0.8275	0.1119	0.64	-0.049
Mof_C 	C 	0.9073	0.1061	0.6232	-0.408
Mof_H 	H 	0.9269	0.9922	0.6371	0.224
Mof_C 	C 	0.9383	0.2002	0.6011	0.444
Mof_C 	C 	0.9076	0.3695	0.5802	-0.374
Mof_H 	H 	0.927	0.4347	0.5648	0.295
Mof_C 	C 	0.848	0.4417	0.5823	0.271
Mof_H 	H 	0.8279	0.5552	0.5683	0.007
Mof_C 	C 	0.004	0.1085	0.5998	-0.546
Mof_C 	C 	0.0493	0.2431	0.5885	0.999
Mof_C 	C 	0.9641	0.9685	0.5559	1.002
Mof_C 	C 	0.0648	0.0201	0.6522	0.404
Mof_C 	C 	0.0946	0.8467	0.6577	-0.323
Mof_H 	H 	0.0771	0.7767	0.6288	0.293
Mof_C 	C 	0.1493	0.777	0.705	0.246
Mof_H 	H 	0.1686	0.6609	0.7078	0.03
Mof_C 	C 	0.1758	0.8783	0.7484	-0.24
Mof_C 	C 	0.1476	0.0507	0.7435	0.224
Mof_H 	H 	0.1659	0.1214	0.7724	-0.029
Mof_C 	C 	0.0923	0.1194	0.6959	-0.345
Mof_H 	H 	0.0731	0.2354	0.6933	0.194
Mof_C 	C 	0.2341	0.7998	0.8001	0.463
Mof_C 	C 	0.4982	0.5086	0.5722	0.007
Mof_H 	H 	0.4776	0.4116	0.5795	0.064
Mof_C 	C 	0.4565	0.6351	0.5349	0.03
Mof_H 	H 	0.4026	0.6396	0.5124	0.019
Mof_C 	C 	0.6412	0.0594	0.9979	0.441
Mof_C 	C 	0.657	0.9788	0.9616	-0.262
Mof_C 	C 	0.6019	0.9891	0.909	0.325
Mof_H 	H 	0.5567	0.0559	0.8961	-0.039
Mof_C 	C 	0.7243	0.8801	0.98	0.334
Mof_H 	H 	0.7628	0.877	0.0149	-0.032
Mof_C 	C 	0.7348	0.7855	0.9465	-0.372
Mof_H 	H 	0.7794	0.7164	0.9594	0.295
Mof_C 	C 	0.6798	0.7929	0.8945	0.459
Mof_C 	C 	0.6138	0.9022	0.8761	-0.369
Mof_H 	H 	0.5778	0.9154	0.8411	0.232
Mof_C 	C 	0.684	0.6801	0.8554	-0.536
Mof_C 	C 	0.6242	0.5254	0.8382	1.008
Mof_C 	C 	0.7655	0.5926	0.8787	0.975
Mof_C 	C 	0.6692	0.8	0.8109	0.397
Mof_C 	C 	0.6231	0.7478	0.7599	-0.327
Mof_H 	H 	0.5996	0.6344	0.7513	0.255
Mof_C 	C 	0.6118	0.8629	0.7217	0.249
Mof_H 	H 	0.5795	0.8268	0.6877	-0.024
Mof_C 	C 	0.6477	0.03	0.7333	-0.223
Mof_C 	C 	0.6954	0.0812	0.7841	0.199
Mof_H 	H 	0.7209	0.1922	0.7927	0.079
Mof_C 	C 	0.7055	0.9693	0.822	-0.248
Mof_H 	H 	0.7371	0.0072	0.8558	0.228
Mof_C 	C 	0.6358	0.1515	0.692	0.413
Mof_Zn	Zn	0.32553	0.44651	0.84398	1.218
Mof_Zn	Zn	0.32214	0.81121	0.9095	1.202
Mof_F 	F 	0.9929	0.3079	0.9587	-0.379
Mof_F 	F 	0.9266	0.3858	0.8799	-0.47
Mof_F 	F 	0.8883	0.1666	0.9047	-0.415
Mof_F 	F 	0.0954	0.042	0.98747	-0.417
Mof_F 	F 	0.0663	0.8315	0.93318	-0.486
Mof_F 	F 	0.9881	0.8958	0.95444	-0.365
Mof_F 	F 	0.37	0.3975	0.6885	-0.483
Mof_F 	F 	0.4482	0.5879	0.69059	-0.51
Mof_F 	F 	0.3686	0.445	0.6218	-0.487
Mof_F 	F 	0.2297	0.5173	0.6577	-0.446
Mof_F 	F 	0.1777	0.7139	0.59764	-0.432
Mof_F 	F 	0.2185	0.4623	0.5874	-0.415
Mof_O 	O 	0.2631	0.5903	0.9066	-0.488
Mof_O 	O 	0.2739	0.3336	0.874	-0.507
Mof_O 	O 	0.7409	0.644	0.699	-0.507
Mof_O 	O 	0.7459	0.8923	0.661	-0.501
Mof_O 	O 	0.4275	0.1089	0.51906	-0.516
Mof_O 	O 	0.3024	0.0679	0.45559	-0.476
Mof_O 	O 	0.4144	0.1135	0.8532	-0.347
Mof_O 	O 	0.321	0.2893	0.7939	-0.44
Mof_N 	N 	0.4262	0.5483	0.9036	-0.224
Mof_N 	N 	0.4221	0.6957	0.926	-0.221
Mof_N 	N 	0.4929	0.7518	0.9632	-0.215
Mof_C 	C 	0.244	0.4306	0.8913	0.457
Mof_C 	C 	0.1814	0.3464	0.895	-0.28
Mof_C 	C 	0.1523	0.1776	0.8748	0.278
Mof_H 	H 	0.1725	0.1119	0.86	-0.049
Mof_C 	C 	0.0927	0.1061	0.8768	-0.408
Mof_H 	H 	0.0731	0.9922	0.8629	0.224
Mof_C 	C 	0.0617	0.2002	0.8989	0.446
Mof_C 	C 	0.0924	0.3695	0.9198	-0.374
Mof_H 	H 	0.073	0.4347	0.9352	0.298
Mof_C 	C 	0.152	0.4417	0.9177	0.273
Mof_H 	H 	0.1721	0.5552	0.9317	0.01
Mof_C 	C 	0.996	0.1085	0.9002	-0.548
Mof_C 	C 	0.9507	0.2431	0.9115	0.999
Mof_C 	C 	0.0359	0.9685	0.9441	1.003
Mof_C 	C 	0.9352	0.0201	0.8478	0.404
Mof_C 	C 	0.9054	0.8467	0.8423	-0.323
Mof_H 	H 	0.9229	0.7767	0.8712	0.293
Mof_C 	C 	0.8507	0.777	0.795	0.246
Mof_H 	H 	0.8314	0.6609	0.7922	0.03
Mof_C 	C 	0.8242	0.8783	0.7516	-0.24
Mof_C 	C 	0.8524	0.0507	0.7565	0.224
Mof_H 	H 	0.8341	0.1214	0.7276	-0.029
Mof_C 	C 	0.9077	0.1194	0.8041	-0.346
Mof_H 	H 	0.9269	0.2354	0.8067	0.194
Mof_C 	C 	0.7659	0.7998	0.6999	0.464
Mof_C 	C 	0.5018	0.5086	0.9278	0.009
Mof_H 	H 	0.5224	0.4116	0.9205	0.065
Mof_C 	C 	0.5435	0.6351	0.9651	0.031
Mof_H 	H 	0.5974	0.6396	0.9876	0.024
Mof_C 	C 	0.3588	0.0594	0.5021	0.406
Mof_C 	C 	0.343	0.9788	0.5384	-0.228
Mof_C 	C 	0.3981	0.9891	0.591	0.297
Mof_H 	H 	0.4433	0.0559	0.6039	-0.03
Mof_C 	C 	0.2757	0.8801	0.52	0.269
Mof_H 	H 	0.2372	0.877	0.4851	0.001
Mof_C 	C 	0.2652	0.7855	0.5535	-0.334
Mof_H 	H 	0.2206	0.7164	0.5406	0.277
Mof_C 	C 	0.3202	0.7929	0.6055	0.437
Mof_C 	C 	0.3862	0.9022	0.6239	-0.346
Mof_H 	H 	0.4222	0.9154	0.6589	0.224
Mof_C 	C 	0.316	0.6801	0.6446	-0.529
Mof_C 	C 	0.3758	0.5254	0.6618	1.006
Mof_C 	C 	0.2345	0.5926	0.6213	0.973
Mof_C 	C 	0.3308	0.8	0.6891	0.393
Mof_C 	C 	0.3769	0.7478	0.7401	-0.324
Mof_H 	H 	0.4004	0.6344	0.7487	0.254
Mof_C 	C 	0.3882	0.8629	0.7783	0.246
Mof_H 	H 	0.4205	0.8268	0.8123	-0.023
Mof_C 	C 	0.3523	0.03	0.7667	-0.221
Mof_C 	C 	0.3046	0.0812	0.7159	0.195
Mof_H 	H 	0.2791	0.1922	0.7073	0.08
Mof_C 	C 	0.2945	0.9693	0.678	-0.244
Mof_H 	H 	0.2629	0.0072	0.6442	0.225
Mof_C 	C 	0.3642	0.1515	0.808	0.412
Mof_Zn	Zn	0.32553	0.55349	0.34398	1.219
Mof_Zn	Zn	0.32214	0.18879	0.4095	1.199
Mof_F 	F 	0.9929	0.6921	0.4587	-0.381
Mof_F 	F 	0.9266	0.6142	0.3799	-0.471
Mof_F 	F 	0.8883	0.8334	0.4047	-0.409
Mof_F 	F 	0.0954	0.958	0.48747	-0.397
Mof_F 	F 	0.0663	0.1685	0.43318	-0.489
Mof_F 	F 	0.9881	0.1042	0.45444	-0.373
Mof_F 	F 	0.37	0.6025	0.1885	-0.48
Mof_F 	F 	0.4482	0.4121	0.19059	-0.511
Mof_F 	F 	0.3686	0.555	0.1218	-0.484
Mof_F 	F 	0.2297	0.4827	0.1577	-0.446
Mof_F 	F 	0.1777	0.2861	0.09764	-0.439
Mof_F 	F 	0.2185	0.5377	0.0874	-0.414
Mof_O 	O 	0.2631	0.4097	0.4066	-0.488
Mof_O 	O 	0.2739	0.6664	0.374	-0.499
Mof_O 	O 	0.7409	0.356	0.199	-0.516
Mof_O 	O 	0.7459	0.1077	0.161	-0.526
Mof_O 	O 	0.4275	0.8911	0.01906	-0.507
Mof_O 	O 	0.3024	0.9321	0.95559	-0.449
Mof_O 	O 	0.4144	0.8865	0.3532	-0.338
Mof_O 	O 	0.321	0.7107	0.2939	-0.439
Mof_N 	N 	0.4262	0.4517	0.4036	-0.225
Mof_N 	N 	0.4221	0.3043	0.426	-0.225
Mof_N 	N 	0.4929	0.2482	0.4632	-0.225
Mof_C 	C 	0.244	0.5694	0.3913	0.443
Mof_C 	C 	0.1814	0.6536	0.395	-0.242
Mof_C 	C 	0.1523	0.8224	0.3748	0.212
Mof_H 	H 	0.1725	0.8881	0.36	-0.014
Mof_C 	C 	0.0927	0.8939	0.3768	-0.299
Mof_H 	H 	0.0731	0.0078	0.3629	0.162
Mof_C 	C 	0.0617	0.7998	0.3989	0.4
Mof_C 	C 	0.0924	0.6305	0.4198	-0.337
Mof_H 	H 	0.073	0.5653	0.4352	0.282
Mof_C 	C 	0.152	0.5583	0.4177	0.235
Mof_H 	H 	0.1721	0.4448	0.4317	0.018
Mof_C 	C 	0.996	0.8915	0.4002	-0.531
Mof_C 	C 	0.9507	0.7569	0.4115	0.997
Mof_C 	C 	0.0359	0.0315	0.4441	0.957
Mof_C 	C 	0.9352	0.9799	0.3478	0.496
Mof_C 	C 	0.9054	0.1533	0.3423	-0.442
Mof_H 	H 	0.9229	0.2233	0.3712	0.33
Mof_C 	C 	0.8507	0.223	0.295	0.342
Mof_H 	H 	0.8314	0.3391	0.2922	-0.004
Mof_C 	C 	0.8242	0.1217	0.2516	-0.348
Mof_C 	C 	0.8524	0.9493	0.2565	0.352
Mof_H 	H 	0.8341	0.8786	0.2276	-0.067
Mof_C 	C 	0.9077	0.8806	0.3041	-0.435
Mof_H 	H 	0.9269	0.7646	0.3067	0.225
Mof_C 	C 	0.7659	0.2002	0.1999	0.497
Mof_C 	C 	0.5018	0.4914	0.4278	0.007
Mof_H 	H 	0.5224	0.5884	0.4205	0.065
Mof_C 	C 	0.5435	0.3649	0.4651	0.028
Mof_H 	H 	0.5974	0.3604	0.4876	0.017
Mof_C 	C 	0.3588	0.9406	0.0021	0.4
Mof_C 	C 	0.343	0.0212	0.0384	-0.202
Mof_C 	C 	0.3981	0.0109	0.091	0.189
Mof_H 	H 	0.4433	0.9441	0.1039	0.031
Mof_C 	C 	0.2757	0.1199	0.02	0.199
Mof_H 	H 	0.2372	0.123	0.9851	0.029
Mof_C 	C 	0.2652	0.2145	0.0535	-0.29
Mof_H 	H 	0.2206	0.2836	0.0406	0.257
Mof_C 	C 	0.3202	0.2071	0.1055	0.4
Mof_C 	C 	0.3862	0.0978	0.1239	-0.284
Mof_H 	H 	0.4222	0.0846	0.1589	0.194
Mof_C 	C 	0.316	0.3199	0.1446	-0.536
Mof_C 	C 	0.3758	0.4746	0.1618	1.008
Mof_C 	C 	0.2345	0.4074	0.1213	0.975
Mof_C 	C 	0.3308	0.2	0.1891	0.446
Mof_C 	C 	0.3769	0.2522	0.2401	-0.351
Mof_H 	H 	0.4004	0.3656	0.2487	0.263
Mof_C 	C 	0.3882	0.1371	0.2783	0.237
Mof_H 	H 	0.4205	0.1732	0.3123	-0.027
Mof_C 	C 	0.3523	0.97	0.2667	-0.226
Mof_C 	C 	0.3046	0.9188	0.2159	0.31
Mof_H 	H 	0.2791	0.8078	0.2073	0.043
Mof_C 	C 	0.2945	0.0307	0.178	-0.404
Mof_H 	H 	0.2629	0.9928	0.1442	0.305
Mof_C 	C 	0.3642	0.8485	0.308	0.422
Mof_Zn	Zn	0.67447	0.55349	0.15602	1.218
Mof_Zn	Zn	0.67786	0.18879	0.0905	1.198
Mof_F 	F 	0.0071	0.6921	0.0413	-0.383
Mof_F 	F 	0.0734	0.6142	0.1201	-0.47
Mof_F 	F 	0.1117	0.8334	0.0953	-0.41
Mof_F 	F 	0.9046	0.958	0.01253	-0.403
Mof_F 	F 	0.9337	0.1685	0.06682	-0.491
Mof_F 	F 	0.0119	0.1042	0.04556	-0.374
Mof_F 	F 	0.63	0.6025	0.3115	-0.48
Mof_F 	F 	0.5518	0.4121	0.30941	-0.511
Mof_F 	F 	0.6314	0.555	0.3782	-0.483
Mof_F 	F 	0.7703	0.4827	0.3423	-0.446
Mof_F 	F 	0.8223	0.2861	0.40236	-0.437
Mof_F 	F 	0.7815	0.5377	0.4126	-0.413
Mof_O 	O 	0.7369	0.4097	0.0934	-0.49
Mof_O 	O 	0.7261	0.6664	0.126	-0.5
Mof_O 	O 	0.2591	0.356	0.301	-0.516
Mof_O 	O 	0.2541	0.1077	0.339	-0.525
Mof_O 	O 	0.5725	0.8911	0.48094	-0.51
Mof_O 	O 	0.6976	0.9321	0.54441	-0.467
Mof_O 	O 	0.5856	0.8865	0.1468	-0.339
Mof_O 	O 	0.679	0.7107	0.2061	-0.439
Mof_N 	N 	0.5738	0.4517	0.0964	-0.225
Mof_N 	N 	0.5779	0.3043	0.074	-0.227
Mof_N 	N 	0.5071	0.2482	0.0368	-0.228
Mof_C 	C 	0.756	0.5694	0.1087	0.441
Mof_C 	C 	0.8186	0.6536	0.105	-0.24
Mof_C 	C 	0.8477	0.8224	0.1252	0.208
Mof_H 	H 	0.8275	0.8881	0.14	-0.013
Mof_C 	C 	0.9073	0.8939	0.1232	-0.293
Mof_H 	H 	0.9269	0.0078	0.1371	0.158
Mof_C 	C 	0.9383	0.7998	0.1011	0.391
Mof_C 	C 	0.9076	0.6305	0.0802	-0.332
Mof_H 	H 	0.927	0.5653	0.0648	0.277
Mof_C 	C 	0.848	0.5583	0.0823	0.23
Mof_H 	H 	0.8279	0.4448	0.0683	0.016
Mof_C 	C 	0.004	0.8915	0.0998	-0.522
Mof_C 	C 	0.0493	0.7569	0.0885	0.995
Mof_C 	C 	0.9641	0.0315	0.0559	0.949
Mof_C 	C 	0.0648	0.9799	0.1522	0.494
Mof_C 	C 	0.0946	0.1533	0.1577	-0.439
Mof_H 	H 	0.0771	0.2233	0.1288	0.33
Mof_C 	C 	0.1493	0.223	0.205	0.341
Mof_H 	H 	0.1686	0.3391	0.2078	-0.003
Mof_C 	C 	0.1758	0.1217	0.2484	-0.347
Mof_C 	C 	0.1476	0.9493	0.2435	0.35
Mof_H 	H 	0.1659	0.8786	0.2724	-0.066
Mof_C 	C 	0.0923	0.8806	0.1959	-0.433
Mof_H 	H 	0.0731	0.7646	0.1933	0.225
Mof_C 	C 	0.2341	0.2002	0.3001	0.497
Mof_C 	C 	0.4982	0.4914	0.0722	0.005
Mof_H 	H 	0.4776	0.5884	0.0795	0.065
Mof_C 	C 	0.4565	0.3649	0.0349	0.027
Mof_H 	H 	0.4026	0.3604	0.0124	0.013
Mof_C 	C 	0.6412	0.9406	0.4979	0.43
Mof_C 	C 	0.657	0.0212	0.4616	-0.234
Mof_C 	C 	0.6019	0.0109	0.409	0.216
Mof_H 	H 	0.5567	0.9441	0.3961	0.021
Mof_C 	C 	0.7243	0.1199	0.48	0.261
Mof_H 	H 	0.7628	0.123	0.5149	-0.004
Mof_C 	C 	0.7348	0.2145	0.4465	-0.327
Mof_H 	H 	0.7794	0.2836	0.4594	0.274
Mof_C 	C 	0.6798	0.2071	0.3945	0.421
Mof_C 	C 	0.6138	0.0978	0.3761	-0.307
Mof_H 	H 	0.5778	0.0846	0.3411	0.202
Mof_C 	C 	0.684	0.3199	0.3554	-0.543
Mof_C 	C 	0.6242	0.4746	0.3382	1.009
Mof_C 	C 	0.7655	0.4074	0.3787	0.976
Mof_C 	C 	0.6692	0.2	0.3109	0.449
Mof_C 	C 	0.6231	0.2522	0.2599	-0.353
Mof_H 	H 	0.5996	0.3656	0.2513	0.264
Mof_C 	C 	0.6118	0.1371	0.2217	0.238
Mof_H 	H 	0.5795	0.1732	0.1877	-0.027
Mof_C 	C 	0.6477	0.97	0.2333	-0.227
Mof_C 	C 	0.6954	0.9188	0.2841	0.312
Mof_H 	H 	0.7209	0.8078	0.2927	0.042
Mof_C 	C 	0.7055	0.0307	0.322	-0.406
Mof_H 	H 	0.7371	0.9928	0.3558	0.307
Mof_C 	C 	0.6358	0.8485	0.192	0.422
Mof_Zn	Zn	0.5	0	0.5	1.148
Mof_Zn	Zn	0.5	0	-0	1.143
_end
