# CIF file generated by openbabel 3.1.0, see https://openbabel.org
data_I
_chemical_name_common 'KABXOC_clean'
_cell_length_a 13.6861
_cell_length_b 13.6861
_cell_length_c 16.383
_cell_angle_alpha 67.0707
_cell_angle_beta 67.0707
_cell_angle_gamma 75.6497
_space_group_name_H-M_alt 'P 1'
_space_group_name_Hall 'P 1'
loop_
    _symmetry_equiv_pos_as_xyz
    x,y,z
loop_
    _atom_site_label
    _atom_site_type_symbol
    _atom_site_fract_x
    _atom_site_fract_y
    _atom_site_fract_z
    _atom_site_occupancy
    Eu1      Eu       0.83237    0.54586    0.50184    1.000
    Eu2      Eu       0.45414    0.16763    0.99816    1.000
    Eu3      Eu       0.16763    0.45414    0.49816    1.000
    Eu4      Eu       0.54586    0.83237    0.00184    1.000
    H1       H        0.22350    0.33850    0.24300    1.000
    H2       H        0.08170    0.34590    0.06690    1.000
    H3       H        0.91350    0.45330    0.28470    1.000
    H4       H        0.08000    0.12800    0.65280    1.000
    H5       H        0.66150    0.77650    0.25700    1.000
    H6       H        0.65410    0.91830    0.43310    1.000
    H7       H        0.54670    0.08650    0.21530    1.000
    H8       H        0.87200    0.92000    0.84720    1.000
    H9       H        0.77650    0.66150    0.75700    1.000
    H10      H        0.91830    0.65410    0.93310    1.000
    H11      H        0.08650    0.54670    0.71530    1.000
    H12      H        0.92000    0.87200    0.34720    1.000
    H13      H        0.33850    0.22350    0.74300    1.000
    H14      H        0.34590    0.08170    0.56690    1.000
    H15      H        0.45330    0.91350    0.78470    1.000
    H16      H        0.12800    0.08000    0.15280    1.000
    H17      H        0.76900    0.23100    0.75000    1.000
    H18      H        0.23100    0.76900    0.25000    1.000
    C1       C        0.06373    0.42751    0.35930    1.000
    C2       C        0.26928    0.28090    0.09210    1.000
    C3       C        0.06842    0.40130    0.27650    1.000
    C4       C        0.16325    0.35505    0.22490    1.000
    C5       C        0.16875    0.33339    0.14690    1.000
    C6       C        0.07880    0.35820    0.11980    1.000
    C7       C        0.98533    0.40135    0.17270    1.000
    C8       C        0.97774    0.42380    0.25060    1.000
    C9       C        0.95061    0.30825    0.62260    1.000
    C10      C        0.01033    0.11485    0.69080    1.000
    C11      C        0.92711    0.19677    0.68960    1.000
    C12      C        0.57249    0.93627    0.14070    1.000
    C13      C        0.71910    0.73072    0.40790    1.000
    C14      C        0.59870    0.93158    0.22350    1.000
    C15      C        0.64495    0.83675    0.27510    1.000
    C16      C        0.66661    0.83125    0.35310    1.000
    C17      C        0.64180    0.92120    0.38020    1.000
    C18      C        0.59865    0.01467    0.32730    1.000
    C19      C        0.57620    0.02226    0.24940    1.000
    C20      C        0.69175    0.04939    0.87740    1.000
    C21      C        0.88515    0.98967    0.80920    1.000
    C22      C        0.80323    0.07289    0.81040    1.000
    C23      C        0.93627    0.57249    0.64070    1.000
    C24      C        0.73072    0.71910    0.90790    1.000
    C25      C        0.93158    0.59870    0.72350    1.000
    C26      C        0.83675    0.64495    0.77510    1.000
    C27      C        0.83125    0.66661    0.85310    1.000
    C28      C        0.92120    0.64180    0.88020    1.000
    C29      C        0.01467    0.59865    0.82730    1.000
    C30      C        0.02226    0.57620    0.74940    1.000
    C31      C        0.04939    0.69175    0.37740    1.000
    C32      C        0.98967    0.88515    0.30920    1.000
    C33      C        0.07289    0.80323    0.31040    1.000
    C34      C        0.42751    0.06373    0.85930    1.000
    C35      C        0.28090    0.26928    0.59210    1.000
    C36      C        0.40130    0.06842    0.77650    1.000
    C37      C        0.35505    0.16325    0.72490    1.000
    C38      C        0.33339    0.16875    0.64690    1.000
    C39      C        0.35820    0.07880    0.61980    1.000
    C40      C        0.40135    0.98533    0.67270    1.000
    C41      C        0.42380    0.97774    0.75060    1.000
    C42      C        0.30825    0.95061    0.12260    1.000
    C43      C        0.11485    0.01033    0.19080    1.000
    C44      C        0.19677    0.92711    0.18960    1.000
    C45      C        0.98670    0.01330    0.75000    1.000
    C46      C        0.82440    0.17560    0.75000    1.000
    C47      C        0.01330    0.98670    0.25000    1.000
    C48      C        0.17560    0.82440    0.25000    1.000
    N1       N        0.88936    0.42320    0.14550    1.000
    N2       N        0.57680    0.11064    0.35450    1.000
    N3       N        0.11064    0.57680    0.85450    1.000
    N4       N        0.42320    0.88936    0.64550    1.000
    N5       N        0.07470    0.92530    0.75000    1.000
    N6       N        0.92530    0.07470    0.25000    1.000
    O1       O        0.34734    0.24616    0.12254    1.000
    O2       O        0.04717    0.32429    0.58599    1.000
    O3       O        0.97576    0.46862    0.40228    1.000
    O4       O        0.14792    0.40730    0.37908    1.000
    O5       O        0.87268    0.37512    0.60892    1.000
    O6       O        0.90103    0.42233    0.06816    1.000
    O7       O        0.27198    0.27314    0.01724    1.000
    O8       O        0.80298    0.44176    0.20150    1.000
    O9       O        0.05173    0.83385    0.79075    1.000
    O10      O        0.75384    0.65266    0.37746    1.000
    O11      O        0.67571    0.95283    0.91401    1.000
    O12      O        0.53138    0.02424    0.09772    1.000
    O13      O        0.59270    0.85208    0.12092    1.000
    O14      O        0.62488    0.12732    0.89108    1.000
    O15      O        0.57767    0.09897    0.43184    1.000
    O16      O        0.72686    0.72802    0.48276    1.000
    O17      O        0.55824    0.19702    0.29850    1.000
    O18      O        0.16615    0.94827    0.70925    1.000
    O19      O        0.65266    0.75384    0.87746    1.000
    O20      O        0.95283    0.67571    0.41401    1.000
    O21      O        0.02424    0.53138    0.59772    1.000
    O22      O        0.85208    0.59270    0.62092    1.000
    O23      O        0.12732    0.62488    0.39108    1.000
    O24      O        0.09897    0.57767    0.93184    1.000
    O25      O        0.72802    0.72686    0.98276    1.000
    O26      O        0.19702    0.55824    0.79850    1.000
    O27      O        0.94827    0.16615    0.20925    1.000
    O28      O        0.24616    0.34734    0.62254    1.000
    O29      O        0.32429    0.04717    0.08599    1.000
    O30      O        0.46862    0.97576    0.90228    1.000
    O31      O        0.40730    0.14792    0.87908    1.000
    O32      O        0.37512    0.87268    0.10892    1.000
    O33      O        0.42233    0.90103    0.56816    1.000
    O34      O        0.27314    0.27198    0.51724    1.000
    O35      O        0.44176    0.80298    0.70150    1.000
    O36      O        0.83385    0.05173    0.29075    1.000
