# CIF file generated by openbabel 3.1.0, see https://openbabel.org
data_I
_chemical_name_common 'image0'
_cell_length_a 24.9919
_cell_length_b 24.9919
_cell_length_c 24.7688
_cell_angle_alpha 90
_cell_angle_beta 90
_cell_angle_gamma 120
_space_group_name_H-M_alt 'P 1'
_space_group_name_Hall 'P 1'
loop_
    _symmetry_equiv_pos_as_xyz
    x,y,z
loop_
    _atom_site_label
    _atom_site_type_symbol
    _atom_site_fract_x
    _atom_site_fract_y
    _atom_site_fract_z
    _atom_site_occupancy
    Zr1      Zr       0.38893    0.46909    0.47478    1.000
    O1       O        0.43040    0.44380    0.54200    1.000
    O2       O        0.33160    0.46350    0.53860    1.000
    O3       O        0.39330    0.50440    0.60820    1.000
    C1       C        0.33820    0.48240    0.58890    1.000
    C2       C        0.29070    0.49430    0.61840    1.000
    C3       C        0.29260    0.52350    0.66930    1.000
    O4       O        0.36910    0.43830    0.39095    1.000
    O5       O        0.44740    0.44870    0.35110    1.000
    C4       C        0.39300    0.43900    0.34490    1.000
    C5       C        0.34960    0.41860    0.29660    1.000
    C6       C        0.29130    0.41160    0.27910    1.000
    Zr2      Zr       0.53091    0.91984    0.47478    1.000
    O6       O        0.55620    0.98660    0.54200    1.000
    O7       O        0.53650    0.86810    0.53860    1.000
    O8       O        0.49560    0.88890    0.60820    1.000
    C7       C        0.51760    0.85580    0.58890    1.000
    C8       C        0.50570    0.79640    0.61840    1.000
    C9       C        0.47650    0.76910    0.66930    1.000
    O9       O        0.56170    0.93080    0.39095    1.000
    O10      O        0.55130    0.99870    0.35110    1.000
    C10      C        0.56100    0.95400    0.34490    1.000
    C11      C        0.58140    0.93100    0.29660    1.000
    C12      C        0.58840    0.87970    0.27910    1.000
    Zr3      Zr       0.08016    0.61107    0.47478    1.000
    O11      O        0.01340    0.56960    0.54200    1.000
    O12      O        0.13190    0.66840    0.53860    1.000
    O13      O        0.11110    0.60670    0.60820    1.000
    C13      C        0.14420    0.66180    0.58890    1.000
    C14      C        0.20360    0.70930    0.61840    1.000
    C15      C        0.23090    0.70740    0.66930    1.000
    O14      O        0.06920    0.63090    0.39095    1.000
    O15      O        0.00130    0.55260    0.35110    1.000
    C16      C        0.04600    0.60700    0.34490    1.000
    C17      C        0.06900    0.65040    0.29660    1.000
    C18      C        0.12030    0.70870    0.27910    1.000
    Zr4      Zr       0.61107    0.53091    0.97478    1.000
    O16      O        0.56960    0.55620    0.04200    1.000
    O17      O        0.66840    0.53650    0.03860    1.000
    O18      O        0.60670    0.49560    0.10820    1.000
    C19      C        0.66180    0.51760    0.08890    1.000
    C20      C        0.70930    0.50570    0.11840    1.000
    C21      C        0.70740    0.47650    0.16930    1.000
    O19      O        0.63090    0.56170    0.89095    1.000
    O20      O        0.55260    0.55130    0.85110    1.000
    C22      C        0.60700    0.56100    0.84490    1.000
    C23      C        0.65040    0.58140    0.79660    1.000
    C24      C        0.70870    0.58840    0.77910    1.000
    Zr5      Zr       0.46909    0.08016    0.97478    1.000
    O21      O        0.44380    0.01340    0.04200    1.000
    O22      O        0.46350    0.13190    0.03860    1.000
    O23      O        0.50440    0.11110    0.10820    1.000
    C25      C        0.48240    0.14420    0.08890    1.000
    C26      C        0.49430    0.20360    0.11840    1.000
    C27      C        0.52350    0.23090    0.16930    1.000
    O24      O        0.43830    0.06920    0.89095    1.000
    O25      O        0.44870    0.00130    0.85110    1.000
    C28      C        0.43900    0.04600    0.84490    1.000
    C29      C        0.41860    0.06900    0.79660    1.000
    C30      C        0.41160    0.12030    0.77910    1.000
    Zr6      Zr       0.91984    0.38893    0.97478    1.000
    O26      O        0.98660    0.43040    0.04200    1.000
    O27      O        0.86810    0.33160    0.03860    1.000
    O28      O        0.88890    0.39330    0.10820    1.000
    C31      C        0.85580    0.33820    0.08890    1.000
    C32      C        0.79640    0.29070    0.11840    1.000
    C33      C        0.76910    0.29260    0.16930    1.000
    O29      O        0.93080    0.36910    0.89095    1.000
    O30      O        0.99870    0.44740    0.85110    1.000
    C34      C        0.95400    0.39300    0.84490    1.000
    C35      C        0.93100    0.34960    0.79660    1.000
    C36      C        0.87970    0.29130    0.77910    1.000
    Zr7      Zr       0.46909    0.38893    0.52522    1.000
    O31      O        0.44380    0.43040    0.45800    1.000
    O32      O        0.46350    0.33160    0.46140    1.000
    O33      O        0.50440    0.39330    0.39180    1.000
    C37      C        0.48240    0.33820    0.41110    1.000
    C38      C        0.49430    0.29070    0.38160    1.000
    C39      C        0.52350    0.29260    0.33070    1.000
    O34      O        0.43830    0.36910    0.60905    1.000
    O35      O        0.44870    0.44740    0.64890    1.000
    C40      C        0.43900    0.39300    0.65510    1.000
    C41      C        0.41860    0.34960    0.70340    1.000
    C42      C        0.41160    0.29130    0.72090    1.000
    Zr8      Zr       0.91984    0.53091    0.52522    1.000
    O36      O        0.98660    0.55620    0.45800    1.000
    O37      O        0.86810    0.53650    0.46140    1.000
    O38      O        0.88890    0.49560    0.39180    1.000
    C43      C        0.85580    0.51760    0.41110    1.000
    C44      C        0.79640    0.50570    0.38160    1.000
    C45      C        0.76910    0.47650    0.33070    1.000
    O39      O        0.93080    0.56170    0.60905    1.000
    O40      O        0.99870    0.55130    0.64890    1.000
    C46      C        0.95400    0.56100    0.65510    1.000
    C47      C        0.93100    0.58140    0.70340    1.000
    C48      C        0.87970    0.58840    0.72090    1.000
    Zr9      Zr       0.61107    0.08016    0.52522    1.000
    O41      O        0.56960    0.01340    0.45800    1.000
    O42      O        0.66840    0.13190    0.46140    1.000
    O43      O        0.60670    0.11110    0.39180    1.000
    C49      C        0.66180    0.14420    0.41110    1.000
    C50      C        0.70930    0.20360    0.38160    1.000
    C51      C        0.70740    0.23090    0.33070    1.000
    O44      O        0.63090    0.06920    0.60905    1.000
    O45      O        0.55260    0.00130    0.64890    1.000
    C52      C        0.60700    0.04600    0.65510    1.000
    C53      C        0.65040    0.06900    0.70340    1.000
    C54      C        0.70870    0.12030    0.72090    1.000
    Zr10     Zr       0.53091    0.61107    0.02522    1.000
    O46      O        0.55620    0.56960    0.95800    1.000
    O47      O        0.53650    0.66840    0.96140    1.000
    O48      O        0.49560    0.60670    0.89180    1.000
    C55      C        0.51760    0.66180    0.91110    1.000
    C56      C        0.50570    0.70930    0.88160    1.000
    C57      C        0.47650    0.70740    0.83070    1.000
    O49      O        0.56170    0.63090    0.10905    1.000
    O50      O        0.55130    0.55260    0.14890    1.000
    C58      C        0.56100    0.60700    0.15510    1.000
    C59      C        0.58140    0.65040    0.20340    1.000
    C60      C        0.58840    0.70870    0.22090    1.000
    Zr11     Zr       0.08016    0.46909    0.02522    1.000
    O51      O        0.01340    0.44380    0.95800    1.000
    O52      O        0.13190    0.46350    0.96140    1.000
    O53      O        0.11110    0.50440    0.89180    1.000
    C61      C        0.14420    0.48240    0.91110    1.000
    C62      C        0.20360    0.49430    0.88160    1.000
    C63      C        0.23090    0.52350    0.83070    1.000
    O54      O        0.06920    0.43830    0.10905    1.000
    O55      O        0.00130    0.44870    0.14890    1.000
    C64      C        0.04600    0.43900    0.15510    1.000
    C65      C        0.06900    0.41860    0.20340    1.000
    C66      C        0.12030    0.41160    0.22090    1.000
    Zr12     Zr       0.38893    0.91984    0.02522    1.000
    O56      O        0.43040    0.98660    0.95800    1.000
    O57      O        0.33160    0.86810    0.96140    1.000
    O58      O        0.39330    0.88890    0.89180    1.000
    C67      C        0.33820    0.85580    0.91110    1.000
    C68      C        0.29070    0.79640    0.88160    1.000
    C69      C        0.29260    0.76910    0.83070    1.000
    O59      O        0.36910    0.93080    0.10905    1.000
    O60      O        0.44740    0.99870    0.14890    1.000
    C70      C        0.39300    0.95400    0.15510    1.000
    C71      C        0.34960    0.93100    0.20340    1.000
    C72      C        0.29130    0.87970    0.22090    1.000
    Zr13     Zr       0.61107    0.53091    0.52522    1.000
    O61      O        0.56960    0.55620    0.45800    1.000
    O62      O        0.66840    0.53650    0.46140    1.000
    O63      O        0.60670    0.49560    0.39180    1.000
    C73      C        0.66180    0.51760    0.41110    1.000
    C74      C        0.70930    0.50570    0.38160    1.000
    C75      C        0.70740    0.47650    0.33070    1.000
    O64      O        0.63090    0.56170    0.60905    1.000
    O65      O        0.55260    0.55130    0.64890    1.000
    C76      C        0.60700    0.56100    0.65510    1.000
    C77      C        0.65040    0.58140    0.70340    1.000
    C78      C        0.70870    0.58840    0.72090    1.000
    Zr14     Zr       0.46909    0.08016    0.52522    1.000
    O66      O        0.44380    0.01340    0.45800    1.000
    O67      O        0.46350    0.13190    0.46140    1.000
    O68      O        0.50440    0.11110    0.39180    1.000
    C79      C        0.48240    0.14420    0.41110    1.000
    C80      C        0.49430    0.20360    0.38160    1.000
    C81      C        0.52350    0.23090    0.33070    1.000
    O69      O        0.43830    0.06920    0.60905    1.000
    O70      O        0.44870    0.00130    0.64890    1.000
    C82      C        0.43900    0.04600    0.65510    1.000
    C83      C        0.41860    0.06900    0.70340    1.000
    C84      C        0.41160    0.12030    0.72090    1.000
    Zr15     Zr       0.91984    0.38893    0.52522    1.000
    O71      O        0.98660    0.43040    0.45800    1.000
    O72      O        0.86810    0.33160    0.46140    1.000
    O73      O        0.88890    0.39330    0.39180    1.000
    C85      C        0.85580    0.33820    0.41110    1.000
    C86      C        0.79640    0.29070    0.38160    1.000
    C87      C        0.76910    0.29260    0.33070    1.000
    O74      O        0.93080    0.36910    0.60905    1.000
    O75      O        0.99870    0.44740    0.64890    1.000
    C88      C        0.95400    0.39300    0.65510    1.000
    C89      C        0.93100    0.34960    0.70340    1.000
    C90      C        0.87970    0.29130    0.72090    1.000
    Zr16     Zr       0.38893    0.46909    0.02522    1.000
    O76      O        0.43040    0.44380    0.95800    1.000
    O77      O        0.33160    0.46350    0.96140    1.000
    O78      O        0.39330    0.50440    0.89180    1.000
    C91      C        0.33820    0.48240    0.91110    1.000
    C92      C        0.29070    0.49430    0.88160    1.000
    C93      C        0.29260    0.52350    0.83070    1.000
    O79      O        0.36910    0.43830    0.10905    1.000
    O80      O        0.44740    0.44870    0.14890    1.000
    C94      C        0.39300    0.43900    0.15510    1.000
    C95      C        0.34960    0.41860    0.20340    1.000
    C96      C        0.29130    0.41160    0.22090    1.000
    Zr17     Zr       0.53091    0.91984    0.02522    1.000
    O81      O        0.55620    0.98660    0.95800    1.000
    O82      O        0.53650    0.86810    0.96140    1.000
    O83      O        0.49560    0.88890    0.89180    1.000
    C97      C        0.51760    0.85580    0.91110    1.000
    C98      C        0.50570    0.79640    0.88160    1.000
    C99      C        0.47650    0.76910    0.83070    1.000
    O84      O        0.56170    0.93080    0.10905    1.000
    O85      O        0.55130    0.99870    0.14890    1.000
    C100     C        0.56100    0.95400    0.15510    1.000
    C101     C        0.58140    0.93100    0.20340    1.000
    C102     C        0.58840    0.87970    0.22090    1.000
    Zr18     Zr       0.08016    0.61107    0.02522    1.000
    O86      O        0.01340    0.56960    0.95800    1.000
    O87      O        0.13190    0.66840    0.96140    1.000
    O88      O        0.11110    0.60670    0.89180    1.000
    C103     C        0.14420    0.66180    0.91110    1.000
    C104     C        0.20360    0.70930    0.88160    1.000
    C105     C        0.23090    0.70740    0.83070    1.000
    O89      O        0.06920    0.63090    0.10905    1.000
    O90      O        0.00130    0.55260    0.14890    1.000
    C106     C        0.04600    0.60700    0.15510    1.000
    C107     C        0.06900    0.65040    0.20340    1.000
    C108     C        0.12030    0.70870    0.22090    1.000
    Zr19     Zr       0.53091    0.61107    0.47478    1.000
    O91      O        0.55620    0.56960    0.54200    1.000
    O92      O        0.53650    0.66840    0.53860    1.000
    O93      O        0.49560    0.60670    0.60820    1.000
    C109     C        0.51760    0.66180    0.58890    1.000
    C110     C        0.50570    0.70930    0.61840    1.000
    C111     C        0.47650    0.70740    0.66930    1.000
    O94      O        0.56170    0.63090    0.39095    1.000
    O95      O        0.55130    0.55260    0.35110    1.000
    C112     C        0.56100    0.60700    0.34490    1.000
    C113     C        0.58140    0.65040    0.29660    1.000
    C114     C        0.58840    0.70870    0.27910    1.000
    Zr20     Zr       0.08016    0.46909    0.47478    1.000
    O96      O        0.01340    0.44380    0.54200    1.000
    O97      O        0.13190    0.46350    0.53860    1.000
    O98      O        0.11110    0.50440    0.60820    1.000
    C115     C        0.14420    0.48240    0.58890    1.000
    C116     C        0.20360    0.49430    0.61840    1.000
    C117     C        0.23090    0.52350    0.66930    1.000
    O99      O        0.06920    0.43830    0.39095    1.000
    O100     O        0.00130    0.44870    0.35110    1.000
    C118     C        0.04600    0.43900    0.34490    1.000
    C119     C        0.06900    0.41860    0.29660    1.000
    C120     C        0.12030    0.41160    0.27910    1.000
    Zr21     Zr       0.38893    0.91984    0.47478    1.000
    O101     O        0.43040    0.98660    0.54200    1.000
    O102     O        0.33160    0.86810    0.53860    1.000
    O103     O        0.39330    0.88890    0.60820    1.000
    C121     C        0.33820    0.85580    0.58890    1.000
    C122     C        0.29070    0.79640    0.61840    1.000
    C123     C        0.29260    0.76910    0.66930    1.000
    O104     O        0.36910    0.93080    0.39095    1.000
    O105     O        0.44740    0.99870    0.35110    1.000
    C124     C        0.39300    0.95400    0.34490    1.000
    C125     C        0.34960    0.93100    0.29660    1.000
    C126     C        0.29130    0.87970    0.27910    1.000
    Zr22     Zr       0.46909    0.38893    0.97478    1.000
    O106     O        0.44380    0.43040    0.04200    1.000
    O107     O        0.46350    0.33160    0.03860    1.000
    O108     O        0.50440    0.39330    0.10820    1.000
    C127     C        0.48240    0.33820    0.08890    1.000
    C128     C        0.49430    0.29070    0.11840    1.000
    C129     C        0.52350    0.29260    0.16930    1.000
    O109     O        0.43830    0.36910    0.89095    1.000
    O110     O        0.44870    0.44740    0.85110    1.000
    C130     C        0.43900    0.39300    0.84490    1.000
    C131     C        0.41860    0.34960    0.79660    1.000
    C132     C        0.41160    0.29130    0.77910    1.000
    Zr23     Zr       0.91984    0.53091    0.97478    1.000
    O111     O        0.98660    0.55620    0.04200    1.000
    O112     O        0.86810    0.53650    0.03860    1.000
    O113     O        0.88890    0.49560    0.10820    1.000
    C133     C        0.85580    0.51760    0.08890    1.000
    C134     C        0.79640    0.50570    0.11840    1.000
    C135     C        0.76910    0.47650    0.16930    1.000
    O114     O        0.93080    0.56170    0.89095    1.000
    O115     O        0.99870    0.55130    0.85110    1.000
    C136     C        0.95400    0.56100    0.84490    1.000
    C137     C        0.93100    0.58140    0.79660    1.000
    C138     C        0.87970    0.58840    0.77910    1.000
    Zr24     Zr       0.61107    0.08016    0.97478    1.000
    O116     O        0.56960    0.01340    0.04200    1.000
    O117     O        0.66840    0.13190    0.03860    1.000
    O118     O        0.60670    0.11110    0.10820    1.000
    C139     C        0.66180    0.14420    0.08890    1.000
    C140     C        0.70930    0.20360    0.11840    1.000
    C141     C        0.70740    0.23090    0.16930    1.000
    O119     O        0.63090    0.06920    0.89095    1.000
    O120     O        0.55260    0.00130    0.85110    1.000
    C142     C        0.60700    0.04600    0.84490    1.000
    C143     C        0.65040    0.06900    0.79660    1.000
    C144     C        0.70870    0.12030    0.77910    1.000
    Zr25     Zr       0.48144    0.51856    0.59274    1.000
    O121     O        0.46970    0.53030    0.43420    1.000
    O122     O        0.45520    0.54480    0.51760    1.000
    Zr26     Zr       0.48144    0.96289    0.59274    1.000
    O123     O        0.46970    0.93940    0.43420    1.000
    O124     O        0.45520    0.91040    0.51760    1.000
    Zr27     Zr       0.03711    0.51856    0.59274    1.000
    O125     O        0.06060    0.53030    0.43420    1.000
    O126     O        0.08960    0.54480    0.51760    1.000
    Zr28     Zr       0.51856    0.48144    0.09274    1.000
    O127     O        0.53030    0.46970    0.93420    1.000
    O128     O        0.54480    0.45520    0.01760    1.000
    Zr29     Zr       0.51856    0.03711    0.09274    1.000
    O129     O        0.53030    0.06060    0.93420    1.000
    O130     O        0.54480    0.08960    0.01760    1.000
    Zr30     Zr       0.96289    0.48144    0.09274    1.000
    O131     O        0.93940    0.46970    0.93420    1.000
    O132     O        0.91040    0.45520    0.01760    1.000
    Zr31     Zr       0.51856    0.48144    0.40726    1.000
    O133     O        0.53030    0.46970    0.56580    1.000
    O134     O        0.54480    0.45520    0.48240    1.000
    Zr32     Zr       0.96289    0.48144    0.40726    1.000
    O135     O        0.93940    0.46970    0.56580    1.000
    O136     O        0.91040    0.45520    0.48240    1.000
    Zr33     Zr       0.51856    0.03711    0.40726    1.000
    O137     O        0.53030    0.06060    0.56580    1.000
    O138     O        0.54480    0.08960    0.48240    1.000
    Zr34     Zr       0.48144    0.51856    0.90726    1.000
    O139     O        0.46970    0.53030    0.06580    1.000
    O140     O        0.45520    0.54480    0.98240    1.000
    Zr35     Zr       0.03711    0.51856    0.90726    1.000
    O141     O        0.06060    0.53030    0.06580    1.000
    O142     O        0.08960    0.54480    0.98240    1.000
    Zr36     Zr       0.48144    0.96289    0.90726    1.000
    O143     O        0.46970    0.93940    0.06580    1.000
    O144     O        0.45520    0.91040    0.98240    1.000
    O145     O        0.23965    0.47930    0.58530    1.000
    O146     O        0.52070    0.76035    0.58530    1.000
    O147     O        0.23965    0.76035    0.58530    1.000
    O148     O        0.76035    0.52070    0.08530    1.000
    O149     O        0.47930    0.23965    0.08530    1.000
    O150     O        0.76035    0.23965    0.08530    1.000
    O151     O        0.47930    0.23965    0.41470    1.000
    O152     O        0.76035    0.52070    0.41470    1.000
    O153     O        0.76035    0.23965    0.41470    1.000
    O154     O        0.52070    0.76035    0.91470    1.000
    O155     O        0.23965    0.47930    0.91470    1.000
    O156     O        0.23965    0.76035    0.91470    1.000
    O157     O        0.37600    0.41050    0.25000    1.000
    O158     O        0.58950    0.96550    0.25000    1.000
    O159     O        0.03450    0.62400    0.25000    1.000
    O160     O        0.62400    0.58950    0.75000    1.000
    O161     O        0.41050    0.03450    0.75000    1.000
    O162     O        0.96550    0.37600    0.75000    1.000
    O163     O        0.41050    0.37600    0.75000    1.000
    O164     O        0.96550    0.58950    0.75000    1.000
    O165     O        0.62400    0.03450    0.75000    1.000
    O166     O        0.58950    0.62400    0.25000    1.000
    O167     O        0.03450    0.41050    0.25000    1.000
    O168     O        0.37600    0.96550    0.25000    1.000
