data_functionalizedCrystal
_audit_creation_method	'EQeq! by Chris Wilmer'
_symmetry_space_group_name_H-M	'P1'
_symmetry_Int_Tables_number	1
_symmetry_cell_setting	triclinic
loop_
_symmetry_equiv_pos_as_xyz
  x,y,z
_cell_length_a	12.9758
_cell_length_b	13.1095
_cell_length_c	13.9258
_cell_angle_alpha	85.31
_cell_angle_beta	70.71
_cell_angle_gamma	84.193
loop_
_atom_site_label
_atom_site_type_symbol
_atom_site_fract_x
_atom_site_fract_y
_atom_site_fract_z
_atom_site_charge
Mof_Zn	Zn	0.19248	0.31891	0.66323	1.214
Mof_Zn	Zn	0.12893	0.32562	0.88645	1.215
Mof_H 	H 	0.76	0.3474	0.9707	0.039
Mof_H 	H 	0.582	0.3498	0.9721	0.064
Mof_H 	H 	0.8721	0.3051	0.6683	0.053
Mof_H 	H 	0.449	0.3294	0.8805	0.058
Mof_H 	H 	0.5606	0.2864	0.5785	0.044
Mof_H 	H 	0.7372	0.2879	0.5765	0.057
Mof_H 	H 	0.201	0.9886	0.6508	0.055
Mof_H 	H 	0.1056	0.8234	0.9765	0.073
Mof_H 	H 	0.1171	0.9989	0.9572	0.038
Mof_H 	H 	0.1247	0.6555	0.8984	0.061
Mof_H 	H 	0.1704	0.6497	0.601	0.036
Mof_H 	H 	0.1841	0.82	0.5734	0.058
Mof_H 	H 	0.1196	0.1749	0.0583	0.004
Mof_H 	H 	0.1353	0.1672	0.2175	0.072
Mof_H 	H 	0.099	0.4676	0.2163	0.082
Mof_H 	H 	0.0816	0.4663	0.0604	0.005
Mof_H 	H 	0.1962	0.168	0.3426	0.073
Mof_H 	H 	0.209	0.1706	0.5041	0.002
Mof_H 	H 	0.0909	0.4483	0.5286	-0.003
Mof_H 	H 	0.0652	0.4502	0.3731	0.076
Mof_C 	C 	0.94839	0.32832	0.81527	0.364
Mof_C 	C 	0.83298	0.32694	0.81709	-0.09
Mof_C 	C 	0.74539	0.33922	0.90934	0.018
Mof_C 	C 	0.64024	0.33928	0.91016	-0.088
Mof_C 	C 	0.61571	0.32408	0.82133	0.029
Mof_C 	C 	0.70435	0.31094	0.72831	0.021
Mof_C 	C 	0.81252	0.31327	0.72971	-0.029
Mof_C 	C 	0.50866	0.32175	0.81899	-0.034
Mof_C 	C 	0.48739	0.30886	0.731	-0.08
Mof_C 	C 	0.57488	0.29586	0.63969	0.015
Mof_C 	C 	0.67907	0.29686	0.63879	-0.081
Mof_C 	C 	0.37024	0.31186	0.73314	0.38
Mof_C 	C 	0.1628	0.12564	0.79067	0.379
Mof_C 	C 	0.15991	0.01121	0.80109	-0.089
Mof_C 	C 	0.18166	0.95484	0.71665	-0.025
Mof_C 	C 	0.17558	0.84751	0.72662	0.016
Mof_C 	C 	0.14766	0.79746	0.82417	0.032
Mof_C 	C 	0.12525	0.85621	0.91027	-0.097
Mof_C 	C 	0.13174	0.96021	0.89872	0.024
Mof_C 	C 	0.14218	0.68976	0.83284	-0.038
Mof_C 	C 	0.16133	0.6341	0.74972	-0.081
Mof_C 	C 	0.17	0.68825	0.65604	0.019
Mof_C 	C 	0.1776	0.78769	0.63848	-0.084
Mof_C 	C 	0.15746	0.51922	0.76033	0.372
Mof_C 	C 	0.1295	0.23595	0.08545	0.076
Mof_C 	C 	0.1386	0.2312	0.17975	-0.12
Mof_C 	C 	0.15326	0.32222	0.2235	0.058
Mof_C 	C 	0.16399	0.32067	0.32588	0.058
Mof_C 	C 	0.11798	0.40591	0.18094	-0.135
Mof_C 	C 	0.10862	0.4044	0.08729	0.092
Mof_C 	C 	0.1866	0.23133	0.37423	-0.125
Mof_C 	C 	0.1954	0.234	0.47046	0.074
Mof_C 	C 	0.1258	0.39399	0.48513	0.079
Mof_C 	C 	0.1111	0.3968	0.39198	-0.128
Mof_N 	N 	0.13399	0.32378	0.02964	-0.256
Mof_N 	N 	0.18601	0.32008	0.5192	-0.25
Mof_O 	O 	0.9661	0.33485	0.89823	-0.441
Mof_O 	O 	0.0226	0.3263	0.72878	-0.463
Mof_O 	O 	0.29685	0.31456	0.8176	-0.475
Mof_O 	O 	0.35438	0.31195	0.6486	-0.439
Mof_O 	O 	0.19199	0.16632	0.70096	-0.456
Mof_O 	O 	0.13347	0.17274	0.87144	-0.463
Mof_O 	O 	0.181	0.4728	0.67859	-0.456
Mof_O 	O 	0.13121	0.47804	0.84895	-0.46
Mof_Zn	Zn	0.80752	0.68109	0.33677	1.215
Mof_Zn	Zn	0.87107	0.67438	0.11355	1.216
Mof_H 	H 	0.24	0.6526	0.0293	0.039
Mof_H 	H 	0.418	0.6502	0.0279	0.064
Mof_H 	H 	0.1279	0.6949	0.3317	0.053
Mof_H 	H 	0.551	0.6706	0.1195	0.058
Mof_H 	H 	0.4394	0.7136	0.4215	0.044
Mof_H 	H 	0.2628	0.7121	0.4235	0.057
Mof_H 	H 	0.799	0.0114	0.3492	0.055
Mof_H 	H 	0.8944	0.1766	0.0235	0.073
Mof_H 	H 	0.8829	0.0011	0.0428	0.038
Mof_H 	H 	0.8753	0.3445	0.1016	0.061
Mof_H 	H 	0.8296	0.3503	0.399	0.036
Mof_H 	H 	0.8159	0.18	0.4266	0.058
Mof_H 	H 	0.8804	0.8251	0.9417	0.004
Mof_H 	H 	0.8647	0.8328	0.7825	0.072
Mof_H 	H 	0.901	0.5324	0.7837	0.082
Mof_H 	H 	0.9184	0.5337	0.9396	0.005
Mof_H 	H 	0.8038	0.832	0.6574	0.073
Mof_H 	H 	0.791	0.8294	0.4959	0.002
Mof_H 	H 	0.9091	0.5517	0.4714	-0.003
Mof_H 	H 	0.9348	0.5498	0.6269	0.076
Mof_C 	C 	0.05161	0.67168	0.18473	0.364
Mof_C 	C 	0.16702	0.67306	0.18291	-0.09
Mof_C 	C 	0.25461	0.66078	0.09066	0.018
Mof_C 	C 	0.35976	0.66072	0.08984	-0.088
Mof_C 	C 	0.38429	0.67592	0.17867	0.029
Mof_C 	C 	0.29565	0.68906	0.27169	0.021
Mof_C 	C 	0.18748	0.68673	0.27029	-0.029
Mof_C 	C 	0.49134	0.67825	0.18101	-0.034
Mof_C 	C 	0.51261	0.69114	0.269	-0.08
Mof_C 	C 	0.42512	0.70414	0.36031	0.015
Mof_C 	C 	0.32093	0.70314	0.36121	-0.081
Mof_C 	C 	0.62976	0.68814	0.26686	0.38
Mof_C 	C 	0.8372	0.87436	0.20933	0.379
Mof_C 	C 	0.84009	0.98879	0.19891	-0.089
Mof_C 	C 	0.81834	0.04516	0.28335	-0.025
Mof_C 	C 	0.82442	0.15249	0.27338	0.016
Mof_C 	C 	0.85234	0.20254	0.17583	0.032
Mof_C 	C 	0.87475	0.14379	0.08973	-0.097
Mof_C 	C 	0.86826	0.03979	0.10128	0.024
Mof_C 	C 	0.85782	0.31024	0.16716	-0.038
Mof_C 	C 	0.83867	0.3659	0.25028	-0.081
Mof_C 	C 	0.83	0.31175	0.34396	0.019
Mof_C 	C 	0.8224	0.21231	0.36152	-0.084
Mof_C 	C 	0.84254	0.48078	0.23967	0.372
Mof_C 	C 	0.8705	0.76405	0.91455	0.076
Mof_C 	C 	0.8614	0.7688	0.82025	-0.12
Mof_C 	C 	0.84674	0.67778	0.7765	0.058
Mof_C 	C 	0.83601	0.67933	0.67412	0.058
Mof_C 	C 	0.88202	0.59409	0.81906	-0.135
Mof_C 	C 	0.89138	0.5956	0.91271	0.092
Mof_C 	C 	0.8134	0.76867	0.62577	-0.125
Mof_C 	C 	0.8046	0.766	0.52954	0.074
Mof_C 	C 	0.8742	0.60601	0.51487	0.079
Mof_C 	C 	0.8889	0.6032	0.60802	-0.128
Mof_N 	N 	0.86601	0.67622	0.97036	-0.256
Mof_N 	N 	0.81399	0.67992	0.4808	-0.25
Mof_O 	O 	0.0339	0.66515	0.10177	-0.441
Mof_O 	O 	0.9774	0.6737	0.27122	-0.463
Mof_O 	O 	0.70315	0.68544	0.1824	-0.475
Mof_O 	O 	0.64562	0.68805	0.3514	-0.439
Mof_O 	O 	0.80801	0.83368	0.29904	-0.456
Mof_O 	O 	0.86653	0.82726	0.12856	-0.463
Mof_O 	O 	0.819	0.5272	0.32141	-0.456
Mof_O 	O 	0.86879	0.52196	0.15105	-0.46
_end
