# CIF file generated by openbabel 3.1.0, see https://openbabel.org
data_I
_chemical_name_common 'HIZQEN_clean'
_cell_length_a 7.4523
_cell_length_b 9.7764
_cell_length_c 9.8469
_cell_angle_alpha 118.255
_cell_angle_beta 102.118
_cell_angle_gamma 91.358
_space_group_name_H-M_alt 'P 1'
_space_group_name_Hall 'P 1'
loop_
    _symmetry_equiv_pos_as_xyz
    x,y,z
loop_
    _atom_site_label
    _atom_site_type_symbol
    _atom_site_fract_x
    _atom_site_fract_y
    _atom_site_fract_z
    _atom_site_occupancy
    Cd1      Cd       0.76214    0.02622    0.51570    1.000
    Cd2      Cd       0.23786    0.97378    0.48430    1.000
    H1       H        0.82600    0.20030    0.12160    1.000
    H2       H        0.06860    0.82500    0.09650    1.000
    H3       H        0.27370    0.30330    0.78530    1.000
    H4       H        0.81430    0.48560    0.00940    1.000
    H5       H        0.17400    0.79970    0.87840    1.000
    H6       H        0.93140    0.17500    0.90350    1.000
    H7       H        0.72630    0.69670    0.21470    1.000
    H8       H        0.18570    0.51440    0.99060    1.000
    C1       C        0.87350    0.03220    0.27130    1.000
    C2       C        0.93700    0.01390    0.12910    1.000
    C3       C        0.89630    0.11900    0.07230    1.000
    C4       C        0.04050    0.89600    0.05730    1.000
    C5       C        0.61360    0.24230    0.74570    1.000
    C6       C        0.55350    0.37420    0.87830    1.000
    C7       C        0.36530    0.38290    0.87230    1.000
    C8       C        0.68650    0.49160    0.00590    1.000
    C9       C        0.12650    0.96780    0.72870    1.000
    C10      C        0.06300    0.98610    0.87090    1.000
    C11      C        0.10370    0.88100    0.92770    1.000
    C12      C        0.95950    0.10400    0.94270    1.000
    C13      C        0.38640    0.75770    0.25430    1.000
    C14      C        0.44650    0.62580    0.12170    1.000
    C15      C        0.63470    0.61710    0.12770    1.000
    C16      C        0.31350    0.50840    0.99410    1.000
    O1       O        0.76790    0.12900    0.32800    1.000
    O2       O        0.93040    0.94370    0.32960    1.000
    O3       O        0.52070    0.10610    0.67290    1.000
    O4       O        0.75910    0.27020    0.71260    1.000
    O5       O        0.23210    0.87100    0.67200    1.000
    O6       O        0.06960    0.05630    0.67040    1.000
    O7       O        0.47930    0.89390    0.32710    1.000
    O8       O        0.24090    0.72980    0.28740    1.000
