data_functionalizedCrystal
_audit_creation_method	'EQeq! by Chris Wilmer'
_symmetry_space_group_name_H-M	'P1'
_symmetry_Int_Tables_number	1
_symmetry_cell_setting	triclinic
loop_
_symmetry_equiv_pos_as_xyz
  x,y,z
_cell_length_a	8.523
_cell_length_b	9.764
_cell_length_c	17.314
_cell_angle_alpha	90
_cell_angle_beta	90
_cell_angle_gamma	112.25
loop_
_atom_site_label
_atom_site_type_symbol
_atom_site_fract_x
_atom_site_fract_y
_atom_site_fract_z
_atom_site_charge
Mof_Tb	Tb	0.8431	0.026	0.2577	1.979
Mof_Tb	Tb	0.1569	0.474	0.7577	2.004
Mof_Tb	Tb	0.1569	0.974	0.7423	1.978
Mof_Tb	Tb	0.8431	0.526	0.2423	2.003
Mof_C 	C 	0.9059	0.0229	0.0975	0.302
Mof_C 	C 	0.9463	0.0279	0.0131	-0.105
Mof_C 	C 	0.5577	0.2018	0.2897	0.467
Mof_C 	C 	0.3744	0.1054	0.3018	-0.13
Mof_C 	C 	0.3134	0.9622	0.2832	-0.148
Mof_C 	C 	0.1297	0.8683	0.2865	0.5
Mof_C 	C 	0.0941	0.4771	0.5975	0.318
Mof_C 	C 	0.0537	0.4721	0.5131	-0.095
Mof_C 	C 	0.4423	0.2982	0.7897	0.466
Mof_C 	C 	0.6256	0.3946	0.8018	-0.129
Mof_C 	C 	0.6866	0.5378	0.7832	-0.15
Mof_C 	C 	0.8703	0.6317	0.7865	0.501
Mof_C 	C 	0.0941	0.9771	0.9025	0.302
Mof_C 	C 	0.0537	0.9721	0.9869	-0.105
Mof_C 	C 	0.4423	0.7982	0.7103	0.467
Mof_C 	C 	0.6256	0.8946	0.6982	-0.13
Mof_C 	C 	0.6866	0.0378	0.7168	-0.148
Mof_C 	C 	0.8703	0.1317	0.7135	0.5
Mof_C 	C 	0.9059	0.5229	0.4025	0.318
Mof_C 	C 	0.9463	0.5279	0.4869	-0.095
Mof_C 	C 	0.5577	0.7018	0.2103	0.466
Mof_C 	C 	0.3744	0.6054	0.1982	-0.129
Mof_C 	C 	0.3134	0.4622	0.2168	-0.15
Mof_C 	C 	0.1297	0.3683	0.2135	0.501
Mof_O 	O 	0.9644	0.9561	0.1441	-0.426
Mof_O 	O 	0.8137	0.0919	0.1204	-0.403
Mof_O 	O 	0.6611	0.1452	0.2703	-0.6
Mof_O 	O 	0.5985	0.3393	0.2967	-0.516
Mof_O 	O 	0.0235	0.9238	0.3052	-0.584
Mof_O 	O 	0.0898	0.7349	0.2695	-0.533
Mof_O 	O 	0.0356	0.5439	0.6441	-0.444
Mof_O 	O 	0.1863	0.4081	0.6204	-0.403
Mof_O 	O 	0.3389	0.3548	0.7703	-0.6
Mof_O 	O 	0.4015	0.1607	0.7967	-0.51
Mof_O 	O 	0.9765	0.5762	0.8052	-0.583
Mof_O 	O 	0.9102	0.7651	0.7695	-0.527
Mof_O 	O 	0.0356	0.0439	0.8559	-0.426
Mof_O 	O 	0.1863	0.9081	0.8796	-0.403
Mof_O 	O 	0.3389	0.8548	0.7297	-0.6
Mof_O 	O 	0.4015	0.6607	0.7033	-0.516
Mof_O 	O 	0.9765	0.0762	0.6948	-0.584
Mof_O 	O 	0.9102	0.2651	0.7305	-0.533
Mof_O 	O 	0.9644	0.4561	0.3559	-0.444
Mof_O 	O 	0.8137	0.5919	0.3796	-0.403
Mof_O 	O 	0.6611	0.6452	0.2297	-0.6
Mof_O 	O 	0.5985	0.8393	0.2033	-0.51
Mof_O 	O 	0.0235	0.4238	0.1948	-0.583
Mof_O 	O 	0.0898	0.2349	0.2305	-0.527
Mof_H 	H 	0.88337	0.0807	0.97079	0.063
Mof_H 	H 	0.28387	0.15433	0.32743	0.054
Mof_H 	H 	0.40333	0.90722	0.26384	0.063
Mof_H 	H 	0.11663	0.4193	0.47079	0.056
Mof_H 	H 	0.71613	0.34567	0.82743	0.053
Mof_H 	H 	0.59667	0.59278	0.76384	0.061
Mof_H 	H 	0.11663	0.9193	0.02921	0.063
Mof_H 	H 	0.71613	0.84567	0.67257	0.054
Mof_H 	H 	0.59667	0.09278	0.73616	0.063
Mof_H 	H 	0.88236	0.58106	0.52851	0.056
Mof_H 	H 	0.28387	0.65433	0.17257	0.053
Mof_H 	H 	0.40333	0.40722	0.23616	0.061
_end
