# CIF file generated by openbabel 3.1.0, see https://openbabel.org
data_I
_chemical_name_common 'UXUPIN_clean'
_cell_length_a 18.2725
_cell_length_b 22.168
_cell_length_c 22.168
_cell_angle_alpha 80.2206
_cell_angle_beta 65.6609
_cell_angle_gamma 65.661
_space_group_name_H-M_alt 'P 1'
_space_group_name_Hall 'P 1'
loop_
    _symmetry_equiv_pos_as_xyz
    x,y,z
loop_
    _atom_site_label
    _atom_site_type_symbol
    _atom_site_fract_x
    _atom_site_fract_y
    _atom_site_fract_z
    _atom_site_occupancy
    Cu1      Cu       0.25885    0.99115    0.49115    1.000
    Cu2      Cu       0.24115    0.50885    0.00885    1.000
    Cu3      Cu       0.75000    0.49115    0.50885    1.000
    Cu4      Cu       0.25000    0.00885    0.99115    1.000
    H1       H        0.22310    0.92170    0.62090    1.000
    H2       H        0.21760    0.92750    0.72550    1.000
    H3       H        0.27740    0.08790    0.66850    1.000
    H4       H        0.28140    0.07910    0.56530    1.000
    H5       H        0.34240    0.04510    0.85210    1.000
    H6       H        0.34660    0.04230    0.74750    1.000
    H7       H        0.14740    0.98390    0.82650    1.000
    H8       H        0.14510    0.99010    0.92950    1.000
    H9       H        0.26570    0.57830    0.87910    1.000
    H10      H        0.37060    0.57250    0.77450    1.000
    H11      H        0.53380    0.41210    0.83150    1.000
    H12      H        0.42580    0.42090    0.93470    1.000
    H13      H        0.73960    0.45490    0.64790    1.000
    H14      H        0.63640    0.45770    0.75250    1.000
    H15      H        0.45780    0.51610    0.67350    1.000
    H16      H        0.56470    0.50990    0.57050    1.000
    H17      H        0.23430    0.12090    0.42170    1.000
    H18      H        0.12940    0.22550    0.42750    1.000
    H19      H        0.96620    0.16850    0.58790    1.000
    H20      H        0.07420    0.06530    0.57910    1.000
    H21      H        0.76040    0.35210    0.54510    1.000
    H22      H        0.86360    0.24750    0.54230    1.000
    H23      H        0.04220    0.32650    0.48390    1.000
    H24      H        0.93530    0.42950    0.49010    1.000
    H25      H        0.27690    0.37910    0.07830    1.000
    H26      H        0.28240    0.27450    0.07250    1.000
    H27      H        0.22260    0.33150    0.91210    1.000
    H28      H        0.21860    0.43470    0.92090    1.000
    H29      H        0.15760    0.14790    0.95490    1.000
    H30      H        0.15340    0.25250    0.95770    1.000
    H31      H        0.35260    0.17350    0.01610    1.000
    H32      H        0.35490    0.07050    0.00990    1.000
    H33      H        0.65600    0.62090    0.57830    1.000
    H34      H        0.55690    0.72550    0.57250    1.000
    H35      H        0.55410    0.66850    0.41210    1.000
    H36      H        0.65330    0.56530    0.42090    1.000
    H37      H        0.30550    0.85210    0.45490    1.000
    H38      H        0.40590    0.74750    0.45770    1.000
    H39      H        0.52610    0.82650    0.51610    1.000
    H40      H        0.42540    0.92950    0.50990    1.000
    H41      H        0.35520    0.87910    0.92170    1.000
    H42      H        0.35490    0.77450    0.92750    1.000
    H43      H        0.13470    0.83150    0.08790    1.000
    H44      H        0.13950    0.93470    0.07910    1.000
    H45      H        0.11250    0.64790    0.04510    1.000
    H46      H        0.11110    0.75250    0.04230    1.000
    H47      H        0.36870    0.67350    0.98390    1.000
    H48      H        0.36480    0.57050    0.99010    1.000
    H49      H        0.14480    0.07830    0.12090    1.000
    H50      H        0.14510    0.07250    0.22550    1.000
    H51      H        0.36530    0.91210    0.16850    1.000
    H52      H        0.36050    0.92090    0.06530    1.000
    H53      H        0.38750    0.95490    0.35210    1.000
    H54      H        0.38890    0.95770    0.24750    1.000
    H55      H        0.13130    0.01610    0.32650    1.000
    H56      H        0.13520    0.00990    0.42950    1.000
    H57      H        0.84400    0.42170    0.37910    1.000
    H58      H        0.94310    0.42750    0.27450    1.000
    H59      H        0.94590    0.58790    0.33150    1.000
    H60      H        0.84670    0.57910    0.43470    1.000
    H61      H        0.19450    0.54510    0.14790    1.000
    H62      H        0.09410    0.54230    0.25250    1.000
    H63      H        0.97390    0.48390    0.17350    1.000
    H64      H        0.07460    0.49010    0.07050    1.000
    C1       C        0.23379    0.95563    0.63079    1.000
    C2       C        0.23093    0.95859    0.69355    1.000
    C3       C        0.24830    0.00903    0.70837    1.000
    C4       C        0.26628    0.05357    0.65987    1.000
    C5       C        0.26829    0.04839    0.59783    1.000
    C6       C        0.30301    0.03219    0.84679    1.000
    C7       C        0.30563    0.03089    0.78385    1.000
    C8       C        0.24666    0.01240    0.77548    1.000
    C9       C        0.18766    0.99664    0.83064    1.000
    C10      C        0.18725    0.99951    0.89239    1.000
    C11      C        0.32021    0.54437    0.86921    1.000
    C12      C        0.38307    0.54141    0.80645    1.000
    C13      C        0.46570    0.49097    0.79163    1.000
    C14      C        0.47972    0.44643    0.84013    1.000
    C15      C        0.41451    0.45161    0.90217    1.000
    C16      C        0.68199    0.46781    0.65321    1.000
    C17      C        0.62037    0.46911    0.71615    1.000
    C18      C        0.53454    0.48760    0.72452    1.000
    C19      C        0.51494    0.50336    0.66936    1.000
    C20      C        0.57915    0.50049    0.60761    1.000
    C21      C        0.17979    0.13079    0.45563    1.000
    C22      C        0.11693    0.19355    0.45859    1.000
    C23      C        0.03430    0.20837    0.50903    1.000
    C24      C        0.02028    0.15987    0.55357    1.000
    C25      C        0.08549    0.09783    0.54839    1.000
    C26      C        0.81801    0.34679    0.53219    1.000
    C27      C        0.87963    0.28385    0.53089    1.000
    C28      C        0.96546    0.27548    0.51240    1.000
    C29      C        0.98506    0.33064    0.49664    1.000
    C30      C        0.92085    0.39239    0.49951    1.000
    C31      C        0.26621    0.36921    0.04437    1.000
    C32      C        0.26907    0.30645    0.04141    1.000
    C33      C        0.25170    0.29163    0.99097    1.000
    C34      C        0.23372    0.34013    0.94643    1.000
    C35      C        0.23171    0.40217    0.95161    1.000
    C36      C        0.19699    0.15321    0.96781    1.000
    C37      C        0.19437    0.21615    0.96911    1.000
    C38      C        0.25334    0.22452    0.98760    1.000
    C39      C        0.31234    0.16936    0.00336    1.000
    C40      C        0.31275    0.10761    0.00049    1.000
    C41      C        0.63542    0.63079    0.54437    1.000
    C42      C        0.57552    0.69355    0.54141    1.000
    C43      C        0.54333    0.70837    0.49097    1.000
    C44      C        0.57385    0.65987    0.44643    1.000
    C45      C        0.63388    0.59783    0.45161    1.000
    C46      C        0.35020    0.84679    0.46781    1.000
    C47      C        0.41052    0.78385    0.46911    1.000
    C48      C        0.47786    0.77548    0.48760    1.000
    C49      C        0.48170    0.83064    0.50336    1.000
    C50      C        0.42036    0.89239    0.50049    1.000
    C51      C        0.31058    0.86921    0.95563    1.000
    C52      C        0.31048    0.80645    0.95859    1.000
    C53      C        0.24267    0.79163    0.00903    1.000
    C54      C        0.18015    0.84013    0.05357    1.000
    C55      C        0.18332    0.90217    0.04839    1.000
    C56      C        0.16480    0.65321    0.03219    1.000
    C57      C        0.16348    0.71615    0.03089    1.000
    C58      C        0.24094    0.72452    0.01240    1.000
    C59      C        0.31570    0.66936    0.99664    1.000
    C60      C        0.31324    0.60761    0.99951    1.000
    C61      C        0.18942    0.04437    0.13079    1.000
    C62      C        0.18952    0.04141    0.19355    1.000
    C63      C        0.25733    0.99097    0.20837    1.000
    C64      C        0.31985    0.94643    0.15987    1.000
    C65      C        0.31668    0.95161    0.09783    1.000
    C66      C        0.33520    0.96781    0.34679    1.000
    C67      C        0.33652    0.96911    0.28385    1.000
    C68      C        0.25906    0.98760    0.27548    1.000
    C69      C        0.18430    0.00336    0.33064    1.000
    C70      C        0.18676    0.00049    0.39239    1.000
    C71      C        0.86458    0.45563    0.36921    1.000
    C72      C        0.92448    0.45859    0.30645    1.000
    C73      C        0.95667    0.50903    0.29163    1.000
    C74      C        0.92615    0.55357    0.34013    1.000
    C75      C        0.86612    0.54839    0.40217    1.000
    C76      C        0.14980    0.53219    0.15321    1.000
    C77      C        0.08948    0.53089    0.21615    1.000
    C78      C        0.02214    0.51240    0.22452    1.000
    C79      C        0.01830    0.49664    0.16936    1.000
    C80      C        0.07964    0.49951    0.10761    1.000
    N1       N        0.25160    0.00011    0.58349    1.000
    N2       N        0.24571    0.01551    0.90047    1.000
    N3       N        0.33520    0.49989    0.91651    1.000
    N4       N        0.66169    0.48449    0.59953    1.000
    N5       N        0.16480    0.08349    0.50011    1.000
    N6       N        0.83831    0.40047    0.51551    1.000
    N7       N        0.24840    0.41651    0.99989    1.000
    N8       N        0.25429    0.09953    0.98449    1.000
    N9       N        0.66491    0.58349    0.49989    1.000
    N10      N        0.35382    0.90047    0.48449    1.000
    N11      N        0.24829    0.91651    0.00011    1.000
    N12      N        0.23878    0.59953    0.01551    1.000
    N13      N        0.25171    0.99989    0.08349    1.000
    N14      N        0.26122    0.98449    0.40047    1.000
    N15      N        0.83509    0.50011    0.41651    1.000
    N16      N        0.14618    0.51551    0.09953    1.000
    Cu5      Cu       0.25000    0.50885    0.49115    1.000
    Cu6      Cu       0.75000    0.99115    0.00885    1.000
    Cu7      Cu       0.74115    0.00885    0.50885    1.000
    Cu8      Cu       0.75885    0.49115    0.99115    1.000
    H65      H        0.34400    0.37910    0.42170    1.000
    H66      H        0.44310    0.27450    0.42750    1.000
    H67      H        0.44590    0.33150    0.58790    1.000
    H68      H        0.34670    0.43470    0.57910    1.000
    H69      H        0.69450    0.14790    0.54510    1.000
    H70      H        0.59410    0.25250    0.54230    1.000
    H71      H        0.47390    0.17350    0.48390    1.000
    H72      H        0.57460    0.07050    0.49010    1.000
    H73      H        0.64480    0.12090    0.07830    1.000
    H74      H        0.64510    0.22550    0.07250    1.000
    H75      H        0.86530    0.16850    0.91210    1.000
    H76      H        0.86050    0.06530    0.92090    1.000
    H77      H        0.88750    0.35210    0.95490    1.000
    H78      H        0.88890    0.24750    0.95770    1.000
    H79      H        0.63130    0.32650    0.01610    1.000
    H80      H        0.63520    0.42950    0.00990    1.000
    H81      H        0.85520    0.92170    0.87910    1.000
    H82      H        0.85490    0.92750    0.77450    1.000
    H83      H        0.63470    0.08790    0.83150    1.000
    H84      H        0.63950    0.07910    0.93470    1.000
    H85      H        0.61250    0.04510    0.64790    1.000
    H86      H        0.61110    0.04230    0.75250    1.000
    H87      H        0.86870    0.98390    0.67350    1.000
    H88      H        0.86480    0.99010    0.57050    1.000
    H89      H        0.15600    0.57830    0.62090    1.000
    H90      H        0.05690    0.57250    0.72550    1.000
    H91      H        0.05410    0.41210    0.66850    1.000
    H92      H        0.15330    0.42090    0.56530    1.000
    H93      H        0.80550    0.45490    0.85210    1.000
    H94      H        0.90590    0.45770    0.74750    1.000
    H95      H        0.02610    0.51610    0.82650    1.000
    H96      H        0.92540    0.50990    0.92950    1.000
    H97      H        0.77690    0.07830    0.37910    1.000
    H98      H        0.78240    0.07250    0.27450    1.000
    H99      H        0.72260    0.91210    0.33150    1.000
    H100     H        0.71860    0.92090    0.43470    1.000
    H101     H        0.65760    0.95490    0.14790    1.000
    H102     H        0.65340    0.95770    0.25250    1.000
    H103     H        0.85260    0.01610    0.17350    1.000
    H104     H        0.85490    0.00990    0.07050    1.000
    H105     H        0.73430    0.42170    0.12090    1.000
    H106     H        0.62940    0.42750    0.22550    1.000
    H107     H        0.46620    0.58790    0.16850    1.000
    H108     H        0.57420    0.57910    0.06530    1.000
    H109     H        0.26040    0.54510    0.35210    1.000
    H110     H        0.36360    0.54230    0.24750    1.000
    H111     H        0.54220    0.48390    0.32650    1.000
    H112     H        0.43530    0.49010    0.42950    1.000
    H113     H        0.76570    0.87910    0.57830    1.000
    H114     H        0.87060    0.77450    0.57250    1.000
    H115     H        0.03380    0.83150    0.41210    1.000
    H116     H        0.92580    0.93470    0.42090    1.000
    H117     H        0.23960    0.64790    0.45490    1.000
    H118     H        0.13640    0.75250    0.45770    1.000
    H119     H        0.95780    0.67350    0.51610    1.000
    H120     H        0.06470    0.57050    0.50990    1.000
    H121     H        0.72310    0.62090    0.92170    1.000
    H122     H        0.71760    0.72550    0.92750    1.000
    H123     H        0.77740    0.66850    0.08790    1.000
    H124     H        0.78140    0.56530    0.07910    1.000
    H125     H        0.84240    0.85210    0.04510    1.000
    H126     H        0.84660    0.74750    0.04230    1.000
    H127     H        0.64740    0.82650    0.98390    1.000
    H128     H        0.64510    0.92950    0.99010    1.000
    C81      C        0.36458    0.36921    0.45563    1.000
    C82      C        0.42448    0.30645    0.45859    1.000
    C83      C        0.45667    0.29163    0.50903    1.000
    C84      C        0.42615    0.34013    0.55357    1.000
    C85      C        0.36612    0.40217    0.54839    1.000
    C86      C        0.64980    0.15321    0.53219    1.000
    C87      C        0.58948    0.21615    0.53089    1.000
    C88      C        0.52214    0.22452    0.51240    1.000
    C89      C        0.51830    0.16936    0.49664    1.000
    C90      C        0.57964    0.10761    0.49951    1.000
    C91      C        0.68942    0.13079    0.04437    1.000
    C92      C        0.68952    0.19355    0.04141    1.000
    C93      C        0.75733    0.20837    0.99097    1.000
    C94      C        0.81985    0.15987    0.94643    1.000
    C95      C        0.81668    0.09783    0.95161    1.000
    C96      C        0.83520    0.34679    0.96781    1.000
    C97      C        0.83652    0.28385    0.96911    1.000
    C98      C        0.75906    0.27548    0.98760    1.000
    C99      C        0.68430    0.33064    0.00336    1.000
    C100     C        0.68676    0.39239    0.00049    1.000
    C101     C        0.81058    0.95563    0.86921    1.000
    C102     C        0.81048    0.95859    0.80645    1.000
    C103     C        0.74267    0.00903    0.79163    1.000
    C104     C        0.68015    0.05357    0.84013    1.000
    C105     C        0.68332    0.04839    0.90217    1.000
    C106     C        0.66480    0.03219    0.65321    1.000
    C107     C        0.66348    0.03089    0.71615    1.000
    C108     C        0.74094    0.01240    0.72452    1.000
    C109     C        0.81570    0.99664    0.66936    1.000
    C110     C        0.81324    0.99951    0.60761    1.000
    C111     C        0.13542    0.54437    0.63079    1.000
    C112     C        0.07552    0.54141    0.69355    1.000
    C113     C        0.04333    0.49097    0.70837    1.000
    C114     C        0.07385    0.44643    0.65987    1.000
    C115     C        0.13388    0.45161    0.59783    1.000
    C116     C        0.85020    0.46781    0.84679    1.000
    C117     C        0.91052    0.46911    0.78385    1.000
    C118     C        0.97786    0.48760    0.77548    1.000
    C119     C        0.98170    0.50336    0.83064    1.000
    C120     C        0.92036    0.50049    0.89239    1.000
    C121     C        0.76621    0.04437    0.36921    1.000
    C122     C        0.76907    0.04141    0.30645    1.000
    C123     C        0.75170    0.99097    0.29163    1.000
    C124     C        0.73372    0.94643    0.34013    1.000
    C125     C        0.73171    0.95161    0.40217    1.000
    C126     C        0.69699    0.96781    0.15321    1.000
    C127     C        0.69437    0.96911    0.21615    1.000
    C128     C        0.75334    0.98760    0.22452    1.000
    C129     C        0.81234    0.00336    0.16936    1.000
    C130     C        0.81275    0.00049    0.10761    1.000
    C131     C        0.67979    0.45563    0.13079    1.000
    C132     C        0.61693    0.45859    0.19355    1.000
    C133     C        0.53430    0.50903    0.20837    1.000
    C134     C        0.52028    0.55357    0.15987    1.000
    C135     C        0.58549    0.54839    0.09783    1.000
    C136     C        0.31801    0.53219    0.34679    1.000
    C137     C        0.37963    0.53089    0.28385    1.000
    C138     C        0.46546    0.51240    0.27548    1.000
    C139     C        0.48506    0.49664    0.33064    1.000
    C140     C        0.42085    0.49951    0.39239    1.000
    C141     C        0.82021    0.86921    0.54437    1.000
    C142     C        0.88307    0.80645    0.54141    1.000
    C143     C        0.96570    0.79163    0.49097    1.000
    C144     C        0.97972    0.84013    0.44643    1.000
    C145     C        0.91451    0.90217    0.45161    1.000
    C146     C        0.18199    0.65321    0.46781    1.000
    C147     C        0.12037    0.71615    0.46911    1.000
    C148     C        0.03454    0.72452    0.48760    1.000
    C149     C        0.01494    0.66936    0.50336    1.000
    C150     C        0.07915    0.60761    0.50049    1.000
    C151     C        0.73379    0.63079    0.95563    1.000
    C152     C        0.73093    0.69355    0.95859    1.000
    C153     C        0.74830    0.70837    0.00903    1.000
    C154     C        0.76628    0.65987    0.05357    1.000
    C155     C        0.76829    0.59783    0.04839    1.000
    C156     C        0.80301    0.84679    0.03219    1.000
    C157     C        0.80563    0.78385    0.03089    1.000
    C158     C        0.74666    0.77548    0.01240    1.000
    C159     C        0.68766    0.83064    0.99664    1.000
    C160     C        0.68725    0.89239    0.99951    1.000
    N17      N        0.33509    0.41651    0.50011    1.000
    N18      N        0.64618    0.09953    0.51551    1.000
    N19      N        0.75171    0.08349    0.99989    1.000
    N20      N        0.76122    0.40047    0.98449    1.000
    N21      N        0.74829    0.00011    0.91651    1.000
    N22      N        0.73878    0.01551    0.59953    1.000
    N23      N        0.16491    0.49989    0.58349    1.000
    N24      N        0.85382    0.48449    0.90047    1.000
    N25      N        0.74840    0.99989    0.41651    1.000
    N26      N        0.75429    0.98449    0.09953    1.000
    N27      N        0.66480    0.50011    0.08349    1.000
    N28      N        0.33831    0.51551    0.40047    1.000
    N29      N        0.83520    0.91651    0.49989    1.000
    N30      N        0.16169    0.59953    0.48449    1.000
    N31      N        0.75160    0.58349    0.00011    1.000
    N32      N        0.74571    0.90047    0.01551    1.000
