# CIF file generated by openbabel 3.1.0, see https://openbabel.org
data_I
_chemical_name_common 'image0'
_cell_length_a 17.16
_cell_length_b 16.787
_cell_length_c 10.072
_cell_angle_alpha 90
_cell_angle_beta 120.77
_cell_angle_gamma 90
_space_group_name_H-M_alt 'P 1'
_space_group_name_Hall 'P 1'
loop_
    _symmetry_equiv_pos_as_xyz
    x,y,z
loop_
    _atom_site_label
    _atom_site_type_symbol
    _atom_site_fract_x
    _atom_site_fract_y
    _atom_site_fract_z
    _atom_site_occupancy
    Zn1      Zn       0.25128    0.10237    0.84569    1.000
    O1       O        0.34860    0.18082    0.92630    1.000
    O2       O        0.44581    0.08007    0.01780    1.000
    N1       N        0.37681    0.98473    0.18820    1.000
    N2       N        0.23753    0.04952    0.00960    1.000
    N3       N        0.15335    0.05117    0.99410    1.000
    N4       N        0.15435    0.00931    0.10120    1.000
    N5       N        0.23930    0.97750    0.19230    1.000
    N6       N        0.64487    0.32047    0.23350    1.000
    C1       C        0.42843    0.15208    0.00300    1.000
    C2       C        0.50412    0.21202    0.08130    1.000
    C3       C        0.59316    0.18622    0.16880    1.000
    H1       H        0.60670    0.13210    0.17750    1.000
    C4       C        0.66129    0.24168    0.24270    1.000
    H2       H        0.72090    0.22400    0.30110    1.000
    C5       C        0.55875    0.34516    0.14710    1.000
    H3       H        0.54690    0.39960    0.13850    1.000
    C6       C        0.48692    0.29294    0.07020    1.000
    H4       H        0.42790    0.31200    0.01170    1.000
    C7       C        0.28854    0.00323    0.13250    1.000
    H5       H        0.40400    0.97400    0.27300    1.000
    H6       H        0.40400    0.01000    0.14400    1.000
    Zn2      Zn       0.75128    0.60237    0.84569    1.000
    O3       O        0.84860    0.68082    0.92630    1.000
    O4       O        0.94581    0.58007    0.01780    1.000
    N7       N        0.87681    0.48473    0.18820    1.000
    N8       N        0.73753    0.54952    0.00960    1.000
    N9       N        0.65335    0.55117    0.99410    1.000
    N10      N        0.65435    0.50931    0.10120    1.000
    N11      N        0.73930    0.47750    0.19230    1.000
    N12      N        0.14487    0.82047    0.23350    1.000
    C8       C        0.92843    0.65208    0.00300    1.000
    C9       C        0.00412    0.71202    0.08130    1.000
    C10      C        0.09316    0.68622    0.16880    1.000
    H7       H        0.10670    0.63210    0.17750    1.000
    C11      C        0.16129    0.74168    0.24270    1.000
    H8       H        0.22090    0.72400    0.30110    1.000
    C12      C        0.05875    0.84516    0.14710    1.000
    H9       H        0.04690    0.89960    0.13850    1.000
    C13      C        0.98692    0.79294    0.07020    1.000
    H10      H        0.92790    0.81200    0.01170    1.000
    C14      C        0.78854    0.50323    0.13250    1.000
    H11      H        0.90400    0.47400    0.27300    1.000
    H12      H        0.90400    0.51000    0.14400    1.000
    Zn3      Zn       0.25128    0.89763    0.34569    1.000
    O5       O        0.34860    0.81918    0.42630    1.000
    O6       O        0.44581    0.91993    0.51780    1.000
    N13      N        0.37681    0.01527    0.68820    1.000
    N14      N        0.23753    0.95048    0.50960    1.000
    N15      N        0.15335    0.94883    0.49410    1.000
    N16      N        0.15435    0.99069    0.60120    1.000
    N17      N        0.23930    0.02250    0.69230    1.000
    N18      N        0.64487    0.67953    0.73350    1.000
    C15      C        0.42843    0.84792    0.50300    1.000
    C16      C        0.50412    0.78798    0.58130    1.000
    C17      C        0.59316    0.81378    0.66880    1.000
    H13      H        0.60670    0.86790    0.67750    1.000
    C18      C        0.66129    0.75832    0.74270    1.000
    H14      H        0.72090    0.77600    0.80110    1.000
    C19      C        0.55875    0.65484    0.64710    1.000
    H15      H        0.54690    0.60040    0.63850    1.000
    C20      C        0.48692    0.70706    0.57020    1.000
    H16      H        0.42790    0.68800    0.51170    1.000
    C21      C        0.28854    0.99677    0.63250    1.000
    H17      H        0.40400    0.02600    0.77300    1.000
    H18      H        0.40400    0.99000    0.64400    1.000
    Zn4      Zn       0.75128    0.39763    0.34569    1.000
    O7       O        0.84860    0.31918    0.42630    1.000
    O8       O        0.94581    0.41993    0.51780    1.000
    N19      N        0.87681    0.51527    0.68820    1.000
    N20      N        0.73753    0.45048    0.50960    1.000
    N21      N        0.65335    0.44883    0.49410    1.000
    N22      N        0.65435    0.49069    0.60120    1.000
    N23      N        0.73930    0.52250    0.69230    1.000
    N24      N        0.14487    0.17953    0.73350    1.000
    C22      C        0.92843    0.34792    0.50300    1.000
    C23      C        0.00412    0.28798    0.58130    1.000
    C24      C        0.09316    0.31378    0.66880    1.000
    H19      H        0.10670    0.36790    0.67750    1.000
    C25      C        0.16129    0.25832    0.74270    1.000
    H20      H        0.22090    0.27600    0.80110    1.000
    C26      C        0.05875    0.15484    0.64710    1.000
    H21      H        0.04690    0.10040    0.63850    1.000
    C27      C        0.98692    0.20706    0.57020    1.000
    H22      H        0.92790    0.18800    0.51170    1.000
    C28      C        0.78854    0.49677    0.63250    1.000
    H23      H        0.90400    0.52600    0.77300    1.000
    H24      H        0.90400    0.49000    0.64400    1.000
    Zn5      Zn       0.74872    0.10237    0.65431    1.000
    O9       O        0.65140    0.18082    0.57370    1.000
    O10      O        0.55419    0.08007    0.48220    1.000
    N25      N        0.62319    0.98473    0.31180    1.000
    N26      N        0.76247    0.04952    0.49040    1.000
    N27      N        0.84665    0.05117    0.50590    1.000
    N28      N        0.84565    0.00931    0.39880    1.000
    N29      N        0.76070    0.97750    0.30770    1.000
    N30      N        0.35513    0.32047    0.26650    1.000
    C29      C        0.57157    0.15208    0.49700    1.000
    C30      C        0.49588    0.21202    0.41870    1.000
    C31      C        0.40684    0.18622    0.33120    1.000
    H25      H        0.39330    0.13210    0.32250    1.000
    C32      C        0.33871    0.24168    0.25730    1.000
    H26      H        0.27910    0.22400    0.19890    1.000
    C33      C        0.44125    0.34516    0.35290    1.000
    H27      H        0.45310    0.39960    0.36150    1.000
    C34      C        0.51308    0.29294    0.42980    1.000
    H28      H        0.57210    0.31200    0.48830    1.000
    C35      C        0.71146    0.00323    0.36750    1.000
    H29      H        0.59600    0.97400    0.22700    1.000
    H30      H        0.59600    0.01000    0.35600    1.000
    Zn6      Zn       0.24872    0.60237    0.65431    1.000
    O11      O        0.15140    0.68082    0.57370    1.000
    O12      O        0.05419    0.58007    0.48220    1.000
    N31      N        0.12319    0.48473    0.31180    1.000
    N32      N        0.26247    0.54952    0.49040    1.000
    N33      N        0.34665    0.55117    0.50590    1.000
    N34      N        0.34565    0.50931    0.39880    1.000
    N35      N        0.26070    0.47750    0.30770    1.000
    N36      N        0.85513    0.82047    0.26650    1.000
    C36      C        0.07157    0.65208    0.49700    1.000
    C37      C        0.99588    0.71202    0.41870    1.000
    C38      C        0.90684    0.68622    0.33120    1.000
    H31      H        0.89330    0.63210    0.32250    1.000
    C39      C        0.83871    0.74168    0.25730    1.000
    H32      H        0.77910    0.72400    0.19890    1.000
    C40      C        0.94125    0.84516    0.35290    1.000
    H33      H        0.95310    0.89960    0.36150    1.000
    C41      C        0.01308    0.79294    0.42980    1.000
    H34      H        0.07210    0.81200    0.48830    1.000
    C42      C        0.21146    0.50323    0.36750    1.000
    H35      H        0.09600    0.47400    0.22700    1.000
    H36      H        0.09600    0.51000    0.35600    1.000
    Zn7      Zn       0.74872    0.89763    0.15431    1.000
    O13      O        0.65140    0.81918    0.07370    1.000
    O14      O        0.55419    0.91993    0.98220    1.000
    N37      N        0.62319    0.01527    0.81180    1.000
    N38      N        0.76247    0.95048    0.99040    1.000
    N39      N        0.84665    0.94883    0.00590    1.000
    N40      N        0.84565    0.99069    0.89880    1.000
    N41      N        0.76070    0.02250    0.80770    1.000
    N42      N        0.35513    0.67953    0.76650    1.000
    C43      C        0.57157    0.84792    0.99700    1.000
    C44      C        0.49588    0.78798    0.91870    1.000
    C45      C        0.40684    0.81378    0.83120    1.000
    H37      H        0.39330    0.86790    0.82250    1.000
    C46      C        0.33871    0.75832    0.75730    1.000
    H38      H        0.27910    0.77600    0.69890    1.000
    C47      C        0.44125    0.65484    0.85290    1.000
    H39      H        0.45310    0.60040    0.86150    1.000
    C48      C        0.51308    0.70706    0.92980    1.000
    H40      H        0.57210    0.68800    0.98830    1.000
    C49      C        0.71146    0.99677    0.86750    1.000
    H41      H        0.59600    0.02600    0.72700    1.000
    H42      H        0.59600    0.99000    0.85600    1.000
    Zn8      Zn       0.24872    0.39763    0.15431    1.000
    O15      O        0.15140    0.31918    0.07370    1.000
    O16      O        0.05419    0.41993    0.98220    1.000
    N43      N        0.12319    0.51527    0.81180    1.000
    N44      N        0.26247    0.45048    0.99040    1.000
    N45      N        0.34665    0.44883    0.00590    1.000
    N46      N        0.34565    0.49069    0.89880    1.000
    N47      N        0.26070    0.52250    0.80770    1.000
    N48      N        0.85513    0.17953    0.76650    1.000
    C50      C        0.07157    0.34792    0.99700    1.000
    C51      C        0.99588    0.28798    0.91870    1.000
    C52      C        0.90684    0.31378    0.83120    1.000
    H43      H        0.89330    0.36790    0.82250    1.000
    C53      C        0.83871    0.25832    0.75730    1.000
    H44      H        0.77910    0.27600    0.69890    1.000
    C54      C        0.94125    0.15484    0.85290    1.000
    H45      H        0.95310    0.10040    0.86150    1.000
    C55      C        0.01308    0.20706    0.92980    1.000
    H46      H        0.07210    0.18800    0.98830    1.000
    C56      C        0.21146    0.49677    0.86750    1.000
    H47      H        0.09600    0.52600    0.72700    1.000
    H48      H        0.09600    0.49000    0.85600    1.000
