# CIF file generated by openbabel 3.1.0, see https://openbabel.org
data_I
_chemical_name_common 'image0'
_cell_length_a 25.8977
_cell_length_b 25.8977
_cell_length_c 6.846
_cell_angle_alpha 90
_cell_angle_beta 90
_cell_angle_gamma 120
_space_group_name_H-M_alt 'P 1'
_space_group_name_Hall 'P 1'
loop_
    _symmetry_equiv_pos_as_xyz
    x,y,z
loop_
    _atom_site_label
    _atom_site_type_symbol
    _atom_site_fract_x
    _atom_site_fract_y
    _atom_site_fract_z
    _atom_site_occupancy
    Co1      Co       0.38160    0.34880    0.13300    1.000
    O1       O        0.32600    0.29730    0.37200    1.000
    O2       O        0.30220    0.22750    0.60110    1.000
    O3       O        0.35620    0.27400    0.00470    1.000
    C1       C        0.31650    0.24700    0.42750    1.000
    C2       C        0.33020    0.20820    0.28790    1.000
    C3       C        0.34730    0.22550    0.08910    1.000
    C4       C        0.35170    0.18090    0.97210    1.000
    H1       H        0.36160    0.19280    0.82600    1.000
    Co2      Co       0.04827    0.68213    0.46633    1.000
    O4       O        0.99267    0.63063    0.70533    1.000
    O5       O        0.96887    0.56083    0.93443    1.000
    O6       O        0.02287    0.60733    0.33803    1.000
    C5       C        0.98317    0.58033    0.76083    1.000
    C6       C        0.99687    0.54153    0.62123    1.000
    C7       C        0.01397    0.55883    0.42243    1.000
    C8       C        0.01837    0.51423    0.30543    1.000
    H2       H        0.02827    0.52613    0.15933    1.000
    Co3      Co       0.71493    0.01547    0.79967    1.000
    O7       O        0.65933    0.96397    0.03867    1.000
    O8       O        0.63553    0.89417    0.26777    1.000
    O9       O        0.68953    0.94067    0.67137    1.000
    C9       C        0.64983    0.91367    0.09417    1.000
    C10      C        0.66353    0.87487    0.95457    1.000
    C11      C        0.68063    0.89217    0.75577    1.000
    C12      C        0.68503    0.84757    0.63877    1.000
    H3       H        0.69493    0.85947    0.49267    1.000
    Co4      Co       0.65120    0.03280    0.13300    1.000
    O10      O        0.70270    0.02870    0.37200    1.000
    O11      O        0.77250    0.07470    0.60110    1.000
    O12      O        0.72600    0.08220    0.00470    1.000
    C13      C        0.75300    0.06950    0.42750    1.000
    C14      C        0.79180    0.12200    0.28790    1.000
    C15      C        0.77450    0.12180    0.08910    1.000
    C16      C        0.81910    0.17080    0.97210    1.000
    H4       H        0.80720    0.16880    0.82600    1.000
    Co5      Co       0.31787    0.36613    0.46633    1.000
    O13      O        0.36937    0.36203    0.70533    1.000
    O14      O        0.43917    0.40803    0.93443    1.000
    O15      O        0.39267    0.41553    0.33803    1.000
    C17      C        0.41967    0.40283    0.76083    1.000
    C18      C        0.45847    0.45533    0.62123    1.000
    C19      C        0.44117    0.45513    0.42243    1.000
    C20      C        0.48577    0.50413    0.30543    1.000
    H5       H        0.47387    0.50213    0.15933    1.000
    Co6      Co       0.98453    0.69947    0.79967    1.000
    O16      O        0.03603    0.69537    0.03867    1.000
    O17      O        0.10583    0.74137    0.26777    1.000
    O18      O        0.05933    0.74887    0.67137    1.000
    C21      C        0.08633    0.73617    0.09417    1.000
    C22      C        0.12513    0.78867    0.95457    1.000
    C23      C        0.10783    0.78847    0.75577    1.000
    C24      C        0.15243    0.83747    0.63877    1.000
    H6       H        0.14053    0.83547    0.49267    1.000
    Co7      Co       0.96720    0.61840    0.13300    1.000
    O19      O        0.97130    0.67400    0.37200    1.000
    O20      O        0.92530    0.69780    0.60110    1.000
    O21      O        0.91780    0.64380    0.00470    1.000
    C25      C        0.93050    0.68350    0.42750    1.000
    C26      C        0.87800    0.66980    0.28790    1.000
    C27      C        0.87820    0.65270    0.08910    1.000
    C28      C        0.82920    0.64830    0.97210    1.000
    H7       H        0.83120    0.63840    0.82600    1.000
    Co8      Co       0.63387    0.95173    0.46633    1.000
    O22      O        0.63797    0.00733    0.70533    1.000
    O23      O        0.59197    0.03113    0.93443    1.000
    O24      O        0.58447    0.97713    0.33803    1.000
    C29      C        0.59717    0.01683    0.76083    1.000
    C30      C        0.54467    0.00313    0.62123    1.000
    C31      C        0.54487    0.98603    0.42243    1.000
    C32      C        0.49587    0.98163    0.30543    1.000
    H8       H        0.49787    0.97173    0.15933    1.000
    Co9      Co       0.30053    0.28507    0.79967    1.000
    O25      O        0.30463    0.34067    0.03867    1.000
    O26      O        0.25863    0.36447    0.26777    1.000
    O27      O        0.25113    0.31047    0.67137    1.000
    C33      C        0.26383    0.35017    0.09417    1.000
    C34      C        0.21133    0.33647    0.95457    1.000
    C35      C        0.21153    0.31937    0.75577    1.000
    C36      C        0.16253    0.31497    0.63877    1.000
    H9       H        0.16453    0.30507    0.49267    1.000
    Co10     Co       0.61840    0.65120    0.86700    1.000
    O28      O        0.67400    0.70270    0.62800    1.000
    O29      O        0.69780    0.77250    0.39890    1.000
    O30      O        0.64380    0.72600    0.99530    1.000
    C37      C        0.68350    0.75300    0.57250    1.000
    C38      C        0.66980    0.79180    0.71210    1.000
    C39      C        0.65270    0.77450    0.91090    1.000
    C40      C        0.64830    0.81910    0.02790    1.000
    H10      H        0.63840    0.80720    0.17400    1.000
    Co11     Co       0.28507    0.98453    0.20033    1.000
    O31      O        0.34067    0.03603    0.96133    1.000
    O32      O        0.36447    0.10583    0.73223    1.000
    O33      O        0.31047    0.05933    0.32863    1.000
    C41      C        0.35017    0.08633    0.90583    1.000
    C42      C        0.33647    0.12513    0.04543    1.000
    C43      C        0.31937    0.10783    0.24423    1.000
    C44      C        0.31497    0.15243    0.36123    1.000
    H11      H        0.30507    0.14053    0.50733    1.000
    Co12     Co       0.95173    0.31787    0.53367    1.000
    O34      O        0.00733    0.36937    0.29467    1.000
    O35      O        0.03113    0.43917    0.06557    1.000
    O36      O        0.97713    0.39267    0.66197    1.000
    C45      C        0.01683    0.41967    0.23917    1.000
    C46      C        0.00313    0.45847    0.37877    1.000
    C47      C        0.98603    0.44117    0.57757    1.000
    C48      C        0.98163    0.48577    0.69457    1.000
    H12      H        0.97173    0.47387    0.84067    1.000
    Co13     Co       0.34880    0.96720    0.86700    1.000
    O37      O        0.29730    0.97130    0.62800    1.000
    O38      O        0.22750    0.92530    0.39890    1.000
    O39      O        0.27400    0.91780    0.99530    1.000
    C49      C        0.24700    0.93050    0.57250    1.000
    C50      C        0.20820    0.87800    0.71210    1.000
    C51      C        0.22550    0.87820    0.91090    1.000
    C52      C        0.18090    0.82920    0.02790    1.000
    H13      H        0.19280    0.83120    0.17400    1.000
    Co14     Co       0.01547    0.30053    0.20033    1.000
    O40      O        0.96397    0.30463    0.96133    1.000
    O41      O        0.89417    0.25863    0.73223    1.000
    O42      O        0.94067    0.25113    0.32863    1.000
    C53      C        0.91367    0.26383    0.90583    1.000
    C54      C        0.87487    0.21133    0.04543    1.000
    C55      C        0.89217    0.21153    0.24423    1.000
    C56      C        0.84757    0.16253    0.36123    1.000
    H14      H        0.85947    0.16453    0.50733    1.000
    Co15     Co       0.68213    0.63387    0.53367    1.000
    O43      O        0.63063    0.63797    0.29467    1.000
    O44      O        0.56083    0.59197    0.06557    1.000
    O45      O        0.60733    0.58447    0.66197    1.000
    C57      C        0.58033    0.59717    0.23917    1.000
    C58      C        0.54153    0.54467    0.37877    1.000
    C59      C        0.55883    0.54487    0.57757    1.000
    C60      C        0.51423    0.49587    0.69457    1.000
    H15      H        0.52613    0.49787    0.84067    1.000
    Co16     Co       0.03280    0.38160    0.86700    1.000
    O46      O        0.02870    0.32600    0.62800    1.000
    O47      O        0.07470    0.30220    0.39890    1.000
    O48      O        0.08220    0.35620    0.99530    1.000
    C61      C        0.06950    0.31650    0.57250    1.000
    C62      C        0.12200    0.33020    0.71210    1.000
    C63      C        0.12180    0.34730    0.91090    1.000
    C64      C        0.17080    0.35170    0.02790    1.000
    H16      H        0.16880    0.36160    0.17400    1.000
    Co17     Co       0.69947    0.71493    0.20033    1.000
    O49      O        0.69537    0.65933    0.96133    1.000
    O50      O        0.74137    0.63553    0.73223    1.000
    O51      O        0.74887    0.68953    0.32863    1.000
    C65      C        0.73617    0.64983    0.90583    1.000
    C66      C        0.78867    0.66353    0.04543    1.000
    C67      C        0.78847    0.68063    0.24423    1.000
    C68      C        0.83747    0.68503    0.36123    1.000
    H17      H        0.83547    0.69493    0.50733    1.000
    Co18     Co       0.36613    0.04827    0.53367    1.000
    O52      O        0.36203    0.99267    0.29467    1.000
    O53      O        0.40803    0.96887    0.06557    1.000
    O54      O        0.41553    0.02287    0.66197    1.000
    C69      C        0.40283    0.98317    0.23917    1.000
    C70      C        0.45533    0.99687    0.37877    1.000
    C71      C        0.45513    0.01397    0.57757    1.000
    C72      C        0.50413    0.01837    0.69457    1.000
    H18      H        0.50213    0.02827    0.84067    1.000
