data_functionalizedCrystal
_audit_creation_method	'EQeq! by Chris Wilmer'
_symmetry_space_group_name_H-M	'P1'
_symmetry_Int_Tables_number	1
_symmetry_cell_setting	triclinic
loop_
_symmetry_equiv_pos_as_xyz
  x,y,z
_cell_length_a	50.72
_cell_length_b	50.72
_cell_length_c	15.502
_cell_angle_alpha	90
_cell_angle_beta	90
_cell_angle_gamma	120
loop_
_atom_site_label
_atom_site_type_symbol
_atom_site_fract_x
_atom_site_fract_y
_atom_site_fract_z
_atom_site_charge
Mof_O 	O 	0.51047	0.07494	0.09308	-0.69
Mof_O 	O 	0.47	0.0422	0.16605	-0.79
Mof_C 	C 	0.4897	0.06984	0.14833	0.549
Mof_C 	C 	0.48787	0.09579	0.19334	-0.202
Mof_C 	C 	0.45968	0.09241	0.21417	0.078
Mof_C 	C 	0.45802	0.11594	0.25498	-0.131
Mof_C 	C 	0.48417	0.14309	0.27572	0.067
Mof_C 	C 	0.51273	0.14622	0.25413	-0.125
Mof_C 	C 	0.51439	0.12269	0.21332	0.077
Mof_C 	C 	0.48165	0.1679	0.31947	-0.027
Mof_C 	C 	0.45505	0.16133	0.36274	-0.016
Mof_C 	C 	0.45271	0.18448	0.40355	-0.072
Mof_C 	C 	0.47694	0.2142	0.40116	0.037
Mof_C 	C 	0.50357	0.22075	0.35782	-0.067
Mof_C 	C 	0.50591	0.19761	0.31701	-0.024
Mof_H 	H 	0.4406	0.07306	0.1998	-0.014
Mof_H 	H 	0.43775	0.11351	0.26996	0.057
Mof_H 	H 	0.53194	0.16549	0.26824	0.061
Mof_H 	H 	0.53466	0.12512	0.19834	0.005
Mof_H 	H 	0.43601	0.13801	0.36467	0.021
Mof_H 	H 	0.43356	0.17972	0.43466	0.044
Mof_H 	H 	0.52103	0.24212	0.35603	0.045
Mof_H 	H 	0.52505	0.20233	0.28588	0.03
Mof_O 	O 	0.92506	0.43553	0.09308	-0.691
Mof_O 	O 	0.9578	0.4278	0.16605	-0.786
Mof_C 	C 	0.93016	0.41986	0.14833	0.549
Mof_C 	C 	0.90421	0.39208	0.19334	-0.201
Mof_C 	C 	0.90759	0.36727	0.21417	0.078
Mof_C 	C 	0.88406	0.34208	0.25498	-0.13
Mof_C 	C 	0.85691	0.34108	0.27572	0.067
Mof_C 	C 	0.85378	0.36651	0.25413	-0.125
Mof_C 	C 	0.87731	0.3917	0.21332	0.076
Mof_C 	C 	0.8321	0.31375	0.31947	-0.026
Mof_C 	C 	0.83867	0.29372	0.36274	-0.016
Mof_C 	C 	0.81552	0.26823	0.40355	-0.072
Mof_C 	C 	0.7858	0.26274	0.40116	0.037
Mof_C 	C 	0.77925	0.28282	0.35782	-0.067
Mof_C 	C 	0.80239	0.3083	0.31701	-0.024
Mof_H 	H 	0.92694	0.36754	0.1998	-0.012
Mof_H 	H 	0.88649	0.32424	0.26996	0.058
Mof_H 	H 	0.83451	0.36645	0.26824	0.061
Mof_H 	H 	0.87488	0.40954	0.19834	0.006
Mof_H 	H 	0.86199	0.298	0.36467	0.022
Mof_H 	H 	0.82028	0.25384	0.43466	0.045
Mof_H 	H 	0.75788	0.27891	0.35603	0.045
Mof_H 	H 	0.79767	0.32272	0.28588	0.03
Mof_O 	O 	0.56447	0.48953	0.09308	-0.691
Mof_O 	O 	0.5722	0.53	0.16605	-0.789
Mof_C 	C 	0.58014	0.5103	0.14833	0.549
Mof_C 	C 	0.60792	0.51213	0.19334	-0.201
Mof_C 	C 	0.63273	0.54032	0.21417	0.078
Mof_C 	C 	0.65792	0.54198	0.25498	-0.13
Mof_C 	C 	0.65892	0.51583	0.27572	0.067
Mof_C 	C 	0.63349	0.48727	0.25413	-0.125
Mof_C 	C 	0.6083	0.48561	0.21332	0.077
Mof_C 	C 	0.68625	0.51835	0.31947	-0.026
Mof_C 	C 	0.70628	0.54495	0.36274	-0.016
Mof_C 	C 	0.73177	0.54729	0.40355	-0.072
Mof_C 	C 	0.73726	0.52306	0.40116	0.037
Mof_C 	C 	0.71718	0.49643	0.35782	-0.067
Mof_C 	C 	0.6917	0.49409	0.31701	-0.024
Mof_H 	H 	0.63246	0.5594	0.1998	-0.013
Mof_H 	H 	0.67576	0.56225	0.26996	0.058
Mof_H 	H 	0.63355	0.46806	0.26824	0.061
Mof_H 	H 	0.59046	0.46534	0.19834	0.006
Mof_H 	H 	0.702	0.56399	0.36467	0.022
Mof_H 	H 	0.74616	0.56644	0.43466	0.045
Mof_H 	H 	0.72109	0.47897	0.35603	0.045
Mof_H 	H 	0.67728	0.47495	0.28588	0.03
Mof_O 	O 	0.48953	0.92506	0.09308	-0.691
Mof_O 	O 	0.53	0.9578	0.16605	-0.786
Mof_C 	C 	0.5103	0.93016	0.14833	0.549
Mof_C 	C 	0.51213	0.90421	0.19334	-0.201
Mof_C 	C 	0.54032	0.90759	0.21417	0.078
Mof_C 	C 	0.54198	0.88406	0.25498	-0.13
Mof_C 	C 	0.51583	0.85691	0.27572	0.067
Mof_C 	C 	0.48727	0.85378	0.25413	-0.125
Mof_C 	C 	0.48561	0.87731	0.21332	0.076
Mof_C 	C 	0.51835	0.8321	0.31947	-0.026
Mof_C 	C 	0.54495	0.83867	0.36274	-0.016
Mof_C 	C 	0.54729	0.81552	0.40355	-0.072
Mof_C 	C 	0.52306	0.7858	0.40116	0.037
Mof_C 	C 	0.49643	0.77925	0.35782	-0.067
Mof_C 	C 	0.49409	0.80239	0.31701	-0.024
Mof_H 	H 	0.5594	0.92694	0.1998	-0.012
Mof_H 	H 	0.56225	0.88649	0.26996	0.058
Mof_H 	H 	0.46806	0.83451	0.26824	0.061
Mof_H 	H 	0.46534	0.87488	0.19834	0.006
Mof_H 	H 	0.56399	0.86199	0.36467	0.022
Mof_H 	H 	0.56644	0.82028	0.43466	0.045
Mof_H 	H 	0.47897	0.75788	0.35603	0.045
Mof_H 	H 	0.47495	0.79767	0.28588	0.03
Mof_O 	O 	0.07494	0.56447	0.09308	-0.691
Mof_O 	O 	0.0422	0.5722	0.16605	-0.791
Mof_C 	C 	0.06984	0.58014	0.14833	0.55
Mof_C 	C 	0.09579	0.60792	0.19334	-0.202
Mof_C 	C 	0.09241	0.63273	0.21417	0.078
Mof_C 	C 	0.11594	0.65792	0.25498	-0.131
Mof_C 	C 	0.14309	0.65892	0.27572	0.067
Mof_C 	C 	0.14622	0.63349	0.25413	-0.125
Mof_C 	C 	0.12269	0.6083	0.21332	0.077
Mof_C 	C 	0.1679	0.68625	0.31947	-0.027
Mof_C 	C 	0.16133	0.70628	0.36274	-0.016
Mof_C 	C 	0.18448	0.73177	0.40355	-0.072
Mof_C 	C 	0.2142	0.73726	0.40116	0.037
Mof_C 	C 	0.22075	0.71718	0.35782	-0.068
Mof_C 	C 	0.19761	0.6917	0.31701	-0.024
Mof_H 	H 	0.07306	0.63246	0.1998	-0.014
Mof_H 	H 	0.11351	0.67576	0.26996	0.057
Mof_H 	H 	0.16549	0.63355	0.26824	0.061
Mof_H 	H 	0.12512	0.59046	0.19834	0.005
Mof_H 	H 	0.13801	0.702	0.36467	0.021
Mof_H 	H 	0.17972	0.74616	0.43466	0.045
Mof_H 	H 	0.24212	0.72109	0.35603	0.045
Mof_H 	H 	0.20233	0.67728	0.28588	0.03
Mof_O 	O 	0.43553	0.51047	0.09308	-0.691
Mof_O 	O 	0.4278	0.47	0.16605	-0.789
Mof_C 	C 	0.41986	0.4897	0.14833	0.549
Mof_C 	C 	0.39208	0.48787	0.19334	-0.201
Mof_C 	C 	0.36727	0.45968	0.21417	0.078
Mof_C 	C 	0.34208	0.45802	0.25498	-0.13
Mof_C 	C 	0.34108	0.48417	0.27572	0.067
Mof_C 	C 	0.36651	0.51273	0.25413	-0.125
Mof_C 	C 	0.3917	0.51439	0.21332	0.077
Mof_C 	C 	0.31375	0.48165	0.31947	-0.026
Mof_C 	C 	0.29372	0.45505	0.36274	-0.016
Mof_C 	C 	0.26823	0.45271	0.40355	-0.072
Mof_C 	C 	0.26274	0.47694	0.40116	0.037
Mof_C 	C 	0.28282	0.50357	0.35782	-0.067
Mof_C 	C 	0.3083	0.50591	0.31701	-0.024
Mof_H 	H 	0.36754	0.4406	0.1998	-0.013
Mof_H 	H 	0.32424	0.43775	0.26996	0.057
Mof_H 	H 	0.36645	0.53194	0.26824	0.061
Mof_H 	H 	0.40954	0.53466	0.19834	0.006
Mof_H 	H 	0.298	0.43601	0.36467	0.021
Mof_H 	H 	0.25384	0.43356	0.43466	0.045
Mof_H 	H 	0.27891	0.52103	0.35603	0.045
Mof_H 	H 	0.32272	0.52505	0.28588	0.03
Mof_O 	O 	0.07494	0.51047	0.90692	-0.676
Mof_O 	O 	0.0422	0.47	0.83395	-0.784
Mof_C 	C 	0.06984	0.4897	0.85167	0.549
Mof_C 	C 	0.09579	0.48787	0.80666	-0.196
Mof_C 	C 	0.09241	0.45968	0.78583	0.078
Mof_C 	C 	0.11594	0.45802	0.74502	-0.127
Mof_C 	C 	0.14309	0.48417	0.72428	0.068
Mof_C 	C 	0.14622	0.51273	0.74587	-0.122
Mof_C 	C 	0.12269	0.51439	0.78668	0.077
Mof_C 	C 	0.1679	0.48165	0.68053	-0.024
Mof_C 	C 	0.16133	0.45505	0.63726	-0.015
Mof_C 	C 	0.18448	0.45271	0.59645	-0.07
Mof_C 	C 	0.2142	0.47694	0.59884	0.038
Mof_C 	C 	0.22075	0.50357	0.64218	-0.066
Mof_C 	C 	0.19761	0.50591	0.68299	-0.023
Mof_H 	H 	0.07306	0.4406	0.8002	-0.009
Mof_H 	H 	0.11351	0.43775	0.73004	0.059
Mof_H 	H 	0.16549	0.53194	0.73176	0.063
Mof_H 	H 	0.12512	0.53466	0.80166	0.009
Mof_H 	H 	0.13801	0.43601	0.63533	0.023
Mof_H 	H 	0.17972	0.43356	0.56534	0.045
Mof_H 	H 	0.24212	0.52103	0.64397	0.047
Mof_H 	H 	0.20233	0.52505	0.71412	0.034
Mof_O 	O 	0.43553	0.92506	0.90692	-0.675
Mof_O 	O 	0.4278	0.9578	0.83395	-0.779
Mof_C 	C 	0.41986	0.93016	0.85167	0.548
Mof_C 	C 	0.39208	0.90421	0.80666	-0.195
Mof_C 	C 	0.36727	0.90759	0.78583	0.078
Mof_C 	C 	0.34208	0.88406	0.74502	-0.126
Mof_C 	C 	0.34108	0.85691	0.72428	0.068
Mof_C 	C 	0.36651	0.85378	0.74587	-0.122
Mof_C 	C 	0.3917	0.87731	0.78668	0.077
Mof_C 	C 	0.31375	0.8321	0.68053	-0.024
Mof_C 	C 	0.29372	0.83867	0.63726	-0.015
Mof_C 	C 	0.26823	0.81552	0.59645	-0.07
Mof_C 	C 	0.26274	0.7858	0.59884	0.038
Mof_C 	C 	0.28282	0.77925	0.64218	-0.066
Mof_C 	C 	0.3083	0.80239	0.68299	-0.023
Mof_H 	H 	0.36754	0.92694	0.8002	-0.006
Mof_H 	H 	0.32424	0.88649	0.73004	0.06
Mof_H 	H 	0.36645	0.83451	0.73176	0.063
Mof_H 	H 	0.40954	0.87488	0.80166	0.01
Mof_H 	H 	0.298	0.86199	0.63533	0.023
Mof_H 	H 	0.25384	0.82028	0.56534	0.046
Mof_H 	H 	0.27891	0.75788	0.64397	0.047
Mof_H 	H 	0.32272	0.79767	0.71412	0.034
Mof_O 	O 	0.48953	0.56447	0.90692	-0.676
Mof_O 	O 	0.53	0.5722	0.83395	-0.782
Mof_C 	C 	0.5103	0.58014	0.85167	0.549
Mof_C 	C 	0.51213	0.60792	0.80666	-0.195
Mof_C 	C 	0.54032	0.63273	0.78583	0.078
Mof_C 	C 	0.54198	0.65792	0.74502	-0.127
Mof_C 	C 	0.51583	0.65892	0.72428	0.068
Mof_C 	C 	0.48727	0.63349	0.74587	-0.122
Mof_C 	C 	0.48561	0.6083	0.78668	0.077
Mof_C 	C 	0.51835	0.68625	0.68053	-0.024
Mof_C 	C 	0.54495	0.70628	0.63726	-0.015
Mof_C 	C 	0.54729	0.73177	0.59645	-0.07
Mof_C 	C 	0.52306	0.73726	0.59884	0.038
Mof_C 	C 	0.49643	0.71718	0.64218	-0.066
Mof_C 	C 	0.49409	0.6917	0.68299	-0.023
Mof_H 	H 	0.5594	0.63246	0.8002	-0.007
Mof_H 	H 	0.56225	0.67576	0.73004	0.06
Mof_H 	H 	0.46806	0.63355	0.73176	0.063
Mof_H 	H 	0.46534	0.59046	0.80166	0.009
Mof_H 	H 	0.56399	0.702	0.63533	0.023
Mof_H 	H 	0.56644	0.74616	0.56534	0.046
Mof_H 	H 	0.47897	0.72109	0.64397	0.047
Mof_H 	H 	0.47495	0.67728	0.71412	0.034
Mof_O 	O 	0.92506	0.48953	0.90692	-0.675
Mof_O 	O 	0.9578	0.53	0.83395	-0.779
Mof_C 	C 	0.93016	0.5103	0.85167	0.548
Mof_C 	C 	0.90421	0.51213	0.80666	-0.194
Mof_C 	C 	0.90759	0.54032	0.78583	0.078
Mof_C 	C 	0.88406	0.54198	0.74502	-0.126
Mof_C 	C 	0.85691	0.51583	0.72428	0.068
Mof_C 	C 	0.85378	0.48727	0.74587	-0.122
Mof_C 	C 	0.87731	0.48561	0.78668	0.077
Mof_C 	C 	0.8321	0.51835	0.68053	-0.024
Mof_C 	C 	0.83867	0.54495	0.63726	-0.015
Mof_C 	C 	0.81552	0.54729	0.59645	-0.07
Mof_C 	C 	0.7858	0.52306	0.59884	0.038
Mof_C 	C 	0.77925	0.49643	0.64218	-0.066
Mof_C 	C 	0.80239	0.49409	0.68299	-0.023
Mof_H 	H 	0.92694	0.5594	0.8002	-0.006
Mof_H 	H 	0.88649	0.56225	0.73004	0.06
Mof_H 	H 	0.83451	0.46806	0.73176	0.063
Mof_H 	H 	0.87488	0.46534	0.80166	0.01
Mof_H 	H 	0.86199	0.56399	0.63533	0.024
Mof_H 	H 	0.82028	0.56644	0.56534	0.046
Mof_H 	H 	0.75788	0.47897	0.64397	0.047
Mof_H 	H 	0.79767	0.47495	0.71412	0.034
Mof_O 	O 	0.56447	0.07494	0.90692	-0.676
Mof_O 	O 	0.5722	0.0422	0.83395	-0.784
Mof_C 	C 	0.58014	0.06984	0.85167	0.549
Mof_C 	C 	0.60792	0.09579	0.80666	-0.196
Mof_C 	C 	0.63273	0.09241	0.78583	0.078
Mof_C 	C 	0.65792	0.11594	0.74502	-0.127
Mof_C 	C 	0.65892	0.14309	0.72428	0.068
Mof_C 	C 	0.63349	0.14622	0.74587	-0.122
Mof_C 	C 	0.6083	0.12269	0.78668	0.077
Mof_C 	C 	0.68625	0.1679	0.68053	-0.024
Mof_C 	C 	0.70628	0.16133	0.63726	-0.015
Mof_C 	C 	0.73177	0.18448	0.59645	-0.07
Mof_C 	C 	0.73726	0.2142	0.59884	0.038
Mof_C 	C 	0.71718	0.22075	0.64218	-0.066
Mof_C 	C 	0.6917	0.19761	0.68299	-0.023
Mof_H 	H 	0.63246	0.07306	0.8002	-0.008
Mof_H 	H 	0.67576	0.11351	0.73004	0.06
Mof_H 	H 	0.63355	0.16549	0.73176	0.063
Mof_H 	H 	0.59046	0.12512	0.80166	0.009
Mof_H 	H 	0.702	0.13801	0.63533	0.023
Mof_H 	H 	0.74616	0.17972	0.56534	0.045
Mof_H 	H 	0.72109	0.24212	0.64397	0.047
Mof_H 	H 	0.67728	0.20233	0.71412	0.034
Mof_O 	O 	0.51047	0.43553	0.90692	-0.676
Mof_O 	O 	0.47	0.4278	0.83395	-0.782
Mof_C 	C 	0.4897	0.41986	0.85167	0.549
Mof_C 	C 	0.48787	0.39208	0.80666	-0.195
Mof_C 	C 	0.45968	0.36727	0.78583	0.078
Mof_C 	C 	0.45802	0.34208	0.74502	-0.127
Mof_C 	C 	0.48417	0.34108	0.72428	0.068
Mof_C 	C 	0.51273	0.36651	0.74587	-0.122
Mof_C 	C 	0.51439	0.3917	0.78668	0.077
Mof_C 	C 	0.48165	0.31375	0.68053	-0.024
Mof_C 	C 	0.45505	0.29372	0.63726	-0.015
Mof_C 	C 	0.45271	0.26823	0.59645	-0.07
Mof_C 	C 	0.47694	0.26274	0.59884	0.038
Mof_C 	C 	0.50357	0.28282	0.64218	-0.066
Mof_C 	C 	0.50591	0.3083	0.68299	-0.023
Mof_H 	H 	0.4406	0.36754	0.8002	-0.008
Mof_H 	H 	0.43775	0.32424	0.73004	0.06
Mof_H 	H 	0.53194	0.36645	0.73176	0.063
Mof_H 	H 	0.53466	0.40954	0.80166	0.009
Mof_H 	H 	0.43601	0.298	0.63533	0.023
Mof_H 	H 	0.43356	0.25384	0.56534	0.045
Mof_H 	H 	0.52103	0.27891	0.64397	0.047
Mof_H 	H 	0.52505	0.32272	0.71412	0.034
Mof_O 	O 	0.48953	0.92506	0.90692	-0.675
Mof_O 	O 	0.53	0.9578	0.83395	-0.779
Mof_C 	C 	0.5103	0.93016	0.85167	0.548
Mof_C 	C 	0.51213	0.90421	0.80666	-0.194
Mof_C 	C 	0.54032	0.90759	0.78583	0.078
Mof_C 	C 	0.54198	0.88406	0.74502	-0.126
Mof_C 	C 	0.51583	0.85691	0.72428	0.068
Mof_C 	C 	0.48727	0.85378	0.74587	-0.122
Mof_C 	C 	0.48561	0.87731	0.78668	0.077
Mof_C 	C 	0.51835	0.8321	0.68053	-0.024
Mof_C 	C 	0.54495	0.83867	0.63726	-0.015
Mof_C 	C 	0.54729	0.81552	0.59645	-0.07
Mof_C 	C 	0.52306	0.7858	0.59884	0.038
Mof_C 	C 	0.49643	0.77925	0.64218	-0.066
Mof_C 	C 	0.49409	0.80239	0.68299	-0.023
Mof_H 	H 	0.5594	0.92694	0.8002	-0.006
Mof_H 	H 	0.56225	0.88649	0.73004	0.06
Mof_H 	H 	0.46806	0.83451	0.73176	0.063
Mof_H 	H 	0.46534	0.87488	0.80166	0.01
Mof_H 	H 	0.56399	0.86199	0.63533	0.024
Mof_H 	H 	0.56644	0.82028	0.56534	0.046
Mof_H 	H 	0.47897	0.75788	0.64397	0.047
Mof_H 	H 	0.47495	0.79767	0.71412	0.034
Mof_O 	O 	0.07494	0.56447	0.90692	-0.676
Mof_O 	O 	0.0422	0.5722	0.83395	-0.784
Mof_C 	C 	0.06984	0.58014	0.85167	0.549
Mof_C 	C 	0.09579	0.60792	0.80666	-0.196
Mof_C 	C 	0.09241	0.63273	0.78583	0.078
Mof_C 	C 	0.11594	0.65792	0.74502	-0.127
Mof_C 	C 	0.14309	0.65892	0.72428	0.068
Mof_C 	C 	0.14622	0.63349	0.74587	-0.122
Mof_C 	C 	0.12269	0.6083	0.78668	0.077
Mof_C 	C 	0.1679	0.68625	0.68053	-0.024
Mof_C 	C 	0.16133	0.70628	0.63726	-0.015
Mof_C 	C 	0.18448	0.73177	0.59645	-0.07
Mof_C 	C 	0.2142	0.73726	0.59884	0.038
Mof_C 	C 	0.22075	0.71718	0.64218	-0.066
Mof_C 	C 	0.19761	0.6917	0.68299	-0.023
Mof_H 	H 	0.07306	0.63246	0.8002	-0.008
Mof_H 	H 	0.11351	0.67576	0.73004	0.06
Mof_H 	H 	0.16549	0.63355	0.73176	0.063
Mof_H 	H 	0.12512	0.59046	0.80166	0.009
Mof_H 	H 	0.13801	0.702	0.63533	0.023
Mof_H 	H 	0.17972	0.74616	0.56534	0.045
Mof_H 	H 	0.24212	0.72109	0.64397	0.047
Mof_H 	H 	0.20233	0.67728	0.71412	0.034
Mof_O 	O 	0.43553	0.51047	0.90692	-0.676
Mof_O 	O 	0.4278	0.47	0.83395	-0.782
Mof_C 	C 	0.41986	0.4897	0.85167	0.549
Mof_C 	C 	0.39208	0.48787	0.80666	-0.195
Mof_C 	C 	0.36727	0.45968	0.78583	0.078
Mof_C 	C 	0.34208	0.45802	0.74502	-0.127
Mof_C 	C 	0.34108	0.48417	0.72428	0.068
Mof_C 	C 	0.36651	0.51273	0.74587	-0.122
Mof_C 	C 	0.3917	0.51439	0.78668	0.077
Mof_C 	C 	0.31375	0.48165	0.68053	-0.024
Mof_C 	C 	0.29372	0.45505	0.63726	-0.015
Mof_C 	C 	0.26823	0.45271	0.59645	-0.07
Mof_C 	C 	0.26274	0.47694	0.59884	0.038
Mof_C 	C 	0.28282	0.50357	0.64218	-0.066
Mof_C 	C 	0.3083	0.50591	0.68299	-0.023
Mof_H 	H 	0.36754	0.4406	0.8002	-0.008
Mof_H 	H 	0.32424	0.43775	0.73004	0.06
Mof_H 	H 	0.36645	0.53194	0.73176	0.063
Mof_H 	H 	0.40954	0.53466	0.80166	0.009
Mof_H 	H 	0.298	0.43601	0.63533	0.023
Mof_H 	H 	0.25384	0.43356	0.56534	0.045
Mof_H 	H 	0.27891	0.52103	0.64397	0.047
Mof_H 	H 	0.32272	0.52505	0.71412	0.034
Mof_O 	O 	0.51047	0.07494	0.90692	-0.676
Mof_O 	O 	0.47	0.0422	0.83395	-0.784
Mof_C 	C 	0.4897	0.06984	0.85167	0.549
Mof_C 	C 	0.48787	0.09579	0.80666	-0.196
Mof_C 	C 	0.45968	0.09241	0.78583	0.078
Mof_C 	C 	0.45802	0.11594	0.74502	-0.127
Mof_C 	C 	0.48417	0.14309	0.72428	0.068
Mof_C 	C 	0.51273	0.14622	0.74587	-0.122
Mof_C 	C 	0.51439	0.12269	0.78668	0.077
Mof_C 	C 	0.48165	0.1679	0.68053	-0.024
Mof_C 	C 	0.45505	0.16133	0.63726	-0.015
Mof_C 	C 	0.45271	0.18448	0.59645	-0.07
Mof_C 	C 	0.47694	0.2142	0.59884	0.038
Mof_C 	C 	0.50357	0.22075	0.64218	-0.066
Mof_C 	C 	0.50591	0.19761	0.68299	-0.023
Mof_H 	H 	0.4406	0.07306	0.8002	-0.009
Mof_H 	H 	0.43775	0.11351	0.73004	0.059
Mof_H 	H 	0.53194	0.16549	0.73176	0.063
Mof_H 	H 	0.53466	0.12512	0.80166	0.009
Mof_H 	H 	0.43601	0.13801	0.63533	0.023
Mof_H 	H 	0.43356	0.17972	0.56534	0.045
Mof_H 	H 	0.52103	0.24212	0.64397	0.047
Mof_H 	H 	0.52505	0.20233	0.71412	0.034
Mof_O 	O 	0.92506	0.43553	0.90692	-0.675
Mof_O 	O 	0.9578	0.4278	0.83395	-0.779
Mof_C 	C 	0.93016	0.41986	0.85167	0.548
Mof_C 	C 	0.90421	0.39208	0.80666	-0.195
Mof_C 	C 	0.90759	0.36727	0.78583	0.078
Mof_C 	C 	0.88406	0.34208	0.74502	-0.126
Mof_C 	C 	0.85691	0.34108	0.72428	0.068
Mof_C 	C 	0.85378	0.36651	0.74587	-0.122
Mof_C 	C 	0.87731	0.3917	0.78668	0.077
Mof_C 	C 	0.8321	0.31375	0.68053	-0.024
Mof_C 	C 	0.83867	0.29372	0.63726	-0.015
Mof_C 	C 	0.81552	0.26823	0.59645	-0.07
Mof_C 	C 	0.7858	0.26274	0.59884	0.038
Mof_C 	C 	0.77925	0.28282	0.64218	-0.066
Mof_C 	C 	0.80239	0.3083	0.68299	-0.023
Mof_H 	H 	0.92694	0.36754	0.8002	-0.006
Mof_H 	H 	0.88649	0.32424	0.73004	0.06
Mof_H 	H 	0.83451	0.36645	0.73176	0.063
Mof_H 	H 	0.87488	0.40954	0.80166	0.01
Mof_H 	H 	0.86199	0.298	0.63533	0.023
Mof_H 	H 	0.82028	0.25384	0.56534	0.046
Mof_H 	H 	0.75788	0.27891	0.64397	0.047
Mof_H 	H 	0.79767	0.32272	0.71412	0.034
Mof_O 	O 	0.56447	0.48953	0.90692	-0.676
Mof_O 	O 	0.5722	0.53	0.83395	-0.782
Mof_C 	C 	0.58014	0.5103	0.85167	0.549
Mof_C 	C 	0.60792	0.51213	0.80666	-0.195
Mof_C 	C 	0.63273	0.54032	0.78583	0.078
Mof_C 	C 	0.65792	0.54198	0.74502	-0.127
Mof_C 	C 	0.65892	0.51583	0.72428	0.068
Mof_C 	C 	0.63349	0.48727	0.74587	-0.122
Mof_C 	C 	0.6083	0.48561	0.78668	0.077
Mof_C 	C 	0.68625	0.51835	0.68053	-0.024
Mof_C 	C 	0.70628	0.54495	0.63726	-0.015
Mof_C 	C 	0.73177	0.54729	0.59645	-0.07
Mof_C 	C 	0.73726	0.52306	0.59884	0.038
Mof_C 	C 	0.71718	0.49643	0.64218	-0.066
Mof_C 	C 	0.6917	0.49409	0.68299	-0.023
Mof_H 	H 	0.63246	0.5594	0.8002	-0.007
Mof_H 	H 	0.67576	0.56225	0.73004	0.06
Mof_H 	H 	0.63355	0.46806	0.73176	0.063
Mof_H 	H 	0.59046	0.46534	0.80166	0.009
Mof_H 	H 	0.702	0.56399	0.63533	0.023
Mof_H 	H 	0.74616	0.56644	0.56534	0.046
Mof_H 	H 	0.72109	0.47897	0.64397	0.047
Mof_H 	H 	0.67728	0.47495	0.71412	0.034
Mof_O 	O 	0.92506	0.48953	0.09308	-0.691
Mof_O 	O 	0.9578	0.53	0.16605	-0.786
Mof_C 	C 	0.93016	0.5103	0.14833	0.549
Mof_C 	C 	0.90421	0.51213	0.19334	-0.201
Mof_C 	C 	0.90759	0.54032	0.21417	0.078
Mof_C 	C 	0.88406	0.54198	0.25498	-0.13
Mof_C 	C 	0.85691	0.51583	0.27572	0.067
Mof_C 	C 	0.85378	0.48727	0.25413	-0.125
Mof_C 	C 	0.87731	0.48561	0.21332	0.076
Mof_C 	C 	0.8321	0.51835	0.31947	-0.026
Mof_C 	C 	0.83867	0.54495	0.36274	-0.016
Mof_C 	C 	0.81552	0.54729	0.40355	-0.072
Mof_C 	C 	0.7858	0.52306	0.40116	0.037
Mof_C 	C 	0.77925	0.49643	0.35782	-0.067
Mof_C 	C 	0.80239	0.49409	0.31701	-0.024
Mof_H 	H 	0.92694	0.5594	0.1998	-0.012
Mof_H 	H 	0.88649	0.56225	0.26996	0.058
Mof_H 	H 	0.83451	0.46806	0.26824	0.061
Mof_H 	H 	0.87488	0.46534	0.19834	0.006
Mof_H 	H 	0.86199	0.56399	0.36467	0.022
Mof_H 	H 	0.82028	0.56644	0.43466	0.045
Mof_H 	H 	0.75788	0.47897	0.35603	0.045
Mof_H 	H 	0.79767	0.47495	0.28588	0.03
Mof_O 	O 	0.56447	0.07494	0.09308	-0.691
Mof_O 	O 	0.5722	0.0422	0.16605	-0.791
Mof_C 	C 	0.58014	0.06984	0.14833	0.55
Mof_C 	C 	0.60792	0.09579	0.19334	-0.202
Mof_C 	C 	0.63273	0.09241	0.21417	0.078
Mof_C 	C 	0.65792	0.11594	0.25498	-0.131
Mof_C 	C 	0.65892	0.14309	0.27572	0.067
Mof_C 	C 	0.63349	0.14622	0.25413	-0.125
Mof_C 	C 	0.6083	0.12269	0.21332	0.077
Mof_C 	C 	0.68625	0.1679	0.31947	-0.027
Mof_C 	C 	0.70628	0.16133	0.36274	-0.016
Mof_C 	C 	0.73177	0.18448	0.40355	-0.072
Mof_C 	C 	0.73726	0.2142	0.40116	0.037
Mof_C 	C 	0.71718	0.22075	0.35782	-0.068
Mof_C 	C 	0.6917	0.19761	0.31701	-0.024
Mof_H 	H 	0.63246	0.07306	0.1998	-0.014
Mof_H 	H 	0.67576	0.11351	0.26996	0.057
Mof_H 	H 	0.63355	0.16549	0.26824	0.061
Mof_H 	H 	0.59046	0.12512	0.19834	0.005
Mof_H 	H 	0.702	0.13801	0.36467	0.021
Mof_H 	H 	0.74616	0.17972	0.43466	0.045
Mof_H 	H 	0.72109	0.24212	0.35603	0.045
Mof_H 	H 	0.67728	0.20233	0.28588	0.03
Mof_O 	O 	0.51047	0.43553	0.09308	-0.691
Mof_O 	O 	0.47	0.4278	0.16605	-0.789
Mof_C 	C 	0.4897	0.41986	0.14833	0.549
Mof_C 	C 	0.48787	0.39208	0.19334	-0.201
Mof_C 	C 	0.45968	0.36727	0.21417	0.078
Mof_C 	C 	0.45802	0.34208	0.25498	-0.13
Mof_C 	C 	0.48417	0.34108	0.27572	0.067
Mof_C 	C 	0.51273	0.36651	0.25413	-0.125
Mof_C 	C 	0.51439	0.3917	0.21332	0.077
Mof_C 	C 	0.48165	0.31375	0.31947	-0.026
Mof_C 	C 	0.45505	0.29372	0.36274	-0.016
Mof_C 	C 	0.45271	0.26823	0.40355	-0.072
Mof_C 	C 	0.47694	0.26274	0.40116	0.037
Mof_C 	C 	0.50357	0.28282	0.35782	-0.067
Mof_C 	C 	0.50591	0.3083	0.31701	-0.024
Mof_H 	H 	0.4406	0.36754	0.1998	-0.013
Mof_H 	H 	0.43775	0.32424	0.26996	0.057
Mof_H 	H 	0.53194	0.36645	0.26824	0.061
Mof_H 	H 	0.53466	0.40954	0.19834	0.006
Mof_H 	H 	0.43601	0.298	0.36467	0.021
Mof_H 	H 	0.43356	0.25384	0.43466	0.045
Mof_H 	H 	0.52103	0.27891	0.35603	0.045
Mof_H 	H 	0.52505	0.32272	0.28588	0.03
Mof_O 	O 	0.07494	0.51047	0.09308	-0.691
Mof_O 	O 	0.0422	0.47	0.16605	-0.791
Mof_C 	C 	0.06984	0.4897	0.14833	0.549
Mof_C 	C 	0.09579	0.48787	0.19334	-0.202
Mof_C 	C 	0.09241	0.45968	0.21417	0.078
Mof_C 	C 	0.11594	0.45802	0.25498	-0.131
Mof_C 	C 	0.14309	0.48417	0.27572	0.067
Mof_C 	C 	0.14622	0.51273	0.25413	-0.125
Mof_C 	C 	0.12269	0.51439	0.21332	0.077
Mof_C 	C 	0.1679	0.48165	0.31947	-0.027
Mof_C 	C 	0.16133	0.45505	0.36274	-0.016
Mof_C 	C 	0.18448	0.45271	0.40355	-0.072
Mof_C 	C 	0.2142	0.47694	0.40116	0.037
Mof_C 	C 	0.22075	0.50357	0.35782	-0.067
Mof_C 	C 	0.19761	0.50591	0.31701	-0.024
Mof_H 	H 	0.07306	0.4406	0.1998	-0.014
Mof_H 	H 	0.11351	0.43775	0.26996	0.057
Mof_H 	H 	0.16549	0.53194	0.26824	0.061
Mof_H 	H 	0.12512	0.53466	0.19834	0.005
Mof_H 	H 	0.13801	0.43601	0.36467	0.021
Mof_H 	H 	0.17972	0.43356	0.43466	0.044
Mof_H 	H 	0.24212	0.52103	0.35603	0.045
Mof_H 	H 	0.20233	0.52505	0.28588	0.03
Mof_O 	O 	0.43553	0.92506	0.09308	-0.691
Mof_O 	O 	0.4278	0.9578	0.16605	-0.786
Mof_C 	C 	0.41986	0.93016	0.14833	0.549
Mof_C 	C 	0.39208	0.90421	0.19334	-0.201
Mof_C 	C 	0.36727	0.90759	0.21417	0.078
Mof_C 	C 	0.34208	0.88406	0.25498	-0.13
Mof_C 	C 	0.34108	0.85691	0.27572	0.067
Mof_C 	C 	0.36651	0.85378	0.25413	-0.125
Mof_C 	C 	0.3917	0.87731	0.21332	0.076
Mof_C 	C 	0.31375	0.8321	0.31947	-0.026
Mof_C 	C 	0.29372	0.83867	0.36274	-0.016
Mof_C 	C 	0.26823	0.81552	0.40355	-0.072
Mof_C 	C 	0.26274	0.7858	0.40116	0.037
Mof_C 	C 	0.28282	0.77925	0.35782	-0.067
Mof_C 	C 	0.3083	0.80239	0.31701	-0.024
Mof_H 	H 	0.36754	0.92694	0.1998	-0.012
Mof_H 	H 	0.32424	0.88649	0.26996	0.058
Mof_H 	H 	0.36645	0.83451	0.26824	0.061
Mof_H 	H 	0.40954	0.87488	0.19834	0.006
Mof_H 	H 	0.298	0.86199	0.36467	0.022
Mof_H 	H 	0.25384	0.82028	0.43466	0.045
Mof_H 	H 	0.27891	0.75788	0.35603	0.045
Mof_H 	H 	0.32272	0.79767	0.28588	0.03
Mof_O 	O 	0.48953	0.56447	0.09308	-0.691
Mof_O 	O 	0.53	0.5722	0.16605	-0.789
Mof_C 	C 	0.5103	0.58014	0.14833	0.549
Mof_C 	C 	0.51213	0.60792	0.19334	-0.201
Mof_C 	C 	0.54032	0.63273	0.21417	0.078
Mof_C 	C 	0.54198	0.65792	0.25498	-0.13
Mof_C 	C 	0.51583	0.65892	0.27572	0.067
Mof_C 	C 	0.48727	0.63349	0.25413	-0.125
Mof_C 	C 	0.48561	0.6083	0.21332	0.077
Mof_C 	C 	0.51835	0.68625	0.31947	-0.026
Mof_C 	C 	0.54495	0.70628	0.36274	-0.016
Mof_C 	C 	0.54729	0.73177	0.40355	-0.072
Mof_C 	C 	0.52306	0.73726	0.40116	0.037
Mof_C 	C 	0.49643	0.71718	0.35782	-0.067
Mof_C 	C 	0.49409	0.6917	0.31701	-0.024
Mof_H 	H 	0.5594	0.63246	0.1998	-0.013
Mof_H 	H 	0.56225	0.67576	0.26996	0.058
Mof_H 	H 	0.46806	0.63355	0.26824	0.061
Mof_H 	H 	0.46534	0.59046	0.19834	0.006
Mof_H 	H 	0.56399	0.702	0.36467	0.022
Mof_H 	H 	0.56644	0.74616	0.43466	0.045
Mof_H 	H 	0.47897	0.72109	0.35603	0.045
Mof_H 	H 	0.47495	0.67728	0.28588	0.03
Mof_Zr	Zr	0.46539	0	0.11538	3.165
Mof_Zr	Zr	-3.06531e-17	0.46539	0.11538	3.165
Mof_Zr	Zr	0.53461	0.53461	0.11538	3.166
Mof_Zr	Zr	0.53461	0	0.11538	3.165
Mof_Zr	Zr	-1.09656e-16	0.53461	0.11538	3.165
Mof_Zr	Zr	0.46539	0.46539	0.11538	3.166
Mof_Zr	Zr	-5.94457e-17	0.46539	0.88462	3.167
Mof_Zr	Zr	0.46539	0	0.88462	3.167
Mof_Zr	Zr	0.53461	0.53461	0.88462	3.168
Mof_Zr	Zr	-1.38449e-16	0.53461	0.88462	3.167
Mof_Zr	Zr	0.53461	0	0.88462	3.167
Mof_Zr	Zr	0.46539	0.46539	0.88462	3.168
Mof_Zr	Zr	0.52742	0.05484	-0	3.2
Mof_Zr	Zr	0.94516	0.47258	-0	3.2
Mof_Zr	Zr	0.52742	0.47258	-0	3.2
Mof_Zr	Zr	0.47258	0.94516	-0	3.2
Mof_Zr	Zr	0.05484	0.52742	-0	3.2
Mof_Zr	Zr	0.47258	0.52742	-0	3.2
Mof_O 	O 	0.51512	0.03024	0.12322	-1.307
Mof_O 	O 	0.96976	0.48488	0.12322	-1.301
Mof_O 	O 	0.51512	0.48488	0.12322	-1.305
Mof_O 	O 	0.48488	0.96976	0.12322	-1.301
Mof_O 	O 	0.03024	0.51512	0.12322	-1.307
Mof_O 	O 	0.48488	0.51512	0.12322	-1.305
Mof_O 	O 	0.03024	0.51512	0.87678	-1.298
Mof_O 	O 	0.48488	0.96976	0.87678	-1.292
Mof_O 	O 	0.48488	0.51512	0.87678	-1.296
Mof_O 	O 	0.96976	0.48488	0.87678	-1.292
Mof_O 	O 	0.51512	0.03024	0.87678	-1.298
Mof_O 	O 	0.51512	0.48488	0.87678	-1.296
Mof_O 	O 	0.47787	0.02895	-0	-1.342
Mof_O 	O 	0.97105	0.44892	-0	-1.337
Mof_O 	O 	0.55108	0.52213	-0	-1.34
Mof_O 	O 	0.52213	0.97105	-0	-1.337
Mof_O 	O 	0.02895	0.55108	-0	-1.342
Mof_O 	O 	0.44892	0.47787	-0	-1.34
Mof_O 	O 	0.02895	0.47787	-0	-1.342
Mof_O 	O 	0.44892	0.97105	-0	-1.337
Mof_O 	O 	0.52213	0.55108	-0	-1.34
Mof_O 	O 	0.97105	0.52213	-0	-1.337
Mof_O 	O 	0.55108	0.02895	-0	-1.342
Mof_O 	O 	0.47787	0.44892	-0	-1.34
Mof_C 	C 	0.47882	0.23941	0.45645	-0.031
Mof_C 	C 	0.76059	0.23941	0.45645	-0.031
Mof_C 	C 	0.76059	0.52118	0.45645	-0.031
Mof_C 	C 	0.52118	0.76059	0.45645	-0.031
Mof_C 	C 	0.23941	0.76059	0.45645	-0.031
Mof_C 	C 	0.23941	0.47882	0.45645	-0.031
Mof_C 	C 	0.23941	0.47882	0.54355	-0.03
Mof_C 	C 	0.23941	0.76059	0.54355	-0.03
Mof_C 	C 	0.52118	0.76059	0.54355	-0.03
Mof_C 	C 	0.76059	0.52118	0.54355	-0.03
Mof_C 	C 	0.76059	0.23941	0.54355	-0.03
Mof_C 	C 	0.47882	0.23941	0.54355	-0.03
_end
