# CIF file generated by openbabel 3.1.0, see https://openbabel.org
data_I
_chemical_name_common 'image0'
_cell_length_a 11.528
_cell_length_b 11.528
_cell_length_c 15.168
_cell_angle_alpha 90
_cell_angle_beta 90
_cell_angle_gamma 120
_space_group_name_H-M_alt 'P 1'
_space_group_name_Hall 'P 1'
loop_
    _symmetry_equiv_pos_as_xyz
    x,y,z
loop_
    _atom_site_label
    _atom_site_type_symbol
    _atom_site_fract_x
    _atom_site_fract_y
    _atom_site_fract_z
    _atom_site_occupancy
    C1       C        0.08950    0.16660    0.17980    1.000
    H1       H        0.18490    0.19860    0.18160    1.000
    H2       H        0.06310    0.15820    0.11840    1.000
    C2       C        0.06310    0.26990    0.22370    1.000
    H3       H        0.96720    0.23500    0.22710    1.000
    H4       H        0.09820    0.28610    0.28330    1.000
    C3       C        0.12760    0.40090    0.17300    1.000
    O1       O        0.24570    0.48920    0.19520    1.000
    O2       O        0.06640    0.41580    0.11210    1.000
    C4       C        0.49310    0.71640    0.92920    1.000
    H5       H        0.52240    0.65430    0.94710    1.000
    H6       H        0.48110    0.70930    0.86570    1.000
    C5       C        0.60220    0.85740    0.95170    1.000
    H7       H        0.58120    0.92120    0.92490    1.000
    H8       H        0.60540    0.86990    0.01510    1.000
    C6       C        0.73750    0.88420    0.91940    1.000
    O3       O        0.83960    0.99060    0.94820    1.000
    O4       O        0.74640    0.80850    0.86550    1.000
    C7       C        0.83340    0.92290    0.17980    1.000
    H9       H        0.80140    0.98630    0.18160    1.000
    H10      H        0.84180    0.90490    0.11840    1.000
    C8       C        0.73010    0.79320    0.22370    1.000
    H11      H        0.76500    0.73220    0.22710    1.000
    H12      H        0.71390    0.81210    0.28330    1.000
    C9       C        0.59910    0.72670    0.17300    1.000
    O5       O        0.51080    0.75650    0.19520    1.000
    O6       O        0.58420    0.65060    0.11210    1.000
    C10      C        0.28360    0.77670    0.92920    1.000
    H13      H        0.34570    0.86810    0.94710    1.000
    H14      H        0.29070    0.77180    0.86570    1.000
    C11      C        0.14260    0.74480    0.95170    1.000
    H15      H        0.07880    0.66000    0.92490    1.000
    H16      H        0.13010    0.73550    0.01510    1.000
    C12      C        0.11580    0.85330    0.91940    1.000
    O7       O        0.00940    0.84900    0.94820    1.000
    O8       O        0.19150    0.93790    0.86550    1.000
    C13      C        0.07710    0.91050    0.17980    1.000
    H17      H        0.01370    0.81510    0.18160    1.000
    H18      H        0.09510    0.93690    0.11840    1.000
    C14      C        0.20680    0.93690    0.22370    1.000
    H19      H        0.26780    0.03280    0.22710    1.000
    H20      H        0.18790    0.90180    0.28330    1.000
    C15      C        0.27330    0.87240    0.17300    1.000
    O9       O        0.24350    0.75430    0.19520    1.000
    O10      O        0.34940    0.93360    0.11210    1.000
    C16      C        0.22330    0.50690    0.92920    1.000
    H21      H        0.13190    0.47760    0.94710    1.000
    H22      H        0.22820    0.51890    0.86570    1.000
    C17      C        0.25520    0.39780    0.95170    1.000
    H23      H        0.34000    0.41880    0.92490    1.000
    H24      H        0.26450    0.39460    0.01510    1.000
    C18      C        0.14670    0.26250    0.91940    1.000
    O11      O        0.15100    0.16040    0.94820    1.000
    O12      O        0.06210    0.25360    0.86550    1.000
    C19      C        0.91050    0.83340    0.67980    1.000
    H25      H        0.81510    0.80140    0.68160    1.000
    H26      H        0.93690    0.84180    0.61840    1.000
    C20      C        0.93690    0.73010    0.72370    1.000
    H27      H        0.03280    0.76500    0.72710    1.000
    H28      H        0.90180    0.71390    0.78330    1.000
    C21      C        0.87240    0.59910    0.67300    1.000
    O13      O        0.75430    0.51080    0.69520    1.000
    O14      O        0.93360    0.58420    0.61210    1.000
    C22      C        0.50690    0.28360    0.42920    1.000
    H29      H        0.47760    0.34570    0.44710    1.000
    H30      H        0.51890    0.29070    0.36570    1.000
    C23      C        0.39780    0.14260    0.45170    1.000
    H31      H        0.41880    0.07880    0.42490    1.000
    H32      H        0.39460    0.13010    0.51510    1.000
    C24      C        0.26250    0.11580    0.41940    1.000
    O15      O        0.16040    0.00940    0.44820    1.000
    O16      O        0.25360    0.19150    0.36550    1.000
    C25      C        0.16660    0.07710    0.67980    1.000
    H33      H        0.19860    0.01370    0.68160    1.000
    H34      H        0.15820    0.09510    0.61840    1.000
    C26      C        0.26990    0.20680    0.72370    1.000
    H35      H        0.23500    0.26780    0.72710    1.000
    H36      H        0.28610    0.18790    0.78330    1.000
    C27      C        0.40090    0.27330    0.67300    1.000
    O17      O        0.48920    0.24350    0.69520    1.000
    O18      O        0.41580    0.34940    0.61210    1.000
    C28      C        0.71640    0.22330    0.42920    1.000
    H37      H        0.65430    0.13190    0.44710    1.000
    H38      H        0.70930    0.22820    0.36570    1.000
    C29      C        0.85740    0.25520    0.45170    1.000
    H39      H        0.92120    0.34000    0.42490    1.000
    H40      H        0.86990    0.26450    0.51510    1.000
    C30      C        0.88420    0.14670    0.41940    1.000
    O19      O        0.99060    0.15100    0.44820    1.000
    O20      O        0.80850    0.06210    0.36550    1.000
    C31      C        0.92290    0.08950    0.67980    1.000
    H41      H        0.98630    0.18490    0.68160    1.000
    H42      H        0.90490    0.06310    0.61840    1.000
    C32      C        0.79320    0.06310    0.72370    1.000
    H43      H        0.73220    0.96720    0.72710    1.000
    H44      H        0.81210    0.09820    0.78330    1.000
    C33      C        0.72670    0.12760    0.67300    1.000
    O21      O        0.75650    0.24570    0.69520    1.000
    O22      O        0.65060    0.06640    0.61210    1.000
    C34      C        0.77670    0.49310    0.42920    1.000
    H45      H        0.86810    0.52240    0.44710    1.000
    H46      H        0.77180    0.48110    0.36570    1.000
    C35      C        0.74480    0.60220    0.45170    1.000
    H47      H        0.66000    0.58120    0.42490    1.000
    H48      H        0.73550    0.60540    0.51510    1.000
    C36      C        0.85330    0.73750    0.41940    1.000
    O23      O        0.84900    0.83960    0.44820    1.000
    O24      O        0.93790    0.74640    0.36550    1.000
    Zn1      Zn       0.33333    0.66667    0.13592    1.000
    P1       P        0.33333    0.66667    0.98052    1.000
    Zn2      Zn       0.66667    0.33333    0.63592    1.000
    P2       P        0.66667    0.33333    0.48052    1.000
    P3       P        0.00000    0.00000    0.23164    1.000
    Zn3      Zn       0.00000    0.00000    0.38890    1.000
    P4       P        0.00000    0.00000    0.73164    1.000
    Zn4      Zn       0.00000    0.00000    0.88890    1.000
