data_functionalizedCrystal
_audit_creation_method	'EQeq! by Chris Wilmer'
_symmetry_space_group_name_H-M	'P1'
_symmetry_Int_Tables_number	1
_symmetry_cell_setting	triclinic
loop_
_symmetry_equiv_pos_as_xyz
  x,y,z
_cell_length_a	30.2949
_cell_length_b	30.2949
_cell_length_c	30.2949
_cell_angle_alpha	60
_cell_angle_beta	60
_cell_angle_gamma	60
loop_
_atom_site_label
_atom_site_type_symbol
_atom_site_fract_x
_atom_site_fract_y
_atom_site_fract_z
_atom_site_charge
Mof_Zn	Zn	0.74227	0	-0	1.104
Mof_Zn	Zn	0.64221	0	-0	1.101
Mof_Zn	Zn	-6.93902e-17	0.74227	0.25773	1.151
Mof_Zn	Zn	8.09552e-17	0.64221	0.35779	1.15
Mof_Zn	Zn	-4.62601e-17	0.25773	0.74227	1.151
Mof_Zn	Zn	2.31301e-17	0.35779	0.64221	1.15
Mof_Zn	Zn	0.25773	0	-0	1.097
Mof_Zn	Zn	0.35779	0	-0	1.1
Mof_Zn	Zn	0.74227	0	0.25773	1.151
Mof_Zn	Zn	0.64221	2.31301e-17	0.35779	1.15
Mof_Zn	Zn	-0	0.25773	-0	1.097
Mof_Zn	Zn	2.31301e-17	0.35779	-0	1.1
Mof_Zn	Zn	-4.62601e-17	0.74227	-0	1.105
Mof_Zn	Zn	-0	0.64221	-0	1.102
Mof_Zn	Zn	0.25773	-4.62601e-17	0.74227	1.152
Mof_Zn	Zn	0.35779	4.62601e-17	0.64221	1.151
Mof_Zn	Zn	0.74227	0.25773	-0	1.152
Mof_Zn	Zn	0.64221	0.35779	-0	1.151
Mof_Zn	Zn	-4.62601e-17	-4.62601e-17	0.74227	1.105
Mof_Zn	Zn	2.31301e-17	4.62601e-17	0.64221	1.102
Mof_Zn	Zn	-0	0	0.25773	1.098
Mof_Zn	Zn	3.46951e-17	2.31301e-17	0.35779	1.101
Mof_Zn	Zn	0.25773	0.74227	-0	1.152
Mof_Zn	Zn	0.35779	0.64221	-0	1.151
Mof_H 	H 	0.5583	0.9661	0.1707	0.04
Mof_H 	H 	0.9661	0.5583	0.3049	0.05
Mof_H 	H 	0.1707	0.3049	0.5583	0.013
Mof_H 	H 	0.3049	0.1707	0.9661	0.037
Mof_H 	H 	0.5583	0.1707	0.3049	0.013
Mof_H 	H 	0.9661	0.3049	0.1707	0.037
Mof_H 	H 	0.1707	0.5583	0.9661	0.04
Mof_H 	H 	0.3049	0.9661	0.5583	0.05
Mof_H 	H 	0.5583	0.3049	0.9661	0.05
Mof_H 	H 	0.9661	0.1707	0.5583	0.04
Mof_H 	H 	0.1707	0.9661	0.3049	0.037
Mof_H 	H 	0.3049	0.5583	0.1707	0.013
Mof_H 	H 	0.0339	0.4417	0.8293	0.03
Mof_H 	H 	0.4417	0.0339	0.6951	0.018
Mof_H 	H 	0.6951	0.8293	0.4417	0.054
Mof_H 	H 	0.8293	0.6951	0.0339	0.035
Mof_H 	H 	0.8293	0.4417	0.6951	0.054
Mof_H 	H 	0.6951	0.0339	0.8293	0.035
Mof_H 	H 	0.4417	0.8293	0.0339	0.03
Mof_H 	H 	0.0339	0.6951	0.4417	0.018
Mof_H 	H 	0.6951	0.4417	0.0339	0.018
Mof_H 	H 	0.8293	0.0339	0.4417	0.03
Mof_H 	H 	0.0339	0.8293	0.6951	0.035
Mof_H 	H 	0.4417	0.6951	0.8293	0.054
Mof_H 	H 	0.4417	0.0339	0.8293	0.03
Mof_H 	H 	0.0339	0.4417	0.6951	0.018
Mof_H 	H 	0.8293	0.6951	0.4417	0.054
Mof_H 	H 	0.6951	0.8293	0.0339	0.035
Mof_H 	H 	0.4417	0.8293	0.6951	0.054
Mof_H 	H 	0.0339	0.6951	0.8293	0.035
Mof_H 	H 	0.8293	0.4417	0.0339	0.03
Mof_H 	H 	0.6951	0.0339	0.4417	0.018
Mof_H 	H 	0.4417	0.6951	0.0339	0.018
Mof_H 	H 	0.0339	0.8293	0.4417	0.03
Mof_H 	H 	0.8293	0.0339	0.6951	0.035
Mof_H 	H 	0.6951	0.4417	0.8293	0.054
Mof_H 	H 	0.9661	0.5583	0.1707	0.04
Mof_H 	H 	0.5583	0.9661	0.3049	0.05
Mof_H 	H 	0.3049	0.1707	0.5583	0.013
Mof_H 	H 	0.1707	0.3049	0.9661	0.037
Mof_H 	H 	0.1707	0.5583	0.3049	0.013
Mof_H 	H 	0.3049	0.9661	0.1707	0.037
Mof_H 	H 	0.5583	0.1707	0.9661	0.04
Mof_H 	H 	0.9661	0.3049	0.5583	0.05
Mof_H 	H 	0.3049	0.5583	0.9661	0.05
Mof_H 	H 	0.1707	0.9661	0.5583	0.04
Mof_H 	H 	0.9661	0.1707	0.3049	0.037
Mof_H 	H 	0.5583	0.3049	0.1707	0.013
Mof_H 	H 	0.6865	0.9825	0.1655	0.039
Mof_H 	H 	0.9825	0.6865	0.1655	0.039
Mof_H 	H 	0.1655	0.1655	0.6865	-0.007
Mof_H 	H 	0.1655	0.1655	0.9825	0.02
Mof_H 	H 	0.6865	0.1655	0.1655	-0.007
Mof_H 	H 	0.9825	0.1655	0.1655	0.02
Mof_H 	H 	0.1655	0.6865	0.9825	0.039
Mof_H 	H 	0.1655	0.9825	0.6865	0.039
Mof_H 	H 	0.6865	0.1655	0.9825	0.039
Mof_H 	H 	0.9825	0.1655	0.6865	0.039
Mof_H 	H 	0.1655	0.9825	0.1655	0.02
Mof_H 	H 	0.1655	0.6865	0.1655	-0.007
Mof_H 	H 	0.0175	0.3135	0.8345	0.006
Mof_H 	H 	0.3135	0.0175	0.8345	0.006
Mof_H 	H 	0.8345	0.8345	0.3135	0.048
Mof_H 	H 	0.8345	0.8345	0.0175	0.028
Mof_H 	H 	0.8345	0.3135	0.8345	0.048
Mof_H 	H 	0.8345	0.0175	0.8345	0.028
Mof_H 	H 	0.3135	0.8345	0.0175	0.006
Mof_H 	H 	0.0175	0.8345	0.3135	0.006
Mof_H 	H 	0.8345	0.3135	0.0175	0.006
Mof_H 	H 	0.8345	0.0175	0.3135	0.006
Mof_H 	H 	0.0175	0.8345	0.8345	0.028
Mof_H 	H 	0.3135	0.8345	0.8345	0.048
Mof_H 	H 	0.3994	0.9356	0.2656	0.101
Mof_H 	H 	0.9356	0.3994	0.3994	0.107
Mof_H 	H 	0.2656	0.3994	0.3994	0.089
Mof_H 	H 	0.3994	0.2656	0.9356	0.101
Mof_H 	H 	0.3994	0.2656	0.3994	0.089
Mof_H 	H 	0.9356	0.3994	0.2656	0.101
Mof_H 	H 	0.2656	0.3994	0.9356	0.101
Mof_H 	H 	0.3994	0.9356	0.3994	0.107
Mof_H 	H 	0.3994	0.3994	0.9356	0.107
Mof_H 	H 	0.9356	0.2656	0.3994	0.101
Mof_H 	H 	0.2656	0.9356	0.3994	0.101
Mof_H 	H 	0.3994	0.3994	0.2656	0.089
Mof_H 	H 	0.0644	0.6006	0.7344	0.098
Mof_H 	H 	0.6006	0.0644	0.6006	0.091
Mof_H 	H 	0.6006	0.7344	0.6006	0.109
Mof_H 	H 	0.7344	0.6006	0.0644	0.098
Mof_H 	H 	0.7344	0.6006	0.6006	0.109
Mof_H 	H 	0.6006	0.0644	0.7344	0.098
Mof_H 	H 	0.6006	0.7344	0.0644	0.098
Mof_H 	H 	0.0644	0.6006	0.6006	0.091
Mof_H 	H 	0.6006	0.6006	0.0644	0.091
Mof_H 	H 	0.7344	0.0644	0.6006	0.098
Mof_H 	H 	0.0644	0.7344	0.6006	0.098
Mof_H 	H 	0.6006	0.6006	0.7344	0.109
Mof_C 	C 	0.64967	0.98363	0.10243	0.423
Mof_C 	C 	0.62484	0.97734	0.15978	-0.132
Mof_C 	C 	0.57524	0.96844	0.18832	0.021
Mof_C 	C 	0.98363	0.64967	0.26427	0.421
Mof_C 	C 	0.97734	0.62484	0.23804	-0.122
Mof_C 	C 	0.96844	0.57524	0.268	0.02
Mof_C 	C 	0.10243	0.26427	0.64967	0.444
Mof_C 	C 	0.15978	0.23804	0.62484	-0.189
Mof_C 	C 	0.18832	0.268	0.57524	0.042
Mof_C 	C 	0.26427	0.10243	0.98363	0.427
Mof_C 	C 	0.23804	0.15978	0.97734	-0.147
Mof_C 	C 	0.268	0.18832	0.96844	0.028
Mof_C 	C 	0.64967	0.10243	0.26427	0.444
Mof_C 	C 	0.62484	0.15978	0.23804	-0.189
Mof_C 	C 	0.57524	0.18832	0.268	0.042
Mof_C 	C 	0.98363	0.26427	0.10243	0.427
Mof_C 	C 	0.97734	0.23804	0.15978	-0.147
Mof_C 	C 	0.96844	0.268	0.18832	0.028
Mof_C 	C 	0.10243	0.64967	0.98363	0.423
Mof_C 	C 	0.15978	0.62484	0.97734	-0.132
Mof_C 	C 	0.18832	0.57524	0.96844	0.021
Mof_C 	C 	0.26427	0.98363	0.64967	0.421
Mof_C 	C 	0.23804	0.97734	0.62484	-0.122
Mof_C 	C 	0.268	0.96844	0.57524	0.02
Mof_C 	C 	0.64967	0.26427	0.98363	0.421
Mof_C 	C 	0.62484	0.23804	0.97734	-0.122
Mof_C 	C 	0.57524	0.268	0.96844	0.02
Mof_C 	C 	0.98363	0.10243	0.64967	0.423
Mof_C 	C 	0.97734	0.15978	0.62484	-0.132
Mof_C 	C 	0.96844	0.18832	0.57524	0.021
Mof_C 	C 	0.10243	0.98363	0.26427	0.427
Mof_C 	C 	0.15978	0.97734	0.23804	-0.147
Mof_C 	C 	0.18832	0.96844	0.268	0.028
Mof_C 	C 	0.26427	0.64967	0.10243	0.444
Mof_C 	C 	0.23804	0.62484	0.15978	-0.189
Mof_C 	C 	0.268	0.57524	0.18832	0.042
Mof_C 	C 	0.01637	0.35033	0.89757	0.429
Mof_C 	C 	0.02266	0.37516	0.84022	-0.162
Mof_C 	C 	0.03156	0.42476	0.81168	0.033
Mof_C 	C 	0.35033	0.01637	0.73573	0.442
Mof_C 	C 	0.37516	0.02266	0.76196	-0.176
Mof_C 	C 	0.42476	0.03156	0.732	0.036
Mof_C 	C 	0.73573	0.89757	0.35033	0.42
Mof_C 	C 	0.76196	0.84022	0.37516	-0.114
Mof_C 	C 	0.732	0.81168	0.42476	0.017
Mof_C 	C 	0.89757	0.73573	0.01637	0.424
Mof_C 	C 	0.84022	0.76196	0.02266	-0.144
Mof_C 	C 	0.81168	0.732	0.03156	0.024
Mof_C 	C 	0.89757	0.35033	0.73573	0.42
Mof_C 	C 	0.84022	0.37516	0.76196	-0.114
Mof_C 	C 	0.81168	0.42476	0.732	0.017
Mof_C 	C 	0.73573	0.01637	0.89757	0.424
Mof_C 	C 	0.76196	0.02266	0.84022	-0.144
Mof_C 	C 	0.732	0.03156	0.81168	0.024
Mof_C 	C 	0.35033	0.89757	0.01637	0.429
Mof_C 	C 	0.37516	0.84022	0.02266	-0.162
Mof_C 	C 	0.42476	0.81168	0.03156	0.033
Mof_C 	C 	0.01637	0.73573	0.35033	0.442
Mof_C 	C 	0.02266	0.76196	0.37516	-0.176
Mof_C 	C 	0.03156	0.732	0.42476	0.036
Mof_C 	C 	0.73573	0.35033	0.01637	0.442
Mof_C 	C 	0.76196	0.37516	0.02266	-0.176
Mof_C 	C 	0.732	0.42476	0.03156	0.036
Mof_C 	C 	0.89757	0.01637	0.35033	0.429
Mof_C 	C 	0.84022	0.02266	0.37516	-0.162
Mof_C 	C 	0.81168	0.03156	0.42476	0.033
Mof_C 	C 	0.01637	0.89757	0.73573	0.424
Mof_C 	C 	0.02266	0.84022	0.76196	-0.144
Mof_C 	C 	0.03156	0.81168	0.732	0.024
Mof_C 	C 	0.35033	0.73573	0.89757	0.42
Mof_C 	C 	0.37516	0.76196	0.84022	-0.114
Mof_C 	C 	0.42476	0.732	0.81168	0.017
Mof_C 	C 	0.35033	0.01637	0.89757	0.429
Mof_C 	C 	0.37516	0.02266	0.84022	-0.162
Mof_C 	C 	0.42476	0.03156	0.81168	0.033
Mof_C 	C 	0.01637	0.35033	0.73573	0.442
Mof_C 	C 	0.02266	0.37516	0.76196	-0.176
Mof_C 	C 	0.03156	0.42476	0.732	0.036
Mof_C 	C 	0.89757	0.73573	0.35033	0.42
Mof_C 	C 	0.84022	0.76196	0.37516	-0.114
Mof_C 	C 	0.81168	0.732	0.42476	0.017
Mof_C 	C 	0.73573	0.89757	0.01637	0.424
Mof_C 	C 	0.76196	0.84022	0.02266	-0.144
Mof_C 	C 	0.732	0.81168	0.03156	0.024
Mof_C 	C 	0.35033	0.89757	0.73573	0.42
Mof_C 	C 	0.37516	0.84022	0.76196	-0.114
Mof_C 	C 	0.42476	0.81168	0.732	0.017
Mof_C 	C 	0.01637	0.73573	0.89757	0.424
Mof_C 	C 	0.02266	0.76196	0.84022	-0.144
Mof_C 	C 	0.03156	0.732	0.81168	0.024
Mof_C 	C 	0.89757	0.35033	0.01637	0.429
Mof_C 	C 	0.84022	0.37516	0.02266	-0.162
Mof_C 	C 	0.81168	0.42476	0.03156	0.033
Mof_C 	C 	0.73573	0.01637	0.35033	0.442
Mof_C 	C 	0.76196	0.02266	0.37516	-0.176
Mof_C 	C 	0.732	0.03156	0.42476	0.036
Mof_C 	C 	0.35033	0.73573	0.01637	0.442
Mof_C 	C 	0.37516	0.76196	0.02266	-0.176
Mof_C 	C 	0.42476	0.732	0.03156	0.036
Mof_C 	C 	0.01637	0.89757	0.35033	0.429
Mof_C 	C 	0.02266	0.84022	0.37516	-0.162
Mof_C 	C 	0.03156	0.81168	0.42476	0.033
Mof_C 	C 	0.89757	0.01637	0.73573	0.424
Mof_C 	C 	0.84022	0.02266	0.76196	-0.144
Mof_C 	C 	0.81168	0.03156	0.732	0.024
Mof_C 	C 	0.73573	0.35033	0.89757	0.42
Mof_C 	C 	0.76196	0.37516	0.84022	-0.114
Mof_C 	C 	0.732	0.42476	0.81168	0.017
Mof_C 	C 	0.98363	0.64967	0.10243	0.423
Mof_C 	C 	0.97734	0.62484	0.15978	-0.132
Mof_C 	C 	0.96844	0.57524	0.18832	0.021
Mof_C 	C 	0.64967	0.98363	0.26427	0.421
Mof_C 	C 	0.62484	0.97734	0.23804	-0.122
Mof_C 	C 	0.57524	0.96844	0.268	0.02
Mof_C 	C 	0.26427	0.10243	0.64967	0.444
Mof_C 	C 	0.23804	0.15978	0.62484	-0.189
Mof_C 	C 	0.268	0.18832	0.57524	0.042
Mof_C 	C 	0.10243	0.26427	0.98363	0.427
Mof_C 	C 	0.15978	0.23804	0.97734	-0.147
Mof_C 	C 	0.18832	0.268	0.96844	0.028
Mof_C 	C 	0.10243	0.64967	0.26427	0.444
Mof_C 	C 	0.15978	0.62484	0.23804	-0.189
Mof_C 	C 	0.18832	0.57524	0.268	0.042
Mof_C 	C 	0.26427	0.98363	0.10243	0.427
Mof_C 	C 	0.23804	0.97734	0.15978	-0.147
Mof_C 	C 	0.268	0.96844	0.18832	0.028
Mof_C 	C 	0.64967	0.10243	0.98363	0.423
Mof_C 	C 	0.62484	0.15978	0.97734	-0.132
Mof_C 	C 	0.57524	0.18832	0.96844	0.021
Mof_C 	C 	0.98363	0.26427	0.64967	0.421
Mof_C 	C 	0.97734	0.23804	0.62484	-0.122
Mof_C 	C 	0.96844	0.268	0.57524	0.02
Mof_C 	C 	0.26427	0.64967	0.98363	0.421
Mof_C 	C 	0.23804	0.62484	0.97734	-0.122
Mof_C 	C 	0.268	0.57524	0.96844	0.02
Mof_C 	C 	0.10243	0.98363	0.64967	0.423
Mof_C 	C 	0.15978	0.97734	0.62484	-0.132
Mof_C 	C 	0.18832	0.96844	0.57524	0.021
Mof_C 	C 	0.98363	0.10243	0.26427	0.427
Mof_C 	C 	0.97734	0.15978	0.23804	-0.147
Mof_C 	C 	0.96844	0.18832	0.268	0.028
Mof_C 	C 	0.64967	0.26427	0.10243	0.444
Mof_C 	C 	0.62484	0.23804	0.15978	-0.189
Mof_C 	C 	0.57524	0.268	0.18832	0.042
Mof_C 	C 	0.6514	0.97952	0.18454	0.078
Mof_C 	C 	0.55124	0.96316	0.2428	-0.022
Mof_C 	C 	0.50314	0.95506	0.2709	0.028
Mof_C 	C 	0.4597	0.9481	0.2961	-0.058
Mof_C 	C 	0.40526	0.94014	0.3273	0.136
Mof_C 	C 	0.97952	0.6514	0.18454	0.078
Mof_C 	C 	0.96316	0.55124	0.2428	-0.022
Mof_C 	C 	0.95506	0.50314	0.2709	0.028
Mof_C 	C 	0.9481	0.4597	0.2961	-0.058
Mof_C 	C 	0.94014	0.40526	0.3273	0.136
Mof_C 	C 	0.18454	0.18454	0.6514	0.105
Mof_C 	C 	0.2428	0.2428	0.55124	-0.064
Mof_C 	C 	0.2709	0.2709	0.50314	0.019
Mof_C 	C 	0.2961	0.2961	0.4597	-0.088
Mof_C 	C 	0.3273	0.3273	0.40526	0.124
Mof_C 	C 	0.18454	0.18454	0.97952	0.088
Mof_C 	C 	0.2428	0.2428	0.96316	-0.034
Mof_C 	C 	0.2709	0.2709	0.95506	0.027
Mof_C 	C 	0.2961	0.2961	0.9481	-0.064
Mof_C 	C 	0.3273	0.3273	0.94014	0.135
Mof_C 	C 	0.6514	0.18454	0.18454	0.105
Mof_C 	C 	0.55124	0.2428	0.2428	-0.064
Mof_C 	C 	0.50314	0.2709	0.2709	0.019
Mof_C 	C 	0.4597	0.2961	0.2961	-0.088
Mof_C 	C 	0.40526	0.3273	0.3273	0.124
Mof_C 	C 	0.97952	0.18454	0.18454	0.088
Mof_C 	C 	0.96316	0.2428	0.2428	-0.034
Mof_C 	C 	0.95506	0.2709	0.2709	0.027
Mof_C 	C 	0.9481	0.2961	0.2961	-0.064
Mof_C 	C 	0.94014	0.3273	0.3273	0.135
Mof_C 	C 	0.18454	0.6514	0.97952	0.078
Mof_C 	C 	0.2428	0.55124	0.96316	-0.022
Mof_C 	C 	0.2709	0.50314	0.95506	0.028
Mof_C 	C 	0.2961	0.4597	0.9481	-0.058
Mof_C 	C 	0.3273	0.40526	0.94014	0.136
Mof_C 	C 	0.18454	0.97952	0.6514	0.078
Mof_C 	C 	0.2428	0.96316	0.55124	-0.022
Mof_C 	C 	0.2709	0.95506	0.50314	0.028
Mof_C 	C 	0.2961	0.9481	0.4597	-0.058
Mof_C 	C 	0.3273	0.94014	0.40526	0.136
Mof_C 	C 	0.6514	0.18454	0.97952	0.078
Mof_C 	C 	0.55124	0.2428	0.96316	-0.022
Mof_C 	C 	0.50314	0.2709	0.95506	0.028
Mof_C 	C 	0.4597	0.2961	0.9481	-0.058
Mof_C 	C 	0.40526	0.3273	0.94014	0.136
Mof_C 	C 	0.97952	0.18454	0.6514	0.078
Mof_C 	C 	0.96316	0.2428	0.55124	-0.022
Mof_C 	C 	0.95506	0.2709	0.50314	0.028
Mof_C 	C 	0.9481	0.2961	0.4597	-0.058
Mof_C 	C 	0.94014	0.3273	0.40526	0.136
Mof_C 	C 	0.18454	0.97952	0.18454	0.088
Mof_C 	C 	0.2428	0.96316	0.2428	-0.034
Mof_C 	C 	0.2709	0.95506	0.2709	0.027
Mof_C 	C 	0.2961	0.9481	0.2961	-0.064
Mof_C 	C 	0.3273	0.94014	0.3273	0.135
Mof_C 	C 	0.18454	0.6514	0.18454	0.105
Mof_C 	C 	0.2428	0.55124	0.2428	-0.064
Mof_C 	C 	0.2709	0.50314	0.2709	0.019
Mof_C 	C 	0.2961	0.4597	0.2961	-0.088
Mof_C 	C 	0.3273	0.40526	0.3273	0.124
Mof_C 	C 	0.02048	0.3486	0.81546	0.096
Mof_C 	C 	0.03684	0.44876	0.7572	-0.05
Mof_C 	C 	0.04494	0.49686	0.7291	0.022
Mof_C 	C 	0.0519	0.5403	0.7039	-0.077
Mof_C 	C 	0.05986	0.59474	0.6727	0.128
Mof_C 	C 	0.3486	0.02048	0.81546	0.096
Mof_C 	C 	0.44876	0.03684	0.7572	-0.05
Mof_C 	C 	0.49686	0.04494	0.7291	0.022
Mof_C 	C 	0.5403	0.0519	0.7039	-0.077
Mof_C 	C 	0.59474	0.05986	0.6727	0.128
Mof_C 	C 	0.81546	0.81546	0.3486	0.074
Mof_C 	C 	0.7572	0.7572	0.44876	-0.012
Mof_C 	C 	0.7291	0.7291	0.49686	0.031
Mof_C 	C 	0.7039	0.7039	0.5403	-0.051
Mof_C 	C 	0.6727	0.6727	0.59474	0.14
Mof_C 	C 	0.81546	0.81546	0.02048	0.083
Mof_C 	C 	0.7572	0.7572	0.03684	-0.034
Mof_C 	C 	0.7291	0.7291	0.04494	0.022
Mof_C 	C 	0.7039	0.7039	0.0519	-0.07
Mof_C 	C 	0.6727	0.6727	0.05986	0.129
Mof_C 	C 	0.81546	0.3486	0.81546	0.074
Mof_C 	C 	0.7572	0.44876	0.7572	-0.012
Mof_C 	C 	0.7291	0.49686	0.7291	0.031
Mof_C 	C 	0.7039	0.5403	0.7039	-0.051
Mof_C 	C 	0.6727	0.59474	0.6727	0.14
Mof_C 	C 	0.81546	0.02048	0.81546	0.083
Mof_C 	C 	0.7572	0.03684	0.7572	-0.034
Mof_C 	C 	0.7291	0.04494	0.7291	0.022
Mof_C 	C 	0.7039	0.0519	0.7039	-0.07
Mof_C 	C 	0.6727	0.05986	0.6727	0.129
Mof_C 	C 	0.3486	0.81546	0.02048	0.096
Mof_C 	C 	0.44876	0.7572	0.03684	-0.05
Mof_C 	C 	0.49686	0.7291	0.04494	0.022
Mof_C 	C 	0.5403	0.7039	0.0519	-0.077
Mof_C 	C 	0.59474	0.6727	0.05986	0.128
Mof_C 	C 	0.02048	0.81546	0.3486	0.096
Mof_C 	C 	0.03684	0.7572	0.44876	-0.05
Mof_C 	C 	0.04494	0.7291	0.49686	0.022
Mof_C 	C 	0.0519	0.7039	0.5403	-0.077
Mof_C 	C 	0.05986	0.6727	0.59474	0.128
Mof_C 	C 	0.81546	0.3486	0.02048	0.096
Mof_C 	C 	0.7572	0.44876	0.03684	-0.05
Mof_C 	C 	0.7291	0.49686	0.04494	0.022
Mof_C 	C 	0.7039	0.5403	0.0519	-0.077
Mof_C 	C 	0.6727	0.59474	0.05986	0.128
Mof_C 	C 	0.81546	0.02048	0.3486	0.096
Mof_C 	C 	0.7572	0.03684	0.44876	-0.05
Mof_C 	C 	0.7291	0.04494	0.49686	0.022
Mof_C 	C 	0.7039	0.0519	0.5403	-0.077
Mof_C 	C 	0.6727	0.05986	0.59474	0.128
Mof_C 	C 	0.02048	0.81546	0.81546	0.083
Mof_C 	C 	0.03684	0.7572	0.7572	-0.034
Mof_C 	C 	0.04494	0.7291	0.7291	0.022
Mof_C 	C 	0.0519	0.7039	0.7039	-0.07
Mof_C 	C 	0.05986	0.6727	0.6727	0.129
Mof_C 	C 	0.3486	0.81546	0.81546	0.074
Mof_C 	C 	0.44876	0.7572	0.7572	-0.012
Mof_C 	C 	0.49686	0.7291	0.7291	0.031
Mof_C 	C 	0.5403	0.7039	0.7039	-0.051
Mof_C 	C 	0.59474	0.6727	0.6727	0.14
Mof_C 	C 	0.3805	0.9383	0.3007	-0.189
Mof_C 	C 	0.9383	0.3805	0.3805	-0.188
Mof_C 	C 	0.3007	0.3805	0.3805	-0.196
Mof_C 	C 	0.3805	0.3007	0.9383	-0.189
Mof_C 	C 	0.3805	0.3007	0.3805	-0.196
Mof_C 	C 	0.9383	0.3805	0.3007	-0.189
Mof_C 	C 	0.3007	0.3805	0.9383	-0.189
Mof_C 	C 	0.3805	0.9383	0.3805	-0.188
Mof_C 	C 	0.3805	0.3805	0.9383	-0.188
Mof_C 	C 	0.9383	0.3007	0.3805	-0.189
Mof_C 	C 	0.3007	0.9383	0.3805	-0.189
Mof_C 	C 	0.3805	0.3805	0.3007	-0.196
Mof_C 	C 	0.0617	0.6195	0.6993	-0.192
Mof_C 	C 	0.6195	0.0617	0.6195	-0.193
Mof_C 	C 	0.6195	0.6993	0.6195	-0.186
Mof_C 	C 	0.6993	0.6195	0.0617	-0.192
Mof_C 	C 	0.6993	0.6195	0.6195	-0.186
Mof_C 	C 	0.6195	0.0617	0.6993	-0.192
Mof_C 	C 	0.6195	0.6993	0.0617	-0.192
Mof_C 	C 	0.0617	0.6195	0.6195	-0.193
Mof_C 	C 	0.6195	0.6195	0.0617	-0.193
Mof_C 	C 	0.6993	0.0617	0.6195	-0.192
Mof_C 	C 	0.0617	0.6993	0.6195	-0.192
Mof_C 	C 	0.6195	0.6195	0.6993	-0.186
Mof_O 	O 	0.69617	0.98667	0.07903	-0.455
Mof_O 	O 	0.62371	0.98603	0.07919	-0.459
Mof_O 	O 	0.98667	0.69617	0.23813	-0.424
Mof_O 	O 	0.98603	0.62371	0.31107	-0.421
Mof_O 	O 	0.07903	0.23813	0.69617	-0.538
Mof_O 	O 	0.07919	0.31107	0.62371	-0.534
Mof_O 	O 	0.23813	0.07903	0.98667	-0.469
Mof_O 	O 	0.31107	0.07919	0.98603	-0.461
Mof_O 	O 	0.69617	0.07903	0.23813	-0.538
Mof_O 	O 	0.62371	0.07919	0.31107	-0.534
Mof_O 	O 	0.98667	0.23813	0.07903	-0.469
Mof_O 	O 	0.98603	0.31107	0.07919	-0.461
Mof_O 	O 	0.07903	0.69617	0.98667	-0.455
Mof_O 	O 	0.07919	0.62371	0.98603	-0.459
Mof_O 	O 	0.23813	0.98667	0.69617	-0.424
Mof_O 	O 	0.31107	0.98603	0.62371	-0.421
Mof_O 	O 	0.69617	0.23813	0.98667	-0.424
Mof_O 	O 	0.62371	0.31107	0.98603	-0.421
Mof_O 	O 	0.98667	0.07903	0.69617	-0.455
Mof_O 	O 	0.98603	0.07919	0.62371	-0.459
Mof_O 	O 	0.07903	0.98667	0.23813	-0.469
Mof_O 	O 	0.07919	0.98603	0.31107	-0.461
Mof_O 	O 	0.23813	0.69617	0.07903	-0.538
Mof_O 	O 	0.31107	0.62371	0.07919	-0.534
Mof_O 	O 	0.01333	0.30383	0.92097	-0.477
Mof_O 	O 	0.01397	0.37629	0.92081	-0.467
Mof_O 	O 	0.30383	0.01333	0.76187	-0.532
Mof_O 	O 	0.37629	0.01397	0.68893	-0.531
Mof_O 	O 	0.76187	0.92097	0.30383	-0.42
Mof_O 	O 	0.68893	0.92081	0.37629	-0.419
Mof_O 	O 	0.92097	0.76187	0.01333	-0.461
Mof_O 	O 	0.92081	0.68893	0.01397	-0.463
Mof_O 	O 	0.92097	0.30383	0.76187	-0.42
Mof_O 	O 	0.92081	0.37629	0.68893	-0.419
Mof_O 	O 	0.76187	0.01333	0.92097	-0.461
Mof_O 	O 	0.68893	0.01397	0.92081	-0.463
Mof_O 	O 	0.30383	0.92097	0.01333	-0.477
Mof_O 	O 	0.37629	0.92081	0.01397	-0.467
Mof_O 	O 	0.01333	0.76187	0.30383	-0.532
Mof_O 	O 	0.01397	0.68893	0.37629	-0.531
Mof_O 	O 	0.76187	0.30383	0.01333	-0.532
Mof_O 	O 	0.68893	0.37629	0.01397	-0.531
Mof_O 	O 	0.92097	0.01333	0.30383	-0.477
Mof_O 	O 	0.92081	0.01397	0.37629	-0.467
Mof_O 	O 	0.01333	0.92097	0.76187	-0.461
Mof_O 	O 	0.01397	0.92081	0.68893	-0.463
Mof_O 	O 	0.30383	0.76187	0.92097	-0.42
Mof_O 	O 	0.37629	0.68893	0.92081	-0.419
Mof_O 	O 	0.30383	0.01333	0.92097	-0.477
Mof_O 	O 	0.37629	0.01397	0.92081	-0.467
Mof_O 	O 	0.01333	0.30383	0.76187	-0.532
Mof_O 	O 	0.01397	0.37629	0.68893	-0.531
Mof_O 	O 	0.92097	0.76187	0.30383	-0.42
Mof_O 	O 	0.92081	0.68893	0.37629	-0.419
Mof_O 	O 	0.76187	0.92097	0.01333	-0.461
Mof_O 	O 	0.68893	0.92081	0.01397	-0.463
Mof_O 	O 	0.30383	0.92097	0.76187	-0.42
Mof_O 	O 	0.37629	0.92081	0.68893	-0.419
Mof_O 	O 	0.01333	0.76187	0.92097	-0.461
Mof_O 	O 	0.01397	0.68893	0.92081	-0.463
Mof_O 	O 	0.92097	0.30383	0.01333	-0.477
Mof_O 	O 	0.92081	0.37629	0.01397	-0.467
Mof_O 	O 	0.76187	0.01333	0.30383	-0.532
Mof_O 	O 	0.68893	0.01397	0.37629	-0.531
Mof_O 	O 	0.30383	0.76187	0.01333	-0.532
Mof_O 	O 	0.37629	0.68893	0.01397	-0.531
Mof_O 	O 	0.01333	0.92097	0.30383	-0.477
Mof_O 	O 	0.01397	0.92081	0.37629	-0.467
Mof_O 	O 	0.92097	0.01333	0.76187	-0.461
Mof_O 	O 	0.92081	0.01397	0.68893	-0.463
Mof_O 	O 	0.76187	0.30383	0.92097	-0.42
Mof_O 	O 	0.68893	0.37629	0.92081	-0.419
Mof_O 	O 	0.98667	0.69617	0.07903	-0.455
Mof_O 	O 	0.98603	0.62371	0.07919	-0.459
Mof_O 	O 	0.69617	0.98667	0.23813	-0.424
Mof_O 	O 	0.62371	0.98603	0.31107	-0.421
Mof_O 	O 	0.23813	0.07903	0.69617	-0.538
Mof_O 	O 	0.31107	0.07919	0.62371	-0.534
Mof_O 	O 	0.07903	0.23813	0.98667	-0.469
Mof_O 	O 	0.07919	0.31107	0.98603	-0.461
Mof_O 	O 	0.07903	0.69617	0.23813	-0.538
Mof_O 	O 	0.07919	0.62371	0.31107	-0.534
Mof_O 	O 	0.23813	0.98667	0.07903	-0.469
Mof_O 	O 	0.31107	0.98603	0.07919	-0.461
Mof_O 	O 	0.69617	0.07903	0.98667	-0.455
Mof_O 	O 	0.62371	0.07919	0.98603	-0.459
Mof_O 	O 	0.98667	0.23813	0.69617	-0.424
Mof_O 	O 	0.98603	0.31107	0.62371	-0.421
Mof_O 	O 	0.23813	0.69617	0.98667	-0.424
Mof_O 	O 	0.31107	0.62371	0.98603	-0.421
Mof_O 	O 	0.07903	0.98667	0.69617	-0.455
Mof_O 	O 	0.07919	0.98603	0.62371	-0.459
Mof_O 	O 	0.98667	0.07903	0.23813	-0.469
Mof_O 	O 	0.98603	0.07919	0.31107	-0.461
Mof_O 	O 	0.69617	0.23813	0.07903	-0.538
Mof_O 	O 	0.62371	0.31107	0.07919	-0.534
_end
