# CIF file generated by openbabel 3.1.0, see https://openbabel.org
data_I
_chemical_name_common 'image0'
_cell_length_a 24.799
_cell_length_b 13.263
_cell_length_c 14.971
_cell_angle_alpha 90
_cell_angle_beta 96.635
_cell_angle_gamma 90
_space_group_name_H-M_alt 'P 1'
_space_group_name_Hall 'P 1'
loop_
    _symmetry_equiv_pos_as_xyz
    x,y,z
loop_
    _atom_site_label
    _atom_site_type_symbol
    _atom_site_fract_x
    _atom_site_fract_y
    _atom_site_fract_z
    _atom_site_occupancy
    C1       C        0.24950    0.93380    0.92610    1.000
    C2       C        0.21490    0.00700    0.86960    1.000
    C3       C        0.23670    0.05670    0.79950    1.000
    H1       H        0.27220    0.04360    0.78870    1.000
    C4       C        0.20590    0.12440    0.74690    1.000
    C5       C        0.15350    0.14650    0.76560    1.000
    H2       H        0.13270    0.19290    0.73000    1.000
    C6       C        0.13160    0.10040    0.83670    1.000
    C7       C        0.16220    0.02760    0.88610    1.000
    H3       H        0.14710    0.99220    0.93080    1.000
    C8       C        0.22740    0.17380    0.66650    1.000
    C9       C        0.07740    0.13120    0.86040    1.000
    C10      C        0.06160    0.23220    0.85440    1.000
    H4       H        0.08410    0.27940    0.83170    1.000
    C11      C        0.01270    0.26310    0.88190    1.000
    H5       H        0.00230    0.33040    0.87630    1.000
    C12      C        0.97930    0.19390    0.91770    1.000
    C13      C        0.99370    0.09410    0.92140    1.000
    H6       H        0.97070    0.04680    0.94280    1.000
    C14      C        0.04280    0.06320    0.89340    1.000
    H7       H        0.05230    0.99530    0.89700    1.000
    C15      C        0.92970    0.22840    0.95740    1.000
    La1      La       0.32989    0.79215    0.03064    1.000
    O1       O        0.29936    0.94660    0.93630    1.000
    O2       O        0.22684    0.86020    0.96180    1.000
    O3       O        0.27489    0.15140    0.65230    1.000
    O4       O        0.19728    0.23470    0.62360    1.000
    O5       O        0.91598    0.31930    0.95330    1.000
    O6       O        0.90199    0.16320    0.99370    1.000
    C16      C        0.74950    0.43380    0.92610    1.000
    C17      C        0.71490    0.50700    0.86960    1.000
    C18      C        0.73670    0.55670    0.79950    1.000
    H8       H        0.77220    0.54360    0.78870    1.000
    C19      C        0.70590    0.62440    0.74690    1.000
    C20      C        0.65350    0.64650    0.76560    1.000
    H9       H        0.63270    0.69290    0.73000    1.000
    C21      C        0.63160    0.60040    0.83670    1.000
    C22      C        0.66220    0.52760    0.88610    1.000
    H10      H        0.64710    0.49220    0.93080    1.000
    C23      C        0.72740    0.67380    0.66650    1.000
    C24      C        0.57740    0.63120    0.86040    1.000
    C25      C        0.56160    0.73220    0.85440    1.000
    H11      H        0.58410    0.77940    0.83170    1.000
    C26      C        0.51270    0.76310    0.88190    1.000
    H12      H        0.50230    0.83040    0.87630    1.000
    C27      C        0.47930    0.69390    0.91770    1.000
    C28      C        0.49370    0.59410    0.92140    1.000
    H13      H        0.47070    0.54680    0.94280    1.000
    C29      C        0.54280    0.56320    0.89340    1.000
    H14      H        0.55230    0.49530    0.89700    1.000
    C30      C        0.42970    0.72840    0.95740    1.000
    La2      La       0.82989    0.29215    0.03064    1.000
    O7       O        0.79936    0.44660    0.93630    1.000
    O8       O        0.72684    0.36020    0.96180    1.000
    O9       O        0.77489    0.65140    0.65230    1.000
    O10      O        0.69728    0.73470    0.62360    1.000
    O11      O        0.41598    0.81930    0.95330    1.000
    O12      O        0.40199    0.66320    0.99370    1.000
    C31      C        0.75050    0.93380    0.57390    1.000
    C32      C        0.78510    0.00700    0.63040    1.000
    C33      C        0.76330    0.05670    0.70050    1.000
    H15      H        0.72780    0.04360    0.71130    1.000
    C34      C        0.79410    0.12440    0.75310    1.000
    C35      C        0.84650    0.14650    0.73440    1.000
    H16      H        0.86730    0.19290    0.77000    1.000
    C36      C        0.86840    0.10040    0.66330    1.000
    C37      C        0.83780    0.02760    0.61390    1.000
    H17      H        0.85290    0.99220    0.56920    1.000
    C38      C        0.77260    0.17380    0.83350    1.000
    C39      C        0.92260    0.13120    0.63960    1.000
    C40      C        0.93840    0.23220    0.64560    1.000
    H18      H        0.91590    0.27940    0.66830    1.000
    C41      C        0.98730    0.26310    0.61810    1.000
    H19      H        0.99770    0.33040    0.62370    1.000
    C42      C        0.02070    0.19390    0.58230    1.000
    C43      C        0.00630    0.09410    0.57860    1.000
    H20      H        0.02930    0.04680    0.55720    1.000
    C44      C        0.95720    0.06320    0.60660    1.000
    H21      H        0.94770    0.99530    0.60300    1.000
    C45      C        0.07030    0.22840    0.54260    1.000
    La3      La       0.67011    0.79215    0.46936    1.000
    O13      O        0.70064    0.94660    0.56370    1.000
    O14      O        0.77316    0.86020    0.53820    1.000
    O15      O        0.72511    0.15140    0.84770    1.000
    O16      O        0.80272    0.23470    0.87640    1.000
    O17      O        0.08402    0.31930    0.54670    1.000
    O18      O        0.09801    0.16320    0.50630    1.000
    C46      C        0.25050    0.43380    0.57390    1.000
    C47      C        0.28510    0.50700    0.63040    1.000
    C48      C        0.26330    0.55670    0.70050    1.000
    H22      H        0.22780    0.54360    0.71130    1.000
    C49      C        0.29410    0.62440    0.75310    1.000
    C50      C        0.34650    0.64650    0.73440    1.000
    H23      H        0.36730    0.69290    0.77000    1.000
    C51      C        0.36840    0.60040    0.66330    1.000
    C52      C        0.33780    0.52760    0.61390    1.000
    H24      H        0.35290    0.49220    0.56920    1.000
    C53      C        0.27260    0.67380    0.83350    1.000
    C54      C        0.42260    0.63120    0.63960    1.000
    C55      C        0.43840    0.73220    0.64560    1.000
    H25      H        0.41590    0.77940    0.66830    1.000
    C56      C        0.48730    0.76310    0.61810    1.000
    H26      H        0.49770    0.83040    0.62370    1.000
    C57      C        0.52070    0.69390    0.58230    1.000
    C58      C        0.50630    0.59410    0.57860    1.000
    H27      H        0.52930    0.54680    0.55720    1.000
    C59      C        0.45720    0.56320    0.60660    1.000
    H28      H        0.44770    0.49530    0.60300    1.000
    C60      C        0.57030    0.72840    0.54260    1.000
    La4      La       0.17011    0.29215    0.46936    1.000
    O19      O        0.20064    0.44660    0.56370    1.000
    O20      O        0.27316    0.36020    0.53820    1.000
    O21      O        0.22511    0.65140    0.84770    1.000
    O22      O        0.30272    0.73470    0.87640    1.000
    O23      O        0.58402    0.81930    0.54670    1.000
    O24      O        0.59801    0.66320    0.50630    1.000
    C61      C        0.75050    0.06620    0.07390    1.000
    C62      C        0.78510    0.99300    0.13040    1.000
    C63      C        0.76330    0.94330    0.20050    1.000
    H29      H        0.72780    0.95640    0.21130    1.000
    C64      C        0.79410    0.87560    0.25310    1.000
    C65      C        0.84650    0.85350    0.23440    1.000
    H30      H        0.86730    0.80710    0.27000    1.000
    C66      C        0.86840    0.89960    0.16330    1.000
    C67      C        0.83780    0.97240    0.11390    1.000
    H31      H        0.85290    0.00780    0.06920    1.000
    C68      C        0.77260    0.82620    0.33350    1.000
    C69      C        0.92260    0.86880    0.13960    1.000
    C70      C        0.93840    0.76780    0.14560    1.000
    H32      H        0.91590    0.72060    0.16830    1.000
    C71      C        0.98730    0.73690    0.11810    1.000
    H33      H        0.99770    0.66960    0.12370    1.000
    C72      C        0.02070    0.80610    0.08230    1.000
    C73      C        0.00630    0.90590    0.07860    1.000
    H34      H        0.02930    0.95320    0.05720    1.000
    C74      C        0.95720    0.93680    0.10660    1.000
    H35      H        0.94770    0.00470    0.10300    1.000
    C75      C        0.07030    0.77160    0.04260    1.000
    La5      La       0.67011    0.20785    0.96936    1.000
    O25      O        0.70064    0.05340    0.06370    1.000
    O26      O        0.77316    0.13980    0.03820    1.000
    O27      O        0.72511    0.84860    0.34770    1.000
    O28      O        0.80272    0.76530    0.37640    1.000
    O29      O        0.08402    0.68070    0.04670    1.000
    O30      O        0.09801    0.83680    0.00630    1.000
    C76      C        0.25050    0.56620    0.07390    1.000
    C77      C        0.28510    0.49300    0.13040    1.000
    C78      C        0.26330    0.44330    0.20050    1.000
    H36      H        0.22780    0.45640    0.21130    1.000
    C79      C        0.29410    0.37560    0.25310    1.000
    C80      C        0.34650    0.35350    0.23440    1.000
    H37      H        0.36730    0.30710    0.27000    1.000
    C81      C        0.36840    0.39960    0.16330    1.000
    C82      C        0.33780    0.47240    0.11390    1.000
    H38      H        0.35290    0.50780    0.06920    1.000
    C83      C        0.27260    0.32620    0.33350    1.000
    C84      C        0.42260    0.36880    0.13960    1.000
    C85      C        0.43840    0.26780    0.14560    1.000
    H39      H        0.41590    0.22060    0.16830    1.000
    C86      C        0.48730    0.23690    0.11810    1.000
    H40      H        0.49770    0.16960    0.12370    1.000
    C87      C        0.52070    0.30610    0.08230    1.000
    C88      C        0.50630    0.40590    0.07860    1.000
    H41      H        0.52930    0.45320    0.05720    1.000
    C89      C        0.45720    0.43680    0.10660    1.000
    H42      H        0.44770    0.50470    0.10300    1.000
    C90      C        0.57030    0.27160    0.04260    1.000
    La6      La       0.17011    0.70785    0.96936    1.000
    O31      O        0.20064    0.55340    0.06370    1.000
    O32      O        0.27316    0.63980    0.03820    1.000
    O33      O        0.22511    0.34860    0.34770    1.000
    O34      O        0.30272    0.26530    0.37640    1.000
    O35      O        0.58402    0.18070    0.04670    1.000
    O36      O        0.59801    0.33680    0.00630    1.000
    C91      C        0.24950    0.06620    0.42610    1.000
    C92      C        0.21490    0.99300    0.36960    1.000
    C93      C        0.23670    0.94330    0.29950    1.000
    H43      H        0.27220    0.95640    0.28870    1.000
    C94      C        0.20590    0.87560    0.24690    1.000
    C95      C        0.15350    0.85350    0.26560    1.000
    H44      H        0.13270    0.80710    0.23000    1.000
    C96      C        0.13160    0.89960    0.33670    1.000
    C97      C        0.16220    0.97240    0.38610    1.000
    H45      H        0.14710    0.00780    0.43080    1.000
    C98      C        0.22740    0.82620    0.16650    1.000
    C99      C        0.07740    0.86880    0.36040    1.000
    C100     C        0.06160    0.76780    0.35440    1.000
    H46      H        0.08410    0.72060    0.33170    1.000
    C101     C        0.01270    0.73690    0.38190    1.000
    H47      H        0.00230    0.66960    0.37630    1.000
    C102     C        0.97930    0.80610    0.41770    1.000
    C103     C        0.99370    0.90590    0.42140    1.000
    H48      H        0.97070    0.95320    0.44280    1.000
    C104     C        0.04280    0.93680    0.39340    1.000
    H49      H        0.05230    0.00470    0.39700    1.000
    C105     C        0.92970    0.77160    0.45740    1.000
    La7      La       0.32989    0.20785    0.53064    1.000
    O37      O        0.29936    0.05340    0.43630    1.000
    O38      O        0.22684    0.13980    0.46180    1.000
    O39      O        0.27489    0.84860    0.15230    1.000
    O40      O        0.19728    0.76530    0.12360    1.000
    O41      O        0.91598    0.68070    0.45330    1.000
    O42      O        0.90199    0.83680    0.49370    1.000
    C106     C        0.74950    0.56620    0.42610    1.000
    C107     C        0.71490    0.49300    0.36960    1.000
    C108     C        0.73670    0.44330    0.29950    1.000
    H50      H        0.77220    0.45640    0.28870    1.000
    C109     C        0.70590    0.37560    0.24690    1.000
    C110     C        0.65350    0.35350    0.26560    1.000
    H51      H        0.63270    0.30710    0.23000    1.000
    C111     C        0.63160    0.39960    0.33670    1.000
    C112     C        0.66220    0.47240    0.38610    1.000
    H52      H        0.64710    0.50780    0.43080    1.000
    C113     C        0.72740    0.32620    0.16650    1.000
    C114     C        0.57740    0.36880    0.36040    1.000
    C115     C        0.56160    0.26780    0.35440    1.000
    H53      H        0.58410    0.22060    0.33170    1.000
    C116     C        0.51270    0.23690    0.38190    1.000
    H54      H        0.50230    0.16960    0.37630    1.000
    C117     C        0.47930    0.30610    0.41770    1.000
    C118     C        0.49370    0.40590    0.42140    1.000
    H55      H        0.47070    0.45320    0.44280    1.000
    C119     C        0.54280    0.43680    0.39340    1.000
    H56      H        0.55230    0.50470    0.39700    1.000
    C120     C        0.42970    0.27160    0.45740    1.000
    La8      La       0.82989    0.70785    0.53064    1.000
    O43      O        0.79936    0.55340    0.43630    1.000
    O44      O        0.72684    0.63980    0.46180    1.000
    O45      O        0.77489    0.34860    0.15230    1.000
    O46      O        0.69728    0.26530    0.12360    1.000
    O47      O        0.41598    0.18070    0.45330    1.000
    O48      O        0.40199    0.33680    0.49370    1.000
