# CIF file generated by openbabel 3.1.0, see https://openbabel.org
data_I
_chemical_name_common 'image0'
_cell_length_a 11.9308
_cell_length_b 18.9239
_cell_length_c 22.4189
_cell_angle_alpha 90
_cell_angle_beta 90
_cell_angle_gamma 90
_space_group_name_H-M_alt 'P 1'
_space_group_name_Hall 'P 1'
loop_
    _symmetry_equiv_pos_as_xyz
    x,y,z
loop_
    _atom_site_label
    _atom_site_type_symbol
    _atom_site_fract_x
    _atom_site_fract_y
    _atom_site_fract_z
    _atom_site_occupancy
    Ag1      Ag       0.27978    0.19757    0.69825    1.000
    N1       N        0.39340    0.29140    0.67840    1.000
    N2       N        0.36940    0.36010    0.68340    1.000
    N3       N        0.54290    0.35070    0.65378    1.000
    N4       N        0.01480    0.17460    0.66810    1.000
    N5       N        0.09170    0.22670    0.68300    1.000
    N6       N        0.93740    0.27910    0.65630    1.000
    N7       N        0.90880    0.63350    0.68710    1.000
    N8       N        0.82240    0.62640    0.72430    1.000
    N9       N        0.83250    0.53050    0.67067    1.000
    N10      N        0.78950    0.37300    0.38870    1.000
    N11      N        0.81800    0.44330    0.39260    1.000
    N12      N        0.78870    0.40250    0.48274    1.000
    C1       C        0.49750    0.28650    0.66240    1.000
    H1       H        0.53580    0.24410    0.65740    1.000
    C2       C        0.45940    0.39310    0.66890    1.000
    H2       H        0.46530    0.44210    0.66910    1.000
    C3       C        0.92530    0.20850    0.65230    1.000
    H3       H        0.85990    0.18650    0.63950    1.000
    C4       C        0.04380    0.28640    0.67440    1.000
    H4       H        0.07880    0.32980    0.68010    1.000
    C5       C        0.91370    0.57600    0.65640    1.000
    H5       H        0.96780    0.56720    0.62750    1.000
    C6       C        0.77730    0.56580    0.71340    1.000
    H6       H        0.71410    0.54870    0.73290    1.000
    C7       C        0.77310    0.35040    0.44300    1.000
    H7       H        0.75320    0.30430    0.45280    1.000
    C8       C        0.81790    0.45920    0.44950    1.000
    H8       H        0.83550    0.50350    0.46490    1.000
    C9       C        0.65720    0.36980    0.63460    1.000
    C10      C        0.73900    0.31280    0.65640    1.000
    H9       H        0.73550    0.30890    0.69950    1.000
    H10      H        0.71930    0.26740    0.63930    1.000
    C11      C        0.85640    0.33390    0.63710    1.000
    C12      C        0.88850    0.40570    0.66540    1.000
    H11      H        0.88640    0.40210    0.70850    1.000
    H12      H        0.96400    0.41870    0.65360    1.000
    C13      C        0.80660    0.46090    0.64450    1.000
    C14      C        0.68700    0.44120    0.66300    1.000
    H13      H        0.63490    0.47720    0.64970    1.000
    H14      H        0.68210    0.43780    0.70610    1.000
    C15      C        0.66230    0.37580    0.56640    1.000
    H15      H        0.64270    0.33090    0.54830    1.000
    H16      H        0.60960    0.41120    0.55260    1.000
    C16      C        0.78170    0.39670    0.54870    1.000
    C17      C        0.86290    0.33960    0.56830    1.000
    H17      H        0.93850    0.35170    0.55610    1.000
    H18      H        0.84300    0.29480    0.55020    1.000
    C18      C        0.81220    0.46750    0.57640    1.000
    H19      H        0.76030    0.50360    0.56290    1.000
    H20      H        0.88720    0.48120    0.56430    1.000
    Ag2      Ag       0.77978    0.30243    0.30175    1.000
    N13      N        0.89340    0.20860    0.32160    1.000
    N14      N        0.86940    0.13990    0.31660    1.000
    N15      N        0.04290    0.14930    0.34622    1.000
    N16      N        0.51480    0.32540    0.33190    1.000
    N17      N        0.59170    0.27330    0.31700    1.000
    N18      N        0.43740    0.22090    0.34370    1.000
    N19      N        0.40880    0.86650    0.31290    1.000
    N20      N        0.32240    0.87360    0.27570    1.000
    N21      N        0.33250    0.96950    0.32933    1.000
    N22      N        0.28950    0.12700    0.61130    1.000
    N23      N        0.31800    0.05670    0.60740    1.000
    N24      N        0.28870    0.09750    0.51726    1.000
    C19      C        0.99750    0.21350    0.33760    1.000
    H21      H        0.03580    0.25590    0.34260    1.000
    C20      C        0.95940    0.10690    0.33110    1.000
    H22      H        0.96530    0.05790    0.33090    1.000
    C21      C        0.42530    0.29150    0.34770    1.000
    H23      H        0.35990    0.31350    0.36050    1.000
    C22      C        0.54380    0.21360    0.32560    1.000
    H24      H        0.57880    0.17020    0.31990    1.000
    C23      C        0.41370    0.92400    0.34360    1.000
    H25      H        0.46780    0.93280    0.37250    1.000
    C24      C        0.27730    0.93420    0.28660    1.000
    H26      H        0.21410    0.95130    0.26710    1.000
    C25      C        0.27310    0.14960    0.55700    1.000
    H27      H        0.25320    0.19570    0.54720    1.000
    C26      C        0.31790    0.04080    0.55050    1.000
    H28      H        0.33550    0.99650    0.53510    1.000
    C27      C        0.15720    0.13020    0.36540    1.000
    C28      C        0.23900    0.18720    0.34360    1.000
    H29      H        0.23550    0.19110    0.30050    1.000
    H30      H        0.21930    0.23260    0.36070    1.000
    C29      C        0.35640    0.16610    0.36290    1.000
    C30      C        0.38850    0.09430    0.33460    1.000
    H31      H        0.38640    0.09790    0.29150    1.000
    H32      H        0.46400    0.08130    0.34640    1.000
    C31      C        0.30660    0.03910    0.35550    1.000
    C32      C        0.18700    0.05880    0.33700    1.000
    H33      H        0.13490    0.02280    0.35030    1.000
    H34      H        0.18210    0.06220    0.29390    1.000
    C33      C        0.16230    0.12420    0.43360    1.000
    H35      H        0.14270    0.16910    0.45170    1.000
    H36      H        0.10960    0.08880    0.44740    1.000
    C34      C        0.28170    0.10330    0.45130    1.000
    C35      C        0.36290    0.16040    0.43170    1.000
    H37      H        0.43850    0.14830    0.44390    1.000
    H38      H        0.34300    0.20520    0.44980    1.000
    C36      C        0.31220    0.03250    0.42360    1.000
    H39      H        0.26030    0.99640    0.43710    1.000
    H40      H        0.38720    0.01880    0.43570    1.000
    Ag3      Ag       0.77978    0.69757    0.80175    1.000
    N25      N        0.89340    0.79140    0.82160    1.000
    N26      N        0.86940    0.86010    0.81660    1.000
    N27      N        0.04290    0.85070    0.84622    1.000
    N28      N        0.51480    0.67460    0.83190    1.000
    N29      N        0.59170    0.72670    0.81700    1.000
    N30      N        0.43740    0.77910    0.84370    1.000
    N31      N        0.40880    0.13350    0.81290    1.000
    N32      N        0.32240    0.12640    0.77570    1.000
    N33      N        0.33250    0.03050    0.82933    1.000
    N34      N        0.28950    0.87300    0.11130    1.000
    N35      N        0.31800    0.94330    0.10740    1.000
    N36      N        0.28870    0.90250    0.01726    1.000
    C37      C        0.99750    0.78650    0.83760    1.000
    H41      H        0.03580    0.74410    0.84260    1.000
    C38      C        0.95940    0.89310    0.83110    1.000
    H42      H        0.96530    0.94210    0.83090    1.000
    C39      C        0.42530    0.70850    0.84770    1.000
    H43      H        0.35990    0.68650    0.86050    1.000
    C40      C        0.54380    0.78640    0.82560    1.000
    H44      H        0.57880    0.82980    0.81990    1.000
    C41      C        0.41370    0.07600    0.84360    1.000
    H45      H        0.46780    0.06720    0.87250    1.000
    C42      C        0.27730    0.06580    0.78660    1.000
    H46      H        0.21410    0.04870    0.76710    1.000
    C43      C        0.27310    0.85040    0.05700    1.000
    H47      H        0.25320    0.80430    0.04720    1.000
    C44      C        0.31790    0.95920    0.05050    1.000
    H48      H        0.33550    0.00350    0.03510    1.000
    C45      C        0.15720    0.86980    0.86540    1.000
    C46      C        0.23900    0.81280    0.84360    1.000
    H49      H        0.23550    0.80890    0.80050    1.000
    H50      H        0.21930    0.76740    0.86070    1.000
    C47      C        0.35640    0.83390    0.86290    1.000
    C48      C        0.38850    0.90570    0.83460    1.000
    H51      H        0.38640    0.90210    0.79150    1.000
    H52      H        0.46400    0.91870    0.84640    1.000
    C49      C        0.30660    0.96090    0.85550    1.000
    C50      C        0.18700    0.94120    0.83700    1.000
    H53      H        0.13490    0.97720    0.85030    1.000
    H54      H        0.18210    0.93780    0.79390    1.000
    C51      C        0.16230    0.87580    0.93360    1.000
    H55      H        0.14270    0.83090    0.95170    1.000
    H56      H        0.10960    0.91120    0.94740    1.000
    C52      C        0.28170    0.89670    0.95130    1.000
    C53      C        0.36290    0.83960    0.93170    1.000
    H57      H        0.43850    0.85170    0.94390    1.000
    H58      H        0.34300    0.79480    0.94980    1.000
    C54      C        0.31220    0.96750    0.92360    1.000
    H59      H        0.26030    0.00360    0.93710    1.000
    H60      H        0.38720    0.98120    0.93570    1.000
    Ag4      Ag       0.27978    0.80243    0.19825    1.000
    N37      N        0.39340    0.70860    0.17840    1.000
    N38      N        0.36940    0.63990    0.18340    1.000
    N39      N        0.54290    0.64930    0.15378    1.000
    N40      N        0.01480    0.82540    0.16810    1.000
    N41      N        0.09170    0.77330    0.18300    1.000
    N42      N        0.93740    0.72090    0.15630    1.000
    N43      N        0.90880    0.36650    0.18710    1.000
    N44      N        0.82240    0.37360    0.22430    1.000
    N45      N        0.83250    0.46950    0.17067    1.000
    N46      N        0.78950    0.62700    0.88870    1.000
    N47      N        0.81800    0.55670    0.89260    1.000
    N48      N        0.78870    0.59750    0.98274    1.000
    C55      C        0.49750    0.71350    0.16240    1.000
    H61      H        0.53580    0.75590    0.15740    1.000
    C56      C        0.45940    0.60690    0.16890    1.000
    H62      H        0.46530    0.55790    0.16910    1.000
    C57      C        0.92530    0.79150    0.15230    1.000
    H63      H        0.85990    0.81350    0.13950    1.000
    C58      C        0.04380    0.71360    0.17440    1.000
    H64      H        0.07880    0.67020    0.18010    1.000
    C59      C        0.91370    0.42400    0.15640    1.000
    H65      H        0.96780    0.43280    0.12750    1.000
    C60      C        0.77730    0.43420    0.21340    1.000
    H66      H        0.71410    0.45130    0.23290    1.000
    C61      C        0.77310    0.64960    0.94300    1.000
    H67      H        0.75320    0.69570    0.95280    1.000
    C62      C        0.81790    0.54080    0.94950    1.000
    H68      H        0.83550    0.49650    0.96490    1.000
    C63      C        0.65720    0.63020    0.13460    1.000
    C64      C        0.73900    0.68720    0.15640    1.000
    H69      H        0.73550    0.69110    0.19950    1.000
    H70      H        0.71930    0.73260    0.13930    1.000
    C65      C        0.85640    0.66610    0.13710    1.000
    C66      C        0.88850    0.59430    0.16540    1.000
    H71      H        0.88640    0.59790    0.20850    1.000
    H72      H        0.96400    0.58130    0.15360    1.000
    C67      C        0.80660    0.53910    0.14450    1.000
    C68      C        0.68700    0.55880    0.16300    1.000
    H73      H        0.63490    0.52280    0.14970    1.000
    H74      H        0.68210    0.56220    0.20610    1.000
    C69      C        0.66230    0.62420    0.06640    1.000
    H75      H        0.64270    0.66910    0.04830    1.000
    H76      H        0.60960    0.58880    0.05260    1.000
    C70      C        0.78170    0.60330    0.04870    1.000
    C71      C        0.86290    0.66040    0.06830    1.000
    H77      H        0.93850    0.64830    0.05610    1.000
    H78      H        0.84300    0.70520    0.05020    1.000
    C72      C        0.81220    0.53250    0.07640    1.000
    H79      H        0.76030    0.49640    0.06290    1.000
    H80      H        0.88720    0.51880    0.06430    1.000
    Ag5      Ag       0.22022    0.30243    0.19825    1.000
    N49      N        0.10660    0.20860    0.17840    1.000
    N50      N        0.13060    0.13990    0.18340    1.000
    N51      N        0.95710    0.14930    0.15378    1.000
    N52      N        0.48520    0.32540    0.16810    1.000
    N53      N        0.40830    0.27330    0.18300    1.000
    N54      N        0.56260    0.22090    0.15630    1.000
    N55      N        0.59120    0.86650    0.18710    1.000
    N56      N        0.67760    0.87360    0.22430    1.000
    N57      N        0.66750    0.96950    0.17067    1.000
    N58      N        0.71050    0.12700    0.88870    1.000
    N59      N        0.68200    0.05670    0.89260    1.000
    N60      N        0.71130    0.09750    0.98274    1.000
    C73      C        0.00250    0.21350    0.16240    1.000
    H81      H        0.96420    0.25590    0.15740    1.000
    C74      C        0.04060    0.10690    0.16890    1.000
    H82      H        0.03470    0.05790    0.16910    1.000
    C75      C        0.57470    0.29150    0.15230    1.000
    H83      H        0.64010    0.31350    0.13950    1.000
    C76      C        0.45620    0.21360    0.17440    1.000
    H84      H        0.42120    0.17020    0.18010    1.000
    C77      C        0.58630    0.92400    0.15640    1.000
    H85      H        0.53220    0.93280    0.12750    1.000
    C78      C        0.72270    0.93420    0.21340    1.000
    H86      H        0.78590    0.95130    0.23290    1.000
    C79      C        0.72690    0.14960    0.94300    1.000
    H87      H        0.74680    0.19570    0.95280    1.000
    C80      C        0.68210    0.04080    0.94950    1.000
    H88      H        0.66450    0.99650    0.96490    1.000
    C81      C        0.84280    0.13020    0.13460    1.000
    C82      C        0.76100    0.18720    0.15640    1.000
    H89      H        0.76450    0.19110    0.19950    1.000
    H90      H        0.78070    0.23260    0.13930    1.000
    C83      C        0.64360    0.16610    0.13710    1.000
    C84      C        0.61150    0.09430    0.16540    1.000
    H91      H        0.61360    0.09790    0.20850    1.000
    H92      H        0.53600    0.08130    0.15360    1.000
    C85      C        0.69340    0.03910    0.14450    1.000
    C86      C        0.81300    0.05880    0.16300    1.000
    H93      H        0.86510    0.02280    0.14970    1.000
    H94      H        0.81790    0.06220    0.20610    1.000
    C87      C        0.83770    0.12420    0.06640    1.000
    H95      H        0.85730    0.16910    0.04830    1.000
    H96      H        0.89040    0.08880    0.05260    1.000
    C88      C        0.71830    0.10330    0.04870    1.000
    C89      C        0.63710    0.16040    0.06830    1.000
    H97      H        0.56150    0.14830    0.05610    1.000
    H98      H        0.65700    0.20520    0.05020    1.000
    C90      C        0.68780    0.03250    0.07640    1.000
    H99      H        0.73970    0.99640    0.06290    1.000
    H100     H        0.61280    0.01880    0.06430    1.000
    Ag6      Ag       0.72022    0.19757    0.80175    1.000
    N61      N        0.60660    0.29140    0.82160    1.000
    N62      N        0.63060    0.36010    0.81660    1.000
    N63      N        0.45710    0.35070    0.84622    1.000
    N64      N        0.98520    0.17460    0.83190    1.000
    N65      N        0.90830    0.22670    0.81700    1.000
    N66      N        0.06260    0.27910    0.84370    1.000
    N67      N        0.09120    0.63350    0.81290    1.000
    N68      N        0.17760    0.62640    0.77570    1.000
    N69      N        0.16750    0.53050    0.82933    1.000
    N70      N        0.21050    0.37300    0.11130    1.000
    N71      N        0.18200    0.44330    0.10740    1.000
    N72      N        0.21130    0.40250    0.01726    1.000
    C91      C        0.50250    0.28650    0.83760    1.000
    H101     H        0.46420    0.24410    0.84260    1.000
    C92      C        0.54060    0.39310    0.83110    1.000
    H102     H        0.53470    0.44210    0.83090    1.000
    C93      C        0.07470    0.20850    0.84770    1.000
    H103     H        0.14010    0.18650    0.86050    1.000
    C94      C        0.95620    0.28640    0.82560    1.000
    H104     H        0.92120    0.32980    0.81990    1.000
    C95      C        0.08630    0.57600    0.84360    1.000
    H105     H        0.03220    0.56720    0.87250    1.000
    C96      C        0.22270    0.56580    0.78660    1.000
    H106     H        0.28590    0.54870    0.76710    1.000
    C97      C        0.22690    0.35040    0.05700    1.000
    H107     H        0.24680    0.30430    0.04720    1.000
    C98      C        0.18210    0.45920    0.05050    1.000
    H108     H        0.16450    0.50350    0.03510    1.000
    C99      C        0.34280    0.36980    0.86540    1.000
    C100     C        0.26100    0.31280    0.84360    1.000
    H109     H        0.26450    0.30890    0.80050    1.000
    H110     H        0.28070    0.26740    0.86070    1.000
    C101     C        0.14360    0.33390    0.86290    1.000
    C102     C        0.11150    0.40570    0.83460    1.000
    H111     H        0.11360    0.40210    0.79150    1.000
    H112     H        0.03600    0.41870    0.84640    1.000
    C103     C        0.19340    0.46090    0.85550    1.000
    C104     C        0.31300    0.44120    0.83700    1.000
    H113     H        0.36510    0.47720    0.85030    1.000
    H114     H        0.31790    0.43780    0.79390    1.000
    C105     C        0.33770    0.37580    0.93360    1.000
    H115     H        0.35730    0.33090    0.95170    1.000
    H116     H        0.39040    0.41120    0.94740    1.000
    C106     C        0.21830    0.39670    0.95130    1.000
    C107     C        0.13710    0.33960    0.93170    1.000
    H117     H        0.06150    0.35170    0.94390    1.000
    H118     H        0.15700    0.29480    0.94980    1.000
    C108     C        0.18780    0.46750    0.92360    1.000
    H119     H        0.23970    0.50360    0.93710    1.000
    H120     H        0.11280    0.48120    0.93570    1.000
    Ag7      Ag       0.72022    0.80243    0.30175    1.000
    N73      N        0.60660    0.70860    0.32160    1.000
    N74      N        0.63060    0.63990    0.31660    1.000
    N75      N        0.45710    0.64930    0.34622    1.000
    N76      N        0.98520    0.82540    0.33190    1.000
    N77      N        0.90830    0.77330    0.31700    1.000
    N78      N        0.06260    0.72090    0.34370    1.000
    N79      N        0.09120    0.36650    0.31290    1.000
    N80      N        0.17760    0.37360    0.27570    1.000
    N81      N        0.16750    0.46950    0.32933    1.000
    N82      N        0.21050    0.62700    0.61130    1.000
    N83      N        0.18200    0.55670    0.60740    1.000
    N84      N        0.21130    0.59750    0.51726    1.000
    C109     C        0.50250    0.71350    0.33760    1.000
    H121     H        0.46420    0.75590    0.34260    1.000
    C110     C        0.54060    0.60690    0.33110    1.000
    H122     H        0.53470    0.55790    0.33090    1.000
    C111     C        0.07470    0.79150    0.34770    1.000
    H123     H        0.14010    0.81350    0.36050    1.000
    C112     C        0.95620    0.71360    0.32560    1.000
    H124     H        0.92120    0.67020    0.31990    1.000
    C113     C        0.08630    0.42400    0.34360    1.000
    H125     H        0.03220    0.43280    0.37250    1.000
    C114     C        0.22270    0.43420    0.28660    1.000
    H126     H        0.28590    0.45130    0.26710    1.000
    C115     C        0.22690    0.64960    0.55700    1.000
    H127     H        0.24680    0.69570    0.54720    1.000
    C116     C        0.18210    0.54080    0.55050    1.000
    H128     H        0.16450    0.49650    0.53510    1.000
    C117     C        0.34280    0.63020    0.36540    1.000
    C118     C        0.26100    0.68720    0.34360    1.000
    H129     H        0.26450    0.69110    0.30050    1.000
    H130     H        0.28070    0.73260    0.36070    1.000
    C119     C        0.14360    0.66610    0.36290    1.000
    C120     C        0.11150    0.59430    0.33460    1.000
    H131     H        0.11360    0.59790    0.29150    1.000
    H132     H        0.03600    0.58130    0.34640    1.000
    C121     C        0.19340    0.53910    0.35550    1.000
    C122     C        0.31300    0.55880    0.33700    1.000
    H133     H        0.36510    0.52280    0.35030    1.000
    H134     H        0.31790    0.56220    0.29390    1.000
    C123     C        0.33770    0.62420    0.43360    1.000
    H135     H        0.35730    0.66910    0.45170    1.000
    H136     H        0.39040    0.58880    0.44740    1.000
    C124     C        0.21830    0.60330    0.45130    1.000
    C125     C        0.13710    0.66040    0.43170    1.000
    H137     H        0.06150    0.64830    0.44390    1.000
    H138     H        0.15700    0.70520    0.44980    1.000
    C126     C        0.18780    0.53250    0.42360    1.000
    H139     H        0.23970    0.49640    0.43710    1.000
    H140     H        0.11280    0.51880    0.43570    1.000
    Ag8      Ag       0.22022    0.69757    0.69825    1.000
    N85      N        0.10660    0.79140    0.67840    1.000
    N86      N        0.13060    0.86010    0.68340    1.000
    N87      N        0.95710    0.85070    0.65378    1.000
    N88      N        0.48520    0.67460    0.66810    1.000
    N89      N        0.40830    0.72670    0.68300    1.000
    N90      N        0.56260    0.77910    0.65630    1.000
    N91      N        0.59120    0.13350    0.68710    1.000
    N92      N        0.67760    0.12640    0.72430    1.000
    N93      N        0.66750    0.03050    0.67067    1.000
    N94      N        0.71050    0.87300    0.38870    1.000
    N95      N        0.68200    0.94330    0.39260    1.000
    N96      N        0.71130    0.90250    0.48274    1.000
    C127     C        0.00250    0.78650    0.66240    1.000
    H141     H        0.96420    0.74410    0.65740    1.000
    C128     C        0.04060    0.89310    0.66890    1.000
    H142     H        0.03470    0.94210    0.66910    1.000
    C129     C        0.57470    0.70850    0.65230    1.000
    H143     H        0.64010    0.68650    0.63950    1.000
    C130     C        0.45620    0.78640    0.67440    1.000
    H144     H        0.42120    0.82980    0.68010    1.000
    C131     C        0.58630    0.07600    0.65640    1.000
    H145     H        0.53220    0.06720    0.62750    1.000
    C132     C        0.72270    0.06580    0.71340    1.000
    H146     H        0.78590    0.04870    0.73290    1.000
    C133     C        0.72690    0.85040    0.44300    1.000
    H147     H        0.74680    0.80430    0.45280    1.000
    C134     C        0.68210    0.95920    0.44950    1.000
    H148     H        0.66450    0.00350    0.46490    1.000
    C135     C        0.84280    0.86980    0.63460    1.000
    C136     C        0.76100    0.81280    0.65640    1.000
    H149     H        0.76450    0.80890    0.69950    1.000
    H150     H        0.78070    0.76740    0.63930    1.000
    C137     C        0.64360    0.83390    0.63710    1.000
    C138     C        0.61150    0.90570    0.66540    1.000
    H151     H        0.61360    0.90210    0.70850    1.000
    H152     H        0.53600    0.91870    0.65360    1.000
    C139     C        0.69340    0.96090    0.64450    1.000
    C140     C        0.81300    0.94120    0.66300    1.000
    H153     H        0.86510    0.97720    0.64970    1.000
    H154     H        0.81790    0.93780    0.70610    1.000
    C141     C        0.83770    0.87580    0.56640    1.000
    H155     H        0.85730    0.83090    0.54830    1.000
    H156     H        0.89040    0.91120    0.55260    1.000
    C142     C        0.71830    0.89670    0.54870    1.000
    C143     C        0.63710    0.83960    0.56830    1.000
    H157     H        0.56150    0.85170    0.55610    1.000
    H158     H        0.65700    0.79480    0.55020    1.000
    C144     C        0.68780    0.96750    0.57640    1.000
    H159     H        0.73970    0.00360    0.56290    1.000
    H160     H        0.61280    0.98120    0.56430    1.000
