# CIF file generated by openbabel 3.1.0, see https://openbabel.org
data_I
_chemical_name_common 'image0'
_cell_length_a 11.3502
_cell_length_b 16.1501
_cell_length_c 11.3658
_cell_angle_alpha 90
_cell_angle_beta 101.935
_cell_angle_gamma 90
_space_group_name_H-M_alt 'P 1'
_space_group_name_Hall 'P 1'
loop_
    _symmetry_equiv_pos_as_xyz
    x,y,z
loop_
    _atom_site_label
    _atom_site_type_symbol
    _atom_site_fract_x
    _atom_site_fract_y
    _atom_site_fract_z
    _atom_site_occupancy
    Cu1      Cu       0.37257    0.58984    0.61627    1.000
    O1       O        0.41844    0.57168    0.45398    1.000
    O2       O        0.39478    0.69272    0.52638    1.000
    O3       O        0.59236    0.51885    0.31050    1.000
    N1       N        0.34169    0.64671    0.76003    1.000
    C1       C        0.46269    0.69039    0.34193    1.000
    C2       C        0.46270    0.77696    0.34100    1.000
    H1       H        0.43740    0.80590    0.40210    1.000
    C3       C        0.42264    0.64886    0.44416    1.000
    C4       C        0.33950    0.72946    0.76480    1.000
    H2       H        0.36220    0.75950    0.70320    1.000
    C5       C        0.30500    0.77190    0.85720    1.000
    H3       H        0.30500    0.82950    0.85750    1.000
    C6       C        0.27003    0.72836    0.95004    1.000
    C7       C        0.27520    0.64253    0.94540    1.000
    H4       H        0.25470    0.61100    0.00670    1.000
    C8       C        0.31060    0.60390    0.85030    1.000
    H5       H        0.31300    0.54640    0.84860    1.000
    Cu2      Cu       0.87257    0.08984    0.61627    1.000
    O4       O        0.91844    0.07168    0.45398    1.000
    O5       O        0.89478    0.19272    0.52638    1.000
    O6       O        0.09236    0.01885    0.31050    1.000
    N2       N        0.84169    0.14671    0.76003    1.000
    C9       C        0.96269    0.19039    0.34193    1.000
    C10      C        0.96270    0.27696    0.34100    1.000
    H6       H        0.93740    0.30590    0.40210    1.000
    C11      C        0.92264    0.14886    0.44416    1.000
    C12      C        0.83950    0.22946    0.76480    1.000
    H7       H        0.86220    0.25950    0.70320    1.000
    C13      C        0.80500    0.27190    0.85720    1.000
    H8       H        0.80500    0.32950    0.85750    1.000
    C14      C        0.77003    0.22836    0.95004    1.000
    C15      C        0.77520    0.14253    0.94540    1.000
    H9       H        0.75470    0.11100    0.00670    1.000
    C16      C        0.81060    0.10390    0.85030    1.000
    H10      H        0.81300    0.04640    0.84860    1.000
    Cu3      Cu       0.62743    0.58984    0.88373    1.000
    O7       O        0.58156    0.57168    0.04602    1.000
    O8       O        0.60522    0.69272    0.97362    1.000
    O9       O        0.40764    0.51885    0.18950    1.000
    N3       N        0.65831    0.64671    0.73997    1.000
    C17      C        0.53731    0.69039    0.15807    1.000
    C18      C        0.53730    0.77696    0.15900    1.000
    H11      H        0.56260    0.80590    0.09790    1.000
    C19      C        0.57736    0.64886    0.05584    1.000
    C20      C        0.66050    0.72946    0.73520    1.000
    H12      H        0.63780    0.75950    0.79680    1.000
    C21      C        0.69500    0.77190    0.64280    1.000
    H13      H        0.69500    0.82950    0.64250    1.000
    C22      C        0.72997    0.72836    0.54996    1.000
    C23      C        0.72480    0.64253    0.55460    1.000
    H14      H        0.74530    0.61100    0.49330    1.000
    C24      C        0.68940    0.60390    0.64970    1.000
    H15      H        0.68700    0.54640    0.65140    1.000
    Cu4      Cu       0.12743    0.08984    0.88373    1.000
    O10      O        0.08156    0.07168    0.04602    1.000
    O11      O        0.10522    0.19272    0.97362    1.000
    O12      O        0.90764    0.01885    0.18950    1.000
    N4       N        0.15831    0.14671    0.73997    1.000
    C25      C        0.03731    0.19039    0.15807    1.000
    C26      C        0.03730    0.27696    0.15900    1.000
    H16      H        0.06260    0.30590    0.09790    1.000
    C27      C        0.07736    0.14886    0.05584    1.000
    C28      C        0.16050    0.22946    0.73520    1.000
    H17      H        0.13780    0.25950    0.79680    1.000
    C29      C        0.19500    0.27190    0.64280    1.000
    H18      H        0.19500    0.32950    0.64250    1.000
    C30      C        0.22997    0.22836    0.54996    1.000
    C31      C        0.22480    0.14253    0.55460    1.000
    H19      H        0.24530    0.11100    0.49330    1.000
    C32      C        0.18940    0.10390    0.64970    1.000
    H20      H        0.18700    0.04640    0.65140    1.000
    Cu5      Cu       0.62743    0.41016    0.38373    1.000
    O13      O        0.58156    0.42832    0.54602    1.000
    O14      O        0.60522    0.30728    0.47362    1.000
    O15      O        0.40764    0.48115    0.68950    1.000
    N5       N        0.65831    0.35329    0.23997    1.000
    C33      C        0.53731    0.30961    0.65807    1.000
    C34      C        0.53730    0.22304    0.65900    1.000
    H21      H        0.56260    0.19410    0.59790    1.000
    C35      C        0.57736    0.35114    0.55584    1.000
    C36      C        0.66050    0.27054    0.23520    1.000
    H22      H        0.63780    0.24050    0.29680    1.000
    C37      C        0.69500    0.22810    0.14280    1.000
    H23      H        0.69500    0.17050    0.14250    1.000
    C38      C        0.72997    0.27164    0.04996    1.000
    C39      C        0.72480    0.35747    0.05460    1.000
    H24      H        0.74530    0.38900    0.99330    1.000
    C40      C        0.68940    0.39610    0.14970    1.000
    H25      H        0.68700    0.45360    0.15140    1.000
    Cu6      Cu       0.12743    0.91016    0.38373    1.000
    O16      O        0.08156    0.92832    0.54602    1.000
    O17      O        0.10522    0.80728    0.47362    1.000
    O18      O        0.90764    0.98115    0.68950    1.000
    N6       N        0.15831    0.85329    0.23997    1.000
    C41      C        0.03731    0.80961    0.65807    1.000
    C42      C        0.03730    0.72304    0.65900    1.000
    H26      H        0.06260    0.69410    0.59790    1.000
    C43      C        0.07736    0.85114    0.55584    1.000
    C44      C        0.16050    0.77054    0.23520    1.000
    H27      H        0.13780    0.74050    0.29680    1.000
    C45      C        0.19500    0.72810    0.14280    1.000
    H28      H        0.19500    0.67050    0.14250    1.000
    C46      C        0.22997    0.77164    0.04996    1.000
    C47      C        0.22480    0.85747    0.05460    1.000
    H29      H        0.24530    0.88900    0.99330    1.000
    C48      C        0.18940    0.89610    0.14970    1.000
    H30      H        0.18700    0.95360    0.15140    1.000
    Cu7      Cu       0.37257    0.41016    0.11627    1.000
    O19      O        0.41844    0.42832    0.95398    1.000
    O20      O        0.39478    0.30728    0.02638    1.000
    O21      O        0.59236    0.48115    0.81050    1.000
    N7       N        0.34169    0.35329    0.26003    1.000
    C49      C        0.46269    0.30961    0.84193    1.000
    C50      C        0.46270    0.22304    0.84100    1.000
    H31      H        0.43740    0.19410    0.90210    1.000
    C51      C        0.42264    0.35114    0.94416    1.000
    C52      C        0.33950    0.27054    0.26480    1.000
    H32      H        0.36220    0.24050    0.20320    1.000
    C53      C        0.30500    0.22810    0.35720    1.000
    H33      H        0.30500    0.17050    0.35750    1.000
    C54      C        0.27003    0.27164    0.45004    1.000
    C55      C        0.27520    0.35747    0.44540    1.000
    H34      H        0.25470    0.38900    0.50670    1.000
    C56      C        0.31060    0.39610    0.35030    1.000
    H35      H        0.31300    0.45360    0.34860    1.000
    Cu8      Cu       0.87257    0.91016    0.11627    1.000
    O22      O        0.91844    0.92832    0.95398    1.000
    O23      O        0.89478    0.80728    0.02638    1.000
    O24      O        0.09236    0.98115    0.81050    1.000
    N8       N        0.84169    0.85329    0.26003    1.000
    C57      C        0.96269    0.80961    0.84193    1.000
    C58      C        0.96270    0.72304    0.84100    1.000
    H36      H        0.93740    0.69410    0.90210    1.000
    C59      C        0.92264    0.85114    0.94416    1.000
    C60      C        0.83950    0.77054    0.26480    1.000
    H37      H        0.86220    0.74050    0.20320    1.000
    C61      C        0.80500    0.72810    0.35720    1.000
    H38      H        0.80500    0.67050    0.35750    1.000
    C62      C        0.77003    0.77164    0.45004    1.000
    C63      C        0.77520    0.85747    0.44540    1.000
    H39      H        0.75470    0.88900    0.50670    1.000
    C64      C        0.81060    0.89610    0.35030    1.000
    H40      H        0.81300    0.95360    0.34860    1.000
    C65      C        0.50000    0.55214    0.25000    1.000
    C66      C        0.50000    0.64611    0.25000    1.000
    C67      C        0.50000    0.81980    0.25000    1.000
    H41      H        0.50000    0.87740    0.25000    1.000
    C68      C        0.00000    0.05214    0.25000    1.000
    C69      C        0.00000    0.14611    0.25000    1.000
    C70      C        0.00000    0.31980    0.25000    1.000
    H42      H        0.00000    0.37740    0.25000    1.000
    C71      C        0.50000    0.44786    0.75000    1.000
    C72      C        0.50000    0.35389    0.75000    1.000
    C73      C        0.50000    0.18020    0.75000    1.000
    H43      H        0.50000    0.12260    0.75000    1.000
    C74      C        0.00000    0.94786    0.75000    1.000
    C75      C        0.00000    0.85389    0.75000    1.000
    C76      C        0.00000    0.68020    0.75000    1.000
    H44      H        0.00000    0.62260    0.75000    1.000
