data_functionalizedCrystal
_audit_creation_method	'EQeq! by Chris Wilmer'
_symmetry_space_group_name_H-M	'P1'
_symmetry_Int_Tables_number	1
_symmetry_cell_setting	triclinic
loop_
_symmetry_equiv_pos_as_xyz
  x,y,z
_cell_length_a	11.1918
_cell_length_b	11.1918
_cell_length_c	31.561
_cell_angle_alpha	90
_cell_angle_beta	90
_cell_angle_gamma	90
loop_
_atom_site_label
_atom_site_type_symbol
_atom_site_fract_x
_atom_site_fract_y
_atom_site_fract_z
_atom_site_charge
Mof_O 	O 	0.09362	0.71579	0.17613	-0.241
Mof_O 	O 	0.24233	0.82061	0.20618	-0.377
Mof_O 	O 	0.85711	0.06167	0.0481	-0.216
Mof_O 	O 	0.91525	0.87059	0.04521	-0.371
Mof_O 	O 	0.2892	0.2395	0.16936	-0.179
Mof_O 	O 	0.18	0.32798	0.11923	-0.205
Mof_C 	C 	0.0464	0.8985	0.11942	0.01
Mof_H 	H 	0.0119	0.8241	0.1147	0.072
Mof_C 	C 	0.0135	0.995	0.094	-0.045
Mof_C 	C 	0.0646	0.1068	0.10104	0.002
Mof_H 	H 	0.0412	0.1723	0.0849	0.076
Mof_C 	C 	0.1516	0.1199	0.13271	-0.043
Mof_C 	C 	0.1832	0.0223	0.15775	0.008
Mof_H 	H 	0.2407	0.0315	0.1788	0.073
Mof_C 	C 	0.1301	0.9119	0.15172	-0.056
Mof_C 	C 	0.9223	0.9751	0.05977	0.312
Mof_C 	C 	0.207	0.2409	0.13934	0.286
Mof_C 	C 	0.158	0.8071	0.18004	0.325
Mof_O 	O 	0.90638	0.28421	0.67613	-0.242
Mof_O 	O 	0.75767	0.17939	0.70618	-0.377
Mof_O 	O 	0.14289	0.93833	0.5481	-0.212
Mof_O 	O 	0.08475	0.12941	0.54521	-0.367
Mof_O 	O 	0.7108	0.7605	0.66936	-0.178
Mof_O 	O 	0.82	0.67202	0.61923	-0.203
Mof_C 	C 	0.9536	0.1015	0.61942	0.009
Mof_H 	H 	0.9881	0.1759	0.6147	0.073
Mof_C 	C 	0.9865	0.005	0.594	-0.042
Mof_C 	C 	0.9354	0.8932	0.60104	0.001
Mof_H 	H 	0.9588	0.8277	0.5849	0.078
Mof_C 	C 	0.8484	0.8801	0.63271	-0.041
Mof_C 	C 	0.8168	0.9777	0.65775	0.007
Mof_H 	H 	0.7593	0.9685	0.6788	0.074
Mof_C 	C 	0.8699	0.0881	0.65172	-0.054
Mof_C 	C 	0.0777	0.0249	0.55977	0.312
Mof_C 	C 	0.793	0.7591	0.63934	0.285
Mof_C 	C 	0.842	0.1929	0.68004	0.325
Mof_O 	O 	0.78421	0.59362	0.92613	-0.238
Mof_O 	O 	0.67939	0.74233	0.95618	-0.37
Mof_O 	O 	0.43833	0.35711	0.7981	-0.217
Mof_O 	O 	0.62941	0.41525	0.79521	-0.368
Mof_O 	O 	0.2605	0.7892	0.91936	-0.176
Mof_O 	O 	0.17202	0.68	0.86923	-0.202
Mof_C 	C 	0.6015	0.5464	0.86942	0.014
Mof_H 	H 	0.6759	0.5119	0.8647	0.071
Mof_C 	C 	0.505	0.5135	0.844	-0.051
Mof_C 	C 	0.3932	0.5646	0.85104	0.008
Mof_H 	H 	0.3277	0.5412	0.8349	0.076
Mof_C 	C 	0.3801	0.6516	0.88271	-0.044
Mof_C 	C 	0.4777	0.6832	0.90775	0.012
Mof_H 	H 	0.4685	0.7407	0.9288	0.075
Mof_C 	C 	0.5881	0.6301	0.90172	-0.057
Mof_C 	C 	0.5249	0.4223	0.80977	0.321
Mof_C 	C 	0.2591	0.707	0.88934	0.287
Mof_C 	C 	0.6929	0.658	0.93004	0.325
Mof_O 	O 	0.21579	0.40638	0.42613	-0.242
Mof_O 	O 	0.32061	0.25767	0.45618	-0.378
Mof_O 	O 	0.56167	0.64289	0.2981	-0.217
Mof_O 	O 	0.37059	0.58475	0.29521	-0.368
Mof_O 	O 	0.7395	0.2108	0.41936	-0.179
Mof_O 	O 	0.82798	0.32	0.36923	-0.203
Mof_C 	C 	0.3985	0.4536	0.36942	0.015
Mof_H 	H 	0.3241	0.4881	0.3647	0.07
Mof_C 	C 	0.495	0.4865	0.344	-0.052
Mof_C 	C 	0.6068	0.4354	0.35104	0.009
Mof_H 	H 	0.6723	0.4588	0.3349	0.076
Mof_C 	C 	0.6199	0.3484	0.38271	-0.046
Mof_C 	C 	0.5223	0.3168	0.40775	0.013
Mof_H 	H 	0.5315	0.2593	0.4288	0.072
Mof_C 	C 	0.4119	0.3699	0.40172	-0.059
Mof_C 	C 	0.4751	0.5777	0.30977	0.322
Mof_C 	C 	0.7409	0.293	0.38934	0.287
Mof_C 	C 	0.3071	0.342	0.43004	0.326
Mof_O 	O 	0.40638	0.21579	0.57387	-0.242
Mof_O 	O 	0.25767	0.32061	0.54382	-0.378
Mof_O 	O 	0.64289	0.56167	0.7019	-0.217
Mof_O 	O 	0.58475	0.37059	0.70479	-0.368
Mof_O 	O 	0.2108	0.7395	0.58064	-0.179
Mof_O 	O 	0.32	0.82798	0.63077	-0.203
Mof_C 	C 	0.4536	0.3985	0.63058	0.015
Mof_H 	H 	0.4881	0.3241	0.6353	0.07
Mof_C 	C 	0.4865	0.495	0.656	-0.053
Mof_C 	C 	0.4354	0.6068	0.64896	0.009
Mof_H 	H 	0.4588	0.6723	0.6651	0.076
Mof_C 	C 	0.3484	0.6199	0.61729	-0.046
Mof_C 	C 	0.3168	0.5223	0.59225	0.013
Mof_H 	H 	0.2593	0.5315	0.5712	0.072
Mof_C 	C 	0.3699	0.4119	0.59828	-0.059
Mof_C 	C 	0.5777	0.4751	0.69023	0.322
Mof_C 	C 	0.293	0.7409	0.61066	0.287
Mof_C 	C 	0.342	0.3071	0.56996	0.326
Mof_O 	O 	0.59362	0.78421	0.07387	-0.246
Mof_O 	O 	0.74233	0.67939	0.04382	-0.382
Mof_O 	O 	0.35711	0.43833	0.2019	-0.217
Mof_O 	O 	0.41525	0.62941	0.20479	-0.368
Mof_O 	O 	0.7892	0.2605	0.08064	-0.181
Mof_O 	O 	0.68	0.17202	0.13077	-0.204
Mof_C 	C 	0.5464	0.6015	0.13058	0.016
Mof_H 	H 	0.5119	0.6759	0.1353	0.069
Mof_C 	C 	0.5135	0.505	0.156	-0.054
Mof_C 	C 	0.5646	0.3932	0.14896	0.01
Mof_H 	H 	0.5412	0.3277	0.1651	0.076
Mof_C 	C 	0.6516	0.3801	0.11729	-0.047
Mof_C 	C 	0.6832	0.4777	0.09225	0.014
Mof_H 	H 	0.7407	0.4685	0.0712	0.07
Mof_C 	C 	0.6301	0.5881	0.09828	-0.062
Mof_C 	C 	0.4223	0.5249	0.19023	0.322
Mof_C 	C 	0.707	0.2591	0.11066	0.287
Mof_C 	C 	0.658	0.6929	0.06996	0.327
Mof_O 	O 	0.71579	0.09362	0.82387	-0.241
Mof_O 	O 	0.82061	0.24233	0.79382	-0.377
Mof_O 	O 	0.06167	0.85711	0.9519	-0.208
Mof_O 	O 	0.87059	0.91525	0.95479	-0.36
Mof_O 	O 	0.2395	0.2892	0.83064	-0.178
Mof_O 	O 	0.32798	0.18	0.88077	-0.201
Mof_C 	C 	0.8985	0.0464	0.88058	0.008
Mof_H 	H 	0.8241	0.0119	0.8853	0.074
Mof_C 	C 	0.995	0.0135	0.906	-0.04
Mof_C 	C 	0.1068	0.0646	0.89896	-0
Mof_H 	H 	0.1723	0.0412	0.9151	0.08
Mof_C 	C 	0.1199	0.1516	0.86729	-0.039
Mof_C 	C 	0.0223	0.1832	0.84225	0.006
Mof_H 	H 	0.0315	0.2407	0.8212	0.074
Mof_C 	C 	0.9119	0.1301	0.84828	-0.052
Mof_C 	C 	0.9751	0.9223	0.94023	0.312
Mof_C 	C 	0.2409	0.207	0.86066	0.285
Mof_C 	C 	0.8071	0.158	0.81996	0.325
Mof_O 	O 	0.28421	0.90638	0.32387	-0.242
Mof_O 	O 	0.17939	0.75767	0.29382	-0.377
Mof_O 	O 	0.93833	0.14289	0.4519	-0.212
Mof_O 	O 	0.12941	0.08475	0.45479	-0.367
Mof_O 	O 	0.7605	0.7108	0.33064	-0.178
Mof_O 	O 	0.67202	0.82	0.38077	-0.203
Mof_C 	C 	0.1015	0.9536	0.38058	0.01
Mof_H 	H 	0.1759	0.9881	0.3853	0.073
Mof_C 	C 	0.005	0.9865	0.406	-0.043
Mof_C 	C 	0.8932	0.9354	0.39896	0.001
Mof_H 	H 	0.8277	0.9588	0.4151	0.078
Mof_C 	C 	0.8801	0.8484	0.36729	-0.041
Mof_C 	C 	0.9777	0.8168	0.34225	0.007
Mof_H 	H 	0.9685	0.7593	0.3212	0.074
Mof_C 	C 	0.0881	0.8699	0.34828	-0.054
Mof_C 	C 	0.0249	0.0777	0.44023	0.312
Mof_C 	C 	0.7591	0.793	0.36066	0.286
Mof_C 	C 	0.1929	0.842	0.31996	0.325
Mof_Ni	Ni	0.80066	0.80066	-0	1.099
Mof_Ni	Ni	0.19934	0.19934	0.5	1.106
Mof_Ni	Ni	0.69934	0.30066	0.75	1.106
Mof_Ni	Ni	0.30066	0.69934	0.25	1.106
_end
