data_functionalizedCrystal
_audit_creation_method	'EQeq! by Chris Wilmer'
_symmetry_space_group_name_H-M	'P1'
_symmetry_Int_Tables_number	1
_symmetry_cell_setting	triclinic
loop_
_symmetry_equiv_pos_as_xyz
  x,y,z
_cell_length_a	10.788
_cell_length_b	12.702
_cell_length_c	15.784
_cell_angle_alpha	90
_cell_angle_beta	90
_cell_angle_gamma	90
loop_
_atom_site_label
_atom_site_type_symbol
_atom_site_fract_x
_atom_site_fract_y
_atom_site_fract_z
_atom_site_charge
Mof_Mn	Mn	0.04447	0.25	0.63752	0.851
Mof_Mn	Mn	0.31414	0.25	0.71722	0.969
Mof_Mn	Mn	0.45553	0.75	0.13752	0.968
Mof_Mn	Mn	0.18586	0.75	0.21722	0.969
Mof_Mn	Mn	0.95553	0.75	0.36248	1.073
Mof_Mn	Mn	0.68586	0.75	0.28278	0.972
Mof_Mn	Mn	0.54447	0.25	0.86248	0.965
Mof_Mn	Mn	0.81414	0.25	0.78278	0.973
Mof_Mn	Mn	-3.09278e-33	-5.83566e-33	0.5	0.958
Mof_Mn	Mn	0.5	0	-0	0.934
Mof_Mn	Mn	-8.92844e-33	0.5	0.5	1.004
Mof_Mn	Mn	0.5	0.5	-0	0.997
Mof_H 	H 	0.3764	0.5568	0.6048	0.281
Mof_H 	H 	0.412	0.4525	0.6562	0.279
Mof_H 	H 	0.4341	0.4578	0.556	0.277
Mof_H 	H 	0.7049	0.5086	0.6395	0.291
Mof_H 	H 	0.7063	0.45	0.7292	0.284
Mof_H 	H 	0.7619	0.5663	0.7208	0.29
Mof_H 	H 	0.1236	0.4432	0.1048	0.238
Mof_H 	H 	0.088	0.5475	0.1562	0.245
Mof_H 	H 	0.0659	0.5422	0.056	0.22
Mof_H 	H 	0.7951	0.4914	0.1395	0.292
Mof_H 	H 	0.7937	0.55	0.2292	0.296
Mof_H 	H 	0.7381	0.4337	0.2208	0.291
Mof_H 	H 	0.6236	0.0568	0.3952	0.233
Mof_H 	H 	0.588	0.9525	0.3438	0.255
Mof_H 	H 	0.5659	0.9578	0.444	0.253
Mof_H 	H 	0.2951	0.0086	0.3605	0.203
Mof_H 	H 	0.2937	0.95	0.2708	0.229
Mof_H 	H 	0.2381	0.0663	0.2792	0.196
Mof_H 	H 	0.8764	0.9432	0.8952	0.351
Mof_H 	H 	0.912	0.0475	0.8438	0.326
Mof_H 	H 	0.9341	0.0422	0.944	0.351
Mof_H 	H 	0.2049	0.9914	0.8605	0.349
Mof_H 	H 	0.2063	0.05	0.7708	0.316
Mof_H 	H 	0.2619	0.9337	0.7792	0.339
Mof_H 	H 	0.6236	0.4432	0.3952	0.282
Mof_H 	H 	0.588	0.5475	0.3438	0.279
Mof_H 	H 	0.5659	0.5422	0.444	0.278
Mof_H 	H 	0.2951	0.4914	0.3605	0.292
Mof_H 	H 	0.2937	0.55	0.2708	0.288
Mof_H 	H 	0.2381	0.4337	0.2792	0.282
Mof_H 	H 	0.8764	0.5568	0.8952	0.326
Mof_H 	H 	0.912	0.4525	0.8438	0.315
Mof_H 	H 	0.9341	0.4578	0.944	0.338
Mof_H 	H 	0.2049	0.5086	0.8605	0.289
Mof_H 	H 	0.2063	0.45	0.7708	0.276
Mof_H 	H 	0.2619	0.5663	0.7792	0.28
Mof_H 	H 	0.3764	0.9432	0.6048	0.328
Mof_H 	H 	0.412	0.0475	0.6562	0.302
Mof_H 	H 	0.4341	0.0422	0.556	0.301
Mof_H 	H 	0.7049	0.9914	0.6395	0.348
Mof_H 	H 	0.7063	0.05	0.7292	0.322
Mof_H 	H 	0.7619	0.9337	0.7208	0.344
Mof_H 	H 	0.1236	0.0568	0.1048	0.168
Mof_H 	H 	0.088	0.9525	0.1562	0.21
Mof_H 	H 	0.0659	0.9578	0.056	0.186
Mof_H 	H 	0.7951	0.0086	0.1395	0.207
Mof_H 	H 	0.7937	0.95	0.2292	0.24
Mof_H 	H 	0.7381	0.0663	0.2208	0.211
Mof_C 	C 	0.25158	0.43705	0.58784	0.625
Mof_C 	C 	0.3797	0.4798	0.6025	-0.913
Mof_C 	C 	0.8769	0.45301	0.67196	0.612
Mof_C 	C 	0.7516	0.4984	0.6921	-0.916
Mof_C 	C 	0.24842	0.56295	0.08784	0.605
Mof_C 	C 	0.1203	0.5202	0.1025	-0.845
Mof_C 	C 	0.6231	0.54699	0.17196	0.625
Mof_C 	C 	0.7484	0.5016	0.1921	-0.935
Mof_C 	C 	0.74842	0.93705	0.41216	0.602
Mof_C 	C 	0.6203	0.9798	0.3975	-0.805
Mof_C 	C 	0.1231	0.95301	0.32804	0.612
Mof_C 	C 	0.2484	0.9984	0.3079	-0.699
Mof_C 	C 	0.75158	0.06295	0.91216	0.667
Mof_C 	C 	0.8797	0.0202	0.8975	-1.044
Mof_C 	C 	0.3769	0.04699	0.82804	0.635
Mof_C 	C 	0.2516	0.0016	0.8079	-1.072
Mof_C 	C 	0.74842	0.56295	0.41216	0.634
Mof_C 	C 	0.6203	0.5202	0.3975	-0.917
Mof_C 	C 	0.1231	0.54699	0.32804	0.634
Mof_C 	C 	0.2484	0.5016	0.3079	-0.933
Mof_C 	C 	0.75158	0.43705	0.91216	0.656
Mof_C 	C 	0.8797	0.4798	0.8975	-0.988
Mof_C 	C 	0.3769	0.45301	0.82804	0.62
Mof_C 	C 	0.2516	0.4984	0.8079	-0.912
Mof_C 	C 	0.25158	0.06295	0.58784	0.651
Mof_C 	C 	0.3797	0.0202	0.6025	-1.016
Mof_C 	C 	0.8769	0.04699	0.67196	0.626
Mof_C 	C 	0.7516	0.0016	0.6921	-1.065
Mof_C 	C 	0.24842	0.93705	0.08784	0.559
Mof_C 	C 	0.1203	0.9798	0.1025	-0.689
Mof_C 	C 	0.6231	0.95301	0.17196	0.607
Mof_C 	C 	0.7484	0.9984	0.1921	-0.716
Mof_C 	C 	0.9566	0.25	0.476	0.404
Mof_C 	C 	0.9048	0.25	0.38807	-0.102
Mof_C 	C 	0.0836	0.25	0.8462	0.284
Mof_C 	C 	0.1704	0.25	0.92162	-0.101
Mof_C 	C 	0.5434	0.75	0.976	0.563
Mof_C 	C 	0.5952	0.75	0.88807	-0.139
Mof_C 	C 	0.4164	0.75	0.3462	0.385
Mof_C 	C 	0.3296	0.75	0.42162	-0.128
Mof_C 	C 	0.0434	0.75	0.524	0.415
Mof_C 	C 	0.0952	0.75	0.61193	-0.153
Mof_C 	C 	0.9164	0.75	0.1538	0.471
Mof_C 	C 	0.8296	0.75	0.07838	-0.156
Mof_C 	C 	0.4566	0.25	0.024	0.226
Mof_C 	C 	0.4048	0.25	0.11193	-0.114
Mof_C 	C 	0.5836	0.25	0.6538	0.381
Mof_C 	C 	0.6704	0.25	0.57838	-0.132
Mof_O 	O 	0.2141	0.35767	0.63072	-0.52
Mof_O 	O 	0.95068	0.50827	0.63187	-0.422
Mof_O 	O 	0.19026	0.48174	0.53218	-0.478
Mof_O 	O 	0.90082	0.35776	0.69395	-0.495
Mof_O 	O 	0.97815	0.16621	0.51492	-0.397
Mof_O 	O 	0.2859	0.64233	0.13072	-0.517
Mof_O 	O 	0.54932	0.49173	0.13187	-0.474
Mof_O 	O 	0.30974	0.51826	0.03218	-0.49
Mof_O 	O 	0.59918	0.64224	0.19395	-0.529
Mof_O 	O 	0.52185	0.83379	0.01492	-0.51
Mof_O 	O 	0.7859	0.85767	0.36928	-0.503
Mof_O 	O 	0.04932	0.00827	0.36813	-0.509
Mof_O 	O 	0.80974	0.98174	0.46782	-0.424
Mof_O 	O 	0.09918	0.85776	0.30605	-0.541
Mof_O 	O 	0.02185	0.66621	0.48508	-0.48
Mof_O 	O 	0.7141	0.14233	0.86928	-0.526
Mof_O 	O 	0.45068	0.99173	0.86813	-0.428
Mof_O 	O 	0.69026	0.01826	0.96782	-0.439
Mof_O 	O 	0.40082	0.14224	0.80605	-0.532
Mof_O 	O 	0.47815	0.33379	0.98508	-0.339
Mof_O 	O 	0.7859	0.64233	0.36928	-0.517
Mof_O 	O 	0.04932	0.49173	0.36813	-0.497
Mof_O 	O 	0.80974	0.51826	0.46782	-0.452
Mof_O 	O 	0.09918	0.64224	0.30605	-0.556
Mof_O 	O 	0.02185	0.83379	0.48508	-0.465
Mof_O 	O 	0.7141	0.35767	0.86928	-0.521
Mof_O 	O 	0.45068	0.50827	0.86813	-0.445
Mof_O 	O 	0.69026	0.48174	0.96782	-0.438
Mof_O 	O 	0.40082	0.35776	0.80605	-0.524
Mof_O 	O 	0.47815	0.16621	0.98508	-0.334
Mof_O 	O 	0.2141	0.14233	0.63072	-0.531
Mof_O 	O 	0.95068	0.99173	0.63187	-0.405
Mof_O 	O 	0.19026	0.01826	0.53218	-0.492
Mof_O 	O 	0.90082	0.14224	0.69395	-0.502
Mof_O 	O 	0.97815	0.33379	0.51492	-0.399
Mof_O 	O 	0.2859	0.85767	0.13072	-0.497
Mof_O 	O 	0.54932	0.00827	0.13187	-0.487
Mof_O 	O 	0.30974	0.98174	0.03218	-0.448
Mof_O 	O 	0.59918	0.85776	0.19395	-0.516
Mof_O 	O 	0.52185	0.66621	0.01492	-0.527
Mof_O 	O 	0.12887	0.25	0.77135	-0.447
Mof_O 	O 	0.9708	0.25	0.86156	-0.34
Mof_O 	O 	0.37113	0.75	0.27135	-0.461
Mof_O 	O 	0.5292	0.75	0.36156	-0.419
Mof_O 	O 	0.87113	0.75	0.22865	-0.475
Mof_O 	O 	0.0292	0.75	0.13844	-0.487
Mof_O 	O 	0.62887	0.25	0.72865	-0.464
Mof_O 	O 	0.4708	0.25	0.63844	-0.42
_end
