data_functionalizedCrystal
_audit_creation_method	'EQeq! by Chris Wilmer'
_symmetry_space_group_name_H-M	'P1'
_symmetry_Int_Tables_number	1
_symmetry_cell_setting	triclinic
loop_
_symmetry_equiv_pos_as_xyz
  x,y,z
_cell_length_a	9.534
_cell_length_b	13.3884
_cell_length_c	14.4817
_cell_angle_alpha	79.9401
_cell_angle_beta	70.7814
_cell_angle_gamma	69.1419
loop_
_atom_site_label
_atom_site_type_symbol
_atom_site_fract_x
_atom_site_fract_y
_atom_site_fract_z
_atom_site_charge
Mof_Mn	Mn	0.3723	0.53244	0.1155	0.868
Mof_Mn	Mn	0.02024	0.96756	0.3845	0.867
Mof_Mn	Mn	0.6277	0.46756	0.8845	0.868
Mof_Mn	Mn	0.97976	0.03244	0.6155	0.867
Mof_Mn	Mn	0.28874	0.75	0.25	0.985
Mof_Mn	Mn	0.71126	0.25	0.75	0.985
Mof_H 	H 	0.6148	0.5442	0.4178	0.055
Mof_H 	H 	0.7231	0.4083	0.5207	0.043
Mof_H 	H 	0.8222	0.1961	0.3265	0.048
Mof_H 	H 	0.7015	0.331	0.2288	0.052
Mof_H 	H 	0.9655	0.673	0.4304	0.044
Mof_H 	H 	0.1747	0.357	0.4094	0.049
Mof_H 	H 	0.5768	0.9558	0.0822	0.053
Mof_H 	H 	0.6521	0.0917	0.9793	0.039
Mof_H 	H 	0.3448	0.3039	0.1735	0.048
Mof_H 	H 	0.2613	0.169	0.2712	0.052
Mof_H 	H 	0.0689	0.827	0.0696	0.046
Mof_H 	H 	0.9411	0.143	0.0906	0.046
Mof_H 	H 	0.3852	0.4558	0.5822	0.055
Mof_H 	H 	0.2769	0.5917	0.4793	0.043
Mof_H 	H 	0.1778	0.8039	0.6735	0.048
Mof_H 	H 	0.2985	0.669	0.7712	0.052
Mof_H 	H 	0.0345	0.327	0.5696	0.044
Mof_H 	H 	0.8253	0.643	0.5906	0.049
Mof_H 	H 	0.4232	0.0442	0.9178	0.053
Mof_H 	H 	0.3479	0.9083	0.0207	0.039
Mof_H 	H 	0.6552	0.6961	0.8265	0.048
Mof_H 	H 	0.7387	0.831	0.7288	0.052
Mof_H 	H 	0.9311	0.173	0.9304	0.046
Mof_H 	H 	0.0589	0.857	0.9094	0.046
Mof_C 	C 	0.55506	0.53708	0.2522	0.369
Mof_C 	C 	0.64276	0.45108	0.314	-0.076
Mof_C 	C 	0.65317	0.47366	0.4004	-0.027
Mof_C 	C 	0.7201	0.3925	0.4615	-0.002
Mof_C 	C 	0.78242	0.28791	0.43485	-0.101
Mof_C 	C 	0.77741	0.26588	0.3463	-0.009
Mof_C 	C 	0.70657	0.34686	0.2874	-0.021
Mof_C 	C 	0.84909	0.19897	0.50245	0.378
Mof_C 	C 	0.17819	0.53734	0.30088	0.357
Mof_C 	C 	0.08372	0.51798	0.40398	-0.083
Mof_C 	C 	0.9795	0.60332	0.45828	-0.015
Mof_C 	C 	0.10423	0.41474	0.4458	-0.019
Mof_C 	C 	0.34434	0.96292	0.2478	0.367
Mof_C 	C 	0.40784	0.04892	0.186	-0.074
Mof_C 	C 	0.52723	0.02634	0.0996	-0.024
Mof_C 	C 	0.5741	0.1075	0.0385	0.004
Mof_C 	C 	0.50518	0.21209	0.06515	-0.101
Mof_C 	C 	0.38959	0.23412	0.1537	-0.009
Mof_C 	C 	0.34083	0.15314	0.2126	-0.022
Mof_C 	C 	0.55051	0.30103	0.99755	0.376
Mof_C 	C 	0.01641	0.96266	0.19912	0.355
Mof_C 	C 	0.00568	0.98202	0.09602	-0.088
Mof_C 	C 	0.0411	0.89668	0.04172	-0.024
Mof_C 	C 	0.96477	0.08526	0.0542	-0.006
Mof_C 	C 	0.44494	0.46292	0.7478	0.369
Mof_C 	C 	0.35724	0.54892	0.686	-0.076
Mof_C 	C 	0.34683	0.52634	0.5996	-0.027
Mof_C 	C 	0.2799	0.6075	0.5385	-0.002
Mof_C 	C 	0.21758	0.71209	0.56515	-0.101
Mof_C 	C 	0.22259	0.73412	0.6537	-0.009
Mof_C 	C 	0.29343	0.65314	0.7126	-0.021
Mof_C 	C 	0.15091	0.80103	0.49755	0.378
Mof_C 	C 	0.82181	0.46266	0.69912	0.357
Mof_C 	C 	0.91628	0.48202	0.59602	-0.083
Mof_C 	C 	0.0205	0.39668	0.54172	-0.015
Mof_C 	C 	0.89577	0.58526	0.5542	-0.019
Mof_C 	C 	0.65566	0.03708	0.7522	0.367
Mof_C 	C 	0.59216	0.95108	0.814	-0.074
Mof_C 	C 	0.47277	0.97366	0.9004	-0.024
Mof_C 	C 	0.4259	0.8925	0.9615	0.004
Mof_C 	C 	0.49482	0.78791	0.93485	-0.101
Mof_C 	C 	0.61041	0.76588	0.8463	-0.009
Mof_C 	C 	0.65917	0.84686	0.7874	-0.022
Mof_C 	C 	0.44949	0.69897	0.00245	0.376
Mof_C 	C 	0.98359	0.03734	0.80088	0.355
Mof_C 	C 	0.99432	0.01798	0.90398	-0.088
Mof_C 	C 	0.9589	0.10332	0.95828	-0.024
Mof_C 	C 	0.03523	0.91474	0.9458	-0.006
Mof_O 	O 	0.48276	0.62793	0.28515	-0.381
Mof_O 	O 	0.55882	0.51046	0.1725	-0.382
Mof_O 	O 	0.83324	0.21612	0.5882	-0.415
Mof_O 	O 	0.9222	0.10615	0.47205	-0.44
Mof_O 	O 	0.17692	0.63021	0.26835	-0.413
Mof_O 	O 	0.25707	0.45844	0.25042	-0.372
Mof_O 	O 	0.39584	0.87207	0.21485	-0.38
Mof_O 	O 	0.24178	0.98954	0.3275	-0.382
Mof_O 	O 	0.63756	0.28388	0.9118	-0.415
Mof_O 	O 	0.5004	0.39385	0.02795	-0.439
Mof_O 	O 	0.07548	0.86979	0.23165	-0.412
Mof_O 	O 	0.96593	0.04156	0.24958	-0.369
Mof_O 	O 	0.51724	0.37207	0.71485	-0.381
Mof_O 	O 	0.44118	0.48954	0.8275	-0.382
Mof_O 	O 	0.16676	0.78388	0.4118	-0.415
Mof_O 	O 	0.0778	0.89385	0.52795	-0.44
Mof_O 	O 	0.82308	0.36979	0.73165	-0.413
Mof_O 	O 	0.74293	0.54156	0.74958	-0.372
Mof_O 	O 	0.60416	0.12793	0.78515	-0.38
Mof_O 	O 	0.75822	0.01046	0.6725	-0.382
Mof_O 	O 	0.36244	0.71612	0.0882	-0.415
Mof_O 	O 	0.4996	0.60615	0.97205	-0.439
Mof_O 	O 	0.92452	0.13021	0.76835	-0.412
Mof_O 	O 	0.03407	0.95844	0.75042	-0.369
_end
