# CIF file generated by openbabel 3.1.0, see https://openbabel.org
data_I
_chemical_name_common 'EJIDUW02_clean'
_cell_length_a 9.241
_cell_length_b 9.7459
_cell_length_c 10.661
_cell_angle_alpha 67.7116
_cell_angle_beta 84.68
_cell_angle_gamma 61.7352
_space_group_name_H-M_alt 'P 1'
_space_group_name_Hall 'P 1'
loop_
    _symmetry_equiv_pos_as_xyz
    x,y,z
loop_
    _atom_site_label
    _atom_site_type_symbol
    _atom_site_fract_x
    _atom_site_fract_y
    _atom_site_fract_z
    _atom_site_occupancy
    Nd1      Nd       0.77969    0.45649    0.01839    1.000
    Nd2      Nd       0.22031    0.54351    0.98161    1.000
    H1       H        0.58830    0.96270    0.12790    1.000
    H2       H        0.56400    0.96700    0.27280    1.000
    H3       H        0.56620    0.69980    0.38950    1.000
    H4       H        0.63820    0.65970    0.24940    1.000
    H5       H        0.54480    0.46230    0.38200    1.000
    H6       H        0.36180    0.62200    0.37390    1.000
    H7       H        0.11590    0.27710    0.43050    1.000
    H8       H        0.17670    0.40620    0.35670    1.000
    H9       H        0.32360    0.93990    0.26390    1.000
    H10      H        0.37900    0.90540    0.13500    1.000
    H11      H        0.87410    0.47790    0.46340    1.000
    H12      H        0.90150    0.63280    0.36730    1.000
    H13      H        0.41170    0.03730    0.87210    1.000
    H14      H        0.43600    0.03300    0.72720    1.000
    H15      H        0.43380    0.30020    0.61050    1.000
    H16      H        0.36180    0.34030    0.75060    1.000
    H17      H        0.45520    0.53770    0.61800    1.000
    H18      H        0.63820    0.37800    0.62610    1.000
    H19      H        0.88410    0.72290    0.56950    1.000
    H20      H        0.82330    0.59380    0.64330    1.000
    H21      H        0.67640    0.06010    0.73610    1.000
    H22      H        0.62100    0.09460    0.86500    1.000
    H23      H        0.12590    0.52210    0.53660    1.000
    H24      H        0.09850    0.36720    0.63270    1.000
    C1       C        0.40930    0.58520    0.19054    1.000
    C2       C        0.51320    0.98650    0.18990    1.000
    C3       C        0.53550    0.69940    0.29850    1.000
    C4       C        0.99220    0.40510    0.25053    1.000
    C5       C        0.45550    0.58730    0.32080    1.000
    C6       C        0.07820    0.38430    0.37420    1.000
    C7       C        0.40560    0.17480    0.12210    1.000
    C8       C        0.42150    0.88490    0.21490    1.000
    C9       C        0.95840    0.50550    0.43880    1.000
    C10      C        0.59070    0.41480    0.80946    1.000
    C11      C        0.48680    0.01350    0.81010    1.000
    C12      C        0.46450    0.30060    0.70150    1.000
    C13      C        0.00780    0.59490    0.74947    1.000
    C14      C        0.54450    0.41270    0.67920    1.000
    C15      C        0.92180    0.61570    0.62580    1.000
    C16      C        0.59440    0.82520    0.87790    1.000
    C17      C        0.57850    0.11510    0.78510    1.000
    C18      C        0.04160    0.49450    0.56120    1.000
    O1       O        0.51660    0.54890    0.11082    1.000
    O2       O        0.02816    0.46680    0.13285    1.000
    O3       O        0.30521    0.23722    0.01884    1.000
    O4       O        0.26342    0.61690    0.16619    1.000
    O5       O        0.42071    0.27039    0.16802    1.000
    O6       O        0.87780    0.36630    0.26385    1.000
    O7       O        0.48340    0.45110    0.88918    1.000
    O8       O        0.97184    0.53320    0.86715    1.000
    O9       O        0.69479    0.76278    0.98116    1.000
    O10      O        0.73658    0.38310    0.83381    1.000
    O11      O        0.57929    0.72961    0.83198    1.000
    O12      O        0.12220    0.63370    0.73615    1.000
