# CIF file generated by openbabel 3.1.0, see https://openbabel.org
data_I
_chemical_name_common 'image0'
_cell_length_a 19.4499
_cell_length_b 10.8839
_cell_length_c 27.7796
_cell_angle_alpha 90
_cell_angle_beta 104.467
_cell_angle_gamma 90
_space_group_name_H-M_alt 'P 1'
_space_group_name_Hall 'P 1'
loop_
    _symmetry_equiv_pos_as_xyz
    x,y,z
loop_
    _atom_site_label
    _atom_site_type_symbol
    _atom_site_fract_x
    _atom_site_fract_y
    _atom_site_fract_z
    _atom_site_occupancy
    O1       O        0.45826    0.45310    0.06063    1.000
    O2       O        0.41617    0.63151    0.97766    1.000
    O3       O        0.43049    0.62200    0.45937    1.000
    C1       C        0.41540    0.47930    0.08502    1.000
    Co1      Co       0.40132    0.72571    0.04219    1.000
    C2       C        0.40848    0.73300    0.95382    1.000
    C3       C        0.40990    0.39500    0.12655    1.000
    O4       O        0.37535    0.57430    0.07676    1.000
    O5       O        0.40209    0.82980    0.97679    1.000
    O6       O        0.49513    0.73740    0.42085    1.000
    O7       O        0.38488    0.14620    0.59029    1.000
    O8       O        0.27973    0.27080    0.51378    1.000
    C4       C        0.40330    0.73440    0.89977    1.000
    H1       H        0.36190    0.36660    0.12130    1.000
    H2       H        0.42340    0.43850    0.15760    1.000
    H3       H        0.44100    0.32600    0.12740    1.000
    Co2      Co       0.27081    0.62442    0.08154    1.000
    C5       C        0.39228    0.62630    0.87220    1.000
    C6       C        0.40805    0.84480    0.87561    1.000
    O9       O        0.15996    0.66960    0.07740    1.000
    O10      O        0.25729    0.48620    0.12523    1.000
    O11      O        0.30269    0.22710    0.62445    1.000
    O12      O        0.21639    0.43850    0.50721    1.000
    H4       H        0.38990    0.55180    0.88810    1.000
    C7       C        0.38487    0.62840    0.82172    1.000
    C8       C        0.40187    0.84710    0.82499    1.000
    H5       H        0.41540    0.91770    0.89370    1.000
    Co3      Co       0.11185    0.53395    0.02687    1.000
    C9       C        0.12623    0.76110    0.09085    1.000
    C10      C        0.20236    0.41970    0.11794    1.000
    H6       H        0.37670    0.55580    0.80350    1.000
    C11      C        0.38953    0.73860    0.79793    1.000
    H7       H        0.40600    0.92100    0.80910    1.000
    O13      O        0.16114    0.39860    0.07616    1.000
    O14      O        0.08019    0.41060    0.97006    1.000
    O15      O        0.97217    0.48960    0.94002    1.000
    C12      C        0.14516    0.79280    0.14494    1.000
    O16      O        0.07937    0.81920    0.06174    1.000
    C13      C        0.18444    0.36560    0.16271    1.000
    O17      O        0.38429    0.73190    0.74776    1.000
    C14      C        0.02433    0.42680    0.93576    1.000
    C15      C        0.11612    0.89530    0.16188    1.000
    C16      C        0.19001    0.71750    0.17921    1.000
    C17      C        0.12305    0.29610    0.15780    1.000
    C18      C        0.22455    0.39190    0.21002    1.000
    C19      C        0.37450    0.83860    0.71908    1.000
    C20      C        0.02095    0.37120    0.88618    1.000
    H8       H        0.08540    0.94570    0.13920    1.000
    C21      C        0.13209    0.92390    0.21198    1.000
    C22      C        0.20583    0.74430    0.22939    1.000
    H9       H        0.20960    0.64820    0.16830    1.000
    H10      H        0.09590    0.27600    0.12620    1.000
    C23      C        0.10188    0.25650    0.19911    1.000
    C24      C        0.20456    0.35270    0.25196    1.000
    H11      H        0.26610    0.43720    0.21380    1.000
    C25      C        0.42649    0.86750    0.69543    1.000
    C26      C        0.31330    0.90810    0.71181    1.000
    C27      C        0.97434    0.41980    0.84427    1.000
    C28      C        0.06123    0.27010    0.88125    1.000
    H12      H        0.11300    0.99370    0.22300    1.000
    C29      C        0.17668    0.84740    0.24520    1.000
    H13      H        0.23580    0.69330    0.25220    1.000
    H14      H        0.06050    0.21070    0.19540    1.000
    C30      C        0.14290    0.28550    0.24614    1.000
    H15      H        0.23230    0.37130    0.28350    1.000
    H16      H        0.46780    0.82090    0.70110    1.000
    C31      C        0.41695    0.96630    0.66315    1.000
    H17      H        0.27820    0.88760    0.72780    1.000
    C32      C        0.30497    0.00880    0.68045    1.000
    H18      H        0.94640    0.48720    0.84750    1.000
    C33      C        0.96897    0.36880    0.79759    1.000
    C34      C        0.05432    0.21500    0.83565    1.000
    H19      H        0.09350    0.23870    0.90900    1.000
    O18      O        0.18907    0.87840    0.29500    1.000
    O19      O        0.11829    0.24060    0.28489    1.000
    C35      C        0.35639    0.03890    0.65606    1.000
    H20      H        0.45120    0.98430    0.64610    1.000
    H21      H        0.26420    0.05670    0.67580    1.000
    H22      H        0.93950    0.40390    0.76940    1.000
    C36      C        0.00819    0.26510    0.79390    1.000
    H23      H        0.08030    0.14480    0.83290    1.000
    C37      C        0.25001    0.82900    0.32668    1.000
    C38      C        0.15326    0.27270    0.33343    1.000
    C39      C        0.34705    0.14620    0.62091    1.000
    C40      C        0.24436    0.73830    0.35949    1.000
    C41      C        0.31460    0.87360    0.32428    1.000
    C42      C        0.19780    0.18920    0.36194    1.000
    C43      C        0.13800    0.38330    0.35291    1.000
    C44      C        0.30590    0.69410    0.39168    1.000
    H24      H        0.20020    0.70680    0.36020    1.000
    C45      C        0.37532    0.82940    0.35641    1.000
    H25      H        0.31770    0.93370    0.30110    1.000
    C46      C        0.22733    0.21500    0.41184    1.000
    H26      H        0.20840    0.11590    0.34810    1.000
    C47      C        0.16690    0.40820    0.40254    1.000
    H27      H        0.10850    0.44020    0.33280    1.000
    C48      C        0.37144    0.74110    0.39076    1.000
    H28      H        0.30290    0.63210    0.41410    1.000
    H29      H        0.41940    0.85980    0.35480    1.000
    C49      C        0.21118    0.32410    0.43268    1.000
    H30      H        0.25810    0.15890    0.43140    1.000
    H31      H        0.15670    0.48230    0.41590    1.000
    C50      C        0.43789    0.69550    0.42644    1.000
    C51      C        0.23751    0.34660    0.48695    1.000
    O20      O        0.54174    0.45310    0.43937    1.000
    O21      O        0.58383    0.63151    0.52234    1.000
    O22      O        0.56951    0.62200    0.04063    1.000
    C52      C        0.58460    0.47930    0.41498    1.000
    Co4      Co       0.59868    0.72571    0.45781    1.000
    C53      C        0.59152    0.73300    0.54618    1.000
    C54      C        0.59010    0.39500    0.37345    1.000
    O23      O        0.62465    0.57430    0.42324    1.000
    O24      O        0.59791    0.82980    0.52321    1.000
    O25      O        0.50487    0.73740    0.07915    1.000
    O26      O        0.61512    0.14620    0.90971    1.000
    O27      O        0.72027    0.27080    0.98622    1.000
    C55      C        0.59670    0.73440    0.60023    1.000
    H32      H        0.63810    0.36660    0.37870    1.000
    H33      H        0.57660    0.43850    0.34240    1.000
    H34      H        0.55900    0.32600    0.37260    1.000
    Co5      Co       0.72919    0.62442    0.41846    1.000
    C56      C        0.60772    0.62630    0.62780    1.000
    C57      C        0.59195    0.84480    0.62439    1.000
    O28      O        0.84004    0.66960    0.42260    1.000
    O29      O        0.74271    0.48620    0.37477    1.000
    O30      O        0.69731    0.22710    0.87555    1.000
    O31      O        0.78361    0.43850    0.99279    1.000
    H35      H        0.61010    0.55180    0.61190    1.000
    C58      C        0.61513    0.62840    0.67828    1.000
    C59      C        0.59813    0.84710    0.67501    1.000
    H36      H        0.58460    0.91770    0.60630    1.000
    Co6      Co       0.88815    0.53395    0.47313    1.000
    C60      C        0.87377    0.76110    0.40915    1.000
    C61      C        0.79764    0.41970    0.38206    1.000
    H37      H        0.62330    0.55580    0.69650    1.000
    C62      C        0.61047    0.73860    0.70207    1.000
    H38      H        0.59400    0.92100    0.69090    1.000
    O32      O        0.83886    0.39860    0.42384    1.000
    O33      O        0.91981    0.41060    0.52994    1.000
    O34      O        0.02783    0.48960    0.55998    1.000
    C63      C        0.85484    0.79280    0.35506    1.000
    O35      O        0.92063    0.81920    0.43826    1.000
    C64      C        0.81556    0.36560    0.33729    1.000
    O36      O        0.61571    0.73190    0.75224    1.000
    C65      C        0.97567    0.42680    0.56424    1.000
    C66      C        0.88388    0.89530    0.33812    1.000
    C67      C        0.80999    0.71750    0.32079    1.000
    C68      C        0.87695    0.29610    0.34220    1.000
    C69      C        0.77545    0.39190    0.28998    1.000
    C70      C        0.62550    0.83860    0.78092    1.000
    C71      C        0.97905    0.37120    0.61382    1.000
    H39      H        0.91460    0.94570    0.36080    1.000
    C72      C        0.86791    0.92390    0.28802    1.000
    C73      C        0.79417    0.74430    0.27061    1.000
    H40      H        0.79040    0.64820    0.33170    1.000
    H41      H        0.90410    0.27600    0.37380    1.000
    C74      C        0.89812    0.25650    0.30089    1.000
    C75      C        0.79544    0.35270    0.24804    1.000
    H42      H        0.73390    0.43720    0.28620    1.000
    C76      C        0.57351    0.86750    0.80457    1.000
    C77      C        0.68670    0.90810    0.78819    1.000
    C78      C        0.02566    0.41980    0.65573    1.000
    C79      C        0.93877    0.27010    0.61875    1.000
    H43      H        0.88700    0.99370    0.27700    1.000
    C80      C        0.82332    0.84740    0.25480    1.000
    H44      H        0.76420    0.69330    0.24780    1.000
    H45      H        0.93950    0.21070    0.30460    1.000
    C81      C        0.85710    0.28550    0.25386    1.000
    H46      H        0.76770    0.37130    0.21650    1.000
    H47      H        0.53220    0.82090    0.79890    1.000
    C82      C        0.58305    0.96630    0.83685    1.000
    H48      H        0.72180    0.88760    0.77220    1.000
    C83      C        0.69503    0.00880    0.81955    1.000
    H49      H        0.05360    0.48720    0.65250    1.000
    C84      C        0.03103    0.36880    0.70241    1.000
    C85      C        0.94568    0.21500    0.66435    1.000
    H50      H        0.90650    0.23870    0.59100    1.000
    O37      O        0.81093    0.87840    0.20500    1.000
    O38      O        0.88171    0.24060    0.21511    1.000
    C86      C        0.64361    0.03890    0.84394    1.000
    H51      H        0.54880    0.98430    0.85390    1.000
    H52      H        0.73580    0.05670    0.82420    1.000
    H53      H        0.06050    0.40390    0.73060    1.000
    C87      C        0.99181    0.26510    0.70610    1.000
    H54      H        0.91970    0.14480    0.66710    1.000
    C88      C        0.74999    0.82900    0.17332    1.000
    C89      C        0.84674    0.27270    0.16657    1.000
    C90      C        0.65295    0.14620    0.87909    1.000
    C91      C        0.75564    0.73830    0.14051    1.000
    C92      C        0.68540    0.87360    0.17572    1.000
    C93      C        0.80220    0.18920    0.13806    1.000
    C94      C        0.86200    0.38330    0.14709    1.000
    C95      C        0.69410    0.69410    0.10832    1.000
    H55      H        0.79980    0.70680    0.13980    1.000
    C96      C        0.62468    0.82940    0.14359    1.000
    H56      H        0.68230    0.93370    0.19890    1.000
    C97      C        0.77267    0.21500    0.08816    1.000
    H57      H        0.79160    0.11590    0.15190    1.000
    C98      C        0.83310    0.40820    0.09746    1.000
    H58      H        0.89150    0.44020    0.16720    1.000
    C99      C        0.62856    0.74110    0.10924    1.000
    H59      H        0.69710    0.63210    0.08590    1.000
    H60      H        0.58060    0.85980    0.14520    1.000
    C100     C        0.78882    0.32410    0.06732    1.000
    H61      H        0.74190    0.15890    0.06860    1.000
    H62      H        0.84330    0.48230    0.08410    1.000
    C101     C        0.56211    0.69550    0.07356    1.000
    C102     C        0.76249    0.34660    0.01305    1.000
    O39      O        0.54174    0.54690    0.93937    1.000
    O40      O        0.58383    0.36849    0.02234    1.000
    O41      O        0.56951    0.37800    0.54063    1.000
    C103     C        0.58460    0.52070    0.91498    1.000
    Co7      Co       0.59868    0.27429    0.95781    1.000
    C104     C        0.59152    0.26700    0.04618    1.000
    C105     C        0.59010    0.60500    0.87345    1.000
    O42      O        0.62465    0.42570    0.92324    1.000
    O43      O        0.59791    0.17020    0.02321    1.000
    O44      O        0.50487    0.26260    0.57915    1.000
    O45      O        0.61512    0.85380    0.40971    1.000
    O46      O        0.72027    0.72920    0.48622    1.000
    C106     C        0.59670    0.26560    0.10023    1.000
    H63      H        0.63810    0.63340    0.87870    1.000
    H64      H        0.57660    0.56150    0.84240    1.000
    H65      H        0.55900    0.67400    0.87260    1.000
    Co8      Co       0.72919    0.37558    0.91846    1.000
    C107     C        0.60772    0.37370    0.12780    1.000
    C108     C        0.59195    0.15520    0.12439    1.000
    O47      O        0.84004    0.33040    0.92260    1.000
    O48      O        0.74271    0.51380    0.87477    1.000
    O49      O        0.69731    0.77290    0.37555    1.000
    O50      O        0.78361    0.56150    0.49279    1.000
    H66      H        0.61010    0.44820    0.11190    1.000
    C109     C        0.61513    0.37160    0.17828    1.000
    C110     C        0.59813    0.15290    0.17501    1.000
    H67      H        0.58460    0.08230    0.10630    1.000
    Co9      Co       0.88815    0.46605    0.97313    1.000
    C111     C        0.87377    0.23890    0.90915    1.000
    C112     C        0.79764    0.58030    0.88206    1.000
    H68      H        0.62330    0.44420    0.19650    1.000
    C113     C        0.61047    0.26140    0.20207    1.000
    H69      H        0.59400    0.07900    0.19090    1.000
    O51      O        0.83886    0.60140    0.92384    1.000
    O52      O        0.91981    0.58940    0.02994    1.000
    O53      O        0.02783    0.51040    0.05998    1.000
    C114     C        0.85484    0.20720    0.85506    1.000
    O54      O        0.92063    0.18080    0.93826    1.000
    C115     C        0.81556    0.63440    0.83729    1.000
    O55      O        0.61571    0.26810    0.25224    1.000
    C116     C        0.97567    0.57320    0.06424    1.000
    C117     C        0.88388    0.10470    0.83812    1.000
    C118     C        0.80999    0.28250    0.82079    1.000
    C119     C        0.87695    0.70390    0.84220    1.000
    C120     C        0.77545    0.60810    0.78998    1.000
    C121     C        0.62550    0.16140    0.28092    1.000
    C122     C        0.97905    0.62880    0.11382    1.000
    H70      H        0.91460    0.05430    0.86080    1.000
    C123     C        0.86791    0.07610    0.78802    1.000
    C124     C        0.79417    0.25570    0.77061    1.000
    H71      H        0.79040    0.35180    0.83170    1.000
    H72      H        0.90410    0.72400    0.87380    1.000
    C125     C        0.89812    0.74350    0.80089    1.000
    C126     C        0.79544    0.64730    0.74804    1.000
    H73      H        0.73390    0.56280    0.78620    1.000
    C127     C        0.57351    0.13250    0.30457    1.000
    C128     C        0.68670    0.09190    0.28819    1.000
    C129     C        0.02566    0.58020    0.15573    1.000
    C130     C        0.93877    0.72990    0.11875    1.000
    H74      H        0.88700    0.00630    0.77700    1.000
    C131     C        0.82332    0.15260    0.75480    1.000
    H75      H        0.76420    0.30670    0.74780    1.000
    H76      H        0.93950    0.78930    0.80460    1.000
    C132     C        0.85710    0.71450    0.75386    1.000
    H77      H        0.76770    0.62870    0.71650    1.000
    H78      H        0.53220    0.17910    0.29890    1.000
    C133     C        0.58305    0.03370    0.33685    1.000
    H79      H        0.72180    0.11240    0.27220    1.000
    C134     C        0.69503    0.99120    0.31955    1.000
    H80      H        0.05360    0.51280    0.15250    1.000
    C135     C        0.03103    0.63120    0.20241    1.000
    C136     C        0.94568    0.78500    0.16435    1.000
    H81      H        0.90650    0.76130    0.09100    1.000
    O56      O        0.81093    0.12160    0.70500    1.000
    O57      O        0.88171    0.75940    0.71511    1.000
    C137     C        0.64361    0.96110    0.34394    1.000
    H82      H        0.54880    0.01570    0.35390    1.000
    H83      H        0.73580    0.94330    0.32420    1.000
    H84      H        0.06050    0.59610    0.23060    1.000
    C138     C        0.99181    0.73490    0.20610    1.000
    H85      H        0.91970    0.85520    0.16710    1.000
    C139     C        0.74999    0.17100    0.67332    1.000
    C140     C        0.84674    0.72730    0.66657    1.000
    C141     C        0.65295    0.85380    0.37909    1.000
    C142     C        0.75564    0.26170    0.64051    1.000
    C143     C        0.68540    0.12640    0.67572    1.000
    C144     C        0.80220    0.81080    0.63806    1.000
    C145     C        0.86200    0.61670    0.64709    1.000
    C146     C        0.69410    0.30590    0.60832    1.000
    H86      H        0.79980    0.29320    0.63980    1.000
    C147     C        0.62468    0.17060    0.64359    1.000
    H87      H        0.68230    0.06630    0.69890    1.000
    C148     C        0.77267    0.78500    0.58816    1.000
    H88      H        0.79160    0.88410    0.65190    1.000
    C149     C        0.83310    0.59180    0.59746    1.000
    H89      H        0.89150    0.55980    0.66720    1.000
    C150     C        0.62856    0.25890    0.60924    1.000
    H90      H        0.69710    0.36790    0.58590    1.000
    H91      H        0.58060    0.14020    0.64520    1.000
    C151     C        0.78882    0.67590    0.56732    1.000
    H92      H        0.74190    0.84110    0.56860    1.000
    H93      H        0.84330    0.51770    0.58410    1.000
    C152     C        0.56211    0.30450    0.57356    1.000
    C153     C        0.76249    0.65340    0.51305    1.000
    O58      O        0.45826    0.54690    0.56063    1.000
    O59      O        0.41617    0.36849    0.47766    1.000
    O60      O        0.43049    0.37800    0.95937    1.000
    C154     C        0.41540    0.52070    0.58502    1.000
    Co10     Co       0.40132    0.27429    0.54219    1.000
    C155     C        0.40848    0.26700    0.45382    1.000
    C156     C        0.40990    0.60500    0.62655    1.000
    O61      O        0.37535    0.42570    0.57676    1.000
    O62      O        0.40209    0.17020    0.47679    1.000
    O63      O        0.49513    0.26260    0.92085    1.000
    O64      O        0.38488    0.85380    0.09029    1.000
    O65      O        0.27973    0.72920    0.01378    1.000
    C157     C        0.40330    0.26560    0.39977    1.000
    H94      H        0.36190    0.63340    0.62130    1.000
    H95      H        0.42340    0.56150    0.65760    1.000
    H96      H        0.44100    0.67400    0.62740    1.000
    Co11     Co       0.27081    0.37558    0.58154    1.000
    C158     C        0.39228    0.37370    0.37220    1.000
    C159     C        0.40805    0.15520    0.37561    1.000
    O66      O        0.15996    0.33040    0.57740    1.000
    O67      O        0.25729    0.51380    0.62523    1.000
    O68      O        0.30269    0.77290    0.12445    1.000
    O69      O        0.21639    0.56150    0.00721    1.000
    H97      H        0.38990    0.44820    0.38810    1.000
    C160     C        0.38487    0.37160    0.32172    1.000
    C161     C        0.40187    0.15290    0.32499    1.000
    H98      H        0.41540    0.08230    0.39370    1.000
    Co12     Co       0.11185    0.46605    0.52687    1.000
    C162     C        0.12623    0.23890    0.59085    1.000
    C163     C        0.20236    0.58030    0.61794    1.000
    H99      H        0.37670    0.44420    0.30350    1.000
    C164     C        0.38953    0.26140    0.29793    1.000
    H100     H        0.40600    0.07900    0.30910    1.000
    O70      O        0.16114    0.60140    0.57616    1.000
    O71      O        0.08019    0.58940    0.47006    1.000
    O72      O        0.97217    0.51040    0.44002    1.000
    C165     C        0.14516    0.20720    0.64494    1.000
    O73      O        0.07937    0.18080    0.56174    1.000
    C166     C        0.18444    0.63440    0.66271    1.000
    O74      O        0.38429    0.26810    0.24776    1.000
    C167     C        0.02433    0.57320    0.43576    1.000
    C168     C        0.11612    0.10470    0.66188    1.000
    C169     C        0.19001    0.28250    0.67921    1.000
    C170     C        0.12305    0.70390    0.65780    1.000
    C171     C        0.22455    0.60810    0.71002    1.000
    C172     C        0.37450    0.16140    0.21908    1.000
    C173     C        0.02095    0.62880    0.38618    1.000
    H101     H        0.08540    0.05430    0.63920    1.000
    C174     C        0.13209    0.07610    0.71198    1.000
    C175     C        0.20583    0.25570    0.72939    1.000
    H102     H        0.20960    0.35180    0.66830    1.000
    H103     H        0.09590    0.72400    0.62620    1.000
    C176     C        0.10188    0.74350    0.69911    1.000
    C177     C        0.20456    0.64730    0.75196    1.000
    H104     H        0.26610    0.56280    0.71380    1.000
    C178     C        0.42649    0.13250    0.19543    1.000
    C179     C        0.31330    0.09190    0.21181    1.000
    C180     C        0.97434    0.58020    0.34427    1.000
    C181     C        0.06123    0.72990    0.38125    1.000
    H105     H        0.11300    0.00630    0.72300    1.000
    C182     C        0.17668    0.15260    0.74520    1.000
    H106     H        0.23580    0.30670    0.75220    1.000
    H107     H        0.06050    0.78930    0.69540    1.000
    C183     C        0.14290    0.71450    0.74614    1.000
    H108     H        0.23230    0.62870    0.78350    1.000
    H109     H        0.46780    0.17910    0.20110    1.000
    C184     C        0.41695    0.03370    0.16315    1.000
    H110     H        0.27820    0.11240    0.22780    1.000
    C185     C        0.30497    0.99120    0.18045    1.000
    H111     H        0.94640    0.51280    0.34750    1.000
    C186     C        0.96897    0.63120    0.29759    1.000
    C187     C        0.05432    0.78500    0.33565    1.000
    H112     H        0.09350    0.76130    0.40900    1.000
    O75      O        0.18907    0.12160    0.79500    1.000
    O76      O        0.11829    0.75940    0.78489    1.000
    C188     C        0.35639    0.96110    0.15606    1.000
    H113     H        0.45120    0.01570    0.14610    1.000
    H114     H        0.26420    0.94330    0.17580    1.000
    H115     H        0.93950    0.59610    0.26940    1.000
    C189     C        0.00819    0.73490    0.29390    1.000
    H116     H        0.08030    0.85520    0.33290    1.000
    C190     C        0.25001    0.17100    0.82668    1.000
    C191     C        0.15326    0.72730    0.83343    1.000
    C192     C        0.34705    0.85380    0.12091    1.000
    C193     C        0.24436    0.26170    0.85949    1.000
    C194     C        0.31460    0.12640    0.82428    1.000
    C195     C        0.19780    0.81080    0.86194    1.000
    C196     C        0.13800    0.61670    0.85291    1.000
    C197     C        0.30590    0.30590    0.89168    1.000
    H117     H        0.20020    0.29320    0.86020    1.000
    C198     C        0.37532    0.17060    0.85641    1.000
    H118     H        0.31770    0.06630    0.80110    1.000
    C199     C        0.22733    0.78500    0.91184    1.000
    H119     H        0.20840    0.88410    0.84810    1.000
    C200     C        0.16690    0.59180    0.90254    1.000
    H120     H        0.10850    0.55980    0.83280    1.000
    C201     C        0.37144    0.25890    0.89076    1.000
    H121     H        0.30290    0.36790    0.91410    1.000
    H122     H        0.41940    0.14020    0.85480    1.000
    C202     C        0.21118    0.67590    0.93268    1.000
    H123     H        0.25810    0.84110    0.93140    1.000
    H124     H        0.15670    0.51770    0.91590    1.000
    C203     C        0.43789    0.30450    0.92644    1.000
    C204     C        0.23751    0.65340    0.98695    1.000
    Co13     Co       0.50000    0.50000    0.00000    1.000
    Co14     Co       0.50000    0.50000    0.50000    1.000
    O77      O        0.00000    0.20150    0.75000    1.000
    O78      O        0.00000    0.79850    0.25000    1.000
