data_functionalizedCrystal
_audit_creation_method	'EQeq! by Chris Wilmer'
_symmetry_space_group_name_H-M	'P1'
_symmetry_Int_Tables_number	1
_symmetry_cell_setting	triclinic
loop_
_symmetry_equiv_pos_as_xyz
  x,y,z
_cell_length_a	18.3066
_cell_length_b	16.979
_cell_length_c	13.8035
_cell_angle_alpha	90
_cell_angle_beta	130.134
_cell_angle_gamma	90
loop_
_atom_site_label
_atom_site_type_symbol
_atom_site_fract_x
_atom_site_fract_y
_atom_site_fract_z
_atom_site_charge
Mof_O 	O 	0.09933	0.27866	0.88833	-0.448
Mof_O 	O 	0.08858	0.10834	0.87882	-0.538
Mof_O 	O 	0.23165	0.81227	0.35637	-0.462
Mof_O 	O 	0.07581	0.80109	0.19096	-0.518
Mof_O 	O 	0.23134	0.1461	0.05769	-0.509
Mof_N 	N 	0.07295	0.33959	0.9207	-0.074
Mof_C 	C 	0.15746	0.83089	0.2475	0.391
Mof_C 	C 	0.16165	0.09893	0.9917	0.488
Mof_C 	C 	0.16627	0.02518	0.0564	-0.191
Mof_C 	C 	0.01488	0.46603	0.9826	0.131
Mof_C 	C 	0.087	0.41297	0.9007	0.059
Mof_C 	C 	0.0581	0.47663	0.9297	-0.165
Mof_C 	C 	0.16313	0.8953	0.1782	-0.065
Mof_C 	C 	0.0862	0.91135	0.0525	-0.084
Mof_C 	C 	0.2426	0.9435	0.2403	-0.052
Mof_C 	C 	0.2431	0.0083	0.1801	0.043
Mof_C 	C 	0.0877	0.97512	0.9917	0.084
Mof_C 	C 	0.0336	0.3268	0.9744	0.133
Mof_C 	C 	0.004	0.38929	0.0045	-0.31
Mof_H 	H 	0.117	0.417	0.868	0.024
Mof_H 	H 	0.028	0.988	0.898	0.003
Mof_H 	H 	0.019	0.272	0.979	-0.009
Mof_H 	H 	0.026	0.877	0.008	0.035
Mof_H 	H 	0.072	0.528	0.919	0.078
Mof_H 	H 	0.292	0.041	0.224	0.03
Mof_H 	H 	0.977	0.377	0.047	0.167
Mof_H 	H 	0.3	0.934	0.33	0.063
Mof_O 	O 	0.59933	0.77866	0.88833	-0.432
Mof_O 	O 	0.58858	0.60834	0.87882	-0.514
Mof_O 	O 	0.73165	0.31227	0.35637	-0.457
Mof_O 	O 	0.57581	0.30109	0.19096	-0.485
Mof_O 	O 	0.73134	0.6461	0.05769	-0.506
Mof_N 	N 	0.57295	0.83959	0.9207	-0.063
Mof_C 	C 	0.65746	0.33089	0.2475	0.388
Mof_C 	C 	0.66165	0.59893	0.9917	0.492
Mof_C 	C 	0.66627	0.52518	0.0564	-0.185
Mof_C 	C 	0.51488	0.96603	0.9826	0.157
Mof_C 	C 	0.587	0.91297	0.9007	0.069
Mof_C 	C 	0.5581	0.97663	0.9297	-0.16
Mof_C 	C 	0.66313	0.3953	0.1782	-0.056
Mof_C 	C 	0.5862	0.41135	0.0525	-0.078
Mof_C 	C 	0.7426	0.4435	0.2403	-0.042
Mof_C 	C 	0.7431	0.5083	0.1801	0.04
Mof_C 	C 	0.5877	0.47512	0.9917	0.097
Mof_C 	C 	0.5336	0.8268	0.9744	0.1
Mof_C 	C 	0.504	0.88929	0.0045	-0.196
Mof_H 	H 	0.617	0.917	0.868	0.031
Mof_H 	H 	0.528	0.488	0.898	0.025
Mof_H 	H 	0.519	0.772	0.979	0.03
Mof_H 	H 	0.526	0.377	0.008	0.058
Mof_H 	H 	0.572	0.028	0.919	0.092
Mof_H 	H 	0.792	0.541	0.224	0.042
Mof_H 	H 	0.477	0.877	0.047	0.085
Mof_H 	H 	0.8	0.434	0.33	0.064
Mof_O 	O 	0.90067	0.27866	0.61167	-0.423
Mof_O 	O 	0.91142	0.10834	0.62118	-0.469
Mof_O 	O 	0.76835	0.81227	0.14363	-0.467
Mof_O 	O 	0.92419	0.80109	0.30904	-0.452
Mof_O 	O 	0.76866	0.1461	0.44231	-0.469
Mof_N 	N 	0.92705	0.33959	0.5793	-0.026
Mof_C 	C 	0.84254	0.83089	0.2525	0.401
Mof_C 	C 	0.83835	0.09893	0.5083	0.412
Mof_C 	C 	0.83373	0.02518	0.4436	-0.071
Mof_C 	C 	0.98512	0.46603	0.5174	0.041
Mof_C 	C 	0.913	0.41297	0.5993	0.019
Mof_C 	C 	0.9419	0.47663	0.5703	-0.068
Mof_C 	C 	0.83687	0.8953	0.3218	-0.092
Mof_C 	C 	0.9138	0.91135	0.4475	0.008
Mof_C 	C 	0.7574	0.9435	0.2597	0.007
Mof_C 	C 	0.7569	0.0083	0.3199	-0.033
Mof_C 	C 	0.9123	0.97512	0.5083	-0.006
Mof_C 	C 	0.9664	0.3268	0.5256	-0.029
Mof_C 	C 	0.996	0.38929	0.4955	0.066
Mof_H 	H 	0.883	0.417	0.632	0.059
Mof_H 	H 	0.972	0.988	0.602	0.074
Mof_H 	H 	0.981	0.272	0.521	0.093
Mof_H 	H 	0.974	0.877	0.492	0.067
Mof_H 	H 	0.928	0.528	0.581	0.069
Mof_H 	H 	0.708	0.041	0.276	0.061
Mof_H 	H 	0.023	0.377	0.453	-0.036
Mof_H 	H 	0.7	0.934	0.17	0.041
Mof_O 	O 	0.40067	0.77866	0.61167	-0.44
Mof_O 	O 	0.41142	0.60834	0.62118	-0.497
Mof_O 	O 	0.26835	0.31227	0.14363	-0.471
Mof_O 	O 	0.42419	0.30109	0.30904	-0.488
Mof_O 	O 	0.26866	0.6461	0.44231	-0.477
Mof_N 	N 	0.42705	0.83959	0.5793	-0.04
Mof_C 	C 	0.34254	0.33089	0.2525	0.404
Mof_C 	C 	0.33835	0.59893	0.5083	0.416
Mof_C 	C 	0.33373	0.52518	0.4436	-0.087
Mof_C 	C 	0.48512	0.96603	0.5174	0.024
Mof_C 	C 	0.413	0.91297	0.5993	0.014
Mof_C 	C 	0.4419	0.97663	0.5703	-0.083
Mof_C 	C 	0.33687	0.3953	0.3218	-0.101
Mof_C 	C 	0.4138	0.41135	0.4475	-0.001
Mof_C 	C 	0.2574	0.4435	0.2597	0.001
Mof_C 	C 	0.2569	0.5083	0.3199	-0.031
Mof_C 	C 	0.4123	0.47512	0.5083	-0.01
Mof_C 	C 	0.4664	0.8268	0.5256	0.015
Mof_C 	C 	0.496	0.88929	0.4955	-0.067
Mof_H 	H 	0.383	0.917	0.632	0.05
Mof_H 	H 	0.472	0.488	0.602	0.051
Mof_H 	H 	0.481	0.772	0.521	0.05
Mof_H 	H 	0.474	0.377	0.492	0.044
Mof_H 	H 	0.428	0.028	0.581	0.06
Mof_H 	H 	0.208	0.541	0.276	0.049
Mof_H 	H 	0.523	0.877	0.453	0.052
Mof_H 	H 	0.2	0.434	0.17	0.041
Mof_O 	O 	0.90067	0.72134	0.11167	-0.429
Mof_O 	O 	0.91142	0.89166	0.12118	-0.455
Mof_O 	O 	0.76835	0.18773	0.64363	-0.461
Mof_O 	O 	0.92419	0.19891	0.80904	-0.453
Mof_O 	O 	0.76866	0.8539	0.94231	-0.431
Mof_N 	N 	0.92705	0.66041	0.0793	-0.004
Mof_C 	C 	0.84254	0.16911	0.7525	0.417
Mof_C 	C 	0.83835	0.90107	0.0083	0.332
Mof_C 	C 	0.83373	0.97482	0.9436	0.035
Mof_C 	C 	0.98512	0.53397	0.0174	-0.085
Mof_C 	C 	0.913	0.58703	0.0993	-0.033
Mof_C 	C 	0.9419	0.52337	0.0703	0.007
Mof_C 	C 	0.83687	0.1047	0.8218	-0.135
Mof_C 	C 	0.9138	0.08865	0.9475	0.086
Mof_C 	C 	0.7574	0.0565	0.7597	0.07
Mof_C 	C 	0.7569	0.9917	0.8199	-0.118
Mof_C 	C 	0.9123	0.02488	0.0083	-0.11
Mof_C 	C 	0.9664	0.6732	0.0256	-0.11
Mof_C 	C 	0.996	0.61071	0.9955	0.191
Mof_H 	H 	0.883	0.583	0.132	0.077
Mof_H 	H 	0.972	0.012	0.102	0.098
Mof_H 	H 	0.981	0.728	0.021	0.112
Mof_H 	H 	0.974	0.123	0.992	0.051
Mof_H 	H 	0.928	0.472	0.081	0.038
Mof_H 	H 	0.708	0.959	0.776	0.096
Mof_H 	H 	0.023	0.623	0.953	-0.067
Mof_H 	H 	0.7	0.066	0.67	0.03
Mof_O 	O 	0.40067	0.22134	0.11167	-0.446
Mof_O 	O 	0.41142	0.39166	0.12118	-0.483
Mof_O 	O 	0.26835	0.68773	0.64363	-0.467
Mof_O 	O 	0.42419	0.69891	0.80904	-0.489
Mof_O 	O 	0.26866	0.3539	0.94231	-0.442
Mof_N 	N 	0.42705	0.16041	0.0793	-0.018
Mof_C 	C 	0.34254	0.66911	0.7525	0.42
Mof_C 	C 	0.33835	0.40107	0.0083	0.341
Mof_C 	C 	0.33373	0.47482	0.9436	0.017
Mof_C 	C 	0.48512	0.03397	0.0174	-0.103
Mof_C 	C 	0.413	0.08703	0.0993	-0.041
Mof_C 	C 	0.4419	0.02337	0.0703	0.002
Mof_C 	C 	0.33687	0.6047	0.8218	-0.143
Mof_C 	C 	0.4138	0.58865	0.9475	0.077
Mof_C 	C 	0.2574	0.5565	0.7597	0.057
Mof_C 	C 	0.2569	0.4917	0.8199	-0.108
Mof_C 	C 	0.4123	0.52488	0.0083	-0.116
Mof_C 	C 	0.4664	0.1732	0.0256	-0.063
Mof_C 	C 	0.496	0.11071	0.9955	0.056
Mof_H 	H 	0.383	0.083	0.132	0.069
Mof_H 	H 	0.472	0.512	0.102	0.074
Mof_H 	H 	0.481	0.228	0.021	0.069
Mof_H 	H 	0.474	0.623	0.992	0.029
Mof_H 	H 	0.428	0.972	0.081	0.023
Mof_H 	H 	0.208	0.459	0.776	0.081
Mof_H 	H 	0.523	0.123	0.953	0.021
Mof_H 	H 	0.2	0.566	0.67	0.03
Mof_O 	O 	0.09933	0.72134	0.38833	-0.454
Mof_O 	O 	0.08858	0.89166	0.37882	-0.524
Mof_O 	O 	0.23165	0.18773	0.85637	-0.457
Mof_O 	O 	0.07581	0.19891	0.69096	-0.52
Mof_O 	O 	0.23134	0.8539	0.55769	-0.476
Mof_N 	N 	0.07295	0.66041	0.4207	-0.054
Mof_C 	C 	0.15746	0.16911	0.7475	0.407
Mof_C 	C 	0.16165	0.90107	0.4917	0.417
Mof_C 	C 	0.16627	0.97482	0.5564	-0.093
Mof_C 	C 	0.01488	0.53397	0.4826	0.011
Mof_C 	C 	0.087	0.58703	0.4007	0.01
Mof_C 	C 	0.0581	0.52337	0.4297	-0.092
Mof_C 	C 	0.16313	0.1047	0.6782	-0.107
Mof_C 	C 	0.0862	0.08865	0.5525	-0.007
Mof_C 	C 	0.2426	0.0565	0.7403	0.007
Mof_C 	C 	0.2431	0.9917	0.6801	-0.035
Mof_C 	C 	0.0877	0.02488	0.4917	-0.017
Mof_C 	C 	0.0336	0.6732	0.4744	0.062
Mof_C 	C 	0.004	0.61071	0.5045	-0.198
Mof_H 	H 	0.117	0.583	0.368	0.041
Mof_H 	H 	0.028	0.012	0.398	0.026
Mof_H 	H 	0.019	0.728	0.479	0.008
Mof_H 	H 	0.026	0.123	0.508	0.02
Mof_H 	H 	0.072	0.472	0.419	0.048
Mof_H 	H 	0.292	0.959	0.724	0.063
Mof_H 	H 	0.977	0.623	0.547	0.14
Mof_H 	H 	0.3	0.066	0.83	0.052
Mof_O 	O 	0.59933	0.22134	0.38833	-0.439
Mof_O 	O 	0.58858	0.39166	0.37882	-0.499
Mof_O 	O 	0.73165	0.68773	0.85637	-0.451
Mof_O 	O 	0.57581	0.69891	0.69096	-0.486
Mof_O 	O 	0.73134	0.3539	0.55769	-0.469
Mof_N 	N 	0.57295	0.16041	0.4207	-0.039
Mof_C 	C 	0.65746	0.66911	0.7475	0.404
Mof_C 	C 	0.66165	0.40107	0.4917	0.414
Mof_C 	C 	0.66627	0.47482	0.5564	-0.077
Mof_C 	C 	0.51488	0.03397	0.4826	0.026
Mof_C 	C 	0.587	0.08703	0.4007	0.014
Mof_C 	C 	0.5581	0.02337	0.4297	-0.077
Mof_C 	C 	0.66313	0.6047	0.6782	-0.098
Mof_C 	C 	0.5862	0.58865	0.5525	0.002
Mof_C 	C 	0.7426	0.5565	0.7403	0.016
Mof_C 	C 	0.7431	0.4917	0.6801	-0.04
Mof_C 	C 	0.5877	0.52488	0.4917	-0.013
Mof_C 	C 	0.5336	0.1732	0.4744	0.017
Mof_C 	C 	0.504	0.11071	0.5045	-0.066
Mof_H 	H 	0.617	0.083	0.368	0.051
Mof_H 	H 	0.528	0.512	0.398	0.049
Mof_H 	H 	0.519	0.228	0.479	0.051
Mof_H 	H 	0.526	0.623	0.508	0.042
Mof_H 	H 	0.572	0.972	0.419	0.056
Mof_H 	H 	0.792	0.459	0.724	0.076
Mof_H 	H 	0.477	0.123	0.547	0.052
Mof_H 	H 	0.8	0.566	0.83	0.054
Mof_Mg	Mg	3.48706e-33	0.19181	0.75	1.472
Mof_Mg	Mg	0.5	0.69181	0.75	1.479
Mof_Mg	Mg	1.73289e-17	0.80819	0.25	1.472
Mof_Mg	Mg	0.5	0.30819	0.25	1.478
Mof_Mg	Mg	0.25	0.25	-0	1.474
Mof_Mg	Mg	0.75	0.25	0.5	1.476
Mof_Mg	Mg	0.75	0.75	-0	1.474
Mof_Mg	Mg	0.25	0.75	0.5	1.476
_end
