# CIF file generated by openbabel 3.1.0, see https://openbabel.org
data_I
_chemical_name_common 'image0'
_cell_length_a 15.4676
_cell_length_b 13.1962
_cell_length_c 26.497
_cell_angle_alpha 90
_cell_angle_beta 98.729
_cell_angle_gamma 90
_space_group_name_H-M_alt 'P 1'
_space_group_name_Hall 'P 1'
loop_
    _symmetry_equiv_pos_as_xyz
    x,y,z
loop_
    _atom_site_label
    _atom_site_type_symbol
    _atom_site_fract_x
    _atom_site_fract_y
    _atom_site_fract_z
    _atom_site_occupancy
    Cd1      Cd       0.25407    0.81505    0.23937    1.000
    Cd2      Cd       0.21126    0.67755    0.34551    1.000
    C1       C        0.60890    0.19020    0.21695    1.000
    O1       O        0.35152    0.96140    0.25114    1.000
    O2       O        0.29562    0.90350    0.17431    1.000
    C2       C        0.34840    0.95830    0.20325    1.000
    C3       C        0.00390    0.49930    0.10985    1.000
    O3       O        0.81890    0.34300    0.17884    1.000
    C4       C        0.41920    0.00380    0.12805    1.000
    H1       H        0.37760    0.96330    0.10860    1.000
    C5       C        0.06460    0.55920    0.14011    1.000
    H2       H        0.10510    0.59650    0.12520    1.000
    O4       O        0.60130    0.21400    0.26130    1.000
    C6       C        0.54090    0.12600    0.18551    1.000
    O5       O        0.67404    0.21870    0.19645    1.000
    C7       C        0.87470    0.39270    0.20768    1.000
    C8       C        0.41390    0.01920    0.17911    1.000
    O6       O        0.53300    0.66150    0.09116    1.000
    C9       C        0.54550    0.10830    0.13467    1.000
    H3       H        0.59000    0.13790    0.11980    1.000
    C10      C        0.48460    0.04710    0.10536    1.000
    C11      C        0.94300    0.44980    0.18500    1.000
    C12      C        0.47400    0.08150    0.20775    1.000
    H4       H        0.47000    0.09380    0.24190    1.000
    C13      C        0.00250    0.49780    0.05298    1.000
    C14      C        0.49290    0.02300    0.05123    1.000
    O7       O        0.53440    0.62000    0.99681    1.000
    C15      C        0.06400    0.44260    0.03140    1.000
    C16      C        0.00410    0.50990    0.21510    1.000
    H5       H        0.00380    0.51360    0.25010    1.000
    C17      C        0.93780    0.55440    0.02240    1.000
    C18      C        0.12800    0.38150    0.06146    1.000
    H6       H        0.12940    0.37920    0.09670    1.000
    O8       O        0.87300    0.40120    0.25430    1.000
    C19      C        0.94380    0.44380    0.13252    1.000
    H7       H        0.90370    0.40230    0.11250    1.000
    C20      C        0.52430    0.74440    0.05914    1.000
    C21      C        0.52700    0.71950    0.00714    1.000
    C22      C        0.06530    0.56410    0.19337    1.000
    C23      C        0.18680    0.32680    0.03995    1.000
    C24      C        0.50640    0.92250    0.03724    1.000
    C25      C        0.87340    0.61290    0.04367    1.000
    H8       H        0.87300    0.61150    0.07870    1.000
    C26      C        0.52420    0.79590    0.97201    1.000
    H9       H        0.53030    0.78000    0.93850    1.000
    C27      C        0.51480    0.84190    0.07378    1.000
    H10      H        0.51380    0.85640    0.10800    1.000
    C28      C        0.48780    0.10120    0.01479    1.000
    C29      C        0.53830    0.68280    0.14501    1.000
    H11      H        0.48570    0.71600    0.15120    1.000
    H12      H        0.58760    0.72590    0.15580    1.000
    H13      H        0.54520    0.62040    0.16390    1.000
    O9       O        0.24960    0.26410    0.06512    1.000
    C30      C        0.18600    0.33070    0.98612    1.000
    O10      O        0.24980    0.27250    0.96932    1.000
    O11      O        0.17790    0.68550    0.20243    1.000
    O12      O        0.12990    0.62920    0.27264    1.000
    C31      C        0.12930    0.63130    0.22548    1.000
    C32      C        0.53820    0.59290    0.94530    1.000
    H14      H        0.48680    0.61730    0.92380    1.000
    H15      H        0.54110    0.52050    0.94250    1.000
    H16      H        0.58920    0.62260    0.93470    1.000
    C33      C        0.25230    0.27560    0.91510    1.000
    H17      H        0.19420    0.26730    0.89690    1.000
    H18      H        0.28890    0.22190    0.90610    1.000
    H19      H        0.27550    0.33960    0.90630    1.000
    C34      C        0.25080    0.24750    0.11740    1.000
    H20      H        0.19490    0.22240    0.12310    1.000
    H21      H        0.26320    0.31000    0.13550    1.000
    H22      H        0.29530    0.19860    0.12930    1.000
    Cd3      Cd       0.74593    0.31505    0.26063    1.000
    Cd4      Cd       0.78874    0.17755    0.15449    1.000
    C35      C        0.39110    0.69020    0.28305    1.000
    O13      O        0.64848    0.46140    0.24886    1.000
    O14      O        0.70438    0.40350    0.32569    1.000
    C36      C        0.65160    0.45830    0.29675    1.000
    C37      C        0.99610    0.99930    0.39015    1.000
    O15      O        0.18110    0.84300    0.32116    1.000
    C38      C        0.58080    0.50380    0.37195    1.000
    H23      H        0.62240    0.46330    0.39140    1.000
    C39      C        0.93540    0.05920    0.35989    1.000
    H24      H        0.89490    0.09650    0.37480    1.000
    O16      O        0.39870    0.71400    0.23870    1.000
    C40      C        0.45910    0.62600    0.31449    1.000
    O17      O        0.32596    0.71870    0.30355    1.000
    C41      C        0.12530    0.89270    0.29232    1.000
    C42      C        0.58610    0.51920    0.32089    1.000
    O18      O        0.46700    0.16150    0.40884    1.000
    C43      C        0.45450    0.60830    0.36533    1.000
    H25      H        0.41000    0.63790    0.38020    1.000
    C44      C        0.51540    0.54710    0.39464    1.000
    C45      C        0.05700    0.94980    0.31500    1.000
    C46      C        0.52600    0.58150    0.29225    1.000
    H26      H        0.53000    0.59380    0.25810    1.000
    C47      C        0.99750    0.99780    0.44702    1.000
    C48      C        0.50710    0.52300    0.44877    1.000
    O19      O        0.46560    0.12000    0.50319    1.000
    C49      C        0.93600    0.94260    0.46860    1.000
    C50      C        0.99590    0.00990    0.28490    1.000
    H27      H        0.99620    0.01360    0.24990    1.000
    C51      C        0.06220    0.05440    0.47760    1.000
    C52      C        0.87200    0.88150    0.43854    1.000
    H28      H        0.87060    0.87920    0.40330    1.000
    O20      O        0.12700    0.90120    0.24570    1.000
    C53      C        0.05620    0.94380    0.36748    1.000
    H29      H        0.09630    0.90230    0.38750    1.000
    C54      C        0.47570    0.24440    0.44086    1.000
    C55      C        0.47300    0.21950    0.49286    1.000
    C56      C        0.93470    0.06410    0.30663    1.000
    C57      C        0.81320    0.82680    0.46005    1.000
    C58      C        0.49360    0.42250    0.46276    1.000
    C59      C        0.12660    0.11290    0.45633    1.000
    H30      H        0.12700    0.11150    0.42130    1.000
    C60      C        0.47580    0.29590    0.52799    1.000
    H31      H        0.46970    0.28000    0.56150    1.000
    C61      C        0.48520    0.34190    0.42622    1.000
    H32      H        0.48620    0.35640    0.39200    1.000
    C62      C        0.51220    0.60120    0.48521    1.000
    C63      C        0.46170    0.18280    0.35499    1.000
    H33      H        0.51430    0.21600    0.34880    1.000
    H34      H        0.41240    0.22590    0.34420    1.000
    H35      H        0.45480    0.12040    0.33610    1.000
    O21      O        0.75040    0.76410    0.43488    1.000
    C64      C        0.81400    0.83070    0.51388    1.000
    O22      O        0.75020    0.77250    0.53068    1.000
    O23      O        0.82210    0.18550    0.29757    1.000
    O24      O        0.87010    0.12920    0.22736    1.000
    C65      C        0.87070    0.13130    0.27452    1.000
    C66      C        0.46180    0.09290    0.55470    1.000
    H36      H        0.51320    0.11730    0.57620    1.000
    H37      H        0.45890    0.02050    0.55750    1.000
    H38      H        0.41080    0.12260    0.56530    1.000
    C67      C        0.74770    0.77560    0.58490    1.000
    H39      H        0.80580    0.76730    0.60310    1.000
    H40      H        0.71110    0.72190    0.59390    1.000
    H41      H        0.72450    0.83960    0.59370    1.000
    C68      C        0.74920    0.74750    0.38260    1.000
    H42      H        0.80510    0.72240    0.37690    1.000
    H43      H        0.73680    0.81000    0.36450    1.000
    H44      H        0.70470    0.69860    0.37070    1.000
    Cd5      Cd       0.74593    0.18495    0.76063    1.000
    Cd6      Cd       0.78874    0.32245    0.65449    1.000
    C69      C        0.39110    0.80980    0.78305    1.000
    O25      O        0.64848    0.03860    0.74886    1.000
    O26      O        0.70438    0.09650    0.82569    1.000
    C70      C        0.65160    0.04170    0.79675    1.000
    C71      C        0.99610    0.50070    0.89015    1.000
    O27      O        0.18110    0.65700    0.82116    1.000
    C72      C        0.58080    0.99620    0.87195    1.000
    H45      H        0.62240    0.03670    0.89140    1.000
    C73      C        0.93540    0.44080    0.85989    1.000
    H46      H        0.89490    0.40350    0.87480    1.000
    O28      O        0.39870    0.78600    0.73870    1.000
    C74      C        0.45910    0.87400    0.81449    1.000
    O29      O        0.32596    0.78130    0.80355    1.000
    C75      C        0.12530    0.60730    0.79232    1.000
    C76      C        0.58610    0.98080    0.82089    1.000
    O30      O        0.46700    0.33850    0.90884    1.000
    C77      C        0.45450    0.89170    0.86533    1.000
    H47      H        0.41000    0.86210    0.88020    1.000
    C78      C        0.51540    0.95290    0.89464    1.000
    C79      C        0.05700    0.55020    0.81500    1.000
    C80      C        0.52600    0.91850    0.79225    1.000
    H48      H        0.53000    0.90620    0.75810    1.000
    C81      C        0.99750    0.50220    0.94702    1.000
    C82      C        0.50710    0.97700    0.94877    1.000
    O31      O        0.46560    0.38000    0.00319    1.000
    C83      C        0.93600    0.55740    0.96860    1.000
    C84      C        0.99590    0.49010    0.78490    1.000
    H49      H        0.99620    0.48640    0.74990    1.000
    C85      C        0.06220    0.44560    0.97760    1.000
    C86      C        0.87200    0.61850    0.93854    1.000
    H50      H        0.87060    0.62080    0.90330    1.000
    O32      O        0.12700    0.59880    0.74570    1.000
    C87      C        0.05620    0.55620    0.86748    1.000
    H51      H        0.09630    0.59770    0.88750    1.000
    C88      C        0.47570    0.25560    0.94086    1.000
    C89      C        0.47300    0.28050    0.99286    1.000
    C90      C        0.93470    0.43590    0.80663    1.000
    C91      C        0.81320    0.67320    0.96005    1.000
    C92      C        0.49360    0.07750    0.96276    1.000
    C93      C        0.12660    0.38710    0.95633    1.000
    H52      H        0.12700    0.38850    0.92130    1.000
    C94      C        0.47580    0.20410    0.02799    1.000
    H53      H        0.46970    0.22000    0.06150    1.000
    C95      C        0.48520    0.15810    0.92622    1.000
    H54      H        0.48620    0.14360    0.89200    1.000
    C96      C        0.51220    0.89880    0.98521    1.000
    C97      C        0.46170    0.31720    0.85499    1.000
    H55      H        0.51430    0.28400    0.84880    1.000
    H56      H        0.41240    0.27410    0.84420    1.000
    H57      H        0.45480    0.37960    0.83610    1.000
    O33      O        0.75040    0.73590    0.93488    1.000
    C98      C        0.81400    0.66930    0.01388    1.000
    O34      O        0.75020    0.72750    0.03068    1.000
    O35      O        0.82210    0.31450    0.79757    1.000
    O36      O        0.87010    0.37080    0.72736    1.000
    C99      C        0.87070    0.36870    0.77452    1.000
    C100     C        0.46180    0.40710    0.05470    1.000
    H58      H        0.51320    0.38270    0.07620    1.000
    H59      H        0.45890    0.47950    0.05750    1.000
    H60      H        0.41080    0.37740    0.06530    1.000
    C101     C        0.74770    0.72440    0.08490    1.000
    H61      H        0.80580    0.73270    0.10310    1.000
    H62      H        0.71110    0.77810    0.09390    1.000
    H63      H        0.72450    0.66040    0.09370    1.000
    C102     C        0.74920    0.75250    0.88260    1.000
    H64      H        0.80510    0.77760    0.87690    1.000
    H65      H        0.73680    0.69000    0.86450    1.000
    H66      H        0.70470    0.80140    0.87070    1.000
    Cd7      Cd       0.25407    0.68495    0.73937    1.000
    Cd8      Cd       0.21126    0.82245    0.84551    1.000
    C103     C        0.60890    0.30980    0.71695    1.000
    O37      O        0.35152    0.53860    0.75114    1.000
    O38      O        0.29562    0.59650    0.67431    1.000
    C104     C        0.34840    0.54170    0.70325    1.000
    C105     C        0.00390    0.00070    0.60985    1.000
    O39      O        0.81890    0.15700    0.67884    1.000
    C106     C        0.41920    0.49620    0.62805    1.000
    H67      H        0.37760    0.53670    0.60860    1.000
    C107     C        0.06460    0.94080    0.64011    1.000
    H68      H        0.10510    0.90350    0.62520    1.000
    O40      O        0.60130    0.28600    0.76130    1.000
    C108     C        0.54090    0.37400    0.68551    1.000
    O41      O        0.67404    0.28130    0.69645    1.000
    C109     C        0.87470    0.10730    0.70768    1.000
    C110     C        0.41390    0.48080    0.67911    1.000
    O42      O        0.53300    0.83850    0.59116    1.000
    C111     C        0.54550    0.39170    0.63467    1.000
    H69      H        0.59000    0.36210    0.61980    1.000
    C112     C        0.48460    0.45290    0.60536    1.000
    C113     C        0.94300    0.05020    0.68500    1.000
    C114     C        0.47400    0.41850    0.70775    1.000
    H70      H        0.47000    0.40620    0.74190    1.000
    C115     C        0.00250    0.00220    0.55298    1.000
    C116     C        0.49290    0.47700    0.55123    1.000
    O43      O        0.53440    0.88000    0.49681    1.000
    C117     C        0.06400    0.05740    0.53140    1.000
    C118     C        0.00410    0.99010    0.71510    1.000
    H71      H        0.00380    0.98640    0.75010    1.000
    C119     C        0.93780    0.94560    0.52240    1.000
    C120     C        0.12800    0.11850    0.56146    1.000
    H72      H        0.12940    0.12080    0.59670    1.000
    O44      O        0.87300    0.09880    0.75430    1.000
    C121     C        0.94380    0.05620    0.63252    1.000
    H73      H        0.90370    0.09770    0.61250    1.000
    C122     C        0.52430    0.75560    0.55914    1.000
    C123     C        0.52700    0.78050    0.50714    1.000
    C124     C        0.06530    0.93590    0.69337    1.000
    C125     C        0.18680    0.17320    0.53995    1.000
    C126     C        0.50640    0.57750    0.53724    1.000
    C127     C        0.87340    0.88710    0.54367    1.000
    H74      H        0.87300    0.88850    0.57870    1.000
    C128     C        0.52420    0.70410    0.47201    1.000
    H75      H        0.53030    0.72000    0.43850    1.000
    C129     C        0.51480    0.65810    0.57378    1.000
    H76      H        0.51380    0.64360    0.60800    1.000
    C130     C        0.48780    0.39880    0.51479    1.000
    C131     C        0.53830    0.81720    0.64501    1.000
    H77      H        0.48570    0.78400    0.65120    1.000
    H78      H        0.58760    0.77410    0.65580    1.000
    H79      H        0.54520    0.87960    0.66390    1.000
    O45      O        0.24960    0.23590    0.56512    1.000
    C132     C        0.18600    0.16930    0.48612    1.000
    O46      O        0.24980    0.22750    0.46932    1.000
    O47      O        0.17790    0.81450    0.70243    1.000
    O48      O        0.12990    0.87080    0.77264    1.000
    C133     C        0.12930    0.86870    0.72548    1.000
    C134     C        0.53820    0.90710    0.44530    1.000
    H80      H        0.48680    0.88270    0.42380    1.000
    H81      H        0.54110    0.97950    0.44250    1.000
    H82      H        0.58920    0.87740    0.43470    1.000
    C135     C        0.25230    0.22440    0.41510    1.000
    H83      H        0.19420    0.23270    0.39690    1.000
    H84      H        0.28890    0.27810    0.40610    1.000
    H85      H        0.27550    0.16040    0.40630    1.000
    C136     C        0.25080    0.25250    0.61740    1.000
    H86      H        0.19490    0.27760    0.62310    1.000
    H87      H        0.26320    0.19000    0.63550    1.000
    H88      H        0.29530    0.30140    0.62930    1.000
