data_functionalizedCrystal
_audit_creation_method	'EQeq! by Chris Wilmer'
_symmetry_space_group_name_H-M	'P1'
_symmetry_Int_Tables_number	1
_symmetry_cell_setting	triclinic
loop_
_symmetry_equiv_pos_as_xyz
  x,y,z
_cell_length_a	52.1749
_cell_length_b	52.1749
_cell_length_c	10.0229
_cell_angle_alpha	90
_cell_angle_beta	90
_cell_angle_gamma	90
loop_
_atom_site_label
_atom_site_type_symbol
_atom_site_fract_x
_atom_site_fract_y
_atom_site_fract_z
_atom_site_charge
Mof_Zn	Zn	0.53128	0.31047	0.03708	1.238
Mof_Zn	Zn	0.61162	0.39036	0.04589	1.235
Mof_Zn	Zn	0.67968	0.40601	0.20159	1.232
Mof_P 	P 	0.72018	0.44956	0.1559	0.688
Mof_P 	P 	0.56285	0.35796	0.0876	0.562
Mof_P 	P 	0.50619	0.29934	0.7625	0.409
Mof_P 	P 	0.62575	0.42659	0.2733	0.453
Mof_P 	P 	0.66546	0.36624	0.9837	0.411
Mof_O 	O 	0.74923	0.4502	0.1726	-0.941
Mof_O 	O 	0.71158	0.45226	0.0105	-0.88
Mof_O 	O 	0.71061	0.42515	0.2119	-0.476
Mof_O 	O 	0.5477	0.34205	0.9907	-0.465
Mof_O 	O 	0.57751	0.34219	0.1827	-0.53
Mof_O 	O 	0.5787	0.3751	0.0039	-0.446
Mof_O 	O 	0.50537	0.3009	0.9143	-0.468
Mof_O 	O 	0.53221	0.30579	0.7032	-0.464
Mof_O 	O 	0.48449	0.31622	0.7085	-0.441
Mof_O 	O 	0.65053	0.4294	0.1974	-0.475
Mof_O 	O 	0.60981	0.40444	0.2261	-0.47
Mof_O 	O 	0.6282	0.4252	0.4205	-0.466
Mof_O 	O 	0.6379	0.3646	0.041	-0.464
Mof_O 	O 	0.6666	0.3649	0.8373	-0.447
Mof_O 	O 	0.6797	0.3896	0.027	-0.414
Mof_H 	H 	0.7093	0.4689	0.2321	-0.09
Mof_H 	H 	0.5488	0.3609	0.1732	-0.123
Mof_H 	H 	0.4906	0.278	0.7452	-0.055
Mof_H 	H 	0.6155	0.4514	0.2626	-0.016
Mof_H 	H 	0.6833	0.3503	0.053	-0.006
Mof_Zn	Zn	0.03128	0.81047	0.53708	1.231
Mof_Zn	Zn	0.11162	0.89036	0.54589	1.23
Mof_Zn	Zn	0.17968	0.90601	0.70159	1.23
Mof_P 	P 	0.22018	0.94956	0.6559	0.687
Mof_P 	P 	0.06285	0.85796	0.5876	0.547
Mof_P 	P 	0.00619	0.79934	0.2625	0.408
Mof_P 	P 	0.12575	0.92659	0.7733	0.451
Mof_P 	P 	0.16546	0.86624	0.4837	0.449
Mof_O 	O 	0.24923	0.9502	0.6726	-0.943
Mof_O 	O 	0.21158	0.95226	0.5105	-0.9
Mof_O 	O 	0.21061	0.92515	0.7119	-0.482
Mof_O 	O 	0.0477	0.84205	0.4907	-0.447
Mof_O 	O 	0.07751	0.84219	0.6827	-0.534
Mof_O 	O 	0.0787	0.8751	0.5039	-0.454
Mof_O 	O 	0.00537	0.8009	0.4143	-0.458
Mof_O 	O 	0.03221	0.80579	0.2032	-0.46
Mof_O 	O 	0.98449	0.81622	0.2085	-0.435
Mof_O 	O 	0.15053	0.9294	0.6974	-0.481
Mof_O 	O 	0.10981	0.90444	0.7261	-0.475
Mof_O 	O 	0.1282	0.9252	0.9205	-0.478
Mof_O 	O 	0.1379	0.8646	0.541	-0.482
Mof_O 	O 	0.1666	0.8649	0.3373	-0.446
Mof_O 	O 	0.1797	0.8896	0.527	-0.433
Mof_H 	H 	0.2093	0.9689	0.7321	-0.095
Mof_H 	H 	0.0488	0.8609	0.6732	-0.125
Mof_H 	H 	0.9906	0.778	0.2452	-0.052
Mof_H 	H 	0.1155	0.9514	0.7626	-0.022
Mof_H 	H 	0.1833	0.8503	0.553	-0.02
Mof_Zn	Zn	0.96872	0.68953	0.53708	1.231
Mof_Zn	Zn	0.88838	0.60964	0.54589	1.23
Mof_Zn	Zn	0.82032	0.59399	0.70159	1.23
Mof_P 	P 	0.77982	0.55044	0.6559	0.687
Mof_P 	P 	0.93715	0.64204	0.5876	0.547
Mof_P 	P 	0.99381	0.70066	0.2625	0.408
Mof_P 	P 	0.87425	0.57341	0.7733	0.451
Mof_P 	P 	0.83454	0.63376	0.4837	0.449
Mof_O 	O 	0.75077	0.5498	0.6726	-0.944
Mof_O 	O 	0.78842	0.54774	0.5105	-0.901
Mof_O 	O 	0.78939	0.57485	0.7119	-0.482
Mof_O 	O 	0.9523	0.65795	0.4907	-0.447
Mof_O 	O 	0.92249	0.65781	0.6827	-0.534
Mof_O 	O 	0.9213	0.6249	0.5039	-0.454
Mof_O 	O 	0.99463	0.6991	0.4143	-0.458
Mof_O 	O 	0.96779	0.69421	0.2032	-0.46
Mof_O 	O 	0.01551	0.68378	0.2085	-0.435
Mof_O 	O 	0.84947	0.5706	0.6974	-0.481
Mof_O 	O 	0.89019	0.59556	0.7261	-0.474
Mof_O 	O 	0.8718	0.5748	0.9205	-0.478
Mof_O 	O 	0.8621	0.6354	0.541	-0.482
Mof_O 	O 	0.8334	0.6351	0.3373	-0.446
Mof_O 	O 	0.8203	0.6104	0.527	-0.433
Mof_H 	H 	0.7907	0.5311	0.7321	-0.095
Mof_H 	H 	0.9512	0.6391	0.6732	-0.125
Mof_H 	H 	0.0094	0.722	0.2452	-0.052
Mof_H 	H 	0.8845	0.5486	0.7626	-0.022
Mof_H 	H 	0.8167	0.6497	0.553	-0.02
Mof_Zn	Zn	0.46872	0.18953	0.03708	1.237
Mof_Zn	Zn	0.38838	0.10964	0.04589	1.234
Mof_Zn	Zn	0.32032	0.09399	0.20159	1.231
Mof_P 	P 	0.27982	0.05044	0.1559	0.687
Mof_P 	P 	0.43715	0.14204	0.0876	0.561
Mof_P 	P 	0.49381	0.20066	0.7625	0.408
Mof_P 	P 	0.37425	0.07341	0.2733	0.452
Mof_P 	P 	0.33454	0.13376	0.9837	0.41
Mof_O 	O 	0.25077	0.0498	0.1726	-0.942
Mof_O 	O 	0.28842	0.04774	0.0105	-0.881
Mof_O 	O 	0.28939	0.07485	0.2119	-0.477
Mof_O 	O 	0.4523	0.15795	0.9907	-0.466
Mof_O 	O 	0.42249	0.15781	0.1827	-0.531
Mof_O 	O 	0.4213	0.1249	0.0039	-0.447
Mof_O 	O 	0.49463	0.1991	0.9143	-0.468
Mof_O 	O 	0.46779	0.19421	0.7032	-0.464
Mof_O 	O 	0.51551	0.18378	0.7085	-0.441
Mof_O 	O 	0.34947	0.0706	0.1974	-0.475
Mof_O 	O 	0.39019	0.09556	0.2261	-0.47
Mof_O 	O 	0.3718	0.0748	0.4205	-0.466
Mof_O 	O 	0.3621	0.1354	0.041	-0.464
Mof_O 	O 	0.3334	0.1351	0.8373	-0.447
Mof_O 	O 	0.3203	0.1104	0.027	-0.414
Mof_H 	H 	0.2907	0.0311	0.2321	-0.09
Mof_H 	H 	0.4512	0.1391	0.1732	-0.123
Mof_H 	H 	0.5094	0.222	0.7452	-0.055
Mof_H 	H 	0.3845	0.0486	0.2626	-0.016
Mof_H 	H 	0.3167	0.1497	0.053	-0.006
Mof_Zn	Zn	0.93953	0.28128	0.28708	1.231
Mof_Zn	Zn	0.85964	0.36162	0.29589	1.231
Mof_Zn	Zn	0.84399	0.42968	0.45159	1.231
Mof_P 	P 	0.80044	0.47018	0.4059	0.688
Mof_P 	P 	0.89204	0.31285	0.3376	0.547
Mof_P 	P 	0.95066	0.25619	0.0125	0.443
Mof_P 	P 	0.82341	0.37575	0.5233	0.451
Mof_P 	P 	0.88376	0.41546	0.2337	0.45
Mof_O 	O 	0.7998	0.49923	0.4226	-0.943
Mof_O 	O 	0.79774	0.46158	0.2605	-0.902
Mof_O 	O 	0.82485	0.46061	0.4619	-0.478
Mof_O 	O 	0.90795	0.2977	0.2407	-0.443
Mof_O 	O 	0.90781	0.32751	0.4327	-0.531
Mof_O 	O 	0.8749	0.3287	0.2539	-0.45
Mof_O 	O 	0.9491	0.25537	0.1643	-0.459
Mof_O 	O 	0.94421	0.28221	0.9532	-0.48
Mof_O 	O 	0.93378	0.23449	0.9585	-0.454
Mof_O 	O 	0.8206	0.40053	0.4474	-0.477
Mof_O 	O 	0.84556	0.35981	0.4761	-0.471
Mof_O 	O 	0.8248	0.3782	0.6705	-0.467
Mof_O 	O 	0.8854	0.3879	0.291	-0.478
Mof_O 	O 	0.8851	0.4166	0.0873	-0.437
Mof_O 	O 	0.8604	0.4297	0.277	-0.43
Mof_H 	H 	0.7811	0.4593	0.4821	-0.092
Mof_H 	H 	0.8891	0.2988	0.4232	-0.122
Mof_H 	H 	0.972	0.2406	0.9952	-0.068
Mof_H 	H 	0.7986	0.3655	0.5126	-0.019
Mof_H 	H 	0.8997	0.4333	0.303	-0.018
Mof_Zn	Zn	0.43953	0.78128	0.78708	1.231
Mof_Zn	Zn	0.35964	0.86162	0.79589	1.23
Mof_Zn	Zn	0.34399	0.92968	0.95159	1.227
Mof_P 	P 	0.30044	0.97018	0.9059	0.685
Mof_P 	P 	0.39204	0.81285	0.8376	0.548
Mof_P 	P 	0.45066	0.75619	0.5125	0.407
Mof_P 	P 	0.32341	0.87575	0.0233	0.48
Mof_P 	P 	0.38376	0.91546	0.7337	0.449
Mof_O 	O 	0.2998	0.99923	0.9226	-0.941
Mof_O 	O 	0.29774	0.96158	0.7605	-0.901
Mof_O 	O 	0.32485	0.96061	0.9619	-0.485
Mof_O 	O 	0.40795	0.7977	0.7407	-0.448
Mof_O 	O 	0.40781	0.82751	0.9327	-0.538
Mof_O 	O 	0.3749	0.8287	0.7539	-0.456
Mof_O 	O 	0.4491	0.75537	0.6643	-0.459
Mof_O 	O 	0.44421	0.78221	0.4532	-0.462
Mof_O 	O 	0.43378	0.73449	0.4585	-0.438
Mof_O 	O 	0.3206	0.90053	0.9474	-0.495
Mof_O 	O 	0.34556	0.85981	0.9761	-0.489
Mof_O 	O 	0.3248	0.8782	0.1705	-0.466
Mof_O 	O 	0.3854	0.8879	0.791	-0.484
Mof_O 	O 	0.3851	0.9166	0.5873	-0.448
Mof_O 	O 	0.3604	0.9297	0.777	-0.435
Mof_H 	H 	0.2811	0.9593	0.9821	-0.098
Mof_H 	H 	0.3891	0.7988	0.9232	-0.126
Mof_H 	H 	0.472	0.7406	0.4952	-0.054
Mof_H 	H 	0.2986	0.8655	0.0126	-0.015
Mof_H 	H 	0.3997	0.9333	0.803	-0.023
Mof_Zn	Zn	0.56047	0.71872	0.78708	1.231
Mof_Zn	Zn	0.64036	0.63838	0.79589	1.23
Mof_Zn	Zn	0.65601	0.57032	0.95159	1.227
Mof_P 	P 	0.69956	0.52982	0.9059	0.685
Mof_P 	P 	0.60796	0.68715	0.8376	0.548
Mof_P 	P 	0.54934	0.74381	0.5125	0.407
Mof_P 	P 	0.67659	0.62425	0.0233	0.48
Mof_P 	P 	0.61624	0.58454	0.7337	0.449
Mof_O 	O 	0.7002	0.50077	0.9226	-0.94
Mof_O 	O 	0.70226	0.53842	0.7605	-0.901
Mof_O 	O 	0.67515	0.53939	0.9619	-0.485
Mof_O 	O 	0.59205	0.7023	0.7407	-0.448
Mof_O 	O 	0.59219	0.67249	0.9327	-0.538
Mof_O 	O 	0.6251	0.6713	0.7539	-0.456
Mof_O 	O 	0.5509	0.74463	0.6643	-0.459
Mof_O 	O 	0.55579	0.71779	0.4532	-0.462
Mof_O 	O 	0.56622	0.76551	0.4585	-0.438
Mof_O 	O 	0.6794	0.59947	0.9474	-0.495
Mof_O 	O 	0.65444	0.64019	0.9761	-0.489
Mof_O 	O 	0.6752	0.6218	0.1705	-0.466
Mof_O 	O 	0.6146	0.6121	0.791	-0.484
Mof_O 	O 	0.6149	0.5834	0.5873	-0.448
Mof_O 	O 	0.6396	0.5703	0.777	-0.435
Mof_H 	H 	0.7189	0.5407	0.9821	-0.098
Mof_H 	H 	0.6109	0.7012	0.9232	-0.126
Mof_H 	H 	0.528	0.7594	0.4952	-0.054
Mof_H 	H 	0.7014	0.6345	0.0126	-0.015
Mof_H 	H 	0.6003	0.5667	0.803	-0.023
Mof_Zn	Zn	0.06047	0.21872	0.28708	1.231
Mof_Zn	Zn	0.14036	0.13838	0.29589	1.231
Mof_Zn	Zn	0.15601	0.07032	0.45159	1.231
Mof_P 	P 	0.19956	0.02982	0.4059	0.688
Mof_P 	P 	0.10796	0.18715	0.3376	0.547
Mof_P 	P 	0.04934	0.24381	0.0125	0.443
Mof_P 	P 	0.17659	0.12425	0.5233	0.451
Mof_P 	P 	0.11624	0.08454	0.2337	0.45
Mof_O 	O 	0.2002	0.00077	0.4226	-0.942
Mof_O 	O 	0.20226	0.03842	0.2605	-0.902
Mof_O 	O 	0.17515	0.03939	0.4619	-0.478
Mof_O 	O 	0.09205	0.2023	0.2407	-0.443
Mof_O 	O 	0.09219	0.17249	0.4327	-0.531
Mof_O 	O 	0.1251	0.1713	0.2539	-0.45
Mof_O 	O 	0.0509	0.24463	0.1643	-0.459
Mof_O 	O 	0.05579	0.21779	0.9532	-0.48
Mof_O 	O 	0.06622	0.26551	0.9585	-0.454
Mof_O 	O 	0.1794	0.09947	0.4474	-0.477
Mof_O 	O 	0.15444	0.14019	0.4761	-0.471
Mof_O 	O 	0.1752	0.1218	0.6705	-0.467
Mof_O 	O 	0.1146	0.1121	0.291	-0.478
Mof_O 	O 	0.1149	0.0834	0.0873	-0.437
Mof_O 	O 	0.1396	0.0703	0.277	-0.43
Mof_H 	H 	0.2189	0.0407	0.4821	-0.092
Mof_H 	H 	0.1109	0.2012	0.4232	-0.122
Mof_H 	H 	0.028	0.2594	0.9952	-0.068
Mof_H 	H 	0.2014	0.1345	0.5126	-0.019
Mof_H 	H 	0.1003	0.0667	0.303	-0.018
Mof_Zn	Zn	0.96872	0.31047	0.96292	1.225
Mof_Zn	Zn	0.88838	0.39036	0.95411	1.227
Mof_Zn	Zn	0.82032	0.40601	0.79841	1.23
Mof_P 	P 	0.77982	0.44956	0.8441	0.686
Mof_P 	P 	0.93715	0.35796	0.9124	0.533
Mof_P 	P 	0.99381	0.29934	0.2375	0.407
Mof_P 	P 	0.87425	0.42659	0.7267	0.45
Mof_P 	P 	0.83454	0.36624	0.0163	0.488
Mof_O 	O 	0.75077	0.4502	0.8274	-0.939
Mof_O 	O 	0.78842	0.45226	0.9895	-0.918
Mof_O 	O 	0.78939	0.42515	0.7881	-0.48
Mof_O 	O 	0.9523	0.34205	0.0093	-0.429
Mof_O 	O 	0.92249	0.34219	0.8173	-0.531
Mof_O 	O 	0.9213	0.3751	0.9961	-0.461
Mof_O 	O 	0.99463	0.3009	0.0857	-0.449
Mof_O 	O 	0.96779	0.30579	0.2968	-0.461
Mof_O 	O 	0.01551	0.31622	0.2915	-0.436
Mof_O 	O 	0.84947	0.4294	0.8026	-0.482
Mof_O 	O 	0.89019	0.40444	0.7739	-0.474
Mof_O 	O 	0.8718	0.4252	0.5795	-0.466
Mof_O 	O 	0.8621	0.3646	0.959	-0.498
Mof_O 	O 	0.8334	0.3649	0.1627	-0.448
Mof_O 	O 	0.8203	0.3896	0.973	-0.451
Mof_H 	H 	0.7907	0.4689	0.7679	-0.093
Mof_H 	H 	0.9512	0.3609	0.8268	-0.122
Mof_H 	H 	0.0094	0.278	0.2548	-0.052
Mof_H 	H 	0.8845	0.4514	0.7374	-0.021
Mof_H 	H 	0.8167	0.3503	0.947	-0.032
Mof_Zn	Zn	0.46872	0.81047	0.46292	1.231
Mof_Zn	Zn	0.38838	0.89036	0.45411	1.23
Mof_Zn	Zn	0.32032	0.90601	0.29841	1.232
Mof_P 	P 	0.27982	0.94956	0.3441	0.688
Mof_P 	P 	0.43715	0.85796	0.4124	0.546
Mof_P 	P 	0.49381	0.79934	0.7375	0.407
Mof_P 	P 	0.37425	0.92659	0.2267	0.451
Mof_P 	P 	0.33454	0.86624	0.5163	0.45
Mof_O 	O 	0.25077	0.9502	0.3274	-0.94
Mof_O 	O 	0.28842	0.95226	0.4895	-0.9
Mof_O 	O 	0.28939	0.92515	0.2881	-0.475
Mof_O 	O 	0.4523	0.84205	0.5093	-0.448
Mof_O 	O 	0.42249	0.84219	0.3173	-0.528
Mof_O 	O 	0.4213	0.8751	0.4961	-0.454
Mof_O 	O 	0.49463	0.8009	0.5857	-0.458
Mof_O 	O 	0.46779	0.80579	0.7968	-0.466
Mof_O 	O 	0.51551	0.81622	0.7915	-0.442
Mof_O 	O 	0.34947	0.9294	0.3026	-0.476
Mof_O 	O 	0.39019	0.90444	0.2739	-0.469
Mof_O 	O 	0.3718	0.9252	0.0795	-0.455
Mof_O 	O 	0.3621	0.8646	0.459	-0.48
Mof_O 	O 	0.3334	0.8649	0.6627	-0.449
Mof_O 	O 	0.3203	0.8896	0.473	-0.433
Mof_H 	H 	0.2907	0.9689	0.2679	-0.088
Mof_H 	H 	0.4512	0.8609	0.3268	-0.121
Mof_H 	H 	0.5094	0.778	0.7548	-0.055
Mof_H 	H 	0.3845	0.9514	0.2374	-0.016
Mof_H 	H 	0.3167	0.8503	0.447	-0.018
Mof_Zn	Zn	0.53128	0.68953	0.46292	1.231
Mof_Zn	Zn	0.61162	0.60964	0.45411	1.23
Mof_Zn	Zn	0.67968	0.59399	0.29841	1.232
Mof_P 	P 	0.72018	0.55044	0.3441	0.688
Mof_P 	P 	0.56285	0.64204	0.4124	0.546
Mof_P 	P 	0.50619	0.70066	0.7375	0.407
Mof_P 	P 	0.62575	0.57341	0.2267	0.451
Mof_P 	P 	0.66546	0.63376	0.5163	0.45
Mof_O 	O 	0.74923	0.5498	0.3274	-0.94
Mof_O 	O 	0.71158	0.54774	0.4895	-0.901
Mof_O 	O 	0.71061	0.57485	0.2881	-0.475
Mof_O 	O 	0.5477	0.65795	0.5093	-0.448
Mof_O 	O 	0.57751	0.65781	0.3173	-0.528
Mof_O 	O 	0.5787	0.6249	0.4961	-0.454
Mof_O 	O 	0.50537	0.6991	0.5857	-0.458
Mof_O 	O 	0.53221	0.69421	0.7968	-0.466
Mof_O 	O 	0.48449	0.68378	0.7915	-0.442
Mof_O 	O 	0.65053	0.5706	0.3026	-0.476
Mof_O 	O 	0.60981	0.59556	0.2739	-0.469
Mof_O 	O 	0.6282	0.5748	0.0795	-0.455
Mof_O 	O 	0.6379	0.6354	0.459	-0.48
Mof_O 	O 	0.6666	0.6351	0.6627	-0.449
Mof_O 	O 	0.6797	0.6104	0.473	-0.433
Mof_H 	H 	0.7093	0.5311	0.2679	-0.088
Mof_H 	H 	0.5488	0.6391	0.3268	-0.121
Mof_H 	H 	0.4906	0.722	0.7548	-0.055
Mof_H 	H 	0.6155	0.5486	0.2374	-0.016
Mof_H 	H 	0.6833	0.6497	0.447	-0.018
Mof_Zn	Zn	0.03128	0.18953	0.96292	1.225
Mof_Zn	Zn	0.11162	0.10964	0.95411	1.227
Mof_Zn	Zn	0.17968	0.09399	0.79841	1.23
Mof_P 	P 	0.22018	0.05044	0.8441	0.686
Mof_P 	P 	0.06285	0.14204	0.9124	0.533
Mof_P 	P 	0.00619	0.20066	0.2375	0.407
Mof_P 	P 	0.12575	0.07341	0.7267	0.45
Mof_P 	P 	0.16546	0.13376	0.0163	0.488
Mof_O 	O 	0.24923	0.0498	0.8274	-0.939
Mof_O 	O 	0.21158	0.04774	0.9895	-0.918
Mof_O 	O 	0.21061	0.07485	0.7881	-0.48
Mof_O 	O 	0.0477	0.15795	0.0093	-0.429
Mof_O 	O 	0.07751	0.15781	0.8173	-0.531
Mof_O 	O 	0.0787	0.1249	0.9961	-0.461
Mof_O 	O 	0.00537	0.1991	0.0857	-0.449
Mof_O 	O 	0.03221	0.19421	0.2968	-0.461
Mof_O 	O 	0.98449	0.18378	0.2915	-0.436
Mof_O 	O 	0.15053	0.0706	0.8026	-0.482
Mof_O 	O 	0.10981	0.09556	0.7739	-0.473
Mof_O 	O 	0.1282	0.0748	0.5795	-0.466
Mof_O 	O 	0.1379	0.1354	0.959	-0.498
Mof_O 	O 	0.1666	0.1351	0.1627	-0.448
Mof_O 	O 	0.1797	0.1104	0.973	-0.451
Mof_H 	H 	0.2093	0.0311	0.7679	-0.093
Mof_H 	H 	0.0488	0.1391	0.8268	-0.122
Mof_H 	H 	0.9906	0.222	0.2548	-0.052
Mof_H 	H 	0.1155	0.0486	0.7374	-0.021
Mof_H 	H 	0.1833	0.1497	0.947	-0.032
Mof_Zn	Zn	0.56047	0.28128	0.71292	1.23
Mof_Zn	Zn	0.64036	0.36162	0.70411	1.229
Mof_Zn	Zn	0.65601	0.42968	0.54841	1.231
Mof_P 	P 	0.69956	0.47018	0.5941	0.686
Mof_P 	P 	0.60796	0.31285	0.6624	0.547
Mof_P 	P 	0.54934	0.25619	0.9875	0.369
Mof_P 	P 	0.67659	0.37575	0.4767	0.451
Mof_P 	P 	0.61624	0.41546	0.7663	0.449
Mof_O 	O 	0.7002	0.49923	0.5774	-0.941
Mof_O 	O 	0.70226	0.46158	0.7395	-0.896
Mof_O 	O 	0.67515	0.46061	0.5381	-0.479
Mof_O 	O 	0.59205	0.2977	0.7593	-0.452
Mof_O 	O 	0.59219	0.32751	0.5673	-0.532
Mof_O 	O 	0.6251	0.3287	0.7461	-0.458
Mof_O 	O 	0.5509	0.25537	0.8357	-0.458
Mof_O 	O 	0.55579	0.28221	0.0468	-0.445
Mof_O 	O 	0.56622	0.23449	0.0415	-0.423
Mof_O 	O 	0.6794	0.40053	0.5526	-0.479
Mof_O 	O 	0.65444	0.35981	0.5239	-0.472
Mof_O 	O 	0.6752	0.3782	0.3295	-0.465
Mof_O 	O 	0.6146	0.3879	0.709	-0.484
Mof_O 	O 	0.6149	0.4166	0.9127	-0.459
Mof_O 	O 	0.6396	0.4297	0.723	-0.435
Mof_H 	H 	0.7189	0.4593	0.5179	-0.091
Mof_H 	H 	0.6109	0.2988	0.5768	-0.123
Mof_H 	H 	0.528	0.2406	0.0048	-0.039
Mof_H 	H 	0.7014	0.3655	0.4874	-0.019
Mof_H 	H 	0.6003	0.4333	0.697	-0.021
Mof_Zn	Zn	0.06047	0.78128	0.21292	1.231
Mof_Zn	Zn	0.14036	0.86162	0.20411	1.231
Mof_Zn	Zn	0.15601	0.92968	0.04841	1.234
Mof_P 	P 	0.19956	0.97018	0.0941	0.688
Mof_P 	P 	0.10796	0.81285	0.1624	0.546
Mof_P 	P 	0.04934	0.75619	0.4875	0.407
Mof_P 	P 	0.17659	0.87575	0.9767	0.421
Mof_P 	P 	0.11624	0.91546	0.2663	0.45
Mof_O 	O 	0.2002	0.99923	0.0774	-0.942
Mof_O 	O 	0.20226	0.96158	0.2395	-0.9
Mof_O 	O 	0.17515	0.96061	0.0381	-0.472
Mof_O 	O 	0.09205	0.7977	0.2593	-0.447
Mof_O 	O 	0.09219	0.82751	0.0673	-0.524
Mof_O 	O 	0.1251	0.8287	0.2461	-0.453
Mof_O 	O 	0.0509	0.75537	0.3357	-0.458
Mof_O 	O 	0.05579	0.78221	0.5468	-0.464
Mof_O 	O 	0.06622	0.73449	0.5415	-0.439
Mof_O 	O 	0.1794	0.90053	0.0526	-0.461
Mof_O 	O 	0.15444	0.85981	0.0239	-0.453
Mof_O 	O 	0.1752	0.8782	0.8295	-0.466
Mof_O 	O 	0.1146	0.8879	0.209	-0.478
Mof_O 	O 	0.1149	0.9166	0.4127	-0.448
Mof_O 	O 	0.1396	0.9297	0.223	-0.431
Mof_H 	H 	0.2189	0.9593	0.0179	-0.086
Mof_H 	H 	0.1109	0.7988	0.0768	-0.119
Mof_H 	H 	0.028	0.7406	0.5048	-0.054
Mof_H 	H 	0.2014	0.8655	0.9874	-0.023
Mof_H 	H 	0.1003	0.9333	0.197	-0.016
Mof_Zn	Zn	0.93953	0.71872	0.21292	1.231
Mof_Zn	Zn	0.85964	0.63838	0.20411	1.231
Mof_Zn	Zn	0.84399	0.57032	0.04841	1.234
Mof_P 	P 	0.80044	0.52982	0.0941	0.689
Mof_P 	P 	0.89204	0.68715	0.1624	0.546
Mof_P 	P 	0.95066	0.74381	0.4875	0.407
Mof_P 	P 	0.82341	0.62425	0.9767	0.421
Mof_P 	P 	0.88376	0.58454	0.2663	0.45
Mof_O 	O 	0.7998	0.50077	0.0774	-0.941
Mof_O 	O 	0.79774	0.53842	0.2395	-0.9
Mof_O 	O 	0.82485	0.53939	0.0381	-0.472
Mof_O 	O 	0.90795	0.7023	0.2593	-0.447
Mof_O 	O 	0.90781	0.67249	0.0673	-0.524
Mof_O 	O 	0.8749	0.6713	0.2461	-0.453
Mof_O 	O 	0.9491	0.74463	0.3357	-0.458
Mof_O 	O 	0.94421	0.71779	0.5468	-0.464
Mof_O 	O 	0.93378	0.76551	0.5415	-0.439
Mof_O 	O 	0.8206	0.59947	0.0526	-0.461
Mof_O 	O 	0.84556	0.64019	0.0239	-0.453
Mof_O 	O 	0.8248	0.6218	0.8295	-0.466
Mof_O 	O 	0.8854	0.6121	0.209	-0.478
Mof_O 	O 	0.8851	0.5834	0.4127	-0.448
Mof_O 	O 	0.8604	0.5703	0.223	-0.431
Mof_H 	H 	0.7811	0.5407	0.0179	-0.086
Mof_H 	H 	0.8891	0.7012	0.0768	-0.119
Mof_H 	H 	0.972	0.7594	0.5048	-0.054
Mof_H 	H 	0.7986	0.6345	0.9874	-0.023
Mof_H 	H 	0.8997	0.5667	0.197	-0.016
Mof_Zn	Zn	0.43953	0.21872	0.71292	1.23
Mof_Zn	Zn	0.35964	0.13838	0.70411	1.229
Mof_Zn	Zn	0.34399	0.07032	0.54841	1.231
Mof_P 	P 	0.30044	0.02982	0.5941	0.686
Mof_P 	P 	0.39204	0.18715	0.6624	0.547
Mof_P 	P 	0.45066	0.24381	0.9875	0.369
Mof_P 	P 	0.32341	0.12425	0.4767	0.451
Mof_P 	P 	0.38376	0.08454	0.7663	0.449
Mof_O 	O 	0.2998	0.00077	0.5774	-0.94
Mof_O 	O 	0.29774	0.03842	0.7395	-0.896
Mof_O 	O 	0.32485	0.03939	0.5381	-0.479
Mof_O 	O 	0.40795	0.2023	0.7593	-0.452
Mof_O 	O 	0.40781	0.17249	0.5673	-0.532
Mof_O 	O 	0.3749	0.1713	0.7461	-0.458
Mof_O 	O 	0.4491	0.24463	0.8357	-0.458
Mof_O 	O 	0.44421	0.21779	0.0468	-0.445
Mof_O 	O 	0.43378	0.26551	0.0415	-0.423
Mof_O 	O 	0.3206	0.09947	0.5526	-0.479
Mof_O 	O 	0.34556	0.14019	0.5239	-0.472
Mof_O 	O 	0.3248	0.1218	0.3295	-0.465
Mof_O 	O 	0.3854	0.1121	0.709	-0.484
Mof_O 	O 	0.3851	0.0834	0.9127	-0.459
Mof_O 	O 	0.3604	0.0703	0.723	-0.435
Mof_H 	H 	0.2811	0.0407	0.5179	-0.091
Mof_H 	H 	0.3891	0.2012	0.5768	-0.123
Mof_H 	H 	0.472	0.2594	0.0048	-0.039
Mof_H 	H 	0.2986	0.1345	0.4874	-0.019
Mof_H 	H 	0.3997	0.0667	0.697	-0.021
Mof_Zn	Zn	0.46872	0.68953	0.96292	1.225
Mof_Zn	Zn	0.38838	0.60964	0.95411	1.227
Mof_Zn	Zn	0.32032	0.59399	0.79841	1.23
Mof_P 	P 	0.27982	0.55044	0.8441	0.686
Mof_P 	P 	0.43715	0.64204	0.9124	0.533
Mof_P 	P 	0.49381	0.70066	0.2375	0.407
Mof_P 	P 	0.37425	0.57341	0.7267	0.45
Mof_P 	P 	0.33454	0.63376	0.0163	0.488
Mof_O 	O 	0.25077	0.5498	0.8274	-0.939
Mof_O 	O 	0.28842	0.54774	0.9895	-0.918
Mof_O 	O 	0.28939	0.57485	0.7881	-0.48
Mof_O 	O 	0.4523	0.65795	0.0093	-0.429
Mof_O 	O 	0.42249	0.65781	0.8173	-0.531
Mof_O 	O 	0.4213	0.6249	0.9961	-0.461
Mof_O 	O 	0.49463	0.6991	0.0857	-0.449
Mof_O 	O 	0.46779	0.69421	0.2968	-0.461
Mof_O 	O 	0.51551	0.68378	0.2915	-0.436
Mof_O 	O 	0.34947	0.5706	0.8026	-0.482
Mof_O 	O 	0.39019	0.59556	0.7739	-0.474
Mof_O 	O 	0.3718	0.5748	0.5795	-0.466
Mof_O 	O 	0.3621	0.6354	0.959	-0.498
Mof_O 	O 	0.3334	0.6351	0.1627	-0.448
Mof_O 	O 	0.3203	0.6104	0.973	-0.451
Mof_H 	H 	0.2907	0.5311	0.7679	-0.093
Mof_H 	H 	0.4512	0.6391	0.8268	-0.122
Mof_H 	H 	0.5094	0.722	0.2548	-0.052
Mof_H 	H 	0.3845	0.5486	0.7374	-0.021
Mof_H 	H 	0.3167	0.6497	0.947	-0.032
Mof_Zn	Zn	0.96872	0.18953	0.46292	1.231
Mof_Zn	Zn	0.88838	0.10964	0.45411	1.23
Mof_Zn	Zn	0.82032	0.09399	0.29841	1.232
Mof_P 	P 	0.77982	0.05044	0.3441	0.688
Mof_P 	P 	0.93715	0.14204	0.4124	0.546
Mof_P 	P 	0.99381	0.20066	0.7375	0.407
Mof_P 	P 	0.87425	0.07341	0.2267	0.451
Mof_P 	P 	0.83454	0.13376	0.5163	0.45
Mof_O 	O 	0.75077	0.0498	0.3274	-0.941
Mof_O 	O 	0.78842	0.04774	0.4895	-0.901
Mof_O 	O 	0.78939	0.07485	0.2881	-0.475
Mof_O 	O 	0.9523	0.15795	0.5093	-0.447
Mof_O 	O 	0.92249	0.15781	0.3173	-0.528
Mof_O 	O 	0.9213	0.1249	0.4961	-0.454
Mof_O 	O 	0.99463	0.1991	0.5857	-0.458
Mof_O 	O 	0.96779	0.19421	0.7968	-0.466
Mof_O 	O 	0.01551	0.18378	0.7915	-0.442
Mof_O 	O 	0.84947	0.0706	0.3026	-0.476
Mof_O 	O 	0.89019	0.09556	0.2739	-0.469
Mof_O 	O 	0.8718	0.0748	0.0795	-0.455
Mof_O 	O 	0.8621	0.1354	0.459	-0.48
Mof_O 	O 	0.8334	0.1351	0.6627	-0.449
Mof_O 	O 	0.8203	0.1104	0.473	-0.433
Mof_H 	H 	0.7907	0.0311	0.2679	-0.088
Mof_H 	H 	0.9512	0.1391	0.3268	-0.121
Mof_H 	H 	0.0094	0.222	0.7548	-0.055
Mof_H 	H 	0.8845	0.0486	0.2374	-0.016
Mof_H 	H 	0.8167	0.1497	0.447	-0.019
Mof_Zn	Zn	0.03128	0.31047	0.46292	1.231
Mof_Zn	Zn	0.11162	0.39036	0.45411	1.23
Mof_Zn	Zn	0.17968	0.40601	0.29841	1.232
Mof_P 	P 	0.22018	0.44956	0.3441	0.688
Mof_P 	P 	0.06285	0.35796	0.4124	0.546
Mof_P 	P 	0.00619	0.29934	0.7375	0.407
Mof_P 	P 	0.12575	0.42659	0.2267	0.451
Mof_P 	P 	0.16546	0.36624	0.5163	0.45
Mof_O 	O 	0.24923	0.4502	0.3274	-0.94
Mof_O 	O 	0.21158	0.45226	0.4895	-0.901
Mof_O 	O 	0.21061	0.42515	0.2881	-0.475
Mof_O 	O 	0.0477	0.34205	0.5093	-0.448
Mof_O 	O 	0.07751	0.34219	0.3173	-0.528
Mof_O 	O 	0.0787	0.3751	0.4961	-0.454
Mof_O 	O 	0.00537	0.3009	0.5857	-0.458
Mof_O 	O 	0.03221	0.30579	0.7968	-0.466
Mof_O 	O 	0.98449	0.31622	0.7915	-0.442
Mof_O 	O 	0.15053	0.4294	0.3026	-0.476
Mof_O 	O 	0.10981	0.40444	0.2739	-0.469
Mof_O 	O 	0.1282	0.4252	0.0795	-0.455
Mof_O 	O 	0.1379	0.3646	0.459	-0.48
Mof_O 	O 	0.1666	0.3649	0.6627	-0.449
Mof_O 	O 	0.1797	0.3896	0.473	-0.433
Mof_H 	H 	0.2093	0.4689	0.2679	-0.088
Mof_H 	H 	0.0488	0.3609	0.3268	-0.121
Mof_H 	H 	0.9906	0.278	0.7548	-0.055
Mof_H 	H 	0.1155	0.4514	0.2374	-0.016
Mof_H 	H 	0.1833	0.3503	0.447	-0.019
Mof_Zn	Zn	0.53128	0.81047	0.96292	1.225
Mof_Zn	Zn	0.61162	0.89036	0.95411	1.227
Mof_Zn	Zn	0.67968	0.90601	0.79841	1.23
Mof_P 	P 	0.72018	0.94956	0.8441	0.686
Mof_P 	P 	0.56285	0.85796	0.9124	0.533
Mof_P 	P 	0.50619	0.79934	0.2375	0.407
Mof_P 	P 	0.62575	0.92659	0.7267	0.45
Mof_P 	P 	0.66546	0.86624	0.0163	0.488
Mof_O 	O 	0.74923	0.9502	0.8274	-0.938
Mof_O 	O 	0.71158	0.95226	0.9895	-0.918
Mof_O 	O 	0.71061	0.92515	0.7881	-0.48
Mof_O 	O 	0.5477	0.84205	0.0093	-0.429
Mof_O 	O 	0.57751	0.84219	0.8173	-0.531
Mof_O 	O 	0.5787	0.8751	0.9961	-0.461
Mof_O 	O 	0.50537	0.8009	0.0857	-0.449
Mof_O 	O 	0.53221	0.80579	0.2968	-0.461
Mof_O 	O 	0.48449	0.81622	0.2915	-0.436
Mof_O 	O 	0.65053	0.9294	0.8026	-0.482
Mof_O 	O 	0.60981	0.90444	0.7739	-0.474
Mof_O 	O 	0.6282	0.9252	0.5795	-0.466
Mof_O 	O 	0.6379	0.8646	0.959	-0.498
Mof_O 	O 	0.6666	0.8649	0.1627	-0.448
Mof_O 	O 	0.6797	0.8896	0.973	-0.451
Mof_H 	H 	0.7093	0.9689	0.7679	-0.094
Mof_H 	H 	0.5488	0.8609	0.8268	-0.122
Mof_H 	H 	0.4906	0.778	0.2548	-0.052
Mof_H 	H 	0.6155	0.9514	0.7374	-0.021
Mof_H 	H 	0.6833	0.8503	0.947	-0.032
Mof_Zn	Zn	0.06047	0.71872	0.71292	1.23
Mof_Zn	Zn	0.14036	0.63838	0.70411	1.229
Mof_Zn	Zn	0.15601	0.57032	0.54841	1.231
Mof_P 	P 	0.19956	0.52982	0.5941	0.686
Mof_P 	P 	0.10796	0.68715	0.6624	0.547
Mof_P 	P 	0.04934	0.74381	0.9875	0.369
Mof_P 	P 	0.17659	0.62425	0.4767	0.451
Mof_P 	P 	0.11624	0.58454	0.7663	0.449
Mof_O 	O 	0.2002	0.50077	0.5774	-0.941
Mof_O 	O 	0.20226	0.53842	0.7395	-0.896
Mof_O 	O 	0.17515	0.53939	0.5381	-0.479
Mof_O 	O 	0.09205	0.7023	0.7593	-0.452
Mof_O 	O 	0.09219	0.67249	0.5673	-0.532
Mof_O 	O 	0.1251	0.6713	0.7461	-0.458
Mof_O 	O 	0.0509	0.74463	0.8357	-0.458
Mof_O 	O 	0.05579	0.71779	0.0468	-0.445
Mof_O 	O 	0.06622	0.76551	0.0415	-0.423
Mof_O 	O 	0.1794	0.59947	0.5526	-0.479
Mof_O 	O 	0.15444	0.64019	0.5239	-0.472
Mof_O 	O 	0.1752	0.6218	0.3295	-0.465
Mof_O 	O 	0.1146	0.6121	0.709	-0.484
Mof_O 	O 	0.1149	0.5834	0.9127	-0.459
Mof_O 	O 	0.1396	0.5703	0.723	-0.435
Mof_H 	H 	0.2189	0.5407	0.5179	-0.091
Mof_H 	H 	0.1109	0.7012	0.5768	-0.123
Mof_H 	H 	0.028	0.7594	0.0048	-0.039
Mof_H 	H 	0.2014	0.6345	0.4874	-0.019
Mof_H 	H 	0.1003	0.5667	0.697	-0.021
Mof_Zn	Zn	0.56047	0.21872	0.21292	1.231
Mof_Zn	Zn	0.64036	0.13838	0.20411	1.231
Mof_Zn	Zn	0.65601	0.07032	0.04841	1.234
Mof_P 	P 	0.69956	0.02982	0.0941	0.688
Mof_P 	P 	0.60796	0.18715	0.1624	0.546
Mof_P 	P 	0.54934	0.24381	0.4875	0.407
Mof_P 	P 	0.67659	0.12425	0.9767	0.421
Mof_P 	P 	0.61624	0.08454	0.2663	0.45
Mof_O 	O 	0.7002	0.00077	0.0774	-0.94
Mof_O 	O 	0.70226	0.03842	0.2395	-0.9
Mof_O 	O 	0.67515	0.03939	0.0381	-0.472
Mof_O 	O 	0.59205	0.2023	0.2593	-0.447
Mof_O 	O 	0.59219	0.17249	0.0673	-0.524
Mof_O 	O 	0.6251	0.1713	0.2461	-0.453
Mof_O 	O 	0.5509	0.24463	0.3357	-0.458
Mof_O 	O 	0.55579	0.21779	0.5468	-0.464
Mof_O 	O 	0.56622	0.26551	0.5415	-0.439
Mof_O 	O 	0.6794	0.09947	0.0526	-0.461
Mof_O 	O 	0.65444	0.14019	0.0239	-0.453
Mof_O 	O 	0.6752	0.1218	0.8295	-0.466
Mof_O 	O 	0.6146	0.1121	0.209	-0.478
Mof_O 	O 	0.6149	0.0834	0.4127	-0.448
Mof_O 	O 	0.6396	0.0703	0.223	-0.43
Mof_H 	H 	0.7189	0.0407	0.0179	-0.086
Mof_H 	H 	0.6109	0.2012	0.0768	-0.119
Mof_H 	H 	0.528	0.2594	0.5048	-0.054
Mof_H 	H 	0.7014	0.1345	0.9874	-0.023
Mof_H 	H 	0.6003	0.0667	0.197	-0.015
Mof_Zn	Zn	0.43953	0.28128	0.21292	1.231
Mof_Zn	Zn	0.35964	0.36162	0.20411	1.231
Mof_Zn	Zn	0.34399	0.42968	0.04841	1.234
Mof_P 	P 	0.30044	0.47018	0.0941	0.689
Mof_P 	P 	0.39204	0.31285	0.1624	0.546
Mof_P 	P 	0.45066	0.25619	0.4875	0.407
Mof_P 	P 	0.32341	0.37575	0.9767	0.421
Mof_P 	P 	0.38376	0.41546	0.2663	0.45
Mof_O 	O 	0.2998	0.49923	0.0774	-0.941
Mof_O 	O 	0.29774	0.46158	0.2395	-0.9
Mof_O 	O 	0.32485	0.46061	0.0381	-0.472
Mof_O 	O 	0.40795	0.2977	0.2593	-0.447
Mof_O 	O 	0.40781	0.32751	0.0673	-0.524
Mof_O 	O 	0.3749	0.3287	0.2461	-0.453
Mof_O 	O 	0.4491	0.25537	0.3357	-0.458
Mof_O 	O 	0.44421	0.28221	0.5468	-0.464
Mof_O 	O 	0.43378	0.23449	0.5415	-0.439
Mof_O 	O 	0.3206	0.40053	0.0526	-0.461
Mof_O 	O 	0.34556	0.35981	0.0239	-0.453
Mof_O 	O 	0.3248	0.3782	0.8295	-0.466
Mof_O 	O 	0.3854	0.3879	0.209	-0.478
Mof_O 	O 	0.3851	0.4166	0.4127	-0.448
Mof_O 	O 	0.3604	0.4297	0.223	-0.431
Mof_H 	H 	0.2811	0.4593	0.0179	-0.086
Mof_H 	H 	0.3891	0.2988	0.0768	-0.119
Mof_H 	H 	0.472	0.2406	0.5048	-0.054
Mof_H 	H 	0.2986	0.3655	0.9874	-0.023
Mof_H 	H 	0.3997	0.4333	0.197	-0.016
Mof_Zn	Zn	0.93953	0.78128	0.71292	1.23
Mof_Zn	Zn	0.85964	0.86162	0.70411	1.229
Mof_Zn	Zn	0.84399	0.92968	0.54841	1.231
Mof_P 	P 	0.80044	0.97018	0.5941	0.686
Mof_P 	P 	0.89204	0.81285	0.6624	0.547
Mof_P 	P 	0.95066	0.75619	0.9875	0.369
Mof_P 	P 	0.82341	0.87575	0.4767	0.451
Mof_P 	P 	0.88376	0.91546	0.7663	0.449
Mof_O 	O 	0.7998	0.99923	0.5774	-0.942
Mof_O 	O 	0.79774	0.96158	0.7395	-0.895
Mof_O 	O 	0.82485	0.96061	0.5381	-0.479
Mof_O 	O 	0.90795	0.7977	0.7593	-0.452
Mof_O 	O 	0.90781	0.82751	0.5673	-0.532
Mof_O 	O 	0.8749	0.8287	0.7461	-0.458
Mof_O 	O 	0.9491	0.75537	0.8357	-0.458
Mof_O 	O 	0.94421	0.78221	0.0468	-0.445
Mof_O 	O 	0.93378	0.73449	0.0415	-0.423
Mof_O 	O 	0.8206	0.90053	0.5526	-0.479
Mof_O 	O 	0.84556	0.85981	0.5239	-0.472
Mof_O 	O 	0.8248	0.8782	0.3295	-0.465
Mof_O 	O 	0.8854	0.8879	0.709	-0.484
Mof_O 	O 	0.8851	0.9166	0.9127	-0.459
Mof_O 	O 	0.8604	0.9297	0.723	-0.435
Mof_H 	H 	0.7811	0.9593	0.5179	-0.091
Mof_H 	H 	0.8891	0.7988	0.5768	-0.123
Mof_H 	H 	0.972	0.7406	0.0048	-0.039
Mof_H 	H 	0.7986	0.8655	0.4874	-0.019
Mof_H 	H 	0.8997	0.9333	0.697	-0.021
Mof_Zn	Zn	0.03128	0.68953	0.03708	1.237
Mof_Zn	Zn	0.11162	0.60964	0.04589	1.234
Mof_Zn	Zn	0.17968	0.59399	0.20159	1.231
Mof_P 	P 	0.22018	0.55044	0.1559	0.687
Mof_P 	P 	0.06285	0.64204	0.0876	0.561
Mof_P 	P 	0.00619	0.70066	0.7625	0.408
Mof_P 	P 	0.12575	0.57341	0.2733	0.452
Mof_P 	P 	0.16546	0.63376	0.9837	0.41
Mof_O 	O 	0.24923	0.5498	0.1726	-0.942
Mof_O 	O 	0.21158	0.54774	0.0105	-0.881
Mof_O 	O 	0.21061	0.57485	0.2119	-0.477
Mof_O 	O 	0.0477	0.65795	0.9907	-0.466
Mof_O 	O 	0.07751	0.65781	0.1827	-0.531
Mof_O 	O 	0.0787	0.6249	0.0039	-0.447
Mof_O 	O 	0.00537	0.6991	0.9143	-0.468
Mof_O 	O 	0.03221	0.69421	0.7032	-0.464
Mof_O 	O 	0.98449	0.68378	0.7085	-0.441
Mof_O 	O 	0.15053	0.5706	0.1974	-0.475
Mof_O 	O 	0.10981	0.59556	0.2261	-0.47
Mof_O 	O 	0.1282	0.5748	0.4205	-0.466
Mof_O 	O 	0.1379	0.6354	0.041	-0.464
Mof_O 	O 	0.1666	0.6351	0.8373	-0.447
Mof_O 	O 	0.1797	0.6104	0.027	-0.414
Mof_H 	H 	0.2093	0.5311	0.2321	-0.09
Mof_H 	H 	0.0488	0.6391	0.1732	-0.123
Mof_H 	H 	0.9906	0.722	0.7452	-0.055
Mof_H 	H 	0.1155	0.5486	0.2626	-0.016
Mof_H 	H 	0.1833	0.6497	0.053	-0.006
Mof_Zn	Zn	0.53128	0.18953	0.53708	1.231
Mof_Zn	Zn	0.61162	0.10964	0.54589	1.23
Mof_Zn	Zn	0.67968	0.09399	0.70159	1.23
Mof_P 	P 	0.72018	0.05044	0.6559	0.687
Mof_P 	P 	0.56285	0.14204	0.5876	0.547
Mof_P 	P 	0.50619	0.20066	0.2625	0.408
Mof_P 	P 	0.62575	0.07341	0.7733	0.451
Mof_P 	P 	0.66546	0.13376	0.4837	0.449
Mof_O 	O 	0.74923	0.0498	0.6726	-0.944
Mof_O 	O 	0.71158	0.04774	0.5105	-0.901
Mof_O 	O 	0.71061	0.07485	0.7119	-0.482
Mof_O 	O 	0.5477	0.15795	0.4907	-0.447
Mof_O 	O 	0.57751	0.15781	0.6827	-0.534
Mof_O 	O 	0.5787	0.1249	0.5039	-0.454
Mof_O 	O 	0.50537	0.1991	0.4143	-0.458
Mof_O 	O 	0.53221	0.19421	0.2032	-0.46
Mof_O 	O 	0.48449	0.18378	0.2085	-0.435
Mof_O 	O 	0.65053	0.0706	0.6974	-0.481
Mof_O 	O 	0.60981	0.09556	0.7261	-0.474
Mof_O 	O 	0.6282	0.0748	0.9205	-0.478
Mof_O 	O 	0.6379	0.1354	0.541	-0.482
Mof_O 	O 	0.6666	0.1351	0.3373	-0.446
Mof_O 	O 	0.6797	0.1104	0.527	-0.433
Mof_H 	H 	0.7093	0.0311	0.7321	-0.095
Mof_H 	H 	0.5488	0.1391	0.6732	-0.125
Mof_H 	H 	0.4906	0.222	0.2452	-0.052
Mof_H 	H 	0.6155	0.0486	0.7626	-0.021
Mof_H 	H 	0.6833	0.1497	0.553	-0.02
Mof_Zn	Zn	0.46872	0.31047	0.53708	1.231
Mof_Zn	Zn	0.38838	0.39036	0.54589	1.23
Mof_Zn	Zn	0.32032	0.40601	0.70159	1.23
Mof_P 	P 	0.27982	0.44956	0.6559	0.687
Mof_P 	P 	0.43715	0.35796	0.5876	0.547
Mof_P 	P 	0.49381	0.29934	0.2625	0.408
Mof_P 	P 	0.37425	0.42659	0.7733	0.451
Mof_P 	P 	0.33454	0.36624	0.4837	0.449
Mof_O 	O 	0.25077	0.4502	0.6726	-0.944
Mof_O 	O 	0.28842	0.45226	0.5105	-0.901
Mof_O 	O 	0.28939	0.42515	0.7119	-0.482
Mof_O 	O 	0.4523	0.34205	0.4907	-0.447
Mof_O 	O 	0.42249	0.34219	0.6827	-0.534
Mof_O 	O 	0.4213	0.3751	0.5039	-0.454
Mof_O 	O 	0.49463	0.3009	0.4143	-0.458
Mof_O 	O 	0.46779	0.30579	0.2032	-0.46
Mof_O 	O 	0.51551	0.31622	0.2085	-0.435
Mof_O 	O 	0.34947	0.4294	0.6974	-0.481
Mof_O 	O 	0.39019	0.40444	0.7261	-0.474
Mof_O 	O 	0.3718	0.4252	0.9205	-0.478
Mof_O 	O 	0.3621	0.3646	0.541	-0.482
Mof_O 	O 	0.3334	0.3649	0.3373	-0.446
Mof_O 	O 	0.3203	0.3896	0.527	-0.433
Mof_H 	H 	0.2907	0.4689	0.7321	-0.095
Mof_H 	H 	0.4512	0.3609	0.6732	-0.125
Mof_H 	H 	0.5094	0.278	0.2452	-0.052
Mof_H 	H 	0.3845	0.4514	0.7626	-0.022
Mof_H 	H 	0.3167	0.3503	0.553	-0.02
Mof_Zn	Zn	0.96872	0.81047	0.03708	1.237
Mof_Zn	Zn	0.88838	0.89036	0.04589	1.234
Mof_Zn	Zn	0.82032	0.90601	0.20159	1.231
Mof_P 	P 	0.77982	0.94956	0.1559	0.687
Mof_P 	P 	0.93715	0.85796	0.0876	0.561
Mof_P 	P 	0.99381	0.79934	0.7625	0.408
Mof_P 	P 	0.87425	0.92659	0.2733	0.452
Mof_P 	P 	0.83454	0.86624	0.9837	0.41
Mof_O 	O 	0.75077	0.9502	0.1726	-0.942
Mof_O 	O 	0.78842	0.95226	0.0105	-0.88
Mof_O 	O 	0.78939	0.92515	0.2119	-0.477
Mof_O 	O 	0.9523	0.84205	0.9907	-0.466
Mof_O 	O 	0.92249	0.84219	0.1827	-0.531
Mof_O 	O 	0.9213	0.8751	0.0039	-0.447
Mof_O 	O 	0.99463	0.8009	0.9143	-0.468
Mof_O 	O 	0.96779	0.80579	0.7032	-0.464
Mof_O 	O 	0.01551	0.81622	0.7085	-0.441
Mof_O 	O 	0.84947	0.9294	0.1974	-0.475
Mof_O 	O 	0.89019	0.90444	0.2261	-0.47
Mof_O 	O 	0.8718	0.9252	0.4205	-0.466
Mof_O 	O 	0.8621	0.8646	0.041	-0.464
Mof_O 	O 	0.8334	0.8649	0.8373	-0.447
Mof_O 	O 	0.8203	0.8896	0.027	-0.414
Mof_H 	H 	0.7907	0.9689	0.2321	-0.09
Mof_H 	H 	0.9512	0.8609	0.1732	-0.123
Mof_H 	H 	0.0094	0.778	0.7452	-0.055
Mof_H 	H 	0.8845	0.9514	0.2626	-0.016
Mof_H 	H 	0.8167	0.8503	0.053	-0.006
Mof_Zn	Zn	0.43953	0.71872	0.28708	1.231
Mof_Zn	Zn	0.35964	0.63838	0.29589	1.231
Mof_Zn	Zn	0.34399	0.57032	0.45159	1.231
Mof_P 	P 	0.30044	0.52982	0.4059	0.688
Mof_P 	P 	0.39204	0.68715	0.3376	0.547
Mof_P 	P 	0.45066	0.74381	0.0125	0.443
Mof_P 	P 	0.32341	0.62425	0.5233	0.451
Mof_P 	P 	0.38376	0.58454	0.2337	0.45
Mof_O 	O 	0.2998	0.50077	0.4226	-0.943
Mof_O 	O 	0.29774	0.53842	0.2605	-0.902
Mof_O 	O 	0.32485	0.53939	0.4619	-0.478
Mof_O 	O 	0.40795	0.7023	0.2407	-0.443
Mof_O 	O 	0.40781	0.67249	0.4327	-0.531
Mof_O 	O 	0.3749	0.6713	0.2539	-0.45
Mof_O 	O 	0.4491	0.74463	0.1643	-0.459
Mof_O 	O 	0.44421	0.71779	0.9532	-0.48
Mof_O 	O 	0.43378	0.76551	0.9585	-0.454
Mof_O 	O 	0.3206	0.59947	0.4474	-0.477
Mof_O 	O 	0.34556	0.64019	0.4761	-0.471
Mof_O 	O 	0.3248	0.6218	0.6705	-0.467
Mof_O 	O 	0.3854	0.6121	0.291	-0.478
Mof_O 	O 	0.3851	0.5834	0.0873	-0.437
Mof_O 	O 	0.3604	0.5703	0.277	-0.43
Mof_H 	H 	0.2811	0.5407	0.4821	-0.092
Mof_H 	H 	0.3891	0.7012	0.4232	-0.122
Mof_H 	H 	0.472	0.7594	0.9952	-0.068
Mof_H 	H 	0.2986	0.6345	0.5126	-0.019
Mof_H 	H 	0.3997	0.5667	0.303	-0.018
Mof_Zn	Zn	0.93953	0.21872	0.78708	1.231
Mof_Zn	Zn	0.85964	0.13838	0.79589	1.23
Mof_Zn	Zn	0.84399	0.07032	0.95159	1.227
Mof_P 	P 	0.80044	0.02982	0.9059	0.685
Mof_P 	P 	0.89204	0.18715	0.8376	0.548
Mof_P 	P 	0.95066	0.24381	0.5125	0.407
Mof_P 	P 	0.82341	0.12425	0.0233	0.48
Mof_P 	P 	0.88376	0.08454	0.7337	0.449
Mof_O 	O 	0.7998	0.00077	0.9226	-0.939
Mof_O 	O 	0.79774	0.03842	0.7605	-0.901
Mof_O 	O 	0.82485	0.03939	0.9619	-0.485
Mof_O 	O 	0.90795	0.2023	0.7407	-0.448
Mof_O 	O 	0.90781	0.17249	0.9327	-0.538
Mof_O 	O 	0.8749	0.1713	0.7539	-0.456
Mof_O 	O 	0.9491	0.24463	0.6643	-0.459
Mof_O 	O 	0.94421	0.21779	0.4532	-0.462
Mof_O 	O 	0.93378	0.26551	0.4585	-0.438
Mof_O 	O 	0.8206	0.09947	0.9474	-0.495
Mof_O 	O 	0.84556	0.14019	0.9761	-0.489
Mof_O 	O 	0.8248	0.1218	0.1705	-0.466
Mof_O 	O 	0.8854	0.1121	0.791	-0.484
Mof_O 	O 	0.8851	0.0834	0.5873	-0.448
Mof_O 	O 	0.8604	0.0703	0.777	-0.435
Mof_H 	H 	0.7811	0.0407	0.9821	-0.098
Mof_H 	H 	0.8891	0.2012	0.9232	-0.126
Mof_H 	H 	0.972	0.2594	0.4952	-0.054
Mof_H 	H 	0.7986	0.1345	0.0126	-0.015
Mof_H 	H 	0.8997	0.0667	0.803	-0.023
Mof_Zn	Zn	0.06047	0.28128	0.78708	1.231
Mof_Zn	Zn	0.14036	0.36162	0.79589	1.23
Mof_Zn	Zn	0.15601	0.42968	0.95159	1.227
Mof_P 	P 	0.19956	0.47018	0.9059	0.685
Mof_P 	P 	0.10796	0.31285	0.8376	0.548
Mof_P 	P 	0.04934	0.25619	0.5125	0.407
Mof_P 	P 	0.17659	0.37575	0.0233	0.48
Mof_P 	P 	0.11624	0.41546	0.7337	0.449
Mof_O 	O 	0.2002	0.49923	0.9226	-0.94
Mof_O 	O 	0.20226	0.46158	0.7605	-0.901
Mof_O 	O 	0.17515	0.46061	0.9619	-0.485
Mof_O 	O 	0.09205	0.2977	0.7407	-0.448
Mof_O 	O 	0.09219	0.32751	0.9327	-0.538
Mof_O 	O 	0.1251	0.3287	0.7539	-0.456
Mof_O 	O 	0.0509	0.25537	0.6643	-0.459
Mof_O 	O 	0.05579	0.28221	0.4532	-0.462
Mof_O 	O 	0.06622	0.23449	0.4585	-0.438
Mof_O 	O 	0.1794	0.40053	0.9474	-0.495
Mof_O 	O 	0.15444	0.35981	0.9761	-0.489
Mof_O 	O 	0.1752	0.3782	0.1705	-0.466
Mof_O 	O 	0.1146	0.3879	0.791	-0.484
Mof_O 	O 	0.1149	0.4166	0.5873	-0.448
Mof_O 	O 	0.1396	0.4297	0.777	-0.435
Mof_H 	H 	0.2189	0.4593	0.9821	-0.098
Mof_H 	H 	0.1109	0.2988	0.9232	-0.126
Mof_H 	H 	0.028	0.2406	0.4952	-0.054
Mof_H 	H 	0.2014	0.3655	0.0126	-0.015
Mof_H 	H 	0.1003	0.4333	0.803	-0.023
Mof_Zn	Zn	0.56047	0.78128	0.28708	1.231
Mof_Zn	Zn	0.64036	0.86162	0.29589	1.231
Mof_Zn	Zn	0.65601	0.92968	0.45159	1.231
Mof_P 	P 	0.69956	0.97018	0.4059	0.688
Mof_P 	P 	0.60796	0.81285	0.3376	0.547
Mof_P 	P 	0.54934	0.75619	0.0125	0.443
Mof_P 	P 	0.67659	0.87575	0.5233	0.451
Mof_P 	P 	0.61624	0.91546	0.2337	0.45
Mof_O 	O 	0.7002	0.99923	0.4226	-0.943
Mof_O 	O 	0.70226	0.96158	0.2605	-0.902
Mof_O 	O 	0.67515	0.96061	0.4619	-0.479
Mof_O 	O 	0.59205	0.7977	0.2407	-0.443
Mof_O 	O 	0.59219	0.82751	0.4327	-0.531
Mof_O 	O 	0.6251	0.8287	0.2539	-0.45
Mof_O 	O 	0.5509	0.75537	0.1643	-0.459
Mof_O 	O 	0.55579	0.78221	0.9532	-0.48
Mof_O 	O 	0.56622	0.73449	0.9585	-0.454
Mof_O 	O 	0.6794	0.90053	0.4474	-0.477
Mof_O 	O 	0.65444	0.85981	0.4761	-0.471
Mof_O 	O 	0.6752	0.8782	0.6705	-0.467
Mof_O 	O 	0.6146	0.8879	0.291	-0.478
Mof_O 	O 	0.6149	0.9166	0.0873	-0.437
Mof_O 	O 	0.6396	0.9297	0.277	-0.43
Mof_H 	H 	0.7189	0.9593	0.4821	-0.092
Mof_H 	H 	0.6109	0.7988	0.4232	-0.122
Mof_H 	H 	0.528	0.7406	0.9952	-0.068
Mof_H 	H 	0.7014	0.8655	0.5126	-0.019
Mof_H 	H 	0.6003	0.9333	0.303	-0.018
Mof_Ga	Ga	0.77425	0.47575	0.125	4.214
Mof_Ga	Ga	0.27425	0.97575	0.625	4.179
Mof_Ga	Ga	0.72575	0.52425	0.625	4.181
Mof_Ga	Ga	0.22575	0.02425	0.125	4.216
Mof_Ga	Ga	0.77425	0.52425	0.375	4.183
Mof_Ga	Ga	0.27425	0.02425	0.875	4.128
Mof_Ga	Ga	0.72575	0.47575	0.875	4.126
Mof_Ga	Ga	0.22575	0.97575	0.375	4.181
Mof_Ga	Ga	0.22575	0.52425	0.875	4.126
Mof_Ga	Ga	0.72575	0.02425	0.375	4.185
Mof_Ga	Ga	0.27425	0.47575	0.375	4.183
Mof_Ga	Ga	0.77425	0.97575	0.875	4.124
Mof_Ga	Ga	0.22575	0.47575	0.625	4.181
Mof_Ga	Ga	0.72575	0.97575	0.125	4.212
Mof_Ga	Ga	0.27425	0.52425	0.125	4.214
Mof_Ga	Ga	0.77425	0.02425	0.625	4.183
Mof_Zn	Zn	0.58518	0.33518	0.375	1.153
Mof_Zn	Zn	0.08518	0.83518	0.875	1.148
Mof_Zn	Zn	0.91482	0.66482	0.875	1.148
Mof_Zn	Zn	0.41482	0.16482	0.375	1.153
Mof_Zn	Zn	0.91482	0.33518	0.625	1.153
Mof_Zn	Zn	0.41482	0.83518	0.125	1.158
Mof_Zn	Zn	0.58518	0.66482	0.125	1.158
Mof_Zn	Zn	0.08518	0.16482	0.625	1.153
Mof_Zn	Zn	0.41482	0.66482	0.625	1.153
Mof_Zn	Zn	0.91482	0.16482	0.125	1.158
Mof_Zn	Zn	0.08518	0.33518	0.125	1.158
Mof_Zn	Zn	0.58518	0.83518	0.625	1.153
Mof_Zn	Zn	0.08518	0.66482	0.375	1.153
Mof_Zn	Zn	0.58518	0.16482	0.875	1.148
Mof_Zn	Zn	0.41482	0.33518	0.875	1.148
Mof_Zn	Zn	0.91482	0.83518	0.375	1.153
Mof_F 	F 	0.75	0.49068	-0	-1.395
Mof_F 	F 	0.25	0.99068	0.5	-1.409
Mof_F 	F 	0.75	0.50932	0.5	-1.409
Mof_F 	F 	0.25	0.00932	-0	-1.395
Mof_F 	F 	0.75932	0.5	0.25	-1.412
Mof_F 	F 	0.25932	0	0.75	-1.404
Mof_F 	F 	0.74068	0.5	0.75	-1.405
Mof_F 	F 	0.24068	0	0.25	-1.412
Mof_F 	F 	0.25	0.50932	-0	-1.395
Mof_F 	F 	0.75	0.00932	0.5	-1.409
Mof_F 	F 	0.25	0.49068	0.5	-1.409
Mof_F 	F 	0.75	0.99068	-0	-1.395
Mof_F 	F 	0.24068	0.5	0.75	-1.405
Mof_F 	F 	0.74068	0	0.25	-1.412
Mof_F 	F 	0.25932	0.5	0.25	-1.412
Mof_F 	F 	0.75932	0	0.75	-1.404
_end
