# CIF file generated by openbabel 3.1.0, see https://openbabel.org
data_I
_chemical_name_common 'image0'
_cell_length_a 23.5862
_cell_length_b 15.7079
_cell_length_c 16.0933
_cell_angle_alpha 90
_cell_angle_beta 124.16
_cell_angle_gamma 90
_space_group_name_H-M_alt 'P 1'
_space_group_name_Hall 'P 1'
loop_
    _symmetry_equiv_pos_as_xyz
    x,y,z
loop_
    _atom_site_label
    _atom_site_type_symbol
    _atom_site_fract_x
    _atom_site_fract_y
    _atom_site_fract_z
    _atom_site_occupancy
    Tb1      Tb       0.68945    0.82761    0.87687    1.000
    C1       C        0.36830    0.46120    0.17370    1.000
    C2       C        0.35680    0.54340    0.13660    1.000
    H1       H        0.32030    0.55460    0.06900    1.000
    C3       C        0.39830    0.60970    0.19790    1.000
    C4       C        0.45270    0.59380    0.29690    1.000
    C5       C        0.46540    0.51090    0.33210    1.000
    H2       H        0.50320    0.49920    0.39860    1.000
    C6       C        0.42380    0.44510    0.27180    1.000
    H3       H        0.43300    0.38860    0.29710    1.000
    C7       C        0.48050    0.69120    0.42520    1.000
    C8       C        0.41490    0.68970    0.40360    1.000
    H4       H        0.37850    0.66480    0.34300    1.000
    C9       C        0.40270    0.72470    0.47110    1.000
    C10      C        0.45610    0.75890    0.56140    1.000
    H5       H        0.44790    0.78070    0.60880    1.000
    C11      C        0.52180    0.76090    0.58150    1.000
    C12      C        0.53410    0.72750    0.51280    1.000
    H6       H        0.57870    0.72950    0.52610    1.000
    C13      C        0.32040    0.38970    0.10970    1.000
    C14      C        0.33020    0.72470    0.44340    1.000
    C15      C        0.58070    0.79610    0.67960    1.000
    N1       N        0.38260    0.69470    0.15450    1.000
    O1       O        0.32793    0.32110    0.15450    1.000
    O2       O        0.27744    0.40530    0.01830    1.000
    O3       O        0.34750    0.70130    0.06320    1.000
    O4       O        0.40470    0.75620    0.21100    1.000
    O5       O        0.28568    0.68560    0.36590    1.000
    O6       O        0.31630    0.76380    0.49820    1.000
    O7       O        0.56967    0.82020    0.74450    1.000
    O8       O        0.63896    0.79920    0.69560    1.000
    O9       O        0.49657    0.65740    0.36090    1.000
    Tb2      Tb       0.18945    0.32761    0.87687    1.000
    C16      C        0.86830    0.96120    0.17370    1.000
    C17      C        0.85680    0.04340    0.13660    1.000
    H7       H        0.82030    0.05460    0.06900    1.000
    C18      C        0.89830    0.10970    0.19790    1.000
    C19      C        0.95270    0.09380    0.29690    1.000
    C20      C        0.96540    0.01090    0.33210    1.000
    H8       H        0.00320    0.99920    0.39860    1.000
    C21      C        0.92380    0.94510    0.27180    1.000
    H9       H        0.93300    0.88860    0.29710    1.000
    C22      C        0.98050    0.19120    0.42520    1.000
    C23      C        0.91490    0.18970    0.40360    1.000
    H10      H        0.87850    0.16480    0.34300    1.000
    C24      C        0.90270    0.22470    0.47110    1.000
    C25      C        0.95610    0.25890    0.56140    1.000
    H11      H        0.94790    0.28070    0.60880    1.000
    C26      C        0.02180    0.26090    0.58150    1.000
    C27      C        0.03410    0.22750    0.51280    1.000
    H12      H        0.07870    0.22950    0.52610    1.000
    C28      C        0.82040    0.88970    0.10970    1.000
    C29      C        0.83020    0.22470    0.44340    1.000
    C30      C        0.08070    0.29610    0.67960    1.000
    N2       N        0.88260    0.19470    0.15450    1.000
    O10      O        0.82793    0.82110    0.15450    1.000
    O11      O        0.77744    0.90530    0.01830    1.000
    O12      O        0.84750    0.20130    0.06320    1.000
    O13      O        0.90470    0.25620    0.21100    1.000
    O14      O        0.78568    0.18560    0.36590    1.000
    O15      O        0.81630    0.26380    0.49820    1.000
    O16      O        0.06967    0.32020    0.74450    1.000
    O17      O        0.13896    0.29920    0.69560    1.000
    O18      O        0.99657    0.15740    0.36090    1.000
    Tb3      Tb       0.31055    0.82761    0.62313    1.000
    C31      C        0.63170    0.46120    0.32630    1.000
    C32      C        0.64320    0.54340    0.36340    1.000
    H13      H        0.67970    0.55460    0.43100    1.000
    C33      C        0.60170    0.60970    0.30210    1.000
    C34      C        0.54730    0.59380    0.20310    1.000
    C35      C        0.53460    0.51090    0.16790    1.000
    H14      H        0.49680    0.49920    0.10140    1.000
    C36      C        0.57620    0.44510    0.22820    1.000
    H15      H        0.56700    0.38860    0.20290    1.000
    C37      C        0.51950    0.69120    0.07480    1.000
    C38      C        0.58510    0.68970    0.09640    1.000
    H16      H        0.62150    0.66480    0.15700    1.000
    C39      C        0.59730    0.72470    0.02890    1.000
    C40      C        0.54390    0.75890    0.93860    1.000
    H17      H        0.55210    0.78070    0.89120    1.000
    C41      C        0.47820    0.76090    0.91850    1.000
    C42      C        0.46590    0.72750    0.98720    1.000
    H18      H        0.42130    0.72950    0.97390    1.000
    C43      C        0.67960    0.38970    0.39030    1.000
    C44      C        0.66980    0.72470    0.05660    1.000
    C45      C        0.41930    0.79610    0.82040    1.000
    N3       N        0.61740    0.69470    0.34550    1.000
    O19      O        0.67207    0.32110    0.34550    1.000
    O20      O        0.72256    0.40530    0.48170    1.000
    O21      O        0.65250    0.70130    0.43680    1.000
    O22      O        0.59530    0.75620    0.28900    1.000
    O23      O        0.71432    0.68560    0.13410    1.000
    O24      O        0.68370    0.76380    0.00180    1.000
    O25      O        0.43033    0.82020    0.75550    1.000
    O26      O        0.36104    0.79920    0.80440    1.000
    O27      O        0.50343    0.65740    0.13910    1.000
    Tb4      Tb       0.81055    0.32761    0.62313    1.000
    C46      C        0.13170    0.96120    0.32630    1.000
    C47      C        0.14320    0.04340    0.36340    1.000
    H19      H        0.17970    0.05460    0.43100    1.000
    C48      C        0.10170    0.10970    0.30210    1.000
    C49      C        0.04730    0.09380    0.20310    1.000
    C50      C        0.03460    0.01090    0.16790    1.000
    H20      H        0.99680    0.99920    0.10140    1.000
    C51      C        0.07620    0.94510    0.22820    1.000
    H21      H        0.06700    0.88860    0.20290    1.000
    C52      C        0.01950    0.19120    0.07480    1.000
    C53      C        0.08510    0.18970    0.09640    1.000
    H22      H        0.12150    0.16480    0.15700    1.000
    C54      C        0.09730    0.22470    0.02890    1.000
    C55      C        0.04390    0.25890    0.93860    1.000
    H23      H        0.05210    0.28070    0.89120    1.000
    C56      C        0.97820    0.26090    0.91850    1.000
    C57      C        0.96590    0.22750    0.98720    1.000
    H24      H        0.92130    0.22950    0.97390    1.000
    C58      C        0.17960    0.88970    0.39030    1.000
    C59      C        0.16980    0.22470    0.05660    1.000
    C60      C        0.91930    0.29610    0.82040    1.000
    N4       N        0.11740    0.19470    0.34550    1.000
    O28      O        0.17207    0.82110    0.34550    1.000
    O29      O        0.22256    0.90530    0.48170    1.000
    O30      O        0.15250    0.20130    0.43680    1.000
    O31      O        0.09530    0.25620    0.28900    1.000
    O32      O        0.21432    0.18560    0.13410    1.000
    O33      O        0.18370    0.26380    0.00180    1.000
    O34      O        0.93033    0.32020    0.75550    1.000
    O35      O        0.86104    0.29920    0.80440    1.000
    O36      O        0.00343    0.15740    0.13910    1.000
    Tb5      Tb       0.31055    0.17239    0.12313    1.000
    C61      C        0.63170    0.53880    0.82630    1.000
    C62      C        0.64320    0.45660    0.86340    1.000
    H25      H        0.67970    0.44540    0.93100    1.000
    C63      C        0.60170    0.39030    0.80210    1.000
    C64      C        0.54730    0.40620    0.70310    1.000
    C65      C        0.53460    0.48910    0.66790    1.000
    H26      H        0.49680    0.50080    0.60140    1.000
    C66      C        0.57620    0.55490    0.72820    1.000
    H27      H        0.56700    0.61140    0.70290    1.000
    C67      C        0.51950    0.30880    0.57480    1.000
    C68      C        0.58510    0.31030    0.59640    1.000
    H28      H        0.62150    0.33520    0.65700    1.000
    C69      C        0.59730    0.27530    0.52890    1.000
    C70      C        0.54390    0.24110    0.43860    1.000
    H29      H        0.55210    0.21930    0.39120    1.000
    C71      C        0.47820    0.23910    0.41850    1.000
    C72      C        0.46590    0.27250    0.48720    1.000
    H30      H        0.42130    0.27050    0.47390    1.000
    C73      C        0.67960    0.61030    0.89030    1.000
    C74      C        0.66980    0.27530    0.55660    1.000
    C75      C        0.41930    0.20390    0.32040    1.000
    N5       N        0.61740    0.30530    0.84550    1.000
    O37      O        0.67207    0.67890    0.84550    1.000
    O38      O        0.72256    0.59470    0.98170    1.000
    O39      O        0.65250    0.29870    0.93680    1.000
    O40      O        0.59530    0.24380    0.78900    1.000
    O41      O        0.71432    0.31440    0.63410    1.000
    O42      O        0.68370    0.23620    0.50180    1.000
    O43      O        0.43033    0.17980    0.25550    1.000
    O44      O        0.36104    0.20080    0.30440    1.000
    O45      O        0.50343    0.34260    0.63910    1.000
    Tb6      Tb       0.81055    0.67239    0.12313    1.000
    C76      C        0.13170    0.03880    0.82630    1.000
    C77      C        0.14320    0.95660    0.86340    1.000
    H31      H        0.17970    0.94540    0.93100    1.000
    C78      C        0.10170    0.89030    0.80210    1.000
    C79      C        0.04730    0.90620    0.70310    1.000
    C80      C        0.03460    0.98910    0.66790    1.000
    H32      H        0.99680    0.00080    0.60140    1.000
    C81      C        0.07620    0.05490    0.72820    1.000
    H33      H        0.06700    0.11140    0.70290    1.000
    C82      C        0.01950    0.80880    0.57480    1.000
    C83      C        0.08510    0.81030    0.59640    1.000
    H34      H        0.12150    0.83520    0.65700    1.000
    C84      C        0.09730    0.77530    0.52890    1.000
    C85      C        0.04390    0.74110    0.43860    1.000
    H35      H        0.05210    0.71930    0.39120    1.000
    C86      C        0.97820    0.73910    0.41850    1.000
    C87      C        0.96590    0.77250    0.48720    1.000
    H36      H        0.92130    0.77050    0.47390    1.000
    C88      C        0.17960    0.11030    0.89030    1.000
    C89      C        0.16980    0.77530    0.55660    1.000
    C90      C        0.91930    0.70390    0.32040    1.000
    N6       N        0.11740    0.80530    0.84550    1.000
    O46      O        0.17207    0.17890    0.84550    1.000
    O47      O        0.22256    0.09470    0.98170    1.000
    O48      O        0.15250    0.79870    0.93680    1.000
    O49      O        0.09530    0.74380    0.78900    1.000
    O50      O        0.21432    0.81440    0.63410    1.000
    O51      O        0.18370    0.73620    0.50180    1.000
    O52      O        0.93033    0.67980    0.25550    1.000
    O53      O        0.86104    0.70080    0.30440    1.000
    O54      O        0.00343    0.84260    0.63910    1.000
    Tb7      Tb       0.68945    0.17239    0.37687    1.000
    C91      C        0.36830    0.53880    0.67370    1.000
    C92      C        0.35680    0.45660    0.63660    1.000
    H37      H        0.32030    0.44540    0.56900    1.000
    C93      C        0.39830    0.39030    0.69790    1.000
    C94      C        0.45270    0.40620    0.79690    1.000
    C95      C        0.46540    0.48910    0.83210    1.000
    H38      H        0.50320    0.50080    0.89860    1.000
    C96      C        0.42380    0.55490    0.77180    1.000
    H39      H        0.43300    0.61140    0.79710    1.000
    C97      C        0.48050    0.30880    0.92520    1.000
    C98      C        0.41490    0.31030    0.90360    1.000
    H40      H        0.37850    0.33520    0.84300    1.000
    C99      C        0.40270    0.27530    0.97110    1.000
    C100     C        0.45610    0.24110    0.06140    1.000
    H41      H        0.44790    0.21930    0.10880    1.000
    C101     C        0.52180    0.23910    0.08150    1.000
    C102     C        0.53410    0.27250    0.01280    1.000
    H42      H        0.57870    0.27050    0.02610    1.000
    C103     C        0.32040    0.61030    0.60970    1.000
    C104     C        0.33020    0.27530    0.94340    1.000
    C105     C        0.58070    0.20390    0.17960    1.000
    N7       N        0.38260    0.30530    0.65450    1.000
    O55      O        0.32793    0.67890    0.65450    1.000
    O56      O        0.27744    0.59470    0.51830    1.000
    O57      O        0.34750    0.29870    0.56320    1.000
    O58      O        0.40470    0.24380    0.71100    1.000
    O59      O        0.28568    0.31440    0.86590    1.000
    O60      O        0.31630    0.23620    0.99820    1.000
    O61      O        0.56967    0.17980    0.24450    1.000
    O62      O        0.63896    0.20080    0.19560    1.000
    O63      O        0.49657    0.34260    0.86090    1.000
    Tb8      Tb       0.18945    0.67239    0.37687    1.000
    C106     C        0.86830    0.03880    0.67370    1.000
    C107     C        0.85680    0.95660    0.63660    1.000
    H43      H        0.82030    0.94540    0.56900    1.000
    C108     C        0.89830    0.89030    0.69790    1.000
    C109     C        0.95270    0.90620    0.79690    1.000
    C110     C        0.96540    0.98910    0.83210    1.000
    H44      H        0.00320    0.00080    0.89860    1.000
    C111     C        0.92380    0.05490    0.77180    1.000
    H45      H        0.93300    0.11140    0.79710    1.000
    C112     C        0.98050    0.80880    0.92520    1.000
    C113     C        0.91490    0.81030    0.90360    1.000
    H46      H        0.87850    0.83520    0.84300    1.000
    C114     C        0.90270    0.77530    0.97110    1.000
    C115     C        0.95610    0.74110    0.06140    1.000
    H47      H        0.94790    0.71930    0.10880    1.000
    C116     C        0.02180    0.73910    0.08150    1.000
    C117     C        0.03410    0.77250    0.01280    1.000
    H48      H        0.07870    0.77050    0.02610    1.000
    C118     C        0.82040    0.11030    0.60970    1.000
    C119     C        0.83020    0.77530    0.94340    1.000
    C120     C        0.08070    0.70390    0.17960    1.000
    N8       N        0.88260    0.80530    0.65450    1.000
    O64      O        0.82793    0.17890    0.65450    1.000
    O65      O        0.77744    0.09470    0.51830    1.000
    O66      O        0.84750    0.79870    0.56320    1.000
    O67      O        0.90470    0.74380    0.71100    1.000
    O68      O        0.78568    0.81440    0.86590    1.000
    O69      O        0.81630    0.73620    0.99820    1.000
    O70      O        0.06967    0.67980    0.24450    1.000
    O71      O        0.13896    0.70080    0.19560    1.000
    O72      O        0.99657    0.84260    0.86090    1.000
