# CIF file generated by openbabel 3.1.0, see https://openbabel.org
data_I
_chemical_name_common 'image0'
_cell_length_a 24.502
_cell_length_b 24.502
_cell_length_c 18.45
_cell_angle_alpha 90
_cell_angle_beta 90
_cell_angle_gamma 120
_space_group_name_H-M_alt 'P 1'
_space_group_name_Hall 'P 1'
loop_
    _symmetry_equiv_pos_as_xyz
    x,y,z
loop_
    _atom_site_label
    _atom_site_type_symbol
    _atom_site_fract_x
    _atom_site_fract_y
    _atom_site_fract_z
    _atom_site_occupancy
    Co1      Co       0.62950    0.70736    0.49767    1.000
    S1       S        0.58194    0.76658    0.82387    1.000
    S2       S        0.57659    0.84894    0.69967    1.000
    O1       O        0.58251    0.74101    0.56072    1.000
    O2       O        0.62565    0.75634    0.67224    1.000
    N1       N        0.59028    0.87425    0.83966    1.000
    C1       C        0.58754    0.75559    0.62720    1.000
    N2       N        0.59709    0.85570    0.90786    1.000
    C2       C        0.58238    0.83270    0.78980    1.000
    C3       C        0.59250    0.80020    0.90800    1.000
    H1       H        0.59480    0.78060    0.95020    1.000
    C4       C        0.54000    0.77330    0.65500    1.000
    H2       H        0.51160    0.74120    0.68870    1.000
    H3       H        0.51510    0.77400    0.61450    1.000
    N3       N        0.67920    0.59120    0.56310    1.000
    N4       N        0.68830    0.63880    0.43420    1.000
    N5       N        0.71850    0.61600    0.44850    1.000
    Co2      Co       0.29617    0.04069    0.83100    1.000
    S3       S        0.24861    0.09991    0.15720    1.000
    S4       S        0.24326    0.18227    0.03300    1.000
    O3       O        0.24918    0.07434    0.89405    1.000
    O4       O        0.29232    0.08967    0.00557    1.000
    N6       N        0.25695    0.20758    0.17299    1.000
    C5       C        0.25421    0.08892    0.96053    1.000
    N7       N        0.26376    0.18903    0.24119    1.000
    C6       C        0.24905    0.16603    0.12313    1.000
    C7       C        0.25917    0.13353    0.24133    1.000
    H4       H        0.26147    0.11393    0.28353    1.000
    C8       C        0.20667    0.10663    0.98833    1.000
    H5       H        0.17827    0.07453    0.02203    1.000
    H6       H        0.18177    0.10733    0.94783    1.000
    N8       N        0.34587    0.92453    0.89643    1.000
    N9       N        0.35497    0.97213    0.76753    1.000
    N10      N        0.38517    0.94933    0.78183    1.000
    Co3      Co       0.96283    0.37403    0.16434    1.000
    S5       S        0.91527    0.43325    0.49054    1.000
    S6       S        0.90992    0.51561    0.36634    1.000
    O5       O        0.91584    0.40768    0.22739    1.000
    O6       O        0.95898    0.42301    0.33891    1.000
    N11      N        0.92361    0.54092    0.50633    1.000
    C9       C        0.92087    0.42226    0.29387    1.000
    N12      N        0.93042    0.52237    0.57453    1.000
    C10      C        0.91571    0.49937    0.45647    1.000
    C11      C        0.92583    0.46687    0.57467    1.000
    H7       H        0.92813    0.44727    0.61687    1.000
    C12      C        0.87333    0.43997    0.32167    1.000
    H8       H        0.84493    0.40787    0.35537    1.000
    H9       H        0.84843    0.44067    0.28117    1.000
    N13      N        0.01253    0.25787    0.22977    1.000
    N14      N        0.02163    0.30547    0.10087    1.000
    N15      N        0.05183    0.28267    0.11517    1.000
    Co4      Co       0.29264    0.92214    0.49767    1.000
    S7       S        0.23342    0.81536    0.82387    1.000
    S8       S        0.15106    0.72765    0.69967    1.000
    O7       O        0.25899    0.84150    0.56072    1.000
    O8       O        0.24366    0.86931    0.67224    1.000
    N16      N        0.12575    0.71603    0.83966    1.000
    C13      C        0.24441    0.83195    0.62720    1.000
    N17      N        0.14430    0.74139    0.90786    1.000
    C14      C        0.16730    0.74968    0.78980    1.000
    C15      C        0.19980    0.79230    0.90800    1.000
    H10      H        0.21940    0.81420    0.95020    1.000
    C16      C        0.22670    0.76670    0.65500    1.000
    H11      H        0.25880    0.77040    0.68870    1.000
    H12      H        0.22600    0.74110    0.61450    1.000
    N18      N        0.40880    0.08800    0.56310    1.000
    N19      N        0.36120    0.04950    0.43420    1.000
    N20      N        0.38400    0.10250    0.44850    1.000
    Co5      Co       0.95931    0.25547    0.83100    1.000
    S9       S        0.90009    0.14869    0.15720    1.000
    S10      S        0.81773    0.06098    0.03300    1.000
    O9       O        0.92566    0.17483    0.89405    1.000
    O10      O        0.91033    0.20264    0.00557    1.000
    N21      N        0.79242    0.04936    0.17299    1.000
    C17      C        0.91108    0.16528    0.96053    1.000
    N22      N        0.81097    0.07472    0.24119    1.000
    C18      C        0.83397    0.08301    0.12313    1.000
    C19      C        0.86647    0.12563    0.24133    1.000
    H13      H        0.88607    0.14753    0.28353    1.000
    C20      C        0.89337    0.10003    0.98833    1.000
    H14      H        0.92547    0.10373    0.02203    1.000
    H15      H        0.89267    0.07443    0.94783    1.000
    N23      N        0.07547    0.42133    0.89643    1.000
    N24      N        0.02787    0.38283    0.76753    1.000
    N25      N        0.05067    0.43583    0.78183    1.000
    Co6      Co       0.62597    0.58881    0.16434    1.000
    S11      S        0.56675    0.48203    0.49054    1.000
    S12      S        0.48439    0.39432    0.36634    1.000
    O11      O        0.59232    0.50817    0.22739    1.000
    O12      O        0.57699    0.53598    0.33891    1.000
    N26      N        0.45908    0.38270    0.50633    1.000
    C21      C        0.57774    0.49862    0.29387    1.000
    N27      N        0.47763    0.40806    0.57453    1.000
    C22      C        0.50063    0.41635    0.45647    1.000
    C23      C        0.53313    0.45897    0.57467    1.000
    H16      H        0.55273    0.48087    0.61687    1.000
    C24      C        0.56003    0.43337    0.32167    1.000
    H17      H        0.59213    0.43707    0.35537    1.000
    H18      H        0.55933    0.40777    0.28117    1.000
    N28      N        0.74213    0.75467    0.22977    1.000
    N29      N        0.69453    0.71617    0.10087    1.000
    N30      N        0.71733    0.76917    0.11517    1.000
    Co7      Co       0.07786    0.37050    0.49767    1.000
    S13      S        0.18464    0.41806    0.82387    1.000
    S14      S        0.27235    0.42341    0.69967    1.000
    O13      O        0.15850    0.41749    0.56072    1.000
    O14      O        0.13069    0.37435    0.67224    1.000
    N31      N        0.28397    0.40972    0.83966    1.000
    C25      C        0.16805    0.41246    0.62720    1.000
    N32      N        0.25861    0.40291    0.90786    1.000
    C26      C        0.25032    0.41762    0.78980    1.000
    C27      C        0.20770    0.40750    0.90800    1.000
    H19      H        0.18580    0.40520    0.95020    1.000
    C28      C        0.23330    0.46000    0.65500    1.000
    H20      H        0.22960    0.48840    0.68870    1.000
    H21      H        0.25890    0.48490    0.61450    1.000
    N33      N        0.91200    0.32080    0.56310    1.000
    N34      N        0.95050    0.31170    0.43420    1.000
    N35      N        0.89750    0.28150    0.44850    1.000
    Co8      Co       0.74453    0.70383    0.83100    1.000
    S15      S        0.85131    0.75139    0.15720    1.000
    S16      S        0.93902    0.75674    0.03300    1.000
    O15      O        0.82517    0.75082    0.89405    1.000
    O16      O        0.79736    0.70768    0.00557    1.000
    N36      N        0.95064    0.74305    0.17299    1.000
    C29      C        0.83472    0.74579    0.96053    1.000
    N37      N        0.92528    0.73624    0.24119    1.000
    C30      C        0.91699    0.75095    0.12313    1.000
    C31      C        0.87437    0.74083    0.24133    1.000
    H22      H        0.85247    0.73853    0.28353    1.000
    C32      C        0.89997    0.79333    0.98833    1.000
    H23      H        0.89627    0.82173    0.02203    1.000
    H24      H        0.92557    0.81823    0.94783    1.000
    N38      N        0.57867    0.65413    0.89643    1.000
    N39      N        0.61717    0.64503    0.76753    1.000
    N40      N        0.56417    0.61483    0.78183    1.000
    Co9      Co       0.41119    0.03717    0.16434    1.000
    S17      S        0.51797    0.08473    0.49054    1.000
    S18      S        0.60568    0.09008    0.36634    1.000
    O17      O        0.49183    0.08416    0.22739    1.000
    O18      O        0.46402    0.04102    0.33891    1.000
    N41      N        0.61730    0.07639    0.50633    1.000
    C33      C        0.50138    0.07913    0.29387    1.000
    N42      N        0.59194    0.06958    0.57453    1.000
    C34      C        0.58365    0.08429    0.45647    1.000
    C35      C        0.54103    0.07417    0.57467    1.000
    H25      H        0.51913    0.07187    0.61687    1.000
    C36      C        0.56663    0.12667    0.32167    1.000
    H26      H        0.56293    0.15507    0.35537    1.000
    H27      H        0.59223    0.15157    0.28117    1.000
    N43      N        0.24533    0.98747    0.22977    1.000
    N44      N        0.28383    0.97837    0.10087    1.000
    N45      N        0.23083    0.94817    0.11517    1.000
    Co10     Co       0.70736    0.62950    0.00233    1.000
    S19      S        0.76658    0.58194    0.67613    1.000
    S20      S        0.84894    0.57659    0.80033    1.000
    O19      O        0.74101    0.58251    0.93928    1.000
    O20      O        0.75634    0.62565    0.82776    1.000
    N46      N        0.87425    0.59028    0.66034    1.000
    C37      C        0.75559    0.58754    0.87280    1.000
    N47      N        0.85570    0.59709    0.59214    1.000
    C38      C        0.83270    0.58238    0.71020    1.000
    C39      C        0.80020    0.59250    0.59200    1.000
    H28      H        0.78060    0.59480    0.54980    1.000
    C40      C        0.77330    0.54000    0.84500    1.000
    H29      H        0.74120    0.51160    0.81130    1.000
    H30      H        0.77400    0.51510    0.88550    1.000
    N48      N        0.59120    0.67920    0.93690    1.000
    N49      N        0.63880    0.68830    0.06580    1.000
    N50      N        0.61600    0.71850    0.05150    1.000
    Co11     Co       0.37403    0.96283    0.33566    1.000
    S21      S        0.43325    0.91527    0.00946    1.000
    S22      S        0.51561    0.90992    0.13366    1.000
    O21      O        0.40768    0.91584    0.27261    1.000
    O22      O        0.42301    0.95898    0.16109    1.000
    N51      N        0.54092    0.92361    0.99367    1.000
    C41      C        0.42226    0.92087    0.20613    1.000
    N52      N        0.52237    0.93042    0.92547    1.000
    C42      C        0.49937    0.91571    0.04353    1.000
    C43      C        0.46687    0.92583    0.92533    1.000
    H31      H        0.44727    0.92813    0.88313    1.000
    C44      C        0.43997    0.87333    0.17833    1.000
    H32      H        0.40787    0.84493    0.14463    1.000
    H33      H        0.44067    0.84843    0.21883    1.000
    N53      N        0.25787    0.01253    0.27023    1.000
    N54      N        0.30547    0.02163    0.39913    1.000
    N55      N        0.28267    0.05183    0.38483    1.000
    Co12     Co       0.04069    0.29617    0.66900    1.000
    S23      S        0.09991    0.24861    0.34280    1.000
    S24      S        0.18227    0.24326    0.46700    1.000
    O23      O        0.07434    0.24918    0.60595    1.000
    O24      O        0.08967    0.29232    0.49443    1.000
    N56      N        0.20758    0.25695    0.32701    1.000
    C45      C        0.08892    0.25421    0.53947    1.000
    N57      N        0.18903    0.26376    0.25881    1.000
    C46      C        0.16603    0.24905    0.37687    1.000
    C47      C        0.13353    0.25917    0.25867    1.000
    H34      H        0.11393    0.26147    0.21647    1.000
    C48      C        0.10663    0.20667    0.51167    1.000
    H35      H        0.07453    0.17827    0.47797    1.000
    H36      H        0.10733    0.18177    0.55217    1.000
    N58      N        0.92453    0.34587    0.60357    1.000
    N59      N        0.97213    0.35497    0.73247    1.000
    N60      N        0.94933    0.38517    0.71817    1.000
    Co13     Co       0.92214    0.29264    0.00233    1.000
    S25      S        0.81536    0.23342    0.67613    1.000
    S26      S        0.72765    0.15106    0.80033    1.000
    O25      O        0.84150    0.25899    0.93928    1.000
    O26      O        0.86931    0.24366    0.82776    1.000
    N61      N        0.71603    0.12575    0.66034    1.000
    C49      C        0.83195    0.24441    0.87280    1.000
    N62      N        0.74139    0.14430    0.59214    1.000
    C50      C        0.74968    0.16730    0.71020    1.000
    C51      C        0.79230    0.19980    0.59200    1.000
    H37      H        0.81420    0.21940    0.54980    1.000
    C52      C        0.76670    0.22670    0.84500    1.000
    H38      H        0.77040    0.25880    0.81130    1.000
    H39      H        0.74110    0.22600    0.88550    1.000
    N63      N        0.08800    0.40880    0.93690    1.000
    N64      N        0.04950    0.36120    0.06580    1.000
    N65      N        0.10250    0.38400    0.05150    1.000
    Co14     Co       0.58881    0.62597    0.33566    1.000
    S27      S        0.48203    0.56675    0.00946    1.000
    S28      S        0.39432    0.48439    0.13366    1.000
    O27      O        0.50817    0.59232    0.27261    1.000
    O28      O        0.53598    0.57699    0.16109    1.000
    N66      N        0.38270    0.45908    0.99367    1.000
    C53      C        0.49862    0.57774    0.20613    1.000
    N67      N        0.40806    0.47763    0.92547    1.000
    C54      C        0.41635    0.50063    0.04353    1.000
    C55      C        0.45897    0.53313    0.92533    1.000
    H40      H        0.48087    0.55273    0.88313    1.000
    C56      C        0.43337    0.56003    0.17833    1.000
    H41      H        0.43707    0.59213    0.14463    1.000
    H42      H        0.40777    0.55933    0.21883    1.000
    N68      N        0.75467    0.74213    0.27023    1.000
    N69      N        0.71617    0.69453    0.39913    1.000
    N70      N        0.76917    0.71733    0.38483    1.000
    Co15     Co       0.25547    0.95931    0.66900    1.000
    S29      S        0.14869    0.90009    0.34280    1.000
    S30      S        0.06098    0.81773    0.46700    1.000
    O29      O        0.17483    0.92566    0.60595    1.000
    O30      O        0.20264    0.91033    0.49443    1.000
    N71      N        0.04936    0.79242    0.32701    1.000
    C57      C        0.16528    0.91108    0.53947    1.000
    N72      N        0.07472    0.81097    0.25881    1.000
    C58      C        0.08301    0.83397    0.37687    1.000
    C59      C        0.12563    0.86647    0.25867    1.000
    H43      H        0.14753    0.88607    0.21647    1.000
    C60      C        0.10003    0.89337    0.51167    1.000
    H44      H        0.10373    0.92547    0.47797    1.000
    H45      H        0.07443    0.89267    0.55217    1.000
    N73      N        0.42133    0.07547    0.60357    1.000
    N74      N        0.38283    0.02787    0.73247    1.000
    N75      N        0.43583    0.05067    0.71817    1.000
    Co16     Co       0.37050    0.07786    0.00233    1.000
    S31      S        0.41806    0.18464    0.67613    1.000
    S32      S        0.42341    0.27235    0.80033    1.000
    O31      O        0.41749    0.15850    0.93928    1.000
    O32      O        0.37435    0.13069    0.82776    1.000
    N76      N        0.40972    0.28397    0.66034    1.000
    C61      C        0.41246    0.16805    0.87280    1.000
    N77      N        0.40291    0.25861    0.59214    1.000
    C62      C        0.41762    0.25032    0.71020    1.000
    C63      C        0.40750    0.20770    0.59200    1.000
    H46      H        0.40520    0.18580    0.54980    1.000
    C64      C        0.46000    0.23330    0.84500    1.000
    H47      H        0.48840    0.22960    0.81130    1.000
    H48      H        0.48490    0.25890    0.88550    1.000
    N78      N        0.32080    0.91200    0.93690    1.000
    N79      N        0.31170    0.95050    0.06580    1.000
    N80      N        0.28150    0.89750    0.05150    1.000
    Co17     Co       0.03717    0.41119    0.33566    1.000
    S33      S        0.08473    0.51797    0.00946    1.000
    S34      S        0.09008    0.60568    0.13366    1.000
    O33      O        0.08416    0.49183    0.27261    1.000
    O34      O        0.04102    0.46402    0.16109    1.000
    N81      N        0.07639    0.61730    0.99367    1.000
    C65      C        0.07913    0.50138    0.20613    1.000
    N82      N        0.06958    0.59194    0.92547    1.000
    C66      C        0.08429    0.58365    0.04353    1.000
    C67      C        0.07417    0.54103    0.92533    1.000
    H49      H        0.07187    0.51913    0.88313    1.000
    C68      C        0.12667    0.56663    0.17833    1.000
    H50      H        0.15507    0.56293    0.14463    1.000
    H51      H        0.15157    0.59223    0.21883    1.000
    N83      N        0.98747    0.24533    0.27023    1.000
    N84      N        0.97837    0.28383    0.39913    1.000
    N85      N        0.94817    0.23083    0.38483    1.000
    Co18     Co       0.70383    0.74453    0.66900    1.000
    S35      S        0.75139    0.85131    0.34280    1.000
    S36      S        0.75674    0.93902    0.46700    1.000
    O35      O        0.75082    0.82517    0.60595    1.000
    O36      O        0.70768    0.79736    0.49443    1.000
    N86      N        0.74305    0.95064    0.32701    1.000
    C69      C        0.74579    0.83472    0.53947    1.000
    N87      N        0.73624    0.92528    0.25881    1.000
    C70      C        0.75095    0.91699    0.37687    1.000
    C71      C        0.74083    0.87437    0.25867    1.000
    H52      H        0.73853    0.85247    0.21647    1.000
    C72      C        0.79333    0.89997    0.51167    1.000
    H53      H        0.82173    0.89627    0.47797    1.000
    H54      H        0.81823    0.92557    0.55217    1.000
    N88      N        0.65413    0.57867    0.60357    1.000
    N89      N        0.64503    0.61717    0.73247    1.000
    N90      N        0.61483    0.56417    0.71817    1.000
    Co19     Co       0.37050    0.29264    0.50233    1.000
    S37      S        0.41806    0.23342    0.17613    1.000
    S38      S        0.42341    0.15106    0.30033    1.000
    O37      O        0.41749    0.25899    0.43928    1.000
    O38      O        0.37435    0.24366    0.32776    1.000
    N91      N        0.40972    0.12575    0.16034    1.000
    C73      C        0.41246    0.24441    0.37280    1.000
    N92      N        0.40291    0.14430    0.09214    1.000
    C74      C        0.41762    0.16730    0.21020    1.000
    C75      C        0.40750    0.19980    0.09200    1.000
    H55      H        0.40520    0.21940    0.04980    1.000
    C76      C        0.46000    0.22670    0.34500    1.000
    H56      H        0.48840    0.25880    0.31130    1.000
    H57      H        0.48490    0.22600    0.38550    1.000
    N93      N        0.32080    0.40880    0.43690    1.000
    N94      N        0.31170    0.36120    0.56580    1.000
    N95      N        0.28150    0.38400    0.55150    1.000
    Co20     Co       0.03717    0.62597    0.83566    1.000
    S39      S        0.08473    0.56675    0.50946    1.000
    S40      S        0.09008    0.48439    0.63366    1.000
    O39      O        0.08416    0.59232    0.77261    1.000
    O40      O        0.04102    0.57699    0.66109    1.000
    N96      N        0.07639    0.45908    0.49367    1.000
    C77      C        0.07913    0.57774    0.70613    1.000
    N97      N        0.06958    0.47763    0.42547    1.000
    C78      C        0.08429    0.50063    0.54353    1.000
    C79      C        0.07417    0.53313    0.42533    1.000
    H58      H        0.07187    0.55273    0.38313    1.000
    C80      C        0.12667    0.56003    0.67833    1.000
    H59      H        0.15507    0.59213    0.64463    1.000
    H60      H        0.15157    0.55933    0.71883    1.000
    N98      N        0.98747    0.74213    0.77023    1.000
    N99      N        0.97837    0.69453    0.89913    1.000
    N100     N        0.94817    0.71733    0.88483    1.000
    Co21     Co       0.70383    0.95931    0.16900    1.000
    S41      S        0.75139    0.90009    0.84280    1.000
    S42      S        0.75674    0.81773    0.96700    1.000
    O41      O        0.75082    0.92566    0.10595    1.000
    O42      O        0.70768    0.91033    0.99443    1.000
    N101     N        0.74305    0.79242    0.82701    1.000
    C81      C        0.74579    0.91108    0.03947    1.000
    N102     N        0.73624    0.81097    0.75881    1.000
    C82      C        0.75095    0.83397    0.87687    1.000
    C83      C        0.74083    0.86647    0.75867    1.000
    H61      H        0.73853    0.88607    0.71647    1.000
    C84      C        0.79333    0.89337    0.01167    1.000
    H62      H        0.82173    0.92547    0.97797    1.000
    H63      H        0.81823    0.89267    0.05217    1.000
    N103     N        0.65413    0.07547    0.10357    1.000
    N104     N        0.64503    0.02787    0.23247    1.000
    N105     N        0.61483    0.05067    0.21817    1.000
    Co22     Co       0.70736    0.07786    0.50233    1.000
    S43      S        0.76658    0.18464    0.17613    1.000
    S44      S        0.84894    0.27235    0.30033    1.000
    O43      O        0.74101    0.15850    0.43928    1.000
    O44      O        0.75634    0.13069    0.32776    1.000
    N106     N        0.87425    0.28397    0.16034    1.000
    C85      C        0.75559    0.16805    0.37280    1.000
    N107     N        0.85570    0.25861    0.09214    1.000
    C86      C        0.83270    0.25032    0.21020    1.000
    C87      C        0.80020    0.20770    0.09200    1.000
    H64      H        0.78060    0.18580    0.04980    1.000
    C88      C        0.77330    0.23330    0.34500    1.000
    H65      H        0.74120    0.22960    0.31130    1.000
    H66      H        0.77400    0.25890    0.38550    1.000
    N108     N        0.59120    0.91200    0.43690    1.000
    N109     N        0.63880    0.95050    0.56580    1.000
    N110     N        0.61600    0.89750    0.55150    1.000
    Co23     Co       0.37403    0.41119    0.83566    1.000
    S45      S        0.43325    0.51797    0.50946    1.000
    S46      S        0.51561    0.60568    0.63366    1.000
    O45      O        0.40768    0.49183    0.77261    1.000
    O46      O        0.42301    0.46402    0.66109    1.000
    N111     N        0.54092    0.61730    0.49367    1.000
    C89      C        0.42226    0.50138    0.70613    1.000
    N112     N        0.52237    0.59194    0.42547    1.000
    C90      C        0.49937    0.58365    0.54353    1.000
    C91      C        0.46687    0.54103    0.42533    1.000
    H67      H        0.44727    0.51913    0.38313    1.000
    C92      C        0.43997    0.56663    0.67833    1.000
    H68      H        0.40787    0.56293    0.64463    1.000
    H69      H        0.44067    0.59223    0.71883    1.000
    N113     N        0.25787    0.24533    0.77023    1.000
    N114     N        0.30547    0.28383    0.89913    1.000
    N115     N        0.28267    0.23083    0.88483    1.000
    Co24     Co       0.04069    0.74453    0.16900    1.000
    S47      S        0.09991    0.85131    0.84280    1.000
    S48      S        0.18227    0.93902    0.96700    1.000
    O47      O        0.07434    0.82517    0.10595    1.000
    O48      O        0.08967    0.79736    0.99443    1.000
    N116     N        0.20758    0.95064    0.82701    1.000
    C93      C        0.08892    0.83472    0.03947    1.000
    N117     N        0.18903    0.92528    0.75881    1.000
    C94      C        0.16603    0.91699    0.87687    1.000
    C95      C        0.13353    0.87437    0.75867    1.000
    H70      H        0.11393    0.85247    0.71647    1.000
    C96      C        0.10663    0.89997    0.01167    1.000
    H71      H        0.07453    0.89627    0.97797    1.000
    H72      H        0.10733    0.92557    0.05217    1.000
    N118     N        0.92453    0.57867    0.10357    1.000
    N119     N        0.97213    0.61717    0.23247    1.000
    N120     N        0.94933    0.56417    0.21817    1.000
    Co25     Co       0.92214    0.62950    0.50233    1.000
    S49      S        0.81536    0.58194    0.17613    1.000
    S50      S        0.72765    0.57659    0.30033    1.000
    O49      O        0.84150    0.58251    0.43928    1.000
    O50      O        0.86931    0.62565    0.32776    1.000
    N121     N        0.71603    0.59028    0.16034    1.000
    C97      C        0.83195    0.58754    0.37280    1.000
    N122     N        0.74139    0.59709    0.09214    1.000
    C98      C        0.74968    0.58238    0.21020    1.000
    C99      C        0.79230    0.59250    0.09200    1.000
    H73      H        0.81420    0.59480    0.04980    1.000
    C100     C        0.76670    0.54000    0.34500    1.000
    H74      H        0.77040    0.51160    0.31130    1.000
    H75      H        0.74110    0.51510    0.38550    1.000
    N123     N        0.08800    0.67920    0.43690    1.000
    N124     N        0.04950    0.68830    0.56580    1.000
    N125     N        0.10250    0.71850    0.55150    1.000
    Co26     Co       0.58881    0.96283    0.83566    1.000
    S51      S        0.48203    0.91527    0.50946    1.000
    S52      S        0.39432    0.90992    0.63366    1.000
    O51      O        0.50817    0.91584    0.77261    1.000
    O52      O        0.53598    0.95898    0.66109    1.000
    N126     N        0.38270    0.92361    0.49367    1.000
    C101     C        0.49862    0.92087    0.70613    1.000
    N127     N        0.40806    0.93042    0.42547    1.000
    C102     C        0.41635    0.91571    0.54353    1.000
    C103     C        0.45897    0.92583    0.42533    1.000
    H76      H        0.48087    0.92813    0.38313    1.000
    C104     C        0.43337    0.87333    0.67833    1.000
    H77      H        0.43707    0.84493    0.64463    1.000
    H78      H        0.40777    0.84843    0.71883    1.000
    N128     N        0.75467    0.01253    0.77023    1.000
    N129     N        0.71617    0.02163    0.89913    1.000
    N130     N        0.76917    0.05183    0.88483    1.000
    Co27     Co       0.25547    0.29617    0.16900    1.000
    S53      S        0.14869    0.24861    0.84280    1.000
    S54      S        0.06098    0.24326    0.96700    1.000
    O53      O        0.17483    0.24918    0.10595    1.000
    O54      O        0.20264    0.29232    0.99443    1.000
    N131     N        0.04936    0.25695    0.82701    1.000
    C105     C        0.16528    0.25421    0.03947    1.000
    N132     N        0.07472    0.26376    0.75881    1.000
    C106     C        0.08301    0.24905    0.87687    1.000
    C107     C        0.12563    0.25917    0.75867    1.000
    H79      H        0.14753    0.26147    0.71647    1.000
    C108     C        0.10003    0.20667    0.01167    1.000
    H80      H        0.10373    0.17827    0.97797    1.000
    H81      H        0.07443    0.18177    0.05217    1.000
    N133     N        0.42133    0.34587    0.10357    1.000
    N134     N        0.38283    0.35497    0.23247    1.000
    N135     N        0.43583    0.38517    0.21817    1.000
    Co28     Co       0.29264    0.37050    0.99767    1.000
    S55      S        0.23342    0.41806    0.32387    1.000
    S56      S        0.15106    0.42341    0.19967    1.000
    O55      O        0.25899    0.41749    0.06072    1.000
    O56      O        0.24366    0.37435    0.17224    1.000
    N136     N        0.12575    0.40972    0.33966    1.000
    C109     C        0.24441    0.41246    0.12720    1.000
    N137     N        0.14430    0.40291    0.40786    1.000
    C110     C        0.16730    0.41762    0.28980    1.000
    C111     C        0.19980    0.40750    0.40800    1.000
    H82      H        0.21940    0.40520    0.45020    1.000
    C112     C        0.22670    0.46000    0.15500    1.000
    H83      H        0.25880    0.48840    0.18870    1.000
    H84      H        0.22600    0.48490    0.11450    1.000
    N138     N        0.40880    0.32080    0.06310    1.000
    N139     N        0.36120    0.31170    0.93420    1.000
    N140     N        0.38400    0.28150    0.94850    1.000
    Co29     Co       0.95931    0.70383    0.33100    1.000
    S57      S        0.90009    0.75139    0.65720    1.000
    S58      S        0.81773    0.75674    0.53300    1.000
    O57      O        0.92566    0.75082    0.39405    1.000
    O58      O        0.91033    0.70768    0.50557    1.000
    N141     N        0.79242    0.74305    0.67299    1.000
    C113     C        0.91108    0.74579    0.46053    1.000
    N142     N        0.81097    0.73624    0.74119    1.000
    C114     C        0.83397    0.75095    0.62313    1.000
    C115     C        0.86647    0.74083    0.74133    1.000
    H85      H        0.88607    0.73853    0.78353    1.000
    C116     C        0.89337    0.79333    0.48833    1.000
    H86      H        0.92547    0.82173    0.52203    1.000
    H87      H        0.89267    0.81823    0.44783    1.000
    N143     N        0.07547    0.65413    0.39643    1.000
    N144     N        0.02787    0.64503    0.26753    1.000
    N145     N        0.05067    0.61483    0.28183    1.000
    Co30     Co       0.62597    0.03717    0.66434    1.000
    S59      S        0.56675    0.08473    0.99054    1.000
    S60      S        0.48439    0.09008    0.86634    1.000
    O59      O        0.59232    0.08416    0.72739    1.000
    O60      O        0.57699    0.04102    0.83891    1.000
    N146     N        0.45908    0.07639    0.00633    1.000
    C117     C        0.57774    0.07913    0.79387    1.000
    N147     N        0.47763    0.06958    0.07453    1.000
    C118     C        0.50063    0.08429    0.95647    1.000
    C119     C        0.53313    0.07417    0.07467    1.000
    H88      H        0.55273    0.07187    0.11687    1.000
    C120     C        0.56003    0.12667    0.82167    1.000
    H89      H        0.59213    0.15507    0.85537    1.000
    H90      H        0.55933    0.15157    0.78117    1.000
    N148     N        0.74213    0.98747    0.72977    1.000
    N149     N        0.69453    0.97837    0.60087    1.000
    N150     N        0.71733    0.94817    0.61517    1.000
    Co31     Co       0.07786    0.70736    0.99767    1.000
    S61      S        0.18464    0.76658    0.32387    1.000
    S62      S        0.27235    0.84894    0.19967    1.000
    O61      O        0.15850    0.74101    0.06072    1.000
    O62      O        0.13069    0.75634    0.17224    1.000
    N151     N        0.28397    0.87425    0.33966    1.000
    C121     C        0.16805    0.75559    0.12720    1.000
    N152     N        0.25861    0.85570    0.40786    1.000
    C122     C        0.25032    0.83270    0.28980    1.000
    C123     C        0.20770    0.80020    0.40800    1.000
    H91      H        0.18580    0.78060    0.45020    1.000
    C124     C        0.23330    0.77330    0.15500    1.000
    H92      H        0.22960    0.74120    0.18870    1.000
    H93      H        0.25890    0.77400    0.11450    1.000
    N153     N        0.91200    0.59120    0.06310    1.000
    N154     N        0.95050    0.63880    0.93420    1.000
    N155     N        0.89750    0.61600    0.94850    1.000
    Co32     Co       0.74453    0.04069    0.33100    1.000
    S63      S        0.85131    0.09991    0.65720    1.000
    S64      S        0.93902    0.18227    0.53300    1.000
    O63      O        0.82517    0.07434    0.39405    1.000
    O64      O        0.79736    0.08967    0.50557    1.000
    N156     N        0.95064    0.20758    0.67299    1.000
    C125     C        0.83472    0.08892    0.46053    1.000
    N157     N        0.92528    0.18903    0.74119    1.000
    C126     C        0.91699    0.16603    0.62313    1.000
    C127     C        0.87437    0.13353    0.74133    1.000
    H94      H        0.85247    0.11393    0.78353    1.000
    C128     C        0.89997    0.10663    0.48833    1.000
    H95      H        0.89627    0.07453    0.52203    1.000
    H96      H        0.92557    0.10733    0.44783    1.000
    N158     N        0.57867    0.92453    0.39643    1.000
    N159     N        0.61717    0.97213    0.26753    1.000
    N160     N        0.56417    0.94933    0.28183    1.000
    Co33     Co       0.41119    0.37403    0.66434    1.000
    S65      S        0.51797    0.43325    0.99054    1.000
    S66      S        0.60568    0.51561    0.86634    1.000
    O65      O        0.49183    0.40768    0.72739    1.000
    O66      O        0.46402    0.42301    0.83891    1.000
    N161     N        0.61730    0.54092    0.00633    1.000
    C129     C        0.50138    0.42226    0.79387    1.000
    N162     N        0.59194    0.52237    0.07453    1.000
    C130     C        0.58365    0.49937    0.95647    1.000
    C131     C        0.54103    0.46687    0.07467    1.000
    H97      H        0.51913    0.44727    0.11687    1.000
    C132     C        0.56663    0.43997    0.82167    1.000
    H98      H        0.56293    0.40787    0.85537    1.000
    H99      H        0.59223    0.44067    0.78117    1.000
    N163     N        0.24533    0.25787    0.72977    1.000
    N164     N        0.28383    0.30547    0.60087    1.000
    N165     N        0.23083    0.28267    0.61517    1.000
    Co34     Co       0.62950    0.92214    0.99767    1.000
    S67      S        0.58194    0.81536    0.32387    1.000
    S68      S        0.57659    0.72765    0.19967    1.000
    O67      O        0.58251    0.84150    0.06072    1.000
    O68      O        0.62565    0.86931    0.17224    1.000
    N166     N        0.59028    0.71603    0.33966    1.000
    C133     C        0.58754    0.83195    0.12720    1.000
    N167     N        0.59709    0.74139    0.40786    1.000
    C134     C        0.58238    0.74968    0.28980    1.000
    C135     C        0.59250    0.79230    0.40800    1.000
    H100     H        0.59480    0.81420    0.45020    1.000
    C136     C        0.54000    0.76670    0.15500    1.000
    H101     H        0.51160    0.77040    0.18870    1.000
    H102     H        0.51510    0.74110    0.11450    1.000
    N168     N        0.67920    0.08800    0.06310    1.000
    N169     N        0.68830    0.04950    0.93420    1.000
    N170     N        0.71850    0.10250    0.94850    1.000
    Co35     Co       0.29617    0.25547    0.33100    1.000
    S69      S        0.24861    0.14869    0.65720    1.000
    S70      S        0.24326    0.06098    0.53300    1.000
    O69      O        0.24918    0.17483    0.39405    1.000
    O70      O        0.29232    0.20264    0.50557    1.000
    N171     N        0.25695    0.04936    0.67299    1.000
    C137     C        0.25421    0.16528    0.46053    1.000
    N172     N        0.26376    0.07472    0.74119    1.000
    C138     C        0.24905    0.08301    0.62313    1.000
    C139     C        0.25917    0.12563    0.74133    1.000
    H103     H        0.26147    0.14753    0.78353    1.000
    C140     C        0.20667    0.10003    0.48833    1.000
    H104     H        0.17827    0.10373    0.52203    1.000
    H105     H        0.18177    0.07443    0.44783    1.000
    N173     N        0.34587    0.42133    0.39643    1.000
    N174     N        0.35497    0.38283    0.26753    1.000
    N175     N        0.38517    0.43583    0.28183    1.000
    Co36     Co       0.96283    0.58881    0.66434    1.000
    S71      S        0.91527    0.48203    0.99054    1.000
    S72      S        0.90992    0.39432    0.86634    1.000
    O71      O        0.91584    0.50817    0.72739    1.000
    O72      O        0.95898    0.53598    0.83891    1.000
    N176     N        0.92361    0.38270    0.00633    1.000
    C141     C        0.92087    0.49862    0.79387    1.000
    N177     N        0.93042    0.40806    0.07453    1.000
    C142     C        0.91571    0.41635    0.95647    1.000
    C143     C        0.92583    0.45897    0.07467    1.000
    H106     H        0.92813    0.48087    0.11687    1.000
    C144     C        0.87333    0.43337    0.82167    1.000
    H107     H        0.84493    0.43707    0.85537    1.000
    H108     H        0.84843    0.40777    0.78117    1.000
    N178     N        0.01253    0.75467    0.72977    1.000
    N179     N        0.02163    0.71617    0.60087    1.000
    N180     N        0.05183    0.76917    0.61517    1.000
    N181     N        0.66667    0.67988    0.58333    1.000
    N182     N        0.66667    0.63168    0.58333    1.000
    N183     N        0.32012    0.98678    0.58333    1.000
    N184     N        0.36832    0.03498    0.58333    1.000
    N185     N        0.01322    0.33333    0.58333    1.000
    N186     N        0.96502    0.33333    0.58333    1.000
    N187     N        0.67988    0.66667    0.91667    1.000
    N188     N        0.63168    0.66667    0.91667    1.000
    N189     N        0.34655    0.00000    0.25000    1.000
    N190     N        0.29835    0.00000    0.25000    1.000
    N191     N        0.98678    0.32012    0.91667    1.000
    N192     N        0.03498    0.36832    0.91667    1.000
    N193     N        0.65345    0.65345    0.25000    1.000
    N194     N        0.70165    0.70165    0.25000    1.000
    N195     N        0.33333    0.01322    0.91667    1.000
    N196     N        0.33333    0.96502    0.91667    1.000
    N197     N        0.00000    0.34655    0.25000    1.000
    N198     N        0.00000    0.29835    0.25000    1.000
    N199     N        0.33333    0.32012    0.41667    1.000
    N200     N        0.33333    0.36832    0.41667    1.000
    N201     N        0.00000    0.65345    0.75000    1.000
    N202     N        0.00000    0.70165    0.75000    1.000
    N203     N        0.67988    0.01322    0.41667    1.000
    N204     N        0.63168    0.96502    0.41667    1.000
    N205     N        0.34655    0.34655    0.75000    1.000
    N206     N        0.29835    0.29835    0.75000    1.000
    N207     N        0.98678    0.66667    0.41667    1.000
    N208     N        0.03498    0.66667    0.41667    1.000
    N209     N        0.65345    0.00000    0.75000    1.000
    N210     N        0.70165    0.00000    0.75000    1.000
    N211     N        0.32012    0.33333    0.08333    1.000
    N212     N        0.36832    0.33333    0.08333    1.000
    N213     N        0.01322    0.67988    0.08333    1.000
    N214     N        0.96502    0.63168    0.08333    1.000
    N215     N        0.66667    0.98678    0.08333    1.000
    N216     N        0.66667    0.03498    0.08333    1.000
    N217     N        0.65898    0.66667    0.41667    1.000
    N218     N        0.32565    0.00000    0.75000    1.000
    N219     N        0.33333    0.99232    0.41667    1.000
    N220     N        0.00000    0.32565    0.75000    1.000
    N221     N        0.00768    0.34102    0.41667    1.000
    N222     N        0.67435    0.67435    0.75000    1.000
    N223     N        0.66667    0.65898    0.08333    1.000
    N224     N        0.99232    0.33333    0.08333    1.000
    N225     N        0.34102    0.00768    0.08333    1.000
    N226     N        0.34102    0.33333    0.58333    1.000
    N227     N        0.66667    0.00768    0.58333    1.000
    N228     N        0.99232    0.65898    0.58333    1.000
    N229     N        0.33333    0.34102    0.91667    1.000
    N230     N        0.00000    0.67435    0.25000    1.000
    N231     N        0.00768    0.66667    0.91667    1.000
    N232     N        0.67435    0.00000    0.25000    1.000
    N233     N        0.65898    0.99232    0.91667    1.000
    N234     N        0.32565    0.32565    0.25000    1.000
