data_functionalizedCrystal
_audit_creation_method	'EQeq! by Chris Wilmer'
_symmetry_space_group_name_H-M	'P1'
_symmetry_Int_Tables_number	1
_symmetry_cell_setting	triclinic
loop_
_symmetry_equiv_pos_as_xyz
  x,y,z
_cell_length_a	12.6261
_cell_length_b	12.6261
_cell_length_c	29.234
_cell_angle_alpha	90
_cell_angle_beta	90
_cell_angle_gamma	90
loop_
_atom_site_label
_atom_site_type_symbol
_atom_site_fract_x
_atom_site_fract_y
_atom_site_fract_z
_atom_site_charge
Mof_O 	O 	0.5127	0.8807	0.3166	-0.35
Mof_O 	O 	0.3717	0.9036	0.2758	-0.438
Mof_C 	C 	0.3673	0.7678	0.332	-0.138
Mof_C 	C 	0.4233	0.8557	0.307	0.354
Mof_C 	C 	0.406	0.7255	0.3718	0.147
Mof_H 	H 	0.4671	0.7562	0.3854	0.02
Mof_O 	O 	0.4832	0.6413	0.4506	-0.604
Mof_O 	O 	0.8133	0.58	0.5182	-0.193
Mof_O 	O 	0.4873	0.1193	0.3166	-0.461
Mof_O 	O 	0.6283	0.0964	0.2758	-0.534
Mof_C 	C 	0.6327	0.2322	0.332	-0.168
Mof_C 	C 	0.5767	0.1443	0.307	0.381
Mof_C 	C 	0.594	0.2745	0.3718	0.156
Mof_H 	H 	0.5329	0.2438	0.3854	-0.008
Mof_O 	O 	0.5168	0.3587	0.4506	-0.604
Mof_O 	O 	0.1867	0.42	0.5182	-0.251
Mof_O 	O 	0.1193	0.5127	0.8166	-0.449
Mof_O 	O 	0.0964	0.3717	0.7758	-0.556
Mof_C 	C 	0.2322	0.3673	0.832	-0.184
Mof_C 	C 	0.1443	0.4233	0.807	0.381
Mof_C 	C 	0.2745	0.406	0.8718	0.157
Mof_H 	H 	0.2438	0.4671	0.8854	-0.003
Mof_O 	O 	0.3587	0.4832	0.9506	-0.554
Mof_O 	O 	0.42	0.8133	0.0182	-0.267
Mof_O 	O 	0.8807	0.4873	0.8166	-0.352
Mof_O 	O 	0.9036	0.6283	0.7758	-0.411
Mof_C 	C 	0.7678	0.6327	0.832	-0.097
Mof_C 	C 	0.8557	0.5767	0.807	0.348
Mof_C 	C 	0.7255	0.594	0.8718	0.12
Mof_H 	H 	0.7562	0.5329	0.8854	0.034
Mof_O 	O 	0.6413	0.5168	0.9506	-0.536
Mof_O 	O 	0.58	0.1867	0.0182	-0.308
Mof_O 	O 	0.4873	0.8807	0.1834	-0.357
Mof_O 	O 	0.6283	0.9036	0.2242	-0.413
Mof_C 	C 	0.6327	0.7678	0.168	-0.105
Mof_C 	C 	0.5767	0.8557	0.193	0.349
Mof_C 	C 	0.594	0.7255	0.1282	0.124
Mof_H 	H 	0.5329	0.7562	0.1146	0.028
Mof_O 	O 	0.5168	0.6413	0.0494	-0.575
Mof_O 	O 	0.1867	0.58	0.9818	-0.144
Mof_O 	O 	0.5127	0.1193	0.1834	-0.454
Mof_O 	O 	0.3717	0.0964	0.2242	-0.558
Mof_C 	C 	0.3673	0.2322	0.168	-0.192
Mof_C 	C 	0.4233	0.1443	0.193	0.383
Mof_C 	C 	0.406	0.2745	0.1282	0.161
Mof_H 	H 	0.4671	0.2438	0.1146	-0.009
Mof_O 	O 	0.4832	0.3587	0.0494	-0.593
Mof_O 	O 	0.8133	0.42	0.9818	-0.102
Mof_O 	O 	0.8807	0.5127	0.6834	-0.349
Mof_O 	O 	0.9036	0.3717	0.7242	-0.436
Mof_C 	C 	0.7678	0.3673	0.668	-0.136
Mof_C 	C 	0.8557	0.4233	0.693	0.355
Mof_C 	C 	0.7255	0.406	0.6282	0.148
Mof_H 	H 	0.7562	0.4671	0.6146	0.021
Mof_O 	O 	0.6413	0.4832	0.5494	-0.603
Mof_O 	O 	0.58	0.8133	0.4818	-0.193
Mof_O 	O 	0.1193	0.4873	0.6834	-0.461
Mof_O 	O 	0.0964	0.6283	0.7242	-0.533
Mof_C 	C 	0.2322	0.6327	0.668	-0.167
Mof_C 	C 	0.1443	0.5767	0.693	0.38
Mof_C 	C 	0.2745	0.594	0.6282	0.155
Mof_H 	H 	0.2438	0.5329	0.6146	-0.008
Mof_O 	O 	0.3587	0.5168	0.5494	-0.604
Mof_O 	O 	0.42	0.1867	0.4818	-0.251
Mof_O 	O 	0.4873	0.1193	0.6834	-0.461
Mof_O 	O 	0.6283	0.0964	0.7242	-0.533
Mof_C 	C 	0.6327	0.2322	0.668	-0.167
Mof_C 	C 	0.5767	0.1443	0.693	0.38
Mof_C 	C 	0.594	0.2745	0.6282	0.155
Mof_H 	H 	0.5329	0.2438	0.6146	-0.008
Mof_O 	O 	0.5168	0.3587	0.5494	-0.604
Mof_O 	O 	0.1867	0.42	0.4818	-0.251
Mof_O 	O 	0.5127	0.8807	0.6834	-0.349
Mof_O 	O 	0.3717	0.9036	0.7242	-0.436
Mof_C 	C 	0.3673	0.7678	0.668	-0.136
Mof_C 	C 	0.4233	0.8557	0.693	0.355
Mof_C 	C 	0.406	0.7255	0.6282	0.148
Mof_H 	H 	0.4671	0.7562	0.6146	0.021
Mof_O 	O 	0.4832	0.6413	0.5494	-0.603
Mof_O 	O 	0.8133	0.58	0.4818	-0.193
Mof_O 	O 	0.8807	0.4873	0.1834	-0.357
Mof_O 	O 	0.9036	0.6283	0.2242	-0.413
Mof_C 	C 	0.7678	0.6327	0.168	-0.105
Mof_C 	C 	0.8557	0.5767	0.193	0.349
Mof_C 	C 	0.7255	0.594	0.1282	0.124
Mof_H 	H 	0.7562	0.5329	0.1146	0.028
Mof_O 	O 	0.6413	0.5168	0.0494	-0.575
Mof_O 	O 	0.58	0.1867	0.9818	-0.144
Mof_O 	O 	0.1193	0.5127	0.1834	-0.454
Mof_O 	O 	0.0964	0.3717	0.2242	-0.558
Mof_C 	C 	0.2322	0.3673	0.168	-0.192
Mof_C 	C 	0.1443	0.4233	0.193	0.383
Mof_C 	C 	0.2745	0.406	0.1282	0.161
Mof_H 	H 	0.2438	0.4671	0.1146	-0.009
Mof_O 	O 	0.3587	0.4832	0.0494	-0.593
Mof_O 	O 	0.42	0.8133	0.9818	-0.102
Mof_O 	O 	0.5127	0.1193	0.8166	-0.449
Mof_O 	O 	0.3717	0.0964	0.7758	-0.556
Mof_C 	C 	0.3673	0.2322	0.832	-0.184
Mof_C 	C 	0.4233	0.1443	0.807	0.381
Mof_C 	C 	0.406	0.2745	0.8718	0.157
Mof_H 	H 	0.4671	0.2438	0.8854	-0.003
Mof_O 	O 	0.4832	0.3587	0.9506	-0.554
Mof_O 	O 	0.8133	0.42	0.0182	-0.267
Mof_O 	O 	0.4873	0.8807	0.8166	-0.352
Mof_O 	O 	0.6283	0.9036	0.7758	-0.411
Mof_C 	C 	0.6327	0.7678	0.832	-0.097
Mof_C 	C 	0.5767	0.8557	0.807	0.348
Mof_C 	C 	0.594	0.7255	0.8718	0.12
Mof_H 	H 	0.5329	0.7562	0.8854	0.034
Mof_O 	O 	0.5168	0.6413	0.9506	-0.536
Mof_O 	O 	0.1867	0.58	0.0182	-0.308
Mof_O 	O 	0.1193	0.4873	0.3166	-0.461
Mof_O 	O 	0.0964	0.6283	0.2758	-0.534
Mof_C 	C 	0.2322	0.6327	0.332	-0.168
Mof_C 	C 	0.1443	0.5767	0.307	0.381
Mof_C 	C 	0.2745	0.594	0.3718	0.156
Mof_H 	H 	0.2438	0.5329	0.3854	-0.008
Mof_O 	O 	0.3587	0.5168	0.4506	-0.604
Mof_O 	O 	0.42	0.1867	0.5182	-0.251
Mof_O 	O 	0.8807	0.5127	0.3166	-0.349
Mof_O 	O 	0.9036	0.3717	0.2758	-0.437
Mof_C 	C 	0.7678	0.3673	0.332	-0.137
Mof_C 	C 	0.8557	0.4233	0.307	0.355
Mof_C 	C 	0.7255	0.406	0.3718	0.148
Mof_H 	H 	0.7562	0.4671	0.3854	0.021
Mof_O 	O 	0.6413	0.4832	0.4506	-0.603
Mof_O 	O 	0.58	0.8133	0.5182	-0.193
Mof_Eu	Eu	0.62749	0.62749	0.5	2.433
Mof_Eu	Eu	0.37251	0.37251	0.5	2.331
Mof_Eu	Eu	0.37251	0.62749	-0	2.174
Mof_Eu	Eu	0.62749	0.37251	-0	2.174
Mof_In	In	0.5	0	0.25	2.029
Mof_In	In	6.51091e-33	0.5	0.75	2.03
Mof_In	In	0.5	0	0.75	2.03
Mof_In	In	-3.24626e-33	0.5	0.25	2.029
Mof_C 	C 	0.3592	0.6408	0.3925	-0.263
Mof_C 	C 	0.2787	0.7213	0.3118	0.091
Mof_H 	H 	0.2502	0.7498	0.2844	0.041
Mof_C 	C 	0.4044	0.5956	0.4344	0.61
Mof_C 	C 	0.6408	0.3592	0.3925	-0.263
Mof_C 	C 	0.7213	0.2787	0.3118	0.091
Mof_H 	H 	0.7498	0.2502	0.2844	0.041
Mof_C 	C 	0.5956	0.4044	0.4344	0.61
Mof_C 	C 	0.3592	0.3592	0.8925	-0.268
Mof_C 	C 	0.2787	0.2787	0.8118	0.105
Mof_H 	H 	0.2502	0.2502	0.7844	0.013
Mof_C 	C 	0.4044	0.4044	0.9344	0.583
Mof_C 	C 	0.6408	0.6408	0.8925	-0.208
Mof_C 	C 	0.7213	0.7213	0.8118	0.062
Mof_H 	H 	0.7498	0.7498	0.7844	0.076
Mof_C 	C 	0.5956	0.5956	0.9344	0.576
Mof_C 	C 	0.6408	0.6408	0.1075	-0.222
Mof_C 	C 	0.7213	0.7213	0.1882	0.065
Mof_H 	H 	0.7498	0.7498	0.2156	0.074
Mof_C 	C 	0.5956	0.5956	0.0656	0.581
Mof_C 	C 	0.3592	0.3592	0.1075	-0.283
Mof_C 	C 	0.2787	0.2787	0.1882	0.108
Mof_H 	H 	0.2502	0.2502	0.2156	0.011
Mof_C 	C 	0.4044	0.4044	0.0656	0.588
Mof_C 	C 	0.6408	0.3592	0.6075	-0.263
Mof_C 	C 	0.7213	0.2787	0.6882	0.091
Mof_H 	H 	0.7498	0.2502	0.7156	0.042
Mof_C 	C 	0.5956	0.4044	0.5656	0.609
Mof_C 	C 	0.3592	0.6408	0.6075	-0.263
Mof_C 	C 	0.2787	0.7213	0.6882	0.091
Mof_H 	H 	0.2502	0.7498	0.7156	0.042
Mof_C 	C 	0.4044	0.5956	0.5656	0.609
_end
