# CIF file generated by openbabel 3.1.0, see https://openbabel.org
data_I
_chemical_name_common 'image0'
_cell_length_a 17.028
_cell_length_b 17.028
_cell_length_c 23.1439
_cell_angle_alpha 90
_cell_angle_beta 90
_cell_angle_gamma 90
_space_group_name_H-M_alt 'P 1'
_space_group_name_Hall 'P 1'
loop_
    _symmetry_equiv_pos_as_xyz
    x,y,z
loop_
    _atom_site_label
    _atom_site_type_symbol
    _atom_site_fract_x
    _atom_site_fract_y
    _atom_site_fract_z
    _atom_site_occupancy
    H1       H        0.26310    0.70390    0.97570    1.000
    H2       H        0.36920    0.79610    0.02750    1.000
    C1       C        0.27081    0.82033    0.11113    1.000
    H3       H        0.25750    0.82200    0.15190    1.000
    H4       H        0.30080    0.86720    0.10210    1.000
    C2       C        0.19489    0.81968    0.07510    1.000
    H5       H        0.19230    0.86710    0.05190    1.000
    H6       H        0.14990    0.81920    0.10080    1.000
    H7       H        0.76310    0.20390    0.47570    1.000
    H8       H        0.86920    0.29610    0.52750    1.000
    C3       C        0.77081    0.32033    0.61113    1.000
    H9       H        0.75750    0.32200    0.65190    1.000
    H10      H        0.80080    0.36720    0.60210    1.000
    C4       C        0.69489    0.31968    0.57510    1.000
    H11      H        0.69230    0.36710    0.55190    1.000
    H12      H        0.64990    0.31920    0.60080    1.000
    H13      H        0.23690    0.29610    0.47570    1.000
    H14      H        0.13080    0.20390    0.52750    1.000
    C5       C        0.22919    0.17967    0.61113    1.000
    H15      H        0.24250    0.17800    0.65190    1.000
    H16      H        0.19920    0.13280    0.60210    1.000
    C6       C        0.30511    0.18032    0.57510    1.000
    H17      H        0.30770    0.13290    0.55190    1.000
    H18      H        0.35010    0.18080    0.60080    1.000
    H19      H        0.73690    0.79610    0.97570    1.000
    H20      H        0.63080    0.70390    0.02750    1.000
    C7       C        0.72919    0.67967    0.11113    1.000
    H21      H        0.74250    0.67800    0.15190    1.000
    H22      H        0.69920    0.63280    0.10210    1.000
    C8       C        0.80511    0.68032    0.07510    1.000
    H23      H        0.80770    0.63290    0.05190    1.000
    H24      H        0.85010    0.68080    0.10080    1.000
    H25      H        0.54610    0.01310    0.22570    1.000
    H26      H        0.45390    0.11920    0.27750    1.000
    C9       C        0.42967    0.02081    0.36113    1.000
    H27      H        0.42800    0.00750    0.40190    1.000
    H28      H        0.38280    0.05080    0.35210    1.000
    C10      C        0.43032    0.94489    0.32510    1.000
    H29      H        0.38290    0.94230    0.30190    1.000
    H30      H        0.43080    0.89990    0.35080    1.000
    H31      H        0.04610    0.51310    0.72570    1.000
    H32      H        0.95390    0.61920    0.77750    1.000
    C11      C        0.92967    0.52081    0.86113    1.000
    H33      H        0.92800    0.50750    0.90190    1.000
    H34      H        0.88280    0.55080    0.85210    1.000
    C12      C        0.93032    0.44489    0.82510    1.000
    H35      H        0.88290    0.44230    0.80190    1.000
    H36      H        0.93080    0.39990    0.85080    1.000
    H37      H        0.95390    0.98690    0.72570    1.000
    H38      H        0.04610    0.88080    0.77750    1.000
    C13      C        0.07033    0.97919    0.86113    1.000
    H39      H        0.07200    0.99250    0.90190    1.000
    H40      H        0.11720    0.94920    0.85210    1.000
    C14      C        0.06968    0.05511    0.82510    1.000
    H41      H        0.11710    0.05770    0.80190    1.000
    H42      H        0.06920    0.10010    0.85080    1.000
    H43      H        0.45390    0.48690    0.22570    1.000
    H44      H        0.54610    0.38080    0.27750    1.000
    C15      C        0.57033    0.47919    0.36113    1.000
    H45      H        0.57200    0.49250    0.40190    1.000
    H46      H        0.61720    0.44920    0.35210    1.000
    C16      C        0.56968    0.55511    0.32510    1.000
    H47      H        0.61710    0.55770    0.30190    1.000
    H48      H        0.56920    0.60010    0.35080    1.000
    H49      H        0.76310    0.29610    0.47570    1.000
    H50      H        0.86920    0.20390    0.52750    1.000
    C17      C        0.77081    0.17967    0.61113    1.000
    H51      H        0.75750    0.17800    0.65190    1.000
    H52      H        0.80080    0.13280    0.60210    1.000
    C18      C        0.69489    0.18032    0.57510    1.000
    H53      H        0.69230    0.13290    0.55190    1.000
    H54      H        0.64990    0.18080    0.60080    1.000
    H55      H        0.26310    0.79610    0.97570    1.000
    H56      H        0.36920    0.70390    0.02750    1.000
    C19      C        0.27081    0.67967    0.11113    1.000
    H57      H        0.25750    0.67800    0.15190    1.000
    H58      H        0.30080    0.63280    0.10210    1.000
    C20      C        0.19489    0.68032    0.07510    1.000
    H59      H        0.19230    0.63290    0.05190    1.000
    H60      H        0.14990    0.68080    0.10080    1.000
    H61      H        0.73690    0.70390    0.97570    1.000
    H62      H        0.63080    0.79610    0.02750    1.000
    C21      C        0.72919    0.82033    0.11113    1.000
    H63      H        0.74250    0.82200    0.15190    1.000
    H64      H        0.69920    0.86720    0.10210    1.000
    C22      C        0.80511    0.81968    0.07510    1.000
    H65      H        0.80770    0.86710    0.05190    1.000
    H66      H        0.85010    0.81920    0.10080    1.000
    H67      H        0.23690    0.20390    0.47570    1.000
    H68      H        0.13080    0.29610    0.52750    1.000
    C23      C        0.22919    0.32033    0.61113    1.000
    H69      H        0.24250    0.32200    0.65190    1.000
    H70      H        0.19920    0.36720    0.60210    1.000
    C24      C        0.30511    0.31968    0.57510    1.000
    H71      H        0.30770    0.36710    0.55190    1.000
    H72      H        0.35010    0.31920    0.60080    1.000
    H73      H        0.04610    0.98690    0.72570    1.000
    H74      H        0.95390    0.88080    0.77750    1.000
    C25      C        0.92967    0.97919    0.86113    1.000
    H75      H        0.92800    0.99250    0.90190    1.000
    H76      H        0.88280    0.94920    0.85210    1.000
    C26      C        0.93032    0.05511    0.82510    1.000
    H77      H        0.88290    0.05770    0.80190    1.000
    H78      H        0.93080    0.10010    0.85080    1.000
    H79      H        0.54610    0.48690    0.22570    1.000
    H80      H        0.45390    0.38080    0.27750    1.000
    C27      C        0.42967    0.47919    0.36113    1.000
    H81      H        0.42800    0.49250    0.40190    1.000
    H82      H        0.38280    0.44920    0.35210    1.000
    C28      C        0.43032    0.55511    0.32510    1.000
    H83      H        0.38290    0.55770    0.30190    1.000
    H84      H        0.43080    0.60010    0.35080    1.000
    H85      H        0.45390    0.01310    0.22570    1.000
    H86      H        0.54610    0.11920    0.27750    1.000
    C29      C        0.57033    0.02081    0.36113    1.000
    H87      H        0.57200    0.00750    0.40190    1.000
    H88      H        0.61720    0.05080    0.35210    1.000
    C30      C        0.56968    0.94489    0.32510    1.000
    H89      H        0.61710    0.94230    0.30190    1.000
    H90      H        0.56920    0.89990    0.35080    1.000
    H91      H        0.95390    0.51310    0.72570    1.000
    H92      H        0.04610    0.61920    0.77750    1.000
    C31      C        0.07033    0.52081    0.86113    1.000
    H93      H        0.07200    0.50750    0.90190    1.000
    H94      H        0.11720    0.55080    0.85210    1.000
    C32      C        0.06968    0.44489    0.82510    1.000
    H95      H        0.11710    0.44230    0.80190    1.000
    H96      H        0.06920    0.39990    0.85080    1.000
    Cu1      Cu       0.08857    0.75000    0.98424    1.000
    I1       I        0.13112    0.75000    0.87198    1.000
    N1       N        0.19156    0.75000    0.03658    1.000
    N2       N        0.31940    0.75000    0.09948    1.000
    C33      C        0.26336    0.75000    0.00033    1.000
    C34      C        0.33820    0.75000    0.03675    1.000
    Cu2      Cu       0.41143    0.25000    0.48424    1.000
    I2       I        0.36888    0.25000    0.37198    1.000
    N3       N        0.30844    0.25000    0.53658    1.000
    N4       N        0.18060    0.25000    0.59948    1.000
    C35      C        0.23664    0.25000    0.50033    1.000
    C36      C        0.16180    0.25000    0.53675    1.000
    Cu3      Cu       0.50000    0.83857    0.23424    1.000
    I3       I        0.50000    0.88112    0.12198    1.000
    N5       N        0.50000    0.94156    0.28658    1.000
    N6       N        0.50000    0.06940    0.34948    1.000
    C37      C        0.50000    0.01336    0.25033    1.000
    C38      C        0.50000    0.08820    0.28675    1.000
    Cu4      Cu       0.00000    0.33857    0.73424    1.000
    I4       I        0.00000    0.38112    0.62198    1.000
    N7       N        0.00000    0.44156    0.78658    1.000
    N8       N        0.00000    0.56940    0.84948    1.000
    C39      C        0.00000    0.51336    0.75033    1.000
    C40      C        0.00000    0.58820    0.78675    1.000
    Cu5      Cu       0.00000    0.16143    0.73424    1.000
    I5       I        0.00000    0.11888    0.62198    1.000
    N9       N        0.00000    0.05844    0.78658    1.000
    N10      N        0.00000    0.93060    0.84948    1.000
    C41      C        0.00000    0.98664    0.75033    1.000
    C42      C        0.00000    0.91180    0.78675    1.000
    Cu6      Cu       0.50000    0.66143    0.23424    1.000
    I6       I        0.50000    0.61888    0.12198    1.000
    N11      N        0.50000    0.55844    0.28658    1.000
    N12      N        0.50000    0.43060    0.34948    1.000
    C43      C        0.50000    0.48664    0.25033    1.000
    C44      C        0.50000    0.41180    0.28675    1.000
    Cu7      Cu       0.58857    0.25000    0.48424    1.000
    I7       I        0.63112    0.25000    0.37198    1.000
    N13      N        0.69156    0.25000    0.53658    1.000
    N14      N        0.81940    0.25000    0.59948    1.000
    C45      C        0.76336    0.25000    0.50033    1.000
    C46      C        0.83820    0.25000    0.53675    1.000
    Cu8      Cu       0.91143    0.75000    0.98424    1.000
    I8       I        0.86888    0.75000    0.87198    1.000
    N15      N        0.80844    0.75000    0.03658    1.000
    N16      N        0.68060    0.75000    0.09948    1.000
    C47      C        0.73664    0.75000    0.00033    1.000
    C48      C        0.66180    0.75000    0.03675    1.000
    Cu9      Cu       0.00000    0.82810    0.90006    1.000
    I9       I        0.00000    0.87596    0.00940    1.000
    Cu10     Cu       0.50000    0.32810    0.40006    1.000
    I10      I        0.50000    0.37596    0.50940    1.000
    Cu11     Cu       0.50000    0.17190    0.40006    1.000
    I11      I        0.50000    0.12404    0.50940    1.000
    Cu12     Cu       0.00000    0.67190    0.90006    1.000
    I12      I        0.00000    0.62404    0.00940    1.000
    Cu13     Cu       0.42190    0.75000    0.15006    1.000
    I13      I        0.37404    0.75000    0.25940    1.000
    Cu14     Cu       0.07810    0.25000    0.65006    1.000
    I14      I        0.12596    0.25000    0.75940    1.000
    Cu15     Cu       0.92190    0.25000    0.65006    1.000
    I15      I        0.87404    0.25000    0.75940    1.000
    Cu16     Cu       0.57810    0.75000    0.15006    1.000
    I16      I        0.62596    0.75000    0.25940    1.000
    H97      H        0.23690    0.70390    0.52430    1.000
    H98      H        0.13080    0.79610    0.47250    1.000
    C49      C        0.22919    0.82033    0.38887    1.000
    H99      H        0.24250    0.82200    0.34810    1.000
    H100     H        0.19920    0.86720    0.39790    1.000
    C50      C        0.30511    0.81968    0.42490    1.000
    H101     H        0.30770    0.86710    0.44810    1.000
    H102     H        0.35010    0.81920    0.39920    1.000
    H103     H        0.73690    0.20390    0.02430    1.000
    H104     H        0.63080    0.29610    0.97250    1.000
    C51      C        0.72919    0.32033    0.88887    1.000
    H105     H        0.74250    0.32200    0.84810    1.000
    H106     H        0.69920    0.36720    0.89790    1.000
    C52      C        0.80511    0.31968    0.92490    1.000
    H107     H        0.80770    0.36710    0.94810    1.000
    H108     H        0.85010    0.31920    0.89920    1.000
    H109     H        0.26310    0.29610    0.02430    1.000
    H110     H        0.36920    0.20390    0.97250    1.000
    C53      C        0.27081    0.17967    0.88887    1.000
    H111     H        0.25750    0.17800    0.84810    1.000
    H112     H        0.30080    0.13280    0.89790    1.000
    C54      C        0.19489    0.18032    0.92490    1.000
    H113     H        0.19230    0.13290    0.94810    1.000
    H114     H        0.14990    0.18080    0.89920    1.000
    H115     H        0.76310    0.79610    0.52430    1.000
    H116     H        0.86920    0.70390    0.47250    1.000
    C55      C        0.77081    0.67967    0.38887    1.000
    H117     H        0.75750    0.67800    0.34810    1.000
    H118     H        0.80080    0.63280    0.39790    1.000
    C56      C        0.69489    0.68032    0.42490    1.000
    H119     H        0.69230    0.63290    0.44810    1.000
    H120     H        0.64990    0.68080    0.39920    1.000
    H121     H        0.95390    0.01310    0.27430    1.000
    H122     H        0.04610    0.11920    0.22250    1.000
    C57      C        0.07033    0.02081    0.13887    1.000
    H123     H        0.07200    0.00750    0.09810    1.000
    H124     H        0.11720    0.05080    0.14790    1.000
    C58      C        0.06968    0.94489    0.17490    1.000
    H125     H        0.11710    0.94230    0.19810    1.000
    H126     H        0.06920    0.89990    0.14920    1.000
    H127     H        0.45390    0.51310    0.77430    1.000
    H128     H        0.54610    0.61920    0.72250    1.000
    C59      C        0.57033    0.52081    0.63887    1.000
    H129     H        0.57200    0.50750    0.59810    1.000
    H130     H        0.61720    0.55080    0.64790    1.000
    C60      C        0.56968    0.44489    0.67490    1.000
    H131     H        0.61710    0.44230    0.69810    1.000
    H132     H        0.56920    0.39990    0.64920    1.000
    H133     H        0.54610    0.98690    0.77430    1.000
    H134     H        0.45390    0.88080    0.72250    1.000
    C61      C        0.42967    0.97919    0.63887    1.000
    H135     H        0.42800    0.99250    0.59810    1.000
    H136     H        0.38280    0.94920    0.64790    1.000
    C62      C        0.43032    0.05511    0.67490    1.000
    H137     H        0.38290    0.05770    0.69810    1.000
    H138     H        0.43080    0.10010    0.64920    1.000
    H139     H        0.04610    0.48690    0.27430    1.000
    H140     H        0.95390    0.38080    0.22250    1.000
    C63      C        0.92967    0.47919    0.13887    1.000
    H141     H        0.92800    0.49250    0.09810    1.000
    H142     H        0.88280    0.44920    0.14790    1.000
    C64      C        0.93032    0.55511    0.17490    1.000
    H143     H        0.88290    0.55770    0.19810    1.000
    H144     H        0.93080    0.60010    0.14920    1.000
    H145     H        0.73690    0.29610    0.02430    1.000
    H146     H        0.63080    0.20390    0.97250    1.000
    C65      C        0.72919    0.17967    0.88887    1.000
    H147     H        0.74250    0.17800    0.84810    1.000
    H148     H        0.69920    0.13280    0.89790    1.000
    C66      C        0.80511    0.18032    0.92490    1.000
    H149     H        0.80770    0.13290    0.94810    1.000
    H150     H        0.85010    0.18080    0.89920    1.000
    H151     H        0.23690    0.79610    0.52430    1.000
    H152     H        0.13080    0.70390    0.47250    1.000
    C67      C        0.22919    0.67967    0.38887    1.000
    H153     H        0.24250    0.67800    0.34810    1.000
    H154     H        0.19920    0.63280    0.39790    1.000
    C68      C        0.30511    0.68032    0.42490    1.000
    H155     H        0.30770    0.63290    0.44810    1.000
    H156     H        0.35010    0.68080    0.39920    1.000
    H157     H        0.76310    0.70390    0.52430    1.000
    H158     H        0.86920    0.79610    0.47250    1.000
    C69      C        0.77081    0.82033    0.38887    1.000
    H159     H        0.75750    0.82200    0.34810    1.000
    H160     H        0.80080    0.86720    0.39790    1.000
    C70      C        0.69489    0.81968    0.42490    1.000
    H161     H        0.69230    0.86710    0.44810    1.000
    H162     H        0.64990    0.81920    0.39920    1.000
    H163     H        0.26310    0.20390    0.02430    1.000
    H164     H        0.36920    0.29610    0.97250    1.000
    C71      C        0.27081    0.32033    0.88887    1.000
    H165     H        0.25750    0.32200    0.84810    1.000
    H166     H        0.30080    0.36720    0.89790    1.000
    C72      C        0.19489    0.31968    0.92490    1.000
    H167     H        0.19230    0.36710    0.94810    1.000
    H168     H        0.14990    0.31920    0.89920    1.000
    H169     H        0.45390    0.98690    0.77430    1.000
    H170     H        0.54610    0.88080    0.72250    1.000
    C73      C        0.57033    0.97919    0.63887    1.000
    H171     H        0.57200    0.99250    0.59810    1.000
    H172     H        0.61720    0.94920    0.64790    1.000
    C74      C        0.56968    0.05511    0.67490    1.000
    H173     H        0.61710    0.05770    0.69810    1.000
    H174     H        0.56920    0.10010    0.64920    1.000
    H175     H        0.95390    0.48690    0.27430    1.000
    H176     H        0.04610    0.38080    0.22250    1.000
    C75      C        0.07033    0.47919    0.13887    1.000
    H177     H        0.07200    0.49250    0.09810    1.000
    H178     H        0.11720    0.44920    0.14790    1.000
    C76      C        0.06968    0.55511    0.17490    1.000
    H179     H        0.11710    0.55770    0.19810    1.000
    H180     H        0.06920    0.60010    0.14920    1.000
    H181     H        0.04610    0.01310    0.27430    1.000
    H182     H        0.95390    0.11920    0.22250    1.000
    C77      C        0.92967    0.02081    0.13887    1.000
    H183     H        0.92800    0.00750    0.09810    1.000
    H184     H        0.88280    0.05080    0.14790    1.000
    C78      C        0.93032    0.94489    0.17490    1.000
    H185     H        0.88290    0.94230    0.19810    1.000
    H186     H        0.93080    0.89990    0.14920    1.000
    H187     H        0.54610    0.51310    0.77430    1.000
    H188     H        0.45390    0.61920    0.72250    1.000
    C79      C        0.42967    0.52081    0.63887    1.000
    H189     H        0.42800    0.50750    0.59810    1.000
    H190     H        0.38280    0.55080    0.64790    1.000
    C80      C        0.43032    0.44489    0.67490    1.000
    H191     H        0.38290    0.44230    0.69810    1.000
    H192     H        0.43080    0.39990    0.64920    1.000
    Cu17     Cu       0.41143    0.75000    0.51576    1.000
    I17      I        0.36888    0.75000    0.62802    1.000
    N17      N        0.30844    0.75000    0.46342    1.000
    N18      N        0.18060    0.75000    0.40052    1.000
    C81      C        0.23664    0.75000    0.49967    1.000
    C82      C        0.16180    0.75000    0.46325    1.000
    Cu18     Cu       0.08857    0.25000    0.01576    1.000
    I18      I        0.13112    0.25000    0.12802    1.000
    N19      N        0.19156    0.25000    0.96342    1.000
    N20      N        0.31940    0.25000    0.90052    1.000
    C83      C        0.26336    0.25000    0.99967    1.000
    C84      C        0.33820    0.25000    0.96325    1.000
    Cu19     Cu       0.00000    0.83857    0.26576    1.000
    I19      I        0.00000    0.88112    0.37802    1.000
    N21      N        0.00000    0.94156    0.21342    1.000
    N22      N        0.00000    0.06940    0.15052    1.000
    C85      C        0.00000    0.01336    0.24967    1.000
    C86      C        0.00000    0.08820    0.21325    1.000
    Cu20     Cu       0.50000    0.33857    0.76576    1.000
    I20      I        0.50000    0.38112    0.87802    1.000
    N23      N        0.50000    0.44156    0.71342    1.000
    N24      N        0.50000    0.56940    0.65052    1.000
    C87      C        0.50000    0.51336    0.74967    1.000
    C88      C        0.50000    0.58820    0.71325    1.000
    Cu21     Cu       0.50000    0.16143    0.76576    1.000
    I21      I        0.50000    0.11888    0.87802    1.000
    N25      N        0.50000    0.05844    0.71342    1.000
    N26      N        0.50000    0.93060    0.65052    1.000
    C89      C        0.50000    0.98664    0.74967    1.000
    C90      C        0.50000    0.91180    0.71325    1.000
    Cu22     Cu       0.00000    0.66143    0.26576    1.000
    I22      I        0.00000    0.61888    0.37802    1.000
    N27      N        0.00000    0.55844    0.21342    1.000
    N28      N        0.00000    0.43060    0.15052    1.000
    C91      C        0.00000    0.48664    0.24967    1.000
    C92      C        0.00000    0.41180    0.21325    1.000
    Cu23     Cu       0.91143    0.25000    0.01576    1.000
    I23      I        0.86888    0.25000    0.12802    1.000
    N29      N        0.80844    0.25000    0.96342    1.000
    N30      N        0.68060    0.25000    0.90052    1.000
    C93      C        0.73664    0.25000    0.99967    1.000
    C94      C        0.66180    0.25000    0.96325    1.000
    Cu24     Cu       0.58857    0.75000    0.51576    1.000
    I24      I        0.63112    0.75000    0.62802    1.000
    N31      N        0.69156    0.75000    0.46342    1.000
    N32      N        0.81940    0.75000    0.40052    1.000
    C95      C        0.76336    0.75000    0.49967    1.000
    C96      C        0.83820    0.75000    0.46325    1.000
    Cu25     Cu       0.50000    0.82810    0.59994    1.000
    I25      I        0.50000    0.87596    0.49060    1.000
    Cu26     Cu       0.00000    0.32810    0.09994    1.000
    I26      I        0.00000    0.37596    0.99060    1.000
    Cu27     Cu       0.00000    0.17190    0.09994    1.000
    I27      I        0.00000    0.12404    0.99060    1.000
    Cu28     Cu       0.50000    0.67190    0.59994    1.000
    I28      I        0.50000    0.62404    0.49060    1.000
    Cu29     Cu       0.07810    0.75000    0.34994    1.000
    I29      I        0.12596    0.75000    0.24060    1.000
    Cu30     Cu       0.42190    0.25000    0.84994    1.000
    I30      I        0.37404    0.25000    0.74060    1.000
    Cu31     Cu       0.57810    0.25000    0.84994    1.000
    I31      I        0.62596    0.25000    0.74060    1.000
    Cu32     Cu       0.92190    0.75000    0.34994    1.000
    I32      I        0.87404    0.75000    0.24060    1.000
