data_functionalizedCrystal
_audit_creation_method	'EQeq! by Chris Wilmer'
_symmetry_space_group_name_H-M	'P1'
_symmetry_Int_Tables_number	1
_symmetry_cell_setting	triclinic
loop_
_symmetry_equiv_pos_as_xyz
  x,y,z
_cell_length_a	9.8879
_cell_length_b	15.9826
_cell_length_c	11.2887
_cell_angle_alpha	90
_cell_angle_beta	111.178
_cell_angle_gamma	90
loop_
_atom_site_label
_atom_site_type_symbol
_atom_site_fract_x
_atom_site_fract_y
_atom_site_fract_z
_atom_site_charge
Mof_C 	C 	0.3023	0.4499	0.4362	-0.089
Mof_N 	N 	0.188	0.422	0.4001	-0.421
Mof_K 	K 	0.97086	0.45298	0.15784	1.836
Mof_Au	Au	0.14908	0.77734	0.36136	-0.126
Mof_C 	C 	0.243	0.8891	0.411	-0.101
Mof_N 	N 	0.299	0.9523	0.4438	-0.412
Mof_C 	C 	0.0512	0.666	0.3192	-0.123
Mof_N 	N 	0.9927	0.6034	0.2959	-0.387
Mof_Au	Au	0.91427	0.81727	0.08847	0
Mof_C 	C 	0.0286	0.7497	0.0073	-0.14
Mof_N 	N 	0.0875	0.709	0.9588	-0.276
Mof_C 	C 	0.794	0.8798	0.1665	-0.068
Mof_N 	N 	0.7217	0.9152	0.2111	-0.391
Mof_C 	C 	0.1977	0.9499	0.0638	-0.009
Mof_N 	N 	0.312	0.922	0.0999	-0.42
Mof_K 	K 	0.52914	0.95298	0.34216	2.059
Mof_Au	Au	0.35092	0.27734	0.13864	-0.156
Mof_C 	C 	0.257	0.3891	0.089	-0.114
Mof_N 	N 	0.201	0.4523	0.0562	-0.44
Mof_C 	C 	0.4488	0.166	0.1808	-0.068
Mof_N 	N 	0.5073	0.1034	0.2041	-0.441
Mof_Au	Au	0.58573	0.31727	0.41153	-0.075
Mof_C 	C 	0.4714	0.2497	0.4927	-0.047
Mof_N 	N 	0.4125	0.209	0.5412	-0.327
Mof_C 	C 	0.706	0.3798	0.3335	-0.081
Mof_N 	N 	0.7783	0.4152	0.2889	-0.403
Mof_C 	C 	0.6977	0.5501	0.5638	-0.079
Mof_N 	N 	0.812	0.578	0.5999	-0.385
Mof_K 	K 	0.02914	0.54702	0.84216	1.731
Mof_Au	Au	0.85092	0.22266	0.63864	-0.094
Mof_C 	C 	0.757	0.1109	0.589	-0.083
Mof_N 	N 	0.701	0.0477	0.5562	-0.445
Mof_C 	C 	0.9488	0.334	0.6808	0.002
Mof_N 	N 	0.0073	0.3966	0.7041	-0.463
Mof_Au	Au	0.08573	0.18273	0.91153	-0.121
Mof_C 	C 	0.9714	0.2503	0.9927	0.093
Mof_N 	N 	0.9125	0.291	0.0412	-0.393
Mof_C 	C 	0.206	0.1202	0.8335	-0.059
Mof_N 	N 	0.2783	0.0848	0.7889	-0.387
Mof_C 	C 	0.8023	0.0501	0.9362	0.026
Mof_N 	N 	0.688	0.078	0.9001	-0.397
Mof_K 	K 	0.47086	0.04702	0.65784	1.698
Mof_Au	Au	0.64908	0.72266	0.86136	-0.055
Mof_C 	C 	0.743	0.6109	0.911	-0.071
Mof_N 	N 	0.799	0.5477	0.9438	-0.396
Mof_C 	C 	0.5512	0.834	0.8192	-0.041
Mof_N 	N 	0.4927	0.8966	0.7959	-0.375
Mof_Au	Au	0.41427	0.68273	0.58847	-0.072
Mof_C 	C 	0.5286	0.7503	0.5073	-0.038
Mof_N 	N 	0.5875	0.791	0.4588	-0.337
Mof_C 	C 	0.294	0.6202	0.6665	-0.081
Mof_N 	N 	0.2217	0.5848	0.7111	-0.397
Mof_Au	Au	0.5	0.5	0.5	-0.101
Mof_Au	Au	-0	0	-0	-0.335
Mof_K 	K 	2.9135e-33	0.5	0.5	1.574
Mof_K 	K 	0.5	0	-0	1.301
_end
