# CIF file generated by openbabel 3.1.0, see https://openbabel.org
data_I
_chemical_name_common 'image0'
_cell_length_a 8.9575
_cell_length_b 19.685
_cell_length_c 25.063
_cell_angle_alpha 90
_cell_angle_beta 96.015
_cell_angle_gamma 90
_space_group_name_H-M_alt 'P 1'
_space_group_name_Hall 'P 1'
loop_
    _symmetry_equiv_pos_as_xyz
    x,y,z
loop_
    _atom_site_label
    _atom_site_type_symbol
    _atom_site_fract_x
    _atom_site_fract_y
    _atom_site_fract_z
    _atom_site_occupancy
    C1       C        0.39000    0.24890    0.98242    1.000
    H1       H        0.30570    0.22720    0.99300    1.000
    C2       C        0.49830    0.21020    0.96240    1.000
    H2       H        0.48730    0.16330    0.96040    1.000
    C3       C        0.62380    0.24050    0.94514    1.000
    C4       C        0.63320    0.31120    0.94987    1.000
    H3       H        0.71530    0.33450    0.93910    1.000
    C5       C        0.51890    0.34570    0.97080    1.000
    H4       H        0.52600    0.39280    0.97330    1.000
    C6       C        0.74060    0.19930    0.92336    1.000
    C7       C        0.70340    0.13810    0.89780    1.000
    H5       H        0.60350    0.12450    0.89250    1.000
    C8       C        0.81310    0.09730    0.88010    1.000
    H6       H        0.78590    0.05630    0.86340    1.000
    C9       C        0.96050    0.11570    0.88646    1.000
    C10      C        0.99880    0.17790    0.90930    1.000
    H7       H        0.09820    0.19230    0.91240    1.000
    C11      C        0.88910    0.21880    0.92758    1.000
    H8       H        0.91630    0.26060    0.94310    1.000
    C12      C        0.04580    0.04490    0.81670    1.000
    C13      C        0.07010    0.97770    0.80587    1.000
    H9       H        0.11020    0.94930    0.83330    1.000
    C14      C        0.03620    0.95160    0.75497    1.000
    H10      H        0.05370    0.90580    0.74900    1.000
    C15      C        0.97700    0.99180    0.71266    1.000
    C16      C        0.94990    0.06000    0.72403    1.000
    H11      H        0.90730    0.08840    0.69690    1.000
    C17      C        0.98560    0.08570    0.77490    1.000
    H12      H        0.96870    0.13150    0.78130    1.000
    C18      C        0.93590    0.96400    0.65902    1.000
    C19      C        0.89600    0.89620    0.65077    1.000
    H13      H        0.89990    0.86660    0.67980    1.000
    C20      C        0.85120    0.87280    0.60040    1.000
    H14      H        0.82310    0.82750    0.59620    1.000
    C21      C        0.88720    0.97590    0.56314    1.000
    H15      H        0.88580    0.00380    0.53310    1.000
    C22      C        0.93290    0.00310    0.61317    1.000
    H16      H        0.96190    0.04840    0.61590    1.000
    C23      C        0.19390    0.05090    0.90538    1.000
    C24      C        0.17980    0.04850    0.95993    1.000
    H17      H        0.08810    0.05910    0.97220    1.000
    C25      C        0.29980    0.03090    0.99618    1.000
    H18      H        0.28870    0.03270    0.03260    1.000
    C26      C        0.43560    0.01050    0.98042    1.000
    C27      C        0.44560    0.00990    0.92529    1.000
    H19      H        0.53410    0.99520    0.91270    1.000
    C28      C        0.32750    0.03040    0.88882    1.000
    H20      H        0.33920    0.03040    0.85240    1.000
    C29      C        0.00170    0.30970    0.04741    1.000
    C30      C        0.87430    0.27100    0.06844    1.000
    C31      C        0.74990    0.30480    0.08485    1.000
    H21      H        0.74390    0.35190    0.08200    1.000
    C32      C        0.63650    0.26960    0.10510    1.000
    H22      H        0.55320    0.29290    0.11490    1.000
    C33      C        0.64440    0.19970    0.11111    1.000
    C34      C        0.76510    0.16660    0.09272    1.000
    H23      H        0.76970    0.11950    0.09460    1.000
    C35      C        0.87820    0.20120    0.07191    1.000
    H24      H        0.95820    0.17740    0.06000    1.000
    C36      C        0.52730    0.16210    0.13677    1.000
    C37      C        0.37810    0.16230    0.11690    1.000
    H25      H        0.34720    0.18700    0.08610    1.000
    C38      C        0.27330    0.12600    0.14230    1.000
    H26      H        0.17310    0.12620    0.12810    1.000
    C39      C        0.31500    0.09010    0.18750    1.000
    H27      H        0.24390    0.06490    0.20340    1.000
    C40      C        0.46230    0.09070    0.21025    1.000
    C41      C        0.56800    0.12540    0.18395    1.000
    H28      H        0.66820    0.12430    0.19800    1.000
    C42      C        0.50850    0.05520    0.26166    1.000
    C43      C        0.44920    0.99570    0.27450    1.000
    H29      H        0.37530    0.97620    0.25050    1.000
    C44      C        0.49360    0.96210    0.32220    1.000
    H30      H        0.45250    0.91990    0.32870    1.000
    C45      C        0.65820    0.05080    0.34730    1.000
    H31      H        0.73070    0.07030    0.37180    1.000
    C46      C        0.61580    0.08370    0.29970    1.000
    H32      H        0.65890    0.12530    0.29280    1.000
    C47      C        0.59600    0.98990    0.35930    1.000
    C48      C        0.65070    0.95390    0.40960    1.000
    N1       N        0.07360    0.07250    0.86876    1.000
    N2       N        0.40030    0.31628    0.98739    1.000
    N3       N        0.84580    0.91238    0.55650    1.000
    O1       O        0.11110    0.28020    0.03463    1.000
    O2       O        0.99110    0.37170    0.04300    1.000
    O3       O        0.65300    0.89180    0.40930    1.000
    O4       O        0.71540    0.98060    0.44670    1.000
    Zn1      Zn       0.22643    0.37169    0.01777    1.000
    C49      C        0.61000    0.74890    0.51758    1.000
    H33      H        0.69430    0.72720    0.50700    1.000
    C50      C        0.50170    0.71020    0.53760    1.000
    H34      H        0.51270    0.66330    0.53960    1.000
    C51      C        0.37620    0.74050    0.55486    1.000
    C52      C        0.36680    0.81120    0.55013    1.000
    H35      H        0.28470    0.83450    0.56090    1.000
    C53      C        0.48110    0.84570    0.52920    1.000
    H36      H        0.47400    0.89280    0.52670    1.000
    C54      C        0.25940    0.69930    0.57664    1.000
    C55      C        0.29660    0.63810    0.60220    1.000
    H37      H        0.39650    0.62450    0.60750    1.000
    C56      C        0.18690    0.59730    0.61990    1.000
    H38      H        0.21410    0.55630    0.63660    1.000
    C57      C        0.03950    0.61570    0.61354    1.000
    C58      C        0.00120    0.67790    0.59070    1.000
    H39      H        0.90180    0.69230    0.58760    1.000
    C59      C        0.11090    0.71880    0.57242    1.000
    H40      H        0.08370    0.76060    0.55690    1.000
    C60      C        0.95420    0.54490    0.68330    1.000
    C61      C        0.92990    0.47770    0.69413    1.000
    H41      H        0.88980    0.44930    0.66670    1.000
    C62      C        0.96380    0.45160    0.74503    1.000
    H42      H        0.94630    0.40580    0.75100    1.000
    C63      C        0.02300    0.49180    0.78734    1.000
    C64      C        0.05010    0.56000    0.77597    1.000
    H43      H        0.09270    0.58840    0.80310    1.000
    C65      C        0.01440    0.58570    0.72510    1.000
    H44      H        0.03130    0.63150    0.71870    1.000
    C66      C        0.06410    0.46400    0.84098    1.000
    C67      C        0.10400    0.39620    0.84923    1.000
    H45      H        0.10010    0.36660    0.82020    1.000
    C68      C        0.14880    0.37280    0.89960    1.000
    H46      H        0.17690    0.32750    0.90380    1.000
    C69      C        0.11280    0.47590    0.93686    1.000
    H47      H        0.11420    0.50380    0.96690    1.000
    C70      C        0.06710    0.50310    0.88683    1.000
    H48      H        0.03810    0.54840    0.88410    1.000
    C71      C        0.80610    0.55090    0.59462    1.000
    C72      C        0.82020    0.54850    0.54007    1.000
    H49      H        0.91190    0.55910    0.52780    1.000
    C73      C        0.70020    0.53090    0.50382    1.000
    H50      H        0.71130    0.53270    0.46740    1.000
    C74      C        0.56440    0.51050    0.51958    1.000
    C75      C        0.55440    0.50990    0.57471    1.000
    H51      H        0.46590    0.49520    0.58730    1.000
    C76      C        0.67250    0.53040    0.61118    1.000
    H52      H        0.66080    0.53040    0.64760    1.000
    C77      C        0.99830    0.80970    0.45259    1.000
    C78      C        0.12570    0.77100    0.43156    1.000
    C79      C        0.25010    0.80480    0.41515    1.000
    H53      H        0.25610    0.85190    0.41800    1.000
    C80      C        0.36350    0.76960    0.39490    1.000
    H54      H        0.44680    0.79290    0.38510    1.000
    C81      C        0.35560    0.69970    0.38889    1.000
    C82      C        0.23490    0.66660    0.40728    1.000
    H55      H        0.23030    0.61950    0.40540    1.000
    C83      C        0.12180    0.70120    0.42809    1.000
    H56      H        0.04180    0.67740    0.44000    1.000
    C84      C        0.47270    0.66210    0.36323    1.000
    C85      C        0.62190    0.66230    0.38310    1.000
    H57      H        0.65280    0.68700    0.41390    1.000
    C86      C        0.72670    0.62600    0.35770    1.000
    H58      H        0.82690    0.62620    0.37190    1.000
    C87      C        0.68500    0.59010    0.31250    1.000
    H59      H        0.75610    0.56490    0.29660    1.000
    C88      C        0.53770    0.59070    0.28975    1.000
    C89      C        0.43200    0.62540    0.31605    1.000
    H60      H        0.33180    0.62430    0.30200    1.000
    C90      C        0.49150    0.55520    0.23834    1.000
    C91      C        0.55080    0.49570    0.22550    1.000
    H61      H        0.62470    0.47620    0.24950    1.000
    C92      C        0.50640    0.46210    0.17780    1.000
    H62      H        0.54750    0.41990    0.17130    1.000
    C93      C        0.34180    0.55080    0.15270    1.000
    H63      H        0.26930    0.57030    0.12820    1.000
    C94      C        0.38420    0.58370    0.20030    1.000
    H64      H        0.34110    0.62530    0.20720    1.000
    C95      C        0.40400    0.48990    0.14070    1.000
    C96      C        0.34930    0.45390    0.09040    1.000
    N4       N        0.92640    0.57250    0.63124    1.000
    N5       N        0.59970    0.81628    0.51261    1.000
    N6       N        0.15420    0.41238    0.94350    1.000
    O5       O        0.88890    0.78020    0.46537    1.000
    O6       O        0.00890    0.87170    0.45700    1.000
    O7       O        0.34700    0.39180    0.09070    1.000
    O8       O        0.28460    0.48060    0.05330    1.000
    Zn2      Zn       0.77357    0.87169    0.48223    1.000
    C97      C        0.61000    0.75110    0.01758    1.000
    H65      H        0.69430    0.77280    0.00700    1.000
    C98      C        0.50170    0.78980    0.03760    1.000
    H66      H        0.51270    0.83670    0.03960    1.000
    C99      C        0.37620    0.75950    0.05486    1.000
    C100     C        0.36680    0.68880    0.05013    1.000
    H67      H        0.28470    0.66550    0.06090    1.000
    C101     C        0.48110    0.65430    0.02920    1.000
    H68      H        0.47400    0.60720    0.02670    1.000
    C102     C        0.25940    0.80070    0.07664    1.000
    C103     C        0.29660    0.86190    0.10220    1.000
    H69      H        0.39650    0.87550    0.10750    1.000
    C104     C        0.18690    0.90270    0.11990    1.000
    H70      H        0.21410    0.94370    0.13660    1.000
    C105     C        0.03950    0.88430    0.11354    1.000
    C106     C        0.00120    0.82210    0.09070    1.000
    H71      H        0.90180    0.80770    0.08760    1.000
    C107     C        0.11090    0.78120    0.07242    1.000
    H72      H        0.08370    0.73940    0.05690    1.000
    C108     C        0.95420    0.95510    0.18330    1.000
    C109     C        0.92990    0.02230    0.19413    1.000
    H73      H        0.88980    0.05070    0.16670    1.000
    C110     C        0.96380    0.04840    0.24503    1.000
    H74      H        0.94630    0.09420    0.25100    1.000
    C111     C        0.02300    0.00820    0.28734    1.000
    C112     C        0.05010    0.94000    0.27597    1.000
    H75      H        0.09270    0.91160    0.30310    1.000
    C113     C        0.01440    0.91430    0.22510    1.000
    H76      H        0.03130    0.86850    0.21870    1.000
    C114     C        0.06410    0.03600    0.34098    1.000
    C115     C        0.10400    0.10380    0.34923    1.000
    H77      H        0.10010    0.13340    0.32020    1.000
    C116     C        0.14880    0.12720    0.39960    1.000
    H78      H        0.17690    0.17250    0.40380    1.000
    C117     C        0.11280    0.02410    0.43686    1.000
    H79      H        0.11420    0.99620    0.46690    1.000
    C118     C        0.06710    0.99690    0.38683    1.000
    H80      H        0.03810    0.95160    0.38410    1.000
    C119     C        0.80610    0.94910    0.09462    1.000
    C120     C        0.82020    0.95150    0.04007    1.000
    H81      H        0.91190    0.94090    0.02780    1.000
    C121     C        0.70020    0.96910    0.00382    1.000
    H82      H        0.71130    0.96730    0.96740    1.000
    C122     C        0.56440    0.98950    0.01958    1.000
    C123     C        0.55440    0.99010    0.07471    1.000
    H83      H        0.46590    0.00480    0.08730    1.000
    C124     C        0.67250    0.96960    0.11118    1.000
    H84      H        0.66080    0.96960    0.14760    1.000
    C125     C        0.99830    0.69030    0.95259    1.000
    C126     C        0.12570    0.72900    0.93156    1.000
    C127     C        0.25010    0.69520    0.91515    1.000
    H85      H        0.25610    0.64810    0.91800    1.000
    C128     C        0.36350    0.73040    0.89490    1.000
    H86      H        0.44680    0.70710    0.88510    1.000
    C129     C        0.35560    0.80030    0.88889    1.000
    C130     C        0.23490    0.83340    0.90728    1.000
    H87      H        0.23030    0.88050    0.90540    1.000
    C131     C        0.12180    0.79880    0.92809    1.000
    H88      H        0.04180    0.82260    0.94000    1.000
    C132     C        0.47270    0.83790    0.86323    1.000
    C133     C        0.62190    0.83770    0.88310    1.000
    H89      H        0.65280    0.81300    0.91390    1.000
    C134     C        0.72670    0.87400    0.85770    1.000
    H90      H        0.82690    0.87380    0.87190    1.000
    C135     C        0.68500    0.90990    0.81250    1.000
    H91      H        0.75610    0.93510    0.79660    1.000
    C136     C        0.53770    0.90930    0.78975    1.000
    C137     C        0.43200    0.87460    0.81605    1.000
    H92      H        0.33180    0.87570    0.80200    1.000
    C138     C        0.49150    0.94480    0.73834    1.000
    C139     C        0.55080    0.00430    0.72550    1.000
    H93      H        0.62470    0.02380    0.74950    1.000
    C140     C        0.50640    0.03790    0.67780    1.000
    H94      H        0.54750    0.08010    0.67130    1.000
    C141     C        0.34180    0.94920    0.65270    1.000
    H95      H        0.26930    0.92970    0.62820    1.000
    C142     C        0.38420    0.91630    0.70030    1.000
    H96      H        0.34110    0.87470    0.70720    1.000
    C143     C        0.40400    0.01010    0.64070    1.000
    C144     C        0.34930    0.04610    0.59040    1.000
    N7       N        0.92640    0.92750    0.13124    1.000
    N8       N        0.59970    0.68372    0.01261    1.000
    N9       N        0.15420    0.08762    0.44350    1.000
    O9       O        0.88890    0.71980    0.96537    1.000
    O10      O        0.00890    0.62830    0.95700    1.000
    O11      O        0.34700    0.10820    0.59070    1.000
    O12      O        0.28460    0.01940    0.55330    1.000
    Zn3      Zn       0.77357    0.62831    0.98223    1.000
    C145     C        0.39000    0.25110    0.48242    1.000
    H97      H        0.30570    0.27280    0.49300    1.000
    C146     C        0.49830    0.28980    0.46240    1.000
    H98      H        0.48730    0.33670    0.46040    1.000
    C147     C        0.62380    0.25950    0.44514    1.000
    C148     C        0.63320    0.18880    0.44987    1.000
    H99      H        0.71530    0.16550    0.43910    1.000
    C149     C        0.51890    0.15430    0.47080    1.000
    H100     H        0.52600    0.10720    0.47330    1.000
    C150     C        0.74060    0.30070    0.42336    1.000
    C151     C        0.70340    0.36190    0.39780    1.000
    H101     H        0.60350    0.37550    0.39250    1.000
    C152     C        0.81310    0.40270    0.38010    1.000
    H102     H        0.78590    0.44370    0.36340    1.000
    C153     C        0.96050    0.38430    0.38646    1.000
    C154     C        0.99880    0.32210    0.40930    1.000
    H103     H        0.09820    0.30770    0.41240    1.000
    C155     C        0.88910    0.28120    0.42758    1.000
    H104     H        0.91630    0.23940    0.44310    1.000
    C156     C        0.04580    0.45510    0.31670    1.000
    C157     C        0.07010    0.52230    0.30587    1.000
    H105     H        0.11020    0.55070    0.33330    1.000
    C158     C        0.03620    0.54840    0.25497    1.000
    H106     H        0.05370    0.59420    0.24900    1.000
    C159     C        0.97700    0.50820    0.21266    1.000
    C160     C        0.94990    0.44000    0.22403    1.000
    H107     H        0.90730    0.41160    0.19690    1.000
    C161     C        0.98560    0.41430    0.27490    1.000
    H108     H        0.96870    0.36850    0.28130    1.000
    C162     C        0.93590    0.53600    0.15902    1.000
    C163     C        0.89600    0.60380    0.15077    1.000
    H109     H        0.89990    0.63340    0.17980    1.000
    C164     C        0.85120    0.62720    0.10040    1.000
    H110     H        0.82310    0.67250    0.09620    1.000
    C165     C        0.88720    0.52410    0.06314    1.000
    H111     H        0.88580    0.49620    0.03310    1.000
    C166     C        0.93290    0.49690    0.11317    1.000
    H112     H        0.96190    0.45160    0.11590    1.000
    C167     C        0.19390    0.44910    0.40538    1.000
    C168     C        0.17980    0.45150    0.45993    1.000
    H113     H        0.08810    0.44090    0.47220    1.000
    C169     C        0.29980    0.46910    0.49618    1.000
    H114     H        0.28870    0.46730    0.53260    1.000
    C170     C        0.43560    0.48950    0.48042    1.000
    C171     C        0.44560    0.49010    0.42529    1.000
    H115     H        0.53410    0.50480    0.41270    1.000
    C172     C        0.32750    0.46960    0.38882    1.000
    H116     H        0.33920    0.46960    0.35240    1.000
    C173     C        0.00170    0.19030    0.54741    1.000
    C174     C        0.87430    0.22900    0.56844    1.000
    C175     C        0.74990    0.19520    0.58485    1.000
    H117     H        0.74390    0.14810    0.58200    1.000
    C176     C        0.63650    0.23040    0.60510    1.000
    H118     H        0.55320    0.20710    0.61490    1.000
    C177     C        0.64440    0.30030    0.61111    1.000
    C178     C        0.76510    0.33340    0.59272    1.000
    H119     H        0.76970    0.38050    0.59460    1.000
    C179     C        0.87820    0.29880    0.57191    1.000
    H120     H        0.95820    0.32260    0.56000    1.000
    C180     C        0.52730    0.33790    0.63677    1.000
    C181     C        0.37810    0.33770    0.61690    1.000
    H121     H        0.34720    0.31300    0.58610    1.000
    C182     C        0.27330    0.37400    0.64230    1.000
    H122     H        0.17310    0.37380    0.62810    1.000
    C183     C        0.31500    0.40990    0.68750    1.000
    H123     H        0.24390    0.43510    0.70340    1.000
    C184     C        0.46230    0.40930    0.71025    1.000
    C185     C        0.56800    0.37460    0.68395    1.000
    H124     H        0.66820    0.37570    0.69800    1.000
    C186     C        0.50850    0.44480    0.76166    1.000
    C187     C        0.44920    0.50430    0.77450    1.000
    H125     H        0.37530    0.52380    0.75050    1.000
    C188     C        0.49360    0.53790    0.82220    1.000
    H126     H        0.45250    0.58010    0.82870    1.000
    C189     C        0.65820    0.44920    0.84730    1.000
    H127     H        0.73070    0.42970    0.87180    1.000
    C190     C        0.61580    0.41630    0.79970    1.000
    H128     H        0.65890    0.37470    0.79280    1.000
    C191     C        0.59600    0.51010    0.85930    1.000
    C192     C        0.65070    0.54610    0.90960    1.000
    N10      N        0.07360    0.42750    0.36876    1.000
    N11      N        0.40030    0.18372    0.48739    1.000
    N12      N        0.84580    0.58762    0.05650    1.000
    O13      O        0.11110    0.21980    0.53463    1.000
    O14      O        0.99110    0.12830    0.54300    1.000
    O15      O        0.65300    0.60820    0.90930    1.000
    O16      O        0.71540    0.51940    0.94670    1.000
    Zn4      Zn       0.22643    0.12831    0.51777    1.000
