# CIF file generated by openbabel 3.1.0, see https://openbabel.org
data_I
_chemical_name_common 'image0'
_cell_length_a 9.5412
_cell_length_b 12.842
_cell_length_c 14.455
_cell_angle_alpha 116.316
_cell_angle_beta 109.199
_cell_angle_gamma 90.15
_space_group_name_H-M_alt 'P 1'
_space_group_name_Hall 'P 1'
loop_
    _symmetry_equiv_pos_as_xyz
    x,y,z
loop_
    _atom_site_label
    _atom_site_type_symbol
    _atom_site_fract_x
    _atom_site_fract_y
    _atom_site_fract_z
    _atom_site_occupancy
    Gd1      Gd       0.76872    0.51858    0.53731    1.000
    O1       O        0.40460    0.63630    0.64800    1.000
    O2       O        0.24200    0.51280    0.64950    1.000
    O3       O        0.32870    0.60510    0.40770    1.000
    O4       O        0.57230    0.60880    0.48650    1.000
    O5       O        0.91500    0.37760    0.48600    1.000
    O6       O        0.07980    0.30100    0.40820    1.000
    C1       C        0.34810    0.59920    0.69700    1.000
    C2       C        0.41180    0.66130    0.82350    1.000
    C3       C        0.45950    0.78290    0.88160    1.000
    H1       H        0.45790    0.82480    0.84280    1.000
    C4       C        0.50960    0.84300    0.99700    1.000
    H2       H        0.53080    0.92500    0.03460    1.000
    C5       C        0.52800    0.77810    0.05620    1.000
    C6       C        0.48320    0.65450    0.99690    1.000
    H3       H        0.49350    0.61070    0.03480    1.000
    C7       C        0.42320    0.59840    0.88130    1.000
    H4       H        0.39040    0.51720    0.84250    1.000
    C8       C        0.67730    0.78060    0.32130    1.000
    H5       H        0.77820    0.81640    0.34070    1.000
    C9       C        0.64350    0.03980    0.31970    1.000
    H6       H        0.56460    0.02430    0.34170    1.000
    N1       N        0.58530    0.83610    0.17210    1.000
    C10      C        0.46190    0.62850    0.41980    1.000
    C11      C        0.49360    0.68510    0.35720    1.000
    C12      C        0.37270    0.68780    0.27080    1.000
    H7       H        0.27420    0.65870    0.25620    1.000
    C13      C        0.40200    0.73330    0.20920    1.000
    H8       H        0.32270    0.73100    0.14960    1.000
    C14      C        0.54980    0.78420    0.23270    1.000
    C15      C        0.64410    0.73040    0.38040    1.000
    H9       H        0.72240    0.72620    0.43680    1.000
    C16      C        0.96200    0.29370    0.42300    1.000
    C17      C        0.86370    0.17190    0.35640    1.000
    C18      C        0.73750    0.15000    0.37950    1.000
    H10      H        0.71620    0.21070    0.43620    1.000
    C19      C        0.67170    0.95070    0.23160    1.000
    C20      C        0.80160    0.97330    0.20690    1.000
    H11      H        0.82070    0.91430    0.14790    1.000
    C21      C        0.89930    0.08450    0.27220    1.000
    H12      H        0.98460    0.09830    0.25880    1.000
    O7       O        0.71600    0.65220    0.70120    1.000
    O8       O        0.98380    0.54710    0.70170    1.000
    O9       O        0.40440    0.51610    0.65180    1.000
    O10      O        0.24510    0.63620    0.64770    1.000
    O11      O        0.91380    0.60460    0.47940    1.000
    O12      O        0.08000    0.60390    0.40770    1.000
    O13      O        0.56800    0.37480    0.48120    1.000
    O14      O        0.32800    0.30050    0.40470    1.000
    H13      H        0.59800    0.81550    0.33880    1.000
    H14      H        0.73750    0.01870    0.34080    1.000
    C22      C        0.95400    0.62320    0.42340    1.000
    C23      C        0.87100    0.68600    0.35910    1.000
    C24      C        0.90400    0.68500    0.27400    1.000
    H15      H        0.98020    0.64880    0.25260    1.000
    C25      C        0.80600    0.74800    0.22000    1.000
    H16      H        0.82860    0.76380    0.16910    1.000
    C26      C        0.74800    0.74400    0.37500    1.000
    H17      H        0.72380    0.75300    0.43480    1.000
    C27      C        0.46700    0.29610    0.42110    1.000
    C28      C        0.48400    0.16700    0.35600    1.000
    C29      C        0.63300    0.13900    0.37400    1.000
    H18      H        0.71710    0.19640    0.42690    1.000
    C30      C        0.40800    0.97400    0.21900    1.000
    H19      H        0.33090    0.90960    0.16770    1.000
    C31      C        0.37800    0.08200    0.27400    1.000
    H20      H        0.27960    0.09550    0.25360    1.000
    C32      C        0.69800    0.77700    0.24300    1.000
    C33      C        0.54400    0.96400    0.23900    1.000
    O15      O        0.71100    0.54510    0.69620    1.000
    O16      O        0.98700    0.64690    0.69500    1.000
    Gd2      Gd       0.23128    0.48142    0.46269    1.000
    O17      O        0.59540    0.36370    0.35200    1.000
    O18      O        0.75800    0.48720    0.35050    1.000
    O19      O        0.67130    0.39490    0.59230    1.000
    O20      O        0.42770    0.39120    0.51350    1.000
    O21      O        0.08500    0.62240    0.51400    1.000
    O22      O        0.92020    0.69900    0.59180    1.000
    C34      C        0.65190    0.40080    0.30300    1.000
    C35      C        0.58820    0.33870    0.17650    1.000
    C36      C        0.54050    0.21710    0.11840    1.000
    H21      H        0.54210    0.17520    0.15720    1.000
    C37      C        0.49040    0.15700    0.00300    1.000
    H22      H        0.46920    0.07500    0.96540    1.000
    C38      C        0.47200    0.22190    0.94380    1.000
    C39      C        0.51680    0.34550    0.00310    1.000
    H23      H        0.50650    0.38930    0.96520    1.000
    C40      C        0.57680    0.40160    0.11870    1.000
    H24      H        0.60960    0.48280    0.15750    1.000
    C41      C        0.32270    0.21940    0.67870    1.000
    H25      H        0.22180    0.18360    0.65930    1.000
    C42      C        0.35650    0.96020    0.68030    1.000
    H26      H        0.43540    0.97570    0.65830    1.000
    N2       N        0.41470    0.16390    0.82790    1.000
    C43      C        0.53810    0.37150    0.58020    1.000
    C44      C        0.50640    0.31490    0.64280    1.000
    C45      C        0.62730    0.31220    0.72920    1.000
    H27      H        0.72580    0.34130    0.74380    1.000
    C46      C        0.59800    0.26670    0.79080    1.000
    H28      H        0.67730    0.26900    0.85040    1.000
    C47      C        0.45020    0.21580    0.76730    1.000
    C48      C        0.35590    0.26960    0.61960    1.000
    H29      H        0.27760    0.27380    0.56320    1.000
    C49      C        0.03800    0.70630    0.57700    1.000
    C50      C        0.13630    0.82810    0.64360    1.000
    C51      C        0.26250    0.85000    0.62050    1.000
    H30      H        0.28380    0.78930    0.56380    1.000
    C52      C        0.32830    0.04930    0.76840    1.000
    C53      C        0.19840    0.02670    0.79310    1.000
    H31      H        0.17930    0.08570    0.85210    1.000
    C54      C        0.10070    0.91550    0.72780    1.000
    H32      H        0.01540    0.90170    0.74120    1.000
    O23      O        0.28400    0.34780    0.29880    1.000
    O24      O        0.01620    0.45290    0.29830    1.000
    O25      O        0.59560    0.48390    0.34820    1.000
    O26      O        0.75490    0.36380    0.35230    1.000
    O27      O        0.08620    0.39540    0.52060    1.000
    O28      O        0.92000    0.39610    0.59230    1.000
    O29      O        0.43200    0.62520    0.51880    1.000
    O30      O        0.67200    0.69950    0.59530    1.000
    H33      H        0.40200    0.18450    0.66120    1.000
    H34      H        0.26250    0.98130    0.65920    1.000
    C55      C        0.04600    0.37680    0.57660    1.000
    C56      C        0.12900    0.31400    0.64090    1.000
    C57      C        0.09600    0.31500    0.72600    1.000
    H35      H        0.01980    0.35120    0.74740    1.000
    C58      C        0.19400    0.25200    0.78000    1.000
    H36      H        0.17140    0.23620    0.83090    1.000
    C59      C        0.25200    0.25600    0.62500    1.000
    H37      H        0.27620    0.24700    0.56520    1.000
    C60      C        0.53300    0.70390    0.57890    1.000
    C61      C        0.51600    0.83300    0.64400    1.000
    C62      C        0.36700    0.86100    0.62600    1.000
    H38      H        0.28290    0.80360    0.57310    1.000
    C63      C        0.59200    0.02600    0.78100    1.000
    H39      H        0.66910    0.09040    0.83230    1.000
    C64      C        0.62200    0.91800    0.72600    1.000
    H40      H        0.72040    0.90450    0.74640    1.000
    C65      C        0.30200    0.22300    0.75700    1.000
    C66      C        0.45600    0.03600    0.76100    1.000
    O31      O        0.28900    0.45490    0.30380    1.000
    O32      O        0.01300    0.35310    0.30500    1.000
