data_functionalizedCrystal
_audit_creation_method	'EQeq! by Chris Wilmer'
_symmetry_space_group_name_H-M	'P1'
_symmetry_Int_Tables_number	1
_symmetry_cell_setting	triclinic
loop_
_symmetry_equiv_pos_as_xyz
  x,y,z
_cell_length_a	12.3982
_cell_length_b	18.8929
_cell_length_c	18.8929
_cell_angle_alpha	64.645
_cell_angle_beta	77.3646
_cell_angle_gamma	102.635
loop_
_atom_site_label
_atom_site_type_symbol
_atom_site_fract_x
_atom_site_fract_y
_atom_site_fract_z
_atom_site_charge
Mof_Fe	Fe	1.55771e-17	0	0.5	0.668
Mof_Fe	Fe	0.5	0.5	0.5	0.75
Mof_Fe	Fe	-0	0.5	-0	0.657
Mof_H 	H 	0.321	0.0724	0.2501	0.088
Mof_H 	H 	0.4033	0.9736	0.3115	-0.004
Mof_H 	H 	0.3193	0.8808	0.4548	0.091
Mof_H 	H 	0.1611	0.8905	0.5329	-0.003
Mof_H 	H 	0.1969	0.2951	0.1029	0.078
Mof_H 	H 	0.171	0.4085	0.009	-0.005
Mof_H 	H 	0.8778	0.365	0.1764	-0.001
Mof_H 	H 	0.8992	0.2514	0.2743	0.077
Mof_H 	H 	0.5711	0.2501	0.6775	0.08
Mof_H 	H 	0.7148	0.3115	0.7149	0.014
Mof_H 	H 	0.7741	0.4548	0.6644	0.088
Mof_H 	H 	0.694	0.5329	0.5766	0.004
Mof_H 	H 	0.2998	0.1029	0.602	0.087
Mof_H 	H 	0.18	0.009	0.5825	-0.01
Mof_H 	H 	0.0542	0.1764	0.4586	-0.009
Mof_H 	H 	0.1735	0.2743	0.4743	0.084
Mof_H 	H 	0.2486	0.6775	0.0724	0.096
Mof_H 	H 	0.4297	0.7149	0.9736	-0.008
Mof_H 	H 	0.4385	0.6644	0.8808	0.1
Mof_H 	H 	0.2706	0.5766	0.8905	-0.002
Mof_H 	H 	0.9018	0.602	0.2951	0.098
Mof_H 	H 	0.7625	0.5825	0.4085	0
Mof_H 	H 	0.5128	0.4586	0.365	-0.002
Mof_H 	H 	0.6478	0.4743	0.2514	0.088
Mof_H 	H 	0.679	0.9276	0.7499	0.072
Mof_H 	H 	0.5967	0.0264	0.6885	0.023
Mof_H 	H 	0.6807	0.1192	0.5452	0.072
Mof_H 	H 	0.8389	0.1095	0.4671	0.014
Mof_H 	H 	0.8031	0.7049	0.8971	0.101
Mof_H 	H 	0.829	0.5915	0.991	0.007
Mof_H 	H 	0.1222	0.635	0.8236	0.005
Mof_H 	H 	0.1008	0.7486	0.7257	0.098
Mof_H 	H 	0.4289	0.7499	0.3225	0.08
Mof_H 	H 	0.2852	0.6885	0.2851	0.005
Mof_H 	H 	0.2259	0.5452	0.3356	0.076
Mof_H 	H 	0.306	0.4671	0.4234	0.001
Mof_H 	H 	0.7002	0.8971	0.398	0.093
Mof_H 	H 	0.82	0.991	0.4175	0.011
Mof_H 	H 	0.9458	0.8236	0.5414	0.012
Mof_H 	H 	0.8265	0.7257	0.5257	0.092
Mof_H 	H 	0.7514	0.3225	0.9276	0.064
Mof_H 	H 	0.5703	0.2851	0.0264	0.027
Mof_H 	H 	0.5615	0.3356	0.1192	0.064
Mof_H 	H 	0.7294	0.4234	0.1095	0.012
Mof_H 	H 	0.0982	0.398	0.7049	0.084
Mof_H 	H 	0.2375	0.4175	0.5915	-0.005
Mof_H 	H 	0.4872	0.5414	0.635	-0
Mof_H 	H 	0.3522	0.5257	0.7486	0.09
Mof_C 	C 	0.13049	0.09511	0.32804	0.075
Mof_C 	C 	0.06792	0.18833	0.26427	0.059
Mof_C 	C 	0.19184	0.03805	0.35723	0.06
Mof_C 	C 	0.28897	0.035	0.30759	-0.175
Mof_C 	C 	0.33781	0.97632	0.34389	0.109
Mof_C 	C 	0.28825	0.92137	0.42922	-0.172
Mof_C 	C 	0.19306	0.9276	0.47532	0.102
Mof_C 	C 	0.05363	0.26053	0.19994	0.026
Mof_C 	C 	0.13168	0.30868	0.11954	-0.136
Mof_C 	C 	0.1153	0.37655	0.06315	0.078
Mof_C 	C 	0.94336	0.35116	0.16148	0.114
Mof_C 	C 	0.95567	0.283	0.22049	-0.098
Mof_C 	C 	0.45853	0.32804	0.57685	0.083
Mof_C 	C 	0.33219	0.26427	0.5474	0.079
Mof_C 	C 	0.54907	0.35723	0.60472	0.067
Mof_C 	C 	0.59656	0.30759	0.65741	-0.127
Mof_C 	C 	0.6817	0.34389	0.67979	0.061
Mof_C 	C 	0.71747	0.42922	0.64941	-0.145
Mof_C 	C 	0.66838	0.47532	0.59708	0.091
Mof_C 	C 	0.25357	0.19994	0.53953	0.071
Mof_C 	C 	0.25122	0.11954	0.57178	-0.154
Mof_C 	C 	0.17845	0.06315	0.5603	0.094
Mof_C 	C 	0.10484	0.16148	0.48736	0.092
Mof_C 	C 	0.17616	0.22049	0.49651	-0.15
Mof_C 	C 	0.03538	0.57685	0.09511	0.016
Mof_C 	C 	0.87959	0.5474	0.18833	0.084
Mof_C 	C 	0.15379	0.60472	0.03805	0.079
Mof_C 	C 	0.25397	0.65741	0.035	-0.203
Mof_C 	C 	0.36149	0.67979	0.97632	0.138
Mof_C 	C 	0.36688	0.64941	0.92137	-0.187
Mof_C 	C 	0.26546	0.59708	0.9276	0.116
Mof_C 	C 	0.7931	0.53953	0.26053	0.076
Mof_C 	C 	0.823	0.57178	0.30868	-0.153
Mof_C 	C 	0.73875	0.5603	0.37655	0.104
Mof_C 	C 	0.5922	0.48736	0.35116	0.098
Mof_C 	C 	0.67267	0.49651	0.283	-0.149
Mof_C 	C 	0.86951	0.90489	0.67196	0.093
Mof_C 	C 	0.93208	0.81167	0.73573	0.101
Mof_C 	C 	0.80816	0.96195	0.64277	0.074
Mof_C 	C 	0.71103	0.965	0.69241	-0.082
Mof_C 	C 	0.66219	0.02368	0.65611	0.008
Mof_C 	C 	0.71175	0.07863	0.57078	-0.118
Mof_C 	C 	0.80694	0.0724	0.52468	0.072
Mof_C 	C 	0.94637	0.73947	0.80006	0.114
Mof_C 	C 	0.86832	0.69132	0.88046	-0.163
Mof_C 	C 	0.8847	0.62345	0.93685	0.117
Mof_C 	C 	0.05664	0.64884	0.83852	0.078
Mof_C 	C 	0.04433	0.717	0.77951	-0.188
Mof_C 	C 	0.54147	0.67196	0.42315	0.083
Mof_C 	C 	0.66781	0.73573	0.4526	0.083
Mof_C 	C 	0.45093	0.64277	0.39528	0.066
Mof_C 	C 	0.40344	0.69241	0.34259	-0.13
Mof_C 	C 	0.3183	0.65611	0.32021	0.057
Mof_C 	C 	0.28253	0.57078	0.35059	-0.149
Mof_C 	C 	0.33162	0.52468	0.40292	0.087
Mof_C 	C 	0.74643	0.80006	0.46047	0.075
Mof_C 	C 	0.74878	0.88046	0.42822	-0.147
Mof_C 	C 	0.82155	0.93685	0.4397	0.103
Mof_C 	C 	0.89516	0.83852	0.51264	0.097
Mof_C 	C 	0.82384	0.77951	0.50349	-0.142
Mof_C 	C 	0.96462	0.42315	0.90489	0.147
Mof_C 	C 	0.12041	0.4526	0.81167	0.077
Mof_C 	C 	0.84621	0.39528	0.96195	0.056
Mof_C 	C 	0.74603	0.34259	0.965	-0.058
Mof_C 	C 	0.63851	0.32021	0.02368	-0.016
Mof_C 	C 	0.63312	0.35059	0.07863	-0.105
Mof_C 	C 	0.73454	0.40292	0.0724	0.059
Mof_C 	C 	0.2069	0.46047	0.73947	0.073
Mof_C 	C 	0.177	0.42822	0.69132	-0.154
Mof_C 	C 	0.26125	0.4397	0.62345	0.099
Mof_C 	C 	0.4078	0.51264	0.64884	0.097
Mof_C 	C 	0.32733	0.50349	0.717	-0.149
Mof_N 	N 	0.03636	0.08737	0.38489	-0.181
Mof_N 	N 	0.99393	0.14699	0.3444	-0.064
Mof_N 	N 	0.15445	0.15856	0.25001	-0.131
Mof_N 	N 	0.14222	0.98507	0.44183	-0.184
Mof_N 	N 	0.02218	0.39977	0.08193	-0.221
Mof_N 	N 	0.42125	0.38489	0.52774	-0.168
Mof_N 	N 	0.33833	0.3444	0.50861	-0.096
Mof_N 	N 	0.40446	0.25001	0.59143	-0.13
Mof_N 	N 	0.58405	0.44183	0.5731	-0.198
Mof_N 	N 	0.10411	0.08193	0.5183	-0.208
Mof_N 	N 	0.94899	0.52774	0.08737	-0.132
Mof_N 	N 	0.84694	0.50861	0.14699	-0.095
Mof_N 	N 	0.99589	0.59143	0.15856	-0.1
Mof_N 	N 	0.15715	0.5731	0.98507	-0.183
Mof_N 	N 	0.62241	0.5183	0.39977	-0.208
Mof_N 	N 	0.96364	0.91263	0.61511	-0.135
Mof_N 	N 	0.00607	0.85301	0.6556	-0.121
Mof_N 	N 	0.84555	0.84144	0.74999	-0.128
Mof_N 	N 	0.85778	0.01493	0.55817	-0.191
Mof_N 	N 	0.97782	0.60023	0.91807	-0.172
Mof_N 	N 	0.57875	0.61511	0.47226	-0.167
Mof_N 	N 	0.66167	0.6556	0.49139	-0.094
Mof_N 	N 	0.59554	0.74999	0.40857	-0.128
Mof_N 	N 	0.41595	0.55817	0.4269	-0.199
Mof_N 	N 	0.89589	0.91807	0.4817	-0.186
Mof_N 	N 	0.05101	0.47226	0.91263	-0.176
Mof_N 	N 	0.15306	0.49139	0.85301	-0.093
Mof_N 	N 	0.00411	0.40857	0.84144	-0.155
Mof_N 	N 	0.84285	0.4269	0.01493	-0.188
Mof_N 	N 	0.37759	0.4817	0.60023	-0.208
_end
