data_functionalizedCrystal
_audit_creation_method	'EQeq! by Chris Wilmer'
_symmetry_space_group_name_H-M	'P1'
_symmetry_Int_Tables_number	1
_symmetry_cell_setting	triclinic
loop_
_symmetry_equiv_pos_as_xyz
  x,y,z
_cell_length_a	11.4884
_cell_length_b	13.6513
_cell_length_c	12.7991
_cell_angle_alpha	90
_cell_angle_beta	100.92
_cell_angle_gamma	90
loop_
_atom_site_label
_atom_site_type_symbol
_atom_site_fract_x
_atom_site_fract_y
_atom_site_fract_z
_atom_site_charge
Mof_C 	C 	0.9674	0.9947	0.6975	-0.041
Mof_C 	C 	0.1602	0.9208	0.6611	-0.016
Mof_C 	C 	0.2156	0.0957	0.5972	-0.017
Mof_C 	C 	0.0262	0.1651	0.6391	-0.037
Mof_C 	C 	0.1501	0.9654	0.869	-0.042
Mof_C 	C 	0.3223	0.0272	0.7824	-0.061
Mof_C 	C 	0.2255	0.1978	0.7925	-0.031
Mof_C 	C 	0.0314	0.1276	0.8386	-0.031
Mof_C 	C 	0.4671	0.9524	0.5015	0.212
Mof_Co	Co	0.69825	0.91562	0.62231	1.114
Mof_Co	Co	0.84265	0.21534	0.96639	1.07
Mof_N 	N 	0.8736	0.9649	0.6788	-0.24
Mof_N 	N 	0.1711	0.8501	0.621	-0.246
Mof_N 	N 	0.2542	0.1122	0.5268	-0.223
Mof_N 	N 	0.9685	0.217	0.5824	-0.241
Mof_N 	N 	0.1565	0.9125	0.9423	-0.248
Mof_N 	N 	0.4235	0.0086	0.8003	-0.122
Mof_N 	N 	0.2663	0.2727	0.8223	-0.239
Mof_N 	N 	0.974	0.1607	0.8921	-0.252
Mof_O 	O 	0.3659	0.9461	0.4447	-0.4
Mof_O 	O 	0.5183	0.8843	0.5576	-0.394
Mof_W 	W 	0.13932	0.06166	0.73581	0.486
Mof_C 	C 	0.0326	0.4947	0.8025	-0.037
Mof_C 	C 	0.8398	0.4208	0.8389	-0.022
Mof_C 	C 	0.7844	0.5957	0.9028	-0.018
Mof_C 	C 	0.9738	0.6651	0.8609	-0.042
Mof_C 	C 	0.8499	0.4654	0.631	-0.048
Mof_C 	C 	0.6777	0.5272	0.7176	-0.06
Mof_C 	C 	0.7745	0.6978	0.7075	-0.031
Mof_C 	C 	0.9686	0.6276	0.6614	-0.034
Mof_C 	C 	0.5329	0.4524	0.9985	0.212
Mof_Co	Co	0.30175	0.41562	0.87769	1.114
Mof_Co	Co	0.15735	0.71534	0.53361	1.072
Mof_N 	N 	0.1264	0.4649	0.8212	-0.24
Mof_N 	N 	0.8289	0.3501	0.879	-0.246
Mof_N 	N 	0.7458	0.6122	0.9732	-0.223
Mof_N 	N 	0.0315	0.717	0.9176	-0.236
Mof_N 	N 	0.8435	0.4125	0.5577	-0.25
Mof_N 	N 	0.5765	0.5086	0.6997	-0.121
Mof_N 	N 	0.7337	0.7727	0.6777	-0.239
Mof_N 	N 	0.026	0.6607	0.6079	-0.248
Mof_O 	O 	0.6341	0.4461	0.0553	-0.398
Mof_O 	O 	0.4817	0.3843	0.9424	-0.395
Mof_W 	W 	0.86068	0.56166	0.76419	0.491
Mof_C 	C 	0.0326	0.0053	0.3025	-0.042
Mof_C 	C 	0.8398	0.0792	0.3389	-0.017
Mof_C 	C 	0.7844	0.9043	0.4028	-0.018
Mof_C 	C 	0.9738	0.8349	0.3609	-0.038
Mof_C 	C 	0.8499	0.0346	0.131	-0.042
Mof_C 	C 	0.6777	0.9728	0.2176	-0.061
Mof_C 	C 	0.7745	0.8022	0.2075	-0.031
Mof_C 	C 	0.9686	0.8724	0.1614	-0.031
Mof_C 	C 	0.5329	0.0476	0.4985	0.212
Mof_Co	Co	0.30175	0.08438	0.37769	1.114
Mof_Co	Co	0.15735	0.78466	0.03361	1.07
Mof_N 	N 	0.1264	0.0351	0.3212	-0.24
Mof_N 	N 	0.8289	0.1499	0.379	-0.246
Mof_N 	N 	0.7458	0.8878	0.4732	-0.223
Mof_N 	N 	0.0315	0.783	0.4176	-0.241
Mof_N 	N 	0.8435	0.0875	0.0577	-0.248
Mof_N 	N 	0.5765	0.9914	0.1997	-0.122
Mof_N 	N 	0.7337	0.7273	0.1777	-0.239
Mof_N 	N 	0.026	0.8393	0.1079	-0.252
Mof_O 	O 	0.6341	0.0539	0.5553	-0.4
Mof_O 	O 	0.4817	0.1157	0.4424	-0.394
Mof_W 	W 	0.86068	0.93834	0.26419	0.486
Mof_C 	C 	0.9674	0.5053	0.1975	-0.037
Mof_C 	C 	0.1602	0.5792	0.1611	-0.022
Mof_C 	C 	0.2156	0.4043	0.0972	-0.018
Mof_C 	C 	0.0262	0.3349	0.1391	-0.042
Mof_C 	C 	0.1501	0.5346	0.369	-0.048
Mof_C 	C 	0.3223	0.4728	0.2824	-0.06
Mof_C 	C 	0.2255	0.3022	0.2925	-0.031
Mof_C 	C 	0.0314	0.3724	0.3386	-0.034
Mof_C 	C 	0.4671	0.5476	0.0015	0.212
Mof_Co	Co	0.69825	0.58438	0.12231	1.114
Mof_Co	Co	0.84265	0.28466	0.46639	1.072
Mof_N 	N 	0.8736	0.5351	0.1788	-0.24
Mof_N 	N 	0.1711	0.6499	0.121	-0.246
Mof_N 	N 	0.2542	0.3878	0.0268	-0.223
Mof_N 	N 	0.9685	0.283	0.0824	-0.236
Mof_N 	N 	0.1565	0.5875	0.4423	-0.25
Mof_N 	N 	0.4235	0.4914	0.3003	-0.121
Mof_N 	N 	0.2663	0.2273	0.3223	-0.239
Mof_N 	N 	0.974	0.3393	0.3921	-0.248
Mof_O 	O 	0.3659	0.5539	0.9447	-0.398
Mof_O 	O 	0.5183	0.6157	0.0576	-0.395
Mof_W 	W 	0.13932	0.43834	0.23581	0.491
_end
