data_functionalizedCrystal
_audit_creation_method	'EQeq! by Chris Wilmer'
_symmetry_space_group_name_H-M	'P1'
_symmetry_Int_Tables_number	1
_symmetry_cell_setting	triclinic
loop_
_symmetry_equiv_pos_as_xyz
  x,y,z
_cell_length_a	10.8637
_cell_length_b	6.3883
_cell_length_c	16.963
_cell_angle_alpha	90
_cell_angle_beta	105.757
_cell_angle_gamma	90
loop_
_atom_site_label
_atom_site_type_symbol
_atom_site_fract_x
_atom_site_fract_y
_atom_site_fract_z
_atom_site_charge
Mof_Co	Co	0.53459	0.00311	0.91606	1.117
Mof_C 	C 	0.6686	0.183	0.6636	0.374
Mof_C 	C 	0.7768	0.1203	0.7357	-0.099
Mof_C 	C 	0.8341	0.9232	0.7391	-0.033
Mof_H 	H 	0.8034	0.8278	0.6969	0.049
Mof_C 	C 	0.9354	0.8692	0.8042	0.081
Mof_H 	H 	0.974	0.739	0.8049	0.016
Mof_C 	C 	0.9805	0.0069	0.8688	-0.229
Mof_H 	H 	0.05	0.9703	0.9123	0.154
Mof_C 	C 	0.922	0.1974	0.8683	0.111
Mof_C 	C 	0.8218	0.2557	0.8008	-0.088
Mof_H 	H 	0.7849	0.3874	0.7998	0.062
Mof_C 	C 	0.0858	0.4302	0.9599	0.134
Mof_H 	H 	0.145	0.3827	0.9333	-0.009
Mof_C 	C 	0.9634	0.346	0.9382	-0.08
Mof_C 	C 	0.877	0.4165	0.9799	0.057
Mof_C 	C 	0.7428	0.3301	0.9643	0.319
Mof_O 	O 	0.6144	0.0393	0.61852	-0.482
Mof_O 	O 	0.6391	0.3742	0.65413	-0.464
Mof_O 	O 	0.7243	0.1368	0.96606	-0.411
Mof_O 	O 	0.656	0.466	0.95189	-0.421
Mof_O 	O 	0.4444	0.1902	0.98306	-0.753
Mof_H 	H 	0.3653	0.1902	0.9577	0.269
Mof_Co	Co	0.46541	0.50311	0.58394	1.121
Mof_C 	C 	0.3314	0.683	0.8364	0.368
Mof_C 	C 	0.2232	0.6203	0.7643	-0.078
Mof_C 	C 	0.1659	0.4232	0.7609	-0.044
Mof_H 	H 	0.1966	0.3278	0.8031	0.041
Mof_C 	C 	0.0646	0.3692	0.6958	-0.003
Mof_H 	H 	0.026	0.239	0.6951	0.025
Mof_C 	C 	0.0195	0.5069	0.6312	-0.128
Mof_H 	H 	0.95	0.4703	0.5877	0.093
Mof_C 	C 	0.078	0.6974	0.6317	0.064
Mof_C 	C 	0.1782	0.7557	0.6992	-0.071
Mof_H 	H 	0.2151	0.8874	0.7002	0.062
Mof_C 	C 	0.9142	0.9302	0.5401	0.089
Mof_H 	H 	0.855	0.8827	0.5667	0.008
Mof_C 	C 	0.0366	0.846	0.5618	-0.055
Mof_C 	C 	0.123	0.9165	0.5201	0.004
Mof_C 	C 	0.2572	0.8301	0.5357	0.33
Mof_O 	O 	0.3856	0.5393	0.88148	-0.446
Mof_O 	O 	0.3609	0.8742	0.84587	-0.438
Mof_O 	O 	0.2757	0.6368	0.53394	-0.43
Mof_O 	O 	0.344	0.966	0.54811	-0.432
Mof_O 	O 	0.5556	0.6902	0.51694	-0.774
Mof_H 	H 	0.6347	0.6902	0.5423	0.275
Mof_Co	Co	0.46541	0.99689	0.08394	1.125
Mof_C 	C 	0.3314	0.817	0.3364	0.389
Mof_C 	C 	0.2232	0.8797	0.2643	-0.129
Mof_C 	C 	0.1659	0.0768	0.2609	0.036
Mof_H 	H 	0.1966	0.1722	0.3031	0.007
Mof_C 	C 	0.0646	0.1308	0.1958	-0.191
Mof_H 	H 	0.026	0.261	0.1951	0.095
Mof_C 	C 	0.0195	0.9931	0.1312	0.119
Mof_H 	H 	0.95	0.0297	0.0877	-0.028
Mof_C 	C 	0.078	0.8026	0.1317	-0.107
Mof_C 	C 	0.1782	0.7443	0.1992	0.038
Mof_H 	H 	0.2151	0.6126	0.2002	0.016
Mof_C 	C 	0.9142	0.5698	0.0401	-0.208
Mof_H 	H 	0.855	0.6173	0.0667	0.091
Mof_C 	C 	0.0366	0.654	0.0618	0.143
Mof_C 	C 	0.123	0.5835	0.0201	-0.246
Mof_C 	C 	0.2572	0.6699	0.0357	0.404
Mof_O 	O 	0.3856	0.9607	0.38148	-0.45
Mof_O 	O 	0.3609	0.6258	0.34587	-0.466
Mof_O 	O 	0.2757	0.8632	0.03394	-0.464
Mof_O 	O 	0.344	0.534	0.04811	-0.488
Mof_O 	O 	0.5556	0.8098	0.01694	-0.803
Mof_H 	H 	0.6347	0.8098	0.0423	0.27
Mof_Co	Co	0.53459	0.49689	0.41606	1.123
Mof_C 	C 	0.6686	0.317	0.1636	0.393
Mof_C 	C 	0.7768	0.3797	0.2357	-0.149
Mof_C 	C 	0.8341	0.5768	0.2391	0.044
Mof_H 	H 	0.8034	0.6722	0.1969	0.016
Mof_C 	C 	0.9354	0.6308	0.3042	-0.109
Mof_H 	H 	0.974	0.761	0.3049	0.085
Mof_C 	C 	0.9805	0.4931	0.3688	0.021
Mof_H 	H 	0.05	0.5297	0.4123	0.029
Mof_C 	C 	0.922	0.3026	0.3683	-0.062
Mof_C 	C 	0.8218	0.2443	0.3008	0.021
Mof_H 	H 	0.7849	0.1126	0.2998	0.017
Mof_C 	C 	0.0858	0.0698	0.4599	-0.167
Mof_H 	H 	0.145	0.1173	0.4333	0.075
Mof_C 	C 	0.9634	0.154	0.4382	0.121
Mof_C 	C 	0.877	0.0835	0.4799	-0.192
Mof_C 	C 	0.7428	0.1699	0.4643	0.394
Mof_O 	O 	0.6144	0.4607	0.11852	-0.481
Mof_O 	O 	0.6391	0.1258	0.15413	-0.488
Mof_O 	O 	0.7243	0.3632	0.46606	-0.447
Mof_O 	O 	0.656	0.034	0.45189	-0.481
Mof_O 	O 	0.4444	0.3098	0.48306	-0.786
Mof_H 	H 	0.3653	0.3098	0.4577	0.265
Mof_Co	Co	0.5	0.5	-0	1.169
Mof_Co	Co	0.5	0	0.5	1.181
_end
