data_functionalizedCrystal
_audit_creation_method	'EQeq! by Chris Wilmer'
_symmetry_space_group_name_H-M	'P1'
_symmetry_Int_Tables_number	1
_symmetry_cell_setting	triclinic
loop_
_symmetry_equiv_pos_as_xyz
  x,y,z
_cell_length_a	23.2598
_cell_length_b	19.1365
_cell_length_c	11.8928
_cell_angle_alpha	90
_cell_angle_beta	90
_cell_angle_gamma	90
loop_
_atom_site_label
_atom_site_type_symbol
_atom_site_fract_x
_atom_site_fract_y
_atom_site_fract_z
_atom_site_charge
Mof_O 	O 	0.3182	0.9172	0.7908	-0.491
Mof_O 	O 	0.3742	0.8425	0.8787	-0.551
Mof_O 	O 	0.4905	0.163	0.1044	-0.422
Mof_O 	O 	0.4838	0.8376	0.3892	-0.42
Mof_O 	O 	0.3799	0.1601	0.6331	-0.583
Mof_O 	O 	0.3187	0.0849	0.7053	-0.558
Mof_C 	C 	0.3639	0.0993	0.6528	0.538
Mof_C 	C 	0.4874	0.8575	0.4907	0.295
Mof_C 	C 	0.4554	0.9199	0.531	-0.014
Mof_O 	O 	0.5245	0.1736	0.9342	-0.445
Mof_O 	O 	0.2822	0.0401	0.9227	-0.27
Mof_C 	C 	0.3995	0.0382	0.6112	-0.286
Mof_C 	C 	0.4553	0.0652	0.8503	-0.028
Mof_H 	H 	0.4739	0.0941	0.799	0.041
Mof_C 	C 	0.4524	0.9334	0.6464	-0.138
Mof_H 	H 	0.4695	0.9024	0.6964	0.087
Mof_C 	C 	0.3984	0.9634	0.8896	-0.115
Mof_C 	C 	0.4247	0.9916	0.6875	0.188
Mof_C 	C 	0.4584	0.0803	0.9647	-0.03
Mof_C 	C 	0.4029	0.9772	0.0042	0.128
Mof_H 	H 	0.3862	0.9469	0.0559	0.001
Mof_C 	C 	0.4249	0.0073	0.8118	-0.083
Mof_C 	C 	0.3616	0.9029	0.8503	0.498
Mof_C 	C 	0.4319	0.0355	0.0416	-0.145
Mof_H 	H 	0.4338	0.045	0.1181	0.082
Mof_O 	O 	0.5199	0.8242	0.557	-0.444
Mof_C 	C 	0.4926	0.142	0.0032	0.3
Mof_C 	C 	0.403	0.0262	0.4963	0.017
Mof_H 	H 	0.387	0.0579	0.446	-0.006
Mof_C 	C 	0.4306	0.9662	0.4564	-0.036
Mof_H 	H 	0.4322	0.9575	0.3795	0.065
Mof_O 	O 	0.6818	0.4172	0.2092	-0.532
Mof_O 	O 	0.6258	0.3425	0.1213	-0.562
Mof_O 	O 	0.5095	0.663	0.8956	-0.421
Mof_O 	O 	0.5162	0.3376	0.6108	-0.423
Mof_O 	O 	0.6201	0.6601	0.3669	-0.579
Mof_O 	O 	0.6813	0.5849	0.2947	-0.562
Mof_C 	C 	0.6361	0.5993	0.3472	0.525
Mof_C 	C 	0.5126	0.3575	0.5093	0.296
Mof_C 	C 	0.5446	0.4199	0.469	-0.025
Mof_O 	O 	0.4755	0.6736	0.0658	-0.442
Mof_O 	O 	0.7178	0.5401	0.0773	-0.268
Mof_C 	C 	0.6005	0.5382	0.3888	-0.222
Mof_C 	C 	0.5447	0.5652	0.1497	-0.076
Mof_H 	H 	0.5261	0.5941	0.201	0.063
Mof_C 	C 	0.5476	0.4334	0.3536	-0.09
Mof_H 	H 	0.5305	0.4024	0.3036	0.064
Mof_C 	C 	0.6016	0.4634	0.1104	-0.192
Mof_C 	C 	0.5753	0.4916	0.3125	0.052
Mof_C 	C 	0.5416	0.5803	0.0353	-0.02
Mof_C 	C 	0.5971	0.4772	0.9958	0.083
Mof_H 	H 	0.6138	0.4469	0.9441	0.004
Mof_C 	C 	0.5751	0.5073	0.1882	0.052
Mof_C 	C 	0.6384	0.4029	0.1497	0.526
Mof_C 	C 	0.5681	0.5355	0.9584	-0.086
Mof_H 	H 	0.5662	0.545	0.8819	0.075
Mof_O 	O 	0.4801	0.3242	0.443	-0.447
Mof_C 	C 	0.5074	0.642	0.9968	0.299
Mof_C 	C 	0.597	0.5262	0.5037	0.063
Mof_H 	H 	0.613	0.5579	0.554	-0.014
Mof_C 	C 	0.5694	0.4662	0.5436	-0.098
Mof_H 	H 	0.5678	0.4575	0.6205	0.072
Mof_O 	O 	0.8182	0.5828	0.2092	-0.531
Mof_O 	O 	0.8742	0.6575	0.1213	-0.561
Mof_O 	O 	0.9905	0.337	0.8956	-0.421
Mof_O 	O 	0.9838	0.6624	0.6108	-0.421
Mof_O 	O 	0.8799	0.3399	0.3669	-0.58
Mof_O 	O 	0.8187	0.4151	0.2947	-0.563
Mof_C 	C 	0.8639	0.4007	0.3472	0.525
Mof_C 	C 	0.9874	0.6425	0.5093	0.295
Mof_C 	C 	0.9554	0.5801	0.469	-0.023
Mof_O 	O 	0.0245	0.3264	0.0658	-0.442
Mof_O 	O 	0.7822	0.4599	0.0773	-0.269
Mof_C 	C 	0.8995	0.4618	0.3888	-0.223
Mof_C 	C 	0.9553	0.4348	0.1497	-0.071
Mof_H 	H 	0.9739	0.4059	0.201	0.061
Mof_C 	C 	0.9524	0.5666	0.3536	-0.091
Mof_H 	H 	0.9695	0.5976	0.3036	0.064
Mof_C 	C 	0.8984	0.5366	0.1104	-0.192
Mof_C 	C 	0.9247	0.5084	0.3125	0.054
Mof_C 	C 	0.9584	0.4197	0.0353	-0.03
Mof_C 	C 	0.9029	0.5228	0.9958	0.082
Mof_H 	H 	0.8862	0.5531	0.9441	0.006
Mof_C 	C 	0.9249	0.4927	0.1882	0.05
Mof_C 	C 	0.8616	0.5971	0.1497	0.525
Mof_C 	C 	0.9319	0.4645	0.9584	-0.078
Mof_H 	H 	0.9338	0.455	0.8819	0.072
Mof_O 	O 	0.0199	0.6758	0.443	-0.445
Mof_C 	C 	0.9926	0.358	0.9968	0.305
Mof_C 	C 	0.903	0.4738	0.5037	0.064
Mof_H 	H 	0.887	0.4421	0.554	-0.015
Mof_C 	C 	0.9306	0.5338	0.5436	-0.099
Mof_H 	H 	0.9322	0.5425	0.6205	0.073
Mof_O 	O 	0.1818	0.0828	0.7908	-0.53
Mof_O 	O 	0.1258	0.1575	0.8787	-0.565
Mof_O 	O 	0.0095	0.837	0.1044	-0.419
Mof_O 	O 	0.0162	0.1624	0.3892	-0.424
Mof_O 	O 	0.1201	0.8399	0.6331	-0.57
Mof_O 	O 	0.1813	0.9151	0.7053	-0.524
Mof_C 	C 	0.1361	0.9007	0.6528	0.497
Mof_C 	C 	0.0126	0.1425	0.4907	0.297
Mof_C 	C 	0.0446	0.0801	0.531	-0.035
Mof_O 	O 	0.9755	0.8264	0.9342	-0.44
Mof_O 	O 	0.2178	0.9599	0.9227	-0.215
Mof_C 	C 	0.1005	0.9618	0.6112	-0.147
Mof_C 	C 	0.0447	0.9348	0.8503	-0.117
Mof_H 	H 	0.0261	0.9059	0.799	0.083
Mof_C 	C 	0.0476	0.0666	0.6464	-0.04
Mof_H 	H 	0.0305	0.0976	0.6964	0.041
Mof_C 	C 	0.1016	0.0366	0.8896	-0.258
Mof_C 	C 	0.0753	0.0084	0.6875	-0.081
Mof_C 	C 	0.0416	0.9197	0.9647	-0.022
Mof_C 	C 	0.0971	0.0228	0.0042	0.033
Mof_H 	H 	0.1138	0.0531	0.0559	0.014
Mof_C 	C 	0.0751	0.9927	0.8118	0.183
Mof_C 	C 	0.1384	0.0971	0.8503	0.539
Mof_C 	C 	0.0681	0.9645	0.0416	-0.015
Mof_H 	H 	0.0662	0.955	0.1181	0.064
Mof_O 	O 	0.9801	0.1758	0.557	-0.448
Mof_C 	C 	0.0074	0.858	0.0032	0.304
Mof_C 	C 	0.097	0.9738	0.4963	0.106
Mof_H 	H 	0.113	0.9421	0.446	-0.017
Mof_C 	C 	0.0694	0.0338	0.4564	-0.156
Mof_H 	H 	0.0678	0.0425	0.3795	0.08
Mof_O 	O 	0.6818	0.0828	0.2092	-0.53
Mof_O 	O 	0.6258	0.1575	0.1213	-0.565
Mof_O 	O 	0.5095	0.837	0.8956	-0.42
Mof_O 	O 	0.5162	0.1624	0.6108	-0.425
Mof_O 	O 	0.6201	0.8399	0.3669	-0.57
Mof_O 	O 	0.6813	0.9151	0.2947	-0.524
Mof_C 	C 	0.6361	0.9007	0.3472	0.497
Mof_C 	C 	0.5126	0.1425	0.5093	0.297
Mof_C 	C 	0.5446	0.0801	0.469	-0.035
Mof_O 	O 	0.4755	0.8264	0.0658	-0.441
Mof_O 	O 	0.7178	0.9599	0.0773	-0.215
Mof_C 	C 	0.6005	0.9618	0.3888	-0.146
Mof_C 	C 	0.5447	0.9348	0.1497	-0.122
Mof_H 	H 	0.5261	0.9059	0.201	0.085
Mof_C 	C 	0.5476	0.0666	0.3536	-0.039
Mof_H 	H 	0.5305	0.0976	0.3036	0.042
Mof_C 	C 	0.6016	0.0366	0.1104	-0.258
Mof_C 	C 	0.5753	0.0084	0.3125	-0.083
Mof_C 	C 	0.5416	0.9197	0.0353	-0.012
Mof_C 	C 	0.5971	0.0228	0.9958	0.033
Mof_H 	H 	0.6138	0.0531	0.9441	0.013
Mof_C 	C 	0.5751	0.9927	0.1882	0.186
Mof_C 	C 	0.6384	0.0971	0.1497	0.539
Mof_C 	C 	0.5681	0.9645	0.9584	-0.022
Mof_H 	H 	0.5662	0.955	0.8819	0.066
Mof_O 	O 	0.4801	0.1758	0.443	-0.449
Mof_C 	C 	0.5074	0.858	0.9968	0.298
Mof_C 	C 	0.597	0.9738	0.5037	0.106
Mof_H 	H 	0.613	0.9421	0.554	-0.017
Mof_C 	C 	0.5694	0.0338	0.5436	-0.156
Mof_H 	H 	0.5678	0.0425	0.6205	0.079
Mof_O 	O 	0.3182	0.5828	0.7908	-0.532
Mof_O 	O 	0.3742	0.6575	0.8787	-0.561
Mof_O 	O 	0.4905	0.337	0.1044	-0.422
Mof_O 	O 	0.4838	0.6624	0.3892	-0.422
Mof_O 	O 	0.3799	0.3399	0.6331	-0.58
Mof_O 	O 	0.3187	0.4151	0.7053	-0.563
Mof_C 	C 	0.3639	0.4007	0.6528	0.525
Mof_C 	C 	0.4874	0.6425	0.4907	0.296
Mof_C 	C 	0.4554	0.5801	0.531	-0.024
Mof_O 	O 	0.5245	0.3264	0.9342	-0.443
Mof_O 	O 	0.2822	0.4599	0.9227	-0.269
Mof_C 	C 	0.3995	0.4618	0.6112	-0.223
Mof_C 	C 	0.4553	0.4348	0.8503	-0.076
Mof_H 	H 	0.4739	0.4059	0.799	0.063
Mof_C 	C 	0.4524	0.5666	0.6464	-0.09
Mof_H 	H 	0.4695	0.5976	0.6964	0.065
Mof_C 	C 	0.3984	0.5366	0.8896	-0.191
Mof_C 	C 	0.4247	0.5084	0.6875	0.053
Mof_C 	C 	0.4584	0.4197	0.9647	-0.02
Mof_C 	C 	0.4029	0.5228	0.0042	0.083
Mof_H 	H 	0.3862	0.5531	0.0559	0.005
Mof_C 	C 	0.4249	0.4927	0.8118	0.052
Mof_C 	C 	0.3616	0.5971	0.8503	0.526
Mof_C 	C 	0.4319	0.4645	0.0416	-0.086
Mof_H 	H 	0.4338	0.455	0.1181	0.074
Mof_O 	O 	0.5199	0.6758	0.557	-0.446
Mof_C 	C 	0.4926	0.358	0.0032	0.299
Mof_C 	C 	0.403	0.4738	0.4963	0.064
Mof_H 	H 	0.387	0.4421	0.446	-0.015
Mof_C 	C 	0.4306	0.5338	0.4564	-0.099
Mof_H 	H 	0.4322	0.5425	0.3795	0.073
Mof_O 	O 	0.1818	0.4172	0.7908	-0.532
Mof_O 	O 	0.1258	0.3425	0.8787	-0.561
Mof_O 	O 	0.0095	0.663	0.1044	-0.421
Mof_O 	O 	0.0162	0.3376	0.3892	-0.422
Mof_O 	O 	0.1201	0.6601	0.6331	-0.579
Mof_O 	O 	0.1813	0.5849	0.7053	-0.562
Mof_C 	C 	0.1361	0.5993	0.6528	0.525
Mof_C 	C 	0.0126	0.3575	0.4907	0.295
Mof_C 	C 	0.0446	0.4199	0.531	-0.024
Mof_O 	O 	0.9755	0.6736	0.9342	-0.442
Mof_O 	O 	0.2178	0.5401	0.9227	-0.268
Mof_C 	C 	0.1005	0.5382	0.6112	-0.223
Mof_C 	C 	0.0447	0.5652	0.8503	-0.072
Mof_H 	H 	0.0261	0.5941	0.799	0.061
Mof_C 	C 	0.0476	0.4334	0.6464	-0.091
Mof_H 	H 	0.0305	0.4024	0.6964	0.064
Mof_C 	C 	0.1016	0.4634	0.8896	-0.192
Mof_C 	C 	0.0753	0.4916	0.6875	0.053
Mof_C 	C 	0.0416	0.5803	0.9647	-0.03
Mof_C 	C 	0.0971	0.4772	0.0042	0.082
Mof_H 	H 	0.1138	0.4469	0.0559	0.005
Mof_C 	C 	0.0751	0.5073	0.8118	0.05
Mof_C 	C 	0.1384	0.4029	0.8503	0.525
Mof_C 	C 	0.0681	0.5355	0.0416	-0.078
Mof_H 	H 	0.0662	0.545	0.1181	0.072
Mof_O 	O 	0.9801	0.3242	0.557	-0.446
Mof_C 	C 	0.0074	0.642	0.0032	0.305
Mof_C 	C 	0.097	0.5262	0.4963	0.063
Mof_H 	H 	0.113	0.5579	0.446	-0.014
Mof_C 	C 	0.0694	0.4662	0.4564	-0.099
Mof_H 	H 	0.0678	0.4575	0.3795	0.073
Mof_O 	O 	0.8182	0.9172	0.2092	-0.492
Mof_O 	O 	0.8742	0.8425	0.1213	-0.552
Mof_O 	O 	0.9905	0.163	0.8956	-0.423
Mof_O 	O 	0.9838	0.8376	0.6108	-0.42
Mof_O 	O 	0.8799	0.1601	0.3669	-0.583
Mof_O 	O 	0.8187	0.0849	0.2947	-0.558
Mof_C 	C 	0.8639	0.0993	0.3472	0.538
Mof_C 	C 	0.9874	0.8575	0.5093	0.295
Mof_C 	C 	0.9554	0.9199	0.469	-0.014
Mof_O 	O 	0.0245	0.1736	0.0658	-0.444
Mof_O 	O 	0.7822	0.0401	0.0773	-0.27
Mof_C 	C 	0.8995	0.0382	0.3888	-0.286
Mof_C 	C 	0.9553	0.0652	0.1497	-0.024
Mof_H 	H 	0.9739	0.0941	0.201	0.039
Mof_C 	C 	0.9524	0.9334	0.3536	-0.138
Mof_H 	H 	0.9695	0.9024	0.3036	0.087
Mof_C 	C 	0.8984	0.9634	0.1104	-0.116
Mof_C 	C 	0.9247	0.9916	0.3125	0.187
Mof_C 	C 	0.9584	0.0803	0.0353	-0.039
Mof_C 	C 	0.9029	0.9772	0.9958	0.127
Mof_H 	H 	0.8862	0.9469	0.9441	0.002
Mof_C 	C 	0.9249	0.0073	0.1882	-0.083
Mof_C 	C 	0.8616	0.9029	0.1497	0.498
Mof_C 	C 	0.9319	0.0355	0.9584	-0.136
Mof_H 	H 	0.9338	0.045	0.8819	0.08
Mof_O 	O 	0.0199	0.8242	0.443	-0.443
Mof_C 	C 	0.9926	0.142	0.9968	0.306
Mof_C 	C 	0.903	0.0262	0.5037	0.018
Mof_H 	H 	0.887	0.0579	0.554	-0.006
Mof_C 	C 	0.9306	0.9662	0.5436	-0.037
Mof_H 	H 	0.9322	0.9575	0.6205	0.066
Mof_Tb	Tb	0.43956	0.25	0.584	1.953
Mof_Tb	Tb	0.56628	0.25	0.07226	1.918
Mof_Tb	Tb	0.56044	0.75	0.416	1.954
Mof_Tb	Tb	0.43372	0.75	0.92774	1.919
Mof_Tb	Tb	0.93956	0.25	0.416	1.951
Mof_Tb	Tb	0.06628	0.25	0.92774	1.909
Mof_Tb	Tb	0.06044	0.75	0.584	1.952
Mof_Tb	Tb	0.93372	0.75	0.07226	1.91
Mof_Tb	Tb	0.25	0	0.7339	1.842
Mof_O 	O 	0.25	5.96084e-34	0.0782	-0.152
Mof_N 	N 	0.25	0	0.9772	0.043
Mof_Tb	Tb	0.75	0.5	0.2661	1.972
Mof_O 	O 	0.75	0.5	0.9218	-0.133
Mof_N 	N 	0.75	0.5	0.0228	0.068
Mof_Tb	Tb	0.75	0	0.2661	1.843
Mof_O 	O 	0.75	0	0.9218	-0.152
Mof_N 	N 	0.75	-1.49021e-34	0.0228	0.043
Mof_Tb	Tb	0.25	0.5	0.7339	1.972
Mof_O 	O 	0.25	0.5	0.0782	-0.133
Mof_N 	N 	0.25	0.5	0.9772	0.068
_end
