# CIF file generated by openbabel 3.1.0, see https://openbabel.org
data_I
_chemical_name_common 'image0'
_cell_length_a 23.63
_cell_length_b 23.63
_cell_length_c 41.39
_cell_angle_alpha 90
_cell_angle_beta 90
_cell_angle_gamma 120
_space_group_name_H-M_alt 'P 1'
_space_group_name_Hall 'P 1'
loop_
    _symmetry_equiv_pos_as_xyz
    x,y,z
loop_
    _atom_site_label
    _atom_site_type_symbol
    _atom_site_fract_x
    _atom_site_fract_y
    _atom_site_fract_z
    _atom_site_occupancy
    Cu1      Cu       0.28977    0.55695    0.57870    1.000
    F1       F        0.59800    0.34600    0.64030    1.000
    F2       F        0.50210    0.30960    0.66336    1.000
    F3       F        0.60380    0.54820    0.74501    1.000
    F4       F        0.67130    0.53610    0.76870    1.000
    F5       F        0.69430    0.59560    0.72423    1.000
    F6       F        0.50230    0.70230    0.66710    1.000
    F7       F        0.41110    0.67250    0.68880    1.000
    F8       F        0.45280    0.61720    0.70225    1.000
    F9       F        0.33630    0.47060    0.56490    1.000
    F10      F        0.42400    0.47090    0.58466    1.000
    F11      F        0.32910    0.41720    0.60433    1.000
    F12      F        0.16050    0.46060    0.59684    1.000
    F13      F        0.12210    0.39530    0.55589    1.000
    F14      F        0.07070    0.43520    0.57871    1.000
    F15      F        0.14890    0.59180    0.45913    1.000
    F16      F        0.18010    0.66940    0.49112    1.000
    F17      F        0.24930    0.65260    0.46825    1.000
    N1       N        0.66157    0.44565    0.72079    1.000
    N2       N        0.63735    0.39824    0.69820    1.000
    N3       N        0.37410    0.61120    0.62987    1.000
    N4       N        0.35298    0.56270    0.60736    1.000
    N5       N        0.22539    0.54859    0.54895    1.000
    N6       N        0.24280    0.59600    0.52554    1.000
    C1       C        0.63570    0.48280    0.71622    1.000
    C2       C        0.59140    0.46060    0.69076    1.000
    C3       C        0.59420    0.40570    0.68047    1.000
    C4       C        0.55930    0.36050    0.65319    1.000
    C5       C        0.65600    0.54250    0.73749    1.000
    C6       C        0.54970    0.48600    0.67786    1.000
    C7       C        0.47950    0.44470    0.67563    1.000
    H1       H        0.45970    0.40183    0.68303    1.000
    C8       C        0.44280    0.46760    0.66302    1.000
    H2       H        0.39785    0.43997    0.66140    1.000
    C9       C        0.47020    0.53190    0.65227    1.000
    C10      C        0.53300    0.57150    0.65492    1.000
    H3       H        0.55023    0.61484    0.64866    1.000
    C11      C        0.57620    0.55080    0.66707    1.000
    H4       H        0.62101    0.57965    0.66784    1.000
    C12      C        0.42440    0.55290    0.63849    1.000
    C13      C        0.38340    0.52900    0.61233    1.000
    C14      C        0.41710    0.60620    0.64886    1.000
    C15      C        0.44810    0.65180    0.67530    1.000
    C16      C        0.36850    0.47540    0.59180    1.000
    C17      C        0.16080    0.50510    0.54600    1.000
    C18      C        0.13400    0.52380    0.52093    1.000
    C19      C        0.18730    0.57930    0.50951    1.000
    C20      C        0.19210    0.62250    0.48124    1.000
    C21      C        0.12960    0.45100    0.56952    1.000
    C22      C        0.06420    0.48750    0.50987    1.000
    C23      C        0.03030    0.42160    0.50501    1.000
    H5       H        0.05084    0.39752    0.50894    1.000
    C24      C        0.03210    0.52460    0.50546    1.000
    H6       H        0.05363    0.56914    0.50981    1.000
    F18      F        0.53400    0.38100    0.63270    1.000
    F19      F        0.58770    0.32530    0.64020    1.000
    F20      F        0.69100    0.54100    0.76000    1.000
    F21      F        0.49720    0.65700    0.68540    1.000
    F22      F        0.45600    0.71300    0.66920    1.000
    F23      F        0.36000    0.48120    0.56260    1.000
    F24      F        0.56500    0.39900    0.62670    1.000
    Cu2      Cu       0.44305    0.73282    0.57870    1.000
    F25      F        0.65400    0.25200    0.64030    1.000
    F26      F        0.69040    0.19250    0.66336    1.000
    F27      F        0.45180    0.05560    0.74501    1.000
    F28      F        0.46390    0.13520    0.76870    1.000
    F29      F        0.40440    0.09870    0.72423    1.000
    F30      F        0.29770    0.80000    0.66710    1.000
    F31      F        0.32750    0.73860    0.68880    1.000
    F32      F        0.38280    0.83560    0.70225    1.000
    F33      F        0.52940    0.86570    0.56490    1.000
    F34      F        0.52910    0.95310    0.58466    1.000
    F35      F        0.58280    0.91190    0.60433    1.000
    F36      F        0.53940    0.69990    0.59684    1.000
    F37      F        0.60470    0.72680    0.55589    1.000
    F38      F        0.56480    0.63550    0.57871    1.000
    F39      F        0.40820    0.55710    0.45913    1.000
    F40      F        0.33060    0.51070    0.49112    1.000
    F41      F        0.34740    0.59670    0.46825    1.000
    N7       N        0.55435    0.21592    0.72079    1.000
    N8       N        0.60176    0.23911    0.69820    1.000
    N9       N        0.38880    0.76290    0.62987    1.000
    N10      N        0.43730    0.79028    0.60736    1.000
    N11      N        0.45141    0.67680    0.54895    1.000
    N12      N        0.40400    0.64680    0.52554    1.000
    C25      C        0.51720    0.15290    0.71622    1.000
    C26      C        0.53940    0.13080    0.69076    1.000
    C27      C        0.59430    0.18850    0.68047    1.000
    C28      C        0.63950    0.19880    0.65319    1.000
    C29      C        0.45750    0.11350    0.73749    1.000
    C30      C        0.51400    0.06370    0.67786    1.000
    C31      C        0.55530    0.03480    0.67563    1.000
    H7       H        0.59817    0.05787    0.68303    1.000
    C32      C        0.53240    0.97520    0.66302    1.000
    H8       H        0.56003    0.95788    0.66140    1.000
    C33      C        0.46810    0.93830    0.65227    1.000
    C34      C        0.42850    0.96150    0.65492    1.000
    H9       H        0.38516    0.93539    0.64866    1.000
    C35      C        0.44920    0.02540    0.66707    1.000
    H10      H        0.42035    0.04136    0.66784    1.000
    C36      C        0.44710    0.87150    0.63849    1.000
    C37      C        0.47100    0.85440    0.61233    1.000
    C38      C        0.39380    0.81090    0.64886    1.000
    C39      C        0.34820    0.79630    0.67530    1.000
    C40      C        0.52460    0.89310    0.59180    1.000
    C41      C        0.49490    0.65570    0.54600    1.000
    C42      C        0.47620    0.61020    0.52093    1.000
    C43      C        0.42070    0.60800    0.50951    1.000
    C44      C        0.37750    0.56960    0.48124    1.000
    C45      C        0.54900    0.67860    0.56952    1.000
    C46      C        0.51250    0.57670    0.50987    1.000
    C47      C        0.57840    0.60870    0.50501    1.000
    H11      H        0.60248    0.65332    0.50894    1.000
    C48      C        0.47540    0.50750    0.50546    1.000
    H12      H        0.43086    0.48449    0.50981    1.000
    F42      F        0.61900    0.15300    0.63270    1.000
    F43      F        0.67470    0.26240    0.64020    1.000
    F44      F        0.45900    0.15000    0.76000    1.000
    F45      F        0.34300    0.84020    0.68540    1.000
    F46      F        0.28700    0.74300    0.66920    1.000
    F47      F        0.51880    0.87880    0.56260    1.000
    F48      F        0.60100    0.16600    0.62670    1.000
    Cu3      Cu       0.26718    0.71023    0.57870    1.000
    F49      F        0.74800    0.40200    0.64030    1.000
    F50      F        0.80750    0.49790    0.66336    1.000
    F51      F        0.94440    0.39620    0.74501    1.000
    F52      F        0.86480    0.32870    0.76870    1.000
    F53      F        0.90130    0.30570    0.72423    1.000
    F54      F        0.20000    0.49770    0.66710    1.000
    F55      F        0.26140    0.58890    0.68880    1.000
    F56      F        0.16440    0.54720    0.70225    1.000
    F57      F        0.13430    0.66370    0.56490    1.000
    F58      F        0.04690    0.57600    0.58466    1.000
    F59      F        0.08810    0.67090    0.60433    1.000
    F60      F        0.30010    0.83950    0.59684    1.000
    F61      F        0.27320    0.87790    0.55589    1.000
    F62      F        0.36450    0.92930    0.57871    1.000
    F63      F        0.44290    0.85110    0.45913    1.000
    F64      F        0.48930    0.81990    0.49112    1.000
    F65      F        0.40330    0.75070    0.46825    1.000
    N13      N        0.78408    0.33843    0.72079    1.000
    N14      N        0.76089    0.36265    0.69820    1.000
    N15      N        0.23710    0.62590    0.62987    1.000
    N16      N        0.20972    0.64702    0.60736    1.000
    N17      N        0.32320    0.77461    0.54895    1.000
    N18      N        0.35320    0.75720    0.52554    1.000
    C49      C        0.84710    0.36430    0.71622    1.000
    C50      C        0.86920    0.40860    0.69076    1.000
    C51      C        0.81150    0.40580    0.68047    1.000
    C52      C        0.80120    0.44070    0.65319    1.000
    C53      C        0.88650    0.34400    0.73749    1.000
    C54      C        0.93630    0.45030    0.67786    1.000
    C55      C        0.96520    0.52050    0.67563    1.000
    H13      H        0.94213    0.54030    0.68303    1.000
    C56      C        0.02480    0.55720    0.66302    1.000
    H14      H        0.04212    0.60215    0.66140    1.000
    C57      C        0.06170    0.52980    0.65227    1.000
    C58      C        0.03850    0.46700    0.65492    1.000
    H15      H        0.06461    0.44977    0.64866    1.000
    C59      C        0.97460    0.42380    0.66707    1.000
    H16      H        0.95864    0.37899    0.66784    1.000
    C60      C        0.12850    0.57560    0.63849    1.000
    C61      C        0.14560    0.61660    0.61233    1.000
    C62      C        0.18910    0.58290    0.64886    1.000
    C63      C        0.20370    0.55190    0.67530    1.000
    C64      C        0.10690    0.63150    0.59180    1.000
    C65      C        0.34430    0.83920    0.54600    1.000
    C66      C        0.38980    0.86600    0.52093    1.000
    C67      C        0.39200    0.81270    0.50951    1.000
    C68      C        0.43040    0.80790    0.48124    1.000
    C69      C        0.32140    0.87040    0.56952    1.000
    C70      C        0.42330    0.93580    0.50987    1.000
    C71      C        0.39130    0.96970    0.50501    1.000
    H17      H        0.34668    0.94916    0.50894    1.000
    C72      C        0.49250    0.96790    0.50546    1.000
    H18      H        0.51551    0.94637    0.50981    1.000
    F66      F        0.84700    0.46600    0.63270    1.000
    F67      F        0.73760    0.41230    0.64020    1.000
    F68      F        0.85000    0.30900    0.76000    1.000
    F69      F        0.15980    0.50280    0.68540    1.000
    F70      F        0.25700    0.54400    0.66920    1.000
    F71      F        0.12120    0.64000    0.56260    1.000
    F72      F        0.83400    0.43500    0.62670    1.000
    Cu4      Cu       0.71023    0.44305    0.07870    1.000
    F73      F        0.40200    0.65400    0.14030    1.000
    F74      F        0.49790    0.69040    0.16336    1.000
    F75      F        0.39620    0.45180    0.24501    1.000
    F76      F        0.32870    0.46390    0.26870    1.000
    F77      F        0.30570    0.40440    0.22423    1.000
    F78      F        0.49770    0.29770    0.16710    1.000
    F79      F        0.58890    0.32750    0.18880    1.000
    F80      F        0.54720    0.38280    0.20225    1.000
    F81      F        0.66370    0.52940    0.06490    1.000
    F82      F        0.57600    0.52910    0.08466    1.000
    F83      F        0.67090    0.58280    0.10433    1.000
    F84      F        0.83950    0.53940    0.09684    1.000
    F85      F        0.87790    0.60470    0.05589    1.000
    F86      F        0.92930    0.56480    0.07871    1.000
    F87      F        0.85110    0.40820    0.95913    1.000
    F88      F        0.81990    0.33060    0.99112    1.000
    F89      F        0.75070    0.34740    0.96825    1.000
    N19      N        0.33843    0.55435    0.22079    1.000
    N20      N        0.36265    0.60176    0.19820    1.000
    N21      N        0.62590    0.38880    0.12987    1.000
    N22      N        0.64702    0.43730    0.10736    1.000
    N23      N        0.77461    0.45141    0.04895    1.000
    N24      N        0.75720    0.40400    0.02554    1.000
    C73      C        0.36430    0.51720    0.21622    1.000
    C74      C        0.40860    0.53940    0.19076    1.000
    C75      C        0.40580    0.59430    0.18047    1.000
    C76      C        0.44070    0.63950    0.15319    1.000
    C77      C        0.34400    0.45750    0.23749    1.000
    C78      C        0.45030    0.51400    0.17786    1.000
    C79      C        0.52050    0.55530    0.17563    1.000
    H19      H        0.54030    0.59817    0.18303    1.000
    C80      C        0.55720    0.53240    0.16302    1.000
    H20      H        0.60215    0.56003    0.16140    1.000
    C81      C        0.52980    0.46810    0.15227    1.000
    C82      C        0.46700    0.42850    0.15492    1.000
    H21      H        0.44977    0.38516    0.14866    1.000
    C83      C        0.42380    0.44920    0.16707    1.000
    H22      H        0.37899    0.42035    0.16784    1.000
    C84      C        0.57560    0.44710    0.13849    1.000
    C85      C        0.61660    0.47100    0.11233    1.000
    C86      C        0.58290    0.39380    0.14886    1.000
    C87      C        0.55190    0.34820    0.17530    1.000
    C88      C        0.63150    0.52460    0.09180    1.000
    C89      C        0.83920    0.49490    0.04600    1.000
    C90      C        0.86600    0.47620    0.02093    1.000
    C91      C        0.81270    0.42070    0.00951    1.000
    C92      C        0.80790    0.37750    0.98124    1.000
    C93      C        0.87040    0.54900    0.06952    1.000
    C94      C        0.93580    0.51250    0.00987    1.000
    C95      C        0.96970    0.57840    0.00501    1.000
    H23      H        0.94916    0.60248    0.00894    1.000
    C96      C        0.96790    0.47540    0.00546    1.000
    H24      H        0.94637    0.43086    0.00981    1.000
    F90      F        0.46600    0.61900    0.13270    1.000
    F91      F        0.41230    0.67470    0.14020    1.000
    F92      F        0.30900    0.45900    0.26000    1.000
    F93      F        0.50280    0.34300    0.18540    1.000
    F94      F        0.54400    0.28700    0.16920    1.000
    F95      F        0.64000    0.51880    0.06260    1.000
    F96      F        0.43500    0.60100    0.12670    1.000
    Cu5      Cu       0.55695    0.26718    0.07870    1.000
    F97      F        0.34600    0.74800    0.14030    1.000
    F98      F        0.30960    0.80750    0.16336    1.000
    F99      F        0.54820    0.94440    0.24501    1.000
    F100     F        0.53610    0.86480    0.26870    1.000
    F101     F        0.59560    0.90130    0.22423    1.000
    F102     F        0.70230    0.20000    0.16710    1.000
    F103     F        0.67250    0.26140    0.18880    1.000
    F104     F        0.61720    0.16440    0.20225    1.000
    F105     F        0.47060    0.13430    0.06490    1.000
    F106     F        0.47090    0.04690    0.08466    1.000
    F107     F        0.41720    0.08810    0.10433    1.000
    F108     F        0.46060    0.30010    0.09684    1.000
    F109     F        0.39530    0.27320    0.05589    1.000
    F110     F        0.43520    0.36450    0.07871    1.000
    F111     F        0.59180    0.44290    0.95913    1.000
    F112     F        0.66940    0.48930    0.99112    1.000
    F113     F        0.65260    0.40330    0.96825    1.000
    N25      N        0.44565    0.78408    0.22079    1.000
    N26      N        0.39824    0.76089    0.19820    1.000
    N27      N        0.61120    0.23710    0.12987    1.000
    N28      N        0.56270    0.20972    0.10736    1.000
    N29      N        0.54859    0.32320    0.04895    1.000
    N30      N        0.59600    0.35320    0.02554    1.000
    C97      C        0.48280    0.84710    0.21622    1.000
    C98      C        0.46060    0.86920    0.19076    1.000
    C99      C        0.40570    0.81150    0.18047    1.000
    C100     C        0.36050    0.80120    0.15319    1.000
    C101     C        0.54250    0.88650    0.23749    1.000
    C102     C        0.48600    0.93630    0.17786    1.000
    C103     C        0.44470    0.96520    0.17563    1.000
    H25      H        0.40183    0.94213    0.18303    1.000
    C104     C        0.46760    0.02480    0.16302    1.000
    H26      H        0.43997    0.04212    0.16140    1.000
    C105     C        0.53190    0.06170    0.15227    1.000
    C106     C        0.57150    0.03850    0.15492    1.000
    H27      H        0.61484    0.06461    0.14866    1.000
    C107     C        0.55080    0.97460    0.16707    1.000
    H28      H        0.57965    0.95864    0.16784    1.000
    C108     C        0.55290    0.12850    0.13849    1.000
    C109     C        0.52900    0.14560    0.11233    1.000
    C110     C        0.60620    0.18910    0.14886    1.000
    C111     C        0.65180    0.20370    0.17530    1.000
    C112     C        0.47540    0.10690    0.09180    1.000
    C113     C        0.50510    0.34430    0.04600    1.000
    C114     C        0.52380    0.38980    0.02093    1.000
    C115     C        0.57930    0.39200    0.00951    1.000
    C116     C        0.62250    0.43040    0.98124    1.000
    C117     C        0.45100    0.32140    0.06952    1.000
    C118     C        0.48750    0.42330    0.00987    1.000
    C119     C        0.42160    0.39130    0.00501    1.000
    H29      H        0.39752    0.34668    0.00894    1.000
    C120     C        0.52460    0.49250    0.00546    1.000
    H30      H        0.56914    0.51551    0.00981    1.000
    F114     F        0.38100    0.84700    0.13270    1.000
    F115     F        0.32530    0.73760    0.14020    1.000
    F116     F        0.54100    0.85000    0.26000    1.000
    F117     F        0.65700    0.15980    0.18540    1.000
    F118     F        0.71300    0.25700    0.16920    1.000
    F119     F        0.48120    0.12120    0.06260    1.000
    F120     F        0.39900    0.83400    0.12670    1.000
    Cu6      Cu       0.73282    0.28977    0.07870    1.000
    F121     F        0.25200    0.59800    0.14030    1.000
    F122     F        0.19250    0.50210    0.16336    1.000
    F123     F        0.05560    0.60380    0.24501    1.000
    F124     F        0.13520    0.67130    0.26870    1.000
    F125     F        0.09870    0.69430    0.22423    1.000
    F126     F        0.80000    0.50230    0.16710    1.000
    F127     F        0.73860    0.41110    0.18880    1.000
    F128     F        0.83560    0.45280    0.20225    1.000
    F129     F        0.86570    0.33630    0.06490    1.000
    F130     F        0.95310    0.42400    0.08466    1.000
    F131     F        0.91190    0.32910    0.10433    1.000
    F132     F        0.69990    0.16050    0.09684    1.000
    F133     F        0.72680    0.12210    0.05589    1.000
    F134     F        0.63550    0.07070    0.07871    1.000
    F135     F        0.55710    0.14890    0.95913    1.000
    F136     F        0.51070    0.18010    0.99112    1.000
    F137     F        0.59670    0.24930    0.96825    1.000
    N31      N        0.21592    0.66157    0.22079    1.000
    N32      N        0.23911    0.63735    0.19820    1.000
    N33      N        0.76290    0.37410    0.12987    1.000
    N34      N        0.79028    0.35298    0.10736    1.000
    N35      N        0.67680    0.22539    0.04895    1.000
    N36      N        0.64680    0.24280    0.02554    1.000
    C121     C        0.15290    0.63570    0.21622    1.000
    C122     C        0.13080    0.59140    0.19076    1.000
    C123     C        0.18850    0.59420    0.18047    1.000
    C124     C        0.19880    0.55930    0.15319    1.000
    C125     C        0.11350    0.65600    0.23749    1.000
    C126     C        0.06370    0.54970    0.17786    1.000
    C127     C        0.03480    0.47950    0.17563    1.000
    H31      H        0.05787    0.45970    0.18303    1.000
    C128     C        0.97520    0.44280    0.16302    1.000
    H32      H        0.95788    0.39785    0.16140    1.000
    C129     C        0.93830    0.47020    0.15227    1.000
    C130     C        0.96150    0.53300    0.15492    1.000
    H33      H        0.93539    0.55023    0.14866    1.000
    C131     C        0.02540    0.57620    0.16707    1.000
    H34      H        0.04136    0.62101    0.16784    1.000
    C132     C        0.87150    0.42440    0.13849    1.000
    C133     C        0.85440    0.38340    0.11233    1.000
    C134     C        0.81090    0.41710    0.14886    1.000
    C135     C        0.79630    0.44810    0.17530    1.000
    C136     C        0.89310    0.36850    0.09180    1.000
    C137     C        0.65570    0.16080    0.04600    1.000
    C138     C        0.61020    0.13400    0.02093    1.000
    C139     C        0.60800    0.18730    0.00951    1.000
    C140     C        0.56960    0.19210    0.98124    1.000
    C141     C        0.67860    0.12960    0.06952    1.000
    C142     C        0.57670    0.06420    0.00987    1.000
    C143     C        0.60870    0.03030    0.00501    1.000
    H35      H        0.65332    0.05084    0.00894    1.000
    C144     C        0.50750    0.03210    0.00546    1.000
    H36      H        0.48449    0.05363    0.00981    1.000
    F138     F        0.15300    0.53400    0.13270    1.000
    F139     F        0.26240    0.58770    0.14020    1.000
    F140     F        0.15000    0.69100    0.26000    1.000
    F141     F        0.84020    0.49720    0.18540    1.000
    F142     F        0.74300    0.45600    0.16920    1.000
    F143     F        0.87880    0.36000    0.06260    1.000
    F144     F        0.16600    0.56500    0.12670    1.000
    Cu7      Cu       0.55695    0.28977    0.42130    1.000
    F145     F        0.34600    0.59800    0.35970    1.000
    F146     F        0.30960    0.50210    0.33664    1.000
    F147     F        0.54820    0.60380    0.25499    1.000
    F148     F        0.53610    0.67130    0.23130    1.000
    F149     F        0.59560    0.69430    0.27577    1.000
    F150     F        0.70230    0.50230    0.33290    1.000
    F151     F        0.67250    0.41110    0.31120    1.000
    F152     F        0.61720    0.45280    0.29775    1.000
    F153     F        0.47060    0.33630    0.43510    1.000
    F154     F        0.47090    0.42400    0.41534    1.000
    F155     F        0.41720    0.32910    0.39567    1.000
    F156     F        0.46060    0.16050    0.40316    1.000
    F157     F        0.39530    0.12210    0.44411    1.000
    F158     F        0.43520    0.07070    0.42129    1.000
    F159     F        0.59180    0.14890    0.54087    1.000
    F160     F        0.66940    0.18010    0.50888    1.000
    F161     F        0.65260    0.24930    0.53175    1.000
    N37      N        0.44565    0.66157    0.27921    1.000
    N38      N        0.39824    0.63735    0.30180    1.000
    N39      N        0.61120    0.37410    0.37013    1.000
    N40      N        0.56270    0.35298    0.39264    1.000
    N41      N        0.54859    0.22539    0.45105    1.000
    N42      N        0.59600    0.24280    0.47446    1.000
    C145     C        0.48280    0.63570    0.28378    1.000
    C146     C        0.46060    0.59140    0.30924    1.000
    C147     C        0.40570    0.59420    0.31953    1.000
    C148     C        0.36050    0.55930    0.34681    1.000
    C149     C        0.54250    0.65600    0.26251    1.000
    C150     C        0.48600    0.54970    0.32214    1.000
    C151     C        0.44470    0.47950    0.32437    1.000
    H37      H        0.40183    0.45970    0.31697    1.000
    C152     C        0.46760    0.44280    0.33698    1.000
    H38      H        0.43997    0.39785    0.33860    1.000
    C153     C        0.53190    0.47020    0.34773    1.000
    C154     C        0.57150    0.53300    0.34508    1.000
    H39      H        0.61484    0.55023    0.35134    1.000
    C155     C        0.55080    0.57620    0.33293    1.000
    H40      H        0.57965    0.62101    0.33216    1.000
    C156     C        0.55290    0.42440    0.36151    1.000
    C157     C        0.52900    0.38340    0.38767    1.000
    C158     C        0.60620    0.41710    0.35114    1.000
    C159     C        0.65180    0.44810    0.32470    1.000
    C160     C        0.47540    0.36850    0.40820    1.000
    C161     C        0.50510    0.16080    0.45400    1.000
    C162     C        0.52380    0.13400    0.47907    1.000
    C163     C        0.57930    0.18730    0.49049    1.000
    C164     C        0.62250    0.19210    0.51876    1.000
    C165     C        0.45100    0.12960    0.43048    1.000
    C166     C        0.48750    0.06420    0.49013    1.000
    C167     C        0.42160    0.03030    0.49499    1.000
    H41      H        0.39752    0.05084    0.49106    1.000
    C168     C        0.52460    0.03210    0.49454    1.000
    H42      H        0.56914    0.05363    0.49019    1.000
    F162     F        0.38100    0.53400    0.36730    1.000
    F163     F        0.32530    0.58770    0.35980    1.000
    F164     F        0.54100    0.69100    0.24000    1.000
    F165     F        0.65700    0.49720    0.31460    1.000
    F166     F        0.71300    0.45600    0.33080    1.000
    F167     F        0.48120    0.36000    0.43740    1.000
    F168     F        0.39900    0.56500    0.37330    1.000
    Cu8      Cu       0.73282    0.44305    0.42130    1.000
    F169     F        0.25200    0.65400    0.35970    1.000
    F170     F        0.19250    0.69040    0.33664    1.000
    F171     F        0.05560    0.45180    0.25499    1.000
    F172     F        0.13520    0.46390    0.23130    1.000
    F173     F        0.09870    0.40440    0.27577    1.000
    F174     F        0.80000    0.29770    0.33290    1.000
    F175     F        0.73860    0.32750    0.31120    1.000
    F176     F        0.83560    0.38280    0.29775    1.000
    F177     F        0.86570    0.52940    0.43510    1.000
    F178     F        0.95310    0.52910    0.41534    1.000
    F179     F        0.91190    0.58280    0.39567    1.000
    F180     F        0.69990    0.53940    0.40316    1.000
    F181     F        0.72680    0.60470    0.44411    1.000
    F182     F        0.63550    0.56480    0.42129    1.000
    F183     F        0.55710    0.40820    0.54087    1.000
    F184     F        0.51070    0.33060    0.50888    1.000
    F185     F        0.59670    0.34740    0.53175    1.000
    N43      N        0.21592    0.55435    0.27921    1.000
    N44      N        0.23911    0.60176    0.30180    1.000
    N45      N        0.76290    0.38880    0.37013    1.000
    N46      N        0.79028    0.43730    0.39264    1.000
    N47      N        0.67680    0.45141    0.45105    1.000
    N48      N        0.64680    0.40400    0.47446    1.000
    C169     C        0.15290    0.51720    0.28378    1.000
    C170     C        0.13080    0.53940    0.30924    1.000
    C171     C        0.18850    0.59430    0.31953    1.000
    C172     C        0.19880    0.63950    0.34681    1.000
    C173     C        0.11350    0.45750    0.26251    1.000
    C174     C        0.06370    0.51400    0.32214    1.000
    C175     C        0.03480    0.55530    0.32437    1.000
    H43      H        0.05787    0.59817    0.31697    1.000
    C176     C        0.97520    0.53240    0.33698    1.000
    H44      H        0.95788    0.56003    0.33860    1.000
    C177     C        0.93830    0.46810    0.34773    1.000
    C178     C        0.96150    0.42850    0.34508    1.000
    H45      H        0.93539    0.38516    0.35134    1.000
    C179     C        0.02540    0.44920    0.33293    1.000
    H46      H        0.04136    0.42035    0.33216    1.000
    C180     C        0.87150    0.44710    0.36151    1.000
    C181     C        0.85440    0.47100    0.38767    1.000
    C182     C        0.81090    0.39380    0.35114    1.000
    C183     C        0.79630    0.34820    0.32470    1.000
    C184     C        0.89310    0.52460    0.40820    1.000
    C185     C        0.65570    0.49490    0.45400    1.000
    C186     C        0.61020    0.47620    0.47907    1.000
    C187     C        0.60800    0.42070    0.49049    1.000
    C188     C        0.56960    0.37750    0.51876    1.000
    C189     C        0.67860    0.54900    0.43048    1.000
    C190     C        0.57670    0.51250    0.49013    1.000
    C191     C        0.60870    0.57840    0.49499    1.000
    H47      H        0.65332    0.60248    0.49106    1.000
    C192     C        0.50750    0.47540    0.49454    1.000
    H48      H        0.48449    0.43086    0.49019    1.000
    F186     F        0.15300    0.61900    0.36730    1.000
    F187     F        0.26240    0.67470    0.35980    1.000
    F188     F        0.15000    0.45900    0.24000    1.000
    F189     F        0.84020    0.34300    0.31460    1.000
    F190     F        0.74300    0.28700    0.33080    1.000
    F191     F        0.87880    0.51880    0.43740    1.000
    F192     F        0.16600    0.60100    0.37330    1.000
    Cu9      Cu       0.71023    0.26718    0.42130    1.000
    F193     F        0.40200    0.74800    0.35970    1.000
    F194     F        0.49790    0.80750    0.33664    1.000
    F195     F        0.39620    0.94440    0.25499    1.000
    F196     F        0.32870    0.86480    0.23130    1.000
    F197     F        0.30570    0.90130    0.27577    1.000
    F198     F        0.49770    0.20000    0.33290    1.000
    F199     F        0.58890    0.26140    0.31120    1.000
    F200     F        0.54720    0.16440    0.29775    1.000
    F201     F        0.66370    0.13430    0.43510    1.000
    F202     F        0.57600    0.04690    0.41534    1.000
    F203     F        0.67090    0.08810    0.39567    1.000
    F204     F        0.83950    0.30010    0.40316    1.000
    F205     F        0.87790    0.27320    0.44411    1.000
    F206     F        0.92930    0.36450    0.42129    1.000
    F207     F        0.85110    0.44290    0.54087    1.000
    F208     F        0.81990    0.48930    0.50888    1.000
    F209     F        0.75070    0.40330    0.53175    1.000
    N49      N        0.33843    0.78408    0.27921    1.000
    N50      N        0.36265    0.76089    0.30180    1.000
    N51      N        0.62590    0.23710    0.37013    1.000
    N52      N        0.64702    0.20972    0.39264    1.000
    N53      N        0.77461    0.32320    0.45105    1.000
    N54      N        0.75720    0.35320    0.47446    1.000
    C193     C        0.36430    0.84710    0.28378    1.000
    C194     C        0.40860    0.86920    0.30924    1.000
    C195     C        0.40580    0.81150    0.31953    1.000
    C196     C        0.44070    0.80120    0.34681    1.000
    C197     C        0.34400    0.88650    0.26251    1.000
    C198     C        0.45030    0.93630    0.32214    1.000
    C199     C        0.52050    0.96520    0.32437    1.000
    H49      H        0.54030    0.94213    0.31697    1.000
    C200     C        0.55720    0.02480    0.33698    1.000
    H50      H        0.60215    0.04212    0.33860    1.000
    C201     C        0.52980    0.06170    0.34773    1.000
    C202     C        0.46700    0.03850    0.34508    1.000
    H51      H        0.44977    0.06461    0.35134    1.000
    C203     C        0.42380    0.97460    0.33293    1.000
    H52      H        0.37899    0.95864    0.33216    1.000
    C204     C        0.57560    0.12850    0.36151    1.000
    C205     C        0.61660    0.14560    0.38767    1.000
    C206     C        0.58290    0.18910    0.35114    1.000
    C207     C        0.55190    0.20370    0.32470    1.000
    C208     C        0.63150    0.10690    0.40820    1.000
    C209     C        0.83920    0.34430    0.45400    1.000
    C210     C        0.86600    0.38980    0.47907    1.000
    C211     C        0.81270    0.39200    0.49049    1.000
    C212     C        0.80790    0.43040    0.51876    1.000
    C213     C        0.87040    0.32140    0.43048    1.000
    C214     C        0.93580    0.42330    0.49013    1.000
    C215     C        0.96970    0.39130    0.49499    1.000
    H53      H        0.94916    0.34668    0.49106    1.000
    C216     C        0.96790    0.49250    0.49454    1.000
    H54      H        0.94637    0.51551    0.49019    1.000
    F210     F        0.46600    0.84700    0.36730    1.000
    F211     F        0.41230    0.73760    0.35980    1.000
    F212     F        0.30900    0.85000    0.24000    1.000
    F213     F        0.50280    0.15980    0.31460    1.000
    F214     F        0.54400    0.25700    0.33080    1.000
    F215     F        0.64000    0.12120    0.43740    1.000
    F216     F        0.43500    0.83400    0.37330    1.000
    Cu10     Cu       0.44305    0.71023    0.92130    1.000
    F217     F        0.65400    0.40200    0.85970    1.000
    F218     F        0.69040    0.49790    0.83664    1.000
    F219     F        0.45180    0.39620    0.75499    1.000
    F220     F        0.46390    0.32870    0.73130    1.000
    F221     F        0.40440    0.30570    0.77577    1.000
    F222     F        0.29770    0.49770    0.83290    1.000
    F223     F        0.32750    0.58890    0.81120    1.000
    F224     F        0.38280    0.54720    0.79775    1.000
    F225     F        0.52940    0.66370    0.93510    1.000
    F226     F        0.52910    0.57600    0.91534    1.000
    F227     F        0.58280    0.67090    0.89567    1.000
    F228     F        0.53940    0.83950    0.90316    1.000
    F229     F        0.60470    0.87790    0.94411    1.000
    F230     F        0.56480    0.92930    0.92129    1.000
    F231     F        0.40820    0.85110    0.04087    1.000
    F232     F        0.33060    0.81990    0.00888    1.000
    F233     F        0.34740    0.75070    0.03175    1.000
    N55      N        0.55435    0.33843    0.77921    1.000
    N56      N        0.60176    0.36265    0.80180    1.000
    N57      N        0.38880    0.62590    0.87013    1.000
    N58      N        0.43730    0.64702    0.89264    1.000
    N59      N        0.45141    0.77461    0.95105    1.000
    N60      N        0.40400    0.75720    0.97446    1.000
    C217     C        0.51720    0.36430    0.78378    1.000
    C218     C        0.53940    0.40860    0.80924    1.000
    C219     C        0.59430    0.40580    0.81953    1.000
    C220     C        0.63950    0.44070    0.84681    1.000
    C221     C        0.45750    0.34400    0.76251    1.000
    C222     C        0.51400    0.45030    0.82214    1.000
    C223     C        0.55530    0.52050    0.82437    1.000
    H55      H        0.59817    0.54030    0.81697    1.000
    C224     C        0.53240    0.55720    0.83698    1.000
    H56      H        0.56003    0.60215    0.83860    1.000
    C225     C        0.46810    0.52980    0.84773    1.000
    C226     C        0.42850    0.46700    0.84508    1.000
    H57      H        0.38516    0.44977    0.85134    1.000
    C227     C        0.44920    0.42380    0.83293    1.000
    H58      H        0.42035    0.37899    0.83216    1.000
    C228     C        0.44710    0.57560    0.86151    1.000
    C229     C        0.47100    0.61660    0.88767    1.000
    C230     C        0.39380    0.58290    0.85114    1.000
    C231     C        0.34820    0.55190    0.82470    1.000
    C232     C        0.52460    0.63150    0.90820    1.000
    C233     C        0.49490    0.83920    0.95400    1.000
    C234     C        0.47620    0.86600    0.97907    1.000
    C235     C        0.42070    0.81270    0.99049    1.000
    C236     C        0.37750    0.80790    0.01876    1.000
    C237     C        0.54900    0.87040    0.93048    1.000
    C238     C        0.51250    0.93580    0.99013    1.000
    C239     C        0.57840    0.96970    0.99499    1.000
    H59      H        0.60248    0.94916    0.99106    1.000
    C240     C        0.47540    0.96790    0.99454    1.000
    H60      H        0.43086    0.94637    0.99019    1.000
    F234     F        0.61900    0.46600    0.86730    1.000
    F235     F        0.67470    0.41230    0.85980    1.000
    F236     F        0.45900    0.30900    0.74000    1.000
    F237     F        0.34300    0.50280    0.81460    1.000
    F238     F        0.28700    0.54400    0.83080    1.000
    F239     F        0.51880    0.64000    0.93740    1.000
    F240     F        0.60100    0.43500    0.87330    1.000
    Cu11     Cu       0.26718    0.55695    0.92130    1.000
    F241     F        0.74800    0.34600    0.85970    1.000
    F242     F        0.80750    0.30960    0.83664    1.000
    F243     F        0.94440    0.54820    0.75499    1.000
    F244     F        0.86480    0.53610    0.73130    1.000
    F245     F        0.90130    0.59560    0.77577    1.000
    F246     F        0.20000    0.70230    0.83290    1.000
    F247     F        0.26140    0.67250    0.81120    1.000
    F248     F        0.16440    0.61720    0.79775    1.000
    F249     F        0.13430    0.47060    0.93510    1.000
    F250     F        0.04690    0.47090    0.91534    1.000
    F251     F        0.08810    0.41720    0.89567    1.000
    F252     F        0.30010    0.46060    0.90316    1.000
    F253     F        0.27320    0.39530    0.94411    1.000
    F254     F        0.36450    0.43520    0.92129    1.000
    F255     F        0.44290    0.59180    0.04087    1.000
    F256     F        0.48930    0.66940    0.00888    1.000
    F257     F        0.40330    0.65260    0.03175    1.000
    N61      N        0.78408    0.44565    0.77921    1.000
    N62      N        0.76089    0.39824    0.80180    1.000
    N63      N        0.23710    0.61120    0.87013    1.000
    N64      N        0.20972    0.56270    0.89264    1.000
    N65      N        0.32320    0.54859    0.95105    1.000
    N66      N        0.35320    0.59600    0.97446    1.000
    C241     C        0.84710    0.48280    0.78378    1.000
    C242     C        0.86920    0.46060    0.80924    1.000
    C243     C        0.81150    0.40570    0.81953    1.000
    C244     C        0.80120    0.36050    0.84681    1.000
    C245     C        0.88650    0.54250    0.76251    1.000
    C246     C        0.93630    0.48600    0.82214    1.000
    C247     C        0.96520    0.44470    0.82437    1.000
    H61      H        0.94213    0.40183    0.81697    1.000
    C248     C        0.02480    0.46760    0.83698    1.000
    H62      H        0.04212    0.43997    0.83860    1.000
    C249     C        0.06170    0.53190    0.84773    1.000
    C250     C        0.03850    0.57150    0.84508    1.000
    H63      H        0.06461    0.61484    0.85134    1.000
    C251     C        0.97460    0.55080    0.83293    1.000
    H64      H        0.95864    0.57965    0.83216    1.000
    C252     C        0.12850    0.55290    0.86151    1.000
    C253     C        0.14560    0.52900    0.88767    1.000
    C254     C        0.18910    0.60620    0.85114    1.000
    C255     C        0.20370    0.65180    0.82470    1.000
    C256     C        0.10690    0.47540    0.90820    1.000
    C257     C        0.34430    0.50510    0.95400    1.000
    C258     C        0.38980    0.52380    0.97907    1.000
    C259     C        0.39200    0.57930    0.99049    1.000
    C260     C        0.43040    0.62250    0.01876    1.000
    C261     C        0.32140    0.45100    0.93048    1.000
    C262     C        0.42330    0.48750    0.99013    1.000
    C263     C        0.39130    0.42160    0.99499    1.000
    H65      H        0.34668    0.39752    0.99106    1.000
    C264     C        0.49250    0.52460    0.99454    1.000
    H66      H        0.51551    0.56914    0.99019    1.000
    F258     F        0.84700    0.38100    0.86730    1.000
    F259     F        0.73760    0.32530    0.85980    1.000
    F260     F        0.85000    0.54100    0.74000    1.000
    F261     F        0.15980    0.65700    0.81460    1.000
    F262     F        0.25700    0.71300    0.83080    1.000
    F263     F        0.12120    0.48120    0.93740    1.000
    F264     F        0.83400    0.39900    0.87330    1.000
    Cu12     Cu       0.28977    0.73282    0.92130    1.000
    F265     F        0.59800    0.25200    0.85970    1.000
    F266     F        0.50210    0.19250    0.83664    1.000
    F267     F        0.60380    0.05560    0.75499    1.000
    F268     F        0.67130    0.13520    0.73130    1.000
    F269     F        0.69430    0.09870    0.77577    1.000
    F270     F        0.50230    0.80000    0.83290    1.000
    F271     F        0.41110    0.73860    0.81120    1.000
    F272     F        0.45280    0.83560    0.79775    1.000
    F273     F        0.33630    0.86570    0.93510    1.000
    F274     F        0.42400    0.95310    0.91534    1.000
    F275     F        0.32910    0.91190    0.89567    1.000
    F276     F        0.16050    0.69990    0.90316    1.000
    F277     F        0.12210    0.72680    0.94411    1.000
    F278     F        0.07070    0.63550    0.92129    1.000
    F279     F        0.14890    0.55710    0.04087    1.000
    F280     F        0.18010    0.51070    0.00888    1.000
    F281     F        0.24930    0.59670    0.03175    1.000
    N67      N        0.66157    0.21592    0.77921    1.000
    N68      N        0.63735    0.23911    0.80180    1.000
    N69      N        0.37410    0.76290    0.87013    1.000
    N70      N        0.35298    0.79028    0.89264    1.000
    N71      N        0.22539    0.67680    0.95105    1.000
    N72      N        0.24280    0.64680    0.97446    1.000
    C265     C        0.63570    0.15290    0.78378    1.000
    C266     C        0.59140    0.13080    0.80924    1.000
    C267     C        0.59420    0.18850    0.81953    1.000
    C268     C        0.55930    0.19880    0.84681    1.000
    C269     C        0.65600    0.11350    0.76251    1.000
    C270     C        0.54970    0.06370    0.82214    1.000
    C271     C        0.47950    0.03480    0.82437    1.000
    H67      H        0.45970    0.05787    0.81697    1.000
    C272     C        0.44280    0.97520    0.83698    1.000
    H68      H        0.39785    0.95788    0.83860    1.000
    C273     C        0.47020    0.93830    0.84773    1.000
    C274     C        0.53300    0.96150    0.84508    1.000
    H69      H        0.55023    0.93539    0.85134    1.000
    C275     C        0.57620    0.02540    0.83293    1.000
    H70      H        0.62101    0.04136    0.83216    1.000
    C276     C        0.42440    0.87150    0.86151    1.000
    C277     C        0.38340    0.85440    0.88767    1.000
    C278     C        0.41710    0.81090    0.85114    1.000
    C279     C        0.44810    0.79630    0.82470    1.000
    C280     C        0.36850    0.89310    0.90820    1.000
    C281     C        0.16080    0.65570    0.95400    1.000
    C282     C        0.13400    0.61020    0.97907    1.000
    C283     C        0.18730    0.60800    0.99049    1.000
    C284     C        0.19210    0.56960    0.01876    1.000
    C285     C        0.12960    0.67860    0.93048    1.000
    C286     C        0.06420    0.57670    0.99013    1.000
    C287     C        0.03030    0.60870    0.99499    1.000
    H71      H        0.05084    0.65332    0.99106    1.000
    C288     C        0.03210    0.50750    0.99454    1.000
    H72      H        0.05363    0.48449    0.99019    1.000
    F282     F        0.53400    0.15300    0.86730    1.000
    F283     F        0.58770    0.26240    0.85980    1.000
    F284     F        0.69100    0.15000    0.74000    1.000
    F285     F        0.49720    0.84020    0.81460    1.000
    F286     F        0.45600    0.74300    0.83080    1.000
    F287     F        0.36000    0.87880    0.93740    1.000
    F288     F        0.56500    0.16600    0.87330    1.000
    Cu13     Cu       0.72274    0.44548    0.75000    1.000
    Cu14     Cu       0.55452    0.27726    0.75000    1.000
    Cu15     Cu       0.72274    0.27726    0.75000    1.000
    Cu16     Cu       0.27726    0.55452    0.25000    1.000
    Cu17     Cu       0.44548    0.72274    0.25000    1.000
    Cu18     Cu       0.27726    0.72274    0.25000    1.000
    Cu19     Cu       0.66667    0.33333    0.69771    1.000
    Cu20     Cu       0.33333    0.66667    0.19771    1.000
    Cu21     Cu       0.33333    0.66667    0.30229    1.000
    Cu22     Cu       0.66667    0.33333    0.80229    1.000
    Cu23     Cu       0.33333    0.66667    0.63151    1.000
    Cu24     Cu       0.33333    0.66667    0.52554    1.000
    Cu25     Cu       0.66667    0.33333    0.13151    1.000
    Cu26     Cu       0.66667    0.33333    0.02554    1.000
    Cu27     Cu       0.66667    0.33333    0.36849    1.000
    Cu28     Cu       0.66667    0.33333    0.47446    1.000
    Cu29     Cu       0.33333    0.66667    0.86849    1.000
    Cu30     Cu       0.33333    0.66667    0.97446    1.000
