data_functionalizedCrystal
_audit_creation_method	'EQeq! by Chris Wilmer'
_symmetry_space_group_name_H-M	'P1'
_symmetry_Int_Tables_number	1
_symmetry_cell_setting	triclinic
loop_
_symmetry_equiv_pos_as_xyz
  x,y,z
_cell_length_a	13.612
_cell_length_b	9.5753
_cell_length_c	14.022
_cell_angle_alpha	90
_cell_angle_beta	90
_cell_angle_gamma	90
loop_
_atom_site_label
_atom_site_type_symbol
_atom_site_fract_x
_atom_site_fract_y
_atom_site_fract_z
_atom_site_charge
Mof_V 	V 	0.36284	0.80954	0.6976	1.756
Mof_P 	P 	0.55923	0.01231	0.72682	0.334
Mof_H 	H 	0.642	0.944	0.728	0.008
Mof_P 	P 	0.67492	0.8681	0.37891	0.539
Mof_H 	H 	0.617	0.796	0.323	-0.061
Mof_F 	F 	0.44224	0.8455	0.5614	-0.696
Mof_O 	O 	0.5595	0.1318	0.79787	-0.441
Mof_O 	O 	0.766	0.7779	0.3941	-0.429
Mof_O 	O 	0.4788	0.9092	0.7535	-0.377
Mof_O 	O 	0.6997	0.0065	0.3343	-0.592
Mof_O 	O 	0.5542	0.0618	0.62435	-0.494
Mof_O 	O 	0.6218	0.8859	0.475	-0.38
Mof_V 	V 	0.13716	0.19046	0.1976	1.744
Mof_P 	P 	0.94077	0.98769	0.22682	0.736
Mof_H 	H 	0.858	0.056	0.228	-0.162
Mof_P 	P 	0.82508	0.1319	0.87891	0.388
Mof_H 	H 	0.883	0.204	0.823	-0.005
Mof_F 	F 	0.05776	0.1545	0.0614	-0.838
Mof_O 	O 	0.9405	0.8682	0.29787	-0.429
Mof_O 	O 	0.734	0.2221	0.8941	-0.4
Mof_O 	O 	0.0212	0.0908	0.2535	-0.666
Mof_O 	O 	0.8003	0.9935	0.8343	-0.403
Mof_O 	O 	0.9458	0.9382	0.12435	-0.46
Mof_O 	O 	0.8782	0.1141	0.975	-0.278
Mof_V 	V 	0.63716	0.30954	0.8024	1.748
Mof_P 	P 	0.44077	0.51231	0.77318	0.478
Mof_H 	H 	0.358	0.444	0.772	-0.05
Mof_P 	P 	0.32508	0.3681	0.12109	0.464
Mof_H 	H 	0.383	0.296	0.177	-0.065
Mof_F 	F 	0.55776	0.3455	0.9386	-0.65
Mof_O 	O 	0.4405	0.6318	0.70213	-0.45
Mof_O 	O 	0.234	0.2779	0.1059	-0.486
Mof_O 	O 	0.5212	0.4092	0.7465	-0.473
Mof_O 	O 	0.3003	0.5065	0.1657	-0.518
Mof_O 	O 	0.4458	0.5618	0.87565	-0.396
Mof_O 	O 	0.3782	0.3859	0.025	-0.507
Mof_V 	V 	0.86284	0.69046	0.3024	1.749
Mof_P 	P 	0.05923	0.48769	0.27318	0.378
Mof_H 	H 	0.142	0.556	0.272	-0.067
Mof_P 	P 	0.17492	0.6319	0.62109	0.463
Mof_H 	H 	0.117	0.704	0.677	-0.076
Mof_F 	F 	0.94224	0.6545	0.4386	-0.665
Mof_O 	O 	0.0595	0.3682	0.20213	-0.509
Mof_O 	O 	0.266	0.7221	0.6059	-0.43
Mof_O 	O 	0.9788	0.5908	0.2465	-0.388
Mof_O 	O 	0.1997	0.4935	0.6657	-0.502
Mof_O 	O 	0.0542	0.4382	0.37565	-0.514
Mof_O 	O 	0.1218	0.6141	0.525	-0.441
Mof_V 	V 	0.63716	0.19046	0.3024	1.742
Mof_P 	P 	0.44077	0.98769	0.27318	0.635
Mof_H 	H 	0.358	0.056	0.272	-0.146
Mof_P 	P 	0.32508	0.1319	0.62109	0.387
Mof_H 	H 	0.383	0.204	0.677	-0.043
Mof_F 	F 	0.55776	0.1545	0.4386	-0.743
Mof_O 	O 	0.4405	0.8682	0.20213	-0.474
Mof_O 	O 	0.234	0.2221	0.6059	-0.444
Mof_O 	O 	0.5212	0.0908	0.2465	-0.578
Mof_O 	O 	0.3003	0.9935	0.6657	-0.415
Mof_O 	O 	0.4458	0.9382	0.37565	-0.453
Mof_O 	O 	0.3782	0.1141	0.525	-0.437
Mof_V 	V 	0.86284	0.80954	0.8024	1.756
Mof_P 	P 	0.05923	0.01231	0.77318	0.226
Mof_H 	H 	0.142	0.944	0.772	0.028
Mof_P 	P 	0.17492	0.8681	0.12109	0.539
Mof_H 	H 	0.117	0.796	0.177	-0.097
Mof_F 	F 	0.94224	0.8455	0.9386	-0.565
Mof_O 	O 	0.0595	0.1318	0.70213	-0.485
Mof_O 	O 	0.266	0.7779	0.1059	-0.473
Mof_O 	O 	0.9788	0.9092	0.7465	-0.288
Mof_O 	O 	0.1997	0.0065	0.1657	-0.603
Mof_O 	O 	0.0542	0.0618	0.87565	-0.443
Mof_O 	O 	0.1218	0.8859	0.025	-0.496
Mof_V 	V 	0.36284	0.69046	0.1976	1.751
Mof_P 	P 	0.55923	0.48769	0.22682	0.487
Mof_H 	H 	0.642	0.556	0.228	-0.086
Mof_P 	P 	0.67492	0.6319	0.87891	0.462
Mof_H 	H 	0.617	0.704	0.823	-0.038
Mof_F 	F 	0.44224	0.6545	0.0614	-0.777
Mof_O 	O 	0.5595	0.3682	0.29787	-0.464
Mof_O 	O 	0.766	0.7221	0.8941	-0.387
Mof_O 	O 	0.4788	0.5908	0.2535	-0.48
Mof_O 	O 	0.6997	0.4935	0.8343	-0.488
Mof_O 	O 	0.5542	0.4382	0.12435	-0.538
Mof_O 	O 	0.6218	0.6141	0.975	-0.297
Mof_V 	V 	0.13716	0.30954	0.6976	1.75
Mof_P 	P 	0.94077	0.51231	0.72682	0.586
Mof_H 	H 	0.858	0.444	0.728	-0.069
Mof_P 	P 	0.82508	0.3681	0.37891	0.464
Mof_H 	H 	0.883	0.296	0.323	-0.027
Mof_F 	F 	0.05776	0.3455	0.5614	-0.771
Mof_O 	O 	0.9405	0.6318	0.79787	-0.406
Mof_O 	O 	0.734	0.2779	0.3941	-0.443
Mof_O 	O 	0.0212	0.4092	0.7535	-0.564
Mof_O 	O 	0.8003	0.5065	0.3343	-0.505
Mof_O 	O 	0.9458	0.5618	0.62435	-0.43
Mof_O 	O 	0.8782	0.3859	0.475	-0.371
Mof_V 	V 	0.5	0	0.5	1.803
Mof_V 	V 	-0	0	-0	1.67
Mof_V 	V 	0.5	0.5	-0	1.762
Mof_V 	V 	1.93117e-33	0.5	0.5	1.789
_end
