data_functionalizedCrystal
_audit_creation_method	'EQeq! by Chris Wilmer'
_symmetry_space_group_name_H-M	'P1'
_symmetry_Int_Tables_number	1
_symmetry_cell_setting	triclinic
loop_
_symmetry_equiv_pos_as_xyz
  x,y,z
_cell_length_a	14.717
_cell_length_b	14.717
_cell_length_c	15.169
_cell_angle_alpha	90
_cell_angle_beta	90
_cell_angle_gamma	120
loop_
_atom_site_label
_atom_site_type_symbol
_atom_site_fract_x
_atom_site_fract_y
_atom_site_fract_z
_atom_site_charge
Mof_Gd	Gd	0.33333	0.66666	0.25	1.865
Mof_Gd	Gd	0.66667	0.33334	0.25	1.866
Mof_Gd	Gd	0.66667	0.33334	0.75	1.88
Mof_Gd	Gd	0.33333	0.66666	0.75	1.88
Mof_Cu	Cu	0.5	0.5	-0	0.89
Mof_Cu	Cu	-0	0.5	-0	0.857
Mof_Cu	Cu	0.5	0	-0	0.857
Mof_Cu	Cu	1.67994e-17	0.5	0.5	0.914
Mof_Cu	Cu	0.5	0.5	0.5	0.948
Mof_Cu	Cu	0.5	0	0.5	0.914
Mof_H 	H 	0.7943	0.1588	0.8396	0.122
Mof_H 	H 	0.7152	0.0864	0.7667	0.083
Mof_H 	H 	0.3645	0.2057	0.8396	0.102
Mof_H 	H 	0.3712	0.2848	0.7667	0.092
Mof_H 	H 	0.8412	0.6355	0.8396	0.139
Mof_H 	H 	0.9136	0.6288	0.7667	0.133
Mof_H 	H 	0.2057	0.8412	0.8396	0.119
Mof_H 	H 	0.2848	0.9136	0.7667	0.122
Mof_H 	H 	0.6355	0.7943	0.8396	0.141
Mof_H 	H 	0.6288	0.7152	0.7667	0.114
Mof_H 	H 	0.1588	0.3645	0.8396	0.102
Mof_H 	H 	0.0864	0.3712	0.7667	0.073
Mof_H 	H 	0.6355	0.8412	0.6604	0.124
Mof_H 	H 	0.6288	0.9136	0.7333	0.134
Mof_H 	H 	0.1588	0.7943	0.6604	0.107
Mof_H 	H 	0.0864	0.7152	0.7333	0.085
Mof_H 	H 	0.2057	0.3645	0.6604	0.086
Mof_H 	H 	0.2848	0.3712	0.7333	0.094
Mof_H 	H 	0.3645	0.1588	0.6604	0.087
Mof_H 	H 	0.3712	0.0864	0.7333	0.075
Mof_H 	H 	0.8412	0.2057	0.6604	0.104
Mof_H 	H 	0.9136	0.2848	0.7333	0.123
Mof_H 	H 	0.7943	0.6355	0.6604	0.126
Mof_H 	H 	0.7152	0.6288	0.7333	0.116
Mof_H 	H 	0.2057	0.8412	0.1604	0.084
Mof_H 	H 	0.2848	0.9136	0.2333	0.114
Mof_H 	H 	0.6355	0.7943	0.1604	0.105
Mof_H 	H 	0.6288	0.7152	0.2333	0.105
Mof_H 	H 	0.1588	0.3645	0.1604	0.066
Mof_H 	H 	0.0864	0.3712	0.2333	0.064
Mof_H 	H 	0.7943	0.1588	0.1604	0.086
Mof_H 	H 	0.7152	0.0864	0.2333	0.075
Mof_H 	H 	0.3645	0.2057	0.1604	0.065
Mof_H 	H 	0.3712	0.2848	0.2333	0.083
Mof_H 	H 	0.8412	0.6355	0.1604	0.103
Mof_H 	H 	0.9136	0.6288	0.2333	0.125
Mof_H 	H 	0.3645	0.1588	0.3396	0.081
Mof_H 	H 	0.3712	0.0864	0.2667	0.063
Mof_H 	H 	0.8412	0.2057	0.3396	0.099
Mof_H 	H 	0.9136	0.2848	0.2667	0.114
Mof_H 	H 	0.7943	0.6355	0.3396	0.121
Mof_H 	H 	0.7152	0.6288	0.2667	0.105
Mof_H 	H 	0.6355	0.8412	0.3396	0.119
Mof_H 	H 	0.6288	0.9136	0.2667	0.125
Mof_H 	H 	0.1588	0.7943	0.3396	0.102
Mof_H 	H 	0.0864	0.7152	0.2667	0.074
Mof_H 	H 	0.2057	0.3645	0.3396	0.08
Mof_H 	H 	0.2848	0.3712	0.2667	0.083
Mof_C 	C 	0.1296	0.6447	0.361	0.42
Mof_C 	C 	0.8524	0.2647	0.6967	-0.22
Mof_C 	C 	0.5151	0.8704	0.361	0.432
Mof_C 	C 	0.4123	0.1476	0.6967	-0.196
Mof_C 	C 	0.3553	0.4849	0.361	0.416
Mof_C 	C 	0.7353	0.5877	0.6967	-0.234
Mof_C 	C 	0.8704	0.3553	0.361	0.424
Mof_C 	C 	0.1476	0.7353	0.6967	-0.212
Mof_C 	C 	0.4849	0.1296	0.361	0.412
Mof_C 	C 	0.5877	0.8524	0.6967	-0.236
Mof_C 	C 	0.6447	0.5151	0.361	0.431
Mof_C 	C 	0.2647	0.4123	0.6967	-0.201
Mof_C 	C 	0.4849	0.3553	0.139	0.413
Mof_C 	C 	0.5877	0.7353	0.8033	-0.231
Mof_C 	C 	0.6447	0.1296	0.139	0.417
Mof_C 	C 	0.2647	0.8524	0.8033	-0.218
Mof_C 	C 	0.8704	0.5151	0.139	0.428
Mof_C 	C 	0.1476	0.4123	0.8033	-0.193
Mof_C 	C 	0.5151	0.6447	0.139	0.428
Mof_C 	C 	0.4123	0.2647	0.8033	-0.199
Mof_C 	C 	0.3553	0.8704	0.139	0.421
Mof_C 	C 	0.7353	0.1476	0.8033	-0.209
Mof_C 	C 	0.1296	0.4849	0.139	0.409
Mof_C 	C 	0.8524	0.5877	0.8033	-0.234
Mof_C 	C 	0.8704	0.3553	0.639	0.427
Mof_C 	C 	0.1476	0.7353	0.3033	-0.203
Mof_C 	C 	0.4849	0.1296	0.639	0.416
Mof_C 	C 	0.5877	0.8524	0.3033	-0.228
Mof_C 	C 	0.6447	0.5151	0.639	0.435
Mof_C 	C 	0.2647	0.4123	0.3033	-0.192
Mof_C 	C 	0.1296	0.6447	0.639	0.424
Mof_C 	C 	0.8524	0.2647	0.3033	-0.212
Mof_C 	C 	0.5151	0.8704	0.639	0.435
Mof_C 	C 	0.4123	0.1476	0.3033	-0.186
Mof_C 	C 	0.3553	0.4849	0.639	0.42
Mof_C 	C 	0.7353	0.5877	0.3033	-0.225
Mof_C 	C 	0.5151	0.6447	0.861	0.432
Mof_C 	C 	0.4123	0.2647	0.1967	-0.191
Mof_C 	C 	0.3553	0.8704	0.861	0.425
Mof_C 	C 	0.7353	0.1476	0.1967	-0.202
Mof_C 	C 	0.1296	0.4849	0.861	0.413
Mof_C 	C 	0.8524	0.5877	0.1967	-0.227
Mof_C 	C 	0.4849	0.3553	0.861	0.417
Mof_C 	C 	0.5877	0.7353	0.1967	-0.224
Mof_C 	C 	0.6447	0.1296	0.861	0.421
Mof_C 	C 	0.2647	0.8524	0.1967	-0.21
Mof_C 	C 	0.8704	0.5151	0.861	0.433
Mof_C 	C 	0.1476	0.4123	0.1967	-0.185
Mof_O 	O 	0.1941	0.61304	0.35658	-0.446
Mof_O 	O 	0.0511	0.6097	0.41	-0.435
Mof_O 	O 	0.41894	0.8059	0.35658	-0.432
Mof_O 	O 	0.5586	0.9489	0.41	-0.372
Mof_O 	O 	0.38696	0.58106	0.35658	-0.438
Mof_O 	O 	0.3903	0.4414	0.41	-0.414
Mof_O 	O 	0.8059	0.38696	0.35658	-0.43
Mof_O 	O 	0.9489	0.3903	0.41	-0.374
Mof_O 	O 	0.58106	0.1941	0.35658	-0.445
Mof_O 	O 	0.4414	0.0511	0.41	-0.438
Mof_O 	O 	0.61304	0.41894	0.35658	-0.442
Mof_O 	O 	0.6097	0.5586	0.41	-0.409
Mof_O 	O 	0.58106	0.38696	0.14342	-0.457
Mof_O 	O 	0.4414	0.3903	0.09	-0.447
Mof_O 	O 	0.61304	0.1941	0.14342	-0.465
Mof_O 	O 	0.6097	0.0511	0.09	-0.467
Mof_O 	O 	0.8059	0.41894	0.14342	-0.451
Mof_O 	O 	0.9489	0.5586	0.09	-0.403
Mof_O 	O 	0.41894	0.61304	0.14342	-0.461
Mof_O 	O 	0.5586	0.6097	0.09	-0.441
Mof_O 	O 	0.38696	0.8059	0.14342	-0.449
Mof_O 	O 	0.3903	0.9489	0.09	-0.406
Mof_O 	O 	0.1941	0.58106	0.14342	-0.464
Mof_O 	O 	0.0511	0.4414	0.09	-0.47
Mof_O 	O 	0.8059	0.38696	0.64342	-0.433
Mof_O 	O 	0.9489	0.3903	0.59	-0.375
Mof_O 	O 	0.58106	0.1941	0.64342	-0.448
Mof_O 	O 	0.4414	0.0511	0.59	-0.438
Mof_O 	O 	0.61304	0.41894	0.64342	-0.445
Mof_O 	O 	0.6097	0.5586	0.59	-0.41
Mof_O 	O 	0.1941	0.61304	0.64342	-0.449
Mof_O 	O 	0.0511	0.6097	0.59	-0.436
Mof_O 	O 	0.41894	0.8059	0.64342	-0.435
Mof_O 	O 	0.5586	0.9489	0.59	-0.373
Mof_O 	O 	0.38696	0.58106	0.64342	-0.441
Mof_O 	O 	0.3903	0.4414	0.59	-0.415
Mof_O 	O 	0.41894	0.61304	0.85658	-0.419
Mof_O 	O 	0.5586	0.6097	0.91	-0.353
Mof_O 	O 	0.38696	0.8059	0.85658	-0.408
Mof_O 	O 	0.3903	0.9489	0.91	-0.32
Mof_O 	O 	0.1941	0.58106	0.85658	-0.422
Mof_O 	O 	0.0511	0.4414	0.91	-0.381
Mof_O 	O 	0.58106	0.38696	0.85658	-0.415
Mof_O 	O 	0.4414	0.3903	0.91	-0.357
Mof_O 	O 	0.61304	0.1941	0.85658	-0.423
Mof_O 	O 	0.6097	0.0511	0.91	-0.378
Mof_O 	O 	0.8059	0.41894	0.85658	-0.41
Mof_O 	O 	0.9489	0.5586	0.91	-0.318
Mof_O 	O 	0.7641	0.2359	0.75	-0.216
Mof_O 	O 	0.4718	0.2359	0.75	-0.228
Mof_O 	O 	0.7641	0.5282	0.75	-0.204
Mof_O 	O 	0.2359	0.7641	0.75	-0.216
Mof_O 	O 	0.5282	0.7641	0.75	-0.204
Mof_O 	O 	0.2359	0.4718	0.75	-0.228
Mof_O 	O 	0.2359	0.7641	0.25	-0.224
Mof_O 	O 	0.5282	0.7641	0.25	-0.212
Mof_O 	O 	0.2359	0.4718	0.25	-0.236
Mof_O 	O 	0.7641	0.2359	0.25	-0.223
Mof_O 	O 	0.4718	0.2359	0.25	-0.235
Mof_O 	O 	0.7641	0.5282	0.25	-0.212
_end
