data_functionalizedCrystal
_audit_creation_method	'EQeq! by Chris Wilmer'
_symmetry_space_group_name_H-M	'P1'
_symmetry_Int_Tables_number	1
_symmetry_cell_setting	triclinic
loop_
_symmetry_equiv_pos_as_xyz
  x,y,z
_cell_length_a	11.7463
_cell_length_b	10.957
_cell_length_c	15.8217
_cell_angle_alpha	90
_cell_angle_beta	91.76
_cell_angle_gamma	90
loop_
_atom_site_label
_atom_site_type_symbol
_atom_site_fract_x
_atom_site_fract_y
_atom_site_fract_z
_atom_site_charge
Mof_Mn	Mn	0.25927	0.04236	0.13514	0.878
Mof_Mn	Mn	0.23982	0.82833	0.28587	1.011
Mof_O 	O 	0.9662	0.967	0.13223	-0.31
Mof_O 	O 	0.12985	0.93916	0.20287	-0.443
Mof_C 	C 	0.0222	0.9385	0.195	0.351
Mof_H 	H 	0.9812	0.9133	0.2428	-0.046
Mof_O 	O 	0.0213	0.1889	0.02853	-0.483
Mof_O 	O 	0.1574	0.21211	0.12804	-0.513
Mof_C 	C 	0.0753	0.2484	0.0809	0.522
Mof_H 	H 	0.0534	0.3313	0.087	-0.156
Mof_O 	O 	0.29994	0.14129	0.25711	-0.535
Mof_O 	O 	0.3088	0.985	0.3464	-0.418
Mof_C 	C 	0.3179	0.0942	0.3303	0.589
Mof_C 	C 	0.3548	0.1722	0.4013	-0.946
Mof_H 	H 	0.3337	0.1339	0.4546	0.297
Mof_H 	H 	0.3178	0.252	0.3959	0.296
Mof_H 	H 	0.4377	0.1826	0.4009	0.303
Mof_O 	O 	0.18748	0.9718	0.01742	-0.498
Mof_O 	O 	0.3452	0.9168	0.95398	-0.379
Mof_C 	C 	0.2419	0.9192	0.9603	0.592
Mof_H 	H 	0.1981	0.8773	0.918	-0.129
Mof_O 	O 	0.40348	0.12947	0.0779	-0.51
Mof_O 	O 	0.3963	0.319	0.12803	-0.441
Mof_C 	C 	0.4372	0.2383	0.0843	0.522
Mof_H 	H 	0.5008	0.2603	0.052	-0.149
Mof_O 	O 	0.34983	0.8752	0.17851	-0.525
Mof_O 	O 	0.5043	0.8723	0.10151	-0.449
Mof_C 	C 	0.4425	0.828	0.1549	0.654
Mof_C 	C 	0.48	0.7079	0.1909	-0.951
Mof_H 	H 	0.5423	0.7209	0.2326	0.308
Mof_H 	H 	0.5065	0.6554	0.1453	0.3
Mof_H 	H 	0.4159	0.6686	0.2183	0.293
Mof_Mn	Mn	0.24073	0.54236	0.36486	0.991
Mof_Mn	Mn	0.26018	0.32833	0.21413	1.013
Mof_O 	O 	0.5338	0.467	0.36777	-0.438
Mof_O 	O 	0.37015	0.43916	0.29713	-0.515
Mof_C 	C 	0.4778	0.4385	0.305	0.513
Mof_H 	H 	0.5188	0.4133	0.2572	-0.134
Mof_O 	O 	0.4787	0.6889	0.47147	-0.455
Mof_O 	O 	0.3426	0.71211	0.37196	-0.508
Mof_C 	C 	0.4247	0.7484	0.4191	0.533
Mof_H 	H 	0.4466	0.8313	0.413	-0.13
Mof_O 	O 	0.20006	0.64129	0.24289	-0.558
Mof_O 	O 	0.1912	0.485	0.1536	-0.505
Mof_C 	C 	0.1821	0.5942	0.1697	0.691
Mof_C 	C 	0.1452	0.6722	0.0987	-1.011
Mof_H 	H 	0.1663	0.6339	0.0454	0.307
Mof_H 	H 	0.1822	0.752	0.1041	0.309
Mof_H 	H 	0.0623	0.6826	0.0991	0.308
Mof_O 	O 	0.31252	0.4718	0.48258	-0.513
Mof_O 	O 	0.1548	0.4168	0.54602	-0.446
Mof_C 	C 	0.2581	0.4192	0.5397	0.53
Mof_H 	H 	0.3019	0.3773	0.582	-0.137
Mof_O 	O 	0.09652	0.62947	0.4221	-0.493
Mof_O 	O 	0.1037	0.819	0.37197	-0.416
Mof_C 	C 	0.0628	0.7383	0.4157	0.46
Mof_H 	H 	0.9992	0.7603	0.448	-0.082
Mof_O 	O 	0.15017	0.3752	0.32149	-0.566
Mof_O 	O 	0.9957	0.3723	0.39849	-0.466
Mof_C 	C 	0.0575	0.328	0.3451	0.687
Mof_C 	C 	0.02	0.2079	0.3091	-1.15
Mof_H 	H 	0.9577	0.2209	0.2674	0.371
Mof_H 	H 	0.9935	0.1554	0.3547	0.372
Mof_H 	H 	0.0841	0.1686	0.2817	0.337
Mof_Mn	Mn	0.74073	0.95764	0.86486	1.093
Mof_Mn	Mn	0.76018	0.17167	0.71413	1.03
Mof_O 	O 	0.0338	0.033	0.86777	-0.456
Mof_O 	O 	0.87015	0.06084	0.79713	-0.559
Mof_C 	C 	0.9778	0.0615	0.805	0.605
Mof_H 	H 	0.0188	0.0867	0.7572	-0.185
Mof_O 	O 	0.9787	0.8111	0.97147	-0.35
Mof_O 	O 	0.8426	0.78789	0.87196	-0.489
Mof_C 	C 	0.9247	0.7516	0.9191	0.505
Mof_H 	H 	0.9466	0.6687	0.913	-0.109
Mof_O 	O 	0.70006	0.85871	0.74289	-0.589
Mof_O 	O 	0.6912	0.015	0.6536	-0.582
Mof_C 	C 	0.6821	0.9058	0.6697	0.832
Mof_C 	C 	0.6452	0.8278	0.5987	-1.176
Mof_H 	H 	0.6663	0.8661	0.5454	0.394
Mof_H 	H 	0.6822	0.748	0.6041	0.364
Mof_H 	H 	0.5623	0.8174	0.5991	0.384
Mof_O 	O 	0.81252	0.0282	0.98258	-0.41
Mof_O 	O 	0.6548	0.0832	0.04602	-0.42
Mof_C 	C 	0.7581	0.0808	0.0397	0.36
Mof_H 	H 	0.8019	0.1227	0.082	-0.095
Mof_O 	O 	0.59652	0.87053	0.9221	-0.449
Mof_O 	O 	0.6037	0.681	0.87197	-0.419
Mof_C 	C 	0.5628	0.7617	0.9157	0.511
Mof_H 	H 	0.4992	0.7397	0.948	-0.101
Mof_O 	O 	0.65017	0.1248	0.82149	-0.576
Mof_O 	O 	0.4957	0.1277	0.89849	-0.449
Mof_C 	C 	0.5575	0.172	0.8451	0.674
Mof_C 	C 	0.52	0.2921	0.8091	-0.981
Mof_H 	H 	0.4577	0.2791	0.7674	0.312
Mof_H 	H 	0.4935	0.3446	0.8547	0.33
Mof_H 	H 	0.5841	0.3314	0.7817	0.304
Mof_Mn	Mn	0.75927	0.45764	0.63514	0.999
Mof_Mn	Mn	0.73982	0.67167	0.78587	1.029
Mof_O 	O 	0.4662	0.533	0.63223	-0.435
Mof_O 	O 	0.62985	0.56084	0.70287	-0.518
Mof_C 	C 	0.5222	0.5615	0.695	0.51
Mof_H 	H 	0.4812	0.5867	0.7428	-0.126
Mof_O 	O 	0.5213	0.3111	0.52853	-0.461
Mof_O 	O 	0.6574	0.28789	0.62804	-0.515
Mof_C 	C 	0.5753	0.2516	0.5809	0.538
Mof_H 	H 	0.5534	0.1687	0.587	-0.148
Mof_O 	O 	0.79994	0.35871	0.75711	-0.57
Mof_O 	O 	0.8088	0.515	0.8464	-0.504
Mof_C 	C 	0.8179	0.4058	0.8303	0.748
Mof_C 	C 	0.8548	0.3278	0.9013	-1.142
Mof_H 	H 	0.8337	0.3661	0.9546	0.397
Mof_H 	H 	0.8178	0.248	0.8959	0.367
Mof_H 	H 	0.9377	0.3174	0.9009	0.393
Mof_O 	O 	0.68748	0.5282	0.51742	-0.512
Mof_O 	O 	0.8452	0.5832	0.45398	-0.427
Mof_C 	C 	0.7419	0.5808	0.4603	0.522
Mof_H 	H 	0.6981	0.6227	0.418	-0.13
Mof_O 	O 	0.90348	0.37053	0.5779	-0.513
Mof_O 	O 	0.8963	0.181	0.62803	-0.452
Mof_C 	C 	0.9372	0.2617	0.5843	0.592
Mof_H 	H 	0.0008	0.2397	0.552	-0.18
Mof_O 	O 	0.84983	0.6248	0.67851	-0.554
Mof_O 	O 	0.0043	0.6277	0.60151	-0.504
Mof_C 	C 	0.9425	0.672	0.6549	0.667
Mof_C 	C 	0.98	0.7921	0.6909	-0.802
Mof_H 	H 	0.0423	0.7791	0.7326	0.252
Mof_H 	H 	0.0065	0.8446	0.6453	0.259
Mof_H 	H 	0.9159	0.8314	0.7183	0.266
Mof_Mn	Mn	-0	0	-0	0.776
Mof_Mn	Mn	0.5	0.5	0.5	1.042
Mof_Mn	Mn	0.5	0	-0	0.862
Mof_Mn	Mn	2.60268e-33	0.5	0.5	1.037
_end
