# CIF file generated by openbabel 3.1.0, see https://openbabel.org
data_I
_chemical_name_common 'image0'
_cell_length_a 14.1153
_cell_length_b 8.8505
_cell_length_c 13.5704
_cell_angle_alpha 90
_cell_angle_beta 111.761
_cell_angle_gamma 90
_space_group_name_H-M_alt 'P 1'
_space_group_name_Hall 'P 1'
loop_
    _symmetry_equiv_pos_as_xyz
    x,y,z
loop_
    _atom_site_label
    _atom_site_type_symbol
    _atom_site_fract_x
    _atom_site_fract_y
    _atom_site_fract_z
    _atom_site_occupancy
    O1       O        0.41853    0.64860    0.64040    1.000
    O2       O        0.31430    0.45350    0.58780    1.000
    O3       O        0.34800    0.46570    0.36480    1.000
    O4       O        0.44049    0.64250    0.32532    1.000
    C1       C        0.33690    0.58460    0.57440    1.000
    C2       C        0.37420    0.59700    0.36450    1.000
    C3       C        0.27000    0.67940    0.48010    1.000
    H1       H        0.21110    0.61800    0.43780    1.000
    C4       C        0.32860    0.72470    0.40900    1.000
    H2       H        0.28270    0.78230    0.34960    1.000
    H3       H        0.38360    0.79180    0.44940    1.000
    O5       O        0.91853    0.14860    0.64040    1.000
    O6       O        0.81430    0.95350    0.58780    1.000
    O7       O        0.84800    0.96570    0.36480    1.000
    O8       O        0.94049    0.14250    0.32532    1.000
    C5       C        0.83690    0.08460    0.57440    1.000
    C6       C        0.87420    0.09700    0.36450    1.000
    C7       C        0.77000    0.17940    0.48010    1.000
    H4       H        0.71110    0.11800    0.43780    1.000
    C8       C        0.82860    0.22470    0.40900    1.000
    H5       H        0.78270    0.28230    0.34960    1.000
    H6       H        0.88360    0.29180    0.44940    1.000
    O9       O        0.58147    0.64860    0.85960    1.000
    O10      O        0.68570    0.45350    0.91220    1.000
    O11      O        0.65200    0.46570    0.13520    1.000
    O12      O        0.55951    0.64250    0.17468    1.000
    C9       C        0.66310    0.58460    0.92560    1.000
    C10      C        0.62580    0.59700    0.13550    1.000
    C11      C        0.73000    0.67940    0.01990    1.000
    H7       H        0.78890    0.61800    0.06220    1.000
    C12      C        0.67140    0.72470    0.09100    1.000
    H8       H        0.71730    0.78230    0.15040    1.000
    H9       H        0.61640    0.79180    0.05060    1.000
    O13      O        0.08147    0.14860    0.85960    1.000
    O14      O        0.18570    0.95350    0.91220    1.000
    O15      O        0.15200    0.96570    0.13520    1.000
    O16      O        0.05951    0.14250    0.17468    1.000
    C13      C        0.16310    0.08460    0.92560    1.000
    C14      C        0.12580    0.09700    0.13550    1.000
    C15      C        0.23000    0.17940    0.01990    1.000
    H10      H        0.28890    0.11800    0.06220    1.000
    C16      C        0.17140    0.22470    0.09100    1.000
    H11      H        0.21730    0.28230    0.15040    1.000
    H12      H        0.11640    0.29180    0.05060    1.000
    O17      O        0.58147    0.35140    0.35960    1.000
    O18      O        0.68570    0.54650    0.41220    1.000
    O19      O        0.65200    0.53430    0.63520    1.000
    O20      O        0.55951    0.35750    0.67468    1.000
    C17      C        0.66310    0.41540    0.42560    1.000
    C18      C        0.62580    0.40300    0.63550    1.000
    C19      C        0.73000    0.32060    0.51990    1.000
    H13      H        0.78890    0.38200    0.56220    1.000
    C20      C        0.67140    0.27530    0.59100    1.000
    H14      H        0.71730    0.21770    0.65040    1.000
    H15      H        0.61640    0.20820    0.55060    1.000
    O21      O        0.08147    0.85140    0.35960    1.000
    O22      O        0.18570    0.04650    0.41220    1.000
    O23      O        0.15200    0.03430    0.63520    1.000
    O24      O        0.05951    0.85750    0.67468    1.000
    C21      C        0.16310    0.91540    0.42560    1.000
    C22      C        0.12580    0.90300    0.63550    1.000
    C23      C        0.23000    0.82060    0.51990    1.000
    H16      H        0.28890    0.88200    0.56220    1.000
    C24      C        0.17140    0.77530    0.59100    1.000
    H17      H        0.21730    0.71770    0.65040    1.000
    H18      H        0.11640    0.70820    0.55060    1.000
    O25      O        0.41853    0.35140    0.14040    1.000
    O26      O        0.31430    0.54650    0.08780    1.000
    O27      O        0.34800    0.53430    0.86480    1.000
    O28      O        0.44049    0.35750    0.82532    1.000
    C25      C        0.33690    0.41540    0.07440    1.000
    C26      C        0.37420    0.40300    0.86450    1.000
    C27      C        0.27000    0.32060    0.98010    1.000
    H19      H        0.21110    0.38200    0.93780    1.000
    C28      C        0.32860    0.27530    0.90900    1.000
    H20      H        0.28270    0.21770    0.84960    1.000
    H21      H        0.38360    0.20820    0.94940    1.000
    O29      O        0.91853    0.85140    0.14040    1.000
    O30      O        0.81430    0.04650    0.08780    1.000
    O31      O        0.84800    0.03430    0.86480    1.000
    O32      O        0.94049    0.85750    0.82532    1.000
    C29      C        0.83690    0.91540    0.07440    1.000
    C30      C        0.87420    0.90300    0.86450    1.000
    C31      C        0.77000    0.82060    0.98010    1.000
    H22      H        0.71110    0.88200    0.93780    1.000
    C32      C        0.82860    0.77530    0.90900    1.000
    H23      H        0.78270    0.71770    0.84960    1.000
    H24      H        0.88360    0.70820    0.94940    1.000
    Zn1      Zn       0.50000    0.50029    0.75000    1.000
    Zn2      Zn       0.00000    0.00029    0.75000    1.000
    Zn3      Zn       0.50000    0.49971    0.25000    1.000
    Zn4      Zn       0.00000    0.99971    0.25000    1.000
