# CIF file generated by openbabel 3.1.0, see https://openbabel.org
data_I
_chemical_name_common 'LUSJOZ_clean'
_cell_length_a 12.7287
_cell_length_b 12.7287
_cell_length_c 13.805
_cell_angle_alpha 67.793
_cell_angle_beta 65.5436
_cell_angle_gamma 98.1105
_space_group_name_H-M_alt 'P 1'
_space_group_name_Hall 'P 1'
loop_
    _symmetry_equiv_pos_as_xyz
    x,y,z
loop_
    _atom_site_label
    _atom_site_type_symbol
    _atom_site_fract_x
    _atom_site_fract_y
    _atom_site_fract_z
    _atom_site_occupancy
    Mn1      Mn       0.00000    0.50000    0.50000    1.000
    Mn2      Mn       0.50000    0.50000    0.00000    1.000
    Mn3      Mn       0.18662    0.43662    0.25000    1.000
    Mn4      Mn       0.81338    0.56338    0.75000    1.000
    H1       H        0.73770    0.11320    0.72270    1.000
    H2       H        0.63550    0.90870    0.82340    1.000
    H3       H        0.84820    0.88910    0.52750    1.000
    H4       H        0.94380    0.09570    0.42310    1.000
    H5       H        0.75380    0.67940    0.52080    1.000
    H6       H        0.60430    0.67950    0.46920    1.000
    H7       H        0.52900    0.32550    0.58170    1.000
    H8       H        0.68290    0.33540    0.62490    1.000
    H9       H        0.33590    0.46040    0.77730    1.000
    H10      H        0.23210    0.45890    0.67660    1.000
    H11      H        0.91660    0.37570    0.97250    1.000
    H12      H        0.01880    0.36690    0.07690    1.000
    H13      H        0.70020    0.27460    0.97920    1.000
    H14      H        0.64870    0.07350    0.03080    1.000
    H15      H        0.40720    0.11070    0.91830    1.000
    H16      H        0.46030    0.30780    0.87510    1.000
    H17      H        0.26230    0.88680    0.27730    1.000
    H18      H        0.36450    0.09130    0.17660    1.000
    H19      H        0.15180    0.11090    0.47250    1.000
    H20      H        0.05620    0.90430    0.57690    1.000
    H21      H        0.24620    0.32060    0.47920    1.000
    H22      H        0.39570    0.32050    0.53080    1.000
    H23      H        0.47100    0.67450    0.41830    1.000
    H24      H        0.31710    0.66460    0.37510    1.000
    H25      H        0.66410    0.53960    0.22270    1.000
    H26      H        0.76790    0.54110    0.32340    1.000
    H27      H        0.08340    0.62430    0.02750    1.000
    H28      H        0.98120    0.63310    0.92310    1.000
    H29      H        0.29980    0.72540    0.02080    1.000
    H30      H        0.35130    0.92650    0.96920    1.000
    H31      H        0.59280    0.88930    0.08170    1.000
    H32      H        0.53970    0.69220    0.12490    1.000
    C1       C        0.92900    0.25940    0.49640    1.000
    C2       C        0.85610    0.12700    0.56190    1.000
    C3       C        0.76070    0.06840    0.68270    1.000
    C4       C        0.70000    0.94560    0.74320    1.000
    C5       C        0.73250    0.87480    0.68790    1.000
    C6       C        0.82500    0.93370    0.56750    1.000
    C7       C        0.88400    0.05790    0.50510    1.000
    C8       C        0.67430    0.73990    0.75700    1.000
    C9       C        0.70730    0.60710    0.53340    1.000
    C10      C        0.61800    0.60760    0.50140    1.000
    C11      C        0.54790    0.50200    0.51690    1.000
    C12      C        0.57420    0.39960    0.56700    1.000
    C13      C        0.66490    0.40500    0.59510    1.000
    C14      C        0.25580    0.42540    0.00360    1.000
    C15      C        0.18890    0.41800    0.93810    1.000
    C16      C        0.25110    0.44340    0.81730    1.000
    C17      C        0.18880    0.44320    0.75680    1.000
    C18      C        0.06270    0.42040    0.81210    1.000
    C19      C        0.00120    0.39250    0.93250    1.000
    C20      C        0.06300    0.38910    0.99490    1.000
    C21      C        0.99690    0.43130    0.74300    1.000
    C22      C        0.64050    0.24070    0.96660    1.000
    C23      C        0.60900    0.11940    0.99860    1.000
    C24      C        0.51890    0.06480    0.98310    1.000
    C25      C        0.46660    0.14120    0.93300    1.000
    C26      C        0.50010    0.26000    0.90490    1.000
    C27      C        0.07100    0.74060    0.50360    1.000
    C28      C        0.14390    0.87300    0.43810    1.000
    C29      C        0.23930    0.93160    0.31730    1.000
    C30      C        0.30000    0.05440    0.25680    1.000
    C31      C        0.26750    0.12520    0.31210    1.000
    C32      C        0.17500    0.06630    0.43250    1.000
    C33      C        0.11600    0.94210    0.49490    1.000
    C34      C        0.32570    0.26010    0.24300    1.000
    C35      C        0.29270    0.39290    0.46660    1.000
    C36      C        0.38200    0.39240    0.49860    1.000
    C37      C        0.45210    0.49800    0.48310    1.000
    C38      C        0.42580    0.60040    0.43300    1.000
    C39      C        0.33510    0.59500    0.40490    1.000
    C40      C        0.74420    0.57460    0.99640    1.000
    C41      C        0.81110    0.58200    0.06190    1.000
    C42      C        0.74890    0.55660    0.18270    1.000
    C43      C        0.81120    0.55680    0.24320    1.000
    C44      C        0.93730    0.57960    0.18790    1.000
    C45      C        0.99880    0.60750    0.06750    1.000
    C46      C        0.93700    0.61090    0.00510    1.000
    C47      C        0.00310    0.56870    0.25700    1.000
    C48      C        0.35950    0.75930    0.03340    1.000
    C49      C        0.39100    0.88060    0.00140    1.000
    C50      C        0.48110    0.93520    0.01690    1.000
    C51      C        0.53340    0.85880    0.06700    1.000
    C52      C        0.49990    0.74000    0.09510    1.000
    N1       N        0.72900    0.50800    0.58080    1.000
    N2       N        0.58880    0.30980    0.91920    1.000
    N3       N        0.27100    0.49200    0.41920    1.000
    N4       N        0.41120    0.69020    0.08080    1.000
    O1       O        0.90750    0.31580    0.55730    1.000
    O2       O        0.00840    0.30620    0.38560    1.000
    O3       O        0.58280    0.69150    0.86270    1.000
    O4       O        0.72100    0.68290    0.70350    1.000
    O5       O        0.81350    0.50930    0.61240    1.000
    O6       O        0.37310    0.46480    0.94270    1.000
    O7       O        0.19180    0.39400    0.11440    1.000
    O8       O        0.05420    0.44550    0.63730    1.000
    O9       O        0.88640    0.42450    0.79650    1.000
    O10      O        0.62170    0.42590    0.88760    1.000
    O11      O        0.09250    0.68420    0.44270    1.000
    O12      O        0.99160    0.69380    0.61440    1.000
    O13      O        0.41720    0.30850    0.13730    1.000
    O14      O        0.27900    0.31710    0.29650    1.000
    O15      O        0.18650    0.49070    0.38760    1.000
    O16      O        0.62690    0.53520    0.05730    1.000
    O17      O        0.80820    0.60600    0.88560    1.000
    O18      O        0.94580    0.55450    0.36270    1.000
    O19      O        0.11360    0.57550    0.20350    1.000
    O20      O        0.37830    0.57410    0.11240    1.000
