data_functionalizedCrystal
_audit_creation_method	'EQeq! by Chris Wilmer'
_symmetry_space_group_name_H-M	'P1'
_symmetry_Int_Tables_number	1
_symmetry_cell_setting	triclinic
loop_
_symmetry_equiv_pos_as_xyz
  x,y,z
_cell_length_a	18.3196
_cell_length_b	21.4448
_cell_length_c	22.3854
_cell_angle_alpha	90
_cell_angle_beta	90
_cell_angle_gamma	90
loop_
_atom_site_label
_atom_site_type_symbol
_atom_site_fract_x
_atom_site_fract_y
_atom_site_fract_z
_atom_site_charge
Mof_Cd	Cd	0.34445	0.77251	0.56767	0.478
Mof_Cd	Cd	0.40554	0.74238	0.40272	0.444
Mof_Cd	Cd	0.4517	0.75541	0.23216	0.476
Mof_Cd	Cd	0.65555	0.22749	0.06767	0.477
Mof_Cd	Cd	0.59446	0.25762	0.90272	0.444
Mof_Cd	Cd	0.5483	0.24459	0.73216	0.476
Mof_Cd	Cd	0.15555	0.27251	0.56767	0.478
Mof_Cd	Cd	0.09446	0.24238	0.40272	0.444
Mof_Cd	Cd	0.0483	0.25541	0.23216	0.476
Mof_Cd	Cd	0.84445	0.72749	0.06767	0.477
Mof_Cd	Cd	0.90554	0.75762	0.90272	0.444
Mof_Cd	Cd	0.9517	0.74459	0.73216	0.476
Mof_H 	H 	0.398	0.6718	0.6258	0.315
Mof_H 	H 	0.395	0.715	0.6744	0.317
Mof_H 	H 	0.397	0.674	0.1412	0.335
Mof_H 	H 	0.415	0.6411	0.1962	0.319
Mof_H 	H 	0.3968	0.457	0.66	0.109
Mof_H 	H 	0.1018	0.7365	0.226	0.15
Mof_H 	H 	0.1911	0.7217	0.0836	0.153
Mof_H 	H 	0.1816	0.8818	0.4355	0.033
Mof_H 	H 	0.1431	0.9238	0.3451	0.064
Mof_H 	H 	0.2278	0.9563	0.275	0.029
Mof_H 	H 	0.3525	0.9517	0.2976	0.067
Mof_H 	H 	0.5901	0.9022	0.3507	0.053
Mof_H 	H 	0.6142	0.9669	0.4329	0.066
Mof_H 	H 	0.5175	0.999	0.4942	0.022
Mof_H 	H 	0.3986	0.9734	0.4696	0.06
Mof_H 	H 	0.4552	0.3689	0.7349	0.05
Mof_H 	H 	0.2387	0.3392	0.7248	0.078
Mof_H 	H 	0.3686	0.4543	0.7572	0.069
Mof_H 	H 	0.2847	0.4451	0.7395	0.075
Mof_H 	H 	0.2615	0.2326	0.7275	0.069
Mof_H 	H 	0.3811	0.1968	0.7339	0.047
Mof_H 	H 	0.3749	0.5496	0.6338	0.053
Mof_H 	H 	0.3779	0.5468	0.7053	0.058
Mof_H 	H 	0.2937	0.3955	0.6215	0.065
Mof_H 	H 	0.3219	0.4507	0.5792	0.056
Mof_H 	H 	0.2488	0.5443	0.7093	0.074
Mof_H 	H 	0.2758	0.6055	0.6746	0.076
Mof_H 	H 	0.1942	0.4578	0.5886	0.065
Mof_H 	H 	0.2008	0.4602	0.66	0.065
Mof_H 	H 	0.1361	0.5652	0.6561	0.075
Mof_H 	H 	0.1297	0.5456	0.5874	0.067
Mof_H 	H 	0.2705	0.643	0.5801	0.052
Mof_H 	H 	0.0532	0.6525	0.6083	0.076
Mof_H 	H 	0.0579	0.7572	0.5791	0.064
Mof_H 	H 	0.1687	0.8032	0.5582	0.037
Mof_H 	H 	0.2974	0.7763	0.2998	0.065
Mof_H 	H 	0.2525	0.7031	0.4565	0.028
Mof_H 	H 	0.1292	0.7074	0.4379	0.052
Mof_H 	H 	0.0881	0.7485	0.3466	0.061
Mof_H 	H 	0.1285	0.8273	0.2629	0.068
Mof_H 	H 	0.2104	0.8198	0.2394	0.078
Mof_H 	H 	0.2101	0.6792	0.2303	0.057
Mof_H 	H 	0.2436	0.725	0.1809	0.073
Mof_H 	H 	0.1624	0.811	0.1397	0.063
Mof_H 	H 	0.0808	0.8164	0.165	0.059
Mof_H 	H 	0.211	0.6304	0.1356	0.057
Mof_H 	H 	0.129	0.6372	0.1598	0.066
Mof_H 	H 	0.0505	0.7201	0.1214	0.081
Mof_H 	H 	0.0804	0.7666	0.071	0.067
Mof_H 	H 	0.1715	0.625	0.0335	0.071
Mof_H 	H 	0.0877	0.6302	0.0531	0.07
Mof_H 	H 	0.0049	0.6936	0.9977	0.065
Mof_H 	H 	0.2178	0.6966	0.952	0.078
Mof_H 	H 	0.1853	0.7499	0.8653	0.061
Mof_H 	H 	0.0656	0.7807	0.8516	0.033
Mof_H 	H 	0.2811	0.9093	0.1886	0.031
Mof_H 	H 	0.4469	0.9014	0.977	0.059
Mof_H 	H 	0.5167	0.8365	0.9178	0.029
Mof_H 	H 	0.3646	0.5538	0.4987	0.067
Mof_H 	H 	0.2512	0.5941	0.3173	0.031
Mof_H 	H 	0.2412	0.5388	0.4896	0.031
Mof_H 	H 	0.1826	0.5599	0.3983	0.061
Mof_H 	H 	0.4204	0.6862	0.9898	0.046
Mof_H 	H 	0.4984	0.9365	0.5811	0.032
Mof_H 	H 	0.5579	0.0267	0.6116	0.063
Mof_H 	H 	0.4838	0.9987	0.7785	0.071
Mof_H 	H 	0.551	0.0569	0.7114	0.04
Mof_H 	H 	0.35	0.9744	0.7927	0.069
Mof_H 	H 	0.2783	0.9272	0.8665	0.038
Mof_H 	H 	0.374	0.7613	0.8295	0.053
Mof_H 	H 	0.221	0.9885	0.1366	0.063
Mof_H 	H 	0.2416	0.0002	0.0327	0.035
Mof_H 	H 	0.3139	0.9303	0.9844	0.065
Mof_H 	H 	0.5072	0.7303	0.9252	0.06
Mof_H 	H 	0.2915	0.8208	0.8851	0.06
Mof_H 	H 	0.5944	0.6366	0.5138	0.04
Mof_H 	H 	0.6674	0.5872	0.4428	0.061
Mof_H 	H 	0.6151	0.5372	0.3622	0.045
Mof_H 	H 	0.4897	0.5396	0.3478	0.067
Mof_H 	H 	0.602	0.3282	0.1258	0.314
Mof_H 	H 	0.605	0.285	0.1744	0.316
Mof_H 	H 	0.603	0.326	0.6412	0.334
Mof_H 	H 	0.585	0.3589	0.6962	0.318
Mof_H 	H 	0.6032	0.543	0.16	0.108
Mof_H 	H 	0.8982	0.2635	0.726	0.149
Mof_H 	H 	0.8089	0.2783	0.5836	0.153
Mof_H 	H 	0.8184	0.1182	0.9355	0.033
Mof_H 	H 	0.8569	0.0762	0.8451	0.063
Mof_H 	H 	0.7722	0.0437	0.775	0.028
Mof_H 	H 	0.6475	0.0483	0.7976	0.066
Mof_H 	H 	0.4099	0.0978	0.8507	0.053
Mof_H 	H 	0.3858	0.0331	0.9329	0.066
Mof_H 	H 	0.4825	0.001	0.9942	0.023
Mof_H 	H 	0.6014	0.0266	0.9696	0.061
Mof_H 	H 	0.5448	0.6311	0.2349	0.05
Mof_H 	H 	0.7613	0.6608	0.2248	0.078
Mof_H 	H 	0.6314	0.5457	0.2572	0.069
Mof_H 	H 	0.7153	0.5549	0.2395	0.075
Mof_H 	H 	0.7385	0.7674	0.2275	0.069
Mof_H 	H 	0.6189	0.8032	0.2339	0.047
Mof_H 	H 	0.6251	0.4504	0.1338	0.053
Mof_H 	H 	0.6221	0.4532	0.2053	0.058
Mof_H 	H 	0.7063	0.6045	0.1215	0.065
Mof_H 	H 	0.6781	0.5493	0.0792	0.056
Mof_H 	H 	0.7512	0.4557	0.2093	0.074
Mof_H 	H 	0.7242	0.3945	0.1746	0.076
Mof_H 	H 	0.8058	0.5422	0.0886	0.065
Mof_H 	H 	0.7992	0.5398	0.16	0.065
Mof_H 	H 	0.8639	0.4348	0.1561	0.075
Mof_H 	H 	0.8703	0.4544	0.0874	0.066
Mof_H 	H 	0.7295	0.357	0.0801	0.052
Mof_H 	H 	0.9468	0.3475	0.1083	0.076
Mof_H 	H 	0.9421	0.2428	0.0791	0.064
Mof_H 	H 	0.8313	0.1968	0.0582	0.037
Mof_H 	H 	0.7026	0.2237	0.7998	0.065
Mof_H 	H 	0.7475	0.2969	0.9565	0.029
Mof_H 	H 	0.8708	0.2926	0.9379	0.052
Mof_H 	H 	0.9119	0.2515	0.8466	0.061
Mof_H 	H 	0.8715	0.1727	0.7629	0.068
Mof_H 	H 	0.7896	0.1802	0.7394	0.078
Mof_H 	H 	0.7899	0.3208	0.7303	0.057
Mof_H 	H 	0.7564	0.275	0.6809	0.072
Mof_H 	H 	0.8376	0.189	0.6397	0.063
Mof_H 	H 	0.9192	0.1836	0.665	0.059
Mof_H 	H 	0.789	0.3696	0.6356	0.057
Mof_H 	H 	0.871	0.3628	0.6598	0.066
Mof_H 	H 	0.9495	0.2799	0.6214	0.081
Mof_H 	H 	0.9196	0.2334	0.571	0.067
Mof_H 	H 	0.8285	0.375	0.5335	0.071
Mof_H 	H 	0.9123	0.3698	0.5531	0.07
Mof_H 	H 	0.9951	0.3064	0.4977	0.064
Mof_H 	H 	0.7822	0.3034	0.452	0.078
Mof_H 	H 	0.8147	0.2501	0.3653	0.061
Mof_H 	H 	0.9344	0.2193	0.3516	0.033
Mof_H 	H 	0.7189	0.0907	0.6886	0.031
Mof_H 	H 	0.5531	0.0986	0.477	0.06
Mof_H 	H 	0.4833	0.1635	0.4178	0.029
Mof_H 	H 	0.6354	0.4462	0.9987	0.068
Mof_H 	H 	0.7488	0.4059	0.8173	0.031
Mof_H 	H 	0.7588	0.4612	0.9896	0.031
Mof_H 	H 	0.8174	0.4401	0.8983	0.061
Mof_H 	H 	0.5796	0.3138	0.4898	0.046
Mof_H 	H 	0.5016	0.0635	0.0811	0.032
Mof_H 	H 	0.4421	0.9733	0.1116	0.063
Mof_H 	H 	0.5162	0.0013	0.2785	0.071
Mof_H 	H 	0.449	0.9431	0.2114	0.039
Mof_H 	H 	0.65	0.0256	0.2927	0.069
Mof_H 	H 	0.7217	0.0728	0.3665	0.038
Mof_H 	H 	0.626	0.2387	0.3295	0.053
Mof_H 	H 	0.779	0.0115	0.6366	0.062
Mof_H 	H 	0.7584	0.9998	0.5327	0.037
Mof_H 	H 	0.6861	0.0697	0.4844	0.062
Mof_H 	H 	0.4928	0.2697	0.4252	0.06
Mof_H 	H 	0.7085	0.1792	0.3851	0.06
Mof_H 	H 	0.4056	0.3634	0.0138	0.037
Mof_H 	H 	0.3326	0.4128	0.9428	0.062
Mof_H 	H 	0.3849	0.4628	0.8622	0.045
Mof_H 	H 	0.5103	0.4604	0.8478	0.068
Mof_H 	H 	0.102	0.1718	0.6258	0.314
Mof_H 	H 	0.105	0.215	0.6744	0.316
Mof_H 	H 	0.103	0.174	0.1412	0.334
Mof_H 	H 	0.085	0.1411	0.1962	0.318
Mof_H 	H 	0.1032	0.957	0.66	0.108
Mof_H 	H 	0.3982	0.2365	0.226	0.149
Mof_H 	H 	0.3089	0.2217	0.0836	0.152
Mof_H 	H 	0.3184	0.3818	0.4355	0.033
Mof_H 	H 	0.3569	0.4238	0.3451	0.063
Mof_H 	H 	0.2722	0.4563	0.275	0.028
Mof_H 	H 	0.1475	0.4517	0.2976	0.066
Mof_H 	H 	0.9099	0.4022	0.3507	0.053
Mof_H 	H 	0.8858	0.4669	0.4329	0.066
Mof_H 	H 	0.9825	0.499	0.4942	0.022
Mof_H 	H 	0.1014	0.4734	0.4696	0.061
Mof_H 	H 	0.0448	0.8689	0.7349	0.05
Mof_H 	H 	0.2613	0.8392	0.7248	0.078
Mof_H 	H 	0.1314	0.9543	0.7572	0.069
Mof_H 	H 	0.2153	0.9451	0.7395	0.075
Mof_H 	H 	0.2385	0.7326	0.7275	0.069
Mof_H 	H 	0.1189	0.6968	0.7339	0.047
Mof_H 	H 	0.1251	0.0496	0.6338	0.053
Mof_H 	H 	0.1221	0.0468	0.7053	0.058
Mof_H 	H 	0.2063	0.8955	0.6215	0.065
Mof_H 	H 	0.1781	0.9507	0.5792	0.056
Mof_H 	H 	0.2512	0.0443	0.7093	0.074
Mof_H 	H 	0.2242	0.1055	0.6746	0.076
Mof_H 	H 	0.3058	0.9578	0.5886	0.065
Mof_H 	H 	0.2992	0.9602	0.66	0.065
Mof_H 	H 	0.3639	0.0652	0.6561	0.075
Mof_H 	H 	0.3703	0.0456	0.5874	0.067
Mof_H 	H 	0.2295	0.143	0.5801	0.052
Mof_H 	H 	0.4468	0.1525	0.6083	0.076
Mof_H 	H 	0.4421	0.2572	0.5791	0.064
Mof_H 	H 	0.3313	0.3032	0.5582	0.037
Mof_H 	H 	0.2026	0.2763	0.2998	0.065
Mof_H 	H 	0.2475	0.2031	0.4565	0.028
Mof_H 	H 	0.3708	0.2074	0.4379	0.052
Mof_H 	H 	0.4119	0.2485	0.3466	0.061
Mof_H 	H 	0.3715	0.3273	0.2629	0.068
Mof_H 	H 	0.2896	0.3198	0.2394	0.078
Mof_H 	H 	0.2899	0.1792	0.2303	0.057
Mof_H 	H 	0.2564	0.225	0.1809	0.073
Mof_H 	H 	0.3376	0.311	0.1397	0.063
Mof_H 	H 	0.4192	0.3164	0.165	0.059
Mof_H 	H 	0.289	0.1304	0.1356	0.057
Mof_H 	H 	0.371	0.1372	0.1598	0.066
Mof_H 	H 	0.4495	0.2201	0.1214	0.081
Mof_H 	H 	0.4196	0.2666	0.071	0.067
Mof_H 	H 	0.3285	0.125	0.0335	0.071
Mof_H 	H 	0.4123	0.1302	0.0531	0.07
Mof_H 	H 	0.4951	0.1936	0.9977	0.065
Mof_H 	H 	0.2822	0.1966	0.952	0.079
Mof_H 	H 	0.3147	0.2499	0.8653	0.061
Mof_H 	H 	0.4344	0.2807	0.8516	0.033
Mof_H 	H 	0.2189	0.4093	0.1886	0.031
Mof_H 	H 	0.0531	0.4014	0.977	0.059
Mof_H 	H 	0.9833	0.3365	0.9178	0.029
Mof_H 	H 	0.1354	0.0538	0.4987	0.067
Mof_H 	H 	0.2488	0.0941	0.3173	0.031
Mof_H 	H 	0.2588	0.0388	0.4896	0.031
Mof_H 	H 	0.3174	0.0599	0.3983	0.061
Mof_H 	H 	0.0796	0.1862	0.9898	0.046
Mof_H 	H 	0.0016	0.4365	0.5811	0.032
Mof_H 	H 	0.9421	0.5267	0.6116	0.063
Mof_H 	H 	0.0162	0.4987	0.7785	0.071
Mof_H 	H 	0.949	0.5569	0.7114	0.04
Mof_H 	H 	0.15	0.4744	0.7927	0.069
Mof_H 	H 	0.2217	0.4272	0.8665	0.038
Mof_H 	H 	0.126	0.2613	0.8295	0.053
Mof_H 	H 	0.279	0.4885	0.1366	0.063
Mof_H 	H 	0.2584	0.5002	0.0327	0.035
Mof_H 	H 	0.1861	0.4303	0.9844	0.066
Mof_H 	H 	0.9928	0.2303	0.9252	0.06
Mof_H 	H 	0.2085	0.3208	0.8851	0.06
Mof_H 	H 	0.9056	0.1366	0.5138	0.04
Mof_H 	H 	0.8326	0.0872	0.4428	0.061
Mof_H 	H 	0.8849	0.0372	0.3622	0.045
Mof_H 	H 	0.0103	0.0396	0.3478	0.068
Mof_H 	H 	0.898	0.8282	0.1258	0.314
Mof_H 	H 	0.895	0.785	0.1744	0.316
Mof_H 	H 	0.897	0.826	0.6412	0.334
Mof_H 	H 	0.915	0.8589	0.6962	0.318
Mof_H 	H 	0.8968	0.043	0.16	0.108
Mof_H 	H 	0.6018	0.7635	0.726	0.149
Mof_H 	H 	0.6911	0.7783	0.5836	0.153
Mof_H 	H 	0.6816	0.6182	0.9355	0.033
Mof_H 	H 	0.6431	0.5762	0.8451	0.064
Mof_H 	H 	0.7278	0.5437	0.775	0.028
Mof_H 	H 	0.8525	0.5483	0.7976	0.066
Mof_H 	H 	0.0901	0.5978	0.8507	0.053
Mof_H 	H 	0.1142	0.5331	0.9329	0.066
Mof_H 	H 	0.0175	0.501	0.9942	0.023
Mof_H 	H 	0.8986	0.5266	0.9696	0.061
Mof_H 	H 	0.9552	0.1311	0.2349	0.05
Mof_H 	H 	0.7387	0.1608	0.2248	0.078
Mof_H 	H 	0.8686	0.0457	0.2572	0.069
Mof_H 	H 	0.7847	0.0549	0.2395	0.075
Mof_H 	H 	0.7615	0.2674	0.2275	0.069
Mof_H 	H 	0.8811	0.3032	0.2339	0.047
Mof_H 	H 	0.8749	0.9504	0.1338	0.053
Mof_H 	H 	0.8779	0.9532	0.2053	0.058
Mof_H 	H 	0.7937	0.1045	0.1215	0.065
Mof_H 	H 	0.8219	0.0493	0.0792	0.055
Mof_H 	H 	0.7488	0.9557	0.2093	0.074
Mof_H 	H 	0.7758	0.8945	0.1746	0.076
Mof_H 	H 	0.6942	0.0422	0.0886	0.065
Mof_H 	H 	0.7008	0.0398	0.16	0.065
Mof_H 	H 	0.6361	0.9348	0.1561	0.075
Mof_H 	H 	0.6297	0.9544	0.0874	0.067
Mof_H 	H 	0.7705	0.857	0.0801	0.052
Mof_H 	H 	0.5532	0.8475	0.1083	0.076
Mof_H 	H 	0.5579	0.7428	0.0791	0.064
Mof_H 	H 	0.6687	0.6968	0.0582	0.037
Mof_H 	H 	0.7974	0.7237	0.7998	0.065
Mof_H 	H 	0.7525	0.7969	0.9565	0.029
Mof_H 	H 	0.6292	0.7926	0.9379	0.052
Mof_H 	H 	0.5881	0.7515	0.8466	0.061
Mof_H 	H 	0.6285	0.6727	0.7629	0.068
Mof_H 	H 	0.7104	0.6802	0.7394	0.078
Mof_H 	H 	0.7101	0.8208	0.7303	0.057
Mof_H 	H 	0.7436	0.775	0.6809	0.072
Mof_H 	H 	0.6624	0.689	0.6397	0.063
Mof_H 	H 	0.5808	0.6836	0.665	0.059
Mof_H 	H 	0.711	0.8696	0.6356	0.057
Mof_H 	H 	0.629	0.8628	0.6598	0.066
Mof_H 	H 	0.5505	0.7799	0.6214	0.081
Mof_H 	H 	0.5804	0.7334	0.571	0.067
Mof_H 	H 	0.6715	0.875	0.5335	0.071
Mof_H 	H 	0.5877	0.8698	0.5531	0.07
Mof_H 	H 	0.5049	0.8064	0.4977	0.064
Mof_H 	H 	0.7178	0.8034	0.452	0.078
Mof_H 	H 	0.6853	0.7501	0.3653	0.061
Mof_H 	H 	0.5656	0.7193	0.3516	0.033
Mof_H 	H 	0.7811	0.5907	0.6886	0.031
Mof_H 	H 	0.9469	0.5986	0.477	0.06
Mof_H 	H 	0.0167	0.6635	0.4178	0.029
Mof_H 	H 	0.8646	0.9462	0.9987	0.067
Mof_H 	H 	0.7512	0.9059	0.8173	0.031
Mof_H 	H 	0.7412	0.9612	0.9896	0.031
Mof_H 	H 	0.6826	0.9401	0.8983	0.061
Mof_H 	H 	0.9204	0.8138	0.4898	0.046
Mof_H 	H 	0.9984	0.5635	0.0811	0.032
Mof_H 	H 	0.0579	0.4733	0.1116	0.063
Mof_H 	H 	0.9838	0.5013	0.2785	0.071
Mof_H 	H 	0.051	0.4431	0.2114	0.04
Mof_H 	H 	0.85	0.5256	0.2927	0.069
Mof_H 	H 	0.7783	0.5728	0.3665	0.038
Mof_H 	H 	0.874	0.7387	0.3295	0.053
Mof_H 	H 	0.721	0.5115	0.6366	0.062
Mof_H 	H 	0.7416	0.4998	0.5327	0.036
Mof_H 	H 	0.8139	0.5697	0.4844	0.063
Mof_H 	H 	0.0072	0.7697	0.4252	0.06
Mof_H 	H 	0.7915	0.6792	0.3851	0.06
Mof_H 	H 	0.0944	0.8634	0.0138	0.037
Mof_H 	H 	0.1674	0.9128	0.9428	0.062
Mof_H 	H 	0.1151	0.9628	0.8622	0.044
Mof_H 	H 	0.9897	0.9604	0.8478	0.068
Mof_C 	C 	0.2167	0.89526	0.407	0.026
Mof_C 	C 	0.1937	0.9204	0.3534	-0.085
Mof_C 	C 	0.2435	0.9403	0.3124	0.015
Mof_C 	C 	0.3181	0.937	0.3259	-0.093
Mof_C 	C 	0.3426	0.91279	0.37922	0.052
Mof_C 	C 	0.2912	0.88948	0.41987	-0.101
Mof_C 	C 	0.4217	0.92116	0.39603	0.044
Mof_C 	C 	0.4797	0.89854	0.3622	-0.095
Mof_C 	C 	0.4697	0.85122	0.31335	0.305
Mof_C 	C 	0.5511	0.9163	0.3752	0.013
Mof_C 	C 	0.5656	0.9546	0.4241	-0.077
Mof_C 	C 	0.508	0.9744	0.4598	0.005
Mof_C 	C 	0.4375	0.9585	0.4454	-0.085
Mof_C 	C 	0.3125	0.85514	0.4751	0.304
Mof_C 	C 	0.4152	0.34086	0.73283	-0.007
Mof_C 	C 	0.3454	0.36562	0.72885	0.039
Mof_C 	C 	0.2874	0.3242	0.7271	-0.065
Mof_C 	C 	0.3354	0.43511	0.7275	-0.108
Mof_C 	C 	0.3008	0.2615	0.7288	-0.043
Mof_C 	C 	0.3722	0.24038	0.7324	0.029
Mof_C 	C 	0.35	0.533	0.6697	-0.047
Mof_C 	C 	0.2997	0.44132	0.6185	-0.045
Mof_C 	C 	0.2736	0.55944	0.6728	-0.074
Mof_C 	C 	0.225	0.47224	0.6222	-0.065
Mof_C 	C 	0.1599	0.5688	0.6166	-0.119
Mof_C 	C 	0.1619	0.6364	0.59864	0.044
Mof_C 	C 	0.2268	0.66681	0.58226	-0.005
Mof_C 	C 	0.0985	0.67114	0.5978	-0.069
Mof_C 	C 	0.1015	0.7333	0.5813	-0.045
Mof_C 	C 	0.1671	0.76019	0.5684	0.028
Mof_C 	C 	0.2622	0.76221	0.3279	-0.017
Mof_C 	C 	0.2362	0.7193	0.4194	0.042
Mof_C 	C 	0.1891	0.7667	0.3137	0.046
Mof_C 	C 	0.163	0.7219	0.4089	-0.059
Mof_C 	C 	0.1388	0.7461	0.355	-0.062
Mof_C 	C 	0.1679	0.7967	0.25535	-0.111
Mof_C 	C 	0.1984	0.7039	0.1942	-0.048
Mof_C 	C 	0.1203	0.78673	0.15477	-0.049
Mof_C 	C 	0.1721	0.66073	0.14556	-0.055
Mof_C 	C 	0.0943	0.74265	0.107	-0.063
Mof_C 	C 	0.1312	0.65467	0.04111	-0.101
Mof_C 	C 	0.1145	0.6893	0.98483	0.048
Mof_C 	C 	0.0427	0.70614	0.97123	-0.013
Mof_C 	C 	0.1681	0.7069	0.9446	-0.054
Mof_C 	C 	0.1493	0.7392	0.8941	-0.046
Mof_C 	C 	0.0778	0.7561	0.8854	0.035
Mof_C 	C 	0.3336	0.8716	0.1175	-0.092
Mof_C 	C 	0.3427	0.8766	0.0549	0.05
Mof_C 	C 	0.3736	0.8253	0.1551	0.304
Mof_C 	C 	0.3874	0.8327	0.0191	0.045
Mof_C 	C 	0.4144	0.85888	0.63439	0.297
Mof_C 	C 	0.2881	0.9133	0.1467	0.017
Mof_C 	C 	0.4405	0.8575	0.9795	-0.086
Mof_C 	C 	0.4826	0.8189	0.9449	0.01
Mof_C 	C 	0.3181	0.7368	0.0547	0.314
Mof_C 	C 	0.3793	0.7684	0.0214	-0.086
Mof_C 	C 	0.4522	0.65506	0.5171	0.306
Mof_C 	C 	0.4959	0.62075	0.4713	-0.097
Mof_C 	C 	0.4645	0.5909	0.4218	0.038
Mof_C 	C 	0.3839	0.58557	0.4153	0.042
Mof_C 	C 	0.3486	0.5982	0.3603	-0.102
Mof_C 	C 	0.3417	0.5631	0.4617	-0.088
Mof_C 	C 	0.2744	0.5871	0.3547	0.027
Mof_C 	C 	0.2685	0.5537	0.4565	0.012
Mof_C 	C 	0.2337	0.566	0.4023	-0.084
Mof_C 	C 	0.3874	0.6263	0.3077	0.305
Mof_C 	C 	0.4247	0.7302	0.987	0.016
Mof_C 	C 	0.4545	0.91289	0.66104	-0.093
Mof_C 	C 	0.4951	0.94908	0.6217	0.014
Mof_C 	C 	0.45	0.93076	0.7214	0.05
Mof_C 	C 	0.5308	0.0026	0.6395	-0.087
Mof_C 	C 	0.4866	0.9853	0.7381	-0.092
Mof_C 	C 	0.4071	0.8966	0.76712	0.04
Mof_C 	C 	0.5265	0.0203	0.6982	0.015
Mof_C 	C 	0.3556	0.9311	0.8004	-0.086
Mof_C 	C 	0.414	0.8323	0.77955	-0.079
Mof_C 	C 	0.3124	0.9032	0.8443	-0.002
Mof_C 	C 	0.3702	0.8048	0.8223	0.003
Mof_C 	C 	0.4731	0.7925	0.75225	0.304
Mof_C 	C 	0.2526	0.9607	0.1161	-0.083
Mof_C 	C 	0.264	0.9672	0.0543	0.011
Mof_C 	C 	0.3072	0.9258	0.0262	-0.096
Mof_C 	C 	0.4765	0.7564	0.9486	-0.077
Mof_C 	C 	0.3203	0.8403	0.8551	-0.067
Mof_C 	C 	0.5727	0.6179	0.4797	0.018
Mof_C 	C 	0.6159	0.5877	0.438	-0.071
Mof_C 	C 	0.585	0.5586	0.3901	0.005
Mof_C 	C 	0.5103	0.56	0.3815	-0.081
Mof_C 	C 	0.7833	0.10474	0.907	0.026
Mof_C 	C 	0.8063	0.0796	0.8534	-0.086
Mof_C 	C 	0.7565	0.0597	0.8124	0.015
Mof_C 	C 	0.6819	0.063	0.8259	-0.093
Mof_C 	C 	0.6574	0.08721	0.87922	0.052
Mof_C 	C 	0.7088	0.11052	0.91987	-0.102
Mof_C 	C 	0.5783	0.07884	0.89603	0.043
Mof_C 	C 	0.5203	0.10146	0.8622	-0.094
Mof_C 	C 	0.5303	0.14878	0.81335	0.305
Mof_C 	C 	0.4489	0.0837	0.8752	0.013
Mof_C 	C 	0.4344	0.0454	0.9241	-0.077
Mof_C 	C 	0.492	0.0256	0.9598	0.005
Mof_C 	C 	0.5625	0.0415	0.9454	-0.085
Mof_C 	C 	0.6875	0.14486	0.9751	0.306
Mof_C 	C 	0.5848	0.65914	0.23283	-0.007
Mof_C 	C 	0.6546	0.63438	0.22885	0.039
Mof_C 	C 	0.7126	0.6758	0.2271	-0.065
Mof_C 	C 	0.6646	0.56489	0.2275	-0.108
Mof_C 	C 	0.6992	0.7385	0.2288	-0.043
Mof_C 	C 	0.6278	0.75962	0.2324	0.029
Mof_C 	C 	0.65	0.467	0.1697	-0.047
Mof_C 	C 	0.7003	0.55868	0.1185	-0.044
Mof_C 	C 	0.7264	0.44056	0.1728	-0.074
Mof_C 	C 	0.775	0.52776	0.1222	-0.065
Mof_C 	C 	0.8401	0.4312	0.1166	-0.119
Mof_C 	C 	0.8381	0.3636	0.09864	0.044
Mof_C 	C 	0.7732	0.33319	0.08226	-0.005
Mof_C 	C 	0.9015	0.32886	0.0978	-0.069
Mof_C 	C 	0.8985	0.2667	0.0813	-0.045
Mof_C 	C 	0.8329	0.23981	0.0684	0.027
Mof_C 	C 	0.7378	0.23779	0.8279	-0.017
Mof_C 	C 	0.7638	0.2807	0.9194	0.042
Mof_C 	C 	0.8109	0.2333	0.8137	0.046
Mof_C 	C 	0.837	0.2781	0.9089	-0.059
Mof_C 	C 	0.8612	0.2539	0.855	-0.062
Mof_C 	C 	0.8321	0.2033	0.75535	-0.111
Mof_C 	C 	0.8016	0.2961	0.6942	-0.048
Mof_C 	C 	0.8797	0.21327	0.65477	-0.049
Mof_C 	C 	0.8279	0.33927	0.64556	-0.055
Mof_C 	C 	0.9057	0.25735	0.607	-0.063
Mof_C 	C 	0.8688	0.34533	0.54111	-0.099
Mof_C 	C 	0.8855	0.3107	0.48483	0.045
Mof_C 	C 	0.9573	0.29386	0.47123	-0.012
Mof_C 	C 	0.8319	0.2931	0.4446	-0.052
Mof_C 	C 	0.8507	0.2608	0.3941	-0.047
Mof_C 	C 	0.9222	0.2439	0.3854	0.036
Mof_C 	C 	0.6664	0.1284	0.6175	-0.09
Mof_C 	C 	0.6573	0.1234	0.5549	0.048
Mof_C 	C 	0.6264	0.1747	0.6551	0.303
Mof_C 	C 	0.6126	0.1673	0.5191	0.047
Mof_C 	C 	0.5856	0.14112	0.13439	0.298
Mof_C 	C 	0.7119	0.0867	0.6467	0.015
Mof_C 	C 	0.5595	0.1425	0.4795	-0.088
Mof_C 	C 	0.5174	0.1811	0.4449	0.011
Mof_C 	C 	0.6819	0.2632	0.5547	0.314
Mof_C 	C 	0.6207	0.2316	0.5214	-0.085
Mof_C 	C 	0.5478	0.34494	0.0171	0.303
Mof_C 	C 	0.5041	0.37925	0.9713	-0.096
Mof_C 	C 	0.5355	0.4091	0.9218	0.038
Mof_C 	C 	0.6161	0.41443	0.9153	0.043
Mof_C 	C 	0.6514	0.4018	0.8603	-0.102
Mof_C 	C 	0.6583	0.4369	0.9617	-0.088
Mof_C 	C 	0.7256	0.4129	0.8547	0.027
Mof_C 	C 	0.7315	0.4463	0.9565	0.012
Mof_C 	C 	0.7663	0.434	0.9023	-0.084
Mof_C 	C 	0.6126	0.3737	0.8077	0.305
Mof_C 	C 	0.5753	0.2698	0.487	0.014
Mof_C 	C 	0.5455	0.08711	0.16104	-0.093
Mof_C 	C 	0.5049	0.05092	0.1217	0.014
Mof_C 	C 	0.55	0.06924	0.2214	0.05
Mof_C 	C 	0.4692	0.9974	0.1395	-0.087
Mof_C 	C 	0.5134	0.0147	0.2381	-0.092
Mof_C 	C 	0.5929	0.1034	0.26712	0.04
Mof_C 	C 	0.4735	0.9797	0.1982	0.015
Mof_C 	C 	0.6444	0.0689	0.3004	-0.086
Mof_C 	C 	0.586	0.1677	0.27955	-0.079
Mof_C 	C 	0.6876	0.0968	0.3443	-0.002
Mof_C 	C 	0.6298	0.1952	0.3223	0.003
Mof_C 	C 	0.5269	0.2075	0.25225	0.304
Mof_C 	C 	0.7474	0.0393	0.6161	-0.08
Mof_C 	C 	0.736	0.0328	0.5543	0.007
Mof_C 	C 	0.6928	0.0742	0.5262	-0.09
Mof_C 	C 	0.5235	0.2436	0.4486	-0.077
Mof_C 	C 	0.6797	0.1597	0.3551	-0.067
Mof_C 	C 	0.4273	0.3821	0.9797	0.021
Mof_C 	C 	0.3841	0.4123	0.938	-0.073
Mof_C 	C 	0.415	0.4414	0.8901	0.007
Mof_C 	C 	0.4897	0.44	0.8815	-0.081
Mof_C 	C 	0.2833	0.39526	0.407	0.026
Mof_C 	C 	0.3063	0.4204	0.3534	-0.085
Mof_C 	C 	0.2565	0.4403	0.3124	0.015
Mof_C 	C 	0.1819	0.437	0.3259	-0.093
Mof_C 	C 	0.1574	0.41279	0.37922	0.052
Mof_C 	C 	0.2088	0.38948	0.41987	-0.101
Mof_C 	C 	0.0783	0.42116	0.39603	0.044
Mof_C 	C 	0.0203	0.39854	0.3622	-0.095
Mof_C 	C 	0.0303	0.35122	0.31335	0.305
Mof_C 	C 	0.9489	0.4163	0.3752	0.013
Mof_C 	C 	0.9344	0.4546	0.4241	-0.078
Mof_C 	C 	0.992	0.4744	0.4598	0.006
Mof_C 	C 	0.0625	0.4585	0.4454	-0.085
Mof_C 	C 	0.1875	0.35514	0.4751	0.304
Mof_C 	C 	0.0848	0.84086	0.73283	-0.007
Mof_C 	C 	0.1546	0.86562	0.72885	0.039
Mof_C 	C 	0.2126	0.8242	0.7271	-0.065
Mof_C 	C 	0.1646	0.93511	0.7275	-0.108
Mof_C 	C 	0.1992	0.7615	0.7288	-0.043
Mof_C 	C 	0.1278	0.74038	0.7324	0.029
Mof_C 	C 	0.15	0.033	0.6697	-0.046
Mof_C 	C 	0.2003	0.94132	0.6185	-0.044
Mof_C 	C 	0.2264	0.05944	0.6728	-0.074
Mof_C 	C 	0.275	0.97224	0.6222	-0.065
Mof_C 	C 	0.3401	0.0688	0.6166	-0.119
Mof_C 	C 	0.3381	0.1364	0.59864	0.044
Mof_C 	C 	0.2732	0.16681	0.58226	-0.005
Mof_C 	C 	0.4015	0.17114	0.5978	-0.069
Mof_C 	C 	0.3985	0.2333	0.5813	-0.045
Mof_C 	C 	0.3329	0.26019	0.5684	0.028
Mof_C 	C 	0.2378	0.26221	0.3279	-0.017
Mof_C 	C 	0.2638	0.2193	0.4194	0.042
Mof_C 	C 	0.3109	0.2667	0.3137	0.046
Mof_C 	C 	0.337	0.2219	0.4089	-0.059
Mof_C 	C 	0.3612	0.2461	0.355	-0.062
Mof_C 	C 	0.3321	0.2967	0.25535	-0.111
Mof_C 	C 	0.3016	0.2039	0.1942	-0.048
Mof_C 	C 	0.3797	0.28673	0.15477	-0.049
Mof_C 	C 	0.3279	0.16073	0.14556	-0.055
Mof_C 	C 	0.4057	0.24265	0.107	-0.063
Mof_C 	C 	0.3688	0.15467	0.04111	-0.101
Mof_C 	C 	0.3855	0.1893	0.98483	0.048
Mof_C 	C 	0.4573	0.20614	0.97123	-0.013
Mof_C 	C 	0.3319	0.2069	0.9446	-0.054
Mof_C 	C 	0.3507	0.2392	0.8941	-0.046
Mof_C 	C 	0.4222	0.2561	0.8854	0.035
Mof_C 	C 	0.1664	0.3716	0.1175	-0.092
Mof_C 	C 	0.1573	0.3766	0.0549	0.051
Mof_C 	C 	0.1264	0.3253	0.1551	0.304
Mof_C 	C 	0.1126	0.3327	0.0191	0.044
Mof_C 	C 	0.0856	0.35888	0.63439	0.297
Mof_C 	C 	0.2119	0.4133	0.1467	0.017
Mof_C 	C 	0.0595	0.3575	0.9795	-0.085
Mof_C 	C 	0.0174	0.3189	0.9449	0.01
Mof_C 	C 	0.1819	0.2368	0.0547	0.314
Mof_C 	C 	0.1207	0.2684	0.0214	-0.086
Mof_C 	C 	0.0478	0.15506	0.5171	0.306
Mof_C 	C 	0.0041	0.12075	0.4713	-0.097
Mof_C 	C 	0.0355	0.0909	0.4218	0.038
Mof_C 	C 	0.1161	0.08557	0.4153	0.042
Mof_C 	C 	0.1514	0.0982	0.3603	-0.102
Mof_C 	C 	0.1583	0.0631	0.4617	-0.088
Mof_C 	C 	0.2256	0.0871	0.3547	0.027
Mof_C 	C 	0.2315	0.0537	0.4565	0.012
Mof_C 	C 	0.2663	0.066	0.4023	-0.083
Mof_C 	C 	0.1126	0.1263	0.3077	0.305
Mof_C 	C 	0.0753	0.2302	0.987	0.016
Mof_C 	C 	0.0455	0.41289	0.66104	-0.093
Mof_C 	C 	0.0049	0.44908	0.6217	0.014
Mof_C 	C 	0.05	0.43076	0.7214	0.05
Mof_C 	C 	0.9692	0.5026	0.6395	-0.087
Mof_C 	C 	0.0134	0.4853	0.7381	-0.092
Mof_C 	C 	0.0929	0.3966	0.76712	0.04
Mof_C 	C 	0.9735	0.5203	0.6982	0.015
Mof_C 	C 	0.1444	0.4311	0.8004	-0.086
Mof_C 	C 	0.086	0.3323	0.77955	-0.079
Mof_C 	C 	0.1876	0.4032	0.8443	-0.002
Mof_C 	C 	0.1298	0.3048	0.8223	0.003
Mof_C 	C 	0.0269	0.2925	0.75225	0.304
Mof_C 	C 	0.2474	0.4607	0.1161	-0.083
Mof_C 	C 	0.236	0.4672	0.0543	0.011
Mof_C 	C 	0.1928	0.4258	0.0262	-0.097
Mof_C 	C 	0.0235	0.2564	0.9486	-0.076
Mof_C 	C 	0.1797	0.3403	0.8551	-0.067
Mof_C 	C 	0.9273	0.1179	0.4797	0.018
Mof_C 	C 	0.8841	0.0877	0.438	-0.072
Mof_C 	C 	0.915	0.0586	0.3901	0.006
Mof_C 	C 	0.9897	0.06	0.3815	-0.081
Mof_C 	C 	0.7167	0.60474	0.907	0.026
Mof_C 	C 	0.6937	0.5796	0.8534	-0.086
Mof_C 	C 	0.7435	0.5597	0.8124	0.015
Mof_C 	C 	0.8181	0.563	0.8259	-0.093
Mof_C 	C 	0.8426	0.58721	0.87922	0.052
Mof_C 	C 	0.7912	0.61052	0.91987	-0.102
Mof_C 	C 	0.9217	0.57884	0.89603	0.044
Mof_C 	C 	0.9797	0.60146	0.8622	-0.095
Mof_C 	C 	0.9697	0.64878	0.81335	0.305
Mof_C 	C 	0.0511	0.5837	0.8752	0.013
Mof_C 	C 	0.0656	0.5454	0.9241	-0.077
Mof_C 	C 	0.008	0.5256	0.9598	0.006
Mof_C 	C 	0.9375	0.5415	0.9454	-0.085
Mof_C 	C 	0.8125	0.64486	0.9751	0.306
Mof_C 	C 	0.9152	0.15914	0.23283	-0.007
Mof_C 	C 	0.8454	0.13438	0.22885	0.039
Mof_C 	C 	0.7874	0.1758	0.2271	-0.065
Mof_C 	C 	0.8354	0.06489	0.2275	-0.108
Mof_C 	C 	0.8008	0.2385	0.2288	-0.043
Mof_C 	C 	0.8722	0.25962	0.2324	0.03
Mof_C 	C 	0.85	0.967	0.1697	-0.046
Mof_C 	C 	0.7997	0.05868	0.1185	-0.044
Mof_C 	C 	0.7736	0.94056	0.1728	-0.074
Mof_C 	C 	0.725	0.02776	0.1222	-0.065
Mof_C 	C 	0.6599	0.9312	0.1166	-0.119
Mof_C 	C 	0.6619	0.8636	0.09864	0.044
Mof_C 	C 	0.7268	0.83319	0.08226	-0.005
Mof_C 	C 	0.5985	0.82886	0.0978	-0.069
Mof_C 	C 	0.6015	0.7667	0.0813	-0.045
Mof_C 	C 	0.6671	0.73981	0.0684	0.027
Mof_C 	C 	0.7622	0.73779	0.8279	-0.017
Mof_C 	C 	0.7362	0.7807	0.9194	0.042
Mof_C 	C 	0.6891	0.7333	0.8137	0.046
Mof_C 	C 	0.663	0.7781	0.9089	-0.059
Mof_C 	C 	0.6388	0.7539	0.855	-0.062
Mof_C 	C 	0.6679	0.7033	0.75535	-0.111
Mof_C 	C 	0.6984	0.7961	0.6942	-0.048
Mof_C 	C 	0.6203	0.71327	0.65477	-0.049
Mof_C 	C 	0.6721	0.83927	0.64556	-0.055
Mof_C 	C 	0.5943	0.75735	0.607	-0.063
Mof_C 	C 	0.6312	0.84533	0.54111	-0.099
Mof_C 	C 	0.6145	0.8107	0.48483	0.045
Mof_C 	C 	0.5427	0.79386	0.47123	-0.012
Mof_C 	C 	0.6681	0.7931	0.4446	-0.052
Mof_C 	C 	0.6493	0.7608	0.3941	-0.047
Mof_C 	C 	0.5778	0.7439	0.3854	0.036
Mof_C 	C 	0.8336	0.6284	0.6175	-0.09
Mof_C 	C 	0.8427	0.6234	0.5549	0.048
Mof_C 	C 	0.8736	0.6747	0.6551	0.303
Mof_C 	C 	0.8874	0.6673	0.5191	0.047
Mof_C 	C 	0.9144	0.64112	0.13439	0.298
Mof_C 	C 	0.7881	0.5867	0.6467	0.015
Mof_C 	C 	0.9405	0.6425	0.4795	-0.088
Mof_C 	C 	0.9826	0.6811	0.4449	0.011
Mof_C 	C 	0.8181	0.7632	0.5547	0.314
Mof_C 	C 	0.8793	0.7316	0.5214	-0.085
Mof_C 	C 	0.9522	0.84494	0.0171	0.303
Mof_C 	C 	0.9959	0.87925	0.9713	-0.096
Mof_C 	C 	0.9645	0.9091	0.9218	0.039
Mof_C 	C 	0.8839	0.91443	0.9153	0.042
Mof_C 	C 	0.8486	0.9018	0.8603	-0.102
Mof_C 	C 	0.8417	0.9369	0.9617	-0.088
Mof_C 	C 	0.7744	0.9129	0.8547	0.027
Mof_C 	C 	0.7685	0.9463	0.9565	0.012
Mof_C 	C 	0.7337	0.934	0.9023	-0.083
Mof_C 	C 	0.8874	0.8737	0.8077	0.305
Mof_C 	C 	0.9247	0.7698	0.487	0.014
Mof_C 	C 	0.9545	0.58711	0.16104	-0.093
Mof_C 	C 	0.9951	0.55092	0.1217	0.015
Mof_C 	C 	0.95	0.56924	0.2214	0.05
Mof_C 	C 	0.0308	0.4974	0.1395	-0.087
Mof_C 	C 	0.9866	0.5147	0.2381	-0.092
Mof_C 	C 	0.9071	0.6034	0.26712	0.04
Mof_C 	C 	0.0265	0.4797	0.1982	0.015
Mof_C 	C 	0.8556	0.5689	0.3004	-0.086
Mof_C 	C 	0.914	0.6677	0.27955	-0.079
Mof_C 	C 	0.8124	0.5968	0.3443	-0.002
Mof_C 	C 	0.8702	0.6952	0.3223	0.003
Mof_C 	C 	0.9731	0.7075	0.25225	0.304
Mof_C 	C 	0.7526	0.5393	0.6161	-0.08
Mof_C 	C 	0.764	0.5328	0.5543	0.007
Mof_C 	C 	0.8072	0.5742	0.5262	-0.091
Mof_C 	C 	0.9765	0.7436	0.4486	-0.077
Mof_C 	C 	0.8203	0.6597	0.3551	-0.067
Mof_C 	C 	0.0727	0.8821	0.9797	0.021
Mof_C 	C 	0.1159	0.9123	0.938	-0.074
Mof_C 	C 	0.085	0.9414	0.8901	0.007
Mof_C 	C 	0.0103	0.94	0.8815	-0.082
Mof_N 	N 	0.42907	0.27974	0.73397	-0.121
Mof_N 	N 	0.35014	0.46319	0.66722	-0.146
Mof_N 	N 	0.2324	0.5398	0.61966	-0.078
Mof_N 	N 	0.23007	0.72711	0.56969	-0.123
Mof_N 	N 	0.28552	0.73836	0.38053	-0.126
Mof_N 	N 	0.14239	0.75142	0.20921	-0.151
Mof_N 	N 	0.15235	0.69698	0.09137	-0.148
Mof_N 	N 	0.02468	0.73894	0.92301	-0.126
Mof_N 	N 	0.57093	0.72026	0.23397	-0.121
Mof_N 	N 	0.64986	0.53681	0.16722	-0.146
Mof_N 	N 	0.7676	0.4602	0.11966	-0.079
Mof_N 	N 	0.76993	0.27289	0.06969	-0.123
Mof_N 	N 	0.71448	0.26164	0.88053	-0.126
Mof_N 	N 	0.85761	0.24858	0.70921	-0.151
Mof_N 	N 	0.84765	0.30302	0.59137	-0.148
Mof_N 	N 	0.97532	0.26106	0.42301	-0.126
Mof_N 	N 	0.07093	0.77974	0.73397	-0.121
Mof_N 	N 	0.14986	0.96319	0.66722	-0.146
Mof_N 	N 	0.2676	0.0398	0.61966	-0.078
Mof_N 	N 	0.26993	0.22711	0.56969	-0.123
Mof_N 	N 	0.21448	0.23836	0.38053	-0.126
Mof_N 	N 	0.35761	0.25142	0.20921	-0.151
Mof_N 	N 	0.34765	0.19698	0.09137	-0.148
Mof_N 	N 	0.47532	0.23894	0.92301	-0.126
Mof_N 	N 	0.92907	0.22026	0.23397	-0.121
Mof_N 	N 	0.85014	0.03681	0.16722	-0.146
Mof_N 	N 	0.7324	0.9602	0.11966	-0.078
Mof_N 	N 	0.73007	0.77289	0.06969	-0.123
Mof_N 	N 	0.78552	0.76164	0.88053	-0.126
Mof_N 	N 	0.64239	0.74858	0.70921	-0.151
Mof_N 	N 	0.65235	0.80302	0.59137	-0.148
Mof_N 	N 	0.52468	0.76106	0.42301	-0.126
Mof_O 	O 	0.42296	0.80795	0.32101	-0.294
Mof_O 	O 	0.50905	0.85284	0.26808	-0.273
Mof_O 	O 	0.36625	0.81677	0.47212	-0.288
Mof_O 	O 	0.27628	0.86073	0.52193	-0.278
Mof_O 	O 	0.43888	0.81296	0.14296	-0.27
Mof_O 	O 	0.34101	0.80151	0.1992	-0.276
Mof_O 	O 	0.3515	0.84443	0.65181	-0.269
Mof_O 	O 	0.44536	0.83079	0.59125	-0.274
Mof_O 	O 	0.40345	0.69429	0.49998	-0.29
Mof_O 	O 	0.37202	0.70018	0.64309	-0.613
Mof_O 	O 	0.46846	0.64614	0.57041	-0.283
Mof_O 	O 	0.4211	0.67827	0.31475	-0.29
Mof_O 	O 	0.383	0.59885	0.25843	-0.286
Mof_O 	O 	0.25694	0.76414	0.05283	-0.265
Mof_O 	O 	0.32771	0.68547	0.07943	-0.279
Mof_O 	O 	0.45939	0.73826	0.73673	-0.273
Mof_O 	O 	0.53626	0.81733	0.74821	-0.258
Mof_O 	O 	0.4278	0.66936	0.16962	-0.628
Mof_O 	O 	0.57704	0.19205	0.82101	-0.294
Mof_O 	O 	0.49095	0.14716	0.76808	-0.273
Mof_O 	O 	0.63375	0.18323	0.97212	-0.288
Mof_O 	O 	0.72372	0.13927	0.02193	-0.28
Mof_O 	O 	0.56112	0.18704	0.64296	-0.269
Mof_O 	O 	0.65899	0.19849	0.6992	-0.275
Mof_O 	O 	0.6485	0.15557	0.15181	-0.269
Mof_O 	O 	0.55464	0.16921	0.09125	-0.274
Mof_O 	O 	0.59655	0.30571	0.99998	-0.288
Mof_O 	O 	0.62798	0.29982	0.14309	-0.613
Mof_O 	O 	0.53154	0.35386	0.07041	-0.282
Mof_O 	O 	0.5789	0.32173	0.81475	-0.29
Mof_O 	O 	0.617	0.40115	0.75843	-0.286
Mof_O 	O 	0.74306	0.23586	0.55283	-0.264
Mof_O 	O 	0.67229	0.31453	0.57943	-0.279
Mof_O 	O 	0.54061	0.26174	0.23673	-0.273
Mof_O 	O 	0.46374	0.18267	0.24821	-0.258
Mof_O 	O 	0.5722	0.33064	0.66962	-0.628
Mof_O 	O 	0.07704	0.30795	0.32101	-0.294
Mof_O 	O 	0.99095	0.35284	0.26808	-0.273
Mof_O 	O 	0.13375	0.31677	0.47212	-0.288
Mof_O 	O 	0.22372	0.36073	0.52193	-0.278
Mof_O 	O 	0.06112	0.31296	0.14296	-0.27
Mof_O 	O 	0.15899	0.30151	0.1992	-0.276
Mof_O 	O 	0.1485	0.34443	0.65181	-0.269
Mof_O 	O 	0.05464	0.33079	0.59125	-0.274
Mof_O 	O 	0.09655	0.19429	0.49998	-0.29
Mof_O 	O 	0.12798	0.20018	0.64309	-0.613
Mof_O 	O 	0.03154	0.14614	0.57041	-0.283
Mof_O 	O 	0.0789	0.17827	0.31475	-0.29
Mof_O 	O 	0.117	0.09885	0.25843	-0.286
Mof_O 	O 	0.24306	0.26414	0.05283	-0.265
Mof_O 	O 	0.17229	0.18547	0.07943	-0.279
Mof_O 	O 	0.04061	0.23826	0.73673	-0.273
Mof_O 	O 	0.96374	0.31733	0.74821	-0.259
Mof_O 	O 	0.0722	0.16936	0.16962	-0.628
Mof_O 	O 	0.92296	0.69205	0.82101	-0.294
Mof_O 	O 	0.00905	0.64716	0.76808	-0.274
Mof_O 	O 	0.86625	0.68323	0.97212	-0.288
Mof_O 	O 	0.77628	0.63927	0.02193	-0.28
Mof_O 	O 	0.93888	0.68704	0.64296	-0.269
Mof_O 	O 	0.84101	0.69849	0.6992	-0.275
Mof_O 	O 	0.8515	0.65557	0.15181	-0.269
Mof_O 	O 	0.94536	0.66921	0.09125	-0.274
Mof_O 	O 	0.90345	0.80571	0.99998	-0.289
Mof_O 	O 	0.87202	0.79982	0.14309	-0.613
Mof_O 	O 	0.96846	0.85386	0.07041	-0.282
Mof_O 	O 	0.9211	0.82173	0.81475	-0.29
Mof_O 	O 	0.883	0.90115	0.75843	-0.286
Mof_O 	O 	0.75694	0.73586	0.55283	-0.264
Mof_O 	O 	0.82771	0.81453	0.57943	-0.278
Mof_O 	O 	0.95939	0.76174	0.23673	-0.273
Mof_O 	O 	0.03626	0.68267	0.24821	-0.259
Mof_O 	O 	0.9278	0.83064	0.66962	-0.628
Mof_Cl	Cl	0.28404	0.59545	0.84981	-0.221
Mof_O 	O 	0.3209	0.6405	0.8795	-0.029
Mof_O 	O 	0.3291	0.5605	0.8142	-0.043
Mof_O 	O 	0.2273	0.6257	0.8148	-0.051
Mof_O 	O 	0.2516	0.5566	0.8904	-0.042
Mof_Cl	Cl	0.71596	0.40455	0.34981	-0.221
Mof_O 	O 	0.6791	0.3595	0.3795	-0.029
Mof_O 	O 	0.6709	0.4395	0.3142	-0.043
Mof_O 	O 	0.7727	0.3743	0.3148	-0.051
Mof_O 	O 	0.7484	0.4434	0.3904	-0.043
Mof_Cl	Cl	0.21596	0.09545	0.84981	-0.221
Mof_O 	O 	0.1791	0.1405	0.8795	-0.029
Mof_O 	O 	0.1709	0.0605	0.8142	-0.043
Mof_O 	O 	0.2727	0.1257	0.8148	-0.051
Mof_O 	O 	0.2484	0.0566	0.8904	-0.042
Mof_Cl	Cl	0.78404	0.90455	0.34981	-0.221
Mof_O 	O 	0.8209	0.8595	0.3795	-0.029
Mof_O 	O 	0.8291	0.9395	0.3142	-0.043
Mof_O 	O 	0.7273	0.8743	0.3148	-0.051
Mof_O 	O 	0.7516	0.9434	0.3904	-0.043
_end
