data_functionalizedCrystal
_audit_creation_method	'EQeq! by Chris Wilmer'
_symmetry_space_group_name_H-M	'P1'
_symmetry_Int_Tables_number	1
_symmetry_cell_setting	triclinic
loop_
_symmetry_equiv_pos_as_xyz
  x,y,z
_cell_length_a	15.76
_cell_length_b	15.76
_cell_length_c	15.76
_cell_angle_alpha	90
_cell_angle_beta	90
_cell_angle_gamma	90
loop_
_atom_site_label
_atom_site_type_symbol
_atom_site_fract_x
_atom_site_fract_y
_atom_site_fract_z
_atom_site_charge
Mof_N 	N 	0.4116	0.8205	0.194	-0.26
Mof_C 	C 	0.3914	0.8992	0.2138	0.132
Mof_H 	H 	0.4203	0.9261	0.2577	-0.004
Mof_N 	N 	0.0884	0.6795	0.194	-0.271
Mof_C 	C 	0.1086	0.6008	0.2138	0.122
Mof_H 	H 	0.0797	0.5739	0.2577	-0.034
Mof_N 	N 	0.0884	0.8205	0.306	-0.27
Mof_C 	C 	0.1086	0.8992	0.2862	0.131
Mof_H 	H 	0.0797	0.9261	0.2423	-0.026
Mof_N 	N 	0.4116	0.6795	0.306	-0.26
Mof_C 	C 	0.3914	0.6008	0.2862	0.131
Mof_H 	H 	0.4203	0.5739	0.2423	-0.02
Mof_N 	N 	0.194	0.4116	0.8205	-0.26
Mof_C 	C 	0.2138	0.3914	0.8992	0.132
Mof_H 	H 	0.2577	0.4203	0.9261	-0.004
Mof_N 	N 	0.194	0.0884	0.6795	-0.271
Mof_C 	C 	0.2138	0.1086	0.6008	0.122
Mof_H 	H 	0.2577	0.0797	0.5739	-0.034
Mof_N 	N 	0.306	0.0884	0.8205	-0.27
Mof_C 	C 	0.2862	0.1086	0.8992	0.131
Mof_H 	H 	0.2423	0.0797	0.9261	-0.026
Mof_N 	N 	0.306	0.4116	0.6795	-0.26
Mof_C 	C 	0.2862	0.3914	0.6008	0.131
Mof_H 	H 	0.2423	0.4203	0.5739	-0.02
Mof_N 	N 	0.8205	0.194	0.4116	-0.26
Mof_C 	C 	0.8992	0.2138	0.3914	0.132
Mof_H 	H 	0.9261	0.2577	0.4203	-0.004
Mof_N 	N 	0.6795	0.194	0.0884	-0.271
Mof_C 	C 	0.6008	0.2138	0.1086	0.122
Mof_H 	H 	0.5739	0.2577	0.0797	-0.034
Mof_N 	N 	0.8205	0.306	0.0884	-0.27
Mof_C 	C 	0.8992	0.2862	0.1086	0.131
Mof_H 	H 	0.9261	0.2423	0.0797	-0.026
Mof_N 	N 	0.6795	0.306	0.4116	-0.26
Mof_C 	C 	0.6008	0.2862	0.3914	0.131
Mof_H 	H 	0.5739	0.2423	0.4203	-0.02
Mof_N 	N 	0.3205	0.9116	0.806	-0.241
Mof_C 	C 	0.3992	0.8914	0.7862	0.139
Mof_H 	H 	0.4261	0.9203	0.7423	0.007
Mof_N 	N 	0.1795	0.5884	0.806	-0.261
Mof_C 	C 	0.1008	0.6086	0.7862	0.13
Mof_H 	H 	0.0739	0.5797	0.7423	-0.025
Mof_N 	N 	0.3205	0.5884	0.694	-0.261
Mof_C 	C 	0.3992	0.6086	0.7138	0.131
Mof_H 	H 	0.4261	0.5797	0.7577	-0.01
Mof_N 	N 	0.1795	0.9116	0.694	-0.242
Mof_C 	C 	0.1008	0.8914	0.7138	0.13
Mof_H 	H 	0.0739	0.9203	0.7577	-0.001
Mof_N 	N 	0.9116	0.694	0.1795	-0.242
Mof_C 	C 	0.8914	0.7138	0.1008	0.13
Mof_H 	H 	0.9203	0.7577	0.0739	-0.001
Mof_N 	N 	0.5884	0.694	0.3205	-0.261
Mof_C 	C 	0.6086	0.7138	0.3992	0.131
Mof_H 	H 	0.5797	0.7577	0.4261	-0.01
Mof_N 	N 	0.5884	0.806	0.1795	-0.261
Mof_C 	C 	0.6086	0.7862	0.1008	0.13
Mof_H 	H 	0.5797	0.7423	0.0739	-0.025
Mof_N 	N 	0.9116	0.806	0.3205	-0.241
Mof_C 	C 	0.8914	0.7862	0.3992	0.139
Mof_H 	H 	0.9203	0.7423	0.4261	0.007
Mof_N 	N 	0.694	0.3205	0.5884	-0.261
Mof_C 	C 	0.7138	0.3992	0.6086	0.131
Mof_H 	H 	0.7577	0.4261	0.5797	-0.01
Mof_N 	N 	0.694	0.1795	0.9116	-0.242
Mof_C 	C 	0.7138	0.1008	0.8914	0.13
Mof_H 	H 	0.7577	0.0739	0.9203	-0.001
Mof_N 	N 	0.806	0.3205	0.9116	-0.241
Mof_C 	C 	0.7862	0.3992	0.8914	0.139
Mof_H 	H 	0.7423	0.4261	0.9203	0.007
Mof_N 	N 	0.806	0.1795	0.5884	-0.261
Mof_C 	C 	0.7862	0.1008	0.6086	0.13
Mof_H 	H 	0.7423	0.0739	0.5797	-0.025
Mof_N 	N 	0.5884	0.1795	0.806	-0.261
Mof_C 	C 	0.6086	0.1008	0.7862	0.13
Mof_H 	H 	0.5797	0.0739	0.7423	-0.025
Mof_N 	N 	0.9116	0.3205	0.806	-0.241
Mof_C 	C 	0.8914	0.3992	0.7862	0.139
Mof_H 	H 	0.9203	0.4261	0.7423	0.007
Mof_N 	N 	0.9116	0.1795	0.694	-0.242
Mof_C 	C 	0.8914	0.1008	0.7138	0.13
Mof_H 	H 	0.9203	0.0739	0.7577	-0.001
Mof_N 	N 	0.5884	0.3205	0.694	-0.261
Mof_C 	C 	0.6086	0.3992	0.7138	0.131
Mof_H 	H 	0.5797	0.4261	0.7577	-0.01
Mof_N 	N 	0.806	0.5884	0.1795	-0.261
Mof_C 	C 	0.7862	0.6086	0.1008	0.13
Mof_H 	H 	0.7423	0.5797	0.0739	-0.025
Mof_N 	N 	0.806	0.9116	0.3205	-0.241
Mof_C 	C 	0.7862	0.8914	0.3992	0.139
Mof_H 	H 	0.7423	0.9203	0.4261	0.007
Mof_N 	N 	0.694	0.9116	0.1795	-0.242
Mof_C 	C 	0.7138	0.8914	0.1008	0.13
Mof_H 	H 	0.7577	0.9203	0.0739	-0.001
Mof_N 	N 	0.694	0.5884	0.3205	-0.261
Mof_C 	C 	0.7138	0.6086	0.3992	0.131
Mof_H 	H 	0.7577	0.5797	0.4261	-0.01
Mof_N 	N 	0.1795	0.806	0.5884	-0.261
Mof_C 	C 	0.1008	0.7862	0.6086	0.13
Mof_H 	H 	0.0739	0.7423	0.5797	-0.025
Mof_N 	N 	0.3205	0.806	0.9116	-0.241
Mof_C 	C 	0.3992	0.7862	0.8914	0.139
Mof_H 	H 	0.4261	0.7423	0.9203	0.007
Mof_N 	N 	0.1795	0.694	0.9116	-0.242
Mof_C 	C 	0.1008	0.7138	0.8914	0.13
Mof_H 	H 	0.0739	0.7577	0.9203	-0.001
Mof_N 	N 	0.3205	0.694	0.5884	-0.261
Mof_C 	C 	0.3992	0.7138	0.6086	0.131
Mof_H 	H 	0.4261	0.7577	0.5797	-0.01
Mof_N 	N 	0.6795	0.0884	0.194	-0.271
Mof_C 	C 	0.6008	0.1086	0.2138	0.122
Mof_H 	H 	0.5739	0.0797	0.2577	-0.034
Mof_N 	N 	0.8205	0.4116	0.194	-0.26
Mof_C 	C 	0.8992	0.3914	0.2138	0.132
Mof_H 	H 	0.9261	0.4203	0.2577	-0.004
Mof_N 	N 	0.6795	0.4116	0.306	-0.26
Mof_C 	C 	0.6008	0.3914	0.2862	0.131
Mof_H 	H 	0.5739	0.4203	0.2423	-0.02
Mof_N 	N 	0.8205	0.0884	0.306	-0.27
Mof_C 	C 	0.8992	0.1086	0.2862	0.131
Mof_H 	H 	0.9261	0.0797	0.2423	-0.026
Mof_N 	N 	0.0884	0.306	0.8205	-0.27
Mof_C 	C 	0.1086	0.2862	0.8992	0.131
Mof_H 	H 	0.0797	0.2423	0.9261	-0.026
Mof_N 	N 	0.4116	0.306	0.6795	-0.26
Mof_C 	C 	0.3914	0.2862	0.6008	0.131
Mof_H 	H 	0.4203	0.2423	0.5739	-0.02
Mof_N 	N 	0.4116	0.194	0.8205	-0.26
Mof_C 	C 	0.3914	0.2138	0.8992	0.132
Mof_H 	H 	0.4203	0.2577	0.9261	-0.004
Mof_N 	N 	0.0884	0.194	0.6795	-0.271
Mof_C 	C 	0.1086	0.2138	0.6008	0.122
Mof_H 	H 	0.0797	0.2577	0.5739	-0.034
Mof_N 	N 	0.306	0.6795	0.4116	-0.26
Mof_C 	C 	0.2862	0.6008	0.3914	0.131
Mof_H 	H 	0.2423	0.5739	0.4203	-0.02
Mof_N 	N 	0.306	0.8205	0.0884	-0.27
Mof_C 	C 	0.2862	0.8992	0.1086	0.131
Mof_H 	H 	0.2423	0.9261	0.0797	-0.026
Mof_N 	N 	0.194	0.6795	0.0884	-0.271
Mof_C 	C 	0.2138	0.6008	0.1086	0.122
Mof_H 	H 	0.2577	0.5739	0.0797	-0.034
Mof_N 	N 	0.194	0.8205	0.4116	-0.26
Mof_C 	C 	0.2138	0.8992	0.3914	0.132
Mof_H 	H 	0.2577	0.9261	0.4203	-0.004
Mof_Cu	Cu	0.5	0.75	0.25	0.892
Mof_Cu	Cu	-2.28707e-33	0.75	0.25	0.858
Mof_Cu	Cu	0.25	0.5	0.75	0.892
Mof_Cu	Cu	0.25	6.44884e-33	0.75	0.858
Mof_Cu	Cu	0.75	0.25	0.5	0.892
Mof_Cu	Cu	0.75	0.25	-0	0.858
Mof_Cu	Cu	0.5	0.25	0.75	0.892
Mof_Cu	Cu	-3.63679e-33	0.25	0.75	0.858
Mof_Cu	Cu	0.75	0.5	0.25	0.892
Mof_Cu	Cu	0.75	0	0.25	0.858
Mof_Cu	Cu	0.25	0.75	0.5	0.892
Mof_Cu	Cu	0.25	0.75	-0	0.858
Mof_C 	C 	0.3722	0.7812	0.1278	0.247
Mof_O 	O 	0.3958	0.7092	0.1042	-0.318
Mof_C 	C 	0.3287	0.9427	0.1713	-0.206
Mof_H 	H 	0.314	0.997	0.186	0.11
Mof_C 	C 	0.1278	0.7188	0.1278	0.239
Mof_O 	O 	0.1042	0.7908	0.1042	-0.329
Mof_C 	C 	0.1713	0.5573	0.1713	-0.216
Mof_H 	H 	0.186	0.503	0.186	0.086
Mof_C 	C 	0.1278	0.7812	0.3722	0.247
Mof_O 	O 	0.1042	0.7092	0.3958	-0.318
Mof_C 	C 	0.1713	0.9427	0.3287	-0.206
Mof_H 	H 	0.186	0.997	0.314	0.11
Mof_C 	C 	0.3722	0.7188	0.3722	0.247
Mof_O 	O 	0.3958	0.7908	0.3958	-0.295
Mof_C 	C 	0.3287	0.5573	0.3287	-0.206
Mof_H 	H 	0.314	0.503	0.314	0.094
Mof_C 	C 	0.1278	0.3722	0.7812	0.247
Mof_O 	O 	0.1042	0.3958	0.7092	-0.318
Mof_C 	C 	0.1713	0.3287	0.9427	-0.206
Mof_H 	H 	0.186	0.314	0.997	0.11
Mof_C 	C 	0.1278	0.1278	0.7188	0.239
Mof_O 	O 	0.1042	0.1042	0.7908	-0.329
Mof_C 	C 	0.1713	0.1713	0.5573	-0.216
Mof_H 	H 	0.186	0.186	0.503	0.086
Mof_C 	C 	0.3722	0.1278	0.7812	0.247
Mof_O 	O 	0.3958	0.1042	0.7092	-0.318
Mof_C 	C 	0.3287	0.1713	0.9427	-0.206
Mof_H 	H 	0.314	0.186	0.997	0.11
Mof_C 	C 	0.3722	0.3722	0.7188	0.247
Mof_O 	O 	0.3958	0.3958	0.7908	-0.295
Mof_C 	C 	0.3287	0.3287	0.5573	-0.206
Mof_H 	H 	0.314	0.314	0.503	0.094
Mof_C 	C 	0.7812	0.1278	0.3722	0.247
Mof_O 	O 	0.7092	0.1042	0.3958	-0.318
Mof_C 	C 	0.9427	0.1713	0.3287	-0.206
Mof_H 	H 	0.997	0.186	0.314	0.11
Mof_C 	C 	0.7188	0.1278	0.1278	0.239
Mof_O 	O 	0.7908	0.1042	0.1042	-0.329
Mof_C 	C 	0.5573	0.1713	0.1713	-0.216
Mof_H 	H 	0.503	0.186	0.186	0.086
Mof_C 	C 	0.7812	0.3722	0.1278	0.247
Mof_O 	O 	0.7092	0.3958	0.1042	-0.318
Mof_C 	C 	0.9427	0.3287	0.1713	-0.206
Mof_H 	H 	0.997	0.314	0.186	0.11
Mof_C 	C 	0.7188	0.3722	0.3722	0.247
Mof_O 	O 	0.7908	0.3958	0.3958	-0.295
Mof_C 	C 	0.5573	0.3287	0.3287	-0.206
Mof_H 	H 	0.503	0.314	0.314	0.094
Mof_C 	C 	0.2812	0.8722	0.8722	0.258
Mof_O 	O 	0.2092	0.8958	0.8958	-0.266
Mof_C 	C 	0.4427	0.8287	0.8287	-0.193
Mof_H 	H 	0.497	0.814	0.814	0.117
Mof_C 	C 	0.2188	0.6278	0.8722	0.25
Mof_O 	O 	0.2908	0.6042	0.8958	-0.281
Mof_C 	C 	0.0573	0.6713	0.8287	-0.203
Mof_H 	H 	0.003	0.686	0.814	0.093
Mof_C 	C 	0.2812	0.6278	0.6278	0.249
Mof_O 	O 	0.2092	0.6042	0.6042	-0.307
Mof_C 	C 	0.4427	0.6713	0.6713	-0.205
Mof_H 	H 	0.497	0.686	0.686	0.109
Mof_C 	C 	0.2188	0.8722	0.6278	0.25
Mof_O 	O 	0.2908	0.8958	0.6042	-0.281
Mof_C 	C 	0.0573	0.8287	0.6713	-0.203
Mof_H 	H 	0.003	0.814	0.686	0.093
Mof_C 	C 	0.8722	0.6278	0.2188	0.25
Mof_O 	O 	0.8958	0.6042	0.2908	-0.281
Mof_C 	C 	0.8287	0.6713	0.0573	-0.203
Mof_H 	H 	0.814	0.686	0.003	0.093
Mof_C 	C 	0.6278	0.6278	0.2812	0.249
Mof_O 	O 	0.6042	0.6042	0.2092	-0.307
Mof_C 	C 	0.6713	0.6713	0.4427	-0.205
Mof_H 	H 	0.686	0.686	0.497	0.109
Mof_C 	C 	0.6278	0.8722	0.2188	0.25
Mof_O 	O 	0.6042	0.8958	0.2908	-0.281
Mof_C 	C 	0.6713	0.8287	0.0573	-0.203
Mof_H 	H 	0.686	0.814	0.003	0.093
Mof_C 	C 	0.8722	0.8722	0.2812	0.258
Mof_O 	O 	0.8958	0.8958	0.2092	-0.266
Mof_C 	C 	0.8287	0.8287	0.4427	-0.193
Mof_H 	H 	0.814	0.814	0.497	0.117
Mof_C 	C 	0.6278	0.2812	0.6278	0.249
Mof_O 	O 	0.6042	0.2092	0.6042	-0.307
Mof_C 	C 	0.6713	0.4427	0.6713	-0.205
Mof_H 	H 	0.686	0.497	0.686	0.109
Mof_C 	C 	0.6278	0.2188	0.8722	0.25
Mof_O 	O 	0.6042	0.2908	0.8958	-0.281
Mof_C 	C 	0.6713	0.0573	0.8287	-0.203
Mof_H 	H 	0.686	0.003	0.814	0.093
Mof_C 	C 	0.8722	0.2812	0.8722	0.258
Mof_O 	O 	0.8958	0.2092	0.8958	-0.266
Mof_C 	C 	0.8287	0.4427	0.8287	-0.193
Mof_H 	H 	0.814	0.497	0.814	0.117
Mof_C 	C 	0.8722	0.2188	0.6278	0.25
Mof_O 	O 	0.8958	0.2908	0.6042	-0.281
Mof_C 	C 	0.8287	0.0573	0.6713	-0.203
Mof_H 	H 	0.814	0.003	0.686	0.093
_end
