data_functionalizedCrystal
_audit_creation_method	'EQeq! by Chris Wilmer'
_symmetry_space_group_name_H-M	'P1'
_symmetry_Int_Tables_number	1
_symmetry_cell_setting	triclinic
loop_
_symmetry_equiv_pos_as_xyz
  x,y,z
_cell_length_a	9.247
_cell_length_b	9.4464
_cell_length_c	9.4464
_cell_angle_alpha	101.457
_cell_angle_beta	112.61
_cell_angle_gamma	112.61
loop_
_atom_site_label
_atom_site_type_symbol
_atom_site_fract_x
_atom_site_fract_y
_atom_site_fract_z
_atom_site_charge
Mof_Mn	Mn	0.75	0.03461	0.96539	0.906
Mof_Mn	Mn	0.25	0.96539	0.03461	0.906
Mof_H 	H 	0.6769	0.2635	0.5091	0.058
Mof_H 	H 	0.7863	0.8579	0.6457	0.029
Mof_H 	H 	0.7473	0.8678	0.391	0.063
Mof_H 	H 	0.8231	0.4909	0.7365	0.057
Mof_H 	H 	0.7137	0.3543	0.1421	0.029
Mof_H 	H 	0.7527	0.609	0.1322	0.062
Mof_H 	H 	0.3231	0.7365	0.4909	0.058
Mof_H 	H 	0.2137	0.1421	0.3543	0.029
Mof_H 	H 	0.2527	0.1322	0.609	0.063
Mof_H 	H 	0.1769	0.5091	0.2635	0.057
Mof_H 	H 	0.2863	0.6457	0.8579	0.029
Mof_H 	H 	0.2473	0.391	0.8678	0.062
Mof_C 	C 	0.6685	0.07801	0.25499	0.348
Mof_C 	C 	0.7054	0.066	0.4214	-0.046
Mof_C 	C 	0.7042	0.18184	0.53656	-0.061
Mof_C 	C 	0.7676	0.9435	0.6189	0.054
Mof_C 	C 	0.7432	0.17711	0.69249	0.049
Mof_C 	C 	0.7411	0.9464	0.4652	-0.06
Mof_C 	C 	0.8315	0.74501	0.92199	0.348
Mof_C 	C 	0.7946	0.5786	0.934	-0.048
Mof_C 	C 	0.7958	0.46344	0.81816	-0.061
Mof_C 	C 	0.7324	0.3811	0.0565	0.053
Mof_C 	C 	0.7568	0.30751	0.82289	0.048
Mof_C 	C 	0.7589	0.5348	0.0536	-0.058
Mof_C 	C 	0.3315	0.92199	0.74501	0.348
Mof_C 	C 	0.2946	0.934	0.5786	-0.046
Mof_C 	C 	0.2958	0.81816	0.46344	-0.061
Mof_C 	C 	0.2324	0.0565	0.3811	0.054
Mof_C 	C 	0.2568	0.82289	0.30751	0.049
Mof_C 	C 	0.2589	0.0536	0.5348	-0.06
Mof_C 	C 	0.1685	0.25499	0.07801	0.348
Mof_C 	C 	0.2054	0.4214	0.066	-0.048
Mof_C 	C 	0.2042	0.53656	0.18184	-0.061
Mof_C 	C 	0.2676	0.6189	0.9435	0.053
Mof_C 	C 	0.2432	0.69249	0.17711	0.048
Mof_C 	C 	0.2411	0.4652	0.9464	-0.058
Mof_N 	N 	0.7682	0.05569	0.73231	-0.177
Mof_N 	N 	0.7318	0.26769	0.94431	-0.177
Mof_N 	N 	0.2318	0.94431	0.26769	-0.177
Mof_N 	N 	0.2682	0.73231	0.05569	-0.177
Mof_O 	O 	0.7732	0.06511	0.20549	-0.346
Mof_O 	O 	0.546	0.10783	0.18337	-0.361
Mof_O 	O 	0.7268	0.79451	0.93489	-0.346
Mof_O 	O 	0.954	0.81663	0.89217	-0.363
Mof_O 	O 	0.2268	0.93489	0.79451	-0.346
Mof_O 	O 	0.454	0.89217	0.81663	-0.361
Mof_O 	O 	0.2732	0.20549	0.06511	-0.346
Mof_O 	O 	0.046	0.18337	0.10783	-0.363
_end
