# CIF file generated by openbabel 3.1.0, see https://openbabel.org
data_I
_chemical_name_common 'HURNOX_clean'
_cell_length_a 7.149
_cell_length_b 10.468
_cell_length_c 11.295
_cell_angle_alpha 90
_cell_angle_beta 90
_cell_angle_gamma 90
_space_group_name_H-M_alt 'P 1'
_space_group_name_Hall 'P 1'
loop_
    _symmetry_equiv_pos_as_xyz
    x,y,z
loop_
    _atom_site_label
    _atom_site_type_symbol
    _atom_site_fract_x
    _atom_site_fract_y
    _atom_site_fract_z
    _atom_site_occupancy
    Co1      Co       0.10683    0.93586    0.54189    1.000
    Co2      Co       0.39317    0.06414    0.04189    1.000
    Co3      Co       0.89317    0.43586    0.95811    1.000
    Co4      Co       0.60683    0.56414    0.45811    1.000
    H1       H        0.19500    0.13690    0.86280    1.000
    H2       H        0.32520    0.04130    0.81820    1.000
    H3       H        0.35250    0.27730    0.77970    1.000
    H4       H        0.49110    0.12370    0.66010    1.000
    H5       H        0.62560    0.23910    0.68400    1.000
    H6       H        0.64930    0.00380    0.80450    1.000
    H7       H        0.78470    0.11880    0.82660    1.000
    H8       H        0.30500    0.86310    0.36280    1.000
    H9       H        0.17480    0.95870    0.31820    1.000
    H10      H        0.14750    0.72270    0.27970    1.000
    H11      H        0.00890    0.87630    0.16010    1.000
    H12      H        0.87440    0.76090    0.18400    1.000
    H13      H        0.85070    0.99620    0.30450    1.000
    H14      H        0.71530    0.88120    0.32660    1.000
    H15      H        0.80500    0.63690    0.63720    1.000
    H16      H        0.67480    0.54130    0.68180    1.000
    H17      H        0.64750    0.77730    0.72030    1.000
    H18      H        0.50890    0.62370    0.83990    1.000
    H19      H        0.37440    0.73910    0.81600    1.000
    H20      H        0.35070    0.50380    0.69550    1.000
    H21      H        0.21530    0.61880    0.67340    1.000
    H22      H        0.69500    0.36310    0.13720    1.000
    H23      H        0.82520    0.45870    0.18180    1.000
    H24      H        0.85250    0.22270    0.22030    1.000
    H25      H        0.99110    0.37630    0.33990    1.000
    H26      H        0.12560    0.26090    0.31600    1.000
    H27      H        0.14930    0.49620    0.19550    1.000
    H28      H        0.28470    0.38120    0.17340    1.000
    C1       C        0.54210    0.28050    0.91560    1.000
    C2       C        0.84350    0.02380    0.67320    1.000
    C3       C        0.43520    0.21360    0.81580    1.000
    C4       C        0.56420    0.16650    0.72060    1.000
    C5       C        0.71160    0.07520    0.76660    1.000
    C6       C        0.95790    0.71950    0.41560    1.000
    C7       C        0.65650    0.97620    0.17320    1.000
    C8       C        0.06480    0.78640    0.31580    1.000
    C9       C        0.93580    0.83350    0.22060    1.000
    C10      C        0.78840    0.92480    0.26660    1.000
    C11      C        0.45790    0.78050    0.58440    1.000
    C12      C        0.15650    0.52380    0.82680    1.000
    C13      C        0.56480    0.71360    0.68420    1.000
    C14      C        0.43580    0.66650    0.77940    1.000
    C15      C        0.28840    0.57520    0.73340    1.000
    C16      C        0.04210    0.21950    0.08440    1.000
    C17      C        0.34350    0.47620    0.32680    1.000
    C18      C        0.93520    0.28640    0.18420    1.000
    C19      C        0.06420    0.33350    0.27940    1.000
    C20      C        0.21160    0.42480    0.23340    1.000
    N1       N        0.31520    0.11120    0.86410    1.000
    N2       N        0.18480    0.88880    0.36410    1.000
    N3       N        0.68480    0.61120    0.63590    1.000
    N4       N        0.81520    0.38880    0.13590    1.000
    O1       O        0.99080    0.96520    0.71010    1.000
    O2       O        0.81480    0.03640    0.56540    1.000
    O3       O        0.52920    0.23570    0.01840    1.000
    O4       O        0.64210    0.37360    0.88480    1.000
    O5       O        0.50920    0.03480    0.21010    1.000
    O6       O        0.68520    0.96360    0.06540    1.000
    O7       O        0.97080    0.76430    0.51840    1.000
    O8       O        0.85790    0.62640    0.38480    1.000
    O9       O        0.00920    0.46520    0.78990    1.000
    O10      O        0.18520    0.53640    0.93460    1.000
    O11      O        0.47080    0.73570    0.48160    1.000
    O12      O        0.35790    0.87360    0.61520    1.000
    O13      O        0.49080    0.53480    0.28990    1.000
    O14      O        0.31480    0.46360    0.43460    1.000
    O15      O        0.02920    0.26430    0.98160    1.000
    O16      O        0.14210    0.12640    0.11520    1.000
