# CIF file generated by openbabel 3.1.0, see https://openbabel.org
data_I
_chemical_name_common 'LAGDII_ion_b'
_cell_length_a 15.8084
_cell_length_b 15.8084
_cell_length_c 16.5823
_cell_angle_alpha 90
_cell_angle_beta 90
_cell_angle_gamma 120
_space_group_name_H-M_alt 'P 1'
_space_group_name_Hall 'P 1'
loop_
    _symmetry_equiv_pos_as_xyz
    x,y,z
loop_
    _atom_site_label
    _atom_site_type_symbol
    _atom_site_fract_x
    _atom_site_fract_y
    _atom_site_fract_z
    _atom_site_occupancy
    C1       C        0.87070    0.40680    0.24020    1.000
    C2       C        0.91910    0.48520    0.29900    1.000
    H3       H        0.97910    0.53850    0.28510    1.000
    C4       C        0.88090    0.48540    0.37520    1.000
    C5       C        0.94750    0.56000    0.43630    1.000
    C6       C        0.91100    0.55280    0.51380    1.000
    H7       H        0.84810    0.50250    0.52490    1.000
    C8       C        0.04100    0.62900    0.42230    1.000
    H9       H        0.06750    0.63150    0.37170    1.000
    C10      C        0.96290    0.61570    0.57410    1.000
    H11      H        0.93580    0.60910    0.62510    1.000
    C12      C        0.09910    0.69600    0.47960    1.000
    H13      H        0.16310    0.74360    0.46800    1.000
    C14      C        0.05760    0.69010    0.55790    1.000
    C15      C        0.11700    0.75740    0.62110    1.000
    C16      C        0.92790    0.40720    0.16670    1.000
    C17      C        0.87490    0.35270    0.10310    1.000
    H18      H        0.80710    0.31670    0.10630    1.000
    C19      C        0.02330    0.45520    0.16010    1.000
    H20      H        0.06080    0.49310    0.20310    1.000
    C21      C        0.92300    0.35100    0.03220    1.000
    H22      H        0.88710    0.31600    0.98750    1.000
    C23      C        0.07110    0.45070    0.08860    1.000
    H24      H        0.13890    0.48480    0.08550    1.000
    C25      C        0.02120    0.40020    0.02950    1.000
    C26      C        0.07110    0.40260    0.95720    1.000
    N27      N        0.10580    0.39820    0.89550    1.000
    N28      N        0.16130    0.80670    0.66910    1.000
    O29      O        0.78570    0.34060    0.24470    1.000
    O30      O        0.79760    0.42730    0.39880    1.000
    Ag31     Ag       0.87169    0.59798    0.23505    1.000
    O32      O        0.03670    0.73430    0.25020    1.000
    O33      O        0.23770    0.87210    0.26380    1.000
    O34      O        0.14770    0.82240    0.11160    1.000
    Re35     Re       0.15067    0.78370    0.20512    1.000
    O36      O        0.17660    0.68870    0.20060    1.000
    C37      C        0.59320    0.46390    0.24020    1.000
    C38      C        0.51480    0.43390    0.29900    1.000
    H39      H        0.46150    0.44060    0.28510    1.000
    C40      C        0.51460    0.39550    0.37520    1.000
    C41      C        0.44000    0.38750    0.43630    1.000
    C42      C        0.44720    0.35820    0.51380    1.000
    H43      H        0.49750    0.34560    0.52490    1.000
    C44      C        0.37100    0.41200    0.42230    1.000
    H45      H        0.36850    0.43600    0.37170    1.000
    C46      C        0.38430    0.34720    0.57410    1.000
    H47      H        0.39090    0.32670    0.62510    1.000
    C48      C        0.30400    0.40310    0.47960    1.000
    H49      H        0.25640    0.41950    0.46800    1.000
    C50      C        0.30990    0.36750    0.55790    1.000
    C51      C        0.24260    0.35960    0.62110    1.000
    C52      C        0.59280    0.52070    0.16670    1.000
    C53      C        0.64730    0.52220    0.10310    1.000
    H54      H        0.68330    0.49040    0.10630    1.000
    C55      C        0.54480    0.56810    0.16010    1.000
    H56      H        0.50690    0.56770    0.20310    1.000
    C57      C        0.64900    0.57200    0.03220    1.000
    H58      H        0.68400    0.57110    0.98750    1.000
    C59      C        0.54930    0.62040    0.08860    1.000
    H60      H        0.51520    0.65410    0.08550    1.000
    C61      C        0.59980    0.62100    0.02950    1.000
    C62      C        0.59740    0.66850    0.95720    1.000
    N63      N        0.60180    0.70760    0.89550    1.000
    N64      N        0.19330    0.35460    0.66910    1.000
    O65      O        0.65940    0.44510    0.24470    1.000
    O66      O        0.57270    0.37030    0.39880    1.000
    Ag67     Ag       0.40202    0.27371    0.23505    1.000
    O68      O        0.26570    0.30240    0.25020    1.000
    O69      O        0.12790    0.36560    0.26380    1.000
    O70      O        0.17760    0.32530    0.11160    1.000
    Re71     Re       0.21630    0.36697    0.20512    1.000
    O72      O        0.31130    0.48790    0.20060    1.000
    C73      C        0.53610    0.12930    0.24020    1.000
    C74      C        0.56610    0.08090    0.29900    1.000
    H75      H        0.55940    0.02090    0.28510    1.000
    C76      C        0.60450    0.11910    0.37520    1.000
    C77      C        0.61250    0.05250    0.43630    1.000
    C78      C        0.64180    0.08900    0.51380    1.000
    H79      H        0.65440    0.15190    0.52490    1.000
    C80      C        0.58800    0.95900    0.42230    1.000
    H81      H        0.56400    0.93250    0.37170    1.000
    C82      C        0.65280    0.03710    0.57410    1.000
    H83      H        0.67330    0.06420    0.62510    1.000
    C84      C        0.59690    0.90090    0.47960    1.000
    H85      H        0.58050    0.83690    0.46800    1.000
    C86      C        0.63250    0.94240    0.55790    1.000
    C87      C        0.64040    0.88300    0.62110    1.000
    C88      C        0.47930    0.07210    0.16670    1.000
    C89      C        0.47780    0.12510    0.10310    1.000
    H90      H        0.50960    0.19290    0.10630    1.000
    C91      C        0.43190    0.97670    0.16010    1.000
    H92      H        0.43230    0.93920    0.20310    1.000
    C93      C        0.42800    0.07700    0.03220    1.000
    H94      H        0.42890    0.11290    0.98750    1.000
    C95      C        0.37960    0.92890    0.08860    1.000
    H96      H        0.34590    0.86110    0.08550    1.000
    C97      C        0.37900    0.97880    0.02950    1.000
    C98      C        0.33150    0.92890    0.95720    1.000
    N99      N        0.29240    0.89420    0.89550    1.000
    N100     N        0.64540    0.83870    0.66910    1.000
    O101     O        0.55490    0.21430    0.24470    1.000
    O102     O        0.62970    0.20240    0.39880    1.000
    Ag103    Ag       0.72629    0.12831    0.23505    1.000
    O104     O        0.69760    0.96330    0.25020    1.000
    O105     O        0.63440    0.76230    0.26380    1.000
    O106     O        0.67470    0.85230    0.11160    1.000
    Re107    Re       0.63303    0.84933    0.20512    1.000
    O108     O        0.51210    0.82340    0.20060    1.000
    C109     C        0.12930    0.59320    0.75980    1.000
    C110     C        0.08090    0.51480    0.70100    1.000
    H111     H        0.02090    0.46150    0.71490    1.000
    C112     C        0.11910    0.51460    0.62480    1.000
    C113     C        0.05250    0.44000    0.56370    1.000
    C114     C        0.08900    0.44720    0.48620    1.000
    H115     H        0.15190    0.49750    0.47510    1.000
    C116     C        0.95900    0.37100    0.57770    1.000
    H117     H        0.93250    0.36850    0.62830    1.000
    C118     C        0.03710    0.38430    0.42590    1.000
    H119     H        0.06420    0.39090    0.37490    1.000
    C120     C        0.90090    0.30400    0.52040    1.000
    H121     H        0.83690    0.25640    0.53200    1.000
    C122     C        0.94240    0.30990    0.44210    1.000
    C123     C        0.88300    0.24260    0.37890    1.000
    C124     C        0.07210    0.59280    0.83330    1.000
    C125     C        0.12510    0.64730    0.89690    1.000
    H126     H        0.19290    0.68330    0.89370    1.000
    C127     C        0.97670    0.54480    0.83990    1.000
    H128     H        0.93920    0.50690    0.79690    1.000
    C129     C        0.07700    0.64900    0.96780    1.000
    H130     H        0.11290    0.68400    0.01250    1.000
    C131     C        0.92890    0.54930    0.91140    1.000
    H132     H        0.86110    0.51520    0.91450    1.000
    C133     C        0.97880    0.59980    0.97050    1.000
    C134     C        0.92890    0.59740    0.04280    1.000
    N135     N        0.89420    0.60180    0.10450    1.000
    N136     N        0.83870    0.19330    0.33090    1.000
    O137     O        0.21430    0.65940    0.75530    1.000
    O138     O        0.20240    0.57270    0.60120    1.000
    Ag139    Ag       0.12831    0.40202    0.76495    1.000
    O140     O        0.96330    0.26570    0.74980    1.000
    O141     O        0.76230    0.12790    0.73620    1.000
    O142     O        0.85230    0.17760    0.88840    1.000
    Re143    Re       0.84933    0.21630    0.79488    1.000
    O144     O        0.82340    0.31130    0.79940    1.000
    C145     C        0.40680    0.53610    0.75980    1.000
    C146     C        0.48520    0.56610    0.70100    1.000
    H147     H        0.53850    0.55940    0.71490    1.000
    C148     C        0.48540    0.60450    0.62480    1.000
    C149     C        0.56000    0.61250    0.56370    1.000
    C150     C        0.55280    0.64180    0.48620    1.000
    H151     H        0.50250    0.65440    0.47510    1.000
    C152     C        0.62900    0.58800    0.57770    1.000
    H153     H        0.63150    0.56400    0.62830    1.000
    C154     C        0.61570    0.65280    0.42590    1.000
    H155     H        0.60910    0.67330    0.37490    1.000
    C156     C        0.69600    0.59690    0.52040    1.000
    H157     H        0.74360    0.58050    0.53200    1.000
    C158     C        0.69010    0.63250    0.44210    1.000
    C159     C        0.75740    0.64040    0.37890    1.000
    C160     C        0.40720    0.47930    0.83330    1.000
    C161     C        0.35270    0.47780    0.89690    1.000
    H162     H        0.31670    0.50960    0.89370    1.000
    C163     C        0.45520    0.43190    0.83990    1.000
    H164     H        0.49310    0.43230    0.79690    1.000
    C165     C        0.35100    0.42800    0.96780    1.000
    H166     H        0.31600    0.42890    0.01250    1.000
    C167     C        0.45070    0.37960    0.91140    1.000
    H168     H        0.48480    0.34590    0.91450    1.000
    C169     C        0.40020    0.37900    0.97050    1.000
    C170     C        0.40260    0.33150    0.04280    1.000
    N171     N        0.39820    0.29240    0.10450    1.000
    N172     N        0.80670    0.64540    0.33090    1.000
    O173     O        0.34060    0.55490    0.75530    1.000
    O174     O        0.42730    0.62970    0.60120    1.000
    Ag175    Ag       0.59798    0.72629    0.76495    1.000
    O176     O        0.73430    0.69760    0.74980    1.000
    O177     O        0.87210    0.63440    0.73620    1.000
    O178     O        0.82240    0.67470    0.88840    1.000
    Re179    Re       0.78370    0.63303    0.79488    1.000
    O180     O        0.68870    0.51210    0.79940    1.000
    C181     C        0.46390    0.87070    0.75980    1.000
    C182     C        0.43390    0.91910    0.70100    1.000
    H183     H        0.44060    0.97910    0.71490    1.000
    C184     C        0.39550    0.88090    0.62480    1.000
    C185     C        0.38750    0.94750    0.56370    1.000
    C186     C        0.35820    0.91100    0.48620    1.000
    H187     H        0.34560    0.84810    0.47510    1.000
    C188     C        0.41200    0.04100    0.57770    1.000
    H189     H        0.43600    0.06750    0.62830    1.000
    C190     C        0.34720    0.96290    0.42590    1.000
    H191     H        0.32670    0.93580    0.37490    1.000
    C192     C        0.40310    0.09910    0.52040    1.000
    H193     H        0.41950    0.16310    0.53200    1.000
    C194     C        0.36750    0.05760    0.44210    1.000
    C195     C        0.35960    0.11700    0.37890    1.000
    C196     C        0.52070    0.92790    0.83330    1.000
    C197     C        0.52220    0.87490    0.89690    1.000
    H198     H        0.49040    0.80710    0.89370    1.000
    C199     C        0.56810    0.02330    0.83990    1.000
    H200     H        0.56770    0.06080    0.79690    1.000
    C201     C        0.57200    0.92300    0.96780    1.000
    H202     H        0.57110    0.88710    0.01250    1.000
    C203     C        0.62040    0.07110    0.91140    1.000
    H204     H        0.65410    0.13890    0.91450    1.000
    C205     C        0.62100    0.02120    0.97050    1.000
    C206     C        0.66850    0.07110    0.04280    1.000
    N207     N        0.70760    0.10580    0.10450    1.000
    N208     N        0.35460    0.16130    0.33090    1.000
    O209     O        0.44510    0.78570    0.75530    1.000
    O210     O        0.37030    0.79760    0.60120    1.000
    Ag211    Ag       0.27371    0.87169    0.76495    1.000
    O212     O        0.30240    0.03670    0.74980    1.000
    O213     O        0.36560    0.23770    0.73620    1.000
    O214     O        0.32530    0.14770    0.88840    1.000
    Re215    Re       0.36697    0.15067    0.79488    1.000
    O216     O        0.48790    0.17660    0.79940    1.000
    Cd217    Cd       0.66667    0.33333    0.32406    1.000
    Cd218    Cd       0.33333    0.66667    0.67594    1.000
