data_functionalizedCrystal
_audit_creation_method	'EQeq! by Chris Wilmer'
_symmetry_space_group_name_H-M	'P1'
_symmetry_Int_Tables_number	1
_symmetry_cell_setting	triclinic
loop_
_symmetry_equiv_pos_as_xyz
  x,y,z
_cell_length_a	14.05
_cell_length_b	16.3488
_cell_length_c	16.602
_cell_angle_alpha	105.881
_cell_angle_beta	90
_cell_angle_gamma	115.448
loop_
_atom_site_label
_atom_site_type_symbol
_atom_site_fract_x
_atom_site_fract_y
_atom_site_fract_z
_atom_site_charge
Mof_Cd	Cd	0.04594	0.55838	0.91134	0.452
Mof_Cd	Cd	0.48756	0.44162	0.58866	0.454
Mof_Cd	Cd	0.95406	0.44162	0.08866	0.452
Mof_Cd	Cd	0.51244	0.55838	0.41134	0.454
Mof_H 	H 	0.2491	0.3344	0.4872	-0.001
Mof_H 	H 	0.3452	0.5448	0.1997	0.136
Mof_H 	H 	0.0853	0.3344	0.9872	-0.003
Mof_H 	H 	0.7486	0.6654	0.01	0.112
Mof_H 	H 	0.0788	0.7574	0.292	0.039
Mof_H 	H 	0.3081	0.9798	0.6165	0.065
Mof_H 	H 	0.3723	0.2264	0.4348	0.048
Mof_H 	H 	0.7585	0.3194	0.4512	0.083
Mof_H 	H 	0.3214	0.2426	0.208	0.039
Mof_H 	H 	0.9212	0.2426	0.708	0.039
Mof_H 	H 	0.6607	0.86	0.1477	0.062
Mof_H 	H 	0.3911	0.2732	0.8058	0.03
Mof_H 	H 	0.4391	0.6806	0.0488	0.082
Mof_H 	H 	0.7505	0.114	0.0711	0.035
Mof_H 	H 	0.6717	0.9798	0.1165	0.064
Mof_H 	H 	0.3393	0.14	0.8523	0.062
Mof_H 	H 	0.6548	0.4552	0.8003	0.135
Mof_H 	H 	0.3578	0.464	0.8361	0.09
Mof_H 	H 	0.2514	0.3346	0.99	0.111
Mof_H 	H 	0.3955	0.6636	0.5321	0.014
Mof_H 	H 	0.8938	0.536	0.6639	0.091
Mof_H 	H 	0.9168	0.6654	0.51	0.112
Mof_H 	H 	0.7509	0.6656	0.5128	-0.002
Mof_H 	H 	0.1993	0.86	0.6477	0.062
Mof_H 	H 	0.8104	0.5442	0.1801	0.02
Mof_H 	H 	0.1853	0.5436	0.1954	-0.009
Mof_H 	H 	0.2251	0.0794	0.1564	0.065
Mof_H 	H 	0.2845	0.0674	0.3877	0.067
Mof_H 	H 	0.5304	0.5096	0.8465	0.112
Mof_H 	H 	0.6422	0.536	0.1639	0.09
Mof_H 	H 	0.6417	0.4564	0.3046	-0.009
Mof_H 	H 	0.9792	0.5096	0.3465	0.112
Mof_H 	H 	0.6089	0.7268	0.1942	0.03
Mof_H 	H 	0.0603	0.6334	0.4948	0.032
Mof_H 	H 	0.7155	0.9326	0.6123	0.067
Mof_H 	H 	0.1457	0.9206	0.3436	0.065
Mof_H 	H 	0.2662	0.4558	0.3199	0.02
Mof_H 	H 	0.0832	0.3346	0.49	0.112
Mof_H 	H 	0.4269	0.3666	0.0052	0.032
Mof_H 	H 	0.3583	0.5436	0.6954	-0.009
Mof_H 	H 	0.1459	0.7736	0.0652	0.049
Mof_H 	H 	0.4696	0.4904	0.1535	0.112
Mof_H 	H 	0.6919	0.0202	0.3835	0.065
Mof_H 	H 	0.8147	0.4564	0.8046	-0.009
Mof_H 	H 	0.2495	0.886	0.9289	0.035
Mof_H 	H 	0.2415	0.6806	0.5488	0.083
Mof_H 	H 	0.8004	0.4552	0.3003	0.135
Mof_H 	H 	0.8541	0.2264	0.9348	0.049
Mof_H 	H 	0.6365	0.886	0.4289	0.035
Mof_H 	H 	0.7749	0.9206	0.8436	0.065
Mof_H 	H 	0.3635	0.114	0.5711	0.035
Mof_H 	H 	0.5731	0.6334	0.9948	0.032
Mof_H 	H 	0.1062	0.464	0.3361	0.091
Mof_H 	H 	0.2171	0.9326	0.1123	0.067
Mof_H 	H 	0.9147	0.6656	0.0128	-0.004
Mof_H 	H 	0.1179	0.7268	0.6942	0.03
Mof_H 	H 	0.9397	0.3666	0.5052	0.032
Mof_H 	H 	0.1996	0.5448	0.6997	0.135
Mof_H 	H 	0.5609	0.3194	0.9512	0.082
Mof_H 	H 	0.6277	0.7736	0.5652	0.048
Mof_H 	H 	0.3283	0.0202	0.8835	0.064
Mof_H 	H 	0.7338	0.5442	0.6801	0.02
Mof_H 	H 	0.1896	0.4558	0.8199	0.02
Mof_H 	H 	0.8007	0.14	0.3523	0.062
Mof_H 	H 	0.8821	0.2732	0.3058	0.03
Mof_H 	H 	0.6045	0.3364	0.4679	0.014
Mof_H 	H 	0.7319	0.3364	0.9679	0.016
Mof_H 	H 	0.8543	0.0794	0.6564	0.065
Mof_H 	H 	0.7829	0.0674	0.8877	0.067
Mof_H 	H 	0.6786	0.7574	0.792	0.039
Mof_H 	H 	0.0208	0.4904	0.6535	0.112
Mof_H 	H 	0.2681	0.6636	0.0321	0.016
Mof_C 	C 	0.1229	0.4418	0.5977	0.216
Mof_C 	C 	0.2607	0.4996	0.3667	0.075
Mof_C 	C 	0.3597	0.1196	0.6281	0.02
Mof_C 	C 	0.1485	0.8916	0.2876	-0.096
Mof_C 	C 	0.131	0.7054	0.8449	0.29
Mof_C 	C 	0.1384	0.378	0.0318	0.135
Mof_C 	C 	0.7604	0.622	0.4682	0.132
Mof_C 	C 	0.7931	0.4998	0.3451	-0.262
Mof_C 	C 	0.843	0.4238	0.5618	0.083
Mof_C 	C 	0.7132	0.377	0.0082	0.088
Mof_C 	C 	0.7552	0.3646	0.4979	-0.147
Mof_C 	C 	0.3418	0.5076	0.8753	-0.142
Mof_C 	C 	0.3111	0.0448	0.7355	0.042
Mof_C 	C 	0.8033	0.5004	0.8473	0.154
Mof_C 	C 	0.3362	0.623	0.4918	0.092
Mof_C 	C 	0.7611	0.5004	0.1333	0.074
Mof_C 	C 	0.6971	0.5004	0.3473	0.154
Mof_C 	C 	0.2569	0.1084	0.2124	-0.096
Mof_C 	C 	0.2448	0.6354	0.5021	-0.147
Mof_C 	C 	0.7337	0.0448	0.2355	0.042
Mof_C 	C 	0.2401	0.8804	0.8719	0.02
Mof_C 	C 	0.3029	0.4996	0.6527	0.154
Mof_C 	C 	0.4192	0.5762	0.9382	0.081
Mof_C 	C 	0.6233	0.7854	0.2326	0.022
Mof_C 	C 	0.6873	0.7936	0.7555	0.019
Mof_C 	C 	0.4265	0.4486	0.1031	-0.179
Mof_C 	C 	0.0221	0.4486	0.6031	-0.18
Mof_C 	C 	0.6581	0.8658	0.2049	-0.1
Mof_C 	C 	0.0551	0.6394	0.1382	0.296
Mof_C 	C 	0.1063	0.7936	0.2555	0.019
Mof_C 	C 	0.2077	0.8658	0.7049	-0.1
Mof_C 	C 	0.7507	0.9466	0.7335	0.038
Mof_C 	C 	0.8515	0.1084	0.7124	-0.096
Mof_C 	C 	0.0589	0.589	0.4453	-0.002
Mof_C 	C 	0.6889	0.9552	0.2645	0.042
Mof_C 	C 	0.8185	0.2082	0.1865	-0.085
Mof_C 	C 	0.2663	0.9552	0.7645	0.042
Mof_C 	C 	0.7083	0.8984	0.6502	-0.098
Mof_C 	C 	0.2868	0.623	0.9918	0.088
Mof_C 	C 	0.1959	0.9466	0.2335	0.038
Mof_C 	C 	0.6561	0.8022	0.6219	0.023
Mof_C 	C 	0.7923	0.1342	0.2951	-0.1
Mof_C 	C 	0.6811	0.5582	0.9023	0.215
Mof_C 	C 	0.8342	0.4924	0.6247	-0.144
Mof_C 	C 	0.8615	0.6222	0.467	-0.225
Mof_C 	C 	0.8771	0.5582	0.4023	0.216
Mof_C 	C 	0.5808	0.4238	0.0618	0.081
Mof_C 	C 	0.6403	0.8804	0.3719	0.02
Mof_C 	C 	0.3571	0.2538	0.3302	-0.089
Mof_C 	C 	0.8041	0.0534	0.7665	0.038
Mof_C 	C 	0.8616	0.622	0.9682	0.135
Mof_C 	C 	0.8539	0.1978	0.8781	0.023
Mof_C 	C 	0.6094	0.3646	0.9979	-0.143
Mof_C 	C 	0.6582	0.4924	0.1247	-0.142
Mof_C 	C 	0.8937	0.2064	0.7445	0.019
Mof_C 	C 	0.2396	0.378	0.5318	0.132
Mof_C 	C 	0.9411	0.411	0.5547	-0.002
Mof_C 	C 	0.3419	0.1342	0.7951	-0.1
Mof_C 	C 	0.5744	0.7054	0.3449	0.29
Mof_C 	C 	0.3235	0.0386	0.6552	-0.102
Mof_C 	C 	0.4256	0.2946	0.6551	0.29
Mof_C 	C 	0.1461	0.8022	0.1219	0.023
Mof_C 	C 	0.7607	0.6222	0.967	-0.224
Mof_C 	C 	0.5735	0.5514	0.8969	-0.179
Mof_C 	C 	0.2917	0.1016	0.3498	-0.098
Mof_C 	C 	0.9449	0.3606	0.8618	0.296
Mof_C 	C 	0.1967	0.4996	0.1527	0.154
Mof_C 	C 	0.7393	0.5004	0.6333	0.075
Mof_C 	C 	0.7067	0.4998	0.8451	-0.262
Mof_C 	C 	0.8099	0.1016	0.8498	-0.098
Mof_C 	C 	0.3127	0.2064	0.2445	0.019
Mof_C 	C 	0.4157	0.3606	0.3618	0.297
Mof_C 	C 	0.2069	0.5002	0.6549	-0.262
Mof_C 	C 	0.5843	0.6394	0.6382	0.297
Mof_C 	C 	0.3439	0.1978	0.3781	0.023
Mof_C 	C 	0.3189	0.4418	0.0977	0.215
Mof_C 	C 	0.3906	0.6354	0.0021	-0.143
Mof_C 	C 	0.6103	0.7918	0.3135	-0.085
Mof_C 	C 	0.3767	0.2146	0.7674	0.022
Mof_C 	C 	0.6765	0.9614	0.3448	-0.102
Mof_C 	C 	0.4699	0.411	0.0547	-0.002
Mof_C 	C 	0.1815	0.7918	0.8135	-0.085
Mof_C 	C 	0.2393	0.3778	0.033	-0.224
Mof_C 	C 	0.1658	0.5076	0.3753	-0.144
Mof_C 	C 	0.1621	0.7854	0.7326	0.022
Mof_C 	C 	0.5301	0.589	0.9453	-0.002
Mof_C 	C 	0.8967	0.2538	0.8302	-0.089
Mof_C 	C 	0.2933	0.5002	0.1549	-0.262
Mof_C 	C 	0.7151	0.0386	0.1552	-0.101
Mof_C 	C 	0.7599	0.1196	0.1281	0.02
Mof_C 	C 	0.1901	0.8984	0.1502	-0.098
Mof_C 	C 	0.7431	0.8916	0.7876	-0.096
Mof_C 	C 	0.2849	0.9614	0.8448	-0.101
Mof_C 	C 	0.6429	0.7462	0.6698	-0.089
Mof_C 	C 	0.1033	0.7462	0.1698	-0.089
Mof_C 	C 	0.1385	0.3778	0.533	-0.225
Mof_C 	C 	0.9779	0.5514	0.3969	-0.18
Mof_C 	C 	0.157	0.5762	0.4382	0.083
Mof_C 	C 	0.8379	0.2146	0.2674	0.022
Mof_C 	C 	0.869	0.2946	0.1551	0.29
Mof_C 	C 	0.2389	0.4996	0.8667	0.074
Mof_C 	C 	0.6638	0.377	0.5082	0.092
Mof_C 	C 	0.2493	0.0534	0.2665	0.038
Mof_C 	C 	0.3897	0.2082	0.6865	-0.085
Mof_N 	N 	0.3453	0.5576	0.4288	-0.145
Mof_N 	N 	0.8832	0.5628	0.9091	-0.17
Mof_N 	N 	0.3204	0.4372	0.5909	-0.171
Mof_N 	N 	0.2123	0.5576	0.9288	-0.145
Mof_N 	N 	0.7877	0.4424	0.0712	-0.145
Mof_N 	N 	0.1168	0.4372	0.0909	-0.17
Mof_N 	N 	0.6547	0.4424	0.5712	-0.145
Mof_N 	N 	0.6796	0.5628	0.4091	-0.171
Mof_O 	O 	0.5405	0.6226	0.2867	-0.266
Mof_O 	O 	0.04866	0.59772	0.0603	-0.288
Mof_O 	O 	0.54906	0.59772	0.5603	-0.289
Mof_O 	O 	0.424	0.2838	0.5791	-0.285
Mof_O 	O 	0.42554	0.40628	0.3093	-0.271
Mof_O 	O 	0.1402	0.7162	0.9209	-0.286
Mof_O 	O 	0.0821	0.6226	0.7867	-0.266
Mof_O 	O 	0.9179	0.3774	0.2133	-0.266
Mof_O 	O 	0.8598	0.2838	0.0791	-0.286
Mof_O 	O 	0.4595	0.3774	0.7133	-0.266
Mof_O 	O 	0.576	0.7162	0.4209	-0.285
Mof_O 	O 	0.57446	0.59372	0.6907	-0.271
Mof_O 	O 	0.01926	0.59372	0.1907	-0.27
Mof_O 	O 	0.45094	0.40228	0.4397	-0.289
Mof_O 	O 	0.98074	0.40628	0.8093	-0.27
Mof_O 	O 	0.95134	0.40228	0.9397	-0.288
_end
