data_functionalizedCrystal
_audit_creation_method	'EQeq! by Chris Wilmer'
_symmetry_space_group_name_H-M	'P1'
_symmetry_Int_Tables_number	1
_symmetry_cell_setting	triclinic
loop_
_symmetry_equiv_pos_as_xyz
  x,y,z
_cell_length_a	22.623
_cell_length_b	22.623
_cell_length_c	22.623
_cell_angle_alpha	90
_cell_angle_beta	90
_cell_angle_gamma	90
loop_
_atom_site_label
_atom_site_type_symbol
_atom_site_fract_x
_atom_site_fract_y
_atom_site_fract_z
_atom_site_charge
Mof_O 	O 	0.2649	0.1132	0.2549	-0.754
Mof_O 	O 	0.3059	0.1563	0.1742	-0.711
Mof_C 	C 	0.3085	0.0536	0.1174	0.094
Mof_H 	H 	0.3109	0.0895	0.0975	-0.009
Mof_C 	C 	0.2956	0.0525	0.1751	-0.256
Mof_C 	C 	0.2864	0.1112	0.2064	0.589
Mof_O 	O 	0.7351	0.8868	0.2549	-0.753
Mof_O 	O 	0.6941	0.8437	0.1742	-0.711
Mof_C 	C 	0.6915	0.9464	0.1174	0.095
Mof_H 	H 	0.6891	0.9105	0.0975	-0.009
Mof_C 	C 	0.7044	0.9475	0.1751	-0.255
Mof_C 	C 	0.7136	0.8888	0.2064	0.589
Mof_O 	O 	0.7351	0.1132	0.7451	-0.754
Mof_O 	O 	0.6941	0.1563	0.8258	-0.711
Mof_C 	C 	0.6915	0.0536	0.8826	0.098
Mof_H 	H 	0.6891	0.0895	0.9025	-0.009
Mof_C 	C 	0.7044	0.0525	0.8249	-0.257
Mof_C 	C 	0.7136	0.1112	0.7936	0.59
Mof_O 	O 	0.2649	0.8868	0.7451	-0.752
Mof_O 	O 	0.3059	0.8437	0.8258	-0.71
Mof_C 	C 	0.3085	0.9464	0.8826	0.099
Mof_H 	H 	0.3109	0.9105	0.9025	-0.009
Mof_C 	C 	0.2956	0.9475	0.8249	-0.256
Mof_C 	C 	0.2864	0.8888	0.7936	0.59
Mof_O 	O 	0.2549	0.2649	0.1132	-0.753
Mof_O 	O 	0.1742	0.3059	0.1563	-0.71
Mof_C 	C 	0.1174	0.3085	0.0536	0.095
Mof_H 	H 	0.0975	0.3109	0.0895	-0.008
Mof_C 	C 	0.1751	0.2956	0.0525	-0.255
Mof_C 	C 	0.2064	0.2864	0.1112	0.59
Mof_O 	O 	0.2549	0.7351	0.8868	-0.752
Mof_O 	O 	0.1742	0.6941	0.8437	-0.71
Mof_C 	C 	0.1174	0.6915	0.9464	0.096
Mof_H 	H 	0.0975	0.6891	0.9105	-0.008
Mof_C 	C 	0.1751	0.7044	0.9475	-0.254
Mof_C 	C 	0.2064	0.7136	0.8888	0.59
Mof_O 	O 	0.7451	0.7351	0.1132	-0.753
Mof_O 	O 	0.8258	0.6941	0.1563	-0.71
Mof_C 	C 	0.8826	0.6915	0.0536	0.098
Mof_H 	H 	0.9025	0.6891	0.0895	-0.009
Mof_C 	C 	0.8249	0.7044	0.0525	-0.257
Mof_C 	C 	0.7936	0.7136	0.1112	0.59
Mof_O 	O 	0.7451	0.2649	0.8868	-0.752
Mof_O 	O 	0.8258	0.3059	0.8437	-0.71
Mof_C 	C 	0.8826	0.3085	0.9464	0.099
Mof_H 	H 	0.9025	0.3109	0.9105	-0.009
Mof_C 	C 	0.8249	0.2956	0.9475	-0.256
Mof_C 	C 	0.7936	0.2864	0.8888	0.59
Mof_O 	O 	0.1132	0.2549	0.2649	-0.753
Mof_O 	O 	0.1563	0.1742	0.3059	-0.71
Mof_C 	C 	0.0536	0.1174	0.3085	0.095
Mof_H 	H 	0.0895	0.0975	0.3109	-0.008
Mof_C 	C 	0.0525	0.1751	0.2956	-0.255
Mof_C 	C 	0.1112	0.2064	0.2864	0.59
Mof_O 	O 	0.8868	0.2549	0.7351	-0.752
Mof_O 	O 	0.8437	0.1742	0.6941	-0.71
Mof_C 	C 	0.9464	0.1174	0.6915	0.096
Mof_H 	H 	0.9105	0.0975	0.6891	-0.008
Mof_C 	C 	0.9475	0.1751	0.7044	-0.254
Mof_C 	C 	0.8888	0.2064	0.7136	0.59
Mof_O 	O 	0.1132	0.7451	0.7351	-0.753
Mof_O 	O 	0.1563	0.8258	0.6941	-0.71
Mof_C 	C 	0.0536	0.8826	0.6915	0.098
Mof_H 	H 	0.0895	0.9025	0.6891	-0.009
Mof_C 	C 	0.0525	0.8249	0.7044	-0.257
Mof_C 	C 	0.1112	0.7936	0.7136	0.59
Mof_O 	O 	0.8868	0.7451	0.2649	-0.752
Mof_O 	O 	0.8437	0.8258	0.3059	-0.71
Mof_C 	C 	0.9464	0.8826	0.3085	0.099
Mof_H 	H 	0.9105	0.9025	0.3109	-0.009
Mof_C 	C 	0.9475	0.8249	0.2956	-0.256
Mof_C 	C 	0.8888	0.7936	0.2864	0.59
Mof_O 	O 	0.6132	0.7649	0.2451	-0.753
Mof_O 	O 	0.6563	0.8059	0.3258	-0.71
Mof_C 	C 	0.5536	0.8085	0.3826	0.096
Mof_H 	H 	0.5895	0.8109	0.4025	-0.008
Mof_C 	C 	0.5525	0.7956	0.3249	-0.257
Mof_C 	C 	0.6112	0.7864	0.2936	0.59
Mof_O 	O 	0.3868	0.2351	0.2451	-0.753
Mof_O 	O 	0.3437	0.1941	0.3258	-0.71
Mof_C 	C 	0.4464	0.1915	0.3826	0.096
Mof_H 	H 	0.4105	0.1891	0.4025	-0.009
Mof_C 	C 	0.4475	0.2044	0.3249	-0.257
Mof_C 	C 	0.3888	0.2136	0.2936	0.59
Mof_O 	O 	0.6132	0.2351	0.7549	-0.753
Mof_O 	O 	0.6563	0.1941	0.6742	-0.71
Mof_C 	C 	0.5536	0.1915	0.6174	0.096
Mof_H 	H 	0.5895	0.1891	0.5975	-0.009
Mof_C 	C 	0.5525	0.2044	0.6751	-0.257
Mof_C 	C 	0.6112	0.2136	0.7064	0.59
Mof_O 	O 	0.3868	0.7649	0.7549	-0.753
Mof_O 	O 	0.3437	0.8059	0.6742	-0.71
Mof_C 	C 	0.4464	0.8085	0.6174	0.096
Mof_H 	H 	0.4105	0.8109	0.5975	-0.008
Mof_C 	C 	0.4475	0.7956	0.6751	-0.256
Mof_C 	C 	0.3888	0.7864	0.7064	0.59
Mof_O 	O 	0.7649	0.7549	0.3868	-0.753
Mof_O 	O 	0.8059	0.6742	0.3437	-0.71
Mof_C 	C 	0.8085	0.6174	0.4464	0.096
Mof_H 	H 	0.8109	0.5975	0.4105	-0.008
Mof_C 	C 	0.7956	0.6751	0.4475	-0.256
Mof_C 	C 	0.7864	0.7064	0.3888	0.59
Mof_O 	O 	0.2351	0.7549	0.6132	-0.753
Mof_O 	O 	0.1941	0.6742	0.6563	-0.71
Mof_C 	C 	0.1915	0.6174	0.5536	0.096
Mof_H 	H 	0.1891	0.5975	0.5895	-0.009
Mof_C 	C 	0.2044	0.6751	0.5525	-0.257
Mof_C 	C 	0.2136	0.7064	0.6112	0.59
Mof_O 	O 	0.2351	0.2451	0.3868	-0.753
Mof_O 	O 	0.1941	0.3258	0.3437	-0.71
Mof_C 	C 	0.1915	0.3826	0.4464	0.096
Mof_H 	H 	0.1891	0.4025	0.4105	-0.009
Mof_C 	C 	0.2044	0.3249	0.4475	-0.257
Mof_C 	C 	0.2136	0.2936	0.3888	0.59
Mof_O 	O 	0.7649	0.2451	0.6132	-0.753
Mof_O 	O 	0.8059	0.3258	0.6563	-0.71
Mof_C 	C 	0.8085	0.3826	0.5536	0.096
Mof_H 	H 	0.8109	0.4025	0.5895	-0.008
Mof_C 	C 	0.7956	0.3249	0.5525	-0.257
Mof_C 	C 	0.7864	0.2936	0.6112	0.59
Mof_O 	O 	0.7549	0.6132	0.2351	-0.753
Mof_O 	O 	0.6742	0.6563	0.1941	-0.71
Mof_C 	C 	0.6174	0.5536	0.1915	0.096
Mof_H 	H 	0.5975	0.5895	0.1891	-0.009
Mof_C 	C 	0.6751	0.5525	0.2044	-0.257
Mof_C 	C 	0.7064	0.6112	0.2136	0.59
Mof_O 	O 	0.7549	0.3868	0.7649	-0.753
Mof_O 	O 	0.6742	0.3437	0.8059	-0.71
Mof_C 	C 	0.6174	0.4464	0.8085	0.096
Mof_H 	H 	0.5975	0.4105	0.8109	-0.008
Mof_C 	C 	0.6751	0.4475	0.7956	-0.256
Mof_C 	C 	0.7064	0.3888	0.7864	0.59
Mof_O 	O 	0.2451	0.6132	0.7649	-0.753
Mof_O 	O 	0.3258	0.6563	0.8059	-0.71
Mof_C 	C 	0.3826	0.5536	0.8085	0.096
Mof_H 	H 	0.4025	0.5895	0.8109	-0.008
Mof_C 	C 	0.3249	0.5525	0.7956	-0.257
Mof_C 	C 	0.2936	0.6112	0.7864	0.59
Mof_O 	O 	0.2451	0.3868	0.2351	-0.753
Mof_O 	O 	0.3258	0.3437	0.1941	-0.71
Mof_C 	C 	0.3826	0.4464	0.1915	0.096
Mof_H 	H 	0.4025	0.4105	0.1891	-0.009
Mof_C 	C 	0.3249	0.4475	0.2044	-0.257
Mof_C 	C 	0.2936	0.3888	0.2136	0.59
Mof_O 	O 	0.7351	0.8868	0.7451	-0.752
Mof_O 	O 	0.6941	0.8437	0.8258	-0.71
Mof_C 	C 	0.6915	0.9464	0.8826	0.099
Mof_H 	H 	0.6891	0.9105	0.9025	-0.009
Mof_C 	C 	0.7044	0.9475	0.8249	-0.256
Mof_C 	C 	0.7136	0.8888	0.7936	0.59
Mof_O 	O 	0.2649	0.1132	0.7451	-0.753
Mof_O 	O 	0.3059	0.1563	0.8258	-0.71
Mof_C 	C 	0.3085	0.0536	0.8826	0.098
Mof_H 	H 	0.3109	0.0895	0.9025	-0.009
Mof_C 	C 	0.2956	0.0525	0.8249	-0.257
Mof_C 	C 	0.2864	0.1112	0.7936	0.59
Mof_O 	O 	0.2649	0.8868	0.2549	-0.752
Mof_O 	O 	0.3059	0.8437	0.1742	-0.71
Mof_C 	C 	0.3085	0.9464	0.1174	0.096
Mof_H 	H 	0.3109	0.9105	0.0975	-0.009
Mof_C 	C 	0.2956	0.9475	0.1751	-0.254
Mof_C 	C 	0.2864	0.8888	0.2064	0.59
Mof_O 	O 	0.7351	0.1132	0.2549	-0.753
Mof_O 	O 	0.6941	0.1563	0.1742	-0.71
Mof_C 	C 	0.6915	0.0536	0.1174	0.095
Mof_H 	H 	0.6891	0.0895	0.0975	-0.008
Mof_C 	C 	0.7044	0.0525	0.1751	-0.255
Mof_C 	C 	0.7136	0.1112	0.2064	0.59
Mof_O 	O 	0.7451	0.7351	0.8868	-0.752
Mof_O 	O 	0.8258	0.6941	0.8437	-0.71
Mof_C 	C 	0.8826	0.6915	0.9464	0.099
Mof_H 	H 	0.9025	0.6891	0.9105	-0.009
Mof_C 	C 	0.8249	0.7044	0.9475	-0.256
Mof_C 	C 	0.7936	0.7136	0.8888	0.59
Mof_O 	O 	0.7451	0.2649	0.1132	-0.753
Mof_O 	O 	0.8258	0.3059	0.1563	-0.71
Mof_C 	C 	0.8826	0.3085	0.0536	0.098
Mof_H 	H 	0.9025	0.3109	0.0895	-0.009
Mof_C 	C 	0.8249	0.2956	0.0525	-0.257
Mof_C 	C 	0.7936	0.2864	0.1112	0.59
Mof_O 	O 	0.2549	0.2649	0.8868	-0.752
Mof_O 	O 	0.1742	0.3059	0.8437	-0.71
Mof_C 	C 	0.1174	0.3085	0.9464	0.096
Mof_H 	H 	0.0975	0.3109	0.9105	-0.009
Mof_C 	C 	0.1751	0.2956	0.9475	-0.254
Mof_C 	C 	0.2064	0.2864	0.8888	0.59
Mof_O 	O 	0.2549	0.7351	0.1132	-0.753
Mof_O 	O 	0.1742	0.6941	0.1563	-0.71
Mof_C 	C 	0.1174	0.6915	0.0536	0.095
Mof_H 	H 	0.0975	0.6891	0.0895	-0.008
Mof_C 	C 	0.1751	0.7044	0.0525	-0.255
Mof_C 	C 	0.2064	0.7136	0.1112	0.59
Mof_O 	O 	0.8868	0.7451	0.7351	-0.752
Mof_O 	O 	0.8437	0.8258	0.6941	-0.71
Mof_C 	C 	0.9464	0.8826	0.6915	0.099
Mof_H 	H 	0.9105	0.9025	0.6891	-0.009
Mof_C 	C 	0.9475	0.8249	0.7044	-0.256
Mof_C 	C 	0.8888	0.7936	0.7136	0.59
Mof_O 	O 	0.1132	0.7451	0.2649	-0.753
Mof_O 	O 	0.1563	0.8258	0.3059	-0.71
Mof_C 	C 	0.0536	0.8826	0.3085	0.098
Mof_H 	H 	0.0895	0.9025	0.3109	-0.009
Mof_C 	C 	0.0525	0.8249	0.2956	-0.257
Mof_C 	C 	0.1112	0.7936	0.2864	0.59
Mof_O 	O 	0.8868	0.2549	0.2649	-0.752
Mof_O 	O 	0.8437	0.1742	0.3059	-0.71
Mof_C 	C 	0.9464	0.1174	0.3085	0.096
Mof_H 	H 	0.9105	0.0975	0.3109	-0.009
Mof_C 	C 	0.9475	0.1751	0.2956	-0.254
Mof_C 	C 	0.8888	0.2064	0.2864	0.59
Mof_O 	O 	0.1132	0.2549	0.7351	-0.753
Mof_O 	O 	0.1563	0.1742	0.6941	-0.71
Mof_C 	C 	0.0536	0.1174	0.6915	0.095
Mof_H 	H 	0.0895	0.0975	0.6891	-0.008
Mof_C 	C 	0.0525	0.1751	0.7044	-0.255
Mof_C 	C 	0.1112	0.2064	0.7136	0.59
Mof_O 	O 	0.3868	0.2351	0.7549	-0.753
Mof_O 	O 	0.3437	0.1941	0.6742	-0.71
Mof_C 	C 	0.4464	0.1915	0.6174	0.096
Mof_H 	H 	0.4105	0.1891	0.5975	-0.009
Mof_C 	C 	0.4475	0.2044	0.6751	-0.257
Mof_C 	C 	0.3888	0.2136	0.7064	0.59
Mof_O 	O 	0.6132	0.7649	0.7549	-0.753
Mof_O 	O 	0.6563	0.8059	0.6742	-0.71
Mof_C 	C 	0.5536	0.8085	0.6174	0.096
Mof_H 	H 	0.5895	0.8109	0.5975	-0.008
Mof_C 	C 	0.5525	0.7956	0.6751	-0.256
Mof_C 	C 	0.6112	0.7864	0.7064	0.59
Mof_O 	O 	0.3868	0.7649	0.2451	-0.753
Mof_O 	O 	0.3437	0.8059	0.3258	-0.71
Mof_C 	C 	0.4464	0.8085	0.3826	0.096
Mof_H 	H 	0.4105	0.8109	0.4025	-0.008
Mof_C 	C 	0.4475	0.7956	0.3249	-0.256
Mof_C 	C 	0.3888	0.7864	0.2936	0.59
Mof_O 	O 	0.6132	0.2351	0.2451	-0.753
Mof_O 	O 	0.6563	0.1941	0.3258	-0.71
Mof_C 	C 	0.5536	0.1915	0.3826	0.096
Mof_H 	H 	0.5895	0.1891	0.4025	-0.009
Mof_C 	C 	0.5525	0.2044	0.3249	-0.257
Mof_C 	C 	0.6112	0.2136	0.2936	0.59
Mof_O 	O 	0.2351	0.2451	0.6132	-0.753
Mof_O 	O 	0.1941	0.3258	0.6563	-0.71
Mof_C 	C 	0.1915	0.3826	0.5536	0.096
Mof_H 	H 	0.1891	0.4025	0.5895	-0.009
Mof_C 	C 	0.2044	0.3249	0.5525	-0.257
Mof_C 	C 	0.2136	0.2936	0.6112	0.59
Mof_O 	O 	0.7649	0.2451	0.3868	-0.753
Mof_O 	O 	0.8059	0.3258	0.3437	-0.71
Mof_C 	C 	0.8085	0.3826	0.4464	0.096
Mof_H 	H 	0.8109	0.4025	0.4105	-0.008
Mof_C 	C 	0.7956	0.3249	0.4475	-0.256
Mof_C 	C 	0.7864	0.2936	0.3888	0.59
Mof_O 	O 	0.7649	0.7549	0.6132	-0.753
Mof_O 	O 	0.8059	0.6742	0.6563	-0.71
Mof_C 	C 	0.8085	0.6174	0.5536	0.096
Mof_H 	H 	0.8109	0.5975	0.5895	-0.008
Mof_C 	C 	0.7956	0.6751	0.5525	-0.256
Mof_C 	C 	0.7864	0.7064	0.6112	0.59
Mof_O 	O 	0.2351	0.7549	0.3868	-0.753
Mof_O 	O 	0.1941	0.6742	0.3437	-0.71
Mof_C 	C 	0.1915	0.6174	0.4464	0.096
Mof_H 	H 	0.1891	0.5975	0.4105	-0.009
Mof_C 	C 	0.2044	0.6751	0.4475	-0.257
Mof_C 	C 	0.2136	0.7064	0.3888	0.59
Mof_O 	O 	0.2451	0.3868	0.7649	-0.753
Mof_O 	O 	0.3258	0.3437	0.8059	-0.71
Mof_C 	C 	0.3826	0.4464	0.8085	0.096
Mof_H 	H 	0.4025	0.4105	0.8109	-0.008
Mof_C 	C 	0.3249	0.4475	0.7956	-0.256
Mof_C 	C 	0.2936	0.3888	0.7864	0.59
Mof_O 	O 	0.2451	0.6132	0.2351	-0.753
Mof_O 	O 	0.3258	0.6563	0.1941	-0.71
Mof_C 	C 	0.3826	0.5536	0.1915	0.096
Mof_H 	H 	0.4025	0.5895	0.1891	-0.009
Mof_C 	C 	0.3249	0.5525	0.2044	-0.257
Mof_C 	C 	0.2936	0.6112	0.2136	0.59
Mof_O 	O 	0.7549	0.3868	0.2351	-0.753
Mof_O 	O 	0.6742	0.3437	0.1941	-0.71
Mof_C 	C 	0.6174	0.4464	0.1915	0.096
Mof_H 	H 	0.5975	0.4105	0.1891	-0.009
Mof_C 	C 	0.6751	0.4475	0.2044	-0.257
Mof_C 	C 	0.7064	0.3888	0.2136	0.59
Mof_O 	O 	0.7549	0.6132	0.7649	-0.753
Mof_O 	O 	0.6742	0.6563	0.8059	-0.71
Mof_C 	C 	0.6174	0.5536	0.8085	0.096
Mof_H 	H 	0.5975	0.5895	0.8109	-0.008
Mof_C 	C 	0.6751	0.5525	0.7956	-0.256
Mof_C 	C 	0.7064	0.6112	0.7864	0.59
Mof_In	In	0.25	0.18633	0.31367	2.488
Mof_In	In	0.75	0.81367	0.31367	2.49
Mof_In	In	0.75	0.18633	0.68633	2.489
Mof_In	In	0.25	0.81367	0.68633	2.489
Mof_In	In	0.31367	0.25	0.18633	2.488
Mof_In	In	0.31367	0.75	0.81367	2.49
Mof_In	In	0.68633	0.75	0.18633	2.489
Mof_In	In	0.68633	0.25	0.81367	2.489
Mof_In	In	0.18633	0.31367	0.25	2.488
Mof_In	In	0.81367	0.31367	0.75	2.49
Mof_In	In	0.18633	0.68633	0.75	2.489
Mof_In	In	0.81367	0.68633	0.25	2.489
Mof_In	In	0.75	0.81367	0.68633	2.49
Mof_In	In	0.25	0.18633	0.68633	2.489
Mof_In	In	0.25	0.81367	0.31367	2.489
Mof_In	In	0.75	0.18633	0.31367	2.489
Mof_In	In	0.68633	0.75	0.81367	2.49
Mof_In	In	0.68633	0.25	0.18633	2.489
Mof_In	In	0.31367	0.25	0.81367	2.489
Mof_In	In	0.31367	0.75	0.18633	2.489
Mof_In	In	0.81367	0.68633	0.75	2.49
Mof_In	In	0.18633	0.68633	0.25	2.489
Mof_In	In	0.81367	0.31367	0.25	2.489
Mof_In	In	0.18633	0.31367	0.75	2.489
Mof_O 	O 	0.25	0.25	0.25	-1.31
Mof_O 	O 	0.75	0.75	0.25	-1.31
Mof_O 	O 	0.75	0.25	0.75	-1.31
Mof_O 	O 	0.25	0.75	0.75	-1.31
Mof_O 	O 	0.75	0.75	0.75	-1.31
Mof_O 	O 	0.25	0.25	0.75	-1.31
Mof_O 	O 	0.25	0.75	0.25	-1.31
Mof_O 	O 	0.75	0.25	0.25	-1.31
Mof_C 	C 	0.3187	1.09011e-33	0.0867	-0.087
Mof_C 	C 	0.2865	2.18022e-33	0.2055	0.17
Mof_H 	H 	0.2746	2.18022e-33	0.2448	-0.039
Mof_C 	C 	0.3307	0	0.0256	-0.02
Mof_C 	C 	0.6813	1.09011e-33	0.0867	-0.087
Mof_C 	C 	0.7135	2.18022e-33	0.2055	0.17
Mof_H 	H 	0.7254	2.18022e-33	0.2448	-0.039
Mof_C 	C 	0.6693	0	0.0256	-0.02
Mof_C 	C 	0.6813	-8.72087e-33	0.9133	-0.091
Mof_C 	C 	0.7135	8.72087e-33	0.7945	0.172
Mof_H 	H 	0.7254	0	0.7552	-0.039
Mof_C 	C 	0.6693	0	0.9744	-0.011
Mof_C 	C 	0.3187	-8.72087e-33	0.9133	-0.091
Mof_C 	C 	0.2865	8.72087e-33	0.7945	0.172
Mof_H 	H 	0.2746	0	0.7552	-0.039
Mof_C 	C 	0.3307	0	0.9744	-0.011
Mof_C 	C 	0.0867	0.3187	-0	-0.087
Mof_C 	C 	0.2055	0.2865	-0	0.17
Mof_H 	H 	0.2448	0.2746	-0	-0.039
Mof_C 	C 	0.0256	0.3307	-0	-0.02
Mof_C 	C 	0.0867	0.6813	-0	-0.087
Mof_C 	C 	0.2055	0.7135	-0	0.17
Mof_H 	H 	0.2448	0.7254	-0	-0.039
Mof_C 	C 	0.0256	0.6693	-0	-0.02
Mof_C 	C 	0.9133	0.6813	-0	-0.091
Mof_C 	C 	0.7945	0.7135	-0	0.172
Mof_H 	H 	0.7552	0.7254	-0	-0.039
Mof_C 	C 	0.9744	0.6693	-0	-0.011
Mof_C 	C 	0.9133	0.3187	-0	-0.091
Mof_C 	C 	0.7945	0.2865	-0	0.172
Mof_H 	H 	0.7552	0.2746	-0	-0.039
Mof_C 	C 	0.9744	0.3307	-0	-0.011
Mof_C 	C 	-9.85284e-34	0.0867	0.3187	-0.087
Mof_C 	C 	1.0742e-33	0.2055	0.2865	0.17
Mof_H 	H 	-1.15063e-33	0.2448	0.2746	-0.039
Mof_C 	C 	1.23993e-33	0.0256	0.3307	-0.02
Mof_C 	C 	1.12753e-32	0.0867	0.6813	-0.087
Mof_C 	C 	-1.47665e-32	0.2055	0.7135	0.17
Mof_H 	H 	2.71981e-33	0.2448	0.7254	-0.039
Mof_C 	C 	2.50947e-33	0.0256	0.6693	-0.02
Mof_C 	C 	2.55447e-33	0.9133	0.6813	-0.091
Mof_C 	C 	-6.04567e-33	0.7945	0.7135	0.172
Mof_H 	H 	2.71981e-33	0.7552	0.7254	-0.039
Mof_C 	C 	2.50947e-33	0.9744	0.6693	-0.011
Mof_C 	C 	-1.18864e-32	0.9133	0.3187	-0.091
Mof_C 	C 	-3.28623e-33	0.7945	0.2865	0.172
Mof_H 	H 	-3.33085e-33	0.7552	0.2746	-0.039
Mof_C 	C 	9.9608e-33	0.9744	0.3307	-0.011
Mof_C 	C 	0.5	0.8187	0.4133	-0.087
Mof_C 	C 	0.5	0.7865	0.2945	0.174
Mof_H 	H 	0.5	0.7746	0.2552	-0.039
Mof_C 	C 	0.5	0.8307	0.4744	-0.015
Mof_C 	C 	0.5	0.1813	0.4133	-0.087
Mof_C 	C 	0.5	0.2135	0.2945	0.174
Mof_H 	H 	0.5	0.2254	0.2552	-0.039
Mof_C 	C 	0.5	0.1693	0.4744	-0.015
Mof_C 	C 	0.5	0.1813	0.5867	-0.087
Mof_C 	C 	0.5	0.2135	0.7055	0.173
Mof_H 	H 	0.5	0.2254	0.7448	-0.039
Mof_C 	C 	0.5	0.1693	0.5256	-0.016
Mof_C 	C 	0.5	0.8187	0.5867	-0.087
Mof_C 	C 	0.5	0.7865	0.7055	0.173
Mof_H 	H 	0.5	0.7746	0.7448	-0.039
Mof_C 	C 	0.5	0.8307	0.5256	-0.015
Mof_C 	C 	0.8187	0.5867	0.5	-0.087
Mof_C 	C 	0.7865	0.7055	0.5	0.173
Mof_H 	H 	0.7746	0.7448	0.5	-0.039
Mof_C 	C 	0.8307	0.5256	0.5	-0.015
Mof_C 	C 	0.1813	0.5867	0.5	-0.087
Mof_C 	C 	0.2135	0.7055	0.5	0.173
Mof_H 	H 	0.2254	0.7448	0.5	-0.039
Mof_C 	C 	0.1693	0.5256	0.5	-0.016
Mof_C 	C 	0.1813	0.4133	0.5	-0.087
Mof_C 	C 	0.2135	0.2945	0.5	0.174
Mof_H 	H 	0.2254	0.2552	0.5	-0.039
Mof_C 	C 	0.1693	0.4744	0.5	-0.015
Mof_C 	C 	0.8187	0.4133	0.5	-0.087
Mof_C 	C 	0.7865	0.2945	0.5	0.174
Mof_H 	H 	0.7746	0.2552	0.5	-0.039
Mof_C 	C 	0.8307	0.4744	0.5	-0.015
Mof_C 	C 	0.5867	0.5	0.1813	-0.087
Mof_C 	C 	0.7055	0.5	0.2135	0.173
Mof_H 	H 	0.7448	0.5	0.2254	-0.039
Mof_C 	C 	0.5256	0.5	0.1693	-0.016
Mof_C 	C 	0.5867	0.5	0.8187	-0.087
Mof_C 	C 	0.7055	0.5	0.7865	0.173
Mof_H 	H 	0.7448	0.5	0.7746	-0.039
Mof_C 	C 	0.5256	0.5	0.8307	-0.015
Mof_C 	C 	0.4133	0.5	0.8187	-0.087
Mof_C 	C 	0.2945	0.5	0.7865	0.174
Mof_H 	H 	0.2552	0.5	0.7746	-0.039
Mof_C 	C 	0.4744	0.5	0.8307	-0.015
Mof_C 	C 	0.4133	0.5	0.1813	-0.087
Mof_C 	C 	0.2945	0.5	0.2135	0.174
Mof_H 	H 	0.2552	0.5	0.2254	-0.039
Mof_C 	C 	0.4744	0.5	0.1693	-0.015
_end
