data_functionalizedCrystal
_audit_creation_method	'EQeq! by Chris Wilmer'
_symmetry_space_group_name_H-M	'P1'
_symmetry_Int_Tables_number	1
_symmetry_cell_setting	triclinic
loop_
_symmetry_equiv_pos_as_xyz
  x,y,z
_cell_length_a	16.2644
_cell_length_b	16.2644
_cell_length_c	30.563
_cell_angle_alpha	90
_cell_angle_beta	90
_cell_angle_gamma	90
loop_
_atom_site_label
_atom_site_type_symbol
_atom_site_fract_x
_atom_site_fract_y
_atom_site_fract_z
_atom_site_charge
Mof_Zn	Zn	0.13804	0.09021	0.70367	1.217
Mof_Zn	Zn	0.37579	0.38783	0.60042	1.228
Mof_Zn	Zn	0.59021	0.63804	0.79633	1.217
Mof_Zn	Zn	0.88783	0.62421	0.39958	1.228
Mof_Zn	Zn	0.88783	0.87579	0.89958	1.228
Mof_Zn	Zn	0.36196	0.09021	0.20367	1.217
Mof_Zn	Zn	0.13804	0.40979	0.20367	1.217
Mof_Zn	Zn	0.63804	0.59021	0.29633	1.217
Mof_Zn	Zn	0.09021	0.13804	0.20367	1.217
Mof_Zn	Zn	0.61217	0.87579	0.39958	1.228
Mof_Zn	Zn	0.61217	0.62421	0.89958	1.228
Mof_Zn	Zn	0.12421	0.38783	0.10042	1.228
Mof_Zn	Zn	0.40979	0.13804	0.70367	1.217
Mof_Zn	Zn	0.62421	0.88783	0.89958	1.228
Mof_Zn	Zn	0.87579	0.61217	0.89958	1.228
Mof_Zn	Zn	0.11217	0.12421	0.10042	1.228
Mof_Zn	Zn	0.36196	0.40979	0.70367	1.217
Mof_Zn	Zn	0.86196	0.90979	0.29633	1.217
Mof_Zn	Zn	0.38783	0.37579	0.10042	1.228
Mof_Zn	Zn	0.86196	0.59021	0.79633	1.217
Mof_Zn	Zn	0.38783	0.12421	0.60042	1.228
Mof_Zn	Zn	0.59021	0.86196	0.29633	1.217
Mof_Zn	Zn	0.09021	0.36196	0.70367	1.217
Mof_Zn	Zn	0.37579	0.11217	0.10042	1.228
Mof_Zn	Zn	0.90979	0.63804	0.29633	1.217
Mof_Zn	Zn	0.11217	0.37579	0.60042	1.228
Mof_Zn	Zn	0.40979	0.36196	0.20367	1.217
Mof_Zn	Zn	0.62421	0.61217	0.39958	1.228
Mof_Zn	Zn	0.87579	0.88783	0.39958	1.228
Mof_Zn	Zn	0.12421	0.11217	0.60042	1.228
Mof_Zn	Zn	0.63804	0.90979	0.79633	1.217
Mof_Zn	Zn	0.90979	0.86196	0.79633	1.217
Mof_H 	H 	0.14	0.2285	0.1505	0.275
Mof_H 	H 	0.9396	0.6909	0.1564	0.051
Mof_H 	H 	0.4822	0.8855	0.5891	0.045
Mof_H 	H 	0.8179	0.9423	0.5331	0.051
Mof_H 	H 	0.8928	0.5028	0.472	0.021
Mof_H 	H 	0.5988	0.9865	0.2189	0.027
Mof_H 	H 	0.1145	0.9822	0.4109	0.045
Mof_H 	H 	0.4489	0.9629	0.462	0.06
Mof_H 	H 	0.1246	0.5205	0.3977	0.049
Mof_H 	H 	0.9012	0.5135	0.2189	0.027
Mof_H 	H 	0.4795	0.8754	0.1023	0.049
Mof_H 	H 	0.5028	0.6072	0.472	0.021
Mof_H 	H 	0.0135	0.0988	0.7811	0.027
Mof_H 	H 	0.0988	0.4865	0.7811	0.027
Mof_H 	H 	0.0511	0.9629	0.962	0.06
Mof_H 	H 	0.5135	0.9012	0.7189	0.027
Mof_H 	H 	0.5135	0.5988	0.2189	0.027
Mof_H 	H 	0.7715	0.86	0.3495	0.275
Mof_H 	H 	0.3091	0.4396	0.8436	0.051
Mof_H 	H 	0.4423	0.1821	0.4669	0.051
Mof_H 	H 	0.9396	0.8091	0.6564	0.052
Mof_H 	H 	0.3179	0.4423	0.4669	0.051
Mof_H 	H 	0.4795	0.6246	0.6023	0.049
Mof_H 	H 	0.9489	0.0371	0.038	0.06
Mof_H 	H 	0.9822	0.1145	0.9109	0.045
Mof_H 	H 	0.0371	0.5511	0.038	0.06
Mof_H 	H 	0.6072	0.5028	0.972	0.021
Mof_H 	H 	0.9629	0.0511	0.462	0.06
Mof_H 	H 	0.86	0.7285	0.3495	0.275
Mof_H 	H 	0.4629	0.5511	0.538	0.06
Mof_H 	H 	0.1821	0.0577	0.4669	0.051
Mof_H 	H 	0.8179	0.5577	0.0331	0.051
Mof_H 	H 	0.5988	0.5135	0.7189	0.027
Mof_H 	H 	0.36	0.2715	0.1505	0.275
Mof_H 	H 	0.0205	0.8754	0.6023	0.048
Mof_H 	H 	0.8855	0.0178	0.5891	0.045
Mof_H 	H 	0.0028	0.1072	0.528	0.02
Mof_H 	H 	0.5577	0.8179	0.5331	0.051
Mof_H 	H 	0.5371	0.4489	0.462	0.06
Mof_H 	H 	0.4396	0.1909	0.8436	0.051
Mof_H 	H 	0.8091	0.5604	0.6564	0.051
Mof_H 	H 	0.9795	0.3754	0.8977	0.049
Mof_H 	H 	0.14	0.2715	0.6505	0.275
Mof_H 	H 	0.1072	0.0028	0.028	0.02
Mof_H 	H 	0.6072	0.9972	0.472	0.02
Mof_H 	H 	0.2285	0.14	0.6505	0.275
Mof_H 	H 	0.2715	0.36	0.6505	0.275
Mof_H 	H 	0.6821	0.5577	0.5331	0.051
Mof_H 	H 	0.6246	0.4795	0.1023	0.049
Mof_H 	H 	0.0178	0.8855	0.0891	0.045
Mof_H 	H 	0.3855	0.9822	0.9109	0.046
Mof_H 	H 	0.5511	0.4629	0.038	0.059
Mof_H 	H 	0.9972	0.6072	0.972	0.02
Mof_H 	H 	0.4972	0.3928	0.528	0.021
Mof_H 	H 	0.0028	0.3928	0.028	0.02
Mof_H 	H 	0.0577	0.3179	0.4669	0.051
Mof_H 	H 	0.5205	0.1246	0.8977	0.049
Mof_H 	H 	0.9972	0.8928	0.472	0.02
Mof_H 	H 	0.9423	0.8179	0.0331	0.051
Mof_H 	H 	0.5028	0.8928	0.972	0.021
Mof_H 	H 	0.9795	0.1246	0.3977	0.048
Mof_H 	H 	0.1909	0.0604	0.8436	0.051
Mof_H 	H 	0.5604	0.8091	0.1564	0.051
Mof_H 	H 	0.7715	0.64	0.8495	0.275
Mof_H 	H 	0.4972	0.1072	0.028	0.021
Mof_H 	H 	0.9629	0.4489	0.962	0.06
Mof_H 	H 	0.3091	0.0604	0.3436	0.051
Mof_H 	H 	0.9423	0.6821	0.5331	0.051
Mof_H 	H 	0.5511	0.0371	0.538	0.06
Mof_H 	H 	0.0988	0.0135	0.2811	0.026
Mof_H 	H 	0.1821	0.4423	0.9669	0.051
Mof_H 	H 	0.64	0.7715	0.3495	0.275
Mof_H 	H 	0.36	0.2285	0.6505	0.275
Mof_H 	H 	0.5577	0.6821	0.0331	0.051
Mof_H 	H 	0.4012	0.0135	0.7811	0.027
Mof_H 	H 	0.4629	0.9489	0.038	0.059
Mof_H 	H 	0.3754	0.9795	0.3977	0.049
Mof_H 	H 	0.0135	0.4012	0.2811	0.027
Mof_H 	H 	0.2715	0.14	0.1505	0.275
Mof_H 	H 	0.9822	0.3855	0.4109	0.046
Mof_H 	H 	0.5178	0.1145	0.4109	0.045
Mof_H 	H 	0.7285	0.64	0.3495	0.275
Mof_H 	H 	0.6909	0.9396	0.6564	0.051
Mof_H 	H 	0.9012	0.9865	0.7189	0.026
Mof_H 	H 	0.4396	0.3091	0.3436	0.051
Mof_H 	H 	0.86	0.7715	0.8495	0.275
Mof_H 	H 	0.9865	0.9012	0.2189	0.027
Mof_H 	H 	0.3754	0.5205	0.8977	0.049
Mof_H 	H 	0.0604	0.3091	0.8436	0.051
Mof_H 	H 	0.8754	0.0205	0.1023	0.048
Mof_H 	H 	0.1072	0.4972	0.528	0.021
Mof_H 	H 	0.3928	0.4972	0.028	0.021
Mof_H 	H 	0.1145	0.5178	0.9109	0.045
Mof_H 	H 	0.9865	0.5988	0.7189	0.027
Mof_H 	H 	0.0371	0.9489	0.538	0.06
Mof_H 	H 	0.8091	0.9396	0.1564	0.051
Mof_H 	H 	0.8754	0.4795	0.6023	0.049
Mof_H 	H 	0.0178	0.6145	0.5891	0.046
Mof_H 	H 	0.64	0.7285	0.8495	0.275
Mof_H 	H 	0.2285	0.36	0.1505	0.275
Mof_H 	H 	0.0577	0.1821	0.9669	0.051
Mof_H 	H 	0.3928	0.0028	0.528	0.02
Mof_H 	H 	0.5178	0.3855	0.9109	0.045
Mof_H 	H 	0.0604	0.1909	0.3436	0.052
Mof_H 	H 	0.6821	0.9423	0.0331	0.051
Mof_H 	H 	0.0205	0.6246	0.1023	0.049
Mof_H 	H 	0.3855	0.5178	0.4109	0.045
Mof_H 	H 	0.7285	0.86	0.8495	0.275
Mof_H 	H 	0.8855	0.4822	0.0891	0.045
Mof_H 	H 	0.4489	0.5371	0.962	0.059
Mof_H 	H 	0.6246	0.0205	0.6023	0.049
Mof_H 	H 	0.4865	0.4012	0.7811	0.027
Mof_H 	H 	0.1909	0.4396	0.3436	0.051
Mof_H 	H 	0.5604	0.6909	0.6564	0.051
Mof_H 	H 	0.3179	0.0577	0.9669	0.051
Mof_H 	H 	0.4423	0.3179	0.9669	0.051
Mof_H 	H 	0.6145	0.0178	0.0891	0.046
Mof_H 	H 	0.4012	0.4865	0.2811	0.027
Mof_H 	H 	0.8928	0.9972	0.972	0.02
Mof_H 	H 	0.4822	0.6145	0.0891	0.045
Mof_H 	H 	0.9489	0.4629	0.538	0.059
Mof_H 	H 	0.5371	0.0511	0.962	0.059
Mof_H 	H 	0.6145	0.4822	0.5891	0.045
Mof_H 	H 	0.1246	0.9795	0.8977	0.048
Mof_H 	H 	0.5205	0.3754	0.3977	0.049
Mof_H 	H 	0.4865	0.0988	0.2811	0.027
Mof_H 	H 	0.6909	0.5604	0.1564	0.051
Mof_H 	H 	0.0511	0.5371	0.462	0.059
Mof_C 	C 	0.6289	0.983	0.1931	0.055
Mof_C 	C 	0.5921	0.0066	0.1536	-0.12
Mof_C 	C 	0.0028	0.6387	0.6155	-0.005
Mof_C 	C 	0.455	0.2541	0.3446	-0.008
Mof_C 	C 	0.0385	0.2641	0.4657	-0.012
Mof_C 	C 	0.3617	0.0054	0.5025	0.019
Mof_C 	C 	0.9972	0.1387	0.8845	-0.006
Mof_C 	C 	0.4552	0.2074	0.3056	-0.116
Mof_C 	C 	0.0664	0.2484	0.7636	0.369
Mof_C 	C 	0.2194	0.4775	0.8844	-0.013
Mof_C 	C 	0.2074	0.0448	0.3056	-0.117
Mof_C 	C 	0.1494	0.5084	0.4243	-0.047
Mof_C 	C 	0.0385	0.2359	0.9657	-0.014
Mof_C 	C 	0.2198	0.0316	0.0038	-0.121
Mof_C 	C 	0.7484	0.9336	0.2364	0.369
Mof_C 	C 	0.955	0.7541	0.6554	-0.008
Mof_C 	C 	0.0225	0.2194	0.8844	-0.011
Mof_C 	C 	0.5225	0.7194	0.1156	-0.013
Mof_C 	C 	0.4605	0.5075	0.1539	0.392
Mof_C 	C 	0.1044	0.5166	0.463	-0.059
Mof_C 	C 	0.5054	0.8617	0.9975	0.018
Mof_C 	C 	0.0395	0.9925	0.1539	0.384
Mof_C 	C 	0.0921	0.9934	0.3464	-0.12
Mof_C 	C 	0.9946	0.8617	0.4975	0.023
Mof_C 	C 	0.9336	0.7516	0.2364	0.369
Mof_C 	C 	0.5075	0.0395	0.1539	0.392
Mof_C 	C 	0.4428	0.2567	0.0463	0.403
Mof_C 	C 	0.1383	0.0054	0.0025	0.023
Mof_C 	C 	0.4946	0.1383	0.0025	0.018
Mof_C 	C 	0.3613	0.9972	0.8845	-0.005
Mof_C 	C 	0.0664	0.2516	0.2636	0.369
Mof_C 	C 	0.2541	0.045	0.3446	-0.008
Mof_C 	C 	0.0075	0.5395	0.8461	0.39
Mof_C 	C 	0.0166	0.8956	0.537	-0.063
Mof_C 	C 	0.9916	0.3506	0.9243	-0.048
Mof_C 	C 	0.7541	0.955	0.1554	-0.008
Mof_C 	C 	0.7567	0.5572	0.9537	0.403
Mof_C 	C 	0.7303	0.9824	0.5747	0.01
Mof_C 	C 	0.2433	0.4428	0.0463	0.403
Mof_C 	C 	0.1383	0.4946	0.5025	0.018
Mof_C 	C 	0.2541	0.455	0.8446	-0.008
Mof_C 	C 	0.545	0.7541	0.1554	-0.008
Mof_C 	C 	0.5084	0.1494	0.9243	-0.047
Mof_C 	C 	0.0066	0.5921	0.6536	-0.12
Mof_C 	C 	0.0572	0.2567	0.5463	0.404
Mof_C 	C 	0.4336	0.2516	0.7636	0.369
Mof_C 	C 	0.9834	0.1044	0.463	-0.063
Mof_C 	C 	0.4972	0.6387	0.1155	-0.003
Mof_C 	C 	0.2303	0.4824	0.4253	0.009
Mof_C 	C 	0.9428	0.7433	0.4537	0.404
Mof_C 	C 	0.5225	0.7806	0.6156	-0.013
Mof_C 	C 	0.2806	0.0225	0.8844	-0.012
Mof_C 	C 	0.3617	0.4946	0.0025	0.018
Mof_C 	C 	0.2567	0.0572	0.0463	0.404
Mof_C 	C 	0.8613	0.0028	0.6155	-0.006
Mof_C 	C 	0.045	0.2459	0.3446	-0.008
Mof_C 	C 	0.2194	0.0225	0.3844	-0.011
Mof_C 	C 	0.2926	0.4552	0.3056	-0.116
Mof_C 	C 	0.7459	0.955	0.6554	-0.008
Mof_C 	C 	0.2516	0.4336	0.2636	0.369
Mof_C 	C 	0.5066	0.0921	0.3464	-0.119
Mof_C 	C 	0.4824	0.2303	0.9253	0.009
Mof_C 	C 	0.4925	0.9605	0.8461	0.392
Mof_C 	C 	0.5385	0.7641	0.5343	-0.013
Mof_C 	C 	0.3956	0.5166	0.963	-0.059
Mof_C 	C 	0.9684	0.7802	0.4962	-0.121
Mof_C 	C 	0.2641	0.4615	0.4657	-0.013
Mof_C 	C 	0.6494	0.0084	0.5757	-0.048
Mof_C 	C 	0.0225	0.2806	0.3844	-0.012
Mof_C 	C 	0.4079	0.9934	0.8464	-0.12
Mof_C 	C 	0.4834	0.6044	0.537	-0.059
Mof_C 	C 	0.0084	0.6494	0.0757	-0.048
Mof_C 	C 	0.0316	0.2198	0.5038	-0.121
Mof_C 	C 	0.1289	0.483	0.8069	0.054
Mof_C 	C 	0.7433	0.5572	0.4537	0.403
Mof_C 	C 	0.5664	0.7484	0.2364	0.369
Mof_C 	C 	0.017	0.1289	0.8069	0.056
Mof_C 	C 	0.2433	0.0572	0.5463	0.403
Mof_C 	C 	0.9552	0.7926	0.1944	-0.116
Mof_C 	C 	0.9615	0.7641	0.0343	-0.014
Mof_C 	C 	0.4916	0.8506	0.0757	-0.047
Mof_C 	C 	0.4916	0.6494	0.5757	-0.047
Mof_C 	C 	0.5921	0.4934	0.6536	-0.12
Mof_C 	C 	0.9605	0.0075	0.8461	0.384
Mof_C 	C 	0.2567	0.4428	0.5463	0.403
Mof_C 	C 	0.9925	0.4605	0.1539	0.39
Mof_C 	C 	0.1289	0.017	0.3069	0.057
Mof_C 	C 	0.9079	0.0066	0.6536	-0.12
Mof_C 	C 	0.5395	0.4925	0.8461	0.392
Mof_C 	C 	0.9615	0.7359	0.5343	-0.012
Mof_C 	C 	0.8506	0.0084	0.0757	-0.047
Mof_C 	C 	0.0166	0.6044	0.037	-0.06
Mof_C 	C 	0.0572	0.2433	0.0463	0.403
Mof_C 	C 	0.2926	0.0448	0.8056	-0.116
Mof_C 	C 	0.4615	0.2359	0.4657	-0.013
Mof_C 	C 	0.4824	0.2697	0.4253	0.009
Mof_C 	C 	0.1387	0.9972	0.3845	-0.006
Mof_C 	C 	0.9925	0.0395	0.6539	0.385
Mof_C 	C 	0.9972	0.3613	0.3845	-0.005
Mof_C 	C 	0.8506	0.4916	0.5757	-0.047
Mof_C 	C 	0.5316	0.7198	0.4962	-0.12
Mof_C 	C 	0.0448	0.2074	0.8056	-0.116
Mof_C 	C 	0.2484	0.4336	0.7636	0.369
Mof_C 	C 	0.4605	0.9925	0.6539	0.391
Mof_C 	C 	0.6387	0.4972	0.6155	-0.003
Mof_C 	C 	0.9775	0.7194	0.6156	-0.012
Mof_C 	C 	0.5664	0.7516	0.7364	0.369
Mof_C 	C 	0.4336	0.2484	0.2636	0.369
Mof_C 	C 	0.7806	0.5225	0.1156	-0.013
Mof_C 	C 	0.9775	0.7806	0.1156	-0.011
Mof_C 	C 	0.4428	0.2433	0.5463	0.403
Mof_C 	C 	0.4775	0.2806	0.8844	-0.013
Mof_C 	C 	0.2303	0.0176	0.9253	0.01
Mof_C 	C 	0.9824	0.7303	0.0747	0.01
Mof_C 	C 	0.7303	0.5176	0.0747	0.009
Mof_C 	C 	0.4934	0.5921	0.1536	-0.12
Mof_C 	C 	0.4925	0.5395	0.3461	0.392
Mof_C 	C 	0.9934	0.4079	0.3464	-0.12
Mof_C 	C 	0.7641	0.5385	0.0343	-0.013
Mof_C 	C 	0.4552	0.2926	0.8056	-0.116
Mof_C 	C 	0.1044	0.9834	0.963	-0.064
Mof_C 	C 	0.483	0.3711	0.8069	0.055
Mof_C 	C 	0.5448	0.7926	0.6944	-0.116
Mof_C 	C 	0.9605	0.4925	0.3461	0.392
Mof_C 	C 	0.0066	0.9079	0.1536	-0.12
Mof_C 	C 	0.8711	0.517	0.1931	0.054
Mof_C 	C 	0.6044	0.4834	0.037	-0.059
Mof_C 	C 	0.5572	0.7433	0.9537	0.403
Mof_C 	C 	0.7194	0.9775	0.1156	-0.012
Mof_C 	C 	0.5166	0.3956	0.463	-0.059
Mof_C 	C 	0.3711	0.483	0.3069	0.055
Mof_C 	C 	0.8617	0.9946	0.9975	0.023
Mof_C 	C 	0.4615	0.2641	0.9657	-0.013
Mof_C 	C 	0.7433	0.9428	0.9537	0.404
Mof_C 	C 	0.0448	0.2926	0.3056	-0.116
Mof_C 	C 	0.9428	0.7567	0.9537	0.403
Mof_C 	C 	0.4684	0.2802	0.5038	-0.12
Mof_C 	C 	0.8956	0.4834	0.537	-0.059
Mof_C 	C 	0.0028	0.8613	0.1155	-0.006
Mof_C 	C 	0.9684	0.7198	0.9962	-0.119
Mof_C 	C 	0.8617	0.5054	0.4975	0.018
Mof_C 	C 	0.9934	0.0921	0.8464	-0.12
Mof_C 	C 	0.9946	0.6383	0.9975	0.019
Mof_C 	C 	0.2198	0.4684	0.5038	-0.12
Mof_C 	C 	0.5028	0.1387	0.3845	-0.003
Mof_C 	C 	0.2697	0.0176	0.4253	0.01
Mof_C 	C 	0.7697	0.9824	0.0747	0.01
Mof_C 	C 	0.7697	0.5176	0.5747	0.009
Mof_C 	C 	0.045	0.2541	0.8446	-0.008
Mof_C 	C 	0.0054	0.3617	0.0025	0.019
Mof_C 	C 	0.5075	0.4605	0.6539	0.392
Mof_C 	C 	0.517	0.6289	0.1931	0.055
Mof_C 	C 	0.0084	0.8506	0.5757	-0.048
Mof_C 	C 	0.9552	0.7074	0.6944	-0.116
Mof_C 	C 	0.4684	0.2198	0.0038	-0.12
Mof_C 	C 	0.4775	0.2194	0.3844	-0.013
Mof_C 	C 	0.5316	0.7802	0.9962	-0.12
Mof_C 	C 	0.2359	0.4615	0.9657	-0.013
Mof_C 	C 	0.0054	0.1383	0.5025	0.023
Mof_C 	C 	0.9079	0.4934	0.1536	-0.119
Mof_C 	C 	0.7198	0.9684	0.4962	-0.12
Mof_C 	C 	0.2806	0.4775	0.3844	-0.013
Mof_C 	C 	0.7516	0.9336	0.7364	0.369
Mof_C 	C 	0.8711	0.983	0.6931	0.057
Mof_C 	C 	0.0176	0.2303	0.4253	0.01
Mof_C 	C 	0.4834	0.8956	0.037	-0.06
Mof_C 	C 	0.2459	0.455	0.3446	-0.008
Mof_C 	C 	0.0176	0.2697	0.9253	0.01
Mof_C 	C 	0.6044	0.0166	0.537	-0.06
Mof_C 	C 	0.7459	0.545	0.1554	-0.008
Mof_C 	C 	0.4079	0.5066	0.3464	-0.12
Mof_C 	C 	0.6383	0.5054	0.9975	0.018
Mof_C 	C 	0.5572	0.7567	0.4537	0.403
Mof_C 	C 	0.2359	0.0385	0.4657	-0.013
Mof_C 	C 	0.517	0.8711	0.6931	0.055
Mof_C 	C 	0.9824	0.7697	0.5747	0.01
Mof_C 	C 	0.7802	0.9684	0.9962	-0.121
Mof_C 	C 	0.6387	0.0028	0.1155	-0.005
Mof_C 	C 	0.6494	0.4916	0.0757	-0.047
Mof_C 	C 	0.3506	0.5084	0.9243	-0.047
Mof_C 	C 	0.7926	0.9552	0.6944	-0.117
Mof_C 	C 	0.5166	0.1044	0.963	-0.06
Mof_C 	C 	0.0316	0.2802	0.0038	-0.119
Mof_C 	C 	0.5028	0.3613	0.8845	-0.003
Mof_C 	C 	0.3711	0.017	0.8069	0.055
Mof_C 	C 	0.1387	0.5028	0.8845	-0.003
Mof_C 	C 	0.2802	0.4684	0.0038	-0.119
Mof_C 	C 	0.7359	0.5385	0.5343	-0.013
Mof_C 	C 	0.5176	0.7303	0.5747	0.009
Mof_C 	C 	0.5448	0.7074	0.1944	-0.116
Mof_C 	C 	0.7074	0.9552	0.1944	-0.116
Mof_C 	C 	0.983	0.6289	0.6931	0.056
Mof_C 	C 	0.4946	0.3617	0.5025	0.018
Mof_C 	C 	0.5054	0.6383	0.4975	0.018
Mof_C 	C 	0.2641	0.0385	0.9657	-0.013
Mof_C 	C 	0.0921	0.5066	0.8464	-0.119
Mof_C 	C 	0.7926	0.5448	0.1944	-0.116
Mof_C 	C 	0.3613	0.5028	0.3845	-0.003
Mof_C 	C 	0.7198	0.5316	0.9962	-0.119
Mof_C 	C 	0.2074	0.4552	0.8056	-0.116
Mof_C 	C 	0.2697	0.4824	0.9253	0.009
Mof_C 	C 	0.545	0.7459	0.6554	-0.008
Mof_C 	C 	0.5066	0.4079	0.8464	-0.12
Mof_C 	C 	0.4934	0.9079	0.6536	-0.119
Mof_C 	C 	0.5385	0.7359	0.0343	-0.013
Mof_C 	C 	0.7074	0.5448	0.6944	-0.116
Mof_C 	C 	0.983	0.8711	0.1931	0.056
Mof_C 	C 	0.455	0.2459	0.8446	-0.008
Mof_C 	C 	0.9336	0.7484	0.7364	0.369
Mof_C 	C 	0.2802	0.0316	0.5038	-0.12
Mof_C 	C 	0.7194	0.5225	0.6156	-0.013
Mof_C 	C 	0.3956	0.9834	0.463	-0.06
Mof_C 	C 	0.7541	0.545	0.6554	-0.008
Mof_C 	C 	0.2459	0.045	0.8446	-0.008
Mof_C 	C 	0.483	0.1289	0.3069	0.055
Mof_C 	C 	0.7806	0.9775	0.6156	-0.011
Mof_C 	C 	0.5395	0.0075	0.3461	0.391
Mof_C 	C 	0.8956	0.0166	0.037	-0.064
Mof_C 	C 	0.5084	0.3506	0.4243	-0.047
Mof_C 	C 	0.0075	0.9605	0.3461	0.385
Mof_C 	C 	0.3506	0.9916	0.4243	-0.048
Mof_C 	C 	0.8613	0.4972	0.1155	-0.003
Mof_C 	C 	0.6383	0.9946	0.4975	0.019
Mof_C 	C 	0.7641	0.9615	0.5343	-0.013
Mof_C 	C 	0.1494	0.9916	0.9243	-0.047
Mof_C 	C 	0.2484	0.0664	0.2636	0.369
Mof_C 	C 	0.6289	0.517	0.6931	0.055
Mof_C 	C 	0.9916	0.1494	0.4243	-0.048
Mof_C 	C 	0.7802	0.5316	0.4962	-0.12
Mof_C 	C 	0.7567	0.9428	0.4537	0.403
Mof_C 	C 	0.9834	0.3956	0.963	-0.06
Mof_C 	C 	0.7516	0.5664	0.2364	0.369
Mof_C 	C 	0.5176	0.7697	0.0747	0.009
Mof_C 	C 	0.0395	0.5075	0.6539	0.392
Mof_C 	C 	0.7359	0.9615	0.0343	-0.013
Mof_C 	C 	0.955	0.7459	0.1554	-0.008
Mof_C 	C 	0.2516	0.0664	0.7636	0.369
Mof_C 	C 	0.4972	0.8613	0.6155	-0.003
Mof_C 	C 	0.017	0.3711	0.3069	0.056
Mof_C 	C 	0.7484	0.5664	0.7364	0.369
Mof_O 	O 	0.5892	0.7082	0.2689	-0.475
Mof_O 	O 	0.573	0.7853	0.9211	-0.548
Mof_O 	O 	0.4108	0.2918	0.7311	-0.475
Mof_O 	O 	0.1479	0.3229	0.65292	-0.807
Mof_O 	O 	0.9412	0.674	0.23755	-0.463
Mof_O 	O 	0.4387	0.1659	0.54752	-0.484
Mof_O 	O 	0.1771	0.1479	0.65292	-0.807
Mof_O 	O 	0.5551	0.5236	0.80964	-0.493
Mof_O 	O 	0.674	0.5588	0.23755	-0.463
Mof_O 	O 	0.0892	0.2082	0.7311	-0.475
Mof_O 	O 	0.9387	0.6659	0.45248	-0.484
Mof_O 	O 	0.2853	0.073	0.5789	-0.548
Mof_O 	O 	0.0588	0.326	0.76245	-0.463
Mof_O 	O 	0.5588	0.674	0.73755	-0.463
Mof_O 	O 	0.4412	0.174	0.76245	-0.464
Mof_O 	O 	0.9732	0.9502	0.38303	-0.497
Mof_O 	O 	0.4764	0.0551	0.19036	-0.493
Mof_O 	O 	0.3341	0.0613	0.04752	-0.483
Mof_O 	O 	0.9502	0.9732	0.88303	-0.496
Mof_O 	O 	0.1659	0.0613	0.54752	-0.483
Mof_O 	O 	0.0551	0.0236	0.19036	-0.49
Mof_O 	O 	0.6659	0.5613	0.45248	-0.484
Mof_O 	O 	0.0236	0.4449	0.19036	-0.493
Mof_O 	O 	0.5551	0.9764	0.30964	-0.493
Mof_O 	O 	0.5236	0.5551	0.30964	-0.493
Mof_O 	O 	0.826	0.9412	0.23755	-0.463
Mof_O 	O 	0.5498	0.5268	0.88303	-0.5
Mof_O 	O 	0.0236	0.0551	0.69036	-0.49
Mof_O 	O 	0.3521	0.1771	0.65292	-0.807
Mof_O 	O 	0.5498	0.9732	0.38303	-0.5
Mof_O 	O 	0.5892	0.7918	0.7689	-0.475
Mof_O 	O 	0.9449	0.9764	0.80964	-0.49
Mof_O 	O 	0.9732	0.5498	0.88303	-0.5
Mof_O 	O 	0.3341	0.4387	0.54752	-0.484
Mof_O 	O 	0.4732	0.4502	0.61697	-0.5
Mof_O 	O 	0.427	0.2853	0.5789	-0.548
Mof_O 	O 	0.0588	0.174	0.26245	-0.463
Mof_O 	O 	0.5613	0.8341	0.45248	-0.484
Mof_O 	O 	0.7853	0.573	0.4211	-0.548
Mof_O 	O 	0.0498	0.0268	0.11697	-0.496
Mof_O 	O 	0.5588	0.826	0.23755	-0.464
Mof_O 	O 	0.2853	0.427	0.0789	-0.548
Mof_O 	O 	0.8229	0.8521	0.34708	-0.807
Mof_O 	O 	0.6479	0.8229	0.34708	-0.807
Mof_O 	O 	0.2918	0.4108	0.2311	-0.475
Mof_O 	O 	0.4412	0.326	0.26245	-0.463
Mof_O 	O 	0.7082	0.9108	0.2689	-0.475
Mof_O 	O 	0.7147	0.573	0.9211	-0.548
Mof_O 	O 	0.826	0.5588	0.73755	-0.464
Mof_O 	O 	0.0613	0.3341	0.54752	-0.484
Mof_O 	O 	0.7082	0.5892	0.7689	-0.475
Mof_O 	O 	0.3229	0.3521	0.65292	-0.807
Mof_O 	O 	0.0268	0.4502	0.11697	-0.5
Mof_O 	O 	0.4732	0.0498	0.11697	-0.5
Mof_O 	O 	0.3229	0.1479	0.15292	-0.807
Mof_O 	O 	0.8341	0.9387	0.45248	-0.483
Mof_O 	O 	0.4108	0.2082	0.2311	-0.475
Mof_O 	O 	0.0613	0.1659	0.04752	-0.483
Mof_O 	O 	0.7918	0.9108	0.7689	-0.475
Mof_O 	O 	0.9108	0.7082	0.7689	-0.475
Mof_O 	O 	0.5268	0.5498	0.38303	-0.5
Mof_O 	O 	0.326	0.0588	0.26245	-0.463
Mof_O 	O 	0.8521	0.8229	0.84708	-0.806
Mof_O 	O 	0.8521	0.6771	0.34708	-0.807
Mof_O 	O 	0.6771	0.6479	0.34708	-0.807
Mof_O 	O 	0.2082	0.0892	0.2311	-0.475
Mof_O 	O 	0.9764	0.5551	0.80964	-0.493
Mof_O 	O 	0.174	0.4412	0.26245	-0.464
Mof_O 	O 	0.4449	0.0236	0.69036	-0.493
Mof_O 	O 	0.927	0.7853	0.4211	-0.548
Mof_O 	O 	0.6479	0.6771	0.84708	-0.807
Mof_O 	O 	0.6659	0.9387	0.95248	-0.483
Mof_O 	O 	0.2147	0.073	0.0789	-0.548
Mof_O 	O 	0.9387	0.8341	0.95248	-0.483
Mof_O 	O 	0.0498	0.4732	0.61697	-0.5
Mof_O 	O 	0.9502	0.5268	0.38303	-0.5
Mof_O 	O 	0.4387	0.3341	0.04752	-0.484
Mof_O 	O 	0.1771	0.3521	0.15292	-0.807
Mof_O 	O 	0.9449	0.5236	0.30964	-0.494
Mof_O 	O 	0.8341	0.5613	0.95248	-0.484
Mof_O 	O 	0.3521	0.3229	0.15292	-0.807
Mof_O 	O 	0.0268	0.0498	0.61697	-0.497
Mof_O 	O 	0.927	0.7147	0.9211	-0.548
Mof_O 	O 	0.7147	0.927	0.4211	-0.548
Mof_O 	O 	0.9108	0.7918	0.2689	-0.475
Mof_O 	O 	0.326	0.4412	0.76245	-0.463
Mof_O 	O 	0.2082	0.4108	0.7311	-0.475
Mof_O 	O 	0.174	0.0588	0.76245	-0.463
Mof_O 	O 	0.0551	0.4764	0.69036	-0.494
Mof_O 	O 	0.573	0.7147	0.4211	-0.548
Mof_O 	O 	0.6771	0.8521	0.84708	-0.807
Mof_O 	O 	0.427	0.2147	0.0789	-0.548
Mof_O 	O 	0.5613	0.6659	0.95248	-0.484
Mof_O 	O 	0.7853	0.927	0.9211	-0.548
Mof_O 	O 	0.073	0.2853	0.0789	-0.548
Mof_O 	O 	0.1659	0.4387	0.04752	-0.484
Mof_O 	O 	0.4502	0.0268	0.61697	-0.5
Mof_O 	O 	0.8229	0.6479	0.84708	-0.807
Mof_O 	O 	0.2147	0.427	0.5789	-0.548
Mof_O 	O 	0.073	0.2147	0.5789	-0.548
Mof_O 	O 	0.9412	0.826	0.73755	-0.463
Mof_O 	O 	0.674	0.9412	0.73755	-0.463
Mof_O 	O 	0.0892	0.2918	0.2311	-0.475
Mof_O 	O 	0.7918	0.5892	0.2689	-0.475
Mof_O 	O 	0.4502	0.4732	0.11697	-0.5
Mof_O 	O 	0.4449	0.4764	0.19036	-0.493
Mof_O 	O 	0.2918	0.0892	0.7311	-0.475
Mof_O 	O 	0.4764	0.4449	0.69036	-0.493
Mof_O 	O 	0.1479	0.1771	0.15292	-0.806
Mof_O 	O 	0.5268	0.9502	0.88303	-0.5
Mof_O 	O 	0.9764	0.9449	0.30964	-0.49
Mof_O 	O 	0.5236	0.9449	0.80964	-0.493
_end
