# CIF file generated by openbabel 3.1.0, see https://openbabel.org
data_I
_chemical_name_common 'image0'
_cell_length_a 24.7273
_cell_length_b 24.7273
_cell_length_c 14.3812
_cell_angle_alpha 90
_cell_angle_beta 90
_cell_angle_gamma 120
_space_group_name_H-M_alt 'P 1'
_space_group_name_Hall 'P 1'
loop_
    _symmetry_equiv_pos_as_xyz
    x,y,z
loop_
    _atom_site_label
    _atom_site_type_symbol
    _atom_site_fract_x
    _atom_site_fract_y
    _atom_site_fract_z
    _atom_site_occupancy
    In1      In       0.67022    0.56106    0.38717    1.000
    In2      In       0.32974    0.44072    0.88541    1.000
    O1       O        0.36990    0.45520    0.01900    1.000
    O2       O        0.70550    0.57090    0.25150    1.000
    O3       O        0.58930    0.55460    0.31200    1.000
    O4       O        0.40250    0.46220    0.50660    1.000
    O5       O        0.57990    0.54430    0.15600    1.000
    O6       O        0.38030    0.54800    0.87110    1.000
    O7       O        0.73830    0.50310    0.38450    1.000
    O8       O        0.31430    0.44850    0.45120    1.000
    O9       O        0.30050    0.33620    0.88010    1.000
    O10      O        0.70670    0.66250    0.40750    1.000
    O11      O        0.28000    0.49920    0.90280    1.000
    O12      O        0.23140    0.36230    0.92160    1.000
    O13      O        0.63630    0.46270    0.38420    1.000
    O14      O        0.77890    0.63520    0.40380    1.000
    O15      O        0.29380    0.45340    0.10140    1.000
    C1       C        0.39890    0.48020    0.34370    1.000
    C2       C        0.91530    0.82310    0.35060    1.000
    H1       H        0.95330    0.83390    0.32230    1.000
    C3       C        0.45180    0.50230    0.16840    1.000
    H2       H        0.46920    0.50860    0.10930    1.000
    C4       C        0.87020    0.76090    0.35860    1.000
    H3       H        0.87830    0.73010    0.33710    1.000
    C5       C        0.46370    0.50530    0.33290    1.000
    H4       H        0.48900    0.51400    0.38510    1.000
    C6       C        0.55950    0.54140    0.23840    1.000
    C7       C        0.80190    0.78990    0.43290    1.000
    H5       H        0.76360    0.77910    0.46010    1.000
    C8       C        0.13760    0.23510    0.93490    1.000
    H6       H        0.13090    0.26430    0.96550    1.000
    C9       C        0.48960    0.51690    0.24610    1.000
    C10      C        0.84700    0.85170    0.42720    1.000
    H7       H        0.83930    0.88190    0.45200    1.000
    C11      C        0.38750    0.47820    0.17860    1.000
    C12      C        0.34490    0.46110    0.09260    1.000
    C13      C        0.36200    0.46800    0.26690    1.000
    H8       H        0.31940    0.45290    0.27400    1.000
    C14      C        0.76270    0.67590    0.40450    1.000
    C15      C        0.24300    0.32080    0.89860    1.000
    C16      C        0.36960    0.46330    0.43880    1.000
    C17      C        0.19410    0.25330    0.89700    1.000
    C18      C        0.95330    0.93650    0.37810    1.000
    C19      C        0.90480    0.87010    0.38440    1.000
    C20      C        0.81210    0.74390    0.39930    1.000
    C21      C        0.01740    0.95440    0.37640    1.000
    H9       H        0.02880    0.92380    0.37410    1.000
    C22      C        0.20390    0.21060    0.84660    1.000
    H10      H        0.24190    0.22310    0.81740    1.000
    C23      C        0.33070    0.54890    0.88660    1.000
    C24      C        0.08920    0.17330    0.92920    1.000
    H11      H        0.05080    0.16150    0.95690    1.000
    C25      C        0.68480    0.45730    0.38290    1.000
    C26      C        0.15580    0.14940    0.84120    1.000
    H12      H        0.16250    0.12070    0.80880    1.000
    C27      C        0.27630    0.61130    0.88300    1.000
    C28      C        0.33230    0.61020    0.88380    1.000
    C29      C        0.67570    0.39350    0.38210    1.000
    C30      C        0.61610    0.34260    0.38140    1.000
    C31      C        0.09810    0.12910    0.88210    1.000
    C32      C        0.04820    0.06360    0.87840    1.000
    C33      C        0.98460    0.04680    0.87680    1.000
    H13      H        0.97440    0.07820    0.87470    1.000
    In3      In       0.43894    0.10916    0.38717    1.000
    In4      In       0.55928    0.88902    0.88541    1.000
    O16      O        0.54480    0.91470    0.01900    1.000
    O17      O        0.42910    0.13460    0.25150    1.000
    O18      O        0.44540    0.03470    0.31200    1.000
    O19      O        0.53780    0.94030    0.50660    1.000
    O20      O        0.45570    0.03560    0.15600    1.000
    O21      O        0.45200    0.83230    0.87110    1.000
    O22      O        0.49690    0.23520    0.38450    1.000
    O23      O        0.55150    0.86580    0.45120    1.000
    O24      O        0.66380    0.96430    0.88010    1.000
    O25      O        0.33750    0.04420    0.40750    1.000
    O26      O        0.50080    0.78080    0.90280    1.000
    O27      O        0.63770    0.86910    0.92160    1.000
    O28      O        0.53730    0.17360    0.38420    1.000
    O29      O        0.36480    0.14370    0.40380    1.000
    O30      O        0.54660    0.84040    0.10140    1.000
    C34      C        0.51980    0.91870    0.34370    1.000
    C35      C        0.17690    0.09220    0.35060    1.000
    H14      H        0.16610    0.11940    0.32230    1.000
    C36      C        0.49770    0.94950    0.16840    1.000
    H15      H        0.49140    0.96060    0.10930    1.000
    C37      C        0.23910    0.10930    0.35860    1.000
    H16      H        0.26990    0.14820    0.33710    1.000
    C38      C        0.49470    0.95840    0.33290    1.000
    H17      H        0.48600    0.97500    0.38510    1.000
    C39      C        0.45860    0.01810    0.23840    1.000
    C40      C        0.21010    0.01200    0.43290    1.000
    H18      H        0.22090    0.98450    0.46010    1.000
    C41      C        0.76490    0.90250    0.93490    1.000
    H19      H        0.73570    0.86660    0.96550    1.000
    C42      C        0.48310    0.97270    0.24610    1.000
    C43      C        0.14830    0.99530    0.42720    1.000
    H20      H        0.11810    0.95740    0.45200    1.000
    C44      C        0.52180    0.90930    0.17860    1.000
    C45      C        0.53890    0.88380    0.09260    1.000
    C46      C        0.53200    0.89400    0.26690    1.000
    H21      H        0.54710    0.86650    0.27400    1.000
    C47      C        0.32410    0.08680    0.40450    1.000
    C48      C        0.67920    0.92220    0.89860    1.000
    C49      C        0.53670    0.90630    0.43880    1.000
    C50      C        0.74670    0.94080    0.89700    1.000
    C51      C        0.06350    0.01680    0.37810    1.000
    C52      C        0.12990    0.03470    0.38440    1.000
    C53      C        0.25610    0.06820    0.39930    1.000
    C54      C        0.04560    0.06300    0.37640    1.000
    H22      H        0.07620    0.10500    0.37410    1.000
    C55      C        0.78940    0.99330    0.84660    1.000
    H23      H        0.77690    0.01880    0.81740    1.000
    C56      C        0.45110    0.78180    0.88660    1.000
    C57      C        0.82670    0.91590    0.92920    1.000
    H24      H        0.83850    0.88930    0.95690    1.000
    C58      C        0.54270    0.22750    0.38290    1.000
    C59      C        0.85060    0.00640    0.84120    1.000
    H25      H        0.87930    0.04180    0.80880    1.000
    C60      C        0.38870    0.66500    0.88300    1.000
    C61      C        0.38980    0.72210    0.88380    1.000
    C62      C        0.60650    0.28220    0.38210    1.000
    C63      C        0.65740    0.27350    0.38140    1.000
    C64      C        0.87090    0.96900    0.88210    1.000
    C65      C        0.93640    0.98460    0.87840    1.000
    C66      C        0.95320    0.93780    0.87680    1.000
    H26      H        0.92180    0.89620    0.87470    1.000
    In5      In       0.89084    0.32978    0.38717    1.000
    In6      In       0.11098    0.67026    0.88541    1.000
    O31      O        0.08530    0.63010    0.01900    1.000
    O32      O        0.86540    0.29450    0.25150    1.000
    O33      O        0.96530    0.41070    0.31200    1.000
    O34      O        0.05970    0.59750    0.50660    1.000
    O35      O        0.96440    0.42010    0.15600    1.000
    O36      O        0.16770    0.61970    0.87110    1.000
    O37      O        0.76480    0.26170    0.38450    1.000
    O38      O        0.13420    0.68570    0.45120    1.000
    O39      O        0.03570    0.69950    0.88010    1.000
    O40      O        0.95580    0.29330    0.40750    1.000
    O41      O        0.21920    0.72000    0.90280    1.000
    O42      O        0.13090    0.76860    0.92160    1.000
    O43      O        0.82640    0.36370    0.38420    1.000
    O44      O        0.85630    0.22110    0.40380    1.000
    O45      O        0.15960    0.70620    0.10140    1.000
    C67      C        0.08130    0.60110    0.34370    1.000
    C68      C        0.90780    0.08470    0.35060    1.000
    H27      H        0.88060    0.04670    0.32230    1.000
    C69      C        0.05050    0.54820    0.16840    1.000
    H28      H        0.03940    0.53080    0.10930    1.000
    C70      C        0.89070    0.12980    0.35860    1.000
    H29      H        0.85180    0.12170    0.33710    1.000
    C71      C        0.04160    0.53630    0.33290    1.000
    H30      H        0.02500    0.51100    0.38510    1.000
    C72      C        0.98190    0.44050    0.23840    1.000
    C73      C        0.98800    0.19810    0.43290    1.000
    H31      H        0.01550    0.23640    0.46010    1.000
    C74      C        0.09750    0.86240    0.93490    1.000
    H32      H        0.13340    0.86910    0.96550    1.000
    C75      C        0.02730    0.51040    0.24610    1.000
    C76      C        0.00470    0.15300    0.42720    1.000
    H33      H        0.04260    0.16070    0.45200    1.000
    C77      C        0.09070    0.61250    0.17860    1.000
    C78      C        0.11620    0.65510    0.09260    1.000
    C79      C        0.10600    0.63800    0.26690    1.000
    H34      H        0.13350    0.68060    0.27400    1.000
    C80      C        0.91320    0.23730    0.40450    1.000
    C81      C        0.07780    0.75700    0.89860    1.000
    C82      C        0.09370    0.63040    0.43880    1.000
    C83      C        0.05920    0.80590    0.89700    1.000
    C84      C        0.98320    0.04670    0.37810    1.000
    C85      C        0.96530    0.09520    0.38440    1.000
    C86      C        0.93180    0.18790    0.39930    1.000
    C87      C        0.93700    0.98260    0.37640    1.000
    H35      H        0.89500    0.97120    0.37410    1.000
    C88      C        0.00670    0.79610    0.84660    1.000
    H36      H        0.98120    0.75810    0.81740    1.000
    C89      C        0.21820    0.66930    0.88660    1.000
    C90      C        0.08410    0.91080    0.92920    1.000
    H37      H        0.11070    0.94920    0.95690    1.000
    C91      C        0.77250    0.31520    0.38290    1.000
    C92      C        0.99360    0.84420    0.84120    1.000
    H38      H        0.95820    0.83750    0.80880    1.000
    C93      C        0.33500    0.72370    0.88300    1.000
    C94      C        0.27790    0.66770    0.88380    1.000
    C95      C        0.71780    0.32430    0.38210    1.000
    C96      C        0.72650    0.38390    0.38140    1.000
    C97      C        0.03100    0.90190    0.88210    1.000
    C98      C        0.01540    0.95180    0.87840    1.000
    C99      C        0.06220    0.01540    0.87680    1.000
    H39      H        0.10380    0.02560    0.87470    1.000
    In7      In       0.32978    0.43894    0.61283    1.000
    In8      In       0.67026    0.55928    0.11459    1.000
    O46      O        0.63010    0.54480    0.98100    1.000
    O47      O        0.29450    0.42910    0.74850    1.000
    O48      O        0.41070    0.44540    0.68800    1.000
    O49      O        0.59750    0.53780    0.49340    1.000
    O50      O        0.42010    0.45570    0.84400    1.000
    O51      O        0.61970    0.45200    0.12890    1.000
    O52      O        0.26170    0.49690    0.61550    1.000
    O53      O        0.68570    0.55150    0.54880    1.000
    O54      O        0.69950    0.66380    0.11990    1.000
    O55      O        0.29330    0.33750    0.59250    1.000
    O56      O        0.72000    0.50080    0.09720    1.000
    O57      O        0.76860    0.63770    0.07840    1.000
    O58      O        0.36370    0.53730    0.61580    1.000
    O59      O        0.22110    0.36480    0.59620    1.000
    O60      O        0.70620    0.54660    0.89860    1.000
    C100     C        0.60110    0.51980    0.65630    1.000
    C101     C        0.08470    0.17690    0.64940    1.000
    H40      H        0.04670    0.16610    0.67770    1.000
    C102     C        0.54820    0.49770    0.83160    1.000
    H41      H        0.53080    0.49140    0.89070    1.000
    C103     C        0.12980    0.23910    0.64140    1.000
    H42      H        0.12170    0.26990    0.66290    1.000
    C104     C        0.53630    0.49470    0.66710    1.000
    H43      H        0.51100    0.48600    0.61490    1.000
    C105     C        0.44050    0.45860    0.76160    1.000
    C106     C        0.19810    0.21010    0.56710    1.000
    H44      H        0.23640    0.22090    0.53990    1.000
    C107     C        0.86240    0.76490    0.06510    1.000
    H45      H        0.86910    0.73570    0.03450    1.000
    C108     C        0.51040    0.48310    0.75390    1.000
    C109     C        0.15300    0.14830    0.57280    1.000
    H46      H        0.16070    0.11810    0.54800    1.000
    C110     C        0.61250    0.52180    0.82140    1.000
    C111     C        0.65510    0.53890    0.90740    1.000
    C112     C        0.63800    0.53200    0.73310    1.000
    H47      H        0.68060    0.54710    0.72600    1.000
    C113     C        0.23730    0.32410    0.59550    1.000
    C114     C        0.75700    0.67920    0.10140    1.000
    C115     C        0.63040    0.53670    0.56120    1.000
    C116     C        0.80590    0.74670    0.10300    1.000
    C117     C        0.04670    0.06350    0.62190    1.000
    C118     C        0.09520    0.12990    0.61560    1.000
    C119     C        0.18790    0.25610    0.60070    1.000
    C120     C        0.98260    0.04560    0.62360    1.000
    H48      H        0.97120    0.07620    0.62590    1.000
    C121     C        0.79610    0.78940    0.15340    1.000
    H49      H        0.75810    0.77690    0.18260    1.000
    C122     C        0.66930    0.45110    0.11340    1.000
    C123     C        0.91080    0.82670    0.07080    1.000
    H50      H        0.94920    0.83850    0.04310    1.000
    C124     C        0.31520    0.54270    0.61710    1.000
    C125     C        0.84420    0.85060    0.15880    1.000
    H51      H        0.83750    0.87930    0.19120    1.000
    C126     C        0.72370    0.38870    0.11700    1.000
    C127     C        0.66770    0.38980    0.11620    1.000
    C128     C        0.32430    0.60650    0.61790    1.000
    C129     C        0.38390    0.65740    0.61860    1.000
    C130     C        0.90190    0.87090    0.11790    1.000
    C131     C        0.95180    0.93640    0.12160    1.000
    C132     C        0.01540    0.95320    0.12320    1.000
    H52      H        0.02560    0.92180    0.12530    1.000
    In9      In       0.56106    0.89084    0.61283    1.000
    In10     In       0.44072    0.11098    0.11459    1.000
    O61      O        0.45520    0.08530    0.98100    1.000
    O62      O        0.57090    0.86540    0.74850    1.000
    O63      O        0.55460    0.96530    0.68800    1.000
    O64      O        0.46220    0.05970    0.49340    1.000
    O65      O        0.54430    0.96440    0.84400    1.000
    O66      O        0.54800    0.16770    0.12890    1.000
    O67      O        0.50310    0.76480    0.61550    1.000
    O68      O        0.44850    0.13420    0.54880    1.000
    O69      O        0.33620    0.03570    0.11990    1.000
    O70      O        0.66250    0.95580    0.59250    1.000
    O71      O        0.49920    0.21920    0.09720    1.000
    O72      O        0.36230    0.13090    0.07840    1.000
    O73      O        0.46270    0.82640    0.61580    1.000
    O74      O        0.63520    0.85630    0.59620    1.000
    O75      O        0.45340    0.15960    0.89860    1.000
    C133     C        0.48020    0.08130    0.65630    1.000
    C134     C        0.82310    0.90780    0.64940    1.000
    H53      H        0.83390    0.88060    0.67770    1.000
    C135     C        0.50230    0.05050    0.83160    1.000
    H54      H        0.50860    0.03940    0.89070    1.000
    C136     C        0.76090    0.89070    0.64140    1.000
    H55      H        0.73010    0.85180    0.66290    1.000
    C137     C        0.50530    0.04160    0.66710    1.000
    H56      H        0.51400    0.02500    0.61490    1.000
    C138     C        0.54140    0.98190    0.76160    1.000
    C139     C        0.78990    0.98800    0.56710    1.000
    H57      H        0.77910    0.01550    0.53990    1.000
    C140     C        0.23510    0.09750    0.06510    1.000
    H58      H        0.26430    0.13340    0.03450    1.000
    C141     C        0.51690    0.02730    0.75390    1.000
    C142     C        0.85170    0.00470    0.57280    1.000
    H59      H        0.88190    0.04260    0.54800    1.000
    C143     C        0.47820    0.09070    0.82140    1.000
    C144     C        0.46110    0.11620    0.90740    1.000
    C145     C        0.46800    0.10600    0.73310    1.000
    H60      H        0.45290    0.13350    0.72600    1.000
    C146     C        0.67590    0.91320    0.59550    1.000
    C147     C        0.32080    0.07780    0.10140    1.000
    C148     C        0.46330    0.09370    0.56120    1.000
    C149     C        0.25330    0.05920    0.10300    1.000
    C150     C        0.93650    0.98320    0.62190    1.000
    C151     C        0.87010    0.96530    0.61560    1.000
    C152     C        0.74390    0.93180    0.60070    1.000
    C153     C        0.95440    0.93700    0.62360    1.000
    H61      H        0.92380    0.89500    0.62590    1.000
    C154     C        0.21060    0.00670    0.15340    1.000
    H62      H        0.22310    0.98120    0.18260    1.000
    C155     C        0.54890    0.21820    0.11340    1.000
    C156     C        0.17330    0.08410    0.07080    1.000
    H63      H        0.16150    0.11070    0.04310    1.000
    C157     C        0.45730    0.77250    0.61710    1.000
    C158     C        0.14940    0.99360    0.15880    1.000
    H64      H        0.12070    0.95820    0.19120    1.000
    C159     C        0.61130    0.33500    0.11700    1.000
    C160     C        0.61020    0.27790    0.11620    1.000
    C161     C        0.39350    0.71780    0.61790    1.000
    C162     C        0.34260    0.72650    0.61860    1.000
    C163     C        0.12910    0.03100    0.11790    1.000
    C164     C        0.06360    0.01540    0.12160    1.000
    C165     C        0.04680    0.06220    0.12320    1.000
    H65      H        0.07820    0.10380    0.12530    1.000
    In11     In       0.10916    0.67022    0.61283    1.000
    In12     In       0.88902    0.32974    0.11459    1.000
    O76      O        0.91470    0.36990    0.98100    1.000
    O77      O        0.13460    0.70550    0.74850    1.000
    O78      O        0.03470    0.58930    0.68800    1.000
    O79      O        0.94030    0.40250    0.49340    1.000
    O80      O        0.03560    0.57990    0.84400    1.000
    O81      O        0.83230    0.38030    0.12890    1.000
    O82      O        0.23520    0.73830    0.61550    1.000
    O83      O        0.86580    0.31430    0.54880    1.000
    O84      O        0.96430    0.30050    0.11990    1.000
    O85      O        0.04420    0.70670    0.59250    1.000
    O86      O        0.78080    0.28000    0.09720    1.000
    O87      O        0.86910    0.23140    0.07840    1.000
    O88      O        0.17360    0.63630    0.61580    1.000
    O89      O        0.14370    0.77890    0.59620    1.000
    O90      O        0.84040    0.29380    0.89860    1.000
    C166     C        0.91870    0.39890    0.65630    1.000
    C167     C        0.09220    0.91530    0.64940    1.000
    H66      H        0.11940    0.95330    0.67770    1.000
    C168     C        0.94950    0.45180    0.83160    1.000
    H67      H        0.96060    0.46920    0.89070    1.000
    C169     C        0.10930    0.87020    0.64140    1.000
    H68      H        0.14820    0.87830    0.66290    1.000
    C170     C        0.95840    0.46370    0.66710    1.000
    H69      H        0.97500    0.48900    0.61490    1.000
    C171     C        0.01810    0.55950    0.76160    1.000
    C172     C        0.01200    0.80190    0.56710    1.000
    H70      H        0.98450    0.76360    0.53990    1.000
    C173     C        0.90250    0.13760    0.06510    1.000
    H71      H        0.86660    0.13090    0.03450    1.000
    C174     C        0.97270    0.48960    0.75390    1.000
    C175     C        0.99530    0.84700    0.57280    1.000
    H72      H        0.95740    0.83930    0.54800    1.000
    C176     C        0.90930    0.38750    0.82140    1.000
    C177     C        0.88380    0.34490    0.90740    1.000
    C178     C        0.89400    0.36200    0.73310    1.000
    H73      H        0.86650    0.31940    0.72600    1.000
    C179     C        0.08680    0.76270    0.59550    1.000
    C180     C        0.92220    0.24300    0.10140    1.000
    C181     C        0.90630    0.36960    0.56120    1.000
    C182     C        0.94080    0.19410    0.10300    1.000
    C183     C        0.01680    0.95330    0.62190    1.000
    C184     C        0.03470    0.90480    0.61560    1.000
    C185     C        0.06820    0.81210    0.60070    1.000
    C186     C        0.06300    0.01740    0.62360    1.000
    H74      H        0.10500    0.02880    0.62590    1.000
    C187     C        0.99330    0.20390    0.15340    1.000
    H75      H        0.01880    0.24190    0.18260    1.000
    C188     C        0.78180    0.33070    0.11340    1.000
    C189     C        0.91590    0.08920    0.07080    1.000
    H76      H        0.88930    0.05080    0.04310    1.000
    C190     C        0.22750    0.68480    0.61710    1.000
    C191     C        0.00640    0.15580    0.15880    1.000
    H77      H        0.04180    0.16250    0.19120    1.000
    C192     C        0.66500    0.27630    0.11700    1.000
    C193     C        0.72210    0.33230    0.11620    1.000
    C194     C        0.28220    0.67570    0.61790    1.000
    C195     C        0.27350    0.61610    0.61860    1.000
    C196     C        0.96900    0.09810    0.11790    1.000
    C197     C        0.98460    0.04820    0.12160    1.000
    C198     C        0.93780    0.98460    0.12320    1.000
    H78      H        0.89620    0.97440    0.12530    1.000
