data_functionalizedCrystal
_audit_creation_method	'EQeq! by Chris Wilmer'
_symmetry_space_group_name_H-M	'P1'
_symmetry_Int_Tables_number	1
_symmetry_cell_setting	triclinic
loop_
_symmetry_equiv_pos_as_xyz
  x,y,z
_cell_length_a	7.6664
_cell_length_b	15.481
_cell_length_c	31.951
_cell_angle_alpha	90
_cell_angle_beta	90
_cell_angle_gamma	90
loop_
_atom_site_label
_atom_site_type_symbol
_atom_site_fract_x
_atom_site_fract_y
_atom_site_fract_z
_atom_site_charge
Mof_Cu	Cu	0.9144	0.67428	0.56174	0.765
Mof_Cu	Cu	0.0781	0.53052	0.53411	0.759
Mof_Cu	Cu	0.7491	0.62632	0.77089	0.892
Mof_Cu	Cu	0.5856	0.17428	0.93826	0.766
Mof_Cu	Cu	0.4219	0.03052	0.96589	0.76
Mof_Cu	Cu	0.7509	0.12632	0.72911	0.892
Mof_Cu	Cu	0.0856	0.82572	0.56174	0.766
Mof_Cu	Cu	0.9219	0.96948	0.53411	0.76
Mof_Cu	Cu	0.2509	0.87368	0.77089	0.892
Mof_Cu	Cu	0.4144	0.32572	0.93826	0.766
Mof_Cu	Cu	0.5781	0.46948	0.96589	0.76
Mof_Cu	Cu	0.2491	0.37368	0.72911	0.892
Mof_Cu	Cu	0.0856	0.32572	0.43826	0.766
Mof_Cu	Cu	0.9219	0.46948	0.46589	0.76
Mof_Cu	Cu	0.2509	0.37368	0.22911	0.892
Mof_Cu	Cu	0.4144	0.82572	0.06174	0.766
Mof_Cu	Cu	0.5781	0.96948	0.03411	0.76
Mof_Cu	Cu	0.2491	0.87368	0.27089	0.892
Mof_Cu	Cu	0.9144	0.17428	0.43826	0.766
Mof_Cu	Cu	0.0781	0.03052	0.46589	0.76
Mof_Cu	Cu	0.7491	0.12632	0.22911	0.892
Mof_Cu	Cu	0.5856	0.67428	0.06174	0.766
Mof_Cu	Cu	0.4219	0.53052	0.03411	0.76
Mof_Cu	Cu	0.7509	0.62632	0.27089	0.892
Mof_H 	H 	0.4171	0.6062	0.8292	0.036
Mof_H 	H 	0.3737	0.5548	0.8957	0.03
Mof_H 	H 	0.6157	0.6554	0.6253	0.031
Mof_H 	H 	0.1199	0.6412	0.6412	0.028
Mof_H 	H 	0.0847	0.6269	0.711	0.042
Mof_H 	H 	0.875	0.5113	0.9058	0.033
Mof_H 	H 	0.0829	0.1062	0.6708	0.034
Mof_H 	H 	0.1263	0.0548	0.6043	0.031
Mof_H 	H 	0.8843	0.1554	0.8747	0.031
Mof_H 	H 	0.3801	0.1412	0.8588	0.029
Mof_H 	H 	0.4153	0.1269	0.789	0.041
Mof_H 	H 	0.625	0.0113	0.5942	0.034
Mof_H 	H 	0.5829	0.8938	0.8292	0.036
Mof_H 	H 	0.6263	0.9452	0.8957	0.03
Mof_H 	H 	0.3843	0.8446	0.6253	0.032
Mof_H 	H 	0.8801	0.8588	0.6412	0.03
Mof_H 	H 	0.9153	0.8731	0.711	0.039
Mof_H 	H 	0.125	0.9887	0.9058	0.034
Mof_H 	H 	0.9171	0.3938	0.6708	0.037
Mof_H 	H 	0.8737	0.4452	0.6043	0.03
Mof_H 	H 	0.1157	0.3446	0.8747	0.031
Mof_H 	H 	0.6199	0.3588	0.8588	0.029
Mof_H 	H 	0.5847	0.3731	0.789	0.041
Mof_H 	H 	0.375	0.4887	0.5942	0.034
Mof_H 	H 	0.5829	0.3938	0.1708	0.036
Mof_H 	H 	0.6263	0.4452	0.1043	0.03
Mof_H 	H 	0.3843	0.3446	0.3747	0.031
Mof_H 	H 	0.8801	0.3588	0.3588	0.028
Mof_H 	H 	0.9153	0.3731	0.289	0.042
Mof_H 	H 	0.125	0.4887	0.0942	0.033
Mof_H 	H 	0.9171	0.8938	0.3292	0.034
Mof_H 	H 	0.8737	0.9452	0.3957	0.031
Mof_H 	H 	0.1157	0.8446	0.1253	0.031
Mof_H 	H 	0.6199	0.8588	0.1412	0.029
Mof_H 	H 	0.5847	0.8731	0.211	0.041
Mof_H 	H 	0.375	0.9887	0.4058	0.034
Mof_H 	H 	0.4171	0.1062	0.1708	0.036
Mof_H 	H 	0.3737	0.0548	0.1043	0.03
Mof_H 	H 	0.6157	0.1554	0.3747	0.032
Mof_H 	H 	0.1199	0.1412	0.3588	0.03
Mof_H 	H 	0.0847	0.1269	0.289	0.039
Mof_H 	H 	0.875	0.0113	0.0942	0.034
Mof_H 	H 	0.0829	0.6062	0.3292	0.037
Mof_H 	H 	0.1263	0.5548	0.3957	0.03
Mof_H 	H 	0.8843	0.6554	0.1253	0.031
Mof_H 	H 	0.3801	0.6412	0.1412	0.029
Mof_H 	H 	0.4153	0.6269	0.211	0.041
Mof_H 	H 	0.625	0.5113	0.4058	0.034
Mof_C 	C 	0.512	0.5868	0.8447	0.02
Mof_C 	C 	0.515	0.6402	0.7057	0.299
Mof_C 	C 	0.979	0.5689	0.8297	0.298
Mof_C 	C 	0.486	0.5572	0.8848	-0.018
Mof_C 	C 	0.6893	0.6405	0.6853	-0.046
Mof_C 	C 	0.713	0.6505	0.6426	0.052
Mof_C 	C 	0.007	0.6424	0.6521	0.001
Mof_C 	C 	0.987	0.633	0.6939	0.016
Mof_C 	C 	0.7801	0.533	0.8911	0.033
Mof_C 	C 	0.8043	0.5654	0.8519	-0.047
Mof_C 	C 	0.988	0.0868	0.6553	0.025
Mof_C 	C 	0.985	0.1402	0.7943	0.3
Mof_C 	C 	0.521	0.0689	0.6703	0.298
Mof_C 	C 	0.014	0.0572	0.6152	-0.021
Mof_C 	C 	0.8107	0.1405	0.8147	-0.046
Mof_C 	C 	0.787	0.1505	0.8574	0.052
Mof_C 	C 	0.493	0.1424	0.8479	-0.001
Mof_C 	C 	0.513	0.133	0.8061	0.017
Mof_C 	C 	0.7199	0.033	0.6089	0.033
Mof_C 	C 	0.6957	0.0654	0.6481	-0.047
Mof_C 	C 	0.488	0.9132	0.8447	0.02
Mof_C 	C 	0.485	0.8598	0.7057	0.299
Mof_C 	C 	0.021	0.9311	0.8297	0.299
Mof_C 	C 	0.514	0.9428	0.8848	-0.018
Mof_C 	C 	0.3107	0.8595	0.6853	-0.045
Mof_C 	C 	0.287	0.8495	0.6426	0.052
Mof_C 	C 	0.993	0.8576	0.6521	-0.004
Mof_C 	C 	0.013	0.867	0.6939	0.021
Mof_C 	C 	0.2199	0.967	0.8911	0.033
Mof_C 	C 	0.1957	0.9346	0.8519	-0.047
Mof_C 	C 	0.012	0.4132	0.6553	0.02
Mof_C 	C 	0.015	0.3598	0.7943	0.298
Mof_C 	C 	0.479	0.4311	0.6703	0.298
Mof_C 	C 	0.986	0.4428	0.6152	-0.017
Mof_C 	C 	0.1893	0.3595	0.8147	-0.046
Mof_C 	C 	0.213	0.3495	0.8574	0.052
Mof_C 	C 	0.507	0.3576	0.8479	-0.001
Mof_C 	C 	0.487	0.367	0.8061	0.017
Mof_C 	C 	0.2801	0.467	0.6089	0.033
Mof_C 	C 	0.3043	0.4346	0.6481	-0.047
Mof_C 	C 	0.488	0.4132	0.1553	0.02
Mof_C 	C 	0.485	0.3598	0.2943	0.299
Mof_C 	C 	0.021	0.4311	0.1703	0.298
Mof_C 	C 	0.514	0.4428	0.1152	-0.018
Mof_C 	C 	0.3107	0.3595	0.3147	-0.046
Mof_C 	C 	0.287	0.3495	0.3574	0.052
Mof_C 	C 	0.993	0.3576	0.3479	0.001
Mof_C 	C 	0.013	0.367	0.3061	0.016
Mof_C 	C 	0.2199	0.467	0.1089	0.033
Mof_C 	C 	0.1957	0.4346	0.1481	-0.047
Mof_C 	C 	0.012	0.9132	0.3447	0.025
Mof_C 	C 	0.015	0.8598	0.2057	0.3
Mof_C 	C 	0.479	0.9311	0.3297	0.298
Mof_C 	C 	0.986	0.9428	0.3848	-0.021
Mof_C 	C 	0.1893	0.8595	0.1853	-0.046
Mof_C 	C 	0.213	0.8495	0.1426	0.052
Mof_C 	C 	0.507	0.8576	0.1521	-0.001
Mof_C 	C 	0.487	0.867	0.1939	0.017
Mof_C 	C 	0.2801	0.967	0.3911	0.033
Mof_C 	C 	0.3043	0.9346	0.3519	-0.047
Mof_C 	C 	0.512	0.0868	0.1553	0.02
Mof_C 	C 	0.515	0.1402	0.2943	0.299
Mof_C 	C 	0.979	0.0689	0.1703	0.299
Mof_C 	C 	0.486	0.0572	0.1152	-0.018
Mof_C 	C 	0.6893	0.1405	0.3147	-0.045
Mof_C 	C 	0.713	0.1505	0.3574	0.052
Mof_C 	C 	0.007	0.1424	0.3479	-0.004
Mof_C 	C 	0.987	0.133	0.3061	0.021
Mof_C 	C 	0.7801	0.033	0.1089	0.033
Mof_C 	C 	0.8043	0.0654	0.1481	-0.047
Mof_C 	C 	0.988	0.5868	0.3447	0.02
Mof_C 	C 	0.985	0.6402	0.2057	0.298
Mof_C 	C 	0.521	0.5689	0.3297	0.298
Mof_C 	C 	0.014	0.5572	0.3848	-0.017
Mof_C 	C 	0.8107	0.6405	0.1853	-0.046
Mof_C 	C 	0.787	0.6505	0.1426	0.052
Mof_C 	C 	0.493	0.6424	0.1521	-0.001
Mof_C 	C 	0.513	0.633	0.1939	0.017
Mof_C 	C 	0.7199	0.533	0.3911	0.033
Mof_C 	C 	0.6957	0.5654	0.3519	-0.047
Mof_I 	I 	0.73781	0.55035	0.52329	-0.571
Mof_I 	I 	0.74438	0.82096	0.54777	-0.562
Mof_I 	I 	0.76219	0.05035	0.97671	-0.572
Mof_I 	I 	0.75562	0.32096	0.95223	-0.562
Mof_I 	I 	0.26219	0.94965	0.52329	-0.57
Mof_I 	I 	0.25562	0.67904	0.54777	-0.561
Mof_I 	I 	0.23781	0.44965	0.97671	-0.572
Mof_I 	I 	0.24438	0.17904	0.95223	-0.563
Mof_I 	I 	0.26219	0.44965	0.47671	-0.571
Mof_I 	I 	0.25562	0.17904	0.45223	-0.562
Mof_I 	I 	0.23781	0.94965	0.02329	-0.572
Mof_I 	I 	0.24438	0.67904	0.04777	-0.562
Mof_I 	I 	0.73781	0.05035	0.47671	-0.57
Mof_I 	I 	0.74438	0.32096	0.45223	-0.561
Mof_I 	I 	0.76219	0.55035	0.02329	-0.572
Mof_I 	I 	0.75562	0.82096	0.04777	-0.563
Mof_N 	N 	0.6705	0.5882	0.8276	-0.193
Mof_N 	N 	0.8282	0.6325	0.711	-0.186
Mof_N 	N 	0.6215	0.5319	0.9086	-0.217
Mof_N 	N 	0.8733	0.6534	0.6256	-0.219
Mof_N 	N 	0.8295	0.0882	0.6724	-0.194
Mof_N 	N 	0.6718	0.1325	0.789	-0.186
Mof_N 	N 	0.8785	0.0319	0.5914	-0.216
Mof_N 	N 	0.6267	0.1534	0.8744	-0.219
Mof_N 	N 	0.3295	0.9118	0.8276	-0.193
Mof_N 	N 	0.1718	0.8675	0.711	-0.187
Mof_N 	N 	0.3785	0.9681	0.9086	-0.217
Mof_N 	N 	0.1267	0.8466	0.6256	-0.218
Mof_N 	N 	0.1705	0.4118	0.6724	-0.193
Mof_N 	N 	0.3282	0.3675	0.789	-0.186
Mof_N 	N 	0.1215	0.4681	0.5914	-0.217
Mof_N 	N 	0.3733	0.3466	0.8744	-0.219
Mof_N 	N 	0.3295	0.4118	0.1724	-0.193
Mof_N 	N 	0.1718	0.3675	0.289	-0.186
Mof_N 	N 	0.3785	0.4681	0.0914	-0.217
Mof_N 	N 	0.1267	0.3466	0.3744	-0.219
Mof_N 	N 	0.1705	0.9118	0.3276	-0.194
Mof_N 	N 	0.3282	0.8675	0.211	-0.186
Mof_N 	N 	0.1215	0.9681	0.4086	-0.216
Mof_N 	N 	0.3733	0.8466	0.1256	-0.219
Mof_N 	N 	0.6705	0.0882	0.1724	-0.193
Mof_N 	N 	0.8282	0.1325	0.289	-0.187
Mof_N 	N 	0.6215	0.0319	0.0914	-0.217
Mof_N 	N 	0.8733	0.1534	0.3744	-0.218
Mof_N 	N 	0.8295	0.5882	0.3276	-0.193
Mof_N 	N 	0.6718	0.6325	0.211	-0.186
Mof_N 	N 	0.8785	0.5319	0.4086	-0.217
Mof_N 	N 	0.6267	0.6534	0.1256	-0.219
Mof_O 	O 	0.9777	0.6012	0.793	-0.393
Mof_O 	O 	0.516	0.6337	0.7459	-0.384
Mof_O 	O 	0.111	0.5462	0.8489	-0.249
Mof_O 	O 	0.3815	0.6464	0.6844	-0.252
Mof_O 	O 	0.5223	0.1012	0.707	-0.393
Mof_O 	O 	0.984	0.1337	0.7541	-0.384
Mof_O 	O 	0.389	0.0462	0.6511	-0.25
Mof_O 	O 	0.1185	0.1464	0.8156	-0.253
Mof_O 	O 	0.0223	0.8988	0.793	-0.393
Mof_O 	O 	0.484	0.8663	0.7459	-0.384
Mof_O 	O 	0.889	0.9538	0.8489	-0.251
Mof_O 	O 	0.6185	0.8536	0.6844	-0.252
Mof_O 	O 	0.4777	0.3988	0.707	-0.393
Mof_O 	O 	0.016	0.3663	0.7541	-0.384
Mof_O 	O 	0.611	0.4538	0.6511	-0.249
Mof_O 	O 	0.8815	0.3536	0.8156	-0.252
Mof_O 	O 	0.0223	0.3988	0.207	-0.393
Mof_O 	O 	0.484	0.3663	0.2541	-0.384
Mof_O 	O 	0.889	0.4538	0.1511	-0.249
Mof_O 	O 	0.6185	0.3536	0.3156	-0.252
Mof_O 	O 	0.4777	0.8988	0.293	-0.393
Mof_O 	O 	0.016	0.8663	0.2459	-0.384
Mof_O 	O 	0.611	0.9538	0.3489	-0.25
Mof_O 	O 	0.8815	0.8536	0.1844	-0.253
Mof_O 	O 	0.9777	0.1012	0.207	-0.393
Mof_O 	O 	0.516	0.1337	0.2541	-0.384
Mof_O 	O 	0.111	0.0462	0.1511	-0.251
Mof_O 	O 	0.3815	0.1464	0.3156	-0.252
Mof_O 	O 	0.5223	0.6012	0.293	-0.393
Mof_O 	O 	0.984	0.6337	0.2459	-0.384
Mof_O 	O 	0.389	0.5462	0.3489	-0.249
Mof_O 	O 	0.1185	0.6464	0.1844	-0.252
_end
