data_functionalizedCrystal
_audit_creation_method	'EQeq! by Chris Wilmer'
_symmetry_space_group_name_H-M	'P1'
_symmetry_Int_Tables_number	1
_symmetry_cell_setting	triclinic
loop_
_symmetry_equiv_pos_as_xyz
  x,y,z
_cell_length_a	31.7223
_cell_length_b	28.9234
_cell_length_c	6.8965
_cell_angle_alpha	90
_cell_angle_beta	90
_cell_angle_gamma	90
loop_
_atom_site_label
_atom_site_type_symbol
_atom_site_fract_x
_atom_site_fract_y
_atom_site_fract_z
_atom_site_charge
Mof_O 	O 	0.5414	0.9519	0.074	-0.356
Mof_O 	O 	0.5432	0.9538	0.3927	-0.328
Mof_O 	O 	0.7049	0.7918	0.0716	-0.403
Mof_O 	O 	0.7024	0.7886	0.39	-0.369
Mof_C 	C 	0.5912	0.9036	0.2326	-0.053
Mof_C 	C 	0.6071	0.8878	0.0602	-0.088
Mof_C 	C 	0.6389	0.8557	0.0596	-0.07
Mof_C 	C 	0.6548	0.8395	0.2316	-0.077
Mof_C 	C 	0.6389	0.8553	0.404	-0
Mof_C 	C 	0.607	0.8874	0.4045	-0.019
Mof_C 	C 	0.5571	0.938	0.2331	0.355
Mof_C 	C 	0.6889	0.8051	0.231	0.385
Mof_H 	H 	0.5957	0.8994	0.9373	0.126
Mof_H 	H 	0.6503	0.8444	0.9364	0.119
Mof_H 	H 	0.6502	0.8437	0.5269	0.057
Mof_H 	H 	0.5957	0.8987	0.5278	0.065
Mof_O 	O 	0.0414	0.4519	0.074	-0.383
Mof_O 	O 	0.0432	0.4538	0.3927	-0.355
Mof_O 	O 	0.2049	0.2918	0.0716	-0.404
Mof_O 	O 	0.2024	0.2886	0.39	-0.37
Mof_C 	C 	0.0912	0.4036	0.2326	-0.063
Mof_C 	C 	0.1071	0.3878	0.0602	-0.086
Mof_C 	C 	0.1389	0.3557	0.0596	-0.077
Mof_C 	C 	0.1548	0.3395	0.2316	-0.075
Mof_C 	C 	0.1389	0.3553	0.404	-0.006
Mof_C 	C 	0.107	0.3874	0.4045	-0.016
Mof_C 	C 	0.0571	0.438	0.2331	0.362
Mof_C 	C 	0.1889	0.3051	0.231	0.383
Mof_H 	H 	0.0957	0.3994	0.9373	0.121
Mof_H 	H 	0.1503	0.3444	0.9364	0.119
Mof_H 	H 	0.1502	0.3437	0.5269	0.057
Mof_H 	H 	0.0957	0.3987	0.5278	0.06
Mof_O 	O 	0.4586	0.5481	0.574	-0.372
Mof_O 	O 	0.4568	0.5462	0.8927	-0.317
Mof_O 	O 	0.2951	0.7082	0.5716	-0.392
Mof_O 	O 	0.2976	0.7114	0.89	-0.33
Mof_C 	C 	0.4088	0.5964	0.7326	-0.104
Mof_C 	C 	0.3929	0.6122	0.5602	-0.003
Mof_C 	C 	0.3611	0.6443	0.5596	0.006
Mof_C 	C 	0.3452	0.6605	0.7316	-0.115
Mof_C 	C 	0.3611	0.6447	0.904	0.076
Mof_C 	C 	0.393	0.6126	0.9045	0.068
Mof_C 	C 	0.4429	0.562	0.7331	0.386
Mof_C 	C 	0.3111	0.6949	0.731	0.403
Mof_H 	H 	0.4043	0.6006	0.4373	0.049
Mof_H 	H 	0.3497	0.6556	0.4364	0.047
Mof_H 	H 	0.3498	0.6563	0.0269	-0.015
Mof_H 	H 	0.4043	0.6013	0.0278	-0.013
Mof_O 	O 	0.9586	0.0481	0.574	-0.354
Mof_O 	O 	0.9568	0.0462	0.8927	-0.302
Mof_O 	O 	0.7951	0.2082	0.5716	-0.393
Mof_O 	O 	0.7976	0.2114	0.89	-0.331
Mof_C 	C 	0.9088	0.0964	0.7326	-0.098
Mof_C 	C 	0.8929	0.1122	0.5602	-0.008
Mof_C 	C 	0.8611	0.1443	0.5596	0.008
Mof_C 	C 	0.8452	0.1605	0.7316	-0.117
Mof_C 	C 	0.8611	0.1447	0.904	0.079
Mof_C 	C 	0.893	0.1126	0.9045	0.062
Mof_C 	C 	0.9429	0.062	0.7331	0.373
Mof_C 	C 	0.8111	0.1949	0.731	0.404
Mof_H 	H 	0.9043	0.1006	0.4373	0.051
Mof_H 	H 	0.8497	0.1556	0.4364	0.046
Mof_H 	H 	0.8498	0.1563	0.0269	-0.017
Mof_H 	H 	0.9043	0.1013	0.0278	-0.011
Mof_O 	O 	0.4586	0.4519	0.426	-0.367
Mof_O 	O 	0.4568	0.4538	0.1073	-0.372
Mof_O 	O 	0.2951	0.2918	0.4284	-0.387
Mof_O 	O 	0.2976	0.2886	0.11	-0.387
Mof_C 	C 	0.4088	0.4036	0.2674	-0.063
Mof_C 	C 	0.3929	0.3878	0.4398	-0.014
Mof_C 	C 	0.3611	0.3557	0.4404	-0.005
Mof_C 	C 	0.3452	0.3395	0.2684	-0.074
Mof_C 	C 	0.3611	0.3553	0.096	-0.076
Mof_C 	C 	0.393	0.3874	0.0955	-0.086
Mof_C 	C 	0.4429	0.438	0.2669	0.366
Mof_C 	C 	0.3111	0.3051	0.269	0.384
Mof_H 	H 	0.4043	0.3994	0.5627	0.062
Mof_H 	H 	0.3497	0.3444	0.5636	0.059
Mof_H 	H 	0.3498	0.3437	0.9731	0.119
Mof_H 	H 	0.4043	0.3987	0.9722	0.122
Mof_O 	O 	0.9586	0.9519	0.426	-0.325
Mof_O 	O 	0.9568	0.9538	0.1073	-0.331
Mof_O 	O 	0.7951	0.7918	0.4284	-0.386
Mof_O 	O 	0.7976	0.7886	0.11	-0.386
Mof_C 	C 	0.9088	0.9036	0.2674	-0.046
Mof_C 	C 	0.8929	0.8878	0.4398	-0.021
Mof_C 	C 	0.8611	0.8557	0.4404	0.003
Mof_C 	C 	0.8452	0.8395	0.2684	-0.077
Mof_C 	C 	0.8611	0.8553	0.096	-0.067
Mof_C 	C 	0.893	0.8874	0.0955	-0.091
Mof_C 	C 	0.9429	0.938	0.2669	0.351
Mof_C 	C 	0.8111	0.8051	0.269	0.386
Mof_H 	H 	0.9043	0.8994	0.5627	0.069
Mof_H 	H 	0.8497	0.8444	0.5636	0.059
Mof_H 	H 	0.8498	0.8437	0.9731	0.118
Mof_H 	H 	0.9043	0.8987	0.9722	0.128
Mof_O 	O 	0.5414	0.0481	0.926	-0.322
Mof_O 	O 	0.5432	0.0462	0.6073	-0.359
Mof_O 	O 	0.7049	0.2082	0.9284	-0.343
Mof_O 	O 	0.7024	0.2114	0.61	-0.374
Mof_C 	C 	0.5912	0.0964	0.7674	-0.103
Mof_C 	C 	0.6071	0.1122	0.9398	0.065
Mof_C 	C 	0.6389	0.1443	0.9404	0.077
Mof_C 	C 	0.6548	0.1605	0.7684	-0.116
Mof_C 	C 	0.6389	0.1447	0.596	0.005
Mof_C 	C 	0.607	0.1126	0.5955	-0.006
Mof_C 	C 	0.5571	0.062	0.7669	0.378
Mof_C 	C 	0.6889	0.1949	0.769	0.402
Mof_H 	H 	0.5957	0.1006	0.0627	-0.013
Mof_H 	H 	0.6503	0.1556	0.0636	-0.015
Mof_H 	H 	0.6502	0.1563	0.4731	0.045
Mof_H 	H 	0.5957	0.1013	0.4722	0.047
Mof_O 	O 	0.0414	0.5481	0.926	-0.325
Mof_O 	O 	0.0432	0.5462	0.6073	-0.359
Mof_O 	O 	0.2049	0.7082	0.9284	-0.343
Mof_O 	O 	0.2024	0.7114	0.61	-0.374
Mof_C 	C 	0.0912	0.5964	0.7674	-0.103
Mof_C 	C 	0.1071	0.6122	0.9398	0.067
Mof_C 	C 	0.1389	0.6443	0.9404	0.077
Mof_C 	C 	0.1548	0.6605	0.7684	-0.115
Mof_C 	C 	0.1389	0.6447	0.596	0.005
Mof_C 	C 	0.107	0.6126	0.5955	-0.004
Mof_C 	C 	0.0571	0.562	0.7669	0.382
Mof_C 	C 	0.1889	0.6949	0.769	0.403
Mof_H 	H 	0.0957	0.6006	0.0627	-0.012
Mof_H 	H 	0.1503	0.6556	0.0636	-0.014
Mof_H 	H 	0.1502	0.6563	0.4731	0.045
Mof_H 	H 	0.0957	0.6013	0.4722	0.048
Mof_O 	O 	0.4586	0.0481	0.926	-0.322
Mof_O 	O 	0.4568	0.0462	0.6073	-0.359
Mof_O 	O 	0.2951	0.2082	0.9284	-0.343
Mof_O 	O 	0.2976	0.2114	0.61	-0.374
Mof_C 	C 	0.4088	0.0964	0.7674	-0.103
Mof_C 	C 	0.3929	0.1122	0.9398	0.065
Mof_C 	C 	0.3611	0.1443	0.9404	0.077
Mof_C 	C 	0.3452	0.1605	0.7684	-0.115
Mof_C 	C 	0.3611	0.1447	0.596	0.005
Mof_C 	C 	0.393	0.1126	0.5955	-0.006
Mof_C 	C 	0.4429	0.062	0.7669	0.378
Mof_C 	C 	0.3111	0.1949	0.769	0.402
Mof_H 	H 	0.4043	0.1006	0.0627	-0.013
Mof_H 	H 	0.3497	0.1556	0.0636	-0.015
Mof_H 	H 	0.3498	0.1563	0.4731	0.045
Mof_H 	H 	0.4043	0.1013	0.4722	0.047
Mof_O 	O 	0.9586	0.5481	0.926	-0.31
Mof_O 	O 	0.9568	0.5462	0.6073	-0.345
Mof_O 	O 	0.7951	0.7082	0.9284	-0.343
Mof_O 	O 	0.7976	0.7114	0.61	-0.373
Mof_C 	C 	0.9088	0.5964	0.7674	-0.097
Mof_C 	C 	0.8929	0.6122	0.9398	0.065
Mof_C 	C 	0.8611	0.6443	0.9404	0.08
Mof_C 	C 	0.8452	0.6605	0.7684	-0.115
Mof_C 	C 	0.8611	0.6447	0.596	0.009
Mof_C 	C 	0.893	0.6126	0.5955	-0.006
Mof_C 	C 	0.9429	0.562	0.7669	0.38
Mof_C 	C 	0.8111	0.6949	0.769	0.404
Mof_H 	H 	0.9043	0.6006	0.0627	-0.008
Mof_H 	H 	0.8497	0.6556	0.0636	-0.014
Mof_H 	H 	0.8498	0.6563	0.4731	0.046
Mof_H 	H 	0.9043	0.6013	0.4722	0.051
Mof_O 	O 	0.5414	0.4519	0.426	-0.367
Mof_O 	O 	0.5432	0.4538	0.1073	-0.372
Mof_O 	O 	0.7049	0.2918	0.4284	-0.387
Mof_O 	O 	0.7024	0.2886	0.11	-0.387
Mof_C 	C 	0.5912	0.4036	0.2674	-0.063
Mof_C 	C 	0.6071	0.3878	0.4398	-0.015
Mof_C 	C 	0.6389	0.3557	0.4404	-0.005
Mof_C 	C 	0.6548	0.3395	0.2684	-0.074
Mof_C 	C 	0.6389	0.3553	0.096	-0.076
Mof_C 	C 	0.607	0.3874	0.0955	-0.086
Mof_C 	C 	0.5571	0.438	0.2669	0.366
Mof_C 	C 	0.6889	0.3051	0.269	0.384
Mof_H 	H 	0.5957	0.3994	0.5627	0.062
Mof_H 	H 	0.6503	0.3444	0.5636	0.059
Mof_H 	H 	0.6502	0.3437	0.9731	0.119
Mof_H 	H 	0.5957	0.3987	0.9722	0.122
Mof_O 	O 	0.0414	0.9519	0.426	-0.34
Mof_O 	O 	0.0432	0.9538	0.1073	-0.345
Mof_O 	O 	0.2049	0.7918	0.4284	-0.387
Mof_O 	O 	0.2024	0.7886	0.11	-0.387
Mof_C 	C 	0.0912	0.9036	0.2674	-0.052
Mof_C 	C 	0.1071	0.8878	0.4398	-0.02
Mof_C 	C 	0.1389	0.8557	0.4404	-0
Mof_C 	C 	0.1548	0.8395	0.2684	-0.077
Mof_C 	C 	0.1389	0.8553	0.096	-0.071
Mof_C 	C 	0.107	0.8874	0.0955	-0.09
Mof_C 	C 	0.0571	0.938	0.2669	0.353
Mof_C 	C 	0.1889	0.8051	0.269	0.385
Mof_H 	H 	0.0957	0.8994	0.5627	0.066
Mof_H 	H 	0.1503	0.8444	0.5636	0.058
Mof_H 	H 	0.1502	0.8437	0.9731	0.118
Mof_H 	H 	0.0957	0.8987	0.9722	0.125
Mof_O 	O 	0.5414	0.5481	0.574	-0.372
Mof_O 	O 	0.5432	0.5462	0.8927	-0.318
Mof_O 	O 	0.7049	0.7082	0.5716	-0.392
Mof_O 	O 	0.7024	0.7114	0.89	-0.33
Mof_C 	C 	0.5912	0.5964	0.7326	-0.104
Mof_C 	C 	0.6071	0.6122	0.5602	-0.003
Mof_C 	C 	0.6389	0.6443	0.5596	0.006
Mof_C 	C 	0.6548	0.6605	0.7316	-0.115
Mof_C 	C 	0.6389	0.6447	0.904	0.076
Mof_C 	C 	0.607	0.6126	0.9045	0.068
Mof_C 	C 	0.5571	0.562	0.7331	0.386
Mof_C 	C 	0.6889	0.6949	0.731	0.403
Mof_H 	H 	0.5957	0.6006	0.4373	0.049
Mof_H 	H 	0.6503	0.6556	0.4364	0.047
Mof_H 	H 	0.6502	0.6563	0.0269	-0.015
Mof_H 	H 	0.5957	0.6013	0.0278	-0.013
Mof_O 	O 	0.0414	0.0481	0.574	-0.369
Mof_O 	O 	0.0432	0.0462	0.8927	-0.317
Mof_O 	O 	0.2049	0.2082	0.5716	-0.393
Mof_O 	O 	0.2024	0.2114	0.89	-0.331
Mof_C 	C 	0.0912	0.0964	0.7326	-0.104
Mof_C 	C 	0.1071	0.1122	0.5602	-0.007
Mof_C 	C 	0.1389	0.1443	0.5596	0.005
Mof_C 	C 	0.1548	0.1605	0.7316	-0.117
Mof_C 	C 	0.1389	0.1447	0.904	0.076
Mof_C 	C 	0.107	0.1126	0.9045	0.064
Mof_C 	C 	0.0571	0.062	0.7331	0.376
Mof_C 	C 	0.1889	0.1949	0.731	0.403
Mof_H 	H 	0.0957	0.1006	0.4373	0.047
Mof_H 	H 	0.1503	0.1556	0.4364	0.045
Mof_H 	H 	0.1502	0.1563	0.0269	-0.017
Mof_H 	H 	0.0957	0.1013	0.0278	-0.015
Mof_O 	O 	0.4586	0.9519	0.074	-0.357
Mof_O 	O 	0.4568	0.9538	0.3927	-0.329
Mof_O 	O 	0.2951	0.7918	0.0716	-0.404
Mof_O 	O 	0.2976	0.7886	0.39	-0.369
Mof_C 	C 	0.4088	0.9036	0.2326	-0.053
Mof_C 	C 	0.3929	0.8878	0.0602	-0.088
Mof_C 	C 	0.3611	0.8557	0.0596	-0.071
Mof_C 	C 	0.3452	0.8395	0.2316	-0.077
Mof_C 	C 	0.3611	0.8553	0.404	-0
Mof_C 	C 	0.393	0.8874	0.4045	-0.019
Mof_C 	C 	0.4429	0.938	0.2331	0.355
Mof_C 	C 	0.3111	0.8051	0.231	0.385
Mof_H 	H 	0.4043	0.8994	0.9373	0.126
Mof_H 	H 	0.3497	0.8444	0.9364	0.119
Mof_H 	H 	0.3498	0.8437	0.5269	0.057
Mof_H 	H 	0.4043	0.8987	0.5278	0.065
Mof_O 	O 	0.9586	0.4519	0.074	-0.368
Mof_O 	O 	0.9568	0.4538	0.3927	-0.341
Mof_O 	O 	0.7951	0.2918	0.0716	-0.404
Mof_O 	O 	0.7976	0.2886	0.39	-0.369
Mof_C 	C 	0.9088	0.4036	0.2326	-0.057
Mof_C 	C 	0.8929	0.3878	0.0602	-0.087
Mof_C 	C 	0.8611	0.3557	0.0596	-0.073
Mof_C 	C 	0.8452	0.3395	0.2316	-0.076
Mof_C 	C 	0.8611	0.3553	0.404	-0.003
Mof_C 	C 	0.893	0.3874	0.4045	-0.017
Mof_C 	C 	0.9429	0.438	0.2331	0.36
Mof_C 	C 	0.8111	0.3051	0.231	0.384
Mof_H 	H 	0.9043	0.3994	0.9373	0.124
Mof_H 	H 	0.8497	0.3444	0.9364	0.119
Mof_H 	H 	0.8498	0.3437	0.5269	0.057
Mof_H 	H 	0.9043	0.3987	0.5278	0.063
Mof_Fe	Fe	0.75	0.75	-0	1.02
Mof_Fe	Fe	0.25	0.75	0.5	1.12
Mof_Fe	Fe	0.25	0.25	0.5	1.119
Mof_Fe	Fe	0.75	0.25	-0	1.018
Mof_Fe	Fe	0.25	0.25	-0	1.018
Mof_Fe	Fe	0.75	0.25	0.5	1.119
Mof_Fe	Fe	0.75	0.75	0.5	1.12
Mof_Fe	Fe	0.25	0.75	-0	1.019
Mof_O 	O 	0.75	0.7209	0.25	-0.396
Mof_O 	O 	0.25	0.7791	0.75	-0.357
Mof_O 	O 	0.25	0.2209	0.25	-0.397
Mof_O 	O 	0.75	0.2791	0.75	-0.358
Mof_O 	O 	0.25	0.2791	0.75	-0.358
Mof_O 	O 	0.75	0.2209	0.25	-0.397
Mof_O 	O 	0.75	0.7791	0.75	-0.357
Mof_O 	O 	0.25	0.7209	0.25	-0.396
Mof_Fe	Fe	0.5	0	-0	0.874
Mof_Fe	Fe	-0	0.5	-0	0.918
Mof_Fe	Fe	0.5	0.5	0.5	1.044
Mof_Fe	Fe	4.07564e-34	0	0.5	0.952
Mof_O 	O 	0.5	0.9637	0.75	-0.259
Mof_O 	O 	-1.38335e-33	0.4637	0.75	-0.301
Mof_O 	O 	0.5	0.5363	0.25	-0.336
Mof_O 	O 	7.02457e-34	0.0363	0.25	-0.338
Mof_O 	O 	0.5	0.4637	0.75	-0.297
Mof_O 	O 	-5.37276e-33	0.9637	0.75	-0.266
Mof_O 	O 	0.5	0.0363	0.25	-0.335
Mof_O 	O 	3.69451e-33	0.5363	0.25	-0.344
Mof_Fe	Fe	0.5	0	0.5	0.923
Mof_Fe	Fe	-5.89786e-34	0.5	0.5	0.965
Mof_Fe	Fe	0.5	0.5	-0	0.891
Mof_Fe	Fe	-0	0	-0	0.804
_end
