data_functionalizedCrystal
_audit_creation_method	'EQeq! by Chris Wilmer'
_symmetry_space_group_name_H-M	'P1'
_symmetry_Int_Tables_number	1
_symmetry_cell_setting	triclinic
loop_
_symmetry_equiv_pos_as_xyz
  x,y,z
_cell_length_a	6.9104
_cell_length_b	7.4253
_cell_length_c	8.2544
_cell_angle_alpha	90.397
_cell_angle_beta	109.835
_cell_angle_gamma	93.137
loop_
_atom_site_label
_atom_site_type_symbol
_atom_site_fract_x
_atom_site_fract_y
_atom_site_fract_z
_atom_site_charge
Mof_Co	Co	-0	0.5	-0	1.012
Mof_Co	Co	0.5	0	-0	0.982
Mof_H 	H 	0.442	0.795	0.547	0.088
Mof_H 	H 	0.558	0.205	0.453	-0.003
Mof_C 	C 	0.5356	0.5681	0.6665	-0.028
Mof_C 	C 	0.5804	0.3921	0.642	-0.095
Mof_C 	C 	0.4561	0.6745	0.5242	-0.02
Mof_C 	C 	0.648	0.2595	0.7847	0.354
Mof_C 	C 	0.5745	0.657	0.8396	0.333
Mof_C 	C 	0.4644	0.4319	0.3335	-0.143
Mof_C 	C 	0.4196	0.6079	0.358	-0.063
Mof_C 	C 	0.5439	0.3255	0.4758	0.048
Mof_C 	C 	0.352	0.7405	0.2153	0.348
Mof_C 	C 	0.4255	0.343	0.1604	0.385
Mof_O 	O 	0.4441	0.7619	0.8503	-0.261
Mof_O 	O 	0.737	0.6295	0.9623	-0.237
Mof_O 	O 	0.8293	0.2682	0.8884	-0.301
Mof_O 	O 	0.5117	0.143	0.7877	-0.384
Mof_O 	O 	0.5559	0.2381	0.1497	-0.518
Mof_O 	O 	0.263	0.3705	0.0377	-0.598
Mof_O 	O 	0.1707	0.7318	0.1116	-0.524
Mof_O 	O 	0.4883	0.857	0.2123	-0.375
_end
