data_functionalizedCrystal
_audit_creation_method	'EQeq! by Chris Wilmer'
_symmetry_space_group_name_H-M	'P1'
_symmetry_Int_Tables_number	1
_symmetry_cell_setting	triclinic
loop_
_symmetry_equiv_pos_as_xyz
  x,y,z
_cell_length_a	14.8209
_cell_length_b	19.1508
_cell_length_c	31.354
_cell_angle_alpha	101.865
_cell_angle_beta	90
_cell_angle_gamma	112.765
loop_
_atom_site_label
_atom_site_type_symbol
_atom_site_fract_x
_atom_site_fract_y
_atom_site_fract_z
_atom_site_charge
Mof_Zn	Zn	0.71704	0.24552	0.56034	1.165
Mof_Zn	Zn	0.18737	0.65844	0.73121	1.164
Mof_Zn	Zn	0.03653	0.8282	0.9102	1.164
Mof_Zn	Zn	0.52848	0.24552	0.06034	1.164
Mof_Zn	Zn	0.47107	0.65844	0.23121	1.163
Mof_Zn	Zn	0.79167	0.8282	0.4102	1.164
Mof_H 	H 	0.6108	0.1416	0.6174	-0.018
Mof_H 	H 	0.4788	0.0324	0.6175	0.088
Mof_H 	H 	0.3832	0.0428	0.5	0.082
Mof_H 	H 	0.5304	0.148	0.5011	-0.012
Mof_H 	H 	0.5729	0.3178	0.576	0.001
Mof_H 	H 	0.5462	0.4182	0.6232	0.085
Mof_H 	H 	0.7974	0.462	0.6941	0.094
Mof_H 	H 	0.8173	0.3622	0.6443	-0.007
Mof_H 	H 	0.3963	0.5112	0.6721	0.081
Mof_H 	H 	0.2549	0.5352	0.6799	-0.012
Mof_H 	H 	0.3904	0.7246	0.7691	-0.017
Mof_H 	H 	0.5368	0.7052	0.7658	0.082
Mof_H 	H 	0.0806	0.6514	0.6463	-0.009
Mof_H 	H 	0.0968	0.7278	0.5954	0.088
Mof_H 	H 	0.3437	0.8878	0.6639	0.088
Mof_H 	H 	0.3212	0.806	0.7128	-0.026
Mof_H 	H 	0.7242	0.7318	0.816	0.093
Mof_H 	H 	0.8419	0.8026	0.8746	-0.003
Mof_H 	H 	0.9961	0.6776	0.8393	-0.009
Mof_H 	H 	0.8819	0.6012	0.7808	0.081
Mof_H 	H 	0.8489	0.7594	0.4761	-0.011
Mof_H 	H 	0.9818	0.7762	0.5231	0.081
Mof_H 	H 	0.1341	0.9758	0.4849	0.072
Mof_H 	H 	0.9958	0.9544	0.4408	-0.012
Mof_H 	H 	0.5308	0.1416	0.1174	-0.018
Mof_H 	H 	0.5536	0.0324	0.1175	0.087
Mof_H 	H 	0.6596	0.0428	-0	0.08
Mof_H 	H 	0.6176	0.148	0.0011	-0.013
Mof_H 	H 	0.7449	0.3178	0.076	0.001
Mof_H 	H 	0.872	0.4182	0.1232	0.085
Mof_H 	H 	0.6646	0.462	0.1941	0.094
Mof_H 	H 	0.5449	0.3622	0.1443	-0.007
Mof_H 	H 	0.1149	0.5112	0.1721	0.081
Mof_H 	H 	0.2803	0.5352	0.1799	-0.012
Mof_H 	H 	0.3342	0.7246	0.2691	-0.017
Mof_H 	H 	0.1684	0.7052	0.2658	0.082
Mof_H 	H 	0.5708	0.6514	0.1463	-0.009
Mof_H 	H 	0.631	0.7278	0.0954	0.088
Mof_H 	H 	0.5441	0.8878	0.1639	0.088
Mof_H 	H 	0.4848	0.806	0.2128	-0.026
Mof_H 	H 	0.0076	0.7318	0.316	0.092
Mof_H 	H 	0.9607	0.8026	0.3746	-0.003
Mof_H 	H 	0.6815	0.6776	0.3393	-0.009
Mof_H 	H 	0.7193	0.6012	0.2808	0.081
Mof_H 	H 	0.9105	0.7594	0.9761	-0.011
Mof_H 	H 	0.7944	0.7762	0.0231	0.081
Mof_H 	H 	0.8417	0.9758	0.9849	0.072
Mof_H 	H 	0.9586	0.9544	0.9408	-0.011
Mof_C 	C 	0.5655	0.1184	0.5921	0.085
Mof_C 	C 	0.4861	0.0558	0.5931	-0.132
Mof_C 	C 	0.4126	0.0242	0.5582	0.06
Mof_C 	C 	0.4308	0.0606	0.5244	-0.137
Mof_C 	C 	0.5192	0.124	0.5254	0.094
Mof_C 	C 	0.6191	0.348	0.6004	0.068
Mof_C 	C 	0.6023	0.4076	0.6284	-0.115
Mof_C 	C 	0.6697	0.4508	0.664	0.05
Mof_C 	C 	0.7501	0.4332	0.6698	-0.129
Mof_C 	C 	0.7613	0.3734	0.6401	0.079
Mof_C 	C 	0.6571	0.5144	0.6958	0.088
Mof_C 	C 	0.5712	0.587	0.7198	0.105
Mof_C 	C 	0.7171	0.6136	0.7547	0.102
Mof_C 	C 	0.4813	0.6026	0.7186	0.058
Mof_C 	C 	0.3975	0.5552	0.693	-0.124
Mof_C 	C 	0.3136	0.5708	0.6972	0.077
Mof_C 	C 	0.3919	0.6804	0.7491	0.069
Mof_C 	C 	0.4796	0.669	0.7476	-0.116
Mof_C 	C 	0.1353	0.6998	0.6499	0.071
Mof_C 	C 	0.1444	0.7456	0.6197	-0.125
Mof_C 	C 	0.289	0.8394	0.6595	-0.132
Mof_C 	C 	0.2744	0.7894	0.6883	0.094
Mof_C 	C 	0.7918	0.6582	0.792	0.059
Mof_C 	C 	0.7791	0.7192	0.8202	-0.118
Mof_C 	C 	0.8504	0.7612	0.8549	0.073
Mof_C 	C 	0.9401	0.6886	0.8347	0.068
Mof_C 	C 	0.8724	0.643	0.7996	-0.127
Mof_C 	C 	0.908	0.8044	0.4784	0.065
Mof_C 	C 	0.9866	0.8132	0.5064	-0.116
Mof_C 	C 	0.071	0.8778	0.5086	0.054
Mof_C 	C 	0.0756	0.931	0.4838	-0.123
Mof_C 	C 	0.9931	0.9176	0.4575	0.08
Mof_C 	C 	0.1604	0.8904	0.5378	0.099
Mof_C 	C 	0.2299	0.8638	0.5921	0.11
Mof_C 	C 	0.3197	0.9578	0.5599	0.092
Mof_C 	C 	0.219	0.814	0.6244	0.074
Mof_C 	C 	0.5529	0.1184	0.0921	0.084
Mof_C 	C 	0.5697	0.0558	0.0931	-0.131
Mof_C 	C 	0.6116	0.0242	0.0582	0.058
Mof_C 	C 	0.6298	0.0606	0.0244	-0.136
Mof_C 	C 	0.6048	0.124	0.0254	0.094
Mof_C 	C 	0.7289	0.348	0.1004	0.067
Mof_C 	C 	0.8053	0.4076	0.1284	-0.115
Mof_C 	C 	0.7811	0.4508	0.164	0.05
Mof_C 	C 	0.6831	0.4332	0.1698	-0.129
Mof_C 	C 	0.6121	0.3734	0.1401	0.079
Mof_C 	C 	0.8573	0.5144	0.1958	0.088
Mof_C 	C 	0.0158	0.587	0.2198	0.105
Mof_C 	C 	0.8965	0.6136	0.2547	0.102
Mof_C 	C 	0.1213	0.6026	0.2186	0.058
Mof_C 	C 	0.1577	0.5552	0.193	-0.124
Mof_C 	C 	0.2572	0.5708	0.1972	0.077
Mof_C 	C 	0.2885	0.6804	0.2491	0.069
Mof_C 	C 	0.1894	0.669	0.2476	-0.116
Mof_C 	C 	0.5645	0.6998	0.1499	0.071
Mof_C 	C 	0.6012	0.7456	0.1197	-0.125
Mof_C 	C 	0.5504	0.8394	0.1595	-0.132
Mof_C 	C 	0.515	0.7894	0.1883	0.094
Mof_C 	C 	0.8664	0.6582	0.292	0.058
Mof_C 	C 	0.9401	0.7192	0.3202	-0.117
Mof_C 	C 	0.9108	0.7612	0.3549	0.072
Mof_C 	C 	0.7485	0.6886	0.3347	0.068
Mof_C 	C 	0.7706	0.643	0.2996	-0.127
Mof_C 	C 	0.8964	0.8044	0.9784	0.068
Mof_C 	C 	0.8266	0.8132	0.0064	-0.12
Mof_C 	C 	0.8068	0.8778	0.0086	0.054
Mof_C 	C 	0.8554	0.931	0.9838	-0.119
Mof_C 	C 	0.9245	0.9176	0.9575	0.078
Mof_C 	C 	0.73	0.8904	0.0378	0.1
Mof_C 	C 	0.6339	0.8638	0.0921	0.11
Mof_C 	C 	0.6381	0.9578	0.0599	0.094
Mof_C 	C 	0.595	0.814	0.1244	0.074
Mof_I 	I 	0.72689	0.2853	0.48782	-0.368
Mof_I 	I 	0.84611	0.21324	0.59572	-0.382
Mof_I 	I 	0.21059	0.74662	0.80674	-0.403
Mof_I 	I 	0.03304	0.53604	0.70634	-0.38
Mof_I 	I 	0.11799	0.94444	0.87479	-0.348
Mof_I 	I 	0.11395	0.75674	0.94626	-0.385
Mof_I 	I 	0.55841	0.2853	0.98782	-0.366
Mof_I 	I 	0.36713	0.21324	0.09572	-0.382
Mof_I 	I 	0.53603	0.74662	0.30674	-0.403
Mof_I 	I 	0.503	0.53604	0.20634	-0.38
Mof_I 	I 	0.82645	0.94444	0.37479	-0.346
Mof_I 	I 	0.64279	0.75674	0.44626	-0.385
Mof_N 	N 	0.5862	0.1514	0.5575	-0.282
Mof_N 	N 	0.6973	0.3318	0.6064	-0.273
Mof_N 	N 	0.7276	0.5536	0.7282	-0.141
Mof_N 	N 	0.6416	0.6342	0.7512	-0.135
Mof_N 	N 	0.575	0.5274	0.6899	-0.138
Mof_N 	N 	0.9297	0.748	0.8626	-0.271
Mof_N 	N 	0.3117	0.6332	0.7242	-0.274
Mof_N 	N 	0.2025	0.7228	0.684	-0.279
Mof_N 	N 	0.9113	0.856	0.4545	-0.272
Mof_N 	N 	0.1481	0.8468	0.5656	-0.138
Mof_N 	N 	0.3134	0.9188	0.5909	-0.137
Mof_N 	N 	0.2454	0.9458	0.5312	-0.148
Mof_N 	N 	0.5652	0.1514	0.0575	-0.282
Mof_N 	N 	0.6345	0.3318	0.1064	-0.273
Mof_N 	N 	0.826	0.5536	0.2282	-0.141
Mof_N 	N 	0.9926	0.6342	0.2512	-0.135
Mof_N 	N 	0.9524	0.5274	0.1899	-0.138
Mof_N 	N 	0.8183	0.748	0.3626	-0.271
Mof_N 	N 	0.3215	0.6332	0.2242	-0.274
Mof_N 	N 	0.5203	0.7228	0.184	-0.279
Mof_N 	N 	0.9447	0.856	0.9545	-0.272
Mof_N 	N 	0.6987	0.8468	0.0656	-0.138
Mof_N 	N 	0.6054	0.9188	0.0909	-0.138
Mof_N 	N 	0.7004	0.9458	0.0312	-0.148
Mof_Zn	Zn	0.47152	0.75448	0.93966	1.165
Mof_Zn	Zn	0.52893	0.34156	0.76879	1.163
Mof_Zn	Zn	0.20833	0.1718	0.5898	1.164
Mof_Zn	Zn	0.28296	0.75448	0.43966	1.164
Mof_Zn	Zn	0.81263	0.34156	0.26879	1.163
Mof_Zn	Zn	0.96347	0.1718	0.0898	1.164
Mof_H 	H 	0.4692	0.8584	0.8826	-0.018
Mof_H 	H 	0.4464	0.9676	0.8825	0.087
Mof_H 	H 	0.3404	0.9572	-0	0.079
Mof_H 	H 	0.3824	0.852	0.9989	-0.011
Mof_H 	H 	0.2551	0.6822	0.924	0.001
Mof_H 	H 	0.128	0.5818	0.8768	0.085
Mof_H 	H 	0.3354	0.538	0.8059	0.094
Mof_H 	H 	0.4551	0.6378	0.8557	-0.007
Mof_H 	H 	0.8851	0.4888	0.8279	0.081
Mof_H 	H 	0.7197	0.4648	0.8201	-0.012
Mof_H 	H 	0.6658	0.2754	0.7309	-0.017
Mof_H 	H 	0.8316	0.2948	0.7342	0.082
Mof_H 	H 	0.4292	0.3486	0.8537	-0.009
Mof_H 	H 	0.369	0.2722	0.9046	0.088
Mof_H 	H 	0.4559	0.1122	0.8361	0.088
Mof_H 	H 	0.5152	0.194	0.7872	-0.026
Mof_H 	H 	0.9924	0.2682	0.684	0.092
Mof_H 	H 	0.0393	0.1974	0.6254	-0.003
Mof_H 	H 	0.3185	0.3224	0.6607	-0.009
Mof_H 	H 	0.2807	0.3988	0.7192	0.081
Mof_H 	H 	0.0895	0.2406	0.0239	-0.01
Mof_H 	H 	0.2056	0.2238	0.9769	0.081
Mof_H 	H 	0.1583	0.0242	0.0151	0.073
Mof_H 	H 	0.0414	0.0456	0.0592	-0.011
Mof_H 	H 	0.3892	0.8584	0.3826	-0.018
Mof_H 	H 	0.5212	0.9676	0.3825	0.087
Mof_H 	H 	0.6168	0.9572	0.5	0.082
Mof_H 	H 	0.4696	0.852	0.4989	-0.012
Mof_H 	H 	0.4271	0.6822	0.424	0.001
Mof_H 	H 	0.4538	0.5818	0.3768	0.085
Mof_H 	H 	0.2026	0.538	0.3059	0.094
Mof_H 	H 	0.1827	0.6378	0.3557	-0.007
Mof_H 	H 	0.6037	0.4888	0.3279	0.081
Mof_H 	H 	0.7451	0.4648	0.3201	-0.012
Mof_H 	H 	0.6096	0.2754	0.2309	-0.017
Mof_H 	H 	0.4632	0.2948	0.2342	0.082
Mof_H 	H 	0.9194	0.3486	0.3537	-0.009
Mof_H 	H 	0.9032	0.2722	0.4046	0.088
Mof_H 	H 	0.6563	0.1122	0.3361	0.088
Mof_H 	H 	0.6788	0.194	0.2872	-0.026
Mof_H 	H 	0.2758	0.2682	0.184	0.093
Mof_H 	H 	0.1581	0.1974	0.1254	-0.003
Mof_H 	H 	0.0039	0.3224	0.1607	-0.008
Mof_H 	H 	0.1181	0.3988	0.2192	0.081
Mof_H 	H 	0.1511	0.2406	0.5239	-0.011
Mof_H 	H 	0.0182	0.2238	0.4769	0.081
Mof_H 	H 	0.8659	0.0242	0.5151	0.072
Mof_H 	H 	0.0042	0.0456	0.5592	-0.012
Mof_C 	C 	0.4471	0.8816	0.9079	0.084
Mof_C 	C 	0.4303	0.9442	0.9069	-0.13
Mof_C 	C 	0.3884	0.9758	0.9418	0.056
Mof_C 	C 	0.3702	0.9394	0.9756	-0.132
Mof_C 	C 	0.3952	0.876	0.9746	0.092
Mof_C 	C 	0.2711	0.652	0.8996	0.068
Mof_C 	C 	0.1947	0.5924	0.8716	-0.115
Mof_C 	C 	0.2189	0.5492	0.836	0.05
Mof_C 	C 	0.3169	0.5668	0.8302	-0.129
Mof_C 	C 	0.3879	0.6266	0.8599	0.079
Mof_C 	C 	0.1427	0.4856	0.8042	0.088
Mof_C 	C 	0.9842	0.413	0.7802	0.105
Mof_C 	C 	0.1035	0.3864	0.7453	0.102
Mof_C 	C 	0.8787	0.3974	0.7814	0.059
Mof_C 	C 	0.8423	0.4448	0.807	-0.124
Mof_C 	C 	0.7428	0.4292	0.8028	0.077
Mof_C 	C 	0.7115	0.3196	0.7509	0.069
Mof_C 	C 	0.8106	0.331	0.7524	-0.116
Mof_C 	C 	0.4355	0.3002	0.8501	0.072
Mof_C 	C 	0.3988	0.2544	0.8803	-0.125
Mof_C 	C 	0.4496	0.1606	0.8405	-0.132
Mof_C 	C 	0.485	0.2106	0.8117	0.094
Mof_C 	C 	0.1336	0.3418	0.708	0.058
Mof_C 	C 	0.0599	0.2808	0.6798	-0.117
Mof_C 	C 	0.0892	0.2388	0.6451	0.072
Mof_C 	C 	0.2515	0.3114	0.6653	0.068
Mof_C 	C 	0.2294	0.357	0.7004	-0.127
Mof_C 	C 	0.1036	0.1956	0.0216	0.063
Mof_C 	C 	0.1734	0.1868	0.9936	-0.116
Mof_C 	C 	0.1932	0.1222	0.9914	0.057
Mof_C 	C 	0.1446	0.069	0.0162	-0.123
Mof_C 	C 	0.0755	0.0824	0.0425	0.079
Mof_C 	C 	0.27	0.1096	0.9622	0.1
Mof_C 	C 	0.3661	0.1362	0.9079	0.11
Mof_C 	C 	0.3619	0.0422	0.9401	0.095
Mof_C 	C 	0.405	0.186	0.8756	0.074
Mof_C 	C 	0.4345	0.8816	0.4079	0.085
Mof_C 	C 	0.5139	0.9442	0.4069	-0.132
Mof_C 	C 	0.5874	0.9758	0.4418	0.06
Mof_C 	C 	0.5692	0.9394	0.4756	-0.137
Mof_C 	C 	0.4808	0.876	0.4746	0.094
Mof_C 	C 	0.3809	0.652	0.3996	0.068
Mof_C 	C 	0.3977	0.5924	0.3716	-0.115
Mof_C 	C 	0.3303	0.5492	0.336	0.05
Mof_C 	C 	0.2499	0.5668	0.3302	-0.129
Mof_C 	C 	0.2387	0.6266	0.3599	0.079
Mof_C 	C 	0.3429	0.4856	0.3042	0.088
Mof_C 	C 	0.4288	0.413	0.2802	0.105
Mof_C 	C 	0.2829	0.3864	0.2453	0.102
Mof_C 	C 	0.5187	0.3974	0.2814	0.058
Mof_C 	C 	0.6025	0.4448	0.307	-0.124
Mof_C 	C 	0.6864	0.4292	0.3028	0.077
Mof_C 	C 	0.6081	0.3196	0.2509	0.069
Mof_C 	C 	0.5204	0.331	0.2524	-0.116
Mof_C 	C 	0.8647	0.3002	0.3501	0.071
Mof_C 	C 	0.8556	0.2544	0.3803	-0.125
Mof_C 	C 	0.711	0.1606	0.3405	-0.132
Mof_C 	C 	0.7256	0.2106	0.3117	0.094
Mof_C 	C 	0.2082	0.3418	0.208	0.059
Mof_C 	C 	0.2209	0.2808	0.1798	-0.118
Mof_C 	C 	0.1496	0.2388	0.1451	0.073
Mof_C 	C 	0.0599	0.3114	0.1653	0.068
Mof_C 	C 	0.1276	0.357	0.2004	-0.127
Mof_C 	C 	0.092	0.1956	0.5216	0.065
Mof_C 	C 	0.0134	0.1868	0.4936	-0.116
Mof_C 	C 	0.929	0.1222	0.4914	0.054
Mof_C 	C 	0.9244	0.069	0.5162	-0.123
Mof_C 	C 	0.0069	0.0824	0.5425	0.08
Mof_C 	C 	0.8396	0.1096	0.4622	0.099
Mof_C 	C 	0.7701	0.1362	0.4079	0.11
Mof_C 	C 	0.6803	0.0422	0.4401	0.093
Mof_C 	C 	0.781	0.186	0.3756	0.074
Mof_I 	I 	0.44159	0.7147	0.01218	-0.369
Mof_I 	I 	0.63287	0.78676	0.90428	-0.381
Mof_I 	I 	0.46397	0.25338	0.69326	-0.403
Mof_I 	I 	0.497	0.46396	0.79366	-0.38
Mof_I 	I 	0.17355	0.05556	0.62521	-0.345
Mof_I 	I 	0.35721	0.24326	0.55374	-0.385
Mof_I 	I 	0.27311	0.7147	0.51218	-0.368
Mof_I 	I 	0.15389	0.78676	0.40428	-0.382
Mof_I 	I 	0.78941	0.25338	0.19326	-0.403
Mof_I 	I 	0.96696	0.46396	0.29366	-0.38
Mof_I 	I 	0.88201	0.05556	0.12521	-0.348
Mof_I 	I 	0.88605	0.24326	0.05374	-0.386
Mof_N 	N 	0.4348	0.8486	0.9425	-0.281
Mof_N 	N 	0.3655	0.6682	0.8936	-0.273
Mof_N 	N 	0.174	0.4464	0.7718	-0.141
Mof_N 	N 	0.0074	0.3658	0.7488	-0.135
Mof_N 	N 	0.0476	0.4726	0.8101	-0.138
Mof_N 	N 	0.1817	0.252	0.6374	-0.271
Mof_N 	N 	0.6785	0.3668	0.7758	-0.274
Mof_N 	N 	0.4797	0.2772	0.816	-0.279
Mof_N 	N 	0.0553	0.144	0.0455	-0.271
Mof_N 	N 	0.3013	0.1532	0.9344	-0.138
Mof_N 	N 	0.3946	0.0812	0.9091	-0.138
Mof_N 	N 	0.2996	0.0542	0.9688	-0.147
Mof_N 	N 	0.4138	0.8486	0.4425	-0.282
Mof_N 	N 	0.3027	0.6682	0.3936	-0.273
Mof_N 	N 	0.2724	0.4464	0.2718	-0.141
Mof_N 	N 	0.3584	0.3658	0.2488	-0.135
Mof_N 	N 	0.425	0.4726	0.3101	-0.138
Mof_N 	N 	0.0703	0.252	0.1374	-0.271
Mof_N 	N 	0.6883	0.3668	0.2758	-0.274
Mof_N 	N 	0.7975	0.2772	0.316	-0.279
Mof_N 	N 	0.0887	0.144	0.5455	-0.272
Mof_N 	N 	0.8519	0.1532	0.4344	-0.138
Mof_N 	N 	0.6866	0.0812	0.4091	-0.137
Mof_N 	N 	0.7546	0.0542	0.4688	-0.148
_end
