# CIF file generated by openbabel 3.1.0, see https://openbabel.org
data_I
_chemical_name_common 'image0'
_cell_length_a 16.158
_cell_length_b 18.171
_cell_length_c 18.955
_cell_angle_alpha 99.19
_cell_angle_beta 106.28
_cell_angle_gamma 116.34
_space_group_name_H-M_alt 'P 1'
_space_group_name_Hall 'P 1'
loop_
    _symmetry_equiv_pos_as_xyz
    x,y,z
loop_
    _atom_site_label
    _atom_site_type_symbol
    _atom_site_fract_x
    _atom_site_fract_y
    _atom_site_fract_z
    _atom_site_occupancy
    O1       O        0.31520    0.86159    0.10803    1.000
    O2       O        0.11800    0.85430    0.10080    1.000
    O3       O        0.19220    0.77144    0.99398    1.000
    O4       O        0.94870    0.86600    0.93638    1.000
    O5       O        0.15970    0.79779    0.18820    1.000
    O6       O        0.35910    0.00470    0.23280    1.000
    O7       O        0.03700    0.80540    0.91172    1.000
    O8       O        0.35780    0.81680    0.26639    1.000
    O9       O        0.14930    0.01120    0.04520    1.000
    O10      O        0.50620    0.92680    0.28810    1.000
    O11      O        0.25500    0.97670    0.01990    1.000
    C1       C        0.96470    0.82080    0.89230    1.000
    C2       C        0.26960    0.79080    0.05120    1.000
    O12      O        0.32770    0.97970    0.33360    1.000
    C3       C        0.36300    0.02890    0.29880    1.000
    C4       C        0.22900    0.03130    0.03460    1.000
    Zn1      Zn       0.30431    0.87873    0.21282    1.000
    Zn2      Zn       0.15344    0.86212    0.01036    1.000
    N1       N        0.55840    0.53900    0.14270    1.000
    C5       C        0.68580    0.62290    0.09990    1.000
    H1       H        0.63950    0.63120    0.06550    1.000
    C6       C        0.40400    0.76130    0.10870    1.000
    H2       H        0.44290    0.81900    0.14120    1.000
    C7       C        0.95820    0.69530    0.16520    1.000
    H3       H        0.00540    0.68780    0.19940    1.000
    C8       C        0.44400    0.72140    0.31460    1.000
    H4       H        0.37470    0.69300    0.28760    1.000
    C9       C        0.38310    0.61800    0.06640    1.000
    C10      C        0.85550    0.64920    0.15670    1.000
    C11      C        0.78660    0.66370    0.10540    1.000
    C12      C        0.65570    0.57230    0.14340    1.000
    C13      C        0.42300    0.56240    0.07590    1.000
    H5       H        0.38500    0.50470    0.04350    1.000
    C14      C        0.51130    0.30630    0.41210    1.000
    C15      C        0.44200    0.70550    0.11640    1.000
    C16      C        0.53980    0.73560    0.17370    1.000
    H6       H        0.57990    0.79350    0.20570    1.000
    C17      C        0.28950    0.59020    0.00880    1.000
    H7       H        0.25150    0.53340    0.97440    1.000
    N2       N        0.62760    0.54550    0.44420    1.000
    C18      C        0.51560    0.59220    0.13160    1.000
    C19      C        0.81940    0.71870    0.06290    1.000
    H8       H        0.77320    0.72640    0.02770    1.000
    C20      C        0.55740    0.39840    0.44870    1.000
    H9       H        0.56860    0.42000    0.50050    1.000
    C21      C        0.49460    0.44940    0.12660    1.000
    C22      C        0.98760    0.74960    0.12440    1.000
    C23      C        0.68930    0.64740    0.57190    1.000
    H10      H        0.64050    0.66120    0.55210    1.000
    C24      C        0.09590    0.80290    0.13750    1.000
    C25      C        0.41440    0.42360    0.15310    1.000
    H11      H        0.40700    0.46580    0.18070    1.000
    C26      C        0.49410    0.27410    0.33470    1.000
    C27      C        0.45530    0.85610    0.29330    1.000
    C28      C        0.89750    0.71250    0.76120    1.000
    H12      H        0.94540    0.69820    0.78200    1.000
    C29      C        0.75790    0.69150    0.65110    1.000
    C30      C        0.58440    0.45370    0.40880    1.000
    C31      C        0.91630    0.76090    0.07170    1.000
    H13      H        0.93640    0.79750    0.04310    1.000
    C32      C        0.82120    0.59250    0.19730    1.000
    H14      H        0.86560    0.58020    0.22890    1.000
    C33      C        0.43130    0.58560    0.33290    1.000
    H15      H        0.36190    0.55590    0.30530    1.000
    C34      C        0.35940    0.27520    0.09890    1.000
    C35      C        0.47600    0.24590    0.45110    1.000
    H16      H        0.48510    0.26650    0.50250    1.000
    C36      C        0.35040    0.34010    0.13870    1.000
    H17      H        0.29830    0.32500    0.15580    1.000
    C37      C        0.89450    0.77540    0.80680    1.000
    C38      C        0.25240    0.64470    0.00170    1.000
    H18      H        0.18980    0.62470    0.96300    1.000
    C39      C        0.50770    0.38750    0.08870    1.000
    H19      H        0.56030    0.40420    0.07210    1.000
    C40      C        0.44210    0.29820    0.07440    1.000
    C41      C        0.69300    0.58620    0.52500    1.000
    C42      C        0.75670    0.75760    0.70020    1.000
    H20      H        0.70920    0.77290    0.68080    1.000
    C43      C        0.82900    0.66760    0.68180    1.000
    C44      C        0.30970    0.73170    0.05350    1.000
    C45      C        0.57400    0.68070    0.18160    1.000
    H21      H        0.63670    0.70080    0.22020    1.000
    C46      C        0.44470    0.18140    0.29870    1.000
    H22      H        0.43480    0.15960    0.24730    1.000
    C47      C        0.29010    0.18730    0.08270    1.000
    H23      H        0.23490    0.17170    0.09600    1.000
    C48      C        0.49990    0.80710    0.32630    1.000
    C49      C        0.72500    0.55480    0.19200    1.000
    H24      H        0.70420    0.51750    0.21990    1.000
    C50      C        0.42890    0.15820    0.41490    1.000
    H25      H        0.40790    0.12030    0.44240    1.000
    C51      C        0.41190    0.12480    0.33710    1.000
    C52      C        0.30400    0.12460    0.04740    1.000
    C53      C        0.82490    0.79990    0.77620    1.000
    H26      H        0.82480    0.84490    0.80740    1.000
    C54      C        0.56830    0.42220    0.32980    1.000
    H27      H        0.58720    0.46060    0.30240    1.000
    C55      C        0.47510    0.54180    0.36340    1.000
    H28      H        0.43570    0.48300    0.35630    1.000
    C56      C        0.63750    0.67230    0.41300    1.000
    H29      H        0.70710    0.70080    0.43820    1.000
    C57      C        0.82990    0.60180    0.63070    1.000
    H30      H        0.87690    0.58580    0.64960    1.000
    C58      C        0.59430    0.71950    0.38350    1.000
    C59      C        0.52510    0.33530    0.29450    1.000
    H31      H        0.51530    0.31500    0.24290    1.000
    C60      C        0.58180    0.58700    0.40640    1.000
    C61      C        0.76460    0.56220    0.55550    1.000
    H32      H        0.76630    0.51890    0.52360    1.000
    C62      C        0.48770    0.67300    0.34200    1.000
    C63      C        0.65220    0.80770    0.39490    1.000
    H33      H        0.72190    0.83640    0.42030    1.000
    C64      C        0.38120    0.14500    0.02410    1.000
    H34      H        0.38820    0.10050    0.00000    1.000
    C65      C        0.60690    0.85320    0.36860    1.000
    H35      H        0.64540    0.91270    0.37840    1.000
    C66      C        0.45060    0.23110    0.03540    1.000
    H36      H        0.50150    0.24380    0.01730    1.000
    O13      O        0.68480    0.13841    0.89197    1.000
    O14      O        0.88200    0.14570    0.89920    1.000
    O15      O        0.80780    0.22856    0.00602    1.000
    O16      O        0.05130    0.13400    0.06362    1.000
    O17      O        0.84030    0.20221    0.81180    1.000
    O18      O        0.64090    0.99530    0.76720    1.000
    O19      O        0.96300    0.19460    0.08828    1.000
    O20      O        0.64220    0.18320    0.73361    1.000
    O21      O        0.85070    0.98880    0.95480    1.000
    O22      O        0.49380    0.07320    0.71190    1.000
    O23      O        0.74500    0.02330    0.98010    1.000
    C67      C        0.03530    0.17920    0.10770    1.000
    C68      C        0.73040    0.20920    0.94880    1.000
    O24      O        0.67230    0.02030    0.66640    1.000
    C69      C        0.63700    0.97110    0.70120    1.000
    C70      C        0.77100    0.96870    0.96540    1.000
    Zn3      Zn       0.69569    0.12127    0.78718    1.000
    Zn4      Zn       0.84656    0.13788    0.98964    1.000
    N3       N        0.44160    0.46100    0.85730    1.000
    C71      C        0.31420    0.37710    0.90010    1.000
    H37      H        0.36050    0.36880    0.93450    1.000
    C72      C        0.59600    0.23870    0.89130    1.000
    H38      H        0.55710    0.18100    0.85880    1.000
    C73      C        0.04180    0.30470    0.83480    1.000
    H39      H        0.99460    0.31220    0.80060    1.000
    C74      C        0.55600    0.27860    0.68540    1.000
    H40      H        0.62530    0.30700    0.71240    1.000
    C75      C        0.61690    0.38200    0.93360    1.000
    C76      C        0.14450    0.35080    0.84330    1.000
    C77      C        0.21340    0.33630    0.89460    1.000
    C78      C        0.34430    0.42770    0.85660    1.000
    C79      C        0.57700    0.43760    0.92410    1.000
    H41      H        0.61500    0.49530    0.95650    1.000
    C80      C        0.48870    0.69370    0.58790    1.000
    C81      C        0.55800    0.29450    0.88360    1.000
    C82      C        0.46020    0.26440    0.82630    1.000
    H42      H        0.42010    0.20650    0.79430    1.000
    C83      C        0.71050    0.40980    0.99120    1.000
    H43      H        0.74850    0.46660    0.02560    1.000
    N4       N        0.37240    0.45450    0.55580    1.000
    C84      C        0.48440    0.40780    0.86840    1.000
    C85      C        0.18060    0.28130    0.93710    1.000
    H44      H        0.22680    0.27360    0.97230    1.000
    C86      C        0.44260    0.60160    0.55130    1.000
    H45      H        0.43140    0.58000    0.49950    1.000
    C87      C        0.50540    0.55060    0.87340    1.000
    C88      C        0.01240    0.25040    0.87560    1.000
    C89      C        0.31070    0.35260    0.42810    1.000
    H46      H        0.35950    0.33880    0.44790    1.000
    C90      C        0.90410    0.19710    0.86250    1.000
    C91      C        0.58560    0.57640    0.84690    1.000
    H47      H        0.59300    0.53420    0.81930    1.000
    C92      C        0.50590    0.72590    0.66530    1.000
    C93      C        0.54470    0.14390    0.70670    1.000
    C94      C        0.10250    0.28750    0.23880    1.000
    H48      H        0.05460    0.30180    0.21800    1.000
    C95      C        0.24210    0.30850    0.34890    1.000
    C96      C        0.41560    0.54630    0.59120    1.000
    C97      C        0.08370    0.23910    0.92830    1.000
    H49      H        0.06360    0.20250    0.95690    1.000
    C98      C        0.17880    0.40750    0.80270    1.000
    H50      H        0.13440    0.41980    0.77110    1.000
    C99      C        0.56870    0.41440    0.66710    1.000
    H51      H        0.63810    0.44410    0.69470    1.000
    C100     C        0.64060    0.72480    0.90110    1.000
    C101     C        0.52400    0.75410    0.54890    1.000
    H52      H        0.51490    0.73350    0.49750    1.000
    C102     C        0.64960    0.65990    0.86130    1.000
    H53      H        0.70170    0.67500    0.84420    1.000
    C103     C        0.10550    0.22460    0.19320    1.000
    C104     C        0.74760    0.35530    0.99830    1.000
    H54      H        0.81020    0.37530    0.03700    1.000
    C105     C        0.49230    0.61250    0.91130    1.000
    H55      H        0.43970    0.59580    0.92790    1.000
    C106     C        0.55790    0.70180    0.92560    1.000
    C107     C        0.30700    0.41380    0.47500    1.000
    C108     C        0.24330    0.24240    0.29980    1.000
    H56      H        0.29080    0.22710    0.31920    1.000
    C109     C        0.17100    0.33240    0.31820    1.000
    C110     C        0.69030    0.26830    0.94650    1.000
    C111     C        0.42600    0.31930    0.81840    1.000
    H57      H        0.36330    0.29920    0.77980    1.000
    C112     C        0.55530    0.81860    0.70130    1.000
    H58      H        0.56520    0.84040    0.75270    1.000
    C113     C        0.70990    0.81270    0.91730    1.000
    H59      H        0.76510    0.82830    0.90400    1.000
    C114     C        0.50010    0.19290    0.67370    1.000
    C115     C        0.27500    0.44520    0.80800    1.000
    H60      H        0.29580    0.48250    0.78010    1.000
    C116     C        0.57110    0.84180    0.58510    1.000
    H61      H        0.59210    0.87970    0.55760    1.000
    C117     C        0.58810    0.87520    0.66290    1.000
    C118     C        0.69600    0.87540    0.95260    1.000
    C119     C        0.17510    0.20010    0.22380    1.000
    H62      H        0.17520    0.15510    0.19260    1.000
    C120     C        0.43170    0.57780    0.67020    1.000
    H63      H        0.41280    0.53940    0.69760    1.000
    C121     C        0.52490    0.45820    0.63660    1.000
    H64      H        0.56430    0.51700    0.64370    1.000
    C122     C        0.36250    0.32770    0.58700    1.000
    H65      H        0.29290    0.29920    0.56180    1.000
    C123     C        0.17010    0.39820    0.36930    1.000
    H66      H        0.12310    0.41420    0.35040    1.000
    C124     C        0.40570    0.28050    0.61650    1.000
    C125     C        0.47490    0.66470    0.70550    1.000
    H67      H        0.48470    0.68500    0.75710    1.000
    C126     C        0.41820    0.41300    0.59360    1.000
    C127     C        0.23540    0.43780    0.44450    1.000
    H68      H        0.23370    0.48110    0.47640    1.000
    C128     C        0.51230    0.32700    0.65800    1.000
    C129     C        0.34780    0.19230    0.60510    1.000
    H69      H        0.27810    0.16360    0.57970    1.000
    C130     C        0.61880    0.85500    0.97590    1.000
    H70      H        0.61180    0.89950    0.00000    1.000
    C131     C        0.39310    0.14680    0.63140    1.000
    H71      H        0.35460    0.08730    0.62160    1.000
    C132     C        0.54940    0.76890    0.96460    1.000
    H72      H        0.49850    0.75620    0.98270    1.000
