data_functionalizedCrystal
_audit_creation_method	'EQeq! by Chris Wilmer'
_symmetry_space_group_name_H-M	'P1'
_symmetry_Int_Tables_number	1
_symmetry_cell_setting	triclinic
loop_
_symmetry_equiv_pos_as_xyz
  x,y,z
_cell_length_a	18.352
_cell_length_b	18.352
_cell_length_c	18.352
_cell_angle_alpha	90
_cell_angle_beta	90
_cell_angle_gamma	90
loop_
_atom_site_label
_atom_site_type_symbol
_atom_site_fract_x
_atom_site_fract_y
_atom_site_fract_z
_atom_site_charge
Mof_N 	N 	0.5642	0.5077	0.3062	-0.161
Mof_C 	C 	0.5125	0.4573	0.2966	0.163
Mof_H 	H 	0.4975	0.4298	0.3364	-0.022
Mof_C 	C 	0.4808	0.4448	0.2305	-0.307
Mof_H 	H 	0.4444	0.4098	0.2263	0.144
Mof_O 	O 	0.472	0.4748	0.1066	-0.406
Mof_C 	C 	0.5028	0.4846	0.1681	0.352
Mof_C 	C 	0.5593	0.5379	0.1794	-0.318
Mof_H 	H 	0.5766	0.5656	0.1407	0.155
Mof_C 	C 	0.5867	0.5471	0.2466	0.165
Mof_H 	H 	0.6229	0.582	0.2531	-0.026
Mof_C 	C 	0.6005	0.5187	0.3773	-0.086
Mof_H 	H 	0.6211	0.5673	0.3789	0.059
Mof_H 	H 	0.6401	0.4841	0.3821	0.066
Mof_C 	C 	0.5476	0.5091	0.4418	0.003
Mof_N 	N 	0.9358	0.4923	0.8062	-0.179
Mof_C 	C 	0.9875	0.5427	0.7966	0.25
Mof_H 	H 	0.0025	0.5702	0.8364	-0.059
Mof_C 	C 	0.0192	0.5552	0.7305	-0.403
Mof_H 	H 	0.0556	0.5902	0.7263	0.177
Mof_O 	O 	0.028	0.5252	0.6066	-0.432
Mof_C 	C 	0.9972	0.5154	0.6681	0.423
Mof_C 	C 	0.9407	0.4621	0.6794	-0.357
Mof_H 	H 	0.9234	0.4344	0.6407	0.172
Mof_C 	C 	0.9133	0.4529	0.7466	0.194
Mof_H 	H 	0.8771	0.418	0.7531	-0.033
Mof_C 	C 	0.8995	0.4813	0.8773	-0.08
Mof_H 	H 	0.8789	0.4327	0.8789	0.061
Mof_H 	H 	0.8599	0.5159	0.8821	0.065
Mof_C 	C 	0.9524	0.4909	0.9418	0.013
Mof_N 	N 	0.4358	0.0077	0.1938	-0.174
Mof_C 	C 	0.4875	0.9573	0.2034	0.198
Mof_H 	H 	0.5025	0.9298	0.1636	-0.029
Mof_C 	C 	0.5192	0.9448	0.2695	-0.331
Mof_H 	H 	0.5556	0.9098	0.2737	0.155
Mof_O 	O 	0.528	0.9748	0.3934	-0.405
Mof_C 	C 	0.4972	0.9846	0.3319	0.387
Mof_C 	C 	0.4407	0.0379	0.3206	-0.357
Mof_H 	H 	0.4234	0.0656	0.3593	0.166
Mof_C 	C 	0.4133	0.0471	0.2534	0.18
Mof_H 	H 	0.3771	0.082	0.2469	-0.033
Mof_C 	C 	0.3995	0.0187	0.1227	-0.116
Mof_H 	H 	0.3789	0.0673	0.1211	0.063
Mof_H 	H 	0.3599	0.9841	0.1179	0.086
Mof_C 	C 	0.4524	0.0091	0.0582	-0.012
Mof_N 	N 	0.0642	0.9923	0.6938	-0.121
Mof_C 	C 	0.0125	0.0427	0.7034	0.02
Mof_H 	H 	0.9975	0.0702	0.6636	0.04
Mof_C 	C 	0.9808	0.0552	0.7695	-0.159
Mof_H 	H 	0.9444	0.0902	0.7737	0.098
Mof_O 	O 	0.972	0.0252	0.8934	-0.353
Mof_C 	C 	0.0028	0.0154	0.8319	0.231
Mof_C 	C 	0.0593	0.9621	0.8206	-0.224
Mof_H 	H 	0.0766	0.9344	0.8593	0.126
Mof_C 	C 	0.0867	0.9529	0.7534	0.117
Mof_H 	H 	0.1229	0.918	0.7469	-0.006
Mof_C 	C 	0.1005	0.9813	0.6227	-0.062
Mof_H 	H 	0.1211	0.9327	0.6211	0.056
Mof_H 	H 	0.1401	0.0159	0.6179	0.048
Mof_C 	C 	0.0476	0.9909	0.5582	0.008
Mof_N 	N 	0.3062	0.5642	0.5077	-0.16
Mof_C 	C 	0.2966	0.5125	0.4573	0.164
Mof_H 	H 	0.3364	0.4975	0.4298	-0.021
Mof_C 	C 	0.2305	0.4808	0.4448	-0.306
Mof_H 	H 	0.2263	0.4444	0.4098	0.145
Mof_O 	O 	0.1066	0.472	0.4748	-0.405
Mof_C 	C 	0.1681	0.5028	0.4846	0.353
Mof_C 	C 	0.1794	0.5593	0.5379	-0.317
Mof_H 	H 	0.1407	0.5766	0.5656	0.156
Mof_C 	C 	0.2466	0.5867	0.5471	0.166
Mof_H 	H 	0.2531	0.6229	0.582	-0.025
Mof_C 	C 	0.3773	0.6005	0.5187	-0.085
Mof_H 	H 	0.3789	0.6211	0.5673	0.06
Mof_H 	H 	0.3821	0.6401	0.4841	0.066
Mof_C 	C 	0.4418	0.5476	0.5091	0.003
Mof_N 	N 	0.8062	0.9358	0.4923	-0.179
Mof_C 	C 	0.7966	0.9875	0.5427	0.25
Mof_H 	H 	0.8364	0.0025	0.5702	-0.059
Mof_C 	C 	0.7305	0.0192	0.5552	-0.403
Mof_H 	H 	0.7263	0.0556	0.5902	0.177
Mof_O 	O 	0.6066	0.028	0.5252	-0.432
Mof_C 	C 	0.6681	0.9972	0.5154	0.423
Mof_C 	C 	0.6794	0.9407	0.4621	-0.357
Mof_H 	H 	0.6407	0.9234	0.4344	0.172
Mof_C 	C 	0.7466	0.9133	0.4529	0.194
Mof_H 	H 	0.7531	0.8771	0.418	-0.033
Mof_C 	C 	0.8773	0.8995	0.4813	-0.08
Mof_H 	H 	0.8789	0.8789	0.4327	0.061
Mof_H 	H 	0.8821	0.8599	0.5159	0.065
Mof_C 	C 	0.9418	0.9524	0.4909	0.013
Mof_N 	N 	0.1938	0.4358	0.0077	-0.174
Mof_C 	C 	0.2034	0.4875	0.9573	0.198
Mof_H 	H 	0.1636	0.5025	0.9298	-0.029
Mof_C 	C 	0.2695	0.5192	0.9448	-0.331
Mof_H 	H 	0.2737	0.5556	0.9098	0.155
Mof_O 	O 	0.3934	0.528	0.9748	-0.405
Mof_C 	C 	0.3319	0.4972	0.9846	0.387
Mof_C 	C 	0.3206	0.4407	0.0379	-0.357
Mof_H 	H 	0.3593	0.4234	0.0656	0.166
Mof_C 	C 	0.2534	0.4133	0.0471	0.18
Mof_H 	H 	0.2469	0.3771	0.082	-0.033
Mof_C 	C 	0.1227	0.3995	0.0187	-0.116
Mof_H 	H 	0.1211	0.3789	0.0673	0.063
Mof_H 	H 	0.1179	0.3599	0.9841	0.086
Mof_C 	C 	0.0582	0.4524	0.0091	-0.012
Mof_N 	N 	0.6938	0.0642	0.9923	-0.121
Mof_C 	C 	0.7034	0.0125	0.0427	0.02
Mof_H 	H 	0.6636	0.9975	0.0702	0.04
Mof_C 	C 	0.7695	0.9808	0.0552	-0.159
Mof_H 	H 	0.7737	0.9444	0.0902	0.098
Mof_O 	O 	0.8934	0.972	0.0252	-0.353
Mof_C 	C 	0.8319	0.0028	0.0154	0.231
Mof_C 	C 	0.8206	0.0593	0.9621	-0.224
Mof_H 	H 	0.8593	0.0766	0.9344	0.126
Mof_C 	C 	0.7534	0.0867	0.9529	0.117
Mof_H 	H 	0.7469	0.1229	0.918	-0.006
Mof_C 	C 	0.6227	0.1005	0.9813	-0.062
Mof_H 	H 	0.6211	0.1211	0.9327	0.056
Mof_H 	H 	0.6179	0.1401	0.0159	0.048
Mof_C 	C 	0.5582	0.0476	0.9909	0.008
Mof_N 	N 	0.5077	0.3062	0.5642	-0.16
Mof_C 	C 	0.4573	0.2966	0.5125	0.164
Mof_H 	H 	0.4298	0.3364	0.4975	-0.021
Mof_C 	C 	0.4448	0.2305	0.4808	-0.306
Mof_H 	H 	0.4098	0.2263	0.4444	0.145
Mof_O 	O 	0.4748	0.1066	0.472	-0.405
Mof_C 	C 	0.4846	0.1681	0.5028	0.353
Mof_C 	C 	0.5379	0.1794	0.5593	-0.317
Mof_H 	H 	0.5656	0.1407	0.5766	0.156
Mof_C 	C 	0.5471	0.2466	0.5867	0.166
Mof_H 	H 	0.582	0.2531	0.6229	-0.025
Mof_C 	C 	0.5187	0.3773	0.6005	-0.085
Mof_H 	H 	0.5673	0.3789	0.6211	0.06
Mof_H 	H 	0.4841	0.3821	0.6401	0.066
Mof_C 	C 	0.5091	0.4418	0.5476	0.003
Mof_N 	N 	0.4923	0.8062	0.9358	-0.179
Mof_C 	C 	0.5427	0.7966	0.9875	0.25
Mof_H 	H 	0.5702	0.8364	0.0025	-0.059
Mof_C 	C 	0.5552	0.7305	0.0192	-0.403
Mof_H 	H 	0.5902	0.7263	0.0556	0.177
Mof_O 	O 	0.5252	0.6066	0.028	-0.432
Mof_C 	C 	0.5154	0.6681	0.9972	0.423
Mof_C 	C 	0.4621	0.6794	0.9407	-0.357
Mof_H 	H 	0.4344	0.6407	0.9234	0.172
Mof_C 	C 	0.4529	0.7466	0.9133	0.194
Mof_H 	H 	0.418	0.7531	0.8771	-0.033
Mof_C 	C 	0.4813	0.8773	0.8995	-0.08
Mof_H 	H 	0.4327	0.8789	0.8789	0.061
Mof_H 	H 	0.5159	0.8821	0.8599	0.065
Mof_C 	C 	0.4909	0.9418	0.9524	0.013
Mof_N 	N 	0.0077	0.1938	0.4358	-0.174
Mof_C 	C 	0.9573	0.2034	0.4875	0.198
Mof_H 	H 	0.9298	0.1636	0.5025	-0.029
Mof_C 	C 	0.9448	0.2695	0.5192	-0.331
Mof_H 	H 	0.9098	0.2737	0.5556	0.155
Mof_O 	O 	0.9748	0.3934	0.528	-0.405
Mof_C 	C 	0.9846	0.3319	0.4972	0.387
Mof_C 	C 	0.0379	0.3206	0.4407	-0.357
Mof_H 	H 	0.0656	0.3593	0.4234	0.166
Mof_C 	C 	0.0471	0.2534	0.4133	0.18
Mof_H 	H 	0.082	0.2469	0.3771	-0.033
Mof_C 	C 	0.0187	0.1227	0.3995	-0.116
Mof_H 	H 	0.0673	0.1211	0.3789	0.063
Mof_H 	H 	0.9841	0.1179	0.3599	0.086
Mof_C 	C 	0.0091	0.0582	0.4524	-0.012
Mof_N 	N 	0.9923	0.6938	0.0642	-0.121
Mof_C 	C 	0.0427	0.7034	0.0125	0.02
Mof_H 	H 	0.0702	0.6636	0.9975	0.04
Mof_C 	C 	0.0552	0.7695	0.9808	-0.159
Mof_H 	H 	0.0902	0.7737	0.9444	0.098
Mof_O 	O 	0.0252	0.8934	0.972	-0.353
Mof_C 	C 	0.0154	0.8319	0.0028	0.231
Mof_C 	C 	0.9621	0.8206	0.0593	-0.224
Mof_H 	H 	0.9344	0.8593	0.0766	0.126
Mof_C 	C 	0.9529	0.7534	0.0867	0.117
Mof_H 	H 	0.918	0.7469	0.1229	-0.006
Mof_C 	C 	0.9813	0.6227	0.1005	-0.062
Mof_H 	H 	0.9327	0.6211	0.1211	0.056
Mof_H 	H 	0.0159	0.6179	0.1401	0.048
Mof_C 	C 	0.9909	0.5582	0.0476	0.008
Mof_N 	N 	0.4358	0.4923	0.6938	-0.159
Mof_C 	C 	0.4875	0.5427	0.7034	0.163
Mof_H 	H 	0.5025	0.5702	0.6636	-0.02
Mof_C 	C 	0.5192	0.5552	0.7695	-0.304
Mof_H 	H 	0.5556	0.5902	0.7737	0.146
Mof_O 	O 	0.528	0.5252	0.8934	-0.397
Mof_C 	C 	0.4972	0.5154	0.8319	0.35
Mof_C 	C 	0.4407	0.4621	0.8206	-0.314
Mof_H 	H 	0.4234	0.4344	0.8593	0.155
Mof_C 	C 	0.4133	0.4529	0.7534	0.165
Mof_H 	H 	0.3771	0.418	0.7469	-0.024
Mof_C 	C 	0.3995	0.4813	0.6227	-0.084
Mof_H 	H 	0.3789	0.4327	0.6211	0.059
Mof_H 	H 	0.3599	0.5159	0.6179	0.065
Mof_C 	C 	0.4524	0.4909	0.5582	0.003
Mof_N 	N 	0.0642	0.5077	0.1938	-0.135
Mof_C 	C 	0.0125	0.4573	0.2034	0.047
Mof_H 	H 	0.9975	0.4298	0.1636	0.033
Mof_C 	C 	0.9808	0.4448	0.2695	-0.179
Mof_H 	H 	0.9444	0.4098	0.2737	0.105
Mof_O 	O 	0.972	0.4748	0.3934	-0.364
Mof_C 	C 	0.0028	0.4846	0.3319	0.262
Mof_C 	C 	0.0593	0.5379	0.3206	-0.264
Mof_H 	H 	0.0766	0.5656	0.3593	0.136
Mof_C 	C 	0.0867	0.5471	0.2534	0.13
Mof_H 	H 	0.1229	0.582	0.2469	-0.014
Mof_C 	C 	0.1005	0.5187	0.1227	-0.089
Mof_H 	H 	0.1211	0.5673	0.1211	0.058
Mof_H 	H 	0.1401	0.4841	0.1179	0.066
Mof_C 	C 	0.0476	0.5091	0.0582	-0.013
Mof_N 	N 	0.5642	0.9923	0.8062	-0.148
Mof_C 	C 	0.5125	0.0427	0.7966	0.137
Mof_H 	H 	0.4975	0.0702	0.8364	-0.013
Mof_C 	C 	0.4808	0.0552	0.7305	-0.285
Mof_H 	H 	0.4444	0.0902	0.7263	0.138
Mof_O 	O 	0.472	0.0252	0.6066	-0.398
Mof_C 	C 	0.5028	0.0154	0.6681	0.323
Mof_C 	C 	0.5593	0.9621	0.6794	-0.281
Mof_H 	H 	0.5766	0.9344	0.6407	0.147
Mof_C 	C 	0.5867	0.9529	0.7466	0.153
Mof_H 	H 	0.6229	0.918	0.7531	-0.018
Mof_C 	C 	0.6005	0.9813	0.8773	-0.064
Mof_H 	H 	0.6211	0.9327	0.8789	0.058
Mof_H 	H 	0.6401	0.0159	0.8821	0.053
Mof_C 	C 	0.5476	0.9909	0.9418	0.012
Mof_N 	N 	0.9358	0.0077	0.3062	-0.19
Mof_C 	C 	0.9875	0.9573	0.2966	0.28
Mof_H 	H 	0.0025	0.9298	0.3364	-0.068
Mof_C 	C 	0.0192	0.9448	0.2305	-0.425
Mof_H 	H 	0.0556	0.9098	0.2263	0.185
Mof_O 	O 	0.028	0.9748	0.1066	-0.435
Mof_C 	C 	0.9972	0.9846	0.1681	0.453
Mof_C 	C 	0.9407	0.0379	0.1794	-0.391
Mof_H 	H 	0.9234	0.0656	0.1407	0.18
Mof_C 	C 	0.9133	0.0471	0.2466	0.206
Mof_H 	H 	0.8771	0.082	0.2531	-0.04
Mof_C 	C 	0.8995	0.0187	0.3773	-0.106
Mof_H 	H 	0.8789	0.0673	0.3789	0.065
Mof_H 	H 	0.8599	0.9841	0.3821	0.081
Mof_C 	C 	0.9524	0.0091	0.4418	0.011
Mof_N 	N 	0.6938	0.4358	0.4923	-0.159
Mof_C 	C 	0.7034	0.4875	0.5427	0.163
Mof_H 	H 	0.6636	0.5025	0.5702	-0.02
Mof_C 	C 	0.7695	0.5192	0.5552	-0.304
Mof_H 	H 	0.7737	0.5556	0.5902	0.146
Mof_O 	O 	0.8934	0.528	0.5252	-0.397
Mof_C 	C 	0.8319	0.4972	0.5154	0.35
Mof_C 	C 	0.8206	0.4407	0.4621	-0.314
Mof_H 	H 	0.8593	0.4234	0.4344	0.155
Mof_C 	C 	0.7534	0.4133	0.4529	0.165
Mof_H 	H 	0.7469	0.3771	0.418	-0.024
Mof_C 	C 	0.6227	0.3995	0.4813	-0.084
Mof_H 	H 	0.6211	0.3789	0.4327	0.059
Mof_H 	H 	0.6179	0.3599	0.5159	0.065
Mof_C 	C 	0.5582	0.4524	0.4909	0.003
Mof_N 	N 	0.1938	0.0642	0.5077	-0.135
Mof_C 	C 	0.2034	0.0125	0.4573	0.047
Mof_H 	H 	0.1636	0.9975	0.4298	0.033
Mof_C 	C 	0.2695	0.9808	0.4448	-0.179
Mof_H 	H 	0.2737	0.9444	0.4098	0.105
Mof_O 	O 	0.3934	0.972	0.4748	-0.364
Mof_C 	C 	0.3319	0.0028	0.4846	0.262
Mof_C 	C 	0.3206	0.0593	0.5379	-0.264
Mof_H 	H 	0.3593	0.0766	0.5656	0.136
Mof_C 	C 	0.2534	0.0867	0.5471	0.13
Mof_H 	H 	0.2469	0.1229	0.582	-0.014
Mof_C 	C 	0.1227	0.1005	0.5187	-0.089
Mof_H 	H 	0.1211	0.1211	0.5673	0.058
Mof_H 	H 	0.1179	0.1401	0.4841	0.066
Mof_C 	C 	0.0582	0.0476	0.5091	-0.013
Mof_N 	N 	0.8062	0.5642	0.9923	-0.148
Mof_C 	C 	0.7966	0.5125	0.0427	0.137
Mof_H 	H 	0.8364	0.4975	0.0702	-0.013
Mof_C 	C 	0.7305	0.4808	0.0552	-0.285
Mof_H 	H 	0.7263	0.4444	0.0902	0.138
Mof_O 	O 	0.6066	0.472	0.0252	-0.398
Mof_C 	C 	0.6681	0.5028	0.0154	0.323
Mof_C 	C 	0.6794	0.5593	0.9621	-0.281
Mof_H 	H 	0.6407	0.5766	0.9344	0.147
Mof_C 	C 	0.7466	0.5867	0.9529	0.153
Mof_H 	H 	0.7531	0.6229	0.918	-0.018
Mof_C 	C 	0.8773	0.6005	0.9813	-0.064
Mof_H 	H 	0.8789	0.6211	0.9327	0.058
Mof_H 	H 	0.8821	0.6401	0.0159	0.053
Mof_C 	C 	0.9418	0.5476	0.9909	0.012
Mof_N 	N 	0.3062	0.9358	0.0077	-0.19
Mof_C 	C 	0.2966	0.9875	0.9573	0.28
Mof_H 	H 	0.3364	0.0025	0.9298	-0.068
Mof_C 	C 	0.2305	0.0192	0.9448	-0.425
Mof_H 	H 	0.2263	0.0556	0.9098	0.185
Mof_O 	O 	0.1066	0.028	0.9748	-0.435
Mof_C 	C 	0.1681	0.9972	0.9846	0.453
Mof_C 	C 	0.1794	0.9407	0.0379	-0.391
Mof_H 	H 	0.1407	0.9234	0.0656	0.18
Mof_C 	C 	0.2466	0.9133	0.0471	0.206
Mof_H 	H 	0.2531	0.8771	0.082	-0.04
Mof_C 	C 	0.3773	0.8995	0.0187	-0.106
Mof_H 	H 	0.3789	0.8789	0.0673	0.065
Mof_H 	H 	0.3821	0.8599	0.9841	0.081
Mof_C 	C 	0.4418	0.9524	0.0091	0.011
Mof_N 	N 	0.4923	0.6938	0.4358	-0.159
Mof_C 	C 	0.5427	0.7034	0.4875	0.163
Mof_H 	H 	0.5702	0.6636	0.5025	-0.02
Mof_C 	C 	0.5552	0.7695	0.5192	-0.304
Mof_H 	H 	0.5902	0.7737	0.5556	0.146
Mof_O 	O 	0.5252	0.8934	0.528	-0.397
Mof_C 	C 	0.5154	0.8319	0.4972	0.35
Mof_C 	C 	0.4621	0.8206	0.4407	-0.314
Mof_H 	H 	0.4344	0.8593	0.4234	0.155
Mof_C 	C 	0.4529	0.7534	0.4133	0.165
Mof_H 	H 	0.418	0.7469	0.3771	-0.024
Mof_C 	C 	0.4813	0.6227	0.3995	-0.084
Mof_H 	H 	0.4327	0.6211	0.3789	0.059
Mof_H 	H 	0.5159	0.6179	0.3599	0.065
Mof_C 	C 	0.4909	0.5582	0.4524	0.003
Mof_N 	N 	0.5077	0.1938	0.0642	-0.135
Mof_C 	C 	0.4573	0.2034	0.0125	0.047
Mof_H 	H 	0.4298	0.1636	0.9975	0.033
Mof_C 	C 	0.4448	0.2695	0.9808	-0.179
Mof_H 	H 	0.4098	0.2737	0.9444	0.105
Mof_O 	O 	0.4748	0.3934	0.972	-0.364
Mof_C 	C 	0.4846	0.3319	0.0028	0.262
Mof_C 	C 	0.5379	0.3206	0.0593	-0.264
Mof_H 	H 	0.5656	0.3593	0.0766	0.136
Mof_C 	C 	0.5471	0.2534	0.0867	0.13
Mof_H 	H 	0.582	0.2469	0.1229	-0.014
Mof_C 	C 	0.5187	0.1227	0.1005	-0.089
Mof_H 	H 	0.5673	0.1211	0.1211	0.058
Mof_H 	H 	0.4841	0.1179	0.1401	0.066
Mof_C 	C 	0.5091	0.0582	0.0476	-0.013
Mof_N 	N 	0.9923	0.8062	0.5642	-0.148
Mof_C 	C 	0.0427	0.7966	0.5125	0.137
Mof_H 	H 	0.0702	0.8364	0.4975	-0.013
Mof_C 	C 	0.0552	0.7305	0.4808	-0.285
Mof_H 	H 	0.0902	0.7263	0.4444	0.138
Mof_O 	O 	0.0252	0.6066	0.472	-0.398
Mof_C 	C 	0.0154	0.6681	0.5028	0.323
Mof_C 	C 	0.9621	0.6794	0.5593	-0.281
Mof_H 	H 	0.9344	0.6407	0.5766	0.147
Mof_C 	C 	0.9529	0.7466	0.5867	0.153
Mof_H 	H 	0.918	0.7531	0.6229	-0.018
Mof_C 	C 	0.9813	0.8773	0.6005	-0.064
Mof_H 	H 	0.9327	0.8789	0.6211	0.058
Mof_H 	H 	0.0159	0.8821	0.6401	0.053
Mof_C 	C 	0.9909	0.9418	0.5476	0.012
Mof_N 	N 	0.0077	0.3062	0.9358	-0.19
Mof_C 	C 	0.9573	0.2966	0.9875	0.28
Mof_H 	H 	0.9298	0.3364	0.0025	-0.068
Mof_C 	C 	0.9448	0.2305	0.0192	-0.425
Mof_H 	H 	0.9098	0.2263	0.0556	0.185
Mof_O 	O 	0.9748	0.1066	0.028	-0.435
Mof_C 	C 	0.9846	0.1681	0.9972	0.453
Mof_C 	C 	0.0379	0.1794	0.9407	-0.391
Mof_H 	H 	0.0656	0.1407	0.9234	0.18
Mof_C 	C 	0.0471	0.2466	0.9133	0.206
Mof_H 	H 	0.082	0.2531	0.8771	-0.04
Mof_C 	C 	0.0187	0.3773	0.8995	-0.106
Mof_H 	H 	0.0673	0.3789	0.8789	0.065
Mof_H 	H 	0.9841	0.3821	0.8599	0.081
Mof_C 	C 	0.0091	0.4418	0.9524	0.011
Mof_Co	Co	0.5	0.5	-0	1.204
Mof_Co	Co	1.8747e-33	0.5	0.5	1.204
Mof_Co	Co	0.5	0	0.5	1.204
Mof_Co	Co	-0	0	-0	1.183
_end
