# CIF file generated by openbabel 3.1.0, see https://openbabel.org
data_I
_chemical_name_common 'EVUQOC_clean'
_cell_length_a 10.134
_cell_length_b 10.3552
_cell_length_c 10.7436
_cell_angle_alpha 78.1625
_cell_angle_beta 89.43
_cell_angle_gamma 65.239
_space_group_name_H-M_alt 'P 1'
_space_group_name_Hall 'P 1'
loop_
    _symmetry_equiv_pos_as_xyz
    x,y,z
loop_
    _atom_site_label
    _atom_site_type_symbol
    _atom_site_fract_x
    _atom_site_fract_y
    _atom_site_fract_z
    _atom_site_occupancy
    La1      La       0.03339    0.20630    0.00051    1.000
    La2      La       0.96661    0.79370    0.99949    1.000
    H1       H        0.52170    0.83080    0.96960    1.000
    H2       H        0.65690    0.44590    0.85990    1.000
    H3       H        0.23220    0.73440    0.79300    1.000
    H4       H        0.43380    0.68460    0.56520    1.000
    H5       H        0.31210    0.76790    0.36020    1.000
    H6       H        0.10930    0.50250    0.45840    1.000
    H7       H        0.25000    0.38560    0.78100    1.000
    H8       H        0.14420    0.36470    0.68080    1.000
    H9       H        0.47830    0.16920    0.03040    1.000
    H10      H        0.34310    0.55410    0.14010    1.000
    H11      H        0.76780    0.26560    0.20700    1.000
    H12      H        0.56620    0.31540    0.43480    1.000
    H13      H        0.68790    0.23210    0.63980    1.000
    H14      H        0.89070    0.49750    0.54160    1.000
    H15      H        0.75000    0.61440    0.21900    1.000
    H16      H        0.85580    0.63530    0.31920    1.000
    C1       C        0.23480    0.94270    0.89590    1.000
    C2       C        0.35840    0.80370    0.88410    1.000
    C3       C        0.50050    0.76560    0.93180    1.000
    C4       C        0.61040    0.63230    0.92360    1.000
    C5       C        0.76530    0.58520    0.97720    1.000
    C6       C        0.58170    0.53790    0.86460    1.000
    C7       C        0.44100    0.58080    0.81290    1.000
    C8       C        0.32880    0.70960    0.82480    1.000
    C9       C        0.34330    0.54420    0.63160    1.000
    C10      C        0.36790    0.64770    0.54310    1.000
    C11      C        0.29550    0.69720    0.42160    1.000
    C12      C        0.19900    0.64310    0.39030    1.000
    C13      C        0.11870    0.69600    0.26050    1.000
    C14      C        0.17580    0.53870    0.48040    1.000
    C15      C        0.24840    0.48630    0.60230    1.000
    C16      C        0.76520    0.05730    0.10410    1.000
    C17      C        0.64160    0.19630    0.11590    1.000
    C18      C        0.49950    0.23440    0.06820    1.000
    C19      C        0.38960    0.36770    0.07640    1.000
    C20      C        0.23470    0.41480    0.02280    1.000
    C21      C        0.41830    0.46210    0.13540    1.000
    C22      C        0.55900    0.41920    0.18710    1.000
    C23      C        0.67120    0.29040    0.17520    1.000
    C24      C        0.65670    0.45580    0.36840    1.000
    C25      C        0.63210    0.35230    0.45690    1.000
    C26      C        0.70450    0.30280    0.57840    1.000
    C27      C        0.80100    0.35690    0.60970    1.000
    C28      C        0.88130    0.30400    0.73950    1.000
    C29      C        0.82420    0.46130    0.51960    1.000
    C30      C        0.75160    0.51370    0.39770    1.000
    N1       N        0.23690    0.37480    0.69220    1.000
    N2       N        0.76310    0.62520    0.30780    1.000
    O1       O        0.10840    0.94660    0.91150    1.000
    O2       O        0.25830    0.05380    0.89250    1.000
    O3       O        0.85200    0.45280    0.99090    1.000
    O4       O        0.79680    0.68190    0.00600    1.000
    O5       O        0.41550    0.48500    0.75340    1.000
    O6       O        0.15850    0.76910    0.17170    1.000
    O7       O        0.01520    0.66410    0.24080    1.000
    O8       O        0.89160    0.05340    0.08850    1.000
    O9       O        0.74170    0.94620    0.10750    1.000
    O10      O        0.14800    0.54720    0.00910    1.000
    O11      O        0.20320    0.31810    0.99400    1.000
    O12      O        0.58450    0.51500    0.24660    1.000
    O13      O        0.84150    0.23090    0.82830    1.000
    O14      O        0.98480    0.33590    0.75920    1.000
