# CIF file generated by openbabel 3.1.0, see https://openbabel.org
data_I
_chemical_name_common 'MOZFIR_clean'
_cell_length_a 5.99
_cell_length_b 7.435
_cell_length_c 13.323
_cell_angle_alpha 102.89
_cell_angle_beta 101.55
_cell_angle_gamma 90.85
_space_group_name_H-M_alt 'P 1'
_space_group_name_Hall 'P 1'
loop_
    _symmetry_equiv_pos_as_xyz
    x,y,z
loop_
    _atom_site_label
    _atom_site_type_symbol
    _atom_site_fract_x
    _atom_site_fract_y
    _atom_site_fract_z
    _atom_site_occupancy
    Tb1      Tb       0.23767    0.63759    0.11857    1.000
    Tb2      Tb       0.19953    0.99985    0.75947    1.000
    H1       H        0.86310    0.85970    0.38370    1.000
    H2       H        0.57220    0.91950    0.48140    1.000
    H3       H        0.72660    0.50350    0.87200    1.000
    H4       H        0.75240    0.54140    0.71290    1.000
    H5       H        0.67190    0.21970    0.16860    1.000
    H6       H        0.69690    0.06730    0.00140    1.000
    H7       H        0.98030    0.56690    0.44530    1.000
    H8       H        0.43850    0.68710    0.53000    1.000
    H9       H        0.59100    0.21630    0.73990    1.000
    H10      H        0.49750    0.05000    0.67410    1.000
    H11      H        0.86250    0.84170    0.21500    1.000
    H12      H        0.94720    0.83620    0.12420    1.000
    C1       C        0.00200    0.88100    0.54130    1.000
    C2       C        0.84600    0.78920    0.43600    1.000
    C3       C        0.60100    0.79200    0.45050    1.000
    C4       C        0.44000    0.73200    0.34350    1.000
    C5       C        0.05700    0.43170    0.86810    1.000
    C6       C        0.86900    0.56840    0.87080    1.000
    C7       C        0.83870    0.63810    0.77080    1.000
    C8       C        0.70640    0.81660    0.77590    1.000
    C9       C        0.72440    0.44660    0.10860    1.000
    C10      C        0.59210    0.27410    0.11190    1.000
    C11      C        0.55400    0.12930    0.00380    1.000
    C12      C        0.37400    0.98450    0.00570    1.000
    O1       O        0.17720    0.79820    0.58000    1.000
    O2       O        0.96290    0.03610    0.58850    1.000
    O3       O        0.89420    0.60190    0.39840    1.000
    O4       O        0.57050    0.68310    0.52160    1.000
    O5       O        0.29910    0.60360    0.31900    1.000
    O6       O        0.46780    0.83060    0.27710    1.000
    O7       O        0.03630    0.29600    0.79420    1.000
    O8       O        0.23050    0.46820    0.94520    1.000
    O9       O        0.93380    0.71370    0.96660    1.000
    O10      O        0.05510    0.67380    0.74650    1.000
    O11      O        0.50390    0.80370    0.78220    1.000
    O12      O        0.80990    0.95790    0.76910    1.000
    O13      O        0.62650    0.59030    0.11090    1.000
    O14      O        0.92900    0.42930    0.10660    1.000
    O15      O        0.37280    0.33060    0.13120    1.000
    O16      O        0.50190    0.20000    0.91510    1.000
    O17      O        0.20130    0.96400    0.93170    1.000
    O18      O        0.39930    0.90270    0.07950    1.000
    O19      O        0.47280    0.16280    0.69600    1.000
    O20      O        0.98160    0.85280    0.19080    1.000
