# CIF file generated by openbabel 3.1.0, see https://openbabel.org
data_I
_chemical_name_common 'image0'
_cell_length_a 16.2712
_cell_length_b 16.2712
_cell_length_c 17.2772
_cell_angle_alpha 90
_cell_angle_beta 90
_cell_angle_gamma 120
_space_group_name_H-M_alt 'P 1'
_space_group_name_Hall 'P 1'
loop_
    _symmetry_equiv_pos_as_xyz
    x,y,z
loop_
    _atom_site_label
    _atom_site_type_symbol
    _atom_site_fract_x
    _atom_site_fract_y
    _atom_site_fract_z
    _atom_site_occupancy
    Co1      Co       0.94408    0.59801    0.79344    1.000
    Co2      Co       0.96506    0.72431    0.95064    1.000
    O1       O        0.82890    0.61230    0.77680    1.000
    O2       O        0.87630    0.72690    0.86370    1.000
    O3       O        0.72040    0.91870    0.88310    1.000
    O4       O        0.67230    0.94630    0.77030    1.000
    O5       O        0.74500    0.80240    0.54840    1.000
    O6       O        0.63930    0.84750    0.51450    1.000
    O7       O        0.40190    0.53920    0.36050    1.000
    O8       O        0.36900    0.40540    0.41320    1.000
    O9       O        0.46360    0.40160    0.69100    1.000
    O10      O        0.46010    0.51530    0.75570    1.000
    C1       C        0.75350    0.70520    0.77830    1.000
    C2       C        0.75330    0.78230    0.81140    1.000
    H1       H        0.79170    0.81290    0.85380    1.000
    C3       C        0.69390    0.81410    0.77960    1.000
    C4       C        0.63720    0.76870    0.71670    1.000
    H2       H        0.60020    0.79140    0.69480    1.000
    C5       C        0.63540    0.68800    0.68580    1.000
    C6       C        0.69350    0.65790    0.71700    1.000
    H3       H        0.69250    0.60460    0.69640    1.000
    C7       C        0.82420    0.67920    0.80930    1.000
    C8       C        0.69650    0.90050    0.81380    1.000
    C9       C        0.57160    0.63870    0.61780    1.000
    C10      C        0.58190    0.68790    0.54990    1.000
    C11      C        0.52370    0.64230    0.48480    1.000
    H4       H        0.52980    0.67680    0.44020    1.000
    C12      C        0.45780    0.54600    0.48770    1.000
    C13      C        0.44780    0.49590    0.55650    1.000
    H5       H        0.40530    0.43100    0.55840    1.000
    C14      C        0.50080    0.54220    0.62190    1.000
    C15      C        0.66070    0.78650    0.53790    1.000
    C16      C        0.40540    0.49500    0.41760    1.000
    C17      C        0.47540    0.48550    0.69560    1.000
    Co3      Co       0.40199    0.34607    0.79344    1.000
    Co4      Co       0.27569    0.24075    0.95064    1.000
    O11      O        0.38770    0.21660    0.77680    1.000
    O12      O        0.27310    0.14940    0.86370    1.000
    O13      O        0.08130    0.80170    0.88310    1.000
    O14      O        0.05370    0.72600    0.77030    1.000
    O15      O        0.19760    0.94260    0.54840    1.000
    O16      O        0.15250    0.79180    0.51450    1.000
    O17      O        0.46080    0.86270    0.36050    1.000
    O18      O        0.59460    0.96360    0.41320    1.000
    O19      O        0.59840    0.06200    0.69100    1.000
    O20      O        0.48470    0.94480    0.75570    1.000
    C18      C        0.29480    0.04830    0.77830    1.000
    C19      C        0.21770    0.97100    0.81140    1.000
    H6       H        0.18710    0.97880    0.85380    1.000
    C20      C        0.18590    0.87980    0.77960    1.000
    C21      C        0.23130    0.86850    0.71670    1.000
    H7       H        0.20860    0.80880    0.69480    1.000
    C22      C        0.31200    0.94740    0.68580    1.000
    C23      C        0.34210    0.03560    0.71700    1.000
    H8       H        0.39540    0.08790    0.69640    1.000
    C24      C        0.32080    0.14500    0.80930    1.000
    C25      C        0.09950    0.79600    0.81380    1.000
    C26      C        0.36130    0.93290    0.61780    1.000
    C27      C        0.31210    0.89400    0.54990    1.000
    C28      C        0.35770    0.88140    0.48480    1.000
    H9       H        0.32320    0.85300    0.44020    1.000
    C29      C        0.45400    0.91180    0.48770    1.000
    C30      C        0.50410    0.95190    0.55650    1.000
    H10      H        0.56900    0.97430    0.55840    1.000
    C31      C        0.45780    0.95860    0.62190    1.000
    C32      C        0.21350    0.87420    0.53790    1.000
    C33      C        0.50500    0.91040    0.41760    1.000
    C34      C        0.51450    0.98990    0.69560    1.000
    Co5      Co       0.65393    0.05592    0.79344    1.000
    Co6      Co       0.75925    0.03494    0.95064    1.000
    O21      O        0.78340    0.17110    0.77680    1.000
    O22      O        0.85060    0.12370    0.86370    1.000
    O23      O        0.19830    0.27960    0.88310    1.000
    O24      O        0.27400    0.32770    0.77030    1.000
    O25      O        0.05740    0.25500    0.54840    1.000
    O26      O        0.20820    0.36070    0.51450    1.000
    O27      O        0.13730    0.59810    0.36050    1.000
    O28      O        0.03640    0.63100    0.41320    1.000
    O29      O        0.93800    0.53640    0.69100    1.000
    O30      O        0.05520    0.53990    0.75570    1.000
    C35      C        0.95170    0.24650    0.77830    1.000
    C36      C        0.02900    0.24670    0.81140    1.000
    H11      H        0.02120    0.20830    0.85380    1.000
    C37      C        0.12020    0.30610    0.77960    1.000
    C38      C        0.13150    0.36280    0.71670    1.000
    H12      H        0.19120    0.39980    0.69480    1.000
    C39      C        0.05260    0.36460    0.68580    1.000
    C40      C        0.96440    0.30650    0.71700    1.000
    H13      H        0.91210    0.30750    0.69640    1.000
    C41      C        0.85500    0.17580    0.80930    1.000
    C42      C        0.20400    0.30350    0.81380    1.000
    C43      C        0.06710    0.42840    0.61780    1.000
    C44      C        0.10600    0.41810    0.54990    1.000
    C45      C        0.11860    0.47630    0.48480    1.000
    H14      H        0.14700    0.47020    0.44020    1.000
    C46      C        0.08820    0.54220    0.48770    1.000
    C47      C        0.04810    0.55220    0.55650    1.000
    H15      H        0.02570    0.59470    0.55840    1.000
    C48      C        0.04140    0.49920    0.62190    1.000
    C49      C        0.12580    0.33930    0.53790    1.000
    C50      C        0.08960    0.59460    0.41760    1.000
    C51      C        0.01010    0.52460    0.69560    1.000
    Co7      Co       0.59801    0.94408    0.29344    1.000
    Co8      Co       0.72431    0.96506    0.45064    1.000
    O31      O        0.61230    0.82890    0.27680    1.000
    O32      O        0.72690    0.87630    0.36370    1.000
    O33      O        0.91870    0.72040    0.38310    1.000
    O34      O        0.94630    0.67230    0.27030    1.000
    O35      O        0.80240    0.74500    0.04840    1.000
    O36      O        0.84750    0.63930    0.01450    1.000
    O37      O        0.53920    0.40190    0.86050    1.000
    O38      O        0.40540    0.36900    0.91320    1.000
    O39      O        0.40160    0.46360    0.19100    1.000
    O40      O        0.51530    0.46010    0.25570    1.000
    C52      C        0.70520    0.75350    0.27830    1.000
    C53      C        0.78230    0.75330    0.31140    1.000
    H16      H        0.81290    0.79170    0.35380    1.000
    C54      C        0.81410    0.69390    0.27960    1.000
    C55      C        0.76870    0.63720    0.21670    1.000
    H17      H        0.79140    0.60020    0.19480    1.000
    C56      C        0.68800    0.63540    0.18580    1.000
    C57      C        0.65790    0.69350    0.21700    1.000
    H18      H        0.60460    0.69250    0.19640    1.000
    C58      C        0.67920    0.82420    0.30930    1.000
    C59      C        0.90050    0.69650    0.31380    1.000
    C60      C        0.63870    0.57160    0.11780    1.000
    C61      C        0.68790    0.58190    0.04990    1.000
    C62      C        0.64230    0.52370    0.98480    1.000
    H19      H        0.67680    0.52980    0.94020    1.000
    C63      C        0.54600    0.45780    0.98770    1.000
    C64      C        0.49590    0.44780    0.05650    1.000
    H20      H        0.43100    0.40530    0.05840    1.000
    C65      C        0.54220    0.50080    0.12190    1.000
    C66      C        0.78650    0.66070    0.03790    1.000
    C67      C        0.49500    0.40540    0.91760    1.000
    C68      C        0.48550    0.47540    0.19560    1.000
    Co9      Co       0.34607    0.40199    0.29344    1.000
    Co10     Co       0.24075    0.27569    0.45064    1.000
    O41      O        0.21660    0.38770    0.27680    1.000
    O42      O        0.14940    0.27310    0.36370    1.000
    O43      O        0.80170    0.08130    0.38310    1.000
    O44      O        0.72600    0.05370    0.27030    1.000
    O45      O        0.94260    0.19760    0.04840    1.000
    O46      O        0.79180    0.15250    0.01450    1.000
    O47      O        0.86270    0.46080    0.86050    1.000
    O48      O        0.96360    0.59460    0.91320    1.000
    O49      O        0.06200    0.59840    0.19100    1.000
    O50      O        0.94480    0.48470    0.25570    1.000
    C69      C        0.04830    0.29480    0.27830    1.000
    C70      C        0.97100    0.21770    0.31140    1.000
    H21      H        0.97880    0.18710    0.35380    1.000
    C71      C        0.87980    0.18590    0.27960    1.000
    C72      C        0.86850    0.23130    0.21670    1.000
    H22      H        0.80880    0.20860    0.19480    1.000
    C73      C        0.94740    0.31200    0.18580    1.000
    C74      C        0.03560    0.34210    0.21700    1.000
    H23      H        0.08790    0.39540    0.19640    1.000
    C75      C        0.14500    0.32080    0.30930    1.000
    C76      C        0.79600    0.09950    0.31380    1.000
    C77      C        0.93290    0.36130    0.11780    1.000
    C78      C        0.89400    0.31210    0.04990    1.000
    C79      C        0.88140    0.35770    0.98480    1.000
    H24      H        0.85300    0.32320    0.94020    1.000
    C80      C        0.91180    0.45400    0.98770    1.000
    C81      C        0.95190    0.50410    0.05650    1.000
    H25      H        0.97430    0.56900    0.05840    1.000
    C82      C        0.95860    0.45780    0.12190    1.000
    C83      C        0.87420    0.21350    0.03790    1.000
    C84      C        0.91040    0.50500    0.91760    1.000
    C85      C        0.98990    0.51450    0.19560    1.000
    Co11     Co       0.05592    0.65393    0.29344    1.000
    Co12     Co       0.03494    0.75925    0.45064    1.000
    O51      O        0.17110    0.78340    0.27680    1.000
    O52      O        0.12370    0.85060    0.36370    1.000
    O53      O        0.27960    0.19830    0.38310    1.000
    O54      O        0.32770    0.27400    0.27030    1.000
    O55      O        0.25500    0.05740    0.04840    1.000
    O56      O        0.36070    0.20820    0.01450    1.000
    O57      O        0.59810    0.13730    0.86050    1.000
    O58      O        0.63100    0.03640    0.91320    1.000
    O59      O        0.53640    0.93800    0.19100    1.000
    O60      O        0.53990    0.05520    0.25570    1.000
    C86      C        0.24650    0.95170    0.27830    1.000
    C87      C        0.24670    0.02900    0.31140    1.000
    H26      H        0.20830    0.02120    0.35380    1.000
    C88      C        0.30610    0.12020    0.27960    1.000
    C89      C        0.36280    0.13150    0.21670    1.000
    H27      H        0.39980    0.19120    0.19480    1.000
    C90      C        0.36460    0.05260    0.18580    1.000
    C91      C        0.30650    0.96440    0.21700    1.000
    H28      H        0.30750    0.91210    0.19640    1.000
    C92      C        0.17580    0.85500    0.30930    1.000
    C93      C        0.30350    0.20400    0.31380    1.000
    C94      C        0.42840    0.06710    0.11780    1.000
    C95      C        0.41810    0.10600    0.04990    1.000
    C96      C        0.47630    0.11860    0.98480    1.000
    H29      H        0.47020    0.14700    0.94020    1.000
    C97      C        0.54220    0.08820    0.98770    1.000
    C98      C        0.55220    0.04810    0.05650    1.000
    H30      H        0.59470    0.02570    0.05840    1.000
    C99      C        0.49920    0.04140    0.12190    1.000
    C100     C        0.33930    0.12580    0.03790    1.000
    C101     C        0.59460    0.08960    0.91760    1.000
    C102     C        0.52460    0.01010    0.19560    1.000
