data_functionalizedCrystal
_audit_creation_method	'EQeq! by Chris Wilmer'
_symmetry_space_group_name_H-M	'P1'
_symmetry_Int_Tables_number	1
_symmetry_cell_setting	triclinic
loop_
_symmetry_equiv_pos_as_xyz
  x,y,z
_cell_length_a	15.179
_cell_length_b	16.746
_cell_length_c	28.863
_cell_angle_alpha	90
_cell_angle_beta	97.96
_cell_angle_gamma	90
loop_
_atom_site_label
_atom_site_type_symbol
_atom_site_fract_x
_atom_site_fract_y
_atom_site_fract_z
_atom_site_charge
Mof_Ag	Ag	0.795	0.09481	0.23692	0.611
Mof_Ag	Ag	0.18136	0.08679	0.41445	0.602
Mof_Ag	Ag	0.42045	0.37047	0.27752	0.516
Mof_Ag	Ag	0.05253	0.34523	0.08299	0.606
Mof_Ag	Ag	0.60382	0.91063	0.00968	0.478
Mof_C 	C 	0.9067	0.0822	0.3389	-0.048
Mof_H 	H 	0.8504	0.0977	0.3468	0.03
Mof_C 	C 	0.1551	0.3865	0.1854	0.007
Mof_H 	H 	0.096	0.3915	0.1923	0.014
Mof_N 	N 	0.6979	0.9968	0.27544	-0.17
Mof_N 	N 	0.913	0.0647	0.29452	-0.161
Mof_N 	N 	0.7393	0.0349	0.16249	-0.18
Mof_N 	N 	0.0603	0.0622	0.36372	-0.193
Mof_N 	N 	0.168	0.3803	0.1412	-0.185
Mof_N 	N 	0.1612	0.2638	0.0564	-0.181
Mof_C 	C 	0.9686	0.0938	0.4248	-0.256
Mof_H 	H 	0.9999	0.0513	0.4445	0.076
Mof_H 	H 	0.9046	0.0908	0.4282	0.088
Mof_N 	N 	0.5403	0.2908	0.2606	-0.155
Mof_C 	C 	0.3223	0.3714	0.1701	-0.05
Mof_H 	H 	0.3813	0.3645	0.1632	0.026
Mof_C 	C 	0.3922	0.0977	0.3974	-0.257
Mof_H 	H 	0.4556	0.0965	0.3928	0.09
Mof_H 	H 	0.3624	0.0516	0.3803	0.079
Mof_C 	C 	0.7214	0.9567	0.1577	0.003
Mof_H 	H 	0.7266	0.9246	0.1851	0.013
Mof_C 	C 	0.7472	0.1663	0.1269	-0.262
Mof_H 	H 	0.7116	0.1883	0.1502	0.087
Mof_H 	H 	0.726	0.1916	0.0964	0.09
Mof_N 	N 	0.6791	0.1871	0.24876	-0.181
Mof_N 	N 	0.8823	0.1658	0.18438	-0.176
Mof_N 	N 	0.3092	0.3789	0.2148	-0.159
Mof_C 	C 	0.386	0.0882	0.449	0.099
Mof_C 	C 	0.9794	0.0789	0.3745	0.107
Mof_C 	C 	0.3509	0.1736	0.3765	0.109
Mof_C 	C 	0.2242	0.386	0.222	-0.01
Mof_H 	H 	0.2111	0.3909	0.2531	0.011
Mof_C 	C 	0.0045	0.1739	0.4421	0.105
Mof_C 	C 	0.675	0.9167	0.3401	-0.007
Mof_H 	H 	0.6991	0.8785	0.3628	0.025
Mof_N 	N 	0.0928	0.1831	0.4473	-0.18
Mof_C 	C 	0.271	0.3672	0.0828	-0.242
Mof_H 	H 	0.2367	0.4091	0.0639	0.066
Mof_H 	H 	0.335	0.3774	0.0818	0.072
Mof_N 	N 	0.2641	0.1843	0.3789	-0.18
Mof_C 	C 	0.0162	0.2248	0.1653	-0.012
Mof_H 	H 	0.0781	0.2337	0.174	0.019
Mof_C 	C 	0.2528	0.3734	0.1333	0.091
Mof_C 	C 	0.399	0.2302	0.3551	-0.058
Mof_H 	H 	0.4603	0.2208	0.3536	0.034
Mof_N 	N 	0.6875	0.9635	0.076	-0.155
Mof_C 	C 	0.7284	0.9451	0.3096	0.008
Mof_H 	H 	0.7886	0.928	0.3126	0.016
Mof_C 	C 	0.576	0.074	0.2351	-0.27
Mof_H 	H 	0.5108	0.0662	0.2285	0.092
Mof_H 	H 	0.6015	0.0594	0.2065	0.092
Mof_C 	C 	0.5945	0.1611	0.2454	0.109
Mof_C 	C 	0.5258	0.2137	0.2511	-0.054
Mof_H 	H 	0.4666	0.1939	0.2482	0.028
Mof_C 	C 	0.6933	0.2642	0.2586	0.005
Mof_H 	H 	0.7524	0.2842	0.2618	0.012
Mof_C 	C 	0.4569	0.1069	0.4828	-0.047
Mof_H 	H 	0.5098	0.1275	0.4731	0.026
Mof_C 	C 	0.6238	0.3165	0.2644	-0.003
Mof_H 	H 	0.6365	0.3712	0.2712	0.004
Mof_C 	C 	0.9678	0.1836	0.196	0.011
Mof_H 	H 	0.9971	0.1681	0.2258	0.011
Mof_C 	C 	0.7306	0.078	0.1228	0.111
Mof_C 	C 	0.0675	0.0471	0.3184	-0.006
Mof_H 	H 	0.1245	0.0363	0.3099	0.005
Mof_N 	N 	0.3086	0.0609	0.4616	-0.197
Mof_C 	C 	0.6125	0.0192	0.2736	0.119
Mof_C 	C 	0.8431	0.1886	0.1412	0.108
Mof_C 	C 	0.8904	0.2336	0.112	-0.047
Mof_H 	H 	0.8606	0.2518	0.0828	0.029
Mof_C 	C 	0.3102	0.2389	0.045	-0.056
Mof_H 	H 	0.3698	0.2574	0.0478	0.03
Mof_C 	C 	0.2467	0.2866	0.0611	0.104
Mof_C 	C 	0.9953	0.047	0.2847	0.003
Mof_H 	H 	0.003	0.0341	0.2535	-0.013
Mof_C 	C 	0.6959	0.9211	0.1154	-0.011
Mof_H 	H 	0.6841	0.8654	0.1141	0.015
Mof_C 	C 	0.7063	0.0416	0.08	-0.064
Mof_H 	H 	0.7028	0.0731	0.0524	0.024
Mof_C 	C 	0.3064	0.0496	0.507	0.009
Mof_H 	H 	0.2536	0.0291	0.5168	-0.001
Mof_C 	C 	0.9495	0.2355	0.4528	-0.052
Mof_H 	H 	0.887	0.2275	0.4486	0.032
Mof_C 	C 	0.2269	0.2512	0.3607	0.008
Mof_H 	H 	0.1654	0.2604	0.3617	0.013
Mof_C 	C 	0.5598	0.9911	0.306	-0.062
Mof_H 	H 	0.5	0.009	0.304	0.041
Mof_C 	C 	0.1257	0.254	0.4631	0.002
Mof_H 	H 	0.1882	0.2625	0.4672	0.012
Mof_N 	N 	0.591	0.9396	0.3399	-0.112
Mof_C 	C 	0.1431	0.1912	0.037	0.005
Mof_H 	H 	0.0837	0.1721	0.034	0.009
Mof_N 	N 	0.3614	0.2978	0.3363	-0.153
Mof_N 	N 	0.9824	0.3058	0.4688	-0.157
Mof_N 	N 	0.4537	0.0971	0.5282	-0.165
Mof_N 	N 	0.9757	0.2515	0.1239	-0.15
Mof_C 	C 	0.3786	0.0668	0.5406	-0.016
Mof_H 	H 	0.3747	0.057	0.5726	0.021
Mof_C 	C 	0.2759	0.308	0.3402	-0.008
Mof_H 	H 	0.2473	0.3558	0.3285	0.008
Mof_N 	N 	0.2902	0.167	0.0254	-0.15
Mof_C 	C 	0.0703	0.3149	0.4736	-0.006
Mof_H 	H 	0.0955	0.3645	0.4844	-0.009
Mof_C 	C 	0.2058	0.1445	0.0217	-0.007
Mof_H 	H 	0.1889	0.0942	0.008	0.012
Mof_Ag	Ag	0.705	0.59481	0.26308	0.61
Mof_Ag	Ag	0.31864	0.58679	0.08555	0.601
Mof_Ag	Ag	0.07955	0.87047	0.22248	0.514
Mof_Ag	Ag	0.44747	0.84523	0.41701	0.607
Mof_Ag	Ag	0.89618	0.41063	0.49032	0.477
Mof_C 	C 	0.5933	0.5822	0.1611	-0.049
Mof_H 	H 	0.6496	0.5977	0.1532	0.029
Mof_C 	C 	0.3449	0.8865	0.3146	0.006
Mof_H 	H 	0.404	0.8915	0.3077	0.014
Mof_N 	N 	0.8021	0.4968	0.22456	-0.171
Mof_N 	N 	0.587	0.5647	0.20548	-0.161
Mof_N 	N 	0.7607	0.5349	0.33751	-0.181
Mof_N 	N 	0.4397	0.5622	0.13628	-0.194
Mof_N 	N 	0.332	0.8803	0.3588	-0.186
Mof_N 	N 	0.3388	0.7638	0.4436	-0.182
Mof_C 	C 	0.5314	0.5938	0.0752	-0.258
Mof_H 	H 	0.5001	0.5513	0.0555	0.075
Mof_H 	H 	0.5954	0.5908	0.0718	0.088
Mof_N 	N 	0.9597	0.7908	0.2394	-0.155
Mof_C 	C 	0.1777	0.8714	0.3299	-0.05
Mof_H 	H 	0.1187	0.8645	0.3368	0.026
Mof_C 	C 	0.1078	0.5977	0.1026	-0.258
Mof_H 	H 	0.0444	0.5965	0.1072	0.089
Mof_H 	H 	0.1376	0.5516	0.1197	0.079
Mof_C 	C 	0.7786	0.4567	0.3423	0.003
Mof_H 	H 	0.7734	0.4246	0.3149	0.013
Mof_C 	C 	0.7528	0.6663	0.3731	-0.262
Mof_H 	H 	0.7884	0.6883	0.3498	0.087
Mof_H 	H 	0.774	0.6916	0.4036	0.09
Mof_N 	N 	0.8209	0.6871	0.25124	-0.181
Mof_N 	N 	0.6177	0.6658	0.31562	-0.176
Mof_N 	N 	0.1908	0.8789	0.2852	-0.159
Mof_C 	C 	0.114	0.5882	0.051	0.1
Mof_C 	C 	0.5206	0.5789	0.1255	0.106
Mof_C 	C 	0.1491	0.6736	0.1235	0.109
Mof_C 	C 	0.2758	0.886	0.278	-0.01
Mof_H 	H 	0.2889	0.8909	0.2469	0.011
Mof_C 	C 	0.4955	0.6739	0.0579	0.107
Mof_C 	C 	0.825	0.4167	0.1599	-0.007
Mof_H 	H 	0.8009	0.3785	0.1372	0.025
Mof_N 	N 	0.4072	0.6831	0.0527	-0.18
Mof_C 	C 	0.229	0.8672	0.4172	-0.242
Mof_H 	H 	0.2633	0.9091	0.4361	0.066
Mof_H 	H 	0.165	0.8774	0.4182	0.072
Mof_N 	N 	0.2359	0.6843	0.1211	-0.18
Mof_C 	C 	0.4838	0.7248	0.3347	-0.008
Mof_H 	H 	0.4219	0.7337	0.326	0.018
Mof_C 	C 	0.2472	0.8734	0.3667	0.091
Mof_C 	C 	0.101	0.7302	0.1449	-0.058
Mof_H 	H 	0.0397	0.7208	0.1464	0.033
Mof_N 	N 	0.8125	0.4635	0.424	-0.155
Mof_C 	C 	0.7716	0.4451	0.1904	0.008
Mof_H 	H 	0.7114	0.428	0.1874	0.016
Mof_C 	C 	0.924	0.574	0.2649	-0.269
Mof_H 	H 	0.9892	0.5662	0.2715	0.092
Mof_H 	H 	0.8985	0.5594	0.2935	0.091
Mof_C 	C 	0.9055	0.6611	0.2546	0.108
Mof_C 	C 	0.9742	0.7137	0.2489	-0.051
Mof_H 	H 	0.0334	0.6939	0.2518	0.027
Mof_C 	C 	0.8067	0.7642	0.2414	0.005
Mof_H 	H 	0.7476	0.7842	0.2382	0.012
Mof_C 	C 	0.0431	0.6069	0.0172	-0.051
Mof_H 	H 	0.9902	0.6275	0.0269	0.029
Mof_C 	C 	0.8762	0.8165	0.2356	-0.003
Mof_H 	H 	0.8635	0.8712	0.2288	0.004
Mof_C 	C 	0.5322	0.6836	0.304	0.008
Mof_H 	H 	0.5029	0.6681	0.2742	0.011
Mof_C 	C 	0.7694	0.578	0.3772	0.111
Mof_C 	C 	0.4325	0.5471	0.1816	-0.003
Mof_H 	H 	0.3755	0.5363	0.1901	0.004
Mof_N 	N 	0.1914	0.5609	0.0384	-0.198
Mof_C 	C 	0.8875	0.5192	0.2264	0.118
Mof_C 	C 	0.6569	0.6886	0.3588	0.107
Mof_C 	C 	0.6096	0.7336	0.388	-0.047
Mof_H 	H 	0.6394	0.7518	0.4172	0.029
Mof_C 	C 	0.1898	0.7389	0.455	-0.056
Mof_H 	H 	0.1302	0.7574	0.4522	0.03
Mof_C 	C 	0.2533	0.7866	0.4389	0.104
Mof_C 	C 	0.5047	0.547	0.2153	-0.002
Mof_H 	H 	0.497	0.5341	0.2465	-0.011
Mof_C 	C 	0.8041	0.4211	0.3846	-0.011
Mof_H 	H 	0.8159	0.3654	0.3859	0.015
Mof_C 	C 	0.7937	0.5416	0.42	-0.064
Mof_H 	H 	0.7972	0.5731	0.4476	0.024
Mof_C 	C 	0.1936	0.5496	0.993	0.01
Mof_H 	H 	0.2464	0.5291	0.9832	-0.001
Mof_C 	C 	0.5505	0.7355	0.0472	-0.054
Mof_H 	H 	0.613	0.7275	0.0514	0.032
Mof_C 	C 	0.2731	0.7512	0.1393	0.008
Mof_H 	H 	0.3346	0.7604	0.1383	0.013
Mof_C 	C 	0.9402	0.4911	0.194	-0.059
Mof_H 	H 	1.5909e-33	0.509	0.196	0.039
Mof_C 	C 	0.3743	0.754	0.0369	0.002
Mof_H 	H 	0.3118	0.7625	0.0328	0.012
Mof_N 	N 	0.909	0.4396	0.1601	-0.112
Mof_C 	C 	0.3569	0.6912	0.463	0.005
Mof_H 	H 	0.4163	0.6721	0.466	0.009
Mof_N 	N 	0.1386	0.7978	0.1637	-0.153
Mof_N 	N 	0.5176	0.8058	0.0312	-0.157
Mof_N 	N 	0.0463	0.5971	0.9718	-0.164
Mof_N 	N 	0.5243	0.7515	0.3761	-0.152
Mof_C 	C 	0.1214	0.5668	0.9594	-0.016
Mof_H 	H 	0.1253	0.557	0.9274	0.021
Mof_C 	C 	0.2241	0.808	0.1598	-0.008
Mof_H 	H 	0.2527	0.8558	0.1715	0.008
Mof_N 	N 	0.2098	0.667	0.4746	-0.15
Mof_C 	C 	0.4297	0.8149	0.0264	-0.005
Mof_H 	H 	0.4045	0.8645	0.0156	-0.01
Mof_C 	C 	0.2942	0.6445	0.4783	-0.007
Mof_H 	H 	0.3111	0.5942	0.492	0.012
Mof_Ag	Ag	0.205	0.90519	0.76308	0.609
Mof_Ag	Ag	0.81864	0.91321	0.58555	0.601
Mof_Ag	Ag	0.57955	0.62953	0.72248	0.515
Mof_Ag	Ag	0.94747	0.65477	0.91701	0.608
Mof_Ag	Ag	0.39618	0.08937	0.99032	0.477
Mof_C 	C 	0.0933	0.9178	0.6611	-0.05
Mof_H 	H 	0.1496	0.9023	0.6532	0.029
Mof_C 	C 	0.8449	0.6135	0.8146	0.006
Mof_H 	H 	0.904	0.6085	0.8077	0.014
Mof_N 	N 	0.3021	0.0032	0.72456	-0.171
Mof_N 	N 	0.087	0.9353	0.70548	-0.161
Mof_N 	N 	0.2607	0.9651	0.83751	-0.181
Mof_N 	N 	0.9397	0.9378	0.63628	-0.194
Mof_N 	N 	0.832	0.6197	0.8588	-0.186
Mof_N 	N 	0.8388	0.7362	0.9436	-0.182
Mof_C 	C 	0.0314	0.9062	0.5752	-0.26
Mof_H 	H 	0.0001	0.9487	0.5555	0.075
Mof_H 	H 	0.0954	0.9092	0.5718	0.088
Mof_N 	N 	0.4597	0.7092	0.7394	-0.155
Mof_C 	C 	0.6777	0.6286	0.8299	-0.05
Mof_H 	H 	0.6187	0.6355	0.8368	0.026
Mof_C 	C 	0.6078	0.9023	0.6026	-0.257
Mof_H 	H 	0.5444	0.9035	0.6072	0.09
Mof_H 	H 	0.6376	0.9484	0.6197	0.079
Mof_C 	C 	0.2786	0.0433	0.8423	0.003
Mof_H 	H 	0.2734	0.0754	0.8149	0.013
Mof_C 	C 	0.2528	0.8337	0.8731	-0.262
Mof_H 	H 	0.2884	0.8117	0.8498	0.087
Mof_H 	H 	0.274	0.8084	0.9036	0.09
Mof_N 	N 	0.3209	0.8129	0.75124	-0.181
Mof_N 	N 	0.1177	0.8342	0.81562	-0.176
Mof_N 	N 	0.6908	0.6211	0.7852	-0.159
Mof_C 	C 	0.614	0.9118	0.551	0.099
Mof_C 	C 	0.0206	0.9211	0.6255	0.106
Mof_C 	C 	0.6491	0.8264	0.6235	0.109
Mof_C 	C 	0.7758	0.614	0.778	-0.01
Mof_H 	H 	0.7889	0.6091	0.7469	0.011
Mof_C 	C 	0.9955	0.8261	0.5579	0.109
Mof_C 	C 	0.325	0.0833	0.6599	-0.007
Mof_H 	H 	0.3009	0.1215	0.6372	0.025
Mof_N 	N 	0.9072	0.8169	0.5527	-0.18
Mof_C 	C 	0.729	0.6328	0.9172	-0.242
Mof_H 	H 	0.7633	0.5909	0.9361	0.066
Mof_H 	H 	0.665	0.6226	0.9182	0.072
Mof_N 	N 	0.7359	0.8157	0.6211	-0.18
Mof_C 	C 	0.9838	0.7752	0.8347	-0.007
Mof_H 	H 	0.9219	0.7663	0.826	0.017
Mof_C 	C 	0.7472	0.6266	0.8667	0.091
Mof_C 	C 	0.601	0.7698	0.6449	-0.057
Mof_H 	H 	0.5397	0.7792	0.6464	0.034
Mof_N 	N 	0.3125	0.0365	0.924	-0.155
Mof_C 	C 	0.2716	0.0549	0.6904	0.008
Mof_H 	H 	0.2114	0.072	0.6874	0.016
Mof_C 	C 	0.424	0.926	0.7649	-0.27
Mof_H 	H 	0.4892	0.9338	0.7715	0.092
Mof_H 	H 	0.3985	0.9406	0.7935	0.092
Mof_C 	C 	0.4055	0.8389	0.7546	0.109
Mof_C 	C 	0.4742	0.7863	0.7489	-0.054
Mof_H 	H 	0.5334	0.8061	0.7518	0.028
Mof_C 	C 	0.3067	0.7358	0.7414	0.005
Mof_H 	H 	0.2476	0.7158	0.7382	0.012
Mof_C 	C 	0.5431	0.8931	0.5172	-0.047
Mof_H 	H 	0.4902	0.8725	0.5269	0.026
Mof_C 	C 	0.3762	0.6835	0.7356	-0.003
Mof_H 	H 	0.3635	0.6288	0.7288	0.004
Mof_C 	C 	0.0322	0.8164	0.804	0.007
Mof_H 	H 	0.0029	0.8319	0.7742	0.011
Mof_C 	C 	0.2694	0.922	0.8772	0.11
Mof_C 	C 	0.9325	0.9529	0.6816	-0.001
Mof_H 	H 	0.8755	0.9637	0.6901	0.004
Mof_N 	N 	0.6914	0.9391	0.5384	-0.197
Mof_C 	C 	0.3875	0.9808	0.7264	0.119
Mof_C 	C 	0.1569	0.8114	0.8588	0.107
Mof_C 	C 	0.1096	0.7664	0.888	-0.047
Mof_H 	H 	0.1394	0.7482	0.9172	0.029
Mof_C 	C 	0.6898	0.7611	0.955	-0.056
Mof_H 	H 	0.6302	0.7426	0.9522	0.03
Mof_C 	C 	0.7533	0.7134	0.9389	0.104
Mof_C 	C 	0.0047	0.953	0.7153	-0.004
Mof_H 	H 	0.997	0.9659	0.7465	-0.009
Mof_C 	C 	0.3041	0.0789	0.8846	-0.011
Mof_H 	H 	0.3159	0.1346	0.8859	0.015
Mof_C 	C 	0.2937	0.9584	0.92	-0.064
Mof_H 	H 	0.2972	0.9269	0.9476	0.024
Mof_C 	C 	0.6936	0.9504	0.493	0.009
Mof_H 	H 	0.7464	0.9709	0.4832	-0.001
Mof_C 	C 	0.0505	0.7645	0.5472	-0.055
Mof_H 	H 	0.113	0.7725	0.5514	0.033
Mof_C 	C 	0.7731	0.7488	0.6393	0.008
Mof_H 	H 	0.8346	0.7396	0.6383	0.013
Mof_C 	C 	0.4402	0.0089	0.694	-0.062
Mof_H 	H 	0.5	0.991	0.696	0.041
Mof_C 	C 	0.8743	0.746	0.5369	0.002
Mof_H 	H 	0.8118	0.7375	0.5328	0.012
Mof_N 	N 	0.409	0.0604	0.6601	-0.112
Mof_C 	C 	0.8569	0.8088	0.963	0.005
Mof_H 	H 	0.9163	0.8279	0.966	0.009
Mof_N 	N 	0.6386	0.7022	0.6637	-0.153
Mof_N 	N 	0.0176	0.6942	0.5312	-0.157
Mof_N 	N 	0.5463	0.9029	0.4718	-0.165
Mof_N 	N 	0.0243	0.7485	0.8761	-0.153
Mof_C 	C 	0.6214	0.9332	0.4594	-0.016
Mof_H 	H 	0.6253	0.943	0.4274	0.021
Mof_C 	C 	0.7241	0.692	0.6598	-0.008
Mof_H 	H 	0.7527	0.6442	0.6715	0.008
Mof_N 	N 	0.7098	0.833	0.9746	-0.15
Mof_C 	C 	0.9297	0.6851	0.5264	-0.004
Mof_H 	H 	0.9045	0.6355	0.5156	-0.01
Mof_C 	C 	0.7942	0.8555	0.9783	-0.007
Mof_H 	H 	0.8111	0.9058	0.992	0.012
Mof_Ag	Ag	0.295	0.40519	0.73692	0.61
Mof_Ag	Ag	0.68136	0.41321	0.91445	0.601
Mof_Ag	Ag	0.92045	0.12953	0.77752	0.515
Mof_Ag	Ag	0.55253	0.15477	0.58299	0.607
Mof_Ag	Ag	0.10382	0.58937	0.50968	0.476
Mof_C 	C 	0.4067	0.4178	0.8389	-0.049
Mof_H 	H 	0.3504	0.4023	0.8468	0.029
Mof_C 	C 	0.6551	0.1135	0.6854	0.006
Mof_H 	H 	0.596	0.1085	0.6923	0.014
Mof_N 	N 	0.1979	0.5032	0.77544	-0.171
Mof_N 	N 	0.413	0.4353	0.79452	-0.161
Mof_N 	N 	0.2393	0.4651	0.66249	-0.181
Mof_N 	N 	0.5603	0.4378	0.86372	-0.194
Mof_N 	N 	0.668	0.1197	0.6412	-0.186
Mof_N 	N 	0.6612	0.2362	0.5564	-0.182
Mof_C 	C 	0.4686	0.4062	0.9248	-0.258
Mof_H 	H 	0.4999	0.4487	0.9445	0.075
Mof_H 	H 	0.4046	0.4092	0.9282	0.088
Mof_N 	N 	0.0403	0.2092	0.7606	-0.155
Mof_C 	C 	0.8223	0.1286	0.6701	-0.05
Mof_H 	H 	0.8813	0.1355	0.6632	0.026
Mof_C 	C 	0.8922	0.4023	0.8974	-0.257
Mof_H 	H 	0.9556	0.4035	0.8928	0.09
Mof_H 	H 	0.8624	0.4484	0.8803	0.079
Mof_C 	C 	0.2214	0.5433	0.6577	0.003
Mof_H 	H 	0.2266	0.5754	0.6851	0.013
Mof_C 	C 	0.2472	0.3337	0.6269	-0.262
Mof_H 	H 	0.2116	0.3117	0.6502	0.087
Mof_H 	H 	0.226	0.3084	0.5964	0.09
Mof_N 	N 	0.1791	0.3129	0.74876	-0.181
Mof_N 	N 	0.3823	0.3342	0.68438	-0.176
Mof_N 	N 	0.8092	0.1211	0.7148	-0.159
Mof_C 	C 	0.886	0.4118	0.949	0.099
Mof_C 	C 	0.4794	0.4211	0.8745	0.106
Mof_C 	C 	0.8509	0.3264	0.8765	0.109
Mof_C 	C 	0.7242	0.114	0.722	-0.01
Mof_H 	H 	0.7111	0.1091	0.7531	0.011
Mof_C 	C 	0.5045	0.3261	0.9421	0.107
Mof_C 	C 	0.175	0.5833	0.8401	-0.007
Mof_H 	H 	0.1991	0.6215	0.8628	0.025
Mof_N 	N 	0.5928	0.3169	0.9473	-0.18
Mof_C 	C 	0.771	0.1328	0.5828	-0.242
Mof_H 	H 	0.7367	0.0909	0.5639	0.066
Mof_H 	H 	0.835	0.1226	0.5818	0.072
Mof_N 	N 	0.7641	0.3157	0.8789	-0.18
Mof_C 	C 	0.5162	0.2752	0.6653	-0.008
Mof_H 	H 	0.5781	0.2663	0.674	0.018
Mof_C 	C 	0.7528	0.1266	0.6333	0.091
Mof_C 	C 	0.899	0.2698	0.8551	-0.058
Mof_H 	H 	0.9603	0.2792	0.8536	0.034
Mof_N 	N 	0.1875	0.5365	0.576	-0.155
Mof_C 	C 	0.2284	0.5549	0.8096	0.008
Mof_H 	H 	0.2886	0.572	0.8126	0.016
Mof_C 	C 	0.076	0.426	0.7351	-0.27
Mof_H 	H 	0.0108	0.4338	0.7285	0.092
Mof_H 	H 	0.1015	0.4406	0.7065	0.092
Mof_C 	C 	0.0945	0.3389	0.7454	0.109
Mof_C 	C 	0.0258	0.2863	0.7511	-0.054
Mof_H 	H 	0.9666	0.3061	0.7482	0.029
Mof_C 	C 	0.1933	0.2358	0.7586	0.005
Mof_H 	H 	0.2524	0.2158	0.7618	0.012
Mof_C 	C 	0.9569	0.3931	0.9828	-0.047
Mof_H 	H 	0.0098	0.3725	0.9731	0.027
Mof_C 	C 	0.1238	0.1835	0.7644	-0.003
Mof_H 	H 	0.1365	0.1288	0.7712	0.004
Mof_C 	C 	0.4678	0.3164	0.696	0.008
Mof_H 	H 	0.4971	0.3319	0.7258	0.011
Mof_C 	C 	0.2306	0.422	0.6228	0.11
Mof_C 	C 	0.5675	0.4529	0.8184	-0.003
Mof_H 	H 	0.6245	0.4637	0.8099	0.004
Mof_N 	N 	0.8086	0.4391	0.9616	-0.197
Mof_C 	C 	0.1125	0.4808	0.7736	0.119
Mof_C 	C 	0.3431	0.3114	0.6412	0.107
Mof_C 	C 	0.3904	0.2664	0.612	-0.047
Mof_H 	H 	0.3606	0.2482	0.5828	0.029
Mof_C 	C 	0.8102	0.2611	0.545	-0.056
Mof_H 	H 	0.8698	0.2426	0.5478	0.03
Mof_C 	C 	0.7467	0.2134	0.5611	0.105
Mof_C 	C 	0.4953	0.453	0.7847	-0.002
Mof_H 	H 	0.503	0.4659	0.7535	-0.011
Mof_C 	C 	0.1959	0.5789	0.6154	-0.011
Mof_H 	H 	0.1841	0.6346	0.6141	0.015
Mof_C 	C 	0.2063	0.4584	0.58	-0.064
Mof_H 	H 	0.2028	0.4269	0.5524	0.024
Mof_C 	C 	0.8064	0.4504	0.007	0.01
Mof_H 	H 	0.7536	0.4709	0.0168	-0.001
Mof_C 	C 	0.4495	0.2645	0.9528	-0.054
Mof_H 	H 	0.387	0.2725	0.9486	0.032
Mof_C 	C 	0.7269	0.2488	0.8607	0.008
Mof_H 	H 	0.6654	0.2396	0.8617	0.013
Mof_C 	C 	0.0598	0.5089	0.806	-0.062
Mof_H 	H 	-3.12931e-17	0.491	0.804	0.041
Mof_C 	C 	0.6257	0.246	0.9631	0.002
Mof_H 	H 	0.6882	0.2375	0.9672	0.012
Mof_N 	N 	0.091	0.5604	0.8399	-0.112
Mof_C 	C 	0.6431	0.3088	0.537	0.005
Mof_H 	H 	0.5837	0.3279	0.534	0.009
Mof_N 	N 	0.8614	0.2022	0.8363	-0.153
Mof_N 	N 	0.4824	0.1942	0.9688	-0.157
Mof_N 	N 	0.9537	0.4029	0.0282	-0.164
Mof_N 	N 	0.4757	0.2485	0.6239	-0.152
Mof_C 	C 	0.8786	0.4332	0.0406	-0.016
Mof_H 	H 	0.8747	0.443	0.0726	0.021
Mof_C 	C 	0.7759	0.192	0.8402	-0.008
Mof_H 	H 	0.7473	0.1442	0.8285	0.008
Mof_N 	N 	0.7902	0.333	0.5254	-0.15
Mof_C 	C 	0.5703	0.1851	0.9736	-0.005
Mof_H 	H 	0.5955	0.1355	0.9844	-0.01
Mof_C 	C 	0.7058	0.3555	0.5217	-0.007
Mof_H 	H 	0.6889	0.4058	0.508	0.012
_end
