data_functionalizedCrystal
_audit_creation_method	'EQeq! by Chris Wilmer'
_symmetry_space_group_name_H-M	'P1'
_symmetry_Int_Tables_number	1
_symmetry_cell_setting	triclinic
loop_
_symmetry_equiv_pos_as_xyz
  x,y,z
_cell_length_a	13.0883
_cell_length_b	13.0883
_cell_length_c	26.7939
_cell_angle_alpha	90
_cell_angle_beta	90
_cell_angle_gamma	90
loop_
_atom_site_label
_atom_site_type_symbol
_atom_site_fract_x
_atom_site_fract_y
_atom_site_fract_z
_atom_site_charge
Mof_N 	N 	0.4499	0.9049	0.33688	-0.26
Mof_O 	O 	0.2805	0.5432	0.58323	-0.228
Mof_N 	N 	0.0992	0.4559	0.72918	-0.234
Mof_C 	C 	0.3859	0.6176	0.46281	-0.021
Mof_H 	H 	0.4141	0.5868	0.4347	0.048
Mof_C 	C 	0.351	0.5557	0.50227	-0.029
Mof_C 	C 	0.4062	0.7868	0.42098	0.146
Mof_C 	C 	0.3795	0.7229	0.46472	-0.063
Mof_C 	C 	0.464	0.7482	0.38184	-0.195
Mof_H 	H 	0.4892	0.6818	0.3834	0.099
Mof_C 	C 	0.4844	0.8087	0.34031	0.106
Mof_H 	H 	0.5229	0.7817	0.3143	-0.025
Mof_C 	C 	0.316	0.6052	0.54613	0.16
Mof_C 	C 	0.3459	0.7677	0.50886	0.033
Mof_H 	H 	0.3443	0.8385	0.5113	0.018
Mof_C 	C 	0.3701	0.8841	0.41606	-0.239
Mof_H 	H 	0.3295	0.9123	0.441	0.118
Mof_C 	C 	0.3937	0.9418	0.3736	0.21
Mof_H 	H 	0.369	0.0083	0.3712	-0.1
Mof_C 	C 	0.1335	0.5261	0.69648	0.012
Mof_H 	H 	0.11	0.5929	0.6993	-0.008
Mof_C 	C 	0.201	0.5035	0.65944	-0.018
Mof_C 	C 	0.3149	0.71	0.54902	-0.166
Mof_H 	H 	0.2932	0.742	0.5781	0.087
Mof_C 	C 	0.1302	0.3593	0.7241	0.055
Mof_H 	H 	0.1063	0.3102	0.7464	-0.026
Mof_C 	C 	0.2384	0.5868	0.6257	0.033
Mof_H 	H 	0.1822	0.6312	0.6166	0.02
Mof_H 	H 	0.2895	0.6275	0.6428	0.018
Mof_C 	C 	0.1953	0.3308	0.6874	-0.104
Mof_H 	H 	0.2144	0.2626	0.6846	0.057
Mof_C 	C 	0.2334	0.4007	0.6544	-0.013
Mof_H 	H 	0.279	0.3815	0.6294	0.049
Mof_N 	N 	0.5501	0.0951	0.33688	-0.231
Mof_O 	O 	0.7195	0.4568	0.58323	-0.217
Mof_N 	N 	0.9008	0.5441	0.72918	-0.214
Mof_C 	C 	0.6141	0.3824	0.46281	-0.042
Mof_H 	H 	0.5859	0.4132	0.4347	0.057
Mof_C 	C 	0.649	0.4443	0.50227	-0.012
Mof_C 	C 	0.5938	0.2132	0.42098	0.077
Mof_C 	C 	0.6205	0.2771	0.46472	-0.029
Mof_C 	C 	0.536	0.2518	0.38184	-0.147
Mof_H 	H 	0.5108	0.3182	0.3834	0.082
Mof_C 	C 	0.5156	0.1913	0.34031	0.073
Mof_H 	H 	0.4771	0.2183	0.3143	-0.02
Mof_C 	C 	0.684	0.3948	0.54613	0.151
Mof_C 	C 	0.6541	0.2323	0.50886	0.014
Mof_H 	H 	0.6557	0.1615	0.5113	0.017
Mof_C 	C 	0.6299	0.1159	0.41606	-0.112
Mof_H 	H 	0.6705	0.0877	0.441	0.057
Mof_C 	C 	0.6063	0.0582	0.3736	-0.015
Mof_H 	H 	0.631	0.9917	0.3712	0.043
Mof_C 	C 	0.8665	0.4739	0.69648	0.017
Mof_H 	H 	0.89	0.4071	0.6993	0.007
Mof_C 	C 	0.799	0.4965	0.65944	-0.008
Mof_C 	C 	0.6851	0.29	0.54902	-0.15
Mof_H 	H 	0.7068	0.258	0.5781	0.081
Mof_C 	C 	0.8698	0.6407	0.7241	0.062
Mof_H 	H 	0.8937	0.6898	0.7464	-0.005
Mof_C 	C 	0.7616	0.4132	0.6257	0.024
Mof_H 	H 	0.8178	0.3688	0.6166	0.031
Mof_H 	H 	0.7105	0.3725	0.6428	0.021
Mof_C 	C 	0.8047	0.6692	0.6874	-0.095
Mof_H 	H 	0.7856	0.7374	0.6846	0.067
Mof_C 	C 	0.7666	0.5993	0.6544	-0.01
Mof_H 	H 	0.721	0.6185	0.6294	0.052
Mof_N 	N 	0.0951	0.4499	0.83688	-0.231
Mof_O 	O 	0.4568	0.2805	0.08323	-0.225
Mof_N 	N 	0.5441	0.0992	0.22918	-0.233
Mof_C 	C 	0.3824	0.3859	0.96281	-0.043
Mof_H 	H 	0.4132	0.4141	0.9347	0.057
Mof_C 	C 	0.4443	0.351	0.00227	-0.015
Mof_C 	C 	0.2132	0.4062	0.92098	0.074
Mof_C 	C 	0.2771	0.3795	0.96472	-0.031
Mof_C 	C 	0.2518	0.464	0.88184	-0.146
Mof_H 	H 	0.3182	0.4892	0.8834	0.082
Mof_C 	C 	0.1913	0.4844	0.84031	0.072
Mof_H 	H 	0.2183	0.5229	0.8143	-0.018
Mof_C 	C 	0.3948	0.316	0.04613	0.149
Mof_C 	C 	0.2323	0.3459	0.00886	0.01
Mof_H 	H 	0.1615	0.3443	0.0113	0.014
Mof_C 	C 	0.1159	0.3701	0.91606	-0.113
Mof_H 	H 	0.0877	0.3295	0.941	0.051
Mof_C 	C 	0.0582	0.3937	0.8736	-0.018
Mof_H 	H 	0.9917	0.369	0.8712	0.039
Mof_C 	C 	0.4739	0.1335	0.19648	0.015
Mof_H 	H 	0.4071	0.11	0.1993	-0.013
Mof_C 	C 	0.4965	0.201	0.15944	-0.022
Mof_C 	C 	0.29	0.3149	0.04902	-0.153
Mof_H 	H 	0.258	0.2932	0.0781	0.077
Mof_C 	C 	0.6407	0.1302	0.2241	0.057
Mof_H 	H 	0.6898	0.1063	0.2464	-0.021
Mof_C 	C 	0.4132	0.2384	0.1257	0.037
Mof_H 	H 	0.3688	0.1822	0.1166	0.015
Mof_H 	H 	0.3725	0.2895	0.1428	0.015
Mof_C 	C 	0.6692	0.1953	0.1874	-0.105
Mof_H 	H 	0.7374	0.2144	0.1846	0.063
Mof_C 	C 	0.5993	0.2334	0.1544	-0.009
Mof_H 	H 	0.6185	0.279	0.1294	0.048
Mof_N 	N 	0.9049	0.5501	0.83688	-0.259
Mof_O 	O 	0.5432	0.7195	0.08323	-0.219
Mof_N 	N 	0.4559	0.9008	0.22918	-0.214
Mof_C 	C 	0.6176	0.6141	0.96281	-0.019
Mof_H 	H 	0.5868	0.5859	0.9347	0.048
Mof_C 	C 	0.5557	0.649	0.00227	-0.026
Mof_C 	C 	0.7868	0.5938	0.92098	0.148
Mof_C 	C 	0.7229	0.6205	0.96472	-0.061
Mof_C 	C 	0.7482	0.536	0.88184	-0.197
Mof_H 	H 	0.6818	0.5108	0.8834	0.1
Mof_C 	C 	0.8087	0.5156	0.84031	0.107
Mof_H 	H 	0.7817	0.4771	0.8143	-0.027
Mof_C 	C 	0.6052	0.684	0.04613	0.162
Mof_C 	C 	0.7677	0.6541	0.00886	0.037
Mof_H 	H 	0.8385	0.6557	0.0113	0.021
Mof_C 	C 	0.8841	0.6299	0.91606	-0.238
Mof_H 	H 	0.9123	0.6705	0.941	0.124
Mof_C 	C 	0.9418	0.6063	0.8736	0.212
Mof_H 	H 	0.0083	0.631	0.8712	-0.096
Mof_C 	C 	0.5261	0.8665	0.19648	0.014
Mof_H 	H 	0.5929	0.89	0.1993	0.012
Mof_C 	C 	0.5035	0.799	0.15944	-0.004
Mof_C 	C 	0.71	0.6851	0.04902	-0.163
Mof_H 	H 	0.742	0.7068	0.0781	0.092
Mof_C 	C 	0.3593	0.8698	0.2241	0.06
Mof_H 	H 	0.3102	0.8937	0.2464	-0.011
Mof_C 	C 	0.5868	0.7616	0.1257	0.02
Mof_H 	H 	0.6312	0.8178	0.1166	0.036
Mof_H 	H 	0.6275	0.7105	0.1428	0.024
Mof_C 	C 	0.3308	0.8047	0.1874	-0.094
Mof_H 	H 	0.2626	0.7856	0.1846	0.061
Mof_C 	C 	0.4007	0.7666	0.1544	-0.014
Mof_H 	H 	0.3815	0.721	0.1294	0.053
Mof_N 	N 	0.5501	0.9049	0.66312	-0.259
Mof_O 	O 	0.7195	0.5432	0.41677	-0.219
Mof_N 	N 	0.9008	0.4559	0.27082	-0.214
Mof_C 	C 	0.6141	0.6176	0.53719	-0.019
Mof_H 	H 	0.5859	0.5868	0.5653	0.048
Mof_C 	C 	0.649	0.5557	0.49773	-0.026
Mof_C 	C 	0.5938	0.7868	0.57902	0.148
Mof_C 	C 	0.6205	0.7229	0.53528	-0.061
Mof_C 	C 	0.536	0.7482	0.61816	-0.197
Mof_H 	H 	0.5108	0.6818	0.6166	0.1
Mof_C 	C 	0.5156	0.8087	0.65969	0.107
Mof_H 	H 	0.4771	0.7817	0.6857	-0.027
Mof_C 	C 	0.684	0.6052	0.45387	0.162
Mof_C 	C 	0.6541	0.7677	0.49114	0.037
Mof_H 	H 	0.6557	0.8385	0.4887	0.021
Mof_C 	C 	0.6299	0.8841	0.58394	-0.238
Mof_H 	H 	0.6705	0.9123	0.559	0.124
Mof_C 	C 	0.6063	0.9418	0.6264	0.212
Mof_H 	H 	0.631	0.0083	0.6288	-0.096
Mof_C 	C 	0.8665	0.5261	0.30352	0.014
Mof_H 	H 	0.89	0.5929	0.3007	0.012
Mof_C 	C 	0.799	0.5035	0.34056	-0.004
Mof_C 	C 	0.6851	0.71	0.45098	-0.163
Mof_H 	H 	0.7068	0.742	0.4219	0.092
Mof_C 	C 	0.8698	0.3593	0.2759	0.06
Mof_H 	H 	0.8937	0.3102	0.2536	-0.011
Mof_C 	C 	0.7616	0.5868	0.3743	0.02
Mof_H 	H 	0.8178	0.6312	0.3834	0.036
Mof_H 	H 	0.7105	0.6275	0.3572	0.024
Mof_C 	C 	0.8047	0.3308	0.3126	-0.094
Mof_H 	H 	0.7856	0.2626	0.3154	0.061
Mof_C 	C 	0.7666	0.4007	0.3456	-0.014
Mof_H 	H 	0.721	0.3815	0.3706	0.053
Mof_N 	N 	0.4499	0.0951	0.66312	-0.231
Mof_O 	O 	0.2805	0.4568	0.41677	-0.225
Mof_N 	N 	0.0992	0.5441	0.27082	-0.233
Mof_C 	C 	0.3859	0.3824	0.53719	-0.043
Mof_H 	H 	0.4141	0.4132	0.5653	0.057
Mof_C 	C 	0.351	0.4443	0.49773	-0.015
Mof_C 	C 	0.4062	0.2132	0.57902	0.074
Mof_C 	C 	0.3795	0.2771	0.53528	-0.031
Mof_C 	C 	0.464	0.2518	0.61816	-0.146
Mof_H 	H 	0.4892	0.3182	0.6166	0.082
Mof_C 	C 	0.4844	0.1913	0.65969	0.072
Mof_H 	H 	0.5229	0.2183	0.6857	-0.018
Mof_C 	C 	0.316	0.3948	0.45387	0.149
Mof_C 	C 	0.3459	0.2323	0.49114	0.01
Mof_H 	H 	0.3443	0.1615	0.4887	0.014
Mof_C 	C 	0.3701	0.1159	0.58394	-0.113
Mof_H 	H 	0.3295	0.0877	0.559	0.051
Mof_C 	C 	0.3937	0.0582	0.6264	-0.018
Mof_H 	H 	0.369	0.9917	0.6288	0.039
Mof_C 	C 	0.1335	0.4739	0.30352	0.015
Mof_H 	H 	0.11	0.4071	0.3007	-0.013
Mof_C 	C 	0.201	0.4965	0.34056	-0.022
Mof_C 	C 	0.3149	0.29	0.45098	-0.153
Mof_H 	H 	0.2932	0.258	0.4219	0.077
Mof_C 	C 	0.1302	0.6407	0.2759	0.057
Mof_H 	H 	0.1063	0.6898	0.2536	-0.021
Mof_C 	C 	0.2384	0.4132	0.3743	0.037
Mof_H 	H 	0.1822	0.3688	0.3834	0.015
Mof_H 	H 	0.2895	0.3725	0.3572	0.015
Mof_C 	C 	0.1953	0.6692	0.3126	-0.105
Mof_H 	H 	0.2144	0.7374	0.3154	0.063
Mof_C 	C 	0.2334	0.5993	0.3456	-0.009
Mof_H 	H 	0.279	0.6185	0.3706	0.048
Mof_N 	N 	0.9049	0.4499	0.16312	-0.259
Mof_O 	O 	0.5432	0.2805	0.91677	-0.226
Mof_N 	N 	0.4559	0.0992	0.77082	-0.233
Mof_C 	C 	0.6176	0.3859	0.03719	-0.021
Mof_H 	H 	0.5868	0.4141	0.0653	0.048
Mof_C 	C 	0.5557	0.351	0.99773	-0.029
Mof_C 	C 	0.7868	0.4062	0.07902	0.146
Mof_C 	C 	0.7229	0.3795	0.03528	-0.063
Mof_C 	C 	0.7482	0.464	0.11816	-0.195
Mof_H 	H 	0.6818	0.4892	0.1166	0.099
Mof_C 	C 	0.8087	0.4844	0.15969	0.106
Mof_H 	H 	0.7817	0.5229	0.1857	-0.025
Mof_C 	C 	0.6052	0.316	0.95387	0.16
Mof_C 	C 	0.7677	0.3459	0.99114	0.033
Mof_H 	H 	0.8385	0.3443	0.9887	0.018
Mof_C 	C 	0.8841	0.3701	0.08394	-0.238
Mof_H 	H 	0.9123	0.3295	0.059	0.118
Mof_C 	C 	0.9418	0.3937	0.1264	0.209
Mof_H 	H 	0.0083	0.369	0.1288	-0.099
Mof_C 	C 	0.5261	0.1335	0.80352	0.012
Mof_H 	H 	0.5929	0.11	0.8007	-0.008
Mof_C 	C 	0.5035	0.201	0.84056	-0.018
Mof_C 	C 	0.71	0.3149	0.95098	-0.166
Mof_H 	H 	0.742	0.2932	0.9219	0.087
Mof_C 	C 	0.3593	0.1302	0.7759	0.055
Mof_H 	H 	0.3102	0.1063	0.7536	-0.026
Mof_C 	C 	0.5868	0.2384	0.8743	0.033
Mof_H 	H 	0.6312	0.1822	0.8834	0.02
Mof_H 	H 	0.6275	0.2895	0.8572	0.018
Mof_C 	C 	0.3308	0.1953	0.8126	-0.104
Mof_H 	H 	0.2626	0.2144	0.8154	0.057
Mof_C 	C 	0.4007	0.2334	0.8456	-0.013
Mof_H 	H 	0.3815	0.279	0.8706	0.049
Mof_N 	N 	0.0951	0.5501	0.16312	-0.231
Mof_O 	O 	0.4568	0.7195	0.91677	-0.217
Mof_N 	N 	0.5441	0.9008	0.77082	-0.214
Mof_C 	C 	0.3824	0.6141	0.03719	-0.042
Mof_H 	H 	0.4132	0.5859	0.0653	0.057
Mof_C 	C 	0.4443	0.649	0.99773	-0.013
Mof_C 	C 	0.2132	0.5938	0.07902	0.077
Mof_C 	C 	0.2771	0.6205	0.03528	-0.029
Mof_C 	C 	0.2518	0.536	0.11816	-0.147
Mof_H 	H 	0.3182	0.5108	0.1166	0.082
Mof_C 	C 	0.1913	0.5156	0.15969	0.073
Mof_H 	H 	0.2183	0.4771	0.1857	-0.02
Mof_C 	C 	0.3948	0.684	0.95387	0.151
Mof_C 	C 	0.2323	0.6541	0.99114	0.014
Mof_H 	H 	0.1615	0.6557	0.9887	0.017
Mof_C 	C 	0.1159	0.6299	0.08394	-0.112
Mof_H 	H 	0.0877	0.6705	0.059	0.057
Mof_C 	C 	0.0582	0.6063	0.1264	-0.015
Mof_H 	H 	0.9917	0.631	0.1288	0.043
Mof_C 	C 	0.4739	0.8665	0.80352	0.017
Mof_H 	H 	0.4071	0.89	0.8007	0.007
Mof_C 	C 	0.4965	0.799	0.84056	-0.008
Mof_C 	C 	0.29	0.6851	0.95098	-0.15
Mof_H 	H 	0.258	0.7068	0.9219	0.081
Mof_C 	C 	0.6407	0.8698	0.7759	0.062
Mof_H 	H 	0.6898	0.8937	0.7536	-0.005
Mof_C 	C 	0.4132	0.7616	0.8743	0.024
Mof_H 	H 	0.3688	0.8178	0.8834	0.031
Mof_H 	H 	0.3725	0.7105	0.8572	0.021
Mof_C 	C 	0.6692	0.8047	0.8126	-0.095
Mof_H 	H 	0.7374	0.7856	0.8154	0.067
Mof_C 	C 	0.5993	0.7666	0.8456	-0.01
Mof_H 	H 	0.6185	0.721	0.8706	0.052
Mof_Cu	Cu	0.5	-5.49981e-33	0.28255	0.832
Mof_Cu	Cu	-1.59927e-32	0.5	0.78255	0.832
Mof_Cu	Cu	0.5	0	0.71745	0.832
Mof_Cu	Cu	-9.33056e-33	0.5	0.21745	0.832
_end
