# CIF file generated by openbabel 3.1.0, see https://openbabel.org
data_I
_chemical_name_common 'image0'
_cell_length_a 14.6315
_cell_length_b 24.776
_cell_length_c 33.169
_cell_angle_alpha 90
_cell_angle_beta 90
_cell_angle_gamma 90
_space_group_name_H-M_alt 'P 1'
_space_group_name_Hall 'P 1'
loop_
    _symmetry_equiv_pos_as_xyz
    x,y,z
loop_
    _atom_site_label
    _atom_site_type_symbol
    _atom_site_fract_x
    _atom_site_fract_y
    _atom_site_fract_z
    _atom_site_occupancy
    Cu1      Cu       0.56113    0.17568    0.59036    1.000
    C1       C        0.50780    0.07990    0.54442    1.000
    C2       C        0.42930    0.05280    0.52150    1.000
    H1       H        0.45390    0.03360    0.49850    1.000
    H2       H        0.40010    0.02660    0.53900    1.000
    C3       C        0.35960    0.10570    0.46850    1.000
    H3       H        0.40230    0.09040    0.45120    1.000
    C4       C        0.30050    0.11400    0.53290    1.000
    H4       H        0.30230    0.10460    0.56000    1.000
    C5       C        0.29690    0.14200    0.45370    1.000
    H5       H        0.29740    0.15120    0.42660    1.000
    C6       C        0.23690    0.14980    0.51971    1.000
    H6       H        0.19530    0.16460    0.53790    1.000
    C7       C        0.23330    0.16470    0.47930    1.000
    C8       C        0.16120    0.20160    0.46360    1.000
    C9       C        0.14370    0.20440    0.42270    1.000
    H7       H        0.17730    0.18340    0.40480    1.000
    C10      C        0.10780    0.23350    0.48844    1.000
    H8       H        0.11690    0.23260    0.51620    1.000
    C11      C        0.07660    0.23820    0.40847    1.000
    H9       H        0.06570    0.23940    0.38090    1.000
    C12      C        0.04170    0.26630    0.47258    1.000
    H10      H        0.00630    0.28700    0.49000    1.000
    N1       N        0.36000    0.09220    0.50743    1.000
    N2       N        0.02610    0.26955    0.43273    1.000
    O1       O        0.48610    0.12220    0.56270    1.000
    O2       O        0.58180    0.05592    0.54412    1.000
    Cu2      Cu       0.56113    0.67568    0.09036    1.000
    C13      C        0.50780    0.57990    0.04442    1.000
    C14      C        0.42930    0.55280    0.02150    1.000
    H11      H        0.45390    0.53360    0.99850    1.000
    H12      H        0.40010    0.52660    0.03900    1.000
    C15      C        0.35960    0.60570    0.96850    1.000
    H13      H        0.40230    0.59040    0.95120    1.000
    C16      C        0.30050    0.61400    0.03290    1.000
    H14      H        0.30230    0.60460    0.06000    1.000
    C17      C        0.29690    0.64200    0.95370    1.000
    H15      H        0.29740    0.65120    0.92660    1.000
    C18      C        0.23690    0.64980    0.01971    1.000
    H16      H        0.19530    0.66460    0.03790    1.000
    C19      C        0.23330    0.66470    0.97930    1.000
    C20      C        0.16120    0.70160    0.96360    1.000
    C21      C        0.14370    0.70440    0.92270    1.000
    H17      H        0.17730    0.68340    0.90480    1.000
    C22      C        0.10780    0.73350    0.98844    1.000
    H18      H        0.11690    0.73260    0.01620    1.000
    C23      C        0.07660    0.73820    0.90847    1.000
    H19      H        0.06570    0.73940    0.88090    1.000
    C24      C        0.04170    0.76630    0.97258    1.000
    H20      H        0.00630    0.78700    0.99000    1.000
    N3       N        0.36000    0.59220    0.00743    1.000
    N4       N        0.02610    0.76955    0.93273    1.000
    O3       O        0.48610    0.62220    0.06270    1.000
    O4       O        0.58180    0.55592    0.04412    1.000
    Cu3      Cu       0.06113    0.17568    0.09036    1.000
    C25      C        0.00780    0.07990    0.04442    1.000
    C26      C        0.92930    0.05280    0.02150    1.000
    H21      H        0.95390    0.03360    0.99850    1.000
    H22      H        0.90010    0.02660    0.03900    1.000
    C27      C        0.85960    0.10570    0.96850    1.000
    H23      H        0.90230    0.09040    0.95120    1.000
    C28      C        0.80050    0.11400    0.03290    1.000
    H24      H        0.80230    0.10460    0.06000    1.000
    C29      C        0.79690    0.14200    0.95370    1.000
    H25      H        0.79740    0.15120    0.92660    1.000
    C30      C        0.73690    0.14980    0.01971    1.000
    H26      H        0.69530    0.16460    0.03790    1.000
    C31      C        0.73330    0.16470    0.97930    1.000
    C32      C        0.66120    0.20160    0.96360    1.000
    C33      C        0.64370    0.20440    0.92270    1.000
    H27      H        0.67730    0.18340    0.90480    1.000
    C34      C        0.60780    0.23350    0.98844    1.000
    H28      H        0.61690    0.23260    0.01620    1.000
    C35      C        0.57660    0.23820    0.90847    1.000
    H29      H        0.56570    0.23940    0.88090    1.000
    C36      C        0.54170    0.26630    0.97258    1.000
    H30      H        0.50630    0.28700    0.99000    1.000
    N5       N        0.86000    0.09220    0.00743    1.000
    N6       N        0.52610    0.26955    0.93273    1.000
    O5       O        0.98610    0.12220    0.06270    1.000
    O6       O        0.08180    0.05592    0.04412    1.000
    Cu4      Cu       0.06113    0.67568    0.59036    1.000
    C37      C        0.00780    0.57990    0.54442    1.000
    C38      C        0.92930    0.55280    0.52150    1.000
    H31      H        0.95390    0.53360    0.49850    1.000
    H32      H        0.90010    0.52660    0.53900    1.000
    C39      C        0.85960    0.60570    0.46850    1.000
    H33      H        0.90230    0.59040    0.45120    1.000
    C40      C        0.80050    0.61400    0.53290    1.000
    H34      H        0.80230    0.60460    0.56000    1.000
    C41      C        0.79690    0.64200    0.45370    1.000
    H35      H        0.79740    0.65120    0.42660    1.000
    C42      C        0.73690    0.64980    0.51971    1.000
    H36      H        0.69530    0.66460    0.53790    1.000
    C43      C        0.73330    0.66470    0.47930    1.000
    C44      C        0.66120    0.70160    0.46360    1.000
    C45      C        0.64370    0.70440    0.42270    1.000
    H37      H        0.67730    0.68340    0.40480    1.000
    C46      C        0.60780    0.73350    0.48844    1.000
    H38      H        0.61690    0.73260    0.51620    1.000
    C47      C        0.57660    0.73820    0.40847    1.000
    H39      H        0.56570    0.73940    0.38090    1.000
    C48      C        0.54170    0.76630    0.47258    1.000
    H40      H        0.50630    0.78700    0.49000    1.000
    N7       N        0.86000    0.59220    0.50743    1.000
    N8       N        0.52610    0.76955    0.43273    1.000
    O7       O        0.98610    0.62220    0.56270    1.000
    O8       O        0.08180    0.55592    0.54412    1.000
    Cu5      Cu       0.18887    0.57432    0.59036    1.000
    C49      C        0.24220    0.67010    0.54442    1.000
    C50      C        0.32070    0.69720    0.52150    1.000
    H41      H        0.29610    0.71640    0.49850    1.000
    H42      H        0.34990    0.72340    0.53900    1.000
    C51      C        0.39040    0.64430    0.46850    1.000
    H43      H        0.34770    0.65960    0.45120    1.000
    C52      C        0.44950    0.63600    0.53290    1.000
    H44      H        0.44770    0.64540    0.56000    1.000
    C53      C        0.45310    0.60800    0.45370    1.000
    H45      H        0.45260    0.59880    0.42660    1.000
    C54      C        0.51310    0.60020    0.51971    1.000
    H46      H        0.55470    0.58540    0.53790    1.000
    C55      C        0.51670    0.58530    0.47930    1.000
    C56      C        0.58880    0.54840    0.46360    1.000
    C57      C        0.60630    0.54560    0.42270    1.000
    H47      H        0.57270    0.56660    0.40480    1.000
    C58      C        0.64220    0.51650    0.48844    1.000
    H48      H        0.63310    0.51740    0.51620    1.000
    C59      C        0.67340    0.51180    0.40847    1.000
    H49      H        0.68430    0.51060    0.38090    1.000
    C60      C        0.70830    0.48370    0.47258    1.000
    H50      H        0.74370    0.46300    0.49000    1.000
    N9       N        0.39000    0.65780    0.50743    1.000
    N10      N        0.72390    0.48045    0.43273    1.000
    O9       O        0.26390    0.62780    0.56270    1.000
    O10      O        0.16820    0.69408    0.54412    1.000
    Cu6      Cu       0.18887    0.07432    0.09036    1.000
    C61      C        0.24220    0.17010    0.04442    1.000
    C62      C        0.32070    0.19720    0.02150    1.000
    H51      H        0.29610    0.21640    0.99850    1.000
    H52      H        0.34990    0.22340    0.03900    1.000
    C63      C        0.39040    0.14430    0.96850    1.000
    H53      H        0.34770    0.15960    0.95120    1.000
    C64      C        0.44950    0.13600    0.03290    1.000
    H54      H        0.44770    0.14540    0.06000    1.000
    C65      C        0.45310    0.10800    0.95370    1.000
    H55      H        0.45260    0.09880    0.92660    1.000
    C66      C        0.51310    0.10020    0.01971    1.000
    H56      H        0.55470    0.08540    0.03790    1.000
    C67      C        0.51670    0.08530    0.97930    1.000
    C68      C        0.58880    0.04840    0.96360    1.000
    C69      C        0.60630    0.04560    0.92270    1.000
    H57      H        0.57270    0.06660    0.90480    1.000
    C70      C        0.64220    0.01650    0.98844    1.000
    H58      H        0.63310    0.01740    0.01620    1.000
    C71      C        0.67340    0.01180    0.90847    1.000
    H59      H        0.68430    0.01060    0.88090    1.000
    C72      C        0.70830    0.98370    0.97258    1.000
    H60      H        0.74370    0.96300    0.99000    1.000
    N11      N        0.39000    0.15780    0.00743    1.000
    N12      N        0.72390    0.98045    0.93273    1.000
    O11      O        0.26390    0.12780    0.06270    1.000
    O12      O        0.16820    0.19408    0.04412    1.000
    Cu7      Cu       0.68887    0.57432    0.09036    1.000
    C73      C        0.74220    0.67010    0.04442    1.000
    C74      C        0.82070    0.69720    0.02150    1.000
    H61      H        0.79610    0.71640    0.99850    1.000
    H62      H        0.84990    0.72340    0.03900    1.000
    C75      C        0.89040    0.64430    0.96850    1.000
    H63      H        0.84770    0.65960    0.95120    1.000
    C76      C        0.94950    0.63600    0.03290    1.000
    H64      H        0.94770    0.64540    0.06000    1.000
    C77      C        0.95310    0.60800    0.95370    1.000
    H65      H        0.95260    0.59880    0.92660    1.000
    C78      C        0.01310    0.60020    0.01971    1.000
    H66      H        0.05470    0.58540    0.03790    1.000
    C79      C        0.01670    0.58530    0.97930    1.000
    C80      C        0.08880    0.54840    0.96360    1.000
    C81      C        0.10630    0.54560    0.92270    1.000
    H67      H        0.07270    0.56660    0.90480    1.000
    C82      C        0.14220    0.51650    0.98844    1.000
    H68      H        0.13310    0.51740    0.01620    1.000
    C83      C        0.17340    0.51180    0.90847    1.000
    H69      H        0.18430    0.51060    0.88090    1.000
    C84      C        0.20830    0.48370    0.97258    1.000
    H70      H        0.24370    0.46300    0.99000    1.000
    N13      N        0.89000    0.65780    0.00743    1.000
    N14      N        0.22390    0.48045    0.93273    1.000
    O13      O        0.76390    0.62780    0.06270    1.000
    O14      O        0.66820    0.69408    0.04412    1.000
    Cu8      Cu       0.68887    0.07432    0.59036    1.000
    C85      C        0.74220    0.17010    0.54442    1.000
    C86      C        0.82070    0.19720    0.52150    1.000
    H71      H        0.79610    0.21640    0.49850    1.000
    H72      H        0.84990    0.22340    0.53900    1.000
    C87      C        0.89040    0.14430    0.46850    1.000
    H73      H        0.84770    0.15960    0.45120    1.000
    C88      C        0.94950    0.13600    0.53290    1.000
    H74      H        0.94770    0.14540    0.56000    1.000
    C89      C        0.95310    0.10800    0.45370    1.000
    H75      H        0.95260    0.09880    0.42660    1.000
    C90      C        0.01310    0.10020    0.51971    1.000
    H76      H        0.05470    0.08540    0.53790    1.000
    C91      C        0.01670    0.08530    0.47930    1.000
    C92      C        0.08880    0.04840    0.46360    1.000
    C93      C        0.10630    0.04560    0.42270    1.000
    H77      H        0.07270    0.06660    0.40480    1.000
    C94      C        0.14220    0.01650    0.48844    1.000
    H78      H        0.13310    0.01740    0.51620    1.000
    C95      C        0.17340    0.01180    0.40847    1.000
    H79      H        0.18430    0.01060    0.38090    1.000
    C96      C        0.20830    0.98370    0.47258    1.000
    H80      H        0.24370    0.96300    0.49000    1.000
    N15      N        0.89000    0.15780    0.50743    1.000
    N16      N        0.22390    0.98045    0.43273    1.000
    O15      O        0.76390    0.12780    0.56270    1.000
    O16      O        0.66820    0.19408    0.54412    1.000
    Cu9      Cu       0.18887    0.17568    0.15964    1.000
    C97      C        0.24220    0.07990    0.20558    1.000
    C98      C        0.32070    0.05280    0.22850    1.000
    H81      H        0.29610    0.03360    0.25150    1.000
    H82      H        0.34990    0.02660    0.21100    1.000
    C99      C        0.39040    0.10570    0.28150    1.000
    H83      H        0.34770    0.09040    0.29880    1.000
    C100     C        0.44950    0.11400    0.21710    1.000
    H84      H        0.44770    0.10460    0.19000    1.000
    C101     C        0.45310    0.14200    0.29630    1.000
    H85      H        0.45260    0.15120    0.32340    1.000
    C102     C        0.51310    0.14980    0.23029    1.000
    H86      H        0.55470    0.16460    0.21210    1.000
    C103     C        0.51670    0.16470    0.27070    1.000
    C104     C        0.58880    0.20160    0.28640    1.000
    C105     C        0.60630    0.20440    0.32730    1.000
    H87      H        0.57270    0.18340    0.34520    1.000
    C106     C        0.64220    0.23350    0.26156    1.000
    H88      H        0.63310    0.23260    0.23380    1.000
    C107     C        0.67340    0.23820    0.34153    1.000
    H89      H        0.68430    0.23940    0.36910    1.000
    C108     C        0.70830    0.26630    0.27742    1.000
    H90      H        0.74370    0.28700    0.26000    1.000
    N17      N        0.39000    0.09220    0.24257    1.000
    N18      N        0.72390    0.26955    0.31727    1.000
    O17      O        0.26390    0.12220    0.18730    1.000
    O18      O        0.16820    0.05592    0.20588    1.000
    Cu10     Cu       0.18887    0.67568    0.65964    1.000
    C109     C        0.24220    0.57990    0.70558    1.000
    C110     C        0.32070    0.55280    0.72850    1.000
    H91      H        0.29610    0.53360    0.75150    1.000
    H92      H        0.34990    0.52660    0.71100    1.000
    C111     C        0.39040    0.60570    0.78150    1.000
    H93      H        0.34770    0.59040    0.79880    1.000
    C112     C        0.44950    0.61400    0.71710    1.000
    H94      H        0.44770    0.60460    0.69000    1.000
    C113     C        0.45310    0.64200    0.79630    1.000
    H95      H        0.45260    0.65120    0.82340    1.000
    C114     C        0.51310    0.64980    0.73029    1.000
    H96      H        0.55470    0.66460    0.71210    1.000
    C115     C        0.51670    0.66470    0.77070    1.000
    C116     C        0.58880    0.70160    0.78640    1.000
    C117     C        0.60630    0.70440    0.82730    1.000
    H97      H        0.57270    0.68340    0.84520    1.000
    C118     C        0.64220    0.73350    0.76156    1.000
    H98      H        0.63310    0.73260    0.73380    1.000
    C119     C        0.67340    0.73820    0.84153    1.000
    H99      H        0.68430    0.73940    0.86910    1.000
    C120     C        0.70830    0.76630    0.77742    1.000
    H100     H        0.74370    0.78700    0.76000    1.000
    N19      N        0.39000    0.59220    0.74257    1.000
    N20      N        0.72390    0.76955    0.81727    1.000
    O19      O        0.26390    0.62220    0.68730    1.000
    O20      O        0.16820    0.55592    0.70588    1.000
    Cu11     Cu       0.68887    0.17568    0.65964    1.000
    C121     C        0.74220    0.07990    0.70558    1.000
    C122     C        0.82070    0.05280    0.72850    1.000
    H101     H        0.79610    0.03360    0.75150    1.000
    H102     H        0.84990    0.02660    0.71100    1.000
    C123     C        0.89040    0.10570    0.78150    1.000
    H103     H        0.84770    0.09040    0.79880    1.000
    C124     C        0.94950    0.11400    0.71710    1.000
    H104     H        0.94770    0.10460    0.69000    1.000
    C125     C        0.95310    0.14200    0.79630    1.000
    H105     H        0.95260    0.15120    0.82340    1.000
    C126     C        0.01310    0.14980    0.73029    1.000
    H106     H        0.05470    0.16460    0.71210    1.000
    C127     C        0.01670    0.16470    0.77070    1.000
    C128     C        0.08880    0.20160    0.78640    1.000
    C129     C        0.10630    0.20440    0.82730    1.000
    H107     H        0.07270    0.18340    0.84520    1.000
    C130     C        0.14220    0.23350    0.76156    1.000
    H108     H        0.13310    0.23260    0.73380    1.000
    C131     C        0.17340    0.23820    0.84153    1.000
    H109     H        0.18430    0.23940    0.86910    1.000
    C132     C        0.20830    0.26630    0.77742    1.000
    H110     H        0.24370    0.28700    0.76000    1.000
    N21      N        0.89000    0.09220    0.74257    1.000
    N22      N        0.22390    0.26955    0.81727    1.000
    O21      O        0.76390    0.12220    0.68730    1.000
    O22      O        0.66820    0.05592    0.70588    1.000
    Cu12     Cu       0.68887    0.67568    0.15964    1.000
    C133     C        0.74220    0.57990    0.20558    1.000
    C134     C        0.82070    0.55280    0.22850    1.000
    H111     H        0.79610    0.53360    0.25150    1.000
    H112     H        0.84990    0.52660    0.21100    1.000
    C135     C        0.89040    0.60570    0.28150    1.000
    H113     H        0.84770    0.59040    0.29880    1.000
    C136     C        0.94950    0.61400    0.21710    1.000
    H114     H        0.94770    0.60460    0.19000    1.000
    C137     C        0.95310    0.64200    0.29630    1.000
    H115     H        0.95260    0.65120    0.32340    1.000
    C138     C        0.01310    0.64980    0.23029    1.000
    H116     H        0.05470    0.66460    0.21210    1.000
    C139     C        0.01670    0.66470    0.27070    1.000
    C140     C        0.08880    0.70160    0.28640    1.000
    C141     C        0.10630    0.70440    0.32730    1.000
    H117     H        0.07270    0.68340    0.34520    1.000
    C142     C        0.14220    0.73350    0.26156    1.000
    H118     H        0.13310    0.73260    0.23380    1.000
    C143     C        0.17340    0.73820    0.34153    1.000
    H119     H        0.18430    0.73940    0.36910    1.000
    C144     C        0.20830    0.76630    0.27742    1.000
    H120     H        0.24370    0.78700    0.26000    1.000
    N23      N        0.89000    0.59220    0.24257    1.000
    N24      N        0.22390    0.76955    0.31727    1.000
    O23      O        0.76390    0.62220    0.18730    1.000
    O24      O        0.66820    0.55592    0.20588    1.000
    Cu13     Cu       0.56113    0.57432    0.15964    1.000
    C145     C        0.50780    0.67010    0.20558    1.000
    C146     C        0.42930    0.69720    0.22850    1.000
    H121     H        0.45390    0.71640    0.25150    1.000
    H122     H        0.40010    0.72340    0.21100    1.000
    C147     C        0.35960    0.64430    0.28150    1.000
    H123     H        0.40230    0.65960    0.29880    1.000
    C148     C        0.30050    0.63600    0.21710    1.000
    H124     H        0.30230    0.64540    0.19000    1.000
    C149     C        0.29690    0.60800    0.29630    1.000
    H125     H        0.29740    0.59880    0.32340    1.000
    C150     C        0.23690    0.60020    0.23029    1.000
    H126     H        0.19530    0.58540    0.21210    1.000
    C151     C        0.23330    0.58530    0.27070    1.000
    C152     C        0.16120    0.54840    0.28640    1.000
    C153     C        0.14370    0.54560    0.32730    1.000
    H127     H        0.17730    0.56660    0.34520    1.000
    C154     C        0.10780    0.51650    0.26156    1.000
    H128     H        0.11690    0.51740    0.23380    1.000
    C155     C        0.07660    0.51180    0.34153    1.000
    H129     H        0.06570    0.51060    0.36910    1.000
    C156     C        0.04170    0.48370    0.27742    1.000
    H130     H        0.00630    0.46300    0.26000    1.000
    N25      N        0.36000    0.65780    0.24257    1.000
    N26      N        0.02610    0.48045    0.31727    1.000
    O25      O        0.48610    0.62780    0.18730    1.000
    O26      O        0.58180    0.69408    0.20588    1.000
    Cu14     Cu       0.56113    0.07432    0.65964    1.000
    C157     C        0.50780    0.17010    0.70558    1.000
    C158     C        0.42930    0.19720    0.72850    1.000
    H131     H        0.45390    0.21640    0.75150    1.000
    H132     H        0.40010    0.22340    0.71100    1.000
    C159     C        0.35960    0.14430    0.78150    1.000
    H133     H        0.40230    0.15960    0.79880    1.000
    C160     C        0.30050    0.13600    0.71710    1.000
    H134     H        0.30230    0.14540    0.69000    1.000
    C161     C        0.29690    0.10800    0.79630    1.000
    H135     H        0.29740    0.09880    0.82340    1.000
    C162     C        0.23690    0.10020    0.73029    1.000
    H136     H        0.19530    0.08540    0.71210    1.000
    C163     C        0.23330    0.08530    0.77070    1.000
    C164     C        0.16120    0.04840    0.78640    1.000
    C165     C        0.14370    0.04560    0.82730    1.000
    H137     H        0.17730    0.06660    0.84520    1.000
    C166     C        0.10780    0.01650    0.76156    1.000
    H138     H        0.11690    0.01740    0.73380    1.000
    C167     C        0.07660    0.01180    0.84153    1.000
    H139     H        0.06570    0.01060    0.86910    1.000
    C168     C        0.04170    0.98370    0.77742    1.000
    H140     H        0.00630    0.96300    0.76000    1.000
    N27      N        0.36000    0.15780    0.74257    1.000
    N28      N        0.02610    0.98045    0.81727    1.000
    O27      O        0.48610    0.12780    0.68730    1.000
    O28      O        0.58180    0.19408    0.70588    1.000
    Cu15     Cu       0.06113    0.57432    0.65964    1.000
    C169     C        0.00780    0.67010    0.70558    1.000
    C170     C        0.92930    0.69720    0.72850    1.000
    H141     H        0.95390    0.71640    0.75150    1.000
    H142     H        0.90010    0.72340    0.71100    1.000
    C171     C        0.85960    0.64430    0.78150    1.000
    H143     H        0.90230    0.65960    0.79880    1.000
    C172     C        0.80050    0.63600    0.71710    1.000
    H144     H        0.80230    0.64540    0.69000    1.000
    C173     C        0.79690    0.60800    0.79630    1.000
    H145     H        0.79740    0.59880    0.82340    1.000
    C174     C        0.73690    0.60020    0.73029    1.000
    H146     H        0.69530    0.58540    0.71210    1.000
    C175     C        0.73330    0.58530    0.77070    1.000
    C176     C        0.66120    0.54840    0.78640    1.000
    C177     C        0.64370    0.54560    0.82730    1.000
    H147     H        0.67730    0.56660    0.84520    1.000
    C178     C        0.60780    0.51650    0.76156    1.000
    H148     H        0.61690    0.51740    0.73380    1.000
    C179     C        0.57660    0.51180    0.84153    1.000
    H149     H        0.56570    0.51060    0.86910    1.000
    C180     C        0.54170    0.48370    0.77742    1.000
    H150     H        0.50630    0.46300    0.76000    1.000
    N29      N        0.86000    0.65780    0.74257    1.000
    N30      N        0.52610    0.48045    0.81727    1.000
    O29      O        0.98610    0.62780    0.68730    1.000
    O30      O        0.08180    0.69408    0.70588    1.000
    Cu16     Cu       0.06113    0.07432    0.15964    1.000
    C181     C        0.00780    0.17010    0.20558    1.000
    C182     C        0.92930    0.19720    0.22850    1.000
    H151     H        0.95390    0.21640    0.25150    1.000
    H152     H        0.90010    0.22340    0.21100    1.000
    C183     C        0.85960    0.14430    0.28150    1.000
    H153     H        0.90230    0.15960    0.29880    1.000
    C184     C        0.80050    0.13600    0.21710    1.000
    H154     H        0.80230    0.14540    0.19000    1.000
    C185     C        0.79690    0.10800    0.29630    1.000
    H155     H        0.79740    0.09880    0.32340    1.000
    C186     C        0.73690    0.10020    0.23029    1.000
    H156     H        0.69530    0.08540    0.21210    1.000
    C187     C        0.73330    0.08530    0.27070    1.000
    C188     C        0.66120    0.04840    0.28640    1.000
    C189     C        0.64370    0.04560    0.32730    1.000
    H157     H        0.67730    0.06660    0.34520    1.000
    C190     C        0.60780    0.01650    0.26156    1.000
    H158     H        0.61690    0.01740    0.23380    1.000
    C191     C        0.57660    0.01180    0.34153    1.000
    H159     H        0.56570    0.01060    0.36910    1.000
    C192     C        0.54170    0.98370    0.27742    1.000
    H160     H        0.50630    0.96300    0.26000    1.000
    N31      N        0.86000    0.15780    0.24257    1.000
    N32      N        0.52610    0.98045    0.31727    1.000
    O31      O        0.98610    0.12780    0.18730    1.000
    O32      O        0.08180    0.19408    0.20588    1.000
    Cu17     Cu       0.43887    0.82432    0.40964    1.000
    C193     C        0.49220    0.92010    0.45558    1.000
    C194     C        0.57070    0.94720    0.47850    1.000
    H161     H        0.54610    0.96640    0.50150    1.000
    H162     H        0.59990    0.97340    0.46100    1.000
    C195     C        0.64040    0.89430    0.53150    1.000
    H163     H        0.59770    0.90960    0.54880    1.000
    C196     C        0.69950    0.88600    0.46710    1.000
    H164     H        0.69770    0.89540    0.44000    1.000
    C197     C        0.70310    0.85800    0.54630    1.000
    H165     H        0.70260    0.84880    0.57340    1.000
    C198     C        0.76310    0.85020    0.48029    1.000
    H166     H        0.80470    0.83540    0.46210    1.000
    C199     C        0.76670    0.83530    0.52070    1.000
    C200     C        0.83880    0.79840    0.53640    1.000
    C201     C        0.85630    0.79560    0.57730    1.000
    H167     H        0.82270    0.81660    0.59520    1.000
    C202     C        0.89220    0.76650    0.51156    1.000
    H168     H        0.88310    0.76740    0.48380    1.000
    C203     C        0.92340    0.76180    0.59153    1.000
    H169     H        0.93430    0.76060    0.61910    1.000
    C204     C        0.95830    0.73370    0.52742    1.000
    H170     H        0.99370    0.71300    0.51000    1.000
    N33      N        0.64000    0.90780    0.49257    1.000
    N34      N        0.97390    0.73045    0.56727    1.000
    O33      O        0.51390    0.87780    0.43730    1.000
    O34      O        0.41820    0.94408    0.45588    1.000
    Cu18     Cu       0.43887    0.32432    0.90964    1.000
    C205     C        0.49220    0.42010    0.95558    1.000
    C206     C        0.57070    0.44720    0.97850    1.000
    H171     H        0.54610    0.46640    0.00150    1.000
    H172     H        0.59990    0.47340    0.96100    1.000
    C207     C        0.64040    0.39430    0.03150    1.000
    H173     H        0.59770    0.40960    0.04880    1.000
    C208     C        0.69950    0.38600    0.96710    1.000
    H174     H        0.69770    0.39540    0.94000    1.000
    C209     C        0.70310    0.35800    0.04630    1.000
    H175     H        0.70260    0.34880    0.07340    1.000
    C210     C        0.76310    0.35020    0.98029    1.000
    H176     H        0.80470    0.33540    0.96210    1.000
    C211     C        0.76670    0.33530    0.02070    1.000
    C212     C        0.83880    0.29840    0.03640    1.000
    C213     C        0.85630    0.29560    0.07730    1.000
    H177     H        0.82270    0.31660    0.09520    1.000
    C214     C        0.89220    0.26650    0.01156    1.000
    H178     H        0.88310    0.26740    0.98380    1.000
    C215     C        0.92340    0.26180    0.09153    1.000
    H179     H        0.93430    0.26060    0.11910    1.000
    C216     C        0.95830    0.23370    0.02742    1.000
    H180     H        0.99370    0.21300    0.01000    1.000
    N35      N        0.64000    0.40780    0.99257    1.000
    N36      N        0.97390    0.23045    0.06727    1.000
    O35      O        0.51390    0.37780    0.93730    1.000
    O36      O        0.41820    0.44408    0.95588    1.000
    Cu19     Cu       0.93887    0.82432    0.90964    1.000
    C217     C        0.99220    0.92010    0.95558    1.000
    C218     C        0.07070    0.94720    0.97850    1.000
    H181     H        0.04610    0.96640    0.00150    1.000
    H182     H        0.09990    0.97340    0.96100    1.000
    C219     C        0.14040    0.89430    0.03150    1.000
    H183     H        0.09770    0.90960    0.04880    1.000
    C220     C        0.19950    0.88600    0.96710    1.000
    H184     H        0.19770    0.89540    0.94000    1.000
    C221     C        0.20310    0.85800    0.04630    1.000
    H185     H        0.20260    0.84880    0.07340    1.000
    C222     C        0.26310    0.85020    0.98029    1.000
    H186     H        0.30470    0.83540    0.96210    1.000
    C223     C        0.26670    0.83530    0.02070    1.000
    C224     C        0.33880    0.79840    0.03640    1.000
    C225     C        0.35630    0.79560    0.07730    1.000
    H187     H        0.32270    0.81660    0.09520    1.000
    C226     C        0.39220    0.76650    0.01156    1.000
    H188     H        0.38310    0.76740    0.98380    1.000
    C227     C        0.42340    0.76180    0.09153    1.000
    H189     H        0.43430    0.76060    0.11910    1.000
    C228     C        0.45830    0.73370    0.02742    1.000
    H190     H        0.49370    0.71300    0.01000    1.000
    N37      N        0.14000    0.90780    0.99257    1.000
    N38      N        0.47390    0.73045    0.06727    1.000
    O37      O        0.01390    0.87780    0.93730    1.000
    O38      O        0.91820    0.94408    0.95588    1.000
    Cu20     Cu       0.93887    0.32432    0.40964    1.000
    C229     C        0.99220    0.42010    0.45558    1.000
    C230     C        0.07070    0.44720    0.47850    1.000
    H191     H        0.04610    0.46640    0.50150    1.000
    H192     H        0.09990    0.47340    0.46100    1.000
    C231     C        0.14040    0.39430    0.53150    1.000
    H193     H        0.09770    0.40960    0.54880    1.000
    C232     C        0.19950    0.38600    0.46710    1.000
    H194     H        0.19770    0.39540    0.44000    1.000
    C233     C        0.20310    0.35800    0.54630    1.000
    H195     H        0.20260    0.34880    0.57340    1.000
    C234     C        0.26310    0.35020    0.48029    1.000
    H196     H        0.30470    0.33540    0.46210    1.000
    C235     C        0.26670    0.33530    0.52070    1.000
    C236     C        0.33880    0.29840    0.53640    1.000
    C237     C        0.35630    0.29560    0.57730    1.000
    H197     H        0.32270    0.31660    0.59520    1.000
    C238     C        0.39220    0.26650    0.51156    1.000
    H198     H        0.38310    0.26740    0.48380    1.000
    C239     C        0.42340    0.26180    0.59153    1.000
    H199     H        0.43430    0.26060    0.61910    1.000
    C240     C        0.45830    0.23370    0.52742    1.000
    H200     H        0.49370    0.21300    0.51000    1.000
    N39      N        0.14000    0.40780    0.49257    1.000
    N40      N        0.47390    0.23045    0.56727    1.000
    O39      O        0.01390    0.37780    0.43730    1.000
    O40      O        0.91820    0.44408    0.45588    1.000
    Cu21     Cu       0.81113    0.42568    0.40964    1.000
    C241     C        0.75780    0.32990    0.45558    1.000
    C242     C        0.67930    0.30280    0.47850    1.000
    H201     H        0.70390    0.28360    0.50150    1.000
    H202     H        0.65010    0.27660    0.46100    1.000
    C243     C        0.60960    0.35570    0.53150    1.000
    H203     H        0.65230    0.34040    0.54880    1.000
    C244     C        0.55050    0.36400    0.46710    1.000
    H204     H        0.55230    0.35460    0.44000    1.000
    C245     C        0.54690    0.39200    0.54630    1.000
    H205     H        0.54740    0.40120    0.57340    1.000
    C246     C        0.48690    0.39980    0.48029    1.000
    H206     H        0.44530    0.41460    0.46210    1.000
    C247     C        0.48330    0.41470    0.52070    1.000
    C248     C        0.41120    0.45160    0.53640    1.000
    C249     C        0.39370    0.45440    0.57730    1.000
    H207     H        0.42730    0.43340    0.59520    1.000
    C250     C        0.35780    0.48350    0.51156    1.000
    H208     H        0.36690    0.48260    0.48380    1.000
    C251     C        0.32660    0.48820    0.59153    1.000
    H209     H        0.31570    0.48940    0.61910    1.000
    C252     C        0.29170    0.51630    0.52742    1.000
    H210     H        0.25630    0.53700    0.51000    1.000
    N41      N        0.61000    0.34220    0.49257    1.000
    N42      N        0.27610    0.51955    0.56727    1.000
    O41      O        0.73610    0.37220    0.43730    1.000
    O42      O        0.83180    0.30592    0.45588    1.000
    Cu22     Cu       0.81113    0.92568    0.90964    1.000
    C253     C        0.75780    0.82990    0.95558    1.000
    C254     C        0.67930    0.80280    0.97850    1.000
    H211     H        0.70390    0.78360    0.00150    1.000
    H212     H        0.65010    0.77660    0.96100    1.000
    C255     C        0.60960    0.85570    0.03150    1.000
    H213     H        0.65230    0.84040    0.04880    1.000
    C256     C        0.55050    0.86400    0.96710    1.000
    H214     H        0.55230    0.85460    0.94000    1.000
    C257     C        0.54690    0.89200    0.04630    1.000
    H215     H        0.54740    0.90120    0.07340    1.000
    C258     C        0.48690    0.89980    0.98029    1.000
    H216     H        0.44530    0.91460    0.96210    1.000
    C259     C        0.48330    0.91470    0.02070    1.000
    C260     C        0.41120    0.95160    0.03640    1.000
    C261     C        0.39370    0.95440    0.07730    1.000
    H217     H        0.42730    0.93340    0.09520    1.000
    C262     C        0.35780    0.98350    0.01156    1.000
    H218     H        0.36690    0.98260    0.98380    1.000
    C263     C        0.32660    0.98820    0.09153    1.000
    H219     H        0.31570    0.98940    0.11910    1.000
    C264     C        0.29170    0.01630    0.02742    1.000
    H220     H        0.25630    0.03700    0.01000    1.000
    N43      N        0.61000    0.84220    0.99257    1.000
    N44      N        0.27610    0.01955    0.06727    1.000
    O43      O        0.73610    0.87220    0.93730    1.000
    O44      O        0.83180    0.80592    0.95588    1.000
    Cu23     Cu       0.31113    0.42568    0.90964    1.000
    C265     C        0.25780    0.32990    0.95558    1.000
    C266     C        0.17930    0.30280    0.97850    1.000
    H221     H        0.20390    0.28360    0.00150    1.000
    H222     H        0.15010    0.27660    0.96100    1.000
    C267     C        0.10960    0.35570    0.03150    1.000
    H223     H        0.15230    0.34040    0.04880    1.000
    C268     C        0.05050    0.36400    0.96710    1.000
    H224     H        0.05230    0.35460    0.94000    1.000
    C269     C        0.04690    0.39200    0.04630    1.000
    H225     H        0.04740    0.40120    0.07340    1.000
    C270     C        0.98690    0.39980    0.98029    1.000
    H226     H        0.94530    0.41460    0.96210    1.000
    C271     C        0.98330    0.41470    0.02070    1.000
    C272     C        0.91120    0.45160    0.03640    1.000
    C273     C        0.89370    0.45440    0.07730    1.000
    H227     H        0.92730    0.43340    0.09520    1.000
    C274     C        0.85780    0.48350    0.01156    1.000
    H228     H        0.86690    0.48260    0.98380    1.000
    C275     C        0.82660    0.48820    0.09153    1.000
    H229     H        0.81570    0.48940    0.11910    1.000
    C276     C        0.79170    0.51630    0.02742    1.000
    H230     H        0.75630    0.53700    0.01000    1.000
    N45      N        0.11000    0.34220    0.99257    1.000
    N46      N        0.77610    0.51955    0.06727    1.000
    O45      O        0.23610    0.37220    0.93730    1.000
    O46      O        0.33180    0.30592    0.95588    1.000
    Cu24     Cu       0.31113    0.92568    0.40964    1.000
    C277     C        0.25780    0.82990    0.45558    1.000
    C278     C        0.17930    0.80280    0.47850    1.000
    H231     H        0.20390    0.78360    0.50150    1.000
    H232     H        0.15010    0.77660    0.46100    1.000
    C279     C        0.10960    0.85570    0.53150    1.000
    H233     H        0.15230    0.84040    0.54880    1.000
    C280     C        0.05050    0.86400    0.46710    1.000
    H234     H        0.05230    0.85460    0.44000    1.000
    C281     C        0.04690    0.89200    0.54630    1.000
    H235     H        0.04740    0.90120    0.57340    1.000
    C282     C        0.98690    0.89980    0.48029    1.000
    H236     H        0.94530    0.91460    0.46210    1.000
    C283     C        0.98330    0.91470    0.52070    1.000
    C284     C        0.91120    0.95160    0.53640    1.000
    C285     C        0.89370    0.95440    0.57730    1.000
    H237     H        0.92730    0.93340    0.59520    1.000
    C286     C        0.85780    0.98350    0.51156    1.000
    H238     H        0.86690    0.98260    0.48380    1.000
    C287     C        0.82660    0.98820    0.59153    1.000
    H239     H        0.81570    0.98940    0.61910    1.000
    C288     C        0.79170    0.01630    0.52742    1.000
    H240     H        0.75630    0.03700    0.51000    1.000
    N47      N        0.11000    0.84220    0.49257    1.000
    N48      N        0.77610    0.01955    0.56727    1.000
    O47      O        0.23610    0.87220    0.43730    1.000
    O48      O        0.33180    0.80592    0.45588    1.000
    Cu25     Cu       0.81113    0.82432    0.84036    1.000
    C289     C        0.75780    0.92010    0.79442    1.000
    C290     C        0.67930    0.94720    0.77150    1.000
    H241     H        0.70390    0.96640    0.74850    1.000
    H242     H        0.65010    0.97340    0.78900    1.000
    C291     C        0.60960    0.89430    0.71850    1.000
    H243     H        0.65230    0.90960    0.70120    1.000
    C292     C        0.55050    0.88600    0.78290    1.000
    H244     H        0.55230    0.89540    0.81000    1.000
    C293     C        0.54690    0.85800    0.70370    1.000
    H245     H        0.54740    0.84880    0.67660    1.000
    C294     C        0.48690    0.85020    0.76971    1.000
    H246     H        0.44530    0.83540    0.78790    1.000
    C295     C        0.48330    0.83530    0.72930    1.000
    C296     C        0.41120    0.79840    0.71360    1.000
    C297     C        0.39370    0.79560    0.67270    1.000
    H247     H        0.42730    0.81660    0.65480    1.000
    C298     C        0.35780    0.76650    0.73844    1.000
    H248     H        0.36690    0.76740    0.76620    1.000
    C299     C        0.32660    0.76180    0.65847    1.000
    H249     H        0.31570    0.76060    0.63090    1.000
    C300     C        0.29170    0.73370    0.72258    1.000
    H250     H        0.25630    0.71300    0.74000    1.000
    N49      N        0.61000    0.90780    0.75743    1.000
    N50      N        0.27610    0.73045    0.68273    1.000
    O49      O        0.73610    0.87780    0.81270    1.000
    O50      O        0.83180    0.94408    0.79412    1.000
    Cu26     Cu       0.81113    0.32432    0.34036    1.000
    C301     C        0.75780    0.42010    0.29442    1.000
    C302     C        0.67930    0.44720    0.27150    1.000
    H251     H        0.70390    0.46640    0.24850    1.000
    H252     H        0.65010    0.47340    0.28900    1.000
    C303     C        0.60960    0.39430    0.21850    1.000
    H253     H        0.65230    0.40960    0.20120    1.000
    C304     C        0.55050    0.38600    0.28290    1.000
    H254     H        0.55230    0.39540    0.31000    1.000
    C305     C        0.54690    0.35800    0.20370    1.000
    H255     H        0.54740    0.34880    0.17660    1.000
    C306     C        0.48690    0.35020    0.26971    1.000
    H256     H        0.44530    0.33540    0.28790    1.000
    C307     C        0.48330    0.33530    0.22930    1.000
    C308     C        0.41120    0.29840    0.21360    1.000
    C309     C        0.39370    0.29560    0.17270    1.000
    H257     H        0.42730    0.31660    0.15480    1.000
    C310     C        0.35780    0.26650    0.23844    1.000
    H258     H        0.36690    0.26740    0.26620    1.000
    C311     C        0.32660    0.26180    0.15847    1.000
    H259     H        0.31570    0.26060    0.13090    1.000
    C312     C        0.29170    0.23370    0.22258    1.000
    H260     H        0.25630    0.21300    0.24000    1.000
    N51      N        0.61000    0.40780    0.25743    1.000
    N52      N        0.27610    0.23045    0.18273    1.000
    O51      O        0.73610    0.37780    0.31270    1.000
    O52      O        0.83180    0.44408    0.29412    1.000
    Cu27     Cu       0.31113    0.82432    0.34036    1.000
    C313     C        0.25780    0.92010    0.29442    1.000
    C314     C        0.17930    0.94720    0.27150    1.000
    H261     H        0.20390    0.96640    0.24850    1.000
    H262     H        0.15010    0.97340    0.28900    1.000
    C315     C        0.10960    0.89430    0.21850    1.000
    H263     H        0.15230    0.90960    0.20120    1.000
    C316     C        0.05050    0.88600    0.28290    1.000
    H264     H        0.05230    0.89540    0.31000    1.000
    C317     C        0.04690    0.85800    0.20370    1.000
    H265     H        0.04740    0.84880    0.17660    1.000
    C318     C        0.98690    0.85020    0.26971    1.000
    H266     H        0.94530    0.83540    0.28790    1.000
    C319     C        0.98330    0.83530    0.22930    1.000
    C320     C        0.91120    0.79840    0.21360    1.000
    C321     C        0.89370    0.79560    0.17270    1.000
    H267     H        0.92730    0.81660    0.15480    1.000
    C322     C        0.85780    0.76650    0.23844    1.000
    H268     H        0.86690    0.76740    0.26620    1.000
    C323     C        0.82660    0.76180    0.15847    1.000
    H269     H        0.81570    0.76060    0.13090    1.000
    C324     C        0.79170    0.73370    0.22258    1.000
    H270     H        0.75630    0.71300    0.24000    1.000
    N53      N        0.11000    0.90780    0.25743    1.000
    N54      N        0.77610    0.73045    0.18273    1.000
    O53      O        0.23610    0.87780    0.31270    1.000
    O54      O        0.33180    0.94408    0.29412    1.000
    Cu28     Cu       0.31113    0.32432    0.84036    1.000
    C325     C        0.25780    0.42010    0.79442    1.000
    C326     C        0.17930    0.44720    0.77150    1.000
    H271     H        0.20390    0.46640    0.74850    1.000
    H272     H        0.15010    0.47340    0.78900    1.000
    C327     C        0.10960    0.39430    0.71850    1.000
    H273     H        0.15230    0.40960    0.70120    1.000
    C328     C        0.05050    0.38600    0.78290    1.000
    H274     H        0.05230    0.39540    0.81000    1.000
    C329     C        0.04690    0.35800    0.70370    1.000
    H275     H        0.04740    0.34880    0.67660    1.000
    C330     C        0.98690    0.35020    0.76971    1.000
    H276     H        0.94530    0.33540    0.78790    1.000
    C331     C        0.98330    0.33530    0.72930    1.000
    C332     C        0.91120    0.29840    0.71360    1.000
    C333     C        0.89370    0.29560    0.67270    1.000
    H277     H        0.92730    0.31660    0.65480    1.000
    C334     C        0.85780    0.26650    0.73844    1.000
    H278     H        0.86690    0.26740    0.76620    1.000
    C335     C        0.82660    0.26180    0.65847    1.000
    H279     H        0.81570    0.26060    0.63090    1.000
    C336     C        0.79170    0.23370    0.72258    1.000
    H280     H        0.75630    0.21300    0.74000    1.000
    N55      N        0.11000    0.40780    0.75743    1.000
    N56      N        0.77610    0.23045    0.68273    1.000
    O55      O        0.23610    0.37780    0.81270    1.000
    O56      O        0.33180    0.44408    0.79412    1.000
    Cu29     Cu       0.43887    0.42568    0.84036    1.000
    C337     C        0.49220    0.32990    0.79442    1.000
    C338     C        0.57070    0.30280    0.77150    1.000
    H281     H        0.54610    0.28360    0.74850    1.000
    H282     H        0.59990    0.27660    0.78900    1.000
    C339     C        0.64040    0.35570    0.71850    1.000
    H283     H        0.59770    0.34040    0.70120    1.000
    C340     C        0.69950    0.36400    0.78290    1.000
    H284     H        0.69770    0.35460    0.81000    1.000
    C341     C        0.70310    0.39200    0.70370    1.000
    H285     H        0.70260    0.40120    0.67660    1.000
    C342     C        0.76310    0.39980    0.76971    1.000
    H286     H        0.80470    0.41460    0.78790    1.000
    C343     C        0.76670    0.41470    0.72930    1.000
    C344     C        0.83880    0.45160    0.71360    1.000
    C345     C        0.85630    0.45440    0.67270    1.000
    H287     H        0.82270    0.43340    0.65480    1.000
    C346     C        0.89220    0.48350    0.73844    1.000
    H288     H        0.88310    0.48260    0.76620    1.000
    C347     C        0.92340    0.48820    0.65847    1.000
    H289     H        0.93430    0.48940    0.63090    1.000
    C348     C        0.95830    0.51630    0.72258    1.000
    H290     H        0.99370    0.53700    0.74000    1.000
    N57      N        0.64000    0.34220    0.75743    1.000
    N58      N        0.97390    0.51955    0.68273    1.000
    O57      O        0.51390    0.37220    0.81270    1.000
    O58      O        0.41820    0.30592    0.79412    1.000
    Cu30     Cu       0.43887    0.92568    0.34036    1.000
    C349     C        0.49220    0.82990    0.29442    1.000
    C350     C        0.57070    0.80280    0.27150    1.000
    H291     H        0.54610    0.78360    0.24850    1.000
    H292     H        0.59990    0.77660    0.28900    1.000
    C351     C        0.64040    0.85570    0.21850    1.000
    H293     H        0.59770    0.84040    0.20120    1.000
    C352     C        0.69950    0.86400    0.28290    1.000
    H294     H        0.69770    0.85460    0.31000    1.000
    C353     C        0.70310    0.89200    0.20370    1.000
    H295     H        0.70260    0.90120    0.17660    1.000
    C354     C        0.76310    0.89980    0.26971    1.000
    H296     H        0.80470    0.91460    0.28790    1.000
    C355     C        0.76670    0.91470    0.22930    1.000
    C356     C        0.83880    0.95160    0.21360    1.000
    C357     C        0.85630    0.95440    0.17270    1.000
    H297     H        0.82270    0.93340    0.15480    1.000
    C358     C        0.89220    0.98350    0.23844    1.000
    H298     H        0.88310    0.98260    0.26620    1.000
    C359     C        0.92340    0.98820    0.15847    1.000
    H299     H        0.93430    0.98940    0.13090    1.000
    C360     C        0.95830    0.01630    0.22258    1.000
    H300     H        0.99370    0.03700    0.24000    1.000
    N59      N        0.64000    0.84220    0.25743    1.000
    N60      N        0.97390    0.01955    0.18273    1.000
    O59      O        0.51390    0.87220    0.31270    1.000
    O60      O        0.41820    0.80592    0.29412    1.000
    Cu31     Cu       0.93887    0.42568    0.34036    1.000
    C361     C        0.99220    0.32990    0.29442    1.000
    C362     C        0.07070    0.30280    0.27150    1.000
    H301     H        0.04610    0.28360    0.24850    1.000
    H302     H        0.09990    0.27660    0.28900    1.000
    C363     C        0.14040    0.35570    0.21850    1.000
    H303     H        0.09770    0.34040    0.20120    1.000
    C364     C        0.19950    0.36400    0.28290    1.000
    H304     H        0.19770    0.35460    0.31000    1.000
    C365     C        0.20310    0.39200    0.20370    1.000
    H305     H        0.20260    0.40120    0.17660    1.000
    C366     C        0.26310    0.39980    0.26971    1.000
    H306     H        0.30470    0.41460    0.28790    1.000
    C367     C        0.26670    0.41470    0.22930    1.000
    C368     C        0.33880    0.45160    0.21360    1.000
    C369     C        0.35630    0.45440    0.17270    1.000
    H307     H        0.32270    0.43340    0.15480    1.000
    C370     C        0.39220    0.48350    0.23844    1.000
    H308     H        0.38310    0.48260    0.26620    1.000
    C371     C        0.42340    0.48820    0.15847    1.000
    H309     H        0.43430    0.48940    0.13090    1.000
    C372     C        0.45830    0.51630    0.22258    1.000
    H310     H        0.49370    0.53700    0.24000    1.000
    N61      N        0.14000    0.34220    0.25743    1.000
    N62      N        0.47390    0.51955    0.18273    1.000
    O61      O        0.01390    0.37220    0.31270    1.000
    O62      O        0.91820    0.30592    0.29412    1.000
    Cu32     Cu       0.93887    0.92568    0.84036    1.000
    C373     C        0.99220    0.82990    0.79442    1.000
    C374     C        0.07070    0.80280    0.77150    1.000
    H311     H        0.04610    0.78360    0.74850    1.000
    H312     H        0.09990    0.77660    0.78900    1.000
    C375     C        0.14040    0.85570    0.71850    1.000
    H313     H        0.09770    0.84040    0.70120    1.000
    C376     C        0.19950    0.86400    0.78290    1.000
    H314     H        0.19770    0.85460    0.81000    1.000
    C377     C        0.20310    0.89200    0.70370    1.000
    H315     H        0.20260    0.90120    0.67660    1.000
    C378     C        0.26310    0.89980    0.76971    1.000
    H316     H        0.30470    0.91460    0.78790    1.000
    C379     C        0.26670    0.91470    0.72930    1.000
    C380     C        0.33880    0.95160    0.71360    1.000
    C381     C        0.35630    0.95440    0.67270    1.000
    H317     H        0.32270    0.93340    0.65480    1.000
    C382     C        0.39220    0.98350    0.73844    1.000
    H318     H        0.38310    0.98260    0.76620    1.000
    C383     C        0.42340    0.98820    0.65847    1.000
    H319     H        0.43430    0.98940    0.63090    1.000
    C384     C        0.45830    0.01630    0.72258    1.000
    H320     H        0.49370    0.03700    0.74000    1.000
    N63      N        0.14000    0.84220    0.75743    1.000
    N64      N        0.47390    0.01955    0.68273    1.000
    O63      O        0.01390    0.87220    0.81270    1.000
    O64      O        0.91820    0.80592    0.79412    1.000
    N65      N        0.62500    0.22890    0.62500    1.000
    N66      N        0.62500    0.27670    0.62500    1.000
    N67      N        0.62500    0.32280    0.62500    1.000
    N68      N        0.62500    0.72890    0.12500    1.000
    N69      N        0.62500    0.77670    0.12500    1.000
    N70      N        0.62500    0.82280    0.12500    1.000
    N71      N        0.12500    0.52110    0.62500    1.000
    N72      N        0.12500    0.47330    0.62500    1.000
    N73      N        0.12500    0.42720    0.62500    1.000
    N74      N        0.12500    0.02110    0.12500    1.000
    N75      N        0.12500    0.97330    0.12500    1.000
    N76      N        0.12500    0.92720    0.12500    1.000
    N77      N        0.62500    0.02110    0.62500    1.000
    N78      N        0.62500    0.97330    0.62500    1.000
    N79      N        0.62500    0.92720    0.62500    1.000
    N80      N        0.12500    0.22890    0.12500    1.000
    N81      N        0.12500    0.27670    0.12500    1.000
    N82      N        0.12500    0.32280    0.12500    1.000
    N83      N        0.12500    0.72890    0.62500    1.000
    N84      N        0.12500    0.77670    0.62500    1.000
    N85      N        0.12500    0.82280    0.62500    1.000
    N86      N        0.62500    0.52110    0.12500    1.000
    N87      N        0.62500    0.47330    0.12500    1.000
    N88      N        0.62500    0.42720    0.12500    1.000
    N89      N        0.37500    0.77110    0.37500    1.000
    N90      N        0.37500    0.72330    0.37500    1.000
    N91      N        0.37500    0.67720    0.37500    1.000
    N92      N        0.37500    0.27110    0.87500    1.000
    N93      N        0.37500    0.22330    0.87500    1.000
    N94      N        0.37500    0.17720    0.87500    1.000
    N95      N        0.87500    0.47890    0.37500    1.000
    N96      N        0.87500    0.52670    0.37500    1.000
    N97      N        0.87500    0.57280    0.37500    1.000
    N98      N        0.87500    0.97890    0.87500    1.000
    N99      N        0.87500    0.02670    0.87500    1.000
    N100     N        0.87500    0.07280    0.87500    1.000
    N101     N        0.87500    0.77110    0.87500    1.000
    N102     N        0.87500    0.72330    0.87500    1.000
    N103     N        0.87500    0.67720    0.87500    1.000
    N104     N        0.87500    0.27110    0.37500    1.000
    N105     N        0.87500    0.22330    0.37500    1.000
    N106     N        0.87500    0.17720    0.37500    1.000
    N107     N        0.37500    0.47890    0.87500    1.000
    N108     N        0.37500    0.52670    0.87500    1.000
    N109     N        0.37500    0.57280    0.87500    1.000
    N110     N        0.37500    0.97890    0.37500    1.000
    N111     N        0.37500    0.02670    0.37500    1.000
    N112     N        0.37500    0.07280    0.37500    1.000
    O65      O        0.62500    0.12500    0.62500    1.000
    O66      O        0.12500    0.62500    0.62500    1.000
    O67      O        0.12500    0.12500    0.12500    1.000
    O68      O        0.62500    0.62500    0.12500    1.000
    O69      O        0.37500    0.87500    0.37500    1.000
    O70      O        0.87500    0.37500    0.37500    1.000
    O71      O        0.87500    0.87500    0.87500    1.000
    O72      O        0.37500    0.37500    0.87500    1.000
