data_functionalizedCrystal
_audit_creation_method	'EQeq! by Chris Wilmer'
_symmetry_space_group_name_H-M	'P1'
_symmetry_Int_Tables_number	1
_symmetry_cell_setting	triclinic
loop_
_symmetry_equiv_pos_as_xyz
  x,y,z
_cell_length_a	15.288
_cell_length_b	15.288
_cell_length_c	15.663
_cell_angle_alpha	90
_cell_angle_beta	90
_cell_angle_gamma	120
loop_
_atom_site_label
_atom_site_type_symbol
_atom_site_fract_x
_atom_site_fract_y
_atom_site_fract_z
_atom_site_charge
Mof_Eu	Eu	0.66667	0.33334	0.75	2.299
Mof_Eu	Eu	0.33333	0.66666	0.75	2.299
Mof_Eu	Eu	0.33333	0.66666	0.25	2.284
Mof_Eu	Eu	0.66667	0.33334	0.25	2.284
Mof_Mn	Mn	0.5	0.5	-0	0.789
Mof_Mn	Mn	-0	0.5	-0	0.707
Mof_Mn	Mn	0.5	0	-0	0.706
Mof_Mn	Mn	8.98453e-18	0.5	0.5	0.847
Mof_Mn	Mn	0.5	0.5	0.5	0.931
Mof_Mn	Mn	0.5	7.96239e-33	0.5	0.847
Mof_H 	H 	0.2886	0.0561	0.8429	0.046
Mof_H 	H 	0.7675	0.7114	0.8429	0.068
Mof_H 	H 	0.9439	0.2325	0.8429	0.074
Mof_H 	H 	0.7114	0.9439	0.8429	0.079
Mof_H 	H 	0.2325	0.2886	0.8429	0.056
Mof_H 	H 	0.0561	0.7675	0.8429	0.052
Mof_H 	H 	0.2325	0.9439	0.6571	0.059
Mof_H 	H 	0.0561	0.2886	0.6571	0.031
Mof_H 	H 	0.7114	0.7675	0.6571	0.053
Mof_H 	H 	0.7675	0.0561	0.6571	0.037
Mof_H 	H 	0.9439	0.7114	0.6571	0.065
Mof_H 	H 	0.2886	0.2325	0.6571	0.041
Mof_H 	H 	0.7114	0.9439	0.1571	0.051
Mof_H 	H 	0.2325	0.2886	0.1571	0.027
Mof_H 	H 	0.0561	0.7675	0.1571	0.023
Mof_H 	H 	0.2886	0.0561	0.1571	0.016
Mof_H 	H 	0.7675	0.7114	0.1571	0.039
Mof_H 	H 	0.9439	0.2325	0.1571	0.046
Mof_H 	H 	0.7675	0.0561	0.3429	0.034
Mof_H 	H 	0.9439	0.7114	0.3429	0.062
Mof_H 	H 	0.2886	0.2325	0.3429	0.038
Mof_H 	H 	0.2325	0.9439	0.3429	0.057
Mof_H 	H 	0.0561	0.2886	0.3429	0.028
Mof_H 	H 	0.7114	0.7675	0.3429	0.05
Mof_H 	H 	0.201	0.1005	0.75	0.026
Mof_H 	H 	0.8995	0.799	0.75	0.062
Mof_H 	H 	0.8995	0.1005	0.75	0.043
Mof_H 	H 	0.799	0.8995	0.75	0.062
Mof_H 	H 	0.1005	0.201	0.75	0.026
Mof_H 	H 	0.1005	0.8995	0.75	0.043
Mof_H 	H 	0.799	0.8995	0.25	0.059
Mof_H 	H 	0.1005	0.201	0.25	0.022
Mof_H 	H 	0.1005	0.8995	0.25	0.04
Mof_H 	H 	0.201	0.1005	0.25	0.022
Mof_H 	H 	0.8995	0.799	0.25	0.059
Mof_H 	H 	0.8995	0.1005	0.25	0.04
Mof_C 	C 	0.4261	0.1623	0.8033	-0.032
Mof_C 	C 	0.3229	0.1093	0.8049	-0.027
Mof_C 	C 	0.4905	0.3517	0.64	0.376
Mof_C 	C 	0.7362	0.5739	0.8033	-0.021
Mof_C 	C 	0.7864	0.6771	0.8049	-0.02
Mof_C 	C 	0.8612	0.5095	0.64	0.369
Mof_C 	C 	0.8377	0.2638	0.8033	-0.017
Mof_C 	C 	0.8907	0.2136	0.8049	-0.025
Mof_C 	C 	0.6483	0.1388	0.64	0.374
Mof_C 	C 	0.5739	0.8377	0.8033	-0.014
Mof_C 	C 	0.6771	0.8907	0.8049	-0.021
Mof_C 	C 	0.5095	0.6483	0.64	0.377
Mof_C 	C 	0.2638	0.4261	0.8033	-0.029
Mof_C 	C 	0.2136	0.3229	0.8049	-0.026
Mof_C 	C 	0.1388	0.4905	0.64	0.373
Mof_C 	C 	0.1623	0.7362	0.8033	-0.027
Mof_C 	C 	0.1093	0.7864	0.8049	-0.025
Mof_C 	C 	0.3517	0.8612	0.64	0.369
Mof_C 	C 	0.2638	0.8377	0.6967	-0.03
Mof_C 	C 	0.2136	0.8907	0.6951	-0.023
Mof_C 	C 	0.1388	0.6483	0.86	0.363
Mof_C 	C 	0.1623	0.4261	0.6967	-0.046
Mof_C 	C 	0.1093	0.3229	0.6951	-0.024
Mof_C 	C 	0.3517	0.4905	0.86	0.365
Mof_C 	C 	0.5739	0.7362	0.6967	-0.034
Mof_C 	C 	0.6771	0.7864	0.6951	-0.017
Mof_C 	C 	0.5095	0.8612	0.86	0.359
Mof_C 	C 	0.7362	0.1623	0.6967	-0.041
Mof_C 	C 	0.7864	0.1093	0.6951	-0.022
Mof_C 	C 	0.8612	0.3517	0.86	0.358
Mof_C 	C 	0.8377	0.5739	0.6967	-0.027
Mof_C 	C 	0.8907	0.6771	0.6951	-0.019
Mof_C 	C 	0.6483	0.5095	0.86	0.366
Mof_C 	C 	0.4261	0.2638	0.6967	-0.043
Mof_C 	C 	0.3229	0.2136	0.6951	-0.024
Mof_C 	C 	0.4905	0.1388	0.86	0.362
Mof_C 	C 	0.5739	0.8377	0.1967	-0.037
Mof_C 	C 	0.6771	0.8907	0.1951	-0.012
Mof_C 	C 	0.5095	0.6483	0.36	0.378
Mof_C 	C 	0.2638	0.4261	0.1967	-0.053
Mof_C 	C 	0.2136	0.3229	0.1951	-0.016
Mof_C 	C 	0.1388	0.4905	0.36	0.374
Mof_C 	C 	0.1623	0.7362	0.1967	-0.051
Mof_C 	C 	0.1093	0.7864	0.1951	-0.015
Mof_C 	C 	0.3517	0.8612	0.36	0.37
Mof_C 	C 	0.4261	0.1623	0.1967	-0.057
Mof_C 	C 	0.3229	0.1093	0.1951	-0.018
Mof_C 	C 	0.4905	0.3517	0.36	0.377
Mof_C 	C 	0.7362	0.5739	0.1967	-0.044
Mof_C 	C 	0.7864	0.6771	0.1951	-0.01
Mof_C 	C 	0.8612	0.5095	0.36	0.37
Mof_C 	C 	0.8377	0.2638	0.1967	-0.04
Mof_C 	C 	0.8907	0.2136	0.1951	-0.016
Mof_C 	C 	0.6483	0.1388	0.36	0.375
Mof_C 	C 	0.7362	0.1623	0.3033	-0.046
Mof_C 	C 	0.7864	0.1093	0.3049	-0.015
Mof_C 	C 	0.8612	0.3517	0.14	0.364
Mof_C 	C 	0.8377	0.5739	0.3033	-0.033
Mof_C 	C 	0.8907	0.6771	0.3049	-0.011
Mof_C 	C 	0.6483	0.5095	0.14	0.372
Mof_C 	C 	0.4261	0.2638	0.3033	-0.049
Mof_C 	C 	0.3229	0.2136	0.3049	-0.016
Mof_C 	C 	0.4905	0.1388	0.14	0.368
Mof_C 	C 	0.2638	0.8377	0.3033	-0.036
Mof_C 	C 	0.2136	0.8907	0.3049	-0.015
Mof_C 	C 	0.1388	0.6483	0.14	0.369
Mof_C 	C 	0.1623	0.4261	0.3033	-0.052
Mof_C 	C 	0.1093	0.3229	0.3049	-0.017
Mof_C 	C 	0.3517	0.4905	0.14	0.371
Mof_C 	C 	0.5739	0.7362	0.3033	-0.04
Mof_C 	C 	0.6771	0.7864	0.3049	-0.01
Mof_C 	C 	0.5095	0.8612	0.14	0.365
Mof_C 	C 	0.2712	0.1356	0.75	-0.048
Mof_C 	C 	0.8644	0.7288	0.75	-0.033
Mof_C 	C 	0.8644	0.1356	0.75	-0.039
Mof_C 	C 	0.7288	0.8644	0.75	-0.033
Mof_C 	C 	0.1356	0.2712	0.75	-0.048
Mof_C 	C 	0.1356	0.8644	0.75	-0.039
Mof_C 	C 	0.7288	0.8644	0.25	-0.05
Mof_C 	C 	0.1356	0.2712	0.25	-0.066
Mof_C 	C 	0.1356	0.8644	0.25	-0.056
Mof_C 	C 	0.2712	0.1356	0.25	-0.066
Mof_C 	C 	0.8644	0.7288	0.25	-0.05
Mof_C 	C 	0.8644	0.1356	0.25	-0.056
Mof_N 	N 	0.47756	0.23878	0.75	-0.215
Mof_N 	N 	0.76122	0.52244	0.75	-0.215
Mof_N 	N 	0.76122	0.23878	0.75	-0.216
Mof_N 	N 	0.52244	0.76122	0.75	-0.215
Mof_N 	N 	0.23878	0.47756	0.75	-0.215
Mof_N 	N 	0.23878	0.76122	0.75	-0.216
Mof_N 	N 	0.52244	0.76122	0.25	-0.212
Mof_N 	N 	0.23878	0.47756	0.25	-0.212
Mof_N 	N 	0.23878	0.76122	0.25	-0.212
Mof_N 	N 	0.47756	0.23878	0.25	-0.212
Mof_N 	N 	0.76122	0.52244	0.25	-0.212
Mof_N 	N 	0.76122	0.23878	0.25	-0.212
Mof_O 	O 	0.5854	0.3866	0.64365	-0.482
Mof_O 	O 	0.6157	0.5524	0.0938	-0.388
Mof_O 	O 	0.8012	0.4146	0.64365	-0.47
Mof_O 	O 	0.9367	0.3843	0.0938	-0.352
Mof_O 	O 	0.6134	0.1988	0.64365	-0.485
Mof_O 	O 	0.4476	0.0633	0.0938	-0.399
Mof_O 	O 	0.4146	0.6134	0.64365	-0.481
Mof_O 	O 	0.3843	0.4476	0.0938	-0.393
Mof_O 	O 	0.1988	0.5854	0.64365	-0.485
Mof_O 	O 	0.0633	0.6157	0.0938	-0.396
Mof_O 	O 	0.3866	0.8012	0.64365	-0.47
Mof_O 	O 	0.5524	0.9367	0.0938	-0.35
Mof_O 	O 	0.1988	0.6134	0.85635	-0.458
Mof_O 	O 	0.0633	0.4476	0.4062	-0.393
Mof_O 	O 	0.3866	0.5854	0.85635	-0.455
Mof_O 	O 	0.5524	0.6157	0.4062	-0.382
Mof_O 	O 	0.4146	0.8012	0.85635	-0.443
Mof_O 	O 	0.3843	0.9367	0.4062	-0.346
Mof_O 	O 	0.8012	0.3866	0.85635	-0.444
Mof_O 	O 	0.9367	0.5524	0.4062	-0.344
Mof_O 	O 	0.6134	0.4146	0.85635	-0.454
Mof_O 	O 	0.4476	0.3843	0.4062	-0.387
Mof_O 	O 	0.5854	0.1988	0.85635	-0.458
Mof_O 	O 	0.6157	0.0633	0.4062	-0.39
Mof_O 	O 	0.4146	0.6134	0.35635	-0.48
Mof_O 	O 	0.3843	0.4476	0.9062	-0.324
Mof_O 	O 	0.1988	0.5854	0.35635	-0.484
Mof_O 	O 	0.0633	0.6157	0.9062	-0.328
Mof_O 	O 	0.3866	0.8012	0.35635	-0.469
Mof_O 	O 	0.5524	0.9367	0.9062	-0.283
Mof_O 	O 	0.5854	0.3866	0.35635	-0.481
Mof_O 	O 	0.6157	0.5524	0.9062	-0.319
Mof_O 	O 	0.8012	0.4146	0.35635	-0.468
Mof_O 	O 	0.9367	0.3843	0.9062	-0.285
Mof_O 	O 	0.6134	0.1988	0.35635	-0.483
Mof_O 	O 	0.4476	0.0633	0.9062	-0.33
Mof_O 	O 	0.8012	0.3866	0.14365	-0.478
Mof_O 	O 	0.9367	0.5524	0.5938	-0.344
Mof_O 	O 	0.6134	0.4146	0.14365	-0.489
Mof_O 	O 	0.4476	0.3843	0.5938	-0.386
Mof_O 	O 	0.5854	0.1988	0.14365	-0.494
Mof_O 	O 	0.6157	0.0633	0.5938	-0.39
Mof_O 	O 	0.1988	0.6134	0.14365	-0.493
Mof_O 	O 	0.0633	0.4476	0.5938	-0.392
Mof_O 	O 	0.3866	0.5854	0.14365	-0.491
Mof_O 	O 	0.5524	0.6157	0.5938	-0.382
Mof_O 	O 	0.4146	0.8012	0.14365	-0.478
Mof_O 	O 	0.3843	0.9367	0.5938	-0.346
_end
