data_functionalizedCrystal
_audit_creation_method	'EQeq! by Chris Wilmer'
_symmetry_space_group_name_H-M	'P1'
_symmetry_Int_Tables_number	1
_symmetry_cell_setting	triclinic
loop_
_symmetry_equiv_pos_as_xyz
  x,y,z
_cell_length_a	15.591
_cell_length_b	15.241
_cell_length_c	12.126
_cell_angle_alpha	90
_cell_angle_beta	90
_cell_angle_gamma	90
loop_
_atom_site_label
_atom_site_type_symbol
_atom_site_fract_x
_atom_site_fract_y
_atom_site_fract_z
_atom_site_charge
Mof_W 	W 	0.01524	0.0181	0.09842	0.265
Mof_Cu	Cu	0.1466	0.9875	0.237	0.828
Mof_Cu	Cu	0.1094	0.1526	0.0252	0.822
Mof_Cu	Cu	0.882	0.0709	0.967	0.816
Mof_Cu	Cu	0.9114	0.8884	0.172	0.836
Mof_S 	S 	0.9698	0.1564	0.0789	-0.498
Mof_S 	S 	0.1529	0.0112	0.0492	-0.484
Mof_S 	S 	0.0021	0.9745	0.2737	-0.489
Mof_S 	S 	0.937	0.9306	0.9913	-0.464
Mof_S 	S 	0.2439	0.4163	0.9589	-0.259
Mof_S 	S 	0.8842	0.1037	0.7791	-0.246
Mof_S 	S 	0.1947	0.1086	0.3514	-0.234
Mof_S 	S 	0.4	0.8373	0.3063	-0.192
Mof_N 	N 	0.2348	0.9071	0.284	-0.267
Mof_C 	C 	0.3029	0.878	0.293	0.084
Mof_N 	N 	0.1787	0.257	0.033	-0.278
Mof_C 	C 	0.2085	0.3242	0.006	0.094
Mof_N 	N 	0.094	0.256	0.319	-0.257
Mof_C 	C 	0.136	0.1932	0.332	0.079
Mof_N 	N 	0.7113	0.088	0.721	-0.257
Mof_C 	C 	0.7814	0.093	0.749	0.097
Mof_W 	W 	0.48476	0.9819	0.59842	0.266
Mof_Cu	Cu	0.3534	0.0125	0.737	0.828
Mof_Cu	Cu	0.3906	0.8474	0.5252	0.823
Mof_Cu	Cu	0.618	0.9291	0.467	0.819
Mof_Cu	Cu	0.5886	0.1116	0.672	0.837
Mof_S 	S 	0.5302	0.8436	0.5789	-0.503
Mof_S 	S 	0.3471	0.9888	0.5492	-0.485
Mof_S 	S 	0.4979	0.0255	0.7737	-0.488
Mof_S 	S 	0.563	0.0694	0.4913	-0.463
Mof_S 	S 	0.2561	0.5837	0.4589	-0.261
Mof_S 	S 	0.6158	0.8963	0.2791	-0.246
Mof_S 	S 	0.3053	0.8914	0.8514	-0.232
Mof_S 	S 	0.1	0.1627	0.8063	-0.191
Mof_N 	N 	0.2652	0.0929	0.784	-0.266
Mof_C 	C 	0.1971	0.122	0.793	0.085
Mof_N 	N 	0.3213	0.743	0.533	-0.278
Mof_C 	C 	0.2915	0.6758	0.506	0.095
Mof_N 	N 	0.406	0.744	0.819	-0.256
Mof_C 	C 	0.364	0.8068	0.832	0.08
Mof_N 	N 	0.7887	0.912	0.221	-0.258
Mof_C 	C 	0.7186	0.907	0.249	0.096
Mof_W 	W 	0.98476	0.5181	0.40158	0.264
Mof_Cu	Cu	0.8534	0.4875	0.263	0.829
Mof_Cu	Cu	0.8906	0.6526	0.4748	0.822
Mof_Cu	Cu	0.118	0.5709	0.533	0.819
Mof_Cu	Cu	0.0886	0.3884	0.328	0.837
Mof_S 	S 	0.0302	0.6564	0.4211	-0.503
Mof_S 	S 	0.8471	0.5112	0.4508	-0.486
Mof_S 	S 	0.9979	0.4745	0.2263	-0.487
Mof_S 	S 	0.063	0.4306	0.5087	-0.464
Mof_S 	S 	0.7561	0.9163	0.5411	-0.261
Mof_S 	S 	0.1158	0.6037	0.7209	-0.243
Mof_S 	S 	0.8053	0.6086	0.1486	-0.235
Mof_S 	S 	0.6	0.3373	0.1937	-0.19
Mof_N 	N 	0.7652	0.4071	0.216	-0.266
Mof_C 	C 	0.6971	0.378	0.207	0.085
Mof_N 	N 	0.8213	0.757	0.467	-0.279
Mof_C 	C 	0.7915	0.8242	0.494	0.095
Mof_N 	N 	0.906	0.756	0.181	-0.257
Mof_C 	C 	0.864	0.6932	0.168	0.079
Mof_N 	N 	0.2887	0.588	0.779	-0.257
Mof_C 	C 	0.2186	0.593	0.751	0.097
Mof_W 	W 	0.51524	0.4819	0.90158	0.267
Mof_Cu	Cu	0.6466	0.5125	0.763	0.829
Mof_Cu	Cu	0.6094	0.3474	0.9748	0.822
Mof_Cu	Cu	0.382	0.4291	0.033	0.819
Mof_Cu	Cu	0.4114	0.6116	0.828	0.837
Mof_S 	S 	0.4698	0.3436	0.9211	-0.504
Mof_S 	S 	0.6529	0.4888	0.9508	-0.486
Mof_S 	S 	0.5021	0.5255	0.7263	-0.487
Mof_S 	S 	0.437	0.5694	0.0087	-0.466
Mof_S 	S 	0.7439	0.0837	0.0411	-0.252
Mof_S 	S 	0.3842	0.3963	0.2209	-0.244
Mof_S 	S 	0.6947	0.3914	0.6486	-0.235
Mof_S 	S 	0.9	0.6627	0.6937	-0.192
Mof_N 	N 	0.7348	0.5929	0.716	-0.266
Mof_C 	C 	0.8029	0.622	0.707	0.085
Mof_N 	N 	0.6787	0.243	0.967	-0.278
Mof_C 	C 	0.7085	0.1758	0.994	0.09
Mof_N 	N 	0.594	0.244	0.681	-0.256
Mof_C 	C 	0.636	0.3068	0.668	0.08
Mof_N 	N 	0.2113	0.412	0.279	-0.257
Mof_C 	C 	0.2814	0.407	0.251	0.097
_end
