# CIF file generated by openbabel 3.1.0, see https://openbabel.org
data_I
_chemical_name_common 'image0'
_cell_length_a 19.4498
_cell_length_b 26.8572
_cell_length_c 34.812
_cell_angle_alpha 90
_cell_angle_beta 90
_cell_angle_gamma 90
_space_group_name_H-M_alt 'P 1'
_space_group_name_Hall 'P 1'
loop_
    _symmetry_equiv_pos_as_xyz
    x,y,z
loop_
    _atom_site_label
    _atom_site_type_symbol
    _atom_site_fract_x
    _atom_site_fract_y
    _atom_site_fract_z
    _atom_site_occupancy
    K1       K        0.56103    0.63510    0.48398    1.000
    Pr1      Pr       0.74395    0.55811    0.93212    1.000
    Pr2      Pr       0.74305    0.56895    0.25993    1.000
    Pt1      Pt       0.75305    0.56435    0.09633    1.000
    Pt2      Pt       0.99201    0.56164    0.84466    1.000
    Pt3      Pt       0.50081    0.56367    0.83944    1.000
    Pt4      Pt       0.24479    0.55767    0.09485    1.000
    C1       C        0.65160    0.56300    0.09870    1.000
    C2       C        0.74770    0.56190    0.03940    1.000
    C3       C        0.85450    0.56310    0.09290    1.000
    C4       C        0.75940    0.56810    0.15370    1.000
    C5       C        0.04100    0.56270    0.89520    1.000
    C6       C        0.08140    0.56690    0.81680    1.000
    C7       C        0.94570    0.56100    0.79330    1.000
    C8       C        0.90230    0.55550    0.87210    1.000
    C9       C        0.58610    0.56280    0.87100    1.000
    C10      C        0.55920    0.56450    0.79350    1.000
    C11      C        0.41820    0.56600    0.80700    1.000
    C12      C        0.44520    0.56210    0.88790    1.000
    C13      C        0.17150    0.56040    0.13420    1.000
    C14      C        0.31500    0.55540    0.13740    1.000
    C15      C        0.31710    0.55320    0.05550    1.000
    C16      C        0.17230    0.55890    0.05300    1.000
    N1       N        0.59310    0.55840    0.10020    1.000
    N2       N        0.74670    0.56060    0.00638    1.000
    N3       N        0.91290    0.56360    0.09080    1.000
    N4       N        0.76170    0.57110    0.18625    1.000
    N5       N        0.07020    0.56310    0.92290    1.000
    N6       N        0.13080    0.56780    0.79993    1.000
    N7       N        0.92350    0.56030    0.76300    1.000
    N8       N        0.85120    0.55190    0.88749    1.000
    N9       N        0.63540    0.56340    0.88850    1.000
    N10      N        0.59280    0.56550    0.76630    1.000
    N11      N        0.37100    0.56810    0.78720    1.000
    N12      N        0.41400    0.56300    0.91510    1.000
    N13      N        0.13310    0.56150    0.15750    1.000
    N14      N        0.35150    0.55290    0.16210    1.000
    N15      N        0.35710    0.54920    0.03190    1.000
    N16      N        0.12890    0.55850    0.03130    1.000
    O1       O        0.45810    0.55830    0.48401    1.000
    K2       K        0.56103    0.13510    0.98398    1.000
    Pr3      Pr       0.74395    0.05811    0.43212    1.000
    Pr4      Pr       0.74305    0.06895    0.75993    1.000
    Pt5      Pt       0.75305    0.06435    0.59633    1.000
    Pt6      Pt       0.99201    0.06164    0.34466    1.000
    Pt7      Pt       0.50081    0.06367    0.33944    1.000
    Pt8      Pt       0.24479    0.05767    0.59485    1.000
    C17      C        0.65160    0.06300    0.59870    1.000
    C18      C        0.74770    0.06190    0.53940    1.000
    C19      C        0.85450    0.06310    0.59290    1.000
    C20      C        0.75940    0.06810    0.65370    1.000
    C21      C        0.04100    0.06270    0.39520    1.000
    C22      C        0.08140    0.06690    0.31680    1.000
    C23      C        0.94570    0.06100    0.29330    1.000
    C24      C        0.90230    0.05550    0.37210    1.000
    C25      C        0.58610    0.06280    0.37100    1.000
    C26      C        0.55920    0.06450    0.29350    1.000
    C27      C        0.41820    0.06600    0.30700    1.000
    C28      C        0.44520    0.06210    0.38790    1.000
    C29      C        0.17150    0.06040    0.63420    1.000
    C30      C        0.31500    0.05540    0.63740    1.000
    C31      C        0.31710    0.05320    0.55550    1.000
    C32      C        0.17230    0.05890    0.55300    1.000
    N17      N        0.59310    0.05840    0.60020    1.000
    N18      N        0.74670    0.06060    0.50638    1.000
    N19      N        0.91290    0.06360    0.59080    1.000
    N20      N        0.76170    0.07110    0.68625    1.000
    N21      N        0.07020    0.06310    0.42290    1.000
    N22      N        0.13080    0.06780    0.29993    1.000
    N23      N        0.92350    0.06030    0.26300    1.000
    N24      N        0.85120    0.05190    0.38749    1.000
    N25      N        0.63540    0.06340    0.38850    1.000
    N26      N        0.59280    0.06550    0.26630    1.000
    N27      N        0.37100    0.06810    0.28720    1.000
    N28      N        0.41400    0.06300    0.41510    1.000
    N29      N        0.13310    0.06150    0.65750    1.000
    N30      N        0.35150    0.05290    0.66210    1.000
    N31      N        0.35710    0.04920    0.53190    1.000
    N32      N        0.12890    0.05850    0.53130    1.000
    O2       O        0.45810    0.05830    0.98401    1.000
    K3       K        0.06103    0.63510    0.98398    1.000
    Pr5      Pr       0.24395    0.55811    0.43212    1.000
    Pr6      Pr       0.24305    0.56895    0.75993    1.000
    Pt9      Pt       0.25305    0.56435    0.59633    1.000
    Pt10     Pt       0.49201    0.56164    0.34466    1.000
    Pt11     Pt       0.00081    0.56367    0.33944    1.000
    Pt12     Pt       0.74479    0.55767    0.59485    1.000
    C33      C        0.15160    0.56300    0.59870    1.000
    C34      C        0.24770    0.56190    0.53940    1.000
    C35      C        0.35450    0.56310    0.59290    1.000
    C36      C        0.25940    0.56810    0.65370    1.000
    C37      C        0.54100    0.56270    0.39520    1.000
    C38      C        0.58140    0.56690    0.31680    1.000
    C39      C        0.44570    0.56100    0.29330    1.000
    C40      C        0.40230    0.55550    0.37210    1.000
    C41      C        0.08610    0.56280    0.37100    1.000
    C42      C        0.05920    0.56450    0.29350    1.000
    C43      C        0.91820    0.56600    0.30700    1.000
    C44      C        0.94520    0.56210    0.38790    1.000
    C45      C        0.67150    0.56040    0.63420    1.000
    C46      C        0.81500    0.55540    0.63740    1.000
    C47      C        0.81710    0.55320    0.55550    1.000
    C48      C        0.67230    0.55890    0.55300    1.000
    N33      N        0.09310    0.55840    0.60020    1.000
    N34      N        0.24670    0.56060    0.50638    1.000
    N35      N        0.41290    0.56360    0.59080    1.000
    N36      N        0.26170    0.57110    0.68625    1.000
    N37      N        0.57020    0.56310    0.42290    1.000
    N38      N        0.63080    0.56780    0.29993    1.000
    N39      N        0.42350    0.56030    0.26300    1.000
    N40      N        0.35120    0.55190    0.38749    1.000
    N41      N        0.13540    0.56340    0.38850    1.000
    N42      N        0.09280    0.56550    0.26630    1.000
    N43      N        0.87100    0.56810    0.28720    1.000
    N44      N        0.91400    0.56300    0.41510    1.000
    N45      N        0.63310    0.56150    0.65750    1.000
    N46      N        0.85150    0.55290    0.66210    1.000
    N47      N        0.85710    0.54920    0.53190    1.000
    N48      N        0.62890    0.55850    0.53130    1.000
    O3       O        0.95810    0.55830    0.98401    1.000
    K4       K        0.06103    0.13510    0.48398    1.000
    Pr7      Pr       0.24395    0.05811    0.93212    1.000
    Pr8      Pr       0.24305    0.06895    0.25993    1.000
    Pt13     Pt       0.25305    0.06435    0.09633    1.000
    Pt14     Pt       0.49201    0.06164    0.84466    1.000
    Pt15     Pt       0.00081    0.06367    0.83944    1.000
    Pt16     Pt       0.74479    0.05767    0.09485    1.000
    C49      C        0.15160    0.06300    0.09870    1.000
    C50      C        0.24770    0.06190    0.03940    1.000
    C51      C        0.35450    0.06310    0.09290    1.000
    C52      C        0.25940    0.06810    0.15370    1.000
    C53      C        0.54100    0.06270    0.89520    1.000
    C54      C        0.58140    0.06690    0.81680    1.000
    C55      C        0.44570    0.06100    0.79330    1.000
    C56      C        0.40230    0.05550    0.87210    1.000
    C57      C        0.08610    0.06280    0.87100    1.000
    C58      C        0.05920    0.06450    0.79350    1.000
    C59      C        0.91820    0.06600    0.80700    1.000
    C60      C        0.94520    0.06210    0.88790    1.000
    C61      C        0.67150    0.06040    0.13420    1.000
    C62      C        0.81500    0.05540    0.13740    1.000
    C63      C        0.81710    0.05320    0.05550    1.000
    C64      C        0.67230    0.05890    0.05300    1.000
    N49      N        0.09310    0.05840    0.10020    1.000
    N50      N        0.24670    0.06060    0.00638    1.000
    N51      N        0.41290    0.06360    0.09080    1.000
    N52      N        0.26170    0.07110    0.18625    1.000
    N53      N        0.57020    0.06310    0.92290    1.000
    N54      N        0.63080    0.06780    0.79993    1.000
    N55      N        0.42350    0.06030    0.76300    1.000
    N56      N        0.35120    0.05190    0.88749    1.000
    N57      N        0.13540    0.06340    0.88850    1.000
    N58      N        0.09280    0.06550    0.76630    1.000
    N59      N        0.87100    0.06810    0.78720    1.000
    N60      N        0.91400    0.06300    0.91510    1.000
    N61      N        0.63310    0.06150    0.15750    1.000
    N62      N        0.85150    0.05290    0.16210    1.000
    N63      N        0.85710    0.04920    0.03190    1.000
    N64      N        0.62890    0.05850    0.03130    1.000
    O4       O        0.95810    0.05830    0.48401    1.000
    K5       K        0.43897    0.36490    0.48398    1.000
    Pr9      Pr       0.25605    0.44189    0.93212    1.000
    Pr10     Pr       0.25695    0.43105    0.25993    1.000
    Pt17     Pt       0.24695    0.43565    0.09633    1.000
    Pt18     Pt       0.00799    0.43836    0.84466    1.000
    Pt19     Pt       0.49919    0.43633    0.83944    1.000
    Pt20     Pt       0.75521    0.44233    0.09485    1.000
    C65      C        0.34840    0.43700    0.09870    1.000
    C66      C        0.25230    0.43810    0.03940    1.000
    C67      C        0.14550    0.43690    0.09290    1.000
    C68      C        0.24060    0.43190    0.15370    1.000
    C69      C        0.95900    0.43730    0.89520    1.000
    C70      C        0.91860    0.43310    0.81680    1.000
    C71      C        0.05430    0.43900    0.79330    1.000
    C72      C        0.09770    0.44450    0.87210    1.000
    C73      C        0.41390    0.43720    0.87100    1.000
    C74      C        0.44080    0.43550    0.79350    1.000
    C75      C        0.58180    0.43400    0.80700    1.000
    C76      C        0.55480    0.43790    0.88790    1.000
    C77      C        0.82850    0.43960    0.13420    1.000
    C78      C        0.68500    0.44460    0.13740    1.000
    C79      C        0.68290    0.44680    0.05550    1.000
    C80      C        0.82770    0.44110    0.05300    1.000
    N65      N        0.40690    0.44160    0.10020    1.000
    N66      N        0.25330    0.43940    0.00638    1.000
    N67      N        0.08710    0.43640    0.09080    1.000
    N68      N        0.23830    0.42890    0.18625    1.000
    N69      N        0.92980    0.43690    0.92290    1.000
    N70      N        0.86920    0.43220    0.79993    1.000
    N71      N        0.07650    0.43970    0.76300    1.000
    N72      N        0.14880    0.44810    0.88749    1.000
    N73      N        0.36460    0.43660    0.88850    1.000
    N74      N        0.40720    0.43450    0.76630    1.000
    N75      N        0.62900    0.43190    0.78720    1.000
    N76      N        0.58600    0.43700    0.91510    1.000
    N77      N        0.86690    0.43850    0.15750    1.000
    N78      N        0.64850    0.44710    0.16210    1.000
    N79      N        0.64290    0.45080    0.03190    1.000
    N80      N        0.87110    0.44150    0.03130    1.000
    O5       O        0.54190    0.44170    0.48401    1.000
    K6       K        0.43897    0.86490    0.98398    1.000
    Pr11     Pr       0.25605    0.94189    0.43212    1.000
    Pr12     Pr       0.25695    0.93105    0.75993    1.000
    Pt21     Pt       0.24695    0.93565    0.59633    1.000
    Pt22     Pt       0.00799    0.93836    0.34466    1.000
    Pt23     Pt       0.49919    0.93633    0.33944    1.000
    Pt24     Pt       0.75521    0.94233    0.59485    1.000
    C81      C        0.34840    0.93700    0.59870    1.000
    C82      C        0.25230    0.93810    0.53940    1.000
    C83      C        0.14550    0.93690    0.59290    1.000
    C84      C        0.24060    0.93190    0.65370    1.000
    C85      C        0.95900    0.93730    0.39520    1.000
    C86      C        0.91860    0.93310    0.31680    1.000
    C87      C        0.05430    0.93900    0.29330    1.000
    C88      C        0.09770    0.94450    0.37210    1.000
    C89      C        0.41390    0.93720    0.37100    1.000
    C90      C        0.44080    0.93550    0.29350    1.000
    C91      C        0.58180    0.93400    0.30700    1.000
    C92      C        0.55480    0.93790    0.38790    1.000
    C93      C        0.82850    0.93960    0.63420    1.000
    C94      C        0.68500    0.94460    0.63740    1.000
    C95      C        0.68290    0.94680    0.55550    1.000
    C96      C        0.82770    0.94110    0.55300    1.000
    N81      N        0.40690    0.94160    0.60020    1.000
    N82      N        0.25330    0.93940    0.50638    1.000
    N83      N        0.08710    0.93640    0.59080    1.000
    N84      N        0.23830    0.92890    0.68625    1.000
    N85      N        0.92980    0.93690    0.42290    1.000
    N86      N        0.86920    0.93220    0.29993    1.000
    N87      N        0.07650    0.93970    0.26300    1.000
    N88      N        0.14880    0.94810    0.38749    1.000
    N89      N        0.36460    0.93660    0.38850    1.000
    N90      N        0.40720    0.93450    0.26630    1.000
    N91      N        0.62900    0.93190    0.28720    1.000
    N92      N        0.58600    0.93700    0.41510    1.000
    N93      N        0.86690    0.93850    0.65750    1.000
    N94      N        0.64850    0.94710    0.66210    1.000
    N95      N        0.64290    0.95080    0.53190    1.000
    N96      N        0.87110    0.94150    0.53130    1.000
    O6       O        0.54190    0.94170    0.98401    1.000
    K7       K        0.93897    0.36490    0.98398    1.000
    Pr13     Pr       0.75605    0.44189    0.43212    1.000
    Pr14     Pr       0.75695    0.43105    0.75993    1.000
    Pt25     Pt       0.74695    0.43565    0.59633    1.000
    Pt26     Pt       0.50799    0.43836    0.34466    1.000
    Pt27     Pt       0.99919    0.43633    0.33944    1.000
    Pt28     Pt       0.25521    0.44233    0.59485    1.000
    C97      C        0.84840    0.43700    0.59870    1.000
    C98      C        0.75230    0.43810    0.53940    1.000
    C99      C        0.64550    0.43690    0.59290    1.000
    C100     C        0.74060    0.43190    0.65370    1.000
    C101     C        0.45900    0.43730    0.39520    1.000
    C102     C        0.41860    0.43310    0.31680    1.000
    C103     C        0.55430    0.43900    0.29330    1.000
    C104     C        0.59770    0.44450    0.37210    1.000
    C105     C        0.91390    0.43720    0.37100    1.000
    C106     C        0.94080    0.43550    0.29350    1.000
    C107     C        0.08180    0.43400    0.30700    1.000
    C108     C        0.05480    0.43790    0.38790    1.000
    C109     C        0.32850    0.43960    0.63420    1.000
    C110     C        0.18500    0.44460    0.63740    1.000
    C111     C        0.18290    0.44680    0.55550    1.000
    C112     C        0.32770    0.44110    0.55300    1.000
    N97      N        0.90690    0.44160    0.60020    1.000
    N98      N        0.75330    0.43940    0.50638    1.000
    N99      N        0.58710    0.43640    0.59080    1.000
    N100     N        0.73830    0.42890    0.68625    1.000
    N101     N        0.42980    0.43690    0.42290    1.000
    N102     N        0.36920    0.43220    0.29993    1.000
    N103     N        0.57650    0.43970    0.26300    1.000
    N104     N        0.64880    0.44810    0.38749    1.000
    N105     N        0.86460    0.43660    0.38850    1.000
    N106     N        0.90720    0.43450    0.26630    1.000
    N107     N        0.12900    0.43190    0.28720    1.000
    N108     N        0.08600    0.43700    0.41510    1.000
    N109     N        0.36690    0.43850    0.65750    1.000
    N110     N        0.14850    0.44710    0.66210    1.000
    N111     N        0.14290    0.45080    0.53190    1.000
    N112     N        0.37110    0.44150    0.53130    1.000
    O7       O        0.04190    0.44170    0.98401    1.000
    K8       K        0.93897    0.86490    0.48398    1.000
    Pr15     Pr       0.75605    0.94189    0.93212    1.000
    Pr16     Pr       0.75695    0.93105    0.25993    1.000
    Pt29     Pt       0.74695    0.93565    0.09633    1.000
    Pt30     Pt       0.50799    0.93836    0.84466    1.000
    Pt31     Pt       0.99919    0.93633    0.83944    1.000
    Pt32     Pt       0.25521    0.94233    0.09485    1.000
    C113     C        0.84840    0.93700    0.09870    1.000
    C114     C        0.75230    0.93810    0.03940    1.000
    C115     C        0.64550    0.93690    0.09290    1.000
    C116     C        0.74060    0.93190    0.15370    1.000
    C117     C        0.45900    0.93730    0.89520    1.000
    C118     C        0.41860    0.93310    0.81680    1.000
    C119     C        0.55430    0.93900    0.79330    1.000
    C120     C        0.59770    0.94450    0.87210    1.000
    C121     C        0.91390    0.93720    0.87100    1.000
    C122     C        0.94080    0.93550    0.79350    1.000
    C123     C        0.08180    0.93400    0.80700    1.000
    C124     C        0.05480    0.93790    0.88790    1.000
    C125     C        0.32850    0.93960    0.13420    1.000
    C126     C        0.18500    0.94460    0.13740    1.000
    C127     C        0.18290    0.94680    0.05550    1.000
    C128     C        0.32770    0.94110    0.05300    1.000
    N113     N        0.90690    0.94160    0.10020    1.000
    N114     N        0.75330    0.93940    0.00638    1.000
    N115     N        0.58710    0.93640    0.09080    1.000
    N116     N        0.73830    0.92890    0.18625    1.000
    N117     N        0.42980    0.93690    0.92290    1.000
    N118     N        0.36920    0.93220    0.79993    1.000
    N119     N        0.57650    0.93970    0.76300    1.000
    N120     N        0.64880    0.94810    0.88749    1.000
    N121     N        0.86460    0.93660    0.88850    1.000
    N122     N        0.90720    0.93450    0.76630    1.000
    N123     N        0.12900    0.93190    0.78720    1.000
    N124     N        0.08600    0.93700    0.91510    1.000
    N125     N        0.36690    0.93850    0.15750    1.000
    N126     N        0.14850    0.94710    0.16210    1.000
    N127     N        0.14290    0.95080    0.03190    1.000
    N128     N        0.37110    0.94150    0.03130    1.000
    O8       O        0.04190    0.94170    0.48401    1.000
    K9       K        0.81103    0.61490    0.73398    1.000
    Pr17     Pr       0.99395    0.69189    0.18212    1.000
    Pr18     Pr       0.99305    0.68105    0.50993    1.000
    Pt33     Pt       0.00305    0.68565    0.34633    1.000
    Pt34     Pt       0.24201    0.68836    0.09466    1.000
    Pt35     Pt       0.75081    0.68633    0.08944    1.000
    Pt36     Pt       0.49479    0.69233    0.34485    1.000
    C129     C        0.90160    0.68700    0.34870    1.000
    C130     C        0.99770    0.68810    0.28940    1.000
    C131     C        0.10450    0.68690    0.34290    1.000
    C132     C        0.00940    0.68190    0.40370    1.000
    C133     C        0.29100    0.68730    0.14520    1.000
    C134     C        0.33140    0.68310    0.06680    1.000
    C135     C        0.19570    0.68900    0.04330    1.000
    C136     C        0.15230    0.69450    0.12210    1.000
    C137     C        0.83610    0.68720    0.12100    1.000
    C138     C        0.80920    0.68550    0.04350    1.000
    C139     C        0.66820    0.68400    0.05700    1.000
    C140     C        0.69520    0.68790    0.13790    1.000
    C141     C        0.42150    0.68960    0.38420    1.000
    C142     C        0.56500    0.69460    0.38740    1.000
    C143     C        0.56710    0.69680    0.30550    1.000
    C144     C        0.42230    0.69110    0.30300    1.000
    N129     N        0.84310    0.69160    0.35020    1.000
    N130     N        0.99670    0.68940    0.25638    1.000
    N131     N        0.16290    0.68640    0.34080    1.000
    N132     N        0.01170    0.67890    0.43625    1.000
    N133     N        0.32020    0.68690    0.17290    1.000
    N134     N        0.38080    0.68220    0.04993    1.000
    N135     N        0.17350    0.68970    0.01300    1.000
    N136     N        0.10120    0.69810    0.13749    1.000
    N137     N        0.88540    0.68660    0.13850    1.000
    N138     N        0.84280    0.68450    0.01630    1.000
    N139     N        0.62100    0.68190    0.03720    1.000
    N140     N        0.66400    0.68700    0.16510    1.000
    N141     N        0.38310    0.68850    0.40750    1.000
    N142     N        0.60150    0.69710    0.41210    1.000
    N143     N        0.60710    0.70080    0.28190    1.000
    N144     N        0.37890    0.69150    0.28130    1.000
    O9       O        0.70810    0.69170    0.73401    1.000
    K10      K        0.81103    0.11490    0.23398    1.000
    Pr19     Pr       0.99395    0.19189    0.68212    1.000
    Pr20     Pr       0.99305    0.18105    0.00993    1.000
    Pt37     Pt       0.00305    0.18565    0.84633    1.000
    Pt38     Pt       0.24201    0.18836    0.59466    1.000
    Pt39     Pt       0.75081    0.18633    0.58944    1.000
    Pt40     Pt       0.49479    0.19233    0.84485    1.000
    C145     C        0.90160    0.18700    0.84870    1.000
    C146     C        0.99770    0.18810    0.78940    1.000
    C147     C        0.10450    0.18690    0.84290    1.000
    C148     C        0.00940    0.18190    0.90370    1.000
    C149     C        0.29100    0.18730    0.64520    1.000
    C150     C        0.33140    0.18310    0.56680    1.000
    C151     C        0.19570    0.18900    0.54330    1.000
    C152     C        0.15230    0.19450    0.62210    1.000
    C153     C        0.83610    0.18720    0.62100    1.000
    C154     C        0.80920    0.18550    0.54350    1.000
    C155     C        0.66820    0.18400    0.55700    1.000
    C156     C        0.69520    0.18790    0.63790    1.000
    C157     C        0.42150    0.18960    0.88420    1.000
    C158     C        0.56500    0.19460    0.88740    1.000
    C159     C        0.56710    0.19680    0.80550    1.000
    C160     C        0.42230    0.19110    0.80300    1.000
    N145     N        0.84310    0.19160    0.85020    1.000
    N146     N        0.99670    0.18940    0.75638    1.000
    N147     N        0.16290    0.18640    0.84080    1.000
    N148     N        0.01170    0.17890    0.93625    1.000
    N149     N        0.32020    0.18690    0.67290    1.000
    N150     N        0.38080    0.18220    0.54993    1.000
    N151     N        0.17350    0.18970    0.51300    1.000
    N152     N        0.10120    0.19810    0.63749    1.000
    N153     N        0.88540    0.18660    0.63850    1.000
    N154     N        0.84280    0.18450    0.51630    1.000
    N155     N        0.62100    0.18190    0.53720    1.000
    N156     N        0.66400    0.18700    0.66510    1.000
    N157     N        0.38310    0.18850    0.90750    1.000
    N158     N        0.60150    0.19710    0.91210    1.000
    N159     N        0.60710    0.20080    0.78190    1.000
    N160     N        0.37890    0.19150    0.78130    1.000
    O10      O        0.70810    0.19170    0.23401    1.000
    K11      K        0.31103    0.61490    0.23398    1.000
    Pr21     Pr       0.49395    0.69189    0.68212    1.000
    Pr22     Pr       0.49305    0.68105    0.00993    1.000
    Pt41     Pt       0.50305    0.68565    0.84633    1.000
    Pt42     Pt       0.74201    0.68836    0.59466    1.000
    Pt43     Pt       0.25081    0.68633    0.58944    1.000
    Pt44     Pt       0.99479    0.69233    0.84485    1.000
    C161     C        0.40160    0.68700    0.84870    1.000
    C162     C        0.49770    0.68810    0.78940    1.000
    C163     C        0.60450    0.68690    0.84290    1.000
    C164     C        0.50940    0.68190    0.90370    1.000
    C165     C        0.79100    0.68730    0.64520    1.000
    C166     C        0.83140    0.68310    0.56680    1.000
    C167     C        0.69570    0.68900    0.54330    1.000
    C168     C        0.65230    0.69450    0.62210    1.000
    C169     C        0.33610    0.68720    0.62100    1.000
    C170     C        0.30920    0.68550    0.54350    1.000
    C171     C        0.16820    0.68400    0.55700    1.000
    C172     C        0.19520    0.68790    0.63790    1.000
    C173     C        0.92150    0.68960    0.88420    1.000
    C174     C        0.06500    0.69460    0.88740    1.000
    C175     C        0.06710    0.69680    0.80550    1.000
    C176     C        0.92230    0.69110    0.80300    1.000
    N161     N        0.34310    0.69160    0.85020    1.000
    N162     N        0.49670    0.68940    0.75638    1.000
    N163     N        0.66290    0.68640    0.84080    1.000
    N164     N        0.51170    0.67890    0.93625    1.000
    N165     N        0.82020    0.68690    0.67290    1.000
    N166     N        0.88080    0.68220    0.54993    1.000
    N167     N        0.67350    0.68970    0.51300    1.000
    N168     N        0.60120    0.69810    0.63749    1.000
    N169     N        0.38540    0.68660    0.63850    1.000
    N170     N        0.34280    0.68450    0.51630    1.000
    N171     N        0.12100    0.68190    0.53720    1.000
    N172     N        0.16400    0.68700    0.66510    1.000
    N173     N        0.88310    0.68850    0.90750    1.000
    N174     N        0.10150    0.69710    0.91210    1.000
    N175     N        0.10710    0.70080    0.78190    1.000
    N176     N        0.87890    0.69150    0.78130    1.000
    O11      O        0.20810    0.69170    0.23401    1.000
    K12      K        0.31103    0.11490    0.73398    1.000
    Pr23     Pr       0.49395    0.19189    0.18212    1.000
    Pr24     Pr       0.49305    0.18105    0.50993    1.000
    Pt45     Pt       0.50305    0.18565    0.34633    1.000
    Pt46     Pt       0.74201    0.18836    0.09466    1.000
    Pt47     Pt       0.25081    0.18633    0.08944    1.000
    Pt48     Pt       0.99479    0.19233    0.34485    1.000
    C177     C        0.40160    0.18700    0.34870    1.000
    C178     C        0.49770    0.18810    0.28940    1.000
    C179     C        0.60450    0.18690    0.34290    1.000
    C180     C        0.50940    0.18190    0.40370    1.000
    C181     C        0.79100    0.18730    0.14520    1.000
    C182     C        0.83140    0.18310    0.06680    1.000
    C183     C        0.69570    0.18900    0.04330    1.000
    C184     C        0.65230    0.19450    0.12210    1.000
    C185     C        0.33610    0.18720    0.12100    1.000
    C186     C        0.30920    0.18550    0.04350    1.000
    C187     C        0.16820    0.18400    0.05700    1.000
    C188     C        0.19520    0.18790    0.13790    1.000
    C189     C        0.92150    0.18960    0.38420    1.000
    C190     C        0.06500    0.19460    0.38740    1.000
    C191     C        0.06710    0.19680    0.30550    1.000
    C192     C        0.92230    0.19110    0.30300    1.000
    N177     N        0.34310    0.19160    0.35020    1.000
    N178     N        0.49670    0.18940    0.25638    1.000
    N179     N        0.66290    0.18640    0.34080    1.000
    N180     N        0.51170    0.17890    0.43625    1.000
    N181     N        0.82020    0.18690    0.17290    1.000
    N182     N        0.88080    0.18220    0.04993    1.000
    N183     N        0.67350    0.18970    0.01300    1.000
    N184     N        0.60120    0.19810    0.13749    1.000
    N185     N        0.38540    0.18660    0.13850    1.000
    N186     N        0.34280    0.18450    0.01630    1.000
    N187     N        0.12100    0.18190    0.03720    1.000
    N188     N        0.16400    0.18700    0.16510    1.000
    N189     N        0.88310    0.18850    0.40750    1.000
    N190     N        0.10150    0.19710    0.41210    1.000
    N191     N        0.10710    0.20080    0.28190    1.000
    N192     N        0.87890    0.19150    0.28130    1.000
    O12      O        0.20810    0.19170    0.73401    1.000
    K13      K        0.68897    0.88510    0.73398    1.000
    Pr25     Pr       0.50605    0.80811    0.18212    1.000
    Pr26     Pr       0.50695    0.81895    0.50993    1.000
    Pt49     Pt       0.49695    0.81435    0.34633    1.000
    Pt50     Pt       0.25799    0.81164    0.09466    1.000
    Pt51     Pt       0.74919    0.81367    0.08944    1.000
    Pt52     Pt       0.00521    0.80767    0.34485    1.000
    C193     C        0.59840    0.81300    0.34870    1.000
    C194     C        0.50230    0.81190    0.28940    1.000
    C195     C        0.39550    0.81310    0.34290    1.000
    C196     C        0.49060    0.81810    0.40370    1.000
    C197     C        0.20900    0.81270    0.14520    1.000
    C198     C        0.16860    0.81690    0.06680    1.000
    C199     C        0.30430    0.81100    0.04330    1.000
    C200     C        0.34770    0.80550    0.12210    1.000
    C201     C        0.66390    0.81280    0.12100    1.000
    C202     C        0.69080    0.81450    0.04350    1.000
    C203     C        0.83180    0.81600    0.05700    1.000
    C204     C        0.80480    0.81210    0.13790    1.000
    C205     C        0.07850    0.81040    0.38420    1.000
    C206     C        0.93500    0.80540    0.38740    1.000
    C207     C        0.93290    0.80320    0.30550    1.000
    C208     C        0.07770    0.80890    0.30300    1.000
    N193     N        0.65690    0.80840    0.35020    1.000
    N194     N        0.50330    0.81060    0.25638    1.000
    N195     N        0.33710    0.81360    0.34080    1.000
    N196     N        0.48830    0.82110    0.43625    1.000
    N197     N        0.17980    0.81310    0.17290    1.000
    N198     N        0.11920    0.81780    0.04993    1.000
    N199     N        0.32650    0.81030    0.01300    1.000
    N200     N        0.39880    0.80190    0.13749    1.000
    N201     N        0.61460    0.81340    0.13850    1.000
    N202     N        0.65720    0.81550    0.01630    1.000
    N203     N        0.87900    0.81810    0.03720    1.000
    N204     N        0.83600    0.81300    0.16510    1.000
    N205     N        0.11690    0.81150    0.40750    1.000
    N206     N        0.89850    0.80290    0.41210    1.000
    N207     N        0.89290    0.79920    0.28190    1.000
    N208     N        0.12110    0.80850    0.28130    1.000
    O13      O        0.79190    0.80830    0.73401    1.000
    K14      K        0.68897    0.38510    0.23398    1.000
    Pr27     Pr       0.50605    0.30811    0.68212    1.000
    Pr28     Pr       0.50695    0.31895    0.00993    1.000
    Pt53     Pt       0.49695    0.31435    0.84633    1.000
    Pt54     Pt       0.25799    0.31164    0.59466    1.000
    Pt55     Pt       0.74919    0.31367    0.58944    1.000
    Pt56     Pt       0.00521    0.30767    0.84485    1.000
    C209     C        0.59840    0.31300    0.84870    1.000
    C210     C        0.50230    0.31190    0.78940    1.000
    C211     C        0.39550    0.31310    0.84290    1.000
    C212     C        0.49060    0.31810    0.90370    1.000
    C213     C        0.20900    0.31270    0.64520    1.000
    C214     C        0.16860    0.31690    0.56680    1.000
    C215     C        0.30430    0.31100    0.54330    1.000
    C216     C        0.34770    0.30550    0.62210    1.000
    C217     C        0.66390    0.31280    0.62100    1.000
    C218     C        0.69080    0.31450    0.54350    1.000
    C219     C        0.83180    0.31600    0.55700    1.000
    C220     C        0.80480    0.31210    0.63790    1.000
    C221     C        0.07850    0.31040    0.88420    1.000
    C222     C        0.93500    0.30540    0.88740    1.000
    C223     C        0.93290    0.30320    0.80550    1.000
    C224     C        0.07770    0.30890    0.80300    1.000
    N209     N        0.65690    0.30840    0.85020    1.000
    N210     N        0.50330    0.31060    0.75638    1.000
    N211     N        0.33710    0.31360    0.84080    1.000
    N212     N        0.48830    0.32110    0.93625    1.000
    N213     N        0.17980    0.31310    0.67290    1.000
    N214     N        0.11920    0.31780    0.54993    1.000
    N215     N        0.32650    0.31030    0.51300    1.000
    N216     N        0.39880    0.30190    0.63749    1.000
    N217     N        0.61460    0.31340    0.63850    1.000
    N218     N        0.65720    0.31550    0.51630    1.000
    N219     N        0.87900    0.31810    0.53720    1.000
    N220     N        0.83600    0.31300    0.66510    1.000
    N221     N        0.11690    0.31150    0.90750    1.000
    N222     N        0.89850    0.30290    0.91210    1.000
    N223     N        0.89290    0.29920    0.78190    1.000
    N224     N        0.12110    0.30850    0.78130    1.000
    O14      O        0.79190    0.30830    0.23401    1.000
    K15      K        0.18897    0.88510    0.23398    1.000
    Pr29     Pr       0.00605    0.80811    0.68212    1.000
    Pr30     Pr       0.00695    0.81895    0.00993    1.000
    Pt57     Pt       0.99695    0.81435    0.84633    1.000
    Pt58     Pt       0.75799    0.81164    0.59466    1.000
    Pt59     Pt       0.24919    0.81367    0.58944    1.000
    Pt60     Pt       0.50521    0.80767    0.84485    1.000
    C225     C        0.09840    0.81300    0.84870    1.000
    C226     C        0.00230    0.81190    0.78940    1.000
    C227     C        0.89550    0.81310    0.84290    1.000
    C228     C        0.99060    0.81810    0.90370    1.000
    C229     C        0.70900    0.81270    0.64520    1.000
    C230     C        0.66860    0.81690    0.56680    1.000
    C231     C        0.80430    0.81100    0.54330    1.000
    C232     C        0.84770    0.80550    0.62210    1.000
    C233     C        0.16390    0.81280    0.62100    1.000
    C234     C        0.19080    0.81450    0.54350    1.000
    C235     C        0.33180    0.81600    0.55700    1.000
    C236     C        0.30480    0.81210    0.63790    1.000
    C237     C        0.57850    0.81040    0.88420    1.000
    C238     C        0.43500    0.80540    0.88740    1.000
    C239     C        0.43290    0.80320    0.80550    1.000
    C240     C        0.57770    0.80890    0.80300    1.000
    N225     N        0.15690    0.80840    0.85020    1.000
    N226     N        0.00330    0.81060    0.75638    1.000
    N227     N        0.83710    0.81360    0.84080    1.000
    N228     N        0.98830    0.82110    0.93625    1.000
    N229     N        0.67980    0.81310    0.67290    1.000
    N230     N        0.61920    0.81780    0.54993    1.000
    N231     N        0.82650    0.81030    0.51300    1.000
    N232     N        0.89880    0.80190    0.63749    1.000
    N233     N        0.11460    0.81340    0.63850    1.000
    N234     N        0.15720    0.81550    0.51630    1.000
    N235     N        0.37900    0.81810    0.53720    1.000
    N236     N        0.33600    0.81300    0.66510    1.000
    N237     N        0.61690    0.81150    0.90750    1.000
    N238     N        0.39850    0.80290    0.91210    1.000
    N239     N        0.39290    0.79920    0.78190    1.000
    N240     N        0.62110    0.80850    0.78130    1.000
    O15      O        0.29190    0.80830    0.23401    1.000
    K16      K        0.18897    0.38510    0.73398    1.000
    Pr31     Pr       0.00605    0.30811    0.18212    1.000
    Pr32     Pr       0.00695    0.31895    0.50993    1.000
    Pt61     Pt       0.99695    0.31435    0.34633    1.000
    Pt62     Pt       0.75799    0.31164    0.09466    1.000
    Pt63     Pt       0.24919    0.31367    0.08944    1.000
    Pt64     Pt       0.50521    0.30767    0.34485    1.000
    C241     C        0.09840    0.31300    0.34870    1.000
    C242     C        0.00230    0.31190    0.28940    1.000
    C243     C        0.89550    0.31310    0.34290    1.000
    C244     C        0.99060    0.31810    0.40370    1.000
    C245     C        0.70900    0.31270    0.14520    1.000
    C246     C        0.66860    0.31690    0.06680    1.000
    C247     C        0.80430    0.31100    0.04330    1.000
    C248     C        0.84770    0.30550    0.12210    1.000
    C249     C        0.16390    0.31280    0.12100    1.000
    C250     C        0.19080    0.31450    0.04350    1.000
    C251     C        0.33180    0.31600    0.05700    1.000
    C252     C        0.30480    0.31210    0.13790    1.000
    C253     C        0.57850    0.31040    0.38420    1.000
    C254     C        0.43500    0.30540    0.38740    1.000
    C255     C        0.43290    0.30320    0.30550    1.000
    C256     C        0.57770    0.30890    0.30300    1.000
    N241     N        0.15690    0.30840    0.35020    1.000
    N242     N        0.00330    0.31060    0.25638    1.000
    N243     N        0.83710    0.31360    0.34080    1.000
    N244     N        0.98830    0.32110    0.43625    1.000
    N245     N        0.67980    0.31310    0.17290    1.000
    N246     N        0.61920    0.31780    0.04993    1.000
    N247     N        0.82650    0.31030    0.01300    1.000
    N248     N        0.89880    0.30190    0.13749    1.000
    N249     N        0.11460    0.31340    0.13850    1.000
    N250     N        0.15720    0.31550    0.01630    1.000
    N251     N        0.37900    0.31810    0.03720    1.000
    N252     N        0.33600    0.31300    0.16510    1.000
    N253     N        0.61690    0.31150    0.40750    1.000
    N254     N        0.39850    0.30290    0.41210    1.000
    N255     N        0.39290    0.29920    0.28190    1.000
    N256     N        0.62110    0.30850    0.28130    1.000
    O16      O        0.29190    0.30830    0.73401    1.000
    K17      K        0.50000    0.50000    0.14427    1.000
    K18      K        0.50000    0.50000    0.54530    1.000
    K19      K        0.50000    0.00000    0.64427    1.000
    K20      K        0.50000    0.00000    0.04530    1.000
    K21      K        0.00000    0.50000    0.64427    1.000
    K22      K        0.00000    0.50000    0.04530    1.000
    K23      K        0.00000    0.00000    0.14427    1.000
    K24      K        0.00000    0.00000    0.54530    1.000
    K25      K        0.75000    0.75000    0.39427    1.000
    K26      K        0.75000    0.75000    0.79530    1.000
    K27      K        0.75000    0.25000    0.89427    1.000
    K28      K        0.75000    0.25000    0.29530    1.000
    K29      K        0.25000    0.75000    0.89427    1.000
    K30      K        0.25000    0.75000    0.29530    1.000
    K31      K        0.25000    0.25000    0.39427    1.000
    K32      K        0.25000    0.25000    0.79530    1.000
