# CIF file generated by openbabel 3.1.0, see https://openbabel.org
data_I
_chemical_name_common 'image0'
_cell_length_a 21.2895
_cell_length_b 14.5585
_cell_length_c 8.1066
_cell_angle_alpha 90
_cell_angle_beta 84.173
_cell_angle_gamma 90
_space_group_name_H-M_alt 'P 1'
_space_group_name_Hall 'P 1'
loop_
    _symmetry_equiv_pos_as_xyz
    x,y,z
loop_
    _atom_site_label
    _atom_site_type_symbol
    _atom_site_fract_x
    _atom_site_fract_y
    _atom_site_fract_z
    _atom_site_occupancy
    Zr1      Zr       0.57851    0.61912    0.04052    1.000
    O1       O        0.51662    0.62830    0.83320    1.000
    O2       O        0.61125    0.59852    0.60310    1.000
    O3       O        0.55225    0.76629    0.01290    1.000
    O4       O        0.64326    0.65660    0.83440    1.000
    O5       O        0.67366    0.57536    0.09680    1.000
    C1       C        0.64462    0.64903    0.67904    1.000
    C2       C        0.69773    0.70101    0.58423    1.000
    C3       C        0.72860    0.77244    0.66249    1.000
    N1       N        0.72018    0.67907    0.42030    1.000
    C4       C        0.54239    0.95320    0.09180    1.000
    Zr2      Zr       0.07851    0.11912    0.04052    1.000
    O6       O        0.01662    0.12830    0.83320    1.000
    O7       O        0.11125    0.09852    0.60310    1.000
    O8       O        0.05225    0.26629    0.01290    1.000
    O9       O        0.14326    0.15660    0.83440    1.000
    O10      O        0.17366    0.07536    0.09680    1.000
    C5       C        0.14462    0.14903    0.67904    1.000
    C6       C        0.19773    0.20101    0.58423    1.000
    C7       C        0.22860    0.27244    0.66249    1.000
    N2       N        0.22018    0.17907    0.42030    1.000
    C8       C        0.04239    0.45320    0.09180    1.000
    Zr3      Zr       0.42149    0.61912    0.95948    1.000
    O11      O        0.48338    0.62830    0.16680    1.000
    O12      O        0.38875    0.59852    0.39690    1.000
    O13      O        0.44775    0.76629    0.98710    1.000
    O14      O        0.35674    0.65660    0.16560    1.000
    O15      O        0.32634    0.57536    0.90320    1.000
    C9       C        0.35538    0.64903    0.32096    1.000
    C10      C        0.30227    0.70101    0.41577    1.000
    C11      C        0.27140    0.77244    0.33751    1.000
    N3       N        0.27982    0.67907    0.57970    1.000
    C12      C        0.45761    0.95320    0.90820    1.000
    Zr4      Zr       0.92149    0.11912    0.95948    1.000
    O16      O        0.98338    0.12830    0.16680    1.000
    O17      O        0.88875    0.09852    0.39690    1.000
    O18      O        0.94775    0.26629    0.98710    1.000
    O19      O        0.85674    0.15660    0.16560    1.000
    O20      O        0.82634    0.07536    0.90320    1.000
    C13      C        0.85538    0.14903    0.32096    1.000
    C14      C        0.80227    0.20101    0.41577    1.000
    C15      C        0.77140    0.27244    0.33751    1.000
    N4       N        0.77982    0.17907    0.57970    1.000
    C16      C        0.95761    0.45320    0.90820    1.000
    Zr5      Zr       0.42149    0.38088    0.95948    1.000
    O21      O        0.48338    0.37170    0.16680    1.000
    O22      O        0.38875    0.40148    0.39690    1.000
    O23      O        0.44775    0.23371    0.98710    1.000
    O24      O        0.35674    0.34340    0.16560    1.000
    O25      O        0.32634    0.42464    0.90320    1.000
    C17      C        0.35538    0.35097    0.32096    1.000
    C18      C        0.30227    0.29899    0.41577    1.000
    C19      C        0.27140    0.22756    0.33751    1.000
    N5       N        0.27982    0.32093    0.57970    1.000
    C20      C        0.45761    0.04680    0.90820    1.000
    Zr6      Zr       0.92149    0.88088    0.95948    1.000
    O26      O        0.98338    0.87170    0.16680    1.000
    O27      O        0.88875    0.90148    0.39690    1.000
    O28      O        0.94775    0.73371    0.98710    1.000
    O29      O        0.85674    0.84340    0.16560    1.000
    O30      O        0.82634    0.92464    0.90320    1.000
    C21      C        0.85538    0.85097    0.32096    1.000
    C22      C        0.80227    0.79899    0.41577    1.000
    C23      C        0.77140    0.72756    0.33751    1.000
    N6       N        0.77982    0.82093    0.57970    1.000
    C24      C        0.95761    0.54680    0.90820    1.000
    Zr7      Zr       0.57851    0.38088    0.04052    1.000
    O31      O        0.51662    0.37170    0.83320    1.000
    O32      O        0.61125    0.40148    0.60310    1.000
    O33      O        0.55225    0.23371    0.01290    1.000
    O34      O        0.64326    0.34340    0.83440    1.000
    O35      O        0.67366    0.42464    0.09680    1.000
    C25      C        0.64462    0.35097    0.67904    1.000
    C26      C        0.69773    0.29899    0.58423    1.000
    C27      C        0.72860    0.22756    0.66249    1.000
    N7       N        0.72018    0.32093    0.42030    1.000
    C28      C        0.54239    0.04680    0.09180    1.000
    Zr8      Zr       0.07851    0.88088    0.04052    1.000
    O36      O        0.01662    0.87170    0.83320    1.000
    O37      O        0.11125    0.90148    0.60310    1.000
    O38      O        0.05225    0.73371    0.01290    1.000
    O39      O        0.14326    0.84340    0.83440    1.000
    O40      O        0.17366    0.92464    0.09680    1.000
    C29      C        0.14462    0.85097    0.67904    1.000
    C30      C        0.19773    0.79899    0.58423    1.000
    C31      C        0.22860    0.72756    0.66249    1.000
    N8       N        0.22018    0.82093    0.42030    1.000
    C32      C        0.04239    0.54680    0.09180    1.000
    Zr9      Zr       0.46334    0.50000    0.30676    1.000
    O41      O        0.55665    0.50000    0.18580    1.000
    O42      O        0.60300    0.50000    0.88430    1.000
    C33      C        0.70510    0.50000    0.10580    1.000
    Zr10     Zr       0.96334    0.00000    0.30676    1.000
    O43      O        0.05665    0.00000    0.18580    1.000
    O44      O        0.10300    0.00000    0.88430    1.000
    C34      C        0.20510    0.00000    0.10580    1.000
    Zr11     Zr       0.53666    0.50000    0.69324    1.000
    O45      O        0.44335    0.50000    0.81420    1.000
    O46      O        0.39700    0.50000    0.11570    1.000
    C35      C        0.29490    0.50000    0.89420    1.000
    Zr12     Zr       0.03666    0.00000    0.69324    1.000
    O47      O        0.94335    0.00000    0.81420    1.000
    O48      O        0.89700    0.00000    0.11570    1.000
    C36      C        0.79490    0.00000    0.89420    1.000
    O49      O        0.50000    0.57830    0.50000    1.000
    O50      O        0.00000    0.07830    0.50000    1.000
    O51      O        0.50000    0.42170    0.50000    1.000
    O52      O        0.00000    0.92170    0.50000    1.000
    C37      C        0.50000    0.80360    0.00000    1.000
    C38      C        0.50000    0.91160    0.00000    1.000
    C39      C        0.00000    0.30360    0.00000    1.000
    C40      C        0.00000    0.41160    0.00000    1.000
    C41      C        0.50000    0.19640    0.00000    1.000
    C42      C        0.50000    0.08840    0.00000    1.000
    C43      C        0.00000    0.69640    0.00000    1.000
    C44      C        0.00000    0.58840    0.00000    1.000
