# CIF file generated by openbabel 3.1.0, see https://openbabel.org
data_I
_chemical_name_common 'OWETIU_clean'
_cell_length_a 15.616
_cell_length_b 17.365
_cell_length_c 19.962
_cell_angle_alpha 75.813
_cell_angle_beta 89.468
_cell_angle_gamma 76.036
_space_group_name_H-M_alt 'P 1'
_space_group_name_Hall 'P 1'
loop_
    _symmetry_equiv_pos_as_xyz
    x,y,z
loop_
    _atom_site_label
    _atom_site_type_symbol
    _atom_site_fract_x
    _atom_site_fract_y
    _atom_site_fract_z
    _atom_site_occupancy
    Ag1      Ag       0.27200    0.94895    0.08682    1.000
    Ag2      Ag       0.96592    0.57187    0.53632    1.000
    Ag3      Ag       0.40365    0.06047    0.03256    1.000
    Ag4      Ag       0.72800    0.05105    0.91318    1.000
    Ag5      Ag       0.03408    0.42813    0.46368    1.000
    Ag6      Ag       0.59635    0.93953    0.96744    1.000
    Ag7      Ag       0.00000    0.50000    0.00000    1.000
    Ag8      Ag       0.50000    0.50000    0.00000    1.000
    Ag9      Ag       0.00000    0.00000    0.00000    1.000
    P1       P        0.78210    0.85860    0.25087    1.000
    P2       P        0.66670    0.68470    0.23069    1.000
    P3       P        0.21790    0.14140    0.74913    1.000
    P4       P        0.33330    0.31530    0.76931    1.000
    H1       H        0.14970    0.88200    0.93280    1.000
    H2       H        0.32500    0.68470    0.92650    1.000
    H3       H        0.24070    0.75540    0.90370    1.000
    H4       H        0.34110    0.81190    0.94240    1.000
    H5       H        0.36430    0.74160    0.01120    1.000
    H6       H        0.21350    0.24080    0.21790    1.000
    H7       H        0.15180    0.24630    0.15460    1.000
    H8       H        0.41260    0.99520    0.20200    1.000
    H9       H        0.13320    0.85790    0.13100    1.000
    H10      H        0.49910    0.58890    0.83410    1.000
    H11      H        0.20100    0.13910    0.09140    1.000
    H12      H        0.52850    0.68600    0.98180    1.000
    H13      H        0.65980    0.67630    0.69840    1.000
    H14      H        0.63800    0.60060    0.74990    1.000
    H15      H        0.76100    0.62840    0.55260    1.000
    H16      H        0.05570    0.31480    0.96990    1.000
    H17      H        0.34240    0.58570    0.02810    1.000
    H18      H        0.28980    0.63980    0.07610    1.000
    H19      H        0.93370    0.23250    0.20830    1.000
    H20      H        0.93420    0.16860    0.16470    1.000
    H21      H        0.34330    0.09760    0.26180    1.000
    H22      H        0.09220    0.11410    0.18920    1.000
    H23      H        0.04320    0.10460    0.25810    1.000
    H24      H        0.07960    0.22740    0.26070    1.000
    H25      H        0.14640    0.14200    0.28730    1.000
    H26      H        0.59980    0.55420    0.66100    1.000
    H27      H        0.61280    0.63250    0.60760    1.000
    H28      H        0.52800    0.78180    0.86980    1.000
    H29      H        0.16440    0.69170    0.99400    1.000
    H30      H        0.20620    0.62870    0.94980    1.000
    H31      H        0.51220    0.72730    0.66310    1.000
    H32      H        0.48970    0.65120    0.71240    1.000
    H33      H        0.44050    0.76070    0.74730    1.000
    H34      H        0.53500    0.77540    0.74960    1.000
    H35      H        0.78390    0.46660    0.73530    1.000
    H36      H        0.96190    0.37390    0.13750    1.000
    H37      H        0.03000    0.19060    0.04760    1.000
    H38      H        0.91580    0.44510    0.67860    1.000
    H39      H        0.26600    0.76920    0.11440    1.000
    H40      H        0.85030    0.11800    0.06720    1.000
    H41      H        0.67500    0.31530    0.07350    1.000
    H42      H        0.75930    0.24460    0.09630    1.000
    H43      H        0.65890    0.18810    0.05760    1.000
    H44      H        0.63570    0.25840    0.98880    1.000
    H45      H        0.78650    0.75920    0.78210    1.000
    H46      H        0.84820    0.75370    0.84540    1.000
    H47      H        0.58740    0.00480    0.79800    1.000
    H48      H        0.86680    0.14210    0.86900    1.000
    H49      H        0.50090    0.41110    0.16590    1.000
    H50      H        0.79900    0.86090    0.90860    1.000
    H51      H        0.47150    0.31400    0.01820    1.000
    H52      H        0.34020    0.32370    0.30160    1.000
    H53      H        0.36200    0.39940    0.25010    1.000
    H54      H        0.23900    0.37160    0.44740    1.000
    H55      H        0.94430    0.68520    0.03010    1.000
    H56      H        0.65760    0.41430    0.97190    1.000
    H57      H        0.71020    0.36020    0.92390    1.000
    H58      H        0.06630    0.76750    0.79170    1.000
    H59      H        0.06580    0.83140    0.83530    1.000
    H60      H        0.65670    0.90240    0.73820    1.000
    H61      H        0.90780    0.88590    0.81080    1.000
    H62      H        0.95680    0.89540    0.74190    1.000
    H63      H        0.92040    0.77260    0.73930    1.000
    H64      H        0.85360    0.85800    0.71270    1.000
    H65      H        0.40020    0.44580    0.33900    1.000
    H66      H        0.38720    0.36750    0.39240    1.000
    H67      H        0.47200    0.21820    0.13020    1.000
    H68      H        0.83560    0.30830    0.00600    1.000
    H69      H        0.79380    0.37130    0.05020    1.000
    H70      H        0.48780    0.27270    0.33690    1.000
    H71      H        0.51030    0.34880    0.28760    1.000
    H72      H        0.55950    0.23930    0.25270    1.000
    H73      H        0.46500    0.22460    0.25040    1.000
    H74      H        0.21610    0.53340    0.26470    1.000
    H75      H        0.03810    0.62610    0.86250    1.000
    H76      H        0.97000    0.80940    0.95240    1.000
    H77      H        0.08420    0.55490    0.32140    1.000
    H78      H        0.73400    0.23080    0.88560    1.000
    W1       W        0.61713    0.49710    0.31305    1.000
    W2       W        0.90180    0.92986    0.36195    1.000
    W3       W        0.61863    0.65661    0.40576    1.000
    W4       W        0.81739    0.89535    0.07357    1.000
    W5       W        0.75627    0.06831    0.24075    1.000
    W6       W        0.82741    0.54478    0.35126    1.000
    W7       W        0.70966    0.73009    0.05310    1.000
    W8       W        0.62668    0.99710    0.12464    1.000
    W9       W        0.72954    0.81940    0.42547    1.000
    W10      W        0.58412    0.96060    0.30934    1.000
    W11      W        0.65483    0.53599    0.14235    1.000
    W12      W        0.93679    0.70985    0.36856    1.000
    W13      W        0.51892    0.83042    0.10510    1.000
    W14      W        0.86771    0.57639    0.18231    1.000
    W15      W        0.94709    0.96057    0.19339    1.000
    W16      W        0.47567    0.79714    0.28863    1.000
    W17      W        0.46634    0.63641    0.19691    1.000
    W18      W        0.97924    0.74036    0.19971    1.000
    W19      W        0.38287    0.50290    0.68695    1.000
    W20      W        0.09820    0.07014    0.63805    1.000
    W21      W        0.38137    0.34339    0.59424    1.000
    W22      W        0.18261    0.10465    0.92643    1.000
    W23      W        0.24373    0.93169    0.75925    1.000
    W24      W        0.17259    0.45522    0.64874    1.000
    W25      W        0.29034    0.26991    0.94690    1.000
    W26      W        0.37332    0.00290    0.87536    1.000
    W27      W        0.27046    0.18060    0.57453    1.000
    W28      W        0.41588    0.03940    0.69066    1.000
    W29      W        0.34517    0.46401    0.85765    1.000
    W30      W        0.06321    0.29015    0.63144    1.000
    W31      W        0.48108    0.16958    0.89490    1.000
    W32      W        0.13229    0.42361    0.81769    1.000
    W33      W        0.05291    0.03943    0.80661    1.000
    W34      W        0.52433    0.20286    0.71137    1.000
    W35      W        0.53366    0.36359    0.80309    1.000
    W36      W        0.02076    0.25964    0.80029    1.000
    C1       C        0.16560    0.87130    0.97950    1.000
    C2       C        0.27590    0.71900    0.94410    1.000
    C3       C        0.31720    0.77450    0.97740    1.000
    C4       C        0.18280    0.20980    0.19670    1.000
    C5       C        0.36210    0.03700    0.18590    1.000
    C6       C        0.16490    0.87200    0.08890    1.000
    C7       C        0.50920    0.62630    0.85740    1.000
    C8       C        0.24560    0.11680    0.12620    1.000
    C9       C        0.52430    0.67470    0.93900    1.000
    C10      C        0.62090    0.63940    0.70540    1.000
    C11      C        0.78020    0.58310    0.58980    1.000
    C12      C        0.03110    0.31180    0.01280    1.000
    C13      C        0.28440    0.60940    0.04220    1.000
    C14      C        0.96850    0.20250    0.17820    1.000
    C15      C        0.32400    0.09260    0.21950    1.000
    C16      C        0.05930    0.14440    0.22010    1.000
    C17      C        0.11480    0.18060    0.24630    1.000
    C18      C        0.63480    0.59440    0.65170    1.000
    C19      C        0.52320    0.72800    0.87670    1.000
    C20      C        0.21900    0.66190    0.97920    1.000
    C21      C        0.52740    0.68900    0.70810    1.000
    C22      C        0.50260    0.73310    0.75670    1.000
    C23      C        0.79100    0.49450    0.69040    1.000
    C24      C        0.97990    0.34430    0.10460    1.000
    C25      C        0.01890    0.24230    0.05620    1.000
    C26      C        0.86450    0.48480    0.66020    1.000
    C27      C        0.24120    0.82000    0.07910    1.000
    C28      C        0.83440    0.12870    0.02050    1.000
    C29      C        0.72410    0.28100    0.05590    1.000
    C30      C        0.68280    0.22550    0.02260    1.000
    C31      C        0.81720    0.79020    0.80330    1.000
    C32      C        0.63790    0.96300    0.81410    1.000
    C33      C        0.83510    0.12800    0.91110    1.000
    C34      C        0.49080    0.37370    0.14260    1.000
    C35      C        0.75440    0.88320    0.87380    1.000
    C36      C        0.47570    0.32530    0.06100    1.000
    C37      C        0.37910    0.36060    0.29460    1.000
    C38      C        0.21980    0.41690    0.41020    1.000
    C39      C        0.96890    0.68820    0.98720    1.000
    C40      C        0.71560    0.39060    0.95780    1.000
    C41      C        0.03150    0.79750    0.82180    1.000
    C42      C        0.67600    0.90740    0.78050    1.000
    C43      C        0.94070    0.85560    0.77990    1.000
    C44      C        0.88520    0.81940    0.75370    1.000
    C45      C        0.36520    0.40560    0.34830    1.000
    C46      C        0.47680    0.27200    0.12330    1.000
    C47      C        0.78100    0.33810    0.02080    1.000
    C48      C        0.47260    0.31100    0.29190    1.000
    C49      C        0.49740    0.26690    0.24330    1.000
    C50      C        0.20900    0.50550    0.30960    1.000
    C51      C        0.02010    0.65570    0.89540    1.000
    C52      C        0.98110    0.75770    0.94380    1.000
    C53      C        0.13550    0.51520    0.33980    1.000
    C54      C        0.75880    0.18000    0.92090    1.000
    N1       N        0.11840    0.90100    0.02450    1.000
    N2       N        0.24840    0.14260    0.17840    1.000
    N3       N        0.72320    0.55390    0.64580    1.000
    N4       N        0.51430    0.69110    0.82700    1.000
    N5       N        0.98750    0.26250    0.11440    1.000
    N6       N        0.51850    0.60570    0.92880    1.000
    N7       N        0.24350    0.82130    0.01180    1.000
    N8       N        0.00210    0.37560    0.04110    1.000
    N9       N        0.85750    0.53850    0.59950    1.000
    N10      N        0.31710    0.04990    0.12520    1.000
    N11      N        0.88160    0.09900    0.97550    1.000
    N12      N        0.75160    0.85740    0.82160    1.000
    N13      N        0.27680    0.44610    0.35420    1.000
    N14      N        0.48570    0.30890    0.17300    1.000
    N15      N        0.01250    0.73750    0.88560    1.000
    N16      N        0.48150    0.39430    0.07120    1.000
    N17      N        0.75650    0.17870    0.98820    1.000
    N18      N        0.99790    0.62440    0.95890    1.000
    N19      N        0.14250    0.46150    0.40050    1.000
    N20      N        0.68290    0.95010    0.87480    1.000
    O1       O        0.49680    0.54210    0.27160    1.000
    O2       O        0.52840    0.57090    0.13790    1.000
    O3       O        0.86130    0.06360    0.19230    1.000
    O4       O        0.49350    0.84400    0.19470    1.000
    O5       O        0.58860    0.57240    0.36840    1.000
    O6       O        0.66750    0.02650    0.29400    1.000
    O7       O        0.82800    0.73800    0.41050    1.000
    O8       O        0.62830    0.91220    0.40180    1.000
    O9       O        0.69610    0.05410    0.16370    1.000
    O10      O        0.88960    0.51170    0.27510    1.000
    O11      O        0.71580    0.98430    0.05620    1.000
    O12      O        0.73830    0.60510    0.39610    1.000
    O13      O        0.48230    0.73200    0.12780    1.000
    O14      O        0.64690    0.46160    0.23040    1.000
    O15      O        0.01570    0.69920    0.29580    1.000
    O16      O        0.89740    0.61750    0.35380    1.000
    O17      O        0.50200    0.72620    0.37830    1.000
    O18      O        0.93560    0.64620    0.20200    1.000
    O19      O        0.58020    0.91660    0.09880    1.000
    O20      O        0.81030    0.66530    0.10600    1.000
    O21      O        0.80550    0.89230    0.40610    1.000
    O22      O        0.77490    0.52810    0.17120    1.000
    O23      O        0.52870    0.87240    0.31510    1.000
    O24      O        0.74770    0.82430    0.05480    1.000
    O25      O        0.87460    0.95440    0.11760    1.000
    O26      O        0.97660    0.95390    0.28610    1.000
    O27      O        0.66160    0.63450    0.07990    1.000
    O28      O        0.82680    0.03690    0.32550    1.000
    O29      O        0.45290    0.70680    0.25750    1.000
    O30      O        0.00880    0.65560    0.43850    1.000
    O31      O        0.61830    0.61570    0.22370    1.000
    O32      O        0.65500    0.74780    0.41570    1.000
    O33      O        0.57640    0.97400    0.21130    1.000
    O34      O        0.85190    0.77740    0.26590    1.000
    O35      O        0.62320    0.72260    0.28700    1.000
    O36      O        0.71170    0.85670    0.30390    1.000
    O37      O        0.65440    0.74820    0.16060    1.000
    O38      O        0.74320    0.88200    0.17710    1.000
    O39      O        0.89940    0.79930    0.12180    1.000
    O40      O        0.76190    0.64280    0.24920    1.000
    O41      O        0.73630    0.49360    0.33090    1.000
    O42      O        0.94980    0.81440    0.36630    1.000
    O43      O        0.82660    0.92710    0.25790    1.000
    O44      O        0.98990    0.84620    0.20650    1.000
    O45      O        0.59040    0.79830    0.03450    1.000
    O46      O        0.50320    0.45790    0.72840    1.000
    O47      O        0.47160    0.42910    0.86210    1.000
    O48      O        0.13870    0.93640    0.80770    1.000
    O49      O        0.50650    0.15600    0.80530    1.000
    O50      O        0.41140    0.42760    0.63160    1.000
    O51      O        0.33250    0.97350    0.70600    1.000
    O52      O        0.17200    0.26200    0.58950    1.000
    O53      O        0.37170    0.08780    0.59820    1.000
    O54      O        0.30390    0.94590    0.83630    1.000
    O55      O        0.11040    0.48830    0.72490    1.000
    O56      O        0.28420    0.01570    0.94380    1.000
    O57      O        0.26170    0.39490    0.60390    1.000
    O58      O        0.51770    0.26800    0.87220    1.000
    O59      O        0.35310    0.53840    0.76960    1.000
    O60      O        0.98430    0.30080    0.70420    1.000
    O61      O        0.10260    0.38250    0.64620    1.000
    O62      O        0.49800    0.27380    0.62170    1.000
    O63      O        0.06440    0.35380    0.79800    1.000
    O64      O        0.41980    0.08340    0.90120    1.000
    O65      O        0.18970    0.33470    0.89400    1.000
    O66      O        0.19450    0.10770    0.59390    1.000
    O67      O        0.22510    0.47190    0.82880    1.000
    O68      O        0.47130    0.12760    0.68490    1.000
    O69      O        0.25230    0.17570    0.94520    1.000
    O70      O        0.12540    0.04560    0.88240    1.000
    O71      O        0.02340    0.04610    0.71390    1.000
    O72      O        0.33840    0.36550    0.92010    1.000
    O73      O        0.17320    0.96310    0.67450    1.000
    O74      O        0.54710    0.29320    0.74250    1.000
    O75      O        0.99120    0.34440    0.56150    1.000
    O76      O        0.38170    0.38430    0.77630    1.000
    O77      O        0.34500    0.25220    0.58430    1.000
    O78      O        0.42360    0.02600    0.78870    1.000
    O79      O        0.14810    0.22260    0.73410    1.000
    O80      O        0.37680    0.27740    0.71300    1.000
    O81      O        0.28830    0.14330    0.69610    1.000
    O82      O        0.34560    0.25180    0.83940    1.000
    O83      O        0.25680    0.11800    0.82290    1.000
    O84      O        0.10060    0.20070    0.87820    1.000
    O85      O        0.23810    0.35720    0.75080    1.000
    O86      O        0.26370    0.50640    0.66910    1.000
    O87      O        0.05020    0.18560    0.63370    1.000
    O88      O        0.17340    0.07290    0.74210    1.000
    O89      O        0.01010    0.15380    0.79350    1.000
    O90      O        0.40960    0.20170    0.96550    1.000
