data_functionalizedCrystal
_audit_creation_method	'EQeq! by Chris Wilmer'
_symmetry_space_group_name_H-M	'P1'
_symmetry_Int_Tables_number	1
_symmetry_cell_setting	triclinic
loop_
_symmetry_equiv_pos_as_xyz
  x,y,z
_cell_length_a	10.29
_cell_length_b	10.29
_cell_length_c	14.5
_cell_angle_alpha	90
_cell_angle_beta	90
_cell_angle_gamma	90
loop_
_atom_site_label
_atom_site_type_symbol
_atom_site_fract_x
_atom_site_fract_y
_atom_site_fract_z
_atom_site_charge
Mof_Y 	Y 	0.85085	0.14915	0.625	1.633
Mof_Y 	Y 	0.14915	0.85085	0.125	1.62
Mof_Y 	Y 	0.85085	0.85085	0.875	1.681
Mof_Y 	Y 	0.14915	0.14915	0.375	1.592
Mof_H 	H 	0.5585	0.0762	0.3768	-0.01
Mof_H 	H 	0.4415	0.9238	0.8768	-0.015
Mof_H 	H 	0.9238	0.5585	0.6268	-0.012
Mof_H 	H 	0.0762	0.4415	0.1268	-0.015
Mof_H 	H 	0.4415	0.0762	0.6232	-0.013
Mof_H 	H 	0.5585	0.9238	0.1232	-0.015
Mof_H 	H 	0.0762	0.5585	0.3732	-0.009
Mof_H 	H 	0.9238	0.4415	0.8732	-0.02
Mof_H 	H 	0.8997	0	0.25	-0.007
Mof_H 	H 	0.1003	0	0.75	-0.029
Mof_H 	H 	-5.57924e-33	0.8997	0.5	-0.007
Mof_H 	H 	-1.02762e-33	0.1003	-0	-0.031
Mof_C 	C 	0.6046	0.0449	0.3263	0.16
Mof_C 	C 	0.7392	0.0432	0.3276	-0.217
Mof_C 	C 	0.8162	0.0885	0.4098	0.475
Mof_C 	C 	0.3954	0.9551	0.8263	0.2
Mof_C 	C 	0.2608	0.9568	0.8276	-0.206
Mof_C 	C 	0.1838	0.9115	0.9098	0.485
Mof_C 	C 	0.9551	0.6046	0.5763	0.188
Mof_C 	C 	0.9568	0.7392	0.5776	-0.194
Mof_C 	C 	0.9115	0.8162	0.6598	0.479
Mof_C 	C 	0.0449	0.3954	0.0763	0.171
Mof_C 	C 	0.0432	0.2608	0.0776	-0.234
Mof_C 	C 	0.0885	0.1838	0.1598	0.48
Mof_C 	C 	0.3954	0.0449	0.6737	0.169
Mof_C 	C 	0.2608	0.0432	0.6724	-0.233
Mof_C 	C 	0.1838	0.0885	0.5902	0.481
Mof_C 	C 	0.6046	0.9551	0.1737	0.192
Mof_C 	C 	0.7392	0.9568	0.1724	-0.193
Mof_C 	C 	0.8162	0.9115	0.0902	0.479
Mof_C 	C 	0.0449	0.6046	0.4237	0.16
Mof_C 	C 	0.0432	0.7392	0.4224	-0.216
Mof_C 	C 	0.0885	0.8162	0.3402	0.474
Mof_C 	C 	0.9551	0.3954	0.9237	0.211
Mof_C 	C 	0.9568	0.2608	0.9224	-0.202
Mof_C 	C 	0.9115	0.1838	0.8402	0.485
Mof_C 	C 	0.5398	0	0.25	-0.255
Mof_C 	C 	0.3911	0	0.25	0.457
Mof_C 	C 	0.8093	0	0.25	0.114
Mof_C 	C 	0.4602	0	0.75	-0.263
Mof_C 	C 	0.6089	0	0.75	0.463
Mof_C 	C 	0.1907	0	0.75	0.123
Mof_C 	C 	1.08626e-32	0.5398	0.5	-0.251
Mof_C 	C 	1.08626e-32	0.3911	0.5	0.461
Mof_C 	C 	1.08626e-32	0.8093	0.5	0.117
Mof_C 	C 	4.11047e-33	0.4602	-0	-0.275
Mof_C 	C 	-0	0.6089	-0	0.452
Mof_C 	C 	-0	0.1907	-0	0.111
Mof_O 	O 	0.7585	0.0955	0.4864	-0.468
Mof_O 	O 	0.3362	0.0725	0.3076	-0.468
Mof_O 	O 	0.9335	0.1127	0.3997	-0.462
Mof_O 	O 	0.2415	0.9045	0.9864	-0.453
Mof_O 	O 	0.6638	0.9275	0.8076	-0.449
Mof_O 	O 	0.0665	0.8873	0.8997	-0.484
Mof_O 	O 	0.9045	0.7585	0.7364	-0.462
Mof_O 	O 	0.9275	0.3362	0.5576	-0.446
Mof_O 	O 	0.8873	0.9335	0.6497	-0.452
Mof_O 	O 	0.0955	0.2415	0.2364	-0.471
Mof_O 	O 	0.0725	0.6638	0.0576	-0.474
Mof_O 	O 	0.1127	0.0665	0.1497	-0.502
Mof_O 	O 	0.2415	0.0955	0.5136	-0.471
Mof_O 	O 	0.6638	0.0725	0.6924	-0.474
Mof_O 	O 	0.0665	0.1127	0.6003	-0.5
Mof_O 	O 	0.7585	0.9045	0.0136	-0.467
Mof_O 	O 	0.3362	0.9275	0.1924	-0.444
Mof_O 	O 	0.9335	0.8873	0.1003	-0.451
Mof_O 	O 	0.0955	0.7585	0.2636	-0.467
Mof_O 	O 	0.0725	0.3362	0.4424	-0.468
Mof_O 	O 	0.1127	0.9335	0.3503	-0.461
Mof_O 	O 	0.9045	0.2415	0.7636	-0.464
Mof_O 	O 	0.9275	0.6638	0.9424	-0.442
Mof_O 	O 	0.8873	0.0665	0.8503	-0.491
_end
