data_functionalizedCrystal
_audit_creation_method	'EQeq! by Chris Wilmer'
_symmetry_space_group_name_H-M	'P1'
_symmetry_Int_Tables_number	1
_symmetry_cell_setting	triclinic
loop_
_symmetry_equiv_pos_as_xyz
  x,y,z
_cell_length_a	14.2686
_cell_length_b	16.7326
_cell_length_c	7.0181
_cell_angle_alpha	90
_cell_angle_beta	90
_cell_angle_gamma	90
loop_
_atom_site_label
_atom_site_type_symbol
_atom_site_fract_x
_atom_site_fract_y
_atom_site_fract_z
_atom_site_charge
Mof_Sr	Sr	0.42725	0.5321	0.96686	1.544
Mof_F 	F 	0.48053	0.7449	0.6169	-0.376
Mof_F 	F 	0.37575	0.87751	0.6121	-0.337
Mof_F 	F 	0.12703	0.73259	0.3323	-0.328
Mof_F 	F 	0.23331	0.60104	0.3284	-0.36
Mof_O 	O 	0.44	0.5653	0.3119	-0.503
Mof_O 	O 	0.4483	0.5682	0.6257	-0.552
Mof_O 	O 	0.1719	0.9165	0.6315	-0.329
Mof_O 	O 	0.1605	0.90913	0.3164	-0.303
Mof_O 	O 	0.2118	0.714	0.9086	-0.055
Mof_O 	O 	0.2499	0.58832	0.8765	-0.149
Mof_O 	O 	0.3521	0.67343	0.9748	-0.226
Mof_N 	N 	0.2686	0.6591	0.9184	0.051
Mof_C 	C 	0.42	0.5943	0.469	0.571
Mof_C 	C 	0.3598	0.6691	0.4722	-0.262
Mof_C 	C 	0.3925	0.7404	0.546	0.324
Mof_C 	C 	0.3383	0.8089	0.5458	0.282
Mof_C 	C 	0.2474	0.8089	0.4757	-0.155
Mof_C 	C 	0.1877	0.8842	0.4756	0.423
Mof_C 	C 	0.2144	0.737	0.4013	0.294
Mof_C 	C 	0.2696	0.6687	0.4006	0.33
Mof_Sr	Sr	0.57275	0.4679	0.46686	1.769
Mof_F 	F 	0.51947	0.2551	0.1169	-0.353
Mof_F 	F 	0.62425	0.12249	0.1121	-0.316
Mof_F 	F 	0.87297	0.26741	0.8323	-0.368
Mof_F 	F 	0.76669	0.39896	0.8284	-0.404
Mof_O 	O 	0.56	0.4347	0.8119	-0.533
Mof_O 	O 	0.5517	0.4318	0.1257	-0.431
Mof_O 	O 	0.8281	0.0835	0.1315	-0.184
Mof_O 	O 	0.8395	0.09087	0.8164	-0.311
Mof_O 	O 	0.7882	0.286	0.4086	0.007
Mof_O 	O 	0.7501	0.41168	0.3765	-0.101
Mof_O 	O 	0.6479	0.32657	0.4748	-0.192
Mof_N 	N 	0.7314	0.3409	0.4184	0.052
Mof_C 	C 	0.58	0.4057	0.969	0.458
Mof_C 	C 	0.6402	0.3309	0.9722	-0.391
Mof_C 	C 	0.6075	0.2596	0.046	0.433
Mof_C 	C 	0.6617	0.1911	0.0458	0.382
Mof_C 	C 	0.7526	0.1911	0.9757	-0.266
Mof_C 	C 	0.8123	0.1158	0.9756	0.289
Mof_C 	C 	0.7856	0.263	0.9013	0.276
Mof_C 	C 	0.7304	0.3313	0.9006	0.316
Mof_Sr	Sr	0.92725	0.9679	0.96686	1.575
Mof_F 	F 	0.98053	0.7551	0.6169	-0.374
Mof_F 	F 	0.87575	0.62249	0.6121	-0.339
Mof_F 	F 	0.62703	0.76741	0.3323	-0.324
Mof_F 	F 	0.73331	0.89896	0.3284	-0.356
Mof_O 	O 	0.94	0.9347	0.3119	-0.495
Mof_O 	O 	0.9483	0.9318	0.6257	-0.545
Mof_O 	O 	0.6719	0.5835	0.6315	-0.335
Mof_O 	O 	0.6605	0.59087	0.3164	-0.308
Mof_O 	O 	0.7118	0.786	0.9086	-0.053
Mof_O 	O 	0.7499	0.91168	0.8765	-0.147
Mof_O 	O 	0.8521	0.82657	0.9748	-0.227
Mof_N 	N 	0.7686	0.8409	0.9184	0.051
Mof_C 	C 	0.92	0.9057	0.469	0.572
Mof_C 	C 	0.8598	0.8309	0.4722	-0.261
Mof_C 	C 	0.8925	0.7596	0.546	0.324
Mof_C 	C 	0.8383	0.6911	0.5458	0.282
Mof_C 	C 	0.7474	0.6911	0.4757	-0.155
Mof_C 	C 	0.6877	0.6158	0.4756	0.425
Mof_C 	C 	0.7144	0.763	0.4013	0.295
Mof_C 	C 	0.7696	0.8313	0.4006	0.331
Mof_Sr	Sr	0.07275	0.0321	0.46686	1.727
Mof_F 	F 	0.01947	0.2449	0.1169	-0.359
Mof_F 	F 	0.12425	0.37751	0.1121	-0.317
Mof_F 	F 	0.37297	0.23259	0.8323	-0.373
Mof_F 	F 	0.26669	0.10104	0.8284	-0.407
Mof_O 	O 	0.06	0.0653	0.8119	-0.54
Mof_O 	O 	0.0517	0.0682	0.1257	-0.444
Mof_O 	O 	0.3281	0.4165	0.1315	-0.182
Mof_O 	O 	0.3395	0.40913	0.8164	-0.31
Mof_O 	O 	0.2882	0.214	0.4086	0.003
Mof_O 	O 	0.2501	0.08832	0.3765	-0.105
Mof_O 	O 	0.1479	0.17343	0.4748	-0.191
Mof_N 	N 	0.2314	0.1591	0.4184	0.052
Mof_C 	C 	0.08	0.0943	0.969	0.462
Mof_C 	C 	0.1402	0.1691	0.9722	-0.39
Mof_C 	C 	0.1075	0.2404	0.046	0.429
Mof_C 	C 	0.1617	0.3089	0.0458	0.382
Mof_C 	C 	0.2526	0.3089	0.9757	-0.266
Mof_C 	C 	0.3123	0.3842	0.9756	0.286
Mof_C 	C 	0.2856	0.237	0.9013	0.275
Mof_C 	C 	0.2304	0.1687	0.9006	0.316
_end
