# CIF file generated by openbabel 3.1.0, see https://openbabel.org
data_I
_chemical_name_common 'CENPUI_clean'
_cell_length_a 8.4319
_cell_length_b 12.8251
_cell_length_c 20.924
_cell_angle_alpha 73.462
_cell_angle_beta 84.692
_cell_angle_gamma 78.307
_space_group_name_H-M_alt 'P 1'
_space_group_name_Hall 'P 1'
loop_
    _symmetry_equiv_pos_as_xyz
    x,y,z
loop_
    _atom_site_label
    _atom_site_type_symbol
    _atom_site_fract_x
    _atom_site_fract_y
    _atom_site_fract_z
    _atom_site_occupancy
    Mg1      Mg       0.43397    0.82994    0.00053    1.000
    Mg2      Mg       0.56603    0.17006    0.99947    1.000
    Mg3      Mg       0.00000    0.00000    0.00000    1.000
    H1       H        0.58430    0.04700    0.18770    1.000
    H2       H        0.35490    0.74630    0.30510    1.000
    H3       H        0.35110    0.80150    0.19070    1.000
    H4       H        0.16000    0.70600    0.74200    1.000
    H5       H        0.93080    0.52870    0.75010    1.000
    H6       H        0.60700    0.98410    0.30080    1.000
    H7       H        0.01540    0.79280    0.62900    1.000
    H8       H        0.65070    0.80330    0.76770    1.000
    H9       H        0.13400    0.16020    0.85370    1.000
    H10      H        0.48850    0.74820    0.70500    1.000
    H11      H        0.44860    0.41480    0.77140    1.000
    H12      H        0.30830    0.72570    0.82440    1.000
    H13      H        0.95160    0.96900    0.85860    1.000
    H14      H        0.62170    0.52140    0.70500    1.000
    H15      H        0.09970    0.55510    0.63810    1.000
    H16      H        0.30070    0.26580    0.78110    1.000
    H17      H        0.27090    0.66570    0.57290    1.000
    H18      H        0.57430    0.57730    0.50490    1.000
    H19      H        0.79850    0.94620    0.77890    1.000
    H20      H        0.76670    0.42460    0.82580    1.000
    H21      H        0.52850    0.88700    0.52330    1.000
    H22      H        0.85560    0.73380    0.56680    1.000
    H23      H        0.49610    0.95780    0.40970    1.000
    H24      H        0.53380    0.64870    0.39280    1.000
    H25      H        0.41570    0.95300    0.81230    1.000
    H26      H        0.64510    0.25370    0.69490    1.000
    H27      H        0.64890    0.19850    0.80930    1.000
    H28      H        0.84000    0.29400    0.25800    1.000
    H29      H        0.06920    0.47130    0.24990    1.000
    H30      H        0.39300    0.01590    0.69920    1.000
    H31      H        0.98460    0.20720    0.37100    1.000
    H32      H        0.34930    0.19670    0.23230    1.000
    H33      H        0.86600    0.83980    0.14630    1.000
    H34      H        0.51150    0.25180    0.29500    1.000
    H35      H        0.55140    0.58520    0.22860    1.000
    H36      H        0.69170    0.27430    0.17560    1.000
    H37      H        0.04840    0.03100    0.14140    1.000
    H38      H        0.37830    0.47860    0.29500    1.000
    H39      H        0.90030    0.44490    0.36190    1.000
    H40      H        0.69930    0.73420    0.21890    1.000
    H41      H        0.72910    0.33430    0.42710    1.000
    H42      H        0.42570    0.42270    0.49510    1.000
    H43      H        0.20150    0.05380    0.22110    1.000
    H44      H        0.23330    0.57540    0.17420    1.000
    H45      H        0.47150    0.11300    0.47670    1.000
    H46      H        0.14440    0.26620    0.43320    1.000
    H47      H        0.50390    0.04220    0.59030    1.000
    H48      H        0.46620    0.35130    0.60720    1.000
    C1       C        0.54250    0.98450    0.21120    1.000
    C2       C        0.46790    0.92990    0.17650    1.000
    C3       C        0.40630    0.80410    0.28130    1.000
    C4       C        0.40050    0.83900    0.21290    1.000
    C5       C        0.83560    0.21380    0.90360    1.000
    C6       C        0.48930    0.85490    0.31570    1.000
    C7       C        0.11670    0.75640    0.76620    1.000
    C8       C        0.96060    0.82120    0.75270    1.000
    C9       C        0.25060    0.47520    0.71370    1.000
    C10      C        0.97220    0.45550    0.77200    1.000
    C11      C        0.93490    0.28210    0.85030    1.000
    C12      C        0.23420    0.84630    0.91070    1.000
    C13      C        0.85430    0.79880    0.70740    1.000
    C14      C        0.46530    0.96680    0.10200    1.000
    C15      C        0.14020    0.84390    0.85300    1.000
    C16      C        0.46320    0.60940    0.63330    1.000
    C17      C        0.55490    0.94760    0.27890    1.000
    C18      C        0.91220    0.78100    0.64510    1.000
    C19      C        0.69270    0.78760    0.72810    1.000
    C20      C        0.13680    0.40910    0.75840    1.000
    C21      C        0.09500    0.23480    0.83420    1.000
    C22      C        0.59510    0.75390    0.69090    1.000
    C23      C        0.41180    0.46580    0.73180    1.000
    C24      C        0.20530    0.76810    0.81580    1.000
    C25      C        0.99010    0.91430    0.83690    1.000
    C26      C        0.55320    0.72490    0.52660    1.000
    C27      C        0.51590    0.53050    0.69230    1.000
    C28      C        0.20270    0.54980    0.65270    1.000
    C29      C        0.65920    0.72840    0.63140    1.000
    C30      C        0.19470    0.29780    0.78990    1.000
    C31      C        0.30620    0.61620    0.61310    1.000
    C32      C        0.55660    0.65350    0.48610    1.000
    C33      C        0.89990    0.90170    0.78840    1.000
    C34      C        0.87320    0.39320    0.81730    1.000
    C35      C        0.51040    0.81100    0.38860    1.000
    C36      C        0.53020    0.83920    0.49700    1.000
    C37      C        0.81600    0.74580    0.60760    1.000
    C38      C        0.51000    0.88170    0.42880    1.000
    C39      C        0.53380    0.69650    0.41890    1.000
    C40      C        0.45750    0.01550    0.78880    1.000
    C41      C        0.53210    0.07010    0.82350    1.000
    C42      C        0.59370    0.19590    0.71870    1.000
    C43      C        0.59950    0.16100    0.78710    1.000
    C44      C        0.16440    0.78620    0.09640    1.000
    C45      C        0.51070    0.14510    0.68430    1.000
    C46      C        0.88330    0.24360    0.23380    1.000
    C47      C        0.03940    0.17880    0.24730    1.000
    C48      C        0.74940    0.52480    0.28630    1.000
    C49      C        0.02780    0.54450    0.22800    1.000
    C50      C        0.06510    0.71790    0.14970    1.000
    C51      C        0.76580    0.15370    0.08930    1.000
    C52      C        0.14570    0.20120    0.29260    1.000
    C53      C        0.53470    0.03320    0.89800    1.000
    C54      C        0.85980    0.15610    0.14700    1.000
    C55      C        0.53680    0.39060    0.36670    1.000
    C56      C        0.44510    0.05240    0.72110    1.000
    C57      C        0.08780    0.21900    0.35490    1.000
    C58      C        0.30730    0.21240    0.27190    1.000
    C59      C        0.86320    0.59090    0.24160    1.000
    C60      C        0.90500    0.76520    0.16580    1.000
    C61      C        0.40490    0.24610    0.30910    1.000
    C62      C        0.58820    0.53420    0.26820    1.000
    C63      C        0.79470    0.23190    0.18420    1.000
    C64      C        0.00990    0.08570    0.16310    1.000
    C65      C        0.44680    0.27510    0.47340    1.000
    C66      C        0.48410    0.46950    0.30770    1.000
    C67      C        0.79730    0.45020    0.34730    1.000
    C68      C        0.34080    0.27160    0.36860    1.000
    C69      C        0.80530    0.70220    0.21010    1.000
    C70      C        0.69380    0.38380    0.38690    1.000
    C71      C        0.44340    0.34650    0.51390    1.000
    C72      C        0.10010    0.09830    0.21160    1.000
    C73      C        0.12680    0.60680    0.18270    1.000
    C74      C        0.48960    0.18900    0.61140    1.000
    C75      C        0.46980    0.16080    0.50300    1.000
    C76      C        0.18400    0.25420    0.39240    1.000
    C77      C        0.49000    0.11830    0.57120    1.000
    C78      C        0.46620    0.30350    0.58110    1.000
    N1       N        0.56630    0.68230    0.59646    1.000
    N2       N        0.43370    0.31770    0.40354    1.000
    O1       O        0.35940    0.77130    0.92675    1.000
    O2       O        0.18910    0.92210    0.94120    1.000
    O3       O        0.70690    0.26220    0.92687    1.000
    O4       O        0.89080    0.10890    0.92081    1.000
    O5       O        0.44180    0.07000    0.07450    1.000
    O6       O        0.48530    0.89160    0.07234    1.000
    O7       O        0.64060    0.22870    0.07325    1.000
    O8       O        0.81090    0.07790    0.05880    1.000
    O9       O        0.29310    0.73780    0.07313    1.000
    O10      O        0.10920    0.89110    0.07919    1.000
    O11      O        0.55820    0.93000    0.92550    1.000
    O12      O        0.51470    0.10840    0.92766    1.000
