# CIF file generated by openbabel 3.1.0, see https://openbabel.org
data_I
_chemical_name_common 'image0'
_cell_length_a 16.648
_cell_length_b 14.23
_cell_length_c 9.2846
_cell_angle_alpha 90
_cell_angle_beta 90
_cell_angle_gamma 90
_space_group_name_H-M_alt 'P 1'
_space_group_name_Hall 'P 1'
loop_
    _symmetry_equiv_pos_as_xyz
    x,y,z
loop_
    _atom_site_label
    _atom_site_type_symbol
    _atom_site_fract_x
    _atom_site_fract_y
    _atom_site_fract_z
    _atom_site_occupancy
    Zn1      Zn       0.57661    0.10700    0.07395    1.000
    P1       P        0.43943    0.10469    0.84140    1.000
    H1       H        0.41570    0.17960    0.92370    1.000
    O1       O        0.52670    0.09800    0.88400    1.000
    O2       O        0.39390    0.01600    0.86480    1.000
    O3       O        0.43310    0.13890    0.69020    1.000
    O4       O        0.50670    0.16370    0.20810    1.000
    O5       O        0.17780    0.33540    0.46670    1.000
    H2       H        0.39680    0.23380    0.23300    1.000
    Zn2      Zn       0.92339    0.89300    0.57395    1.000
    P2       P        0.06057    0.89531    0.34140    1.000
    H3       H        0.08430    0.82040    0.42370    1.000
    O6       O        0.97330    0.90200    0.38400    1.000
    O7       O        0.10610    0.98400    0.36480    1.000
    O8       O        0.06690    0.86110    0.19020    1.000
    O9       O        0.99330    0.83630    0.70810    1.000
    O10      O        0.32220    0.66460    0.96670    1.000
    H4       H        0.10320    0.76620    0.73300    1.000
    Zn3      Zn       0.42339    0.60700    0.92605    1.000
    P3       P        0.56057    0.60469    0.15860    1.000
    H5       H        0.58430    0.67960    0.07630    1.000
    O11      O        0.47330    0.59800    0.11600    1.000
    O12      O        0.60610    0.51600    0.13520    1.000
    O13      O        0.56690    0.63890    0.30980    1.000
    O14      O        0.49330    0.66370    0.79190    1.000
    O15      O        0.82220    0.83540    0.53330    1.000
    H6       H        0.60320    0.73380    0.76700    1.000
    Zn4      Zn       0.07661    0.39300    0.42605    1.000
    P4       P        0.93943    0.39531    0.65860    1.000
    H7       H        0.91570    0.32040    0.57630    1.000
    O16      O        0.02670    0.40200    0.61600    1.000
    O17      O        0.89390    0.48400    0.63520    1.000
    O18      O        0.93310    0.36110    0.80980    1.000
    O19      O        0.00670    0.33630    0.29190    1.000
    O20      O        0.67780    0.16460    0.03330    1.000
    H8       H        0.89680    0.26620    0.26700    1.000
    Zn5      Zn       0.42339    0.89300    0.92605    1.000
    P5       P        0.56057    0.89531    0.15860    1.000
    H9       H        0.58430    0.82040    0.07630    1.000
    O21      O        0.47330    0.90200    0.11600    1.000
    O22      O        0.60610    0.98400    0.13520    1.000
    O23      O        0.56690    0.86110    0.30980    1.000
    O24      O        0.49330    0.83630    0.79190    1.000
    O25      O        0.82220    0.66460    0.53330    1.000
    H10      H        0.60320    0.76620    0.76700    1.000
    Zn6      Zn       0.07661    0.10700    0.42605    1.000
    P6       P        0.93943    0.10469    0.65860    1.000
    H11      H        0.91570    0.17960    0.57630    1.000
    O26      O        0.02670    0.09800    0.61600    1.000
    O27      O        0.89390    0.01600    0.63520    1.000
    O28      O        0.93310    0.13890    0.80980    1.000
    O29      O        0.00670    0.16370    0.29190    1.000
    O30      O        0.67780    0.33540    0.03330    1.000
    H12      H        0.89680    0.23380    0.26700    1.000
    Zn7      Zn       0.57661    0.39300    0.07395    1.000
    P7       P        0.43943    0.39531    0.84140    1.000
    H13      H        0.41570    0.32040    0.92370    1.000
    O31      O        0.52670    0.40200    0.88400    1.000
    O32      O        0.39390    0.48400    0.86480    1.000
    O33      O        0.43310    0.36110    0.69020    1.000
    O34      O        0.50670    0.33630    0.20810    1.000
    O35      O        0.17780    0.16460    0.46670    1.000
    H14      H        0.39680    0.26620    0.23300    1.000
    Zn8      Zn       0.92339    0.60700    0.57395    1.000
    P8       P        0.06057    0.60469    0.34140    1.000
    H15      H        0.08430    0.67960    0.42370    1.000
    O36      O        0.97330    0.59800    0.38400    1.000
    O37      O        0.10610    0.51600    0.36480    1.000
    O38      O        0.06690    0.63890    0.19020    1.000
    O39      O        0.99330    0.66370    0.70810    1.000
    O40      O        0.32220    0.83540    0.96670    1.000
    H16      H        0.10320    0.73380    0.73300    1.000
    Zn9      Zn       0.40326    0.25000    0.58651    1.000
    P9       P        0.47102    0.25000    0.26180    1.000
    P10      P        0.22406    0.25000    0.45000    1.000
    H17      H        0.25110    0.25000    0.32090    1.000
    O41      O        0.46750    0.25000    0.41780    1.000
    O42      O        0.29230    0.25000    0.55390    1.000
    Zn10     Zn       0.09674    0.75000    0.08651    1.000
    P11      P        0.02898    0.75000    0.76180    1.000
    P12      P        0.27594    0.75000    0.95000    1.000
    H18      H        0.24890    0.75000    0.82090    1.000
    O43      O        0.03250    0.75000    0.91780    1.000
    O44      O        0.20770    0.75000    0.05390    1.000
    Zn11     Zn       0.59674    0.75000    0.41349    1.000
    P13      P        0.52898    0.75000    0.73820    1.000
    P14      P        0.77594    0.75000    0.55000    1.000
    H19      H        0.74890    0.75000    0.67910    1.000
    O45      O        0.53250    0.75000    0.58220    1.000
    O46      O        0.70770    0.75000    0.44610    1.000
    Zn12     Zn       0.90326    0.25000    0.91349    1.000
    P15      P        0.97102    0.25000    0.23820    1.000
    P16      P        0.72406    0.25000    0.05000    1.000
    H20      H        0.75110    0.25000    0.17910    1.000
    O47      O        0.96750    0.25000    0.08220    1.000
    O48      O        0.79230    0.25000    0.94610    1.000
