data_functionalizedCrystal
_audit_creation_method	'EQeq! by Chris Wilmer'
_symmetry_space_group_name_H-M	'P1'
_symmetry_Int_Tables_number	1
_symmetry_cell_setting	triclinic
loop_
_symmetry_equiv_pos_as_xyz
  x,y,z
_cell_length_a	21.9416
_cell_length_b	16.7734
_cell_length_c	25.5513
_cell_angle_alpha	90
_cell_angle_beta	115.225
_cell_angle_gamma	90
loop_
_atom_site_label
_atom_site_type_symbol
_atom_site_fract_x
_atom_site_fract_y
_atom_site_fract_z
_atom_site_charge
Mof_Ag	Ag	0.34426	0.04241	0.36722	0.525
Mof_Ag	Ag	0.82144	0.24466	0.86681	0.536
Mof_C 	C 	0.0971	0.0292	0.9994	0.103
Mof_C 	C 	0.6238	0.2438	0.5007	0.098
Mof_C 	C 	0.5328	0.1896	0.4097	-0.152
Mof_H 	H 	0.5543	0.2104	0.3883	0.086
Mof_C 	C 	0.5599	0.1995	0.4681	0.07
Mof_C 	C 	0.0032	0.1153	0.9947	-0.133
Mof_H 	H 	0.0227	0.1162	0.035	0.085
Mof_C 	C 	0.1812	0.9478	0.0055	0.093
Mof_C 	C 	0.22	0.8486	0.8914	0.068
Mof_H 	H 	0.2004	0.8445	0.8513	-0.026
Mof_C 	C 	0.7976	0.4165	0.5044	-0.137
Mof_H 	H 	0.8195	0.4132	0.5445	0.087
Mof_C 	C 	0.0329	0.0735	0.9652	0.07
Mof_C 	C 	0.9437	0.1557	0.9633	0.087
Mof_H 	H 	0.924	0.1836	0.9836	-0.012
Mof_C 	C 	0.7094	0.2746	0.586	0.101
Mof_C 	C 	0.2763	0.862	0.0083	-0.141
Mof_H 	H 	0.2968	0.8653	0.0485	0.075
Mof_C 	C 	0.7358	0.4349	0.3879	0.086
Mof_H 	H 	0.7142	0.4417	0.3481	-0.011
Mof_C 	C 	0.7424	0.2637	0.6497	0.065
Mof_C 	C 	0.1783	0.0435	0.1793	-0.146
Mof_H 	H 	0.1342	0.0612	0.1591	0.084
Mof_C 	C 	0.5252	0.1657	0.4976	-0.159
Mof_H 	H 	0.5419	0.1703	0.5375	0.08
Mof_C 	C 	0.2139	0.8986	0.9759	0.059
Mof_C 	C 	0.2116	0.008	0.1506	0.063
Mof_C 	C 	0.1794	0.9985	0.0865	0.094
Mof_C 	C 	0.7042	0.3896	0.4142	-0.137
Mof_H 	H 	0.6622	0.367	0.3922	0.085
Mof_C 	C 	0.705	0.3279	0.5036	0.102
Mof_C 	C 	0.7354	0.3782	0.4732	0.07
Mof_C 	C 	0.4672	0.1263	0.467	0.089
Mof_H 	H 	0.4453	0.1035	0.4875	-0.026
Mof_C 	C 	0.3067	0.8205	0.9784	0.08
Mof_H 	H 	0.3482	0.7964	0.9997	-0.014
Mof_C 	C 	0.8249	0.459	0.4733	0.094
Mof_H 	H 	0.867	0.482	0.4938	-0.016
Mof_C 	C 	0.186	0.8909	0.9174	-0.14
Mof_H 	H 	0.1444	0.9139	0.895	0.079
Mof_C 	C 	0.0012	0.0739	0.9061	-0.145
Mof_H 	H 	0.0188	0.0446	0.8849	0.082
Mof_C 	C 	0.4727	0.1482	0.3825	0.081
Mof_H 	H 	0.455	0.1416	0.3426	-0.023
Mof_C 	C 	0.211	0.0526	0.2387	0.085
Mof_H 	H 	0.1879	0.0766	0.2578	-0.017
Mof_C 	C 	0.305	0.9943	0.2411	0.086
Mof_H 	H 	0.3489	0.9764	0.2623	-0.029
Mof_C 	C 	0.9436	0.1172	0.8781	0.09
Mof_H 	H 	0.9246	0.1192	0.8379	-0.01
Mof_C 	C 	0.2772	0.9831	0.1821	-0.155
Mof_H 	H 	0.3017	0.9597	0.1641	0.076
Mof_C 	C 	0.8265	0.2932	0.7423	0.095
Mof_H 	H 	0.8653	0.3216	0.7648	-0.024
Mof_C 	C 	0.7451	0.2056	0.7355	0.072
Mof_H 	H 	0.7272	0.1697	0.7529	-0.018
Mof_C 	C 	0.8014	0.3022	0.6835	-0.151
Mof_H 	H 	0.8236	0.3335	0.667	0.087
Mof_C 	C 	0.7144	0.2134	0.6767	-0.14
Mof_H 	H 	0.6752	0.1853	0.6549	0.071
Mof_N 	N 	0.4393	0.1177	0.4103	-0.218
Mof_N 	N 	0.7956	0.4694	0.4167	-0.195
Mof_N 	N 	0.8003	0.2475	0.7696	-0.201
Mof_N 	N 	0.6482	0.2893	0.4712	-0.138
Mof_N 	N 	0.7376	0.3228	0.5616	-0.137
Mof_N 	N 	0.6523	0.234	0.5577	-0.142
Mof_N 	N 	0.9131	0.1568	0.9057	-0.19
Mof_N 	N 	0.2797	0.8134	0.9213	-0.21
Mof_N 	N 	0.2745	0.0282	0.27	-0.202
Mof_N 	N 	0.1251	0.9878	0.972	-0.141
Mof_N 	N 	0.2103	0.9512	0.0631	-0.149
Mof_N 	N 	0.1225	0.0378	0.0569	-0.138
Mof_Ag	Ag	0.84426	0.54241	0.36722	0.524
Mof_Ag	Ag	0.32144	0.74466	0.86681	0.535
Mof_C 	C 	0.5971	0.5292	0.9994	0.1
Mof_C 	C 	0.1238	0.7438	0.5007	0.097
Mof_C 	C 	0.0328	0.6896	0.4097	-0.154
Mof_H 	H 	0.0543	0.7104	0.3883	0.085
Mof_C 	C 	0.0599	0.6995	0.4681	0.069
Mof_C 	C 	0.5032	0.6153	0.9947	-0.14
Mof_H 	H 	0.5227	0.6162	0.035	0.087
Mof_C 	C 	0.6812	0.4478	0.0055	0.095
Mof_C 	C 	0.72	0.3486	0.8914	0.065
Mof_H 	H 	0.7004	0.3445	0.8513	-0.026
Mof_C 	C 	0.2976	0.9165	0.5044	-0.138
Mof_H 	H 	0.3195	0.9132	0.5445	0.086
Mof_C 	C 	0.5329	0.5735	0.9652	0.073
Mof_C 	C 	0.4437	0.6557	0.9633	0.09
Mof_H 	H 	0.424	0.6836	0.9836	-0.015
Mof_C 	C 	0.2094	0.7746	0.586	0.1
Mof_C 	C 	0.7763	0.362	0.0083	-0.135
Mof_H 	H 	0.7968	0.3653	0.0485	0.073
Mof_C 	C 	0.2358	0.9349	0.3879	0.086
Mof_H 	H 	0.2142	0.9417	0.3481	-0.011
Mof_C 	C 	0.2424	0.7637	0.6497	0.065
Mof_C 	C 	0.6783	0.5435	0.1793	-0.146
Mof_H 	H 	0.6342	0.5612	0.1591	0.084
Mof_C 	C 	0.0252	0.6657	0.4976	-0.159
Mof_H 	H 	0.0419	0.6703	0.5375	0.08
Mof_C 	C 	0.7139	0.3986	0.9759	0.054
Mof_C 	C 	0.7116	0.508	0.1506	0.063
Mof_C 	C 	0.6794	0.4985	0.0865	0.094
Mof_C 	C 	0.2042	0.8896	0.4142	-0.137
Mof_H 	H 	0.1622	0.867	0.3922	0.085
Mof_C 	C 	0.205	0.8279	0.5036	0.102
Mof_C 	C 	0.2354	0.8782	0.4732	0.07
Mof_C 	C 	0.9672	0.6263	0.467	0.089
Mof_H 	H 	0.9453	0.6035	0.4875	-0.027
Mof_C 	C 	0.8067	0.3205	0.9784	0.076
Mof_H 	H 	0.8482	0.2964	0.9997	-0.013
Mof_C 	C 	0.3249	0.959	0.4733	0.094
Mof_H 	H 	0.367	0.982	0.4938	-0.016
Mof_C 	C 	0.686	0.3909	0.9174	-0.136
Mof_H 	H 	0.6444	0.4139	0.895	0.078
Mof_C 	C 	0.5012	0.5739	0.9061	-0.149
Mof_H 	H 	0.5188	0.5446	0.8849	0.083
Mof_C 	C 	0.9727	0.6482	0.3825	0.081
Mof_H 	H 	0.955	0.6416	0.3426	-0.023
Mof_C 	C 	0.711	0.5526	0.2387	0.084
Mof_H 	H 	0.6879	0.5766	0.2578	-0.017
Mof_C 	C 	0.805	0.4943	0.2411	0.086
Mof_H 	H 	0.8489	0.4764	0.2623	-0.029
Mof_C 	C 	0.4436	0.6172	0.8781	0.093
Mof_H 	H 	0.4246	0.6192	0.8379	-0.011
Mof_C 	C 	0.7772	0.4831	0.1821	-0.154
Mof_H 	H 	0.8017	0.4597	0.1641	0.077
Mof_C 	C 	0.3265	0.7932	0.7423	0.095
Mof_H 	H 	0.3653	0.8216	0.7648	-0.024
Mof_C 	C 	0.2451	0.7056	0.7355	0.072
Mof_H 	H 	0.2272	0.6697	0.7529	-0.018
Mof_C 	C 	0.3014	0.8022	0.6835	-0.151
Mof_H 	H 	0.3236	0.8335	0.667	0.087
Mof_C 	C 	0.2144	0.7134	0.6767	-0.14
Mof_H 	H 	0.1752	0.6853	0.6549	0.071
Mof_N 	N 	0.9393	0.6177	0.4103	-0.219
Mof_N 	N 	0.2956	0.9694	0.4167	-0.195
Mof_N 	N 	0.3003	0.7475	0.7696	-0.201
Mof_N 	N 	0.1482	0.7893	0.4712	-0.138
Mof_N 	N 	0.2376	0.8228	0.5616	-0.137
Mof_N 	N 	0.1523	0.734	0.5577	-0.142
Mof_N 	N 	0.4131	0.6568	0.9057	-0.191
Mof_N 	N 	0.7797	0.3134	0.9213	-0.209
Mof_N 	N 	0.7745	0.5282	0.27	-0.202
Mof_N 	N 	0.6251	0.4878	0.972	-0.142
Mof_N 	N 	0.7103	0.4512	0.0631	-0.149
Mof_N 	N 	0.6225	0.5378	0.0569	-0.138
Mof_Ag	Ag	0.65574	0.04241	0.13278	0.524
Mof_Ag	Ag	0.17856	0.24466	0.63319	0.535
Mof_C 	C 	0.9029	0.0292	0.5006	0.1
Mof_C 	C 	0.3762	0.2438	0.9993	0.097
Mof_C 	C 	0.4672	0.1896	0.0903	-0.153
Mof_H 	H 	0.4457	0.2104	0.1117	0.085
Mof_C 	C 	0.4401	0.1995	0.0319	0.069
Mof_C 	C 	0.9968	0.1153	0.5053	-0.14
Mof_H 	H 	0.9773	0.1162	0.465	0.087
Mof_C 	C 	0.8188	0.9478	0.4945	0.094
Mof_C 	C 	0.78	0.8486	0.6086	0.066
Mof_H 	H 	0.7996	0.8445	0.6487	-0.026
Mof_C 	C 	0.2024	0.4165	0.9956	-0.135
Mof_H 	H 	0.1805	0.4132	0.9555	0.085
Mof_C 	C 	0.9671	0.0735	0.5348	0.073
Mof_C 	C 	0.0563	0.1557	0.5367	0.09
Mof_H 	H 	0.076	0.1836	0.5164	-0.015
Mof_C 	C 	0.2906	0.2746	0.914	0.1
Mof_C 	C 	0.7237	0.862	0.4917	-0.138
Mof_H 	H 	0.7032	0.8653	0.4515	0.074
Mof_C 	C 	0.2642	0.4349	0.1121	0.085
Mof_H 	H 	0.2858	0.4417	0.1519	-0.011
Mof_C 	C 	0.2576	0.2637	0.8503	0.065
Mof_C 	C 	0.8217	0.0435	0.3207	-0.146
Mof_H 	H 	0.8658	0.0612	0.3409	0.084
Mof_C 	C 	0.4748	0.1657	0.0024	-0.159
Mof_H 	H 	0.4581	0.1703	0.9625	0.08
Mof_C 	C 	0.7861	0.8986	0.5241	0.056
Mof_C 	C 	0.7884	0.008	0.3494	0.063
Mof_C 	C 	0.8206	0.9985	0.4135	0.094
Mof_C 	C 	0.2958	0.3896	0.0858	-0.135
Mof_H 	H 	0.3378	0.367	0.1078	0.084
Mof_C 	C 	0.295	0.3279	0.9964	0.103
Mof_C 	C 	0.2646	0.3782	0.0268	0.068
Mof_C 	C 	0.5328	0.1263	0.033	0.089
Mof_H 	H 	0.5547	0.1035	0.0125	-0.027
Mof_C 	C 	0.6933	0.8205	0.5216	0.078
Mof_H 	H 	0.6518	0.7964	0.5003	-0.013
Mof_C 	C 	0.1751	0.459	0.0267	0.092
Mof_H 	H 	0.133	0.482	0.0062	-0.016
Mof_C 	C 	0.814	0.8909	0.5826	-0.138
Mof_H 	H 	0.8556	0.9139	0.605	0.078
Mof_C 	C 	0.9988	0.0739	0.5939	-0.149
Mof_H 	H 	0.9812	0.0446	0.6151	0.083
Mof_C 	C 	0.5273	0.1482	0.1175	0.081
Mof_H 	H 	0.545	0.1416	0.1574	-0.023
Mof_C 	C 	0.789	0.0526	0.2613	0.085
Mof_H 	H 	0.8121	0.0766	0.2422	-0.017
Mof_C 	C 	0.695	0.9943	0.2589	0.086
Mof_H 	H 	0.6511	0.9764	0.2377	-0.029
Mof_C 	C 	0.0564	0.1172	0.6219	0.093
Mof_H 	H 	0.0754	0.1192	0.6621	-0.011
Mof_C 	C 	0.7228	0.9831	0.3179	-0.154
Mof_H 	H 	0.6983	0.9597	0.3359	0.077
Mof_C 	C 	0.1735	0.2932	0.7577	0.095
Mof_H 	H 	0.1347	0.3216	0.7352	-0.024
Mof_C 	C 	0.2549	0.2056	0.7645	0.072
Mof_H 	H 	0.2728	0.1697	0.7471	-0.018
Mof_C 	C 	0.1986	0.3022	0.8165	-0.151
Mof_H 	H 	0.1764	0.3335	0.833	0.087
Mof_C 	C 	0.2856	0.2134	0.8233	-0.14
Mof_H 	H 	0.3248	0.1853	0.8451	0.071
Mof_N 	N 	0.5607	0.1177	0.0897	-0.218
Mof_N 	N 	0.2044	0.4694	0.0833	-0.195
Mof_N 	N 	0.1997	0.2475	0.7304	-0.201
Mof_N 	N 	0.3518	0.2893	0.0288	-0.138
Mof_N 	N 	0.2624	0.3228	0.9384	-0.137
Mof_N 	N 	0.3477	0.234	0.9423	-0.142
Mof_N 	N 	0.0869	0.1568	0.5943	-0.191
Mof_N 	N 	0.7203	0.8134	0.5787	-0.209
Mof_N 	N 	0.7255	0.0282	0.23	-0.202
Mof_N 	N 	0.8749	0.9878	0.528	-0.142
Mof_N 	N 	0.7897	0.9512	0.4369	-0.149
Mof_N 	N 	0.8775	0.0378	0.4431	-0.138
Mof_Ag	Ag	0.15574	0.54241	0.13278	0.523
Mof_Ag	Ag	0.67856	0.74466	0.63319	0.535
Mof_C 	C 	0.4029	0.5292	0.5006	0.1
Mof_C 	C 	0.8762	0.7438	0.9993	0.096
Mof_C 	C 	0.9672	0.6896	0.0903	-0.15
Mof_H 	H 	0.9457	0.7104	0.1117	0.084
Mof_C 	C 	0.9401	0.6995	0.0319	0.067
Mof_C 	C 	0.4968	0.6153	0.5053	-0.139
Mof_H 	H 	0.4773	0.6162	0.465	0.087
Mof_C 	C 	0.3188	0.4478	0.4945	0.094
Mof_C 	C 	0.28	0.3486	0.6086	0.066
Mof_H 	H 	0.2996	0.3445	0.6487	-0.026
Mof_C 	C 	0.7024	0.9165	0.9956	-0.14
Mof_H 	H 	0.6805	0.9132	0.9555	0.087
Mof_C 	C 	0.4671	0.5735	0.5348	0.073
Mof_C 	C 	0.5563	0.6557	0.5367	0.09
Mof_H 	H 	0.576	0.6836	0.5164	-0.014
Mof_C 	C 	0.7906	0.7746	0.914	0.1
Mof_C 	C 	0.2237	0.362	0.4917	-0.138
Mof_H 	H 	0.2032	0.3653	0.4515	0.074
Mof_C 	C 	0.7642	0.9349	0.1121	0.087
Mof_H 	H 	0.7858	0.9417	0.1519	-0.011
Mof_C 	C 	0.7576	0.7637	0.8503	0.065
Mof_C 	C 	0.3217	0.5435	0.3207	-0.146
Mof_H 	H 	0.3658	0.5612	0.3409	0.084
Mof_C 	C 	0.9748	0.6657	0.0024	-0.154
Mof_H 	H 	0.9581	0.6703	0.9625	0.077
Mof_C 	C 	0.2861	0.3986	0.5241	0.056
Mof_C 	C 	0.2884	0.508	0.3494	0.063
Mof_C 	C 	0.3206	0.4985	0.4135	0.094
Mof_C 	C 	0.7958	0.8896	0.0858	-0.138
Mof_H 	H 	0.8378	0.867	0.1078	0.085
Mof_C 	C 	0.795	0.8279	0.9964	0.1
Mof_C 	C 	0.7646	0.8782	0.0268	0.072
Mof_C 	C 	0.0328	0.6263	0.033	0.085
Mof_H 	H 	0.0547	0.6035	0.0125	-0.025
Mof_C 	C 	0.1933	0.3205	0.5216	0.078
Mof_H 	H 	0.1518	0.2964	0.5003	-0.013
Mof_C 	C 	0.6751	0.959	0.0267	0.096
Mof_H 	H 	0.633	0.982	0.0062	-0.016
Mof_C 	C 	0.314	0.3909	0.5826	-0.138
Mof_H 	H 	0.3556	0.4139	0.605	0.079
Mof_C 	C 	0.4988	0.5739	0.5939	-0.149
Mof_H 	H 	0.4812	0.5446	0.6151	0.083
Mof_C 	C 	0.0273	0.6482	0.1175	0.078
Mof_H 	H 	0.045	0.6416	0.1574	-0.022
Mof_C 	C 	0.289	0.5526	0.2613	0.084
Mof_H 	H 	0.3121	0.5766	0.2422	-0.017
Mof_C 	C 	0.195	0.4943	0.2589	0.086
Mof_H 	H 	0.1511	0.4764	0.2377	-0.029
Mof_C 	C 	0.5564	0.6172	0.6219	0.093
Mof_H 	H 	0.5754	0.6192	0.6621	-0.01
Mof_C 	C 	0.2228	0.4831	0.3179	-0.154
Mof_H 	H 	0.1983	0.4597	0.3359	0.076
Mof_C 	C 	0.6735	0.7932	0.7577	0.095
Mof_H 	H 	0.6347	0.8216	0.7352	-0.024
Mof_C 	C 	0.7549	0.7056	0.7645	0.072
Mof_H 	H 	0.7728	0.6697	0.7471	-0.018
Mof_C 	C 	0.6986	0.8022	0.8165	-0.151
Mof_H 	H 	0.6764	0.8335	0.833	0.087
Mof_C 	C 	0.7856	0.7134	0.8233	-0.14
Mof_H 	H 	0.8248	0.6853	0.8451	0.071
Mof_N 	N 	0.0607	0.6177	0.0897	-0.217
Mof_N 	N 	0.7044	0.9694	0.0833	-0.196
Mof_N 	N 	0.6997	0.7475	0.7304	-0.201
Mof_N 	N 	0.8518	0.7893	0.0288	-0.137
Mof_N 	N 	0.7624	0.8228	0.9384	-0.137
Mof_N 	N 	0.8477	0.734	0.9423	-0.142
Mof_N 	N 	0.5869	0.6568	0.5943	-0.191
Mof_N 	N 	0.2203	0.3134	0.5787	-0.209
Mof_N 	N 	0.2255	0.5282	0.23	-0.202
Mof_N 	N 	0.3749	0.4878	0.528	-0.142
Mof_N 	N 	0.2897	0.4512	0.4369	-0.149
Mof_N 	N 	0.3775	0.5378	0.4431	-0.138
Mof_Ag	Ag	0.65574	0.95759	0.63278	0.524
Mof_Ag	Ag	0.17856	0.75534	0.13319	0.535
Mof_C 	C 	0.9029	0.9708	0.0006	0.102
Mof_C 	C 	0.3762	0.7562	0.4993	0.097
Mof_C 	C 	0.4672	0.8104	0.5903	-0.153
Mof_H 	H 	0.4457	0.7896	0.6117	0.085
Mof_C 	C 	0.4401	0.8005	0.5319	0.069
Mof_C 	C 	0.9968	0.8847	0.0053	-0.134
Mof_H 	H 	0.9773	0.8838	0.965	0.084
Mof_C 	C 	0.8188	0.0522	0.9945	0.092
Mof_C 	C 	0.78	0.1514	0.1086	0.067
Mof_H 	H 	0.7996	0.1555	0.1487	-0.027
Mof_C 	C 	0.2024	0.5835	0.4956	-0.138
Mof_H 	H 	0.1805	0.5868	0.4555	0.086
Mof_C 	C 	0.9671	0.9265	0.0348	0.069
Mof_C 	C 	0.0563	0.8443	0.0367	0.086
Mof_H 	H 	0.076	0.8164	0.0164	-0.013
Mof_C 	C 	0.2906	0.7254	0.414	0.1
Mof_C 	C 	0.7237	0.138	0.9917	-0.141
Mof_H 	H 	0.7032	0.1347	0.9515	0.075
Mof_C 	C 	0.2642	0.5651	0.6121	0.086
Mof_H 	H 	0.2858	0.5583	0.6519	-0.011
Mof_C 	C 	0.2576	0.7363	0.3503	0.065
Mof_C 	C 	0.8217	0.9565	0.8207	-0.146
Mof_H 	H 	0.8658	0.9388	0.8409	0.084
Mof_C 	C 	0.4748	0.8343	0.5024	-0.159
Mof_H 	H 	0.4581	0.8297	0.4625	0.08
Mof_C 	C 	0.7861	0.1014	0.0241	0.059
Mof_C 	C 	0.7884	0.992	0.8494	0.063
Mof_C 	C 	0.8206	0.0015	0.9135	0.094
Mof_C 	C 	0.2958	0.6104	0.5858	-0.137
Mof_H 	H 	0.3378	0.633	0.6078	0.085
Mof_C 	C 	0.295	0.6721	0.4964	0.102
Mof_C 	C 	0.2646	0.6218	0.5268	0.07
Mof_C 	C 	0.5328	0.8737	0.533	0.089
Mof_H 	H 	0.5547	0.8965	0.5125	-0.026
Mof_C 	C 	0.6933	0.1795	0.0216	0.08
Mof_H 	H 	0.6518	0.2036	0.0003	-0.014
Mof_C 	C 	0.1751	0.541	0.5267	0.094
Mof_H 	H 	0.133	0.518	0.5062	-0.016
Mof_C 	C 	0.814	0.1091	0.0826	-0.14
Mof_H 	H 	0.8556	0.0861	0.105	0.079
Mof_C 	C 	0.9988	0.9261	0.0939	-0.145
Mof_H 	H 	0.9812	0.9554	0.1151	0.082
Mof_C 	C 	0.5273	0.8518	0.6175	0.081
Mof_H 	H 	0.545	0.8584	0.6574	-0.023
Mof_C 	C 	0.789	0.9474	0.7613	0.085
Mof_H 	H 	0.8121	0.9234	0.7422	-0.017
Mof_C 	C 	0.695	0.0057	0.7589	0.086
Mof_H 	H 	0.6511	0.0236	0.7377	-0.029
Mof_C 	C 	0.0564	0.8828	0.1219	0.09
Mof_H 	H 	0.0754	0.8808	0.1621	-0.01
Mof_C 	C 	0.7228	0.0169	0.8179	-0.155
Mof_H 	H 	0.6983	0.0403	0.8359	0.076
Mof_C 	C 	0.1735	0.7068	0.2577	0.095
Mof_H 	H 	0.1347	0.6784	0.2352	-0.024
Mof_C 	C 	0.2549	0.7944	0.2645	0.072
Mof_H 	H 	0.2728	0.8303	0.2471	-0.018
Mof_C 	C 	0.1986	0.6978	0.3165	-0.151
Mof_H 	H 	0.1764	0.6665	0.333	0.087
Mof_C 	C 	0.2856	0.7866	0.3233	-0.14
Mof_H 	H 	0.3248	0.8147	0.3451	0.071
Mof_N 	N 	0.5607	0.8823	0.5897	-0.218
Mof_N 	N 	0.2044	0.5306	0.5833	-0.195
Mof_N 	N 	0.1997	0.7525	0.2304	-0.201
Mof_N 	N 	0.3518	0.7107	0.5288	-0.138
Mof_N 	N 	0.2624	0.6772	0.4384	-0.137
Mof_N 	N 	0.3477	0.766	0.4423	-0.142
Mof_N 	N 	0.0869	0.8432	0.0943	-0.19
Mof_N 	N 	0.7203	0.1866	0.0787	-0.21
Mof_N 	N 	0.7255	0.9718	0.73	-0.202
Mof_N 	N 	0.8749	0.0122	0.028	-0.141
Mof_N 	N 	0.7897	0.0488	0.9369	-0.149
Mof_N 	N 	0.8775	0.9622	0.9431	-0.138
Mof_Ag	Ag	0.15574	0.45759	0.63278	0.524
Mof_Ag	Ag	0.67856	0.25534	0.13319	0.535
Mof_C 	C 	0.4029	0.4708	0.0006	0.1
Mof_C 	C 	0.8762	0.2562	0.4993	0.097
Mof_C 	C 	0.9672	0.3104	0.5903	-0.154
Mof_H 	H 	0.9457	0.2896	0.6117	0.085
Mof_C 	C 	0.9401	0.3005	0.5319	0.069
Mof_C 	C 	0.4968	0.3847	0.0053	-0.14
Mof_H 	H 	0.4773	0.3838	0.965	0.087
Mof_C 	C 	0.3188	0.5522	0.9945	0.095
Mof_C 	C 	0.28	0.6514	0.1086	0.065
Mof_H 	H 	0.2996	0.6555	0.1487	-0.026
Mof_C 	C 	0.7024	0.0835	0.4956	-0.138
Mof_H 	H 	0.6805	0.0868	0.4555	0.086
Mof_C 	C 	0.4671	0.4265	0.0348	0.073
Mof_C 	C 	0.5563	0.3443	0.0367	0.09
Mof_H 	H 	0.576	0.3164	0.0164	-0.015
Mof_C 	C 	0.7906	0.2254	0.414	0.1
Mof_C 	C 	0.2237	0.638	0.9917	-0.135
Mof_H 	H 	0.2032	0.6347	0.9515	0.073
Mof_C 	C 	0.7642	0.0651	0.6121	0.086
Mof_H 	H 	0.7858	0.0583	0.6519	-0.011
Mof_C 	C 	0.7576	0.2363	0.3503	0.065
Mof_C 	C 	0.3217	0.4565	0.8207	-0.146
Mof_H 	H 	0.3658	0.4388	0.8409	0.084
Mof_C 	C 	0.9748	0.3343	0.5024	-0.159
Mof_H 	H 	0.9581	0.3297	0.4625	0.08
Mof_C 	C 	0.2861	0.6014	0.0241	0.054
Mof_C 	C 	0.2884	0.492	0.8494	0.063
Mof_C 	C 	0.3206	0.5015	0.9135	0.094
Mof_C 	C 	0.7958	0.1104	0.5858	-0.137
Mof_H 	H 	0.8378	0.133	0.6078	0.085
Mof_C 	C 	0.795	0.1721	0.4964	0.102
Mof_C 	C 	0.7646	0.1218	0.5268	0.07
Mof_C 	C 	0.0328	0.3737	0.533	0.089
Mof_H 	H 	0.0547	0.3965	0.5125	-0.027
Mof_C 	C 	0.1933	0.6795	0.0216	0.076
Mof_H 	H 	0.1518	0.7036	0.0003	-0.013
Mof_C 	C 	0.6751	0.041	0.5267	0.094
Mof_H 	H 	0.633	0.018	0.5062	-0.016
Mof_C 	C 	0.314	0.6091	0.0826	-0.136
Mof_H 	H 	0.3556	0.5861	0.105	0.078
Mof_C 	C 	0.4988	0.4261	0.0939	-0.149
Mof_H 	H 	0.4812	0.4554	0.1151	0.083
Mof_C 	C 	0.0273	0.3518	0.6175	0.081
Mof_H 	H 	0.045	0.3584	0.6574	-0.023
Mof_C 	C 	0.289	0.4474	0.7613	0.084
Mof_H 	H 	0.3121	0.4234	0.7422	-0.017
Mof_C 	C 	0.195	0.5057	0.7589	0.086
Mof_H 	H 	0.1511	0.5236	0.7377	-0.029
Mof_C 	C 	0.5564	0.3828	0.1219	0.093
Mof_H 	H 	0.5754	0.3808	0.1621	-0.011
Mof_C 	C 	0.2228	0.5169	0.8179	-0.154
Mof_H 	H 	0.1983	0.5403	0.8359	0.077
Mof_C 	C 	0.6735	0.2068	0.2577	0.095
Mof_H 	H 	0.6347	0.1784	0.2352	-0.024
Mof_C 	C 	0.7549	0.2944	0.2645	0.072
Mof_H 	H 	0.7728	0.3303	0.2471	-0.018
Mof_C 	C 	0.6986	0.1978	0.3165	-0.151
Mof_H 	H 	0.6764	0.1665	0.333	0.087
Mof_C 	C 	0.7856	0.2866	0.3233	-0.14
Mof_H 	H 	0.8248	0.3147	0.3451	0.071
Mof_N 	N 	0.0607	0.3823	0.5897	-0.219
Mof_N 	N 	0.7044	0.0306	0.5833	-0.195
Mof_N 	N 	0.6997	0.2525	0.2304	-0.201
Mof_N 	N 	0.8518	0.2107	0.5288	-0.138
Mof_N 	N 	0.7624	0.1772	0.4384	-0.137
Mof_N 	N 	0.8477	0.266	0.4423	-0.142
Mof_N 	N 	0.5869	0.3432	0.0943	-0.191
Mof_N 	N 	0.2203	0.6866	0.0787	-0.209
Mof_N 	N 	0.2255	0.4718	0.73	-0.202
Mof_N 	N 	0.3749	0.5122	0.028	-0.142
Mof_N 	N 	0.2897	0.5488	0.9369	-0.149
Mof_N 	N 	0.3775	0.4622	0.9431	-0.138
Mof_Ag	Ag	0.34426	0.95759	0.86722	0.524
Mof_Ag	Ag	0.82144	0.75534	0.36681	0.535
Mof_C 	C 	0.0971	0.9708	0.4994	0.1
Mof_C 	C 	0.6238	0.7562	0.0007	0.097
Mof_C 	C 	0.5328	0.8104	0.9097	-0.153
Mof_H 	H 	0.5543	0.7896	0.8883	0.085
Mof_C 	C 	0.5599	0.8005	0.9681	0.069
Mof_C 	C 	0.0032	0.8847	0.4947	-0.14
Mof_H 	H 	0.0227	0.8838	0.535	0.087
Mof_C 	C 	0.1812	0.0522	0.5055	0.094
Mof_C 	C 	0.22	0.1514	0.3914	0.066
Mof_H 	H 	0.2004	0.1555	0.3513	-0.026
Mof_C 	C 	0.7976	0.5835	0.0044	-0.135
Mof_H 	H 	0.8195	0.5868	0.0445	0.085
Mof_C 	C 	0.0329	0.9265	0.4652	0.073
Mof_C 	C 	0.9437	0.8443	0.4633	0.09
Mof_H 	H 	0.924	0.8164	0.4836	-0.015
Mof_C 	C 	0.7094	0.7254	0.086	0.1
Mof_C 	C 	0.2763	0.138	0.5083	-0.138
Mof_H 	H 	0.2968	0.1347	0.5485	0.074
Mof_C 	C 	0.7358	0.5651	0.8879	0.085
Mof_H 	H 	0.7142	0.5583	0.8481	-0.011
Mof_C 	C 	0.7424	0.7363	0.1497	0.065
Mof_C 	C 	0.1783	0.9565	0.6793	-0.146
Mof_H 	H 	0.1342	0.9388	0.6591	0.084
Mof_C 	C 	0.5252	0.8343	0.9976	-0.159
Mof_H 	H 	0.5419	0.8297	0.0375	0.08
Mof_C 	C 	0.2139	0.1014	0.4759	0.056
Mof_C 	C 	0.2116	0.992	0.6506	0.063
Mof_C 	C 	0.1794	0.0015	0.5865	0.094
Mof_C 	C 	0.7042	0.6104	0.9142	-0.135
Mof_H 	H 	0.6622	0.633	0.8922	0.084
Mof_C 	C 	0.705	0.6721	0.0036	0.103
Mof_C 	C 	0.7354	0.6218	0.9732	0.068
Mof_C 	C 	0.4672	0.8737	0.967	0.089
Mof_H 	H 	0.4453	0.8965	0.9875	-0.027
Mof_C 	C 	0.3067	0.1795	0.4784	0.078
Mof_H 	H 	0.3482	0.2036	0.4997	-0.013
Mof_C 	C 	0.8249	0.541	0.9733	0.092
Mof_H 	H 	0.867	0.518	0.9938	-0.016
Mof_C 	C 	0.186	0.1091	0.4174	-0.138
Mof_H 	H 	0.1444	0.0861	0.395	0.078
Mof_C 	C 	0.0012	0.9261	0.4061	-0.149
Mof_H 	H 	0.0188	0.9554	0.3849	0.083
Mof_C 	C 	0.4727	0.8518	0.8825	0.081
Mof_H 	H 	0.455	0.8584	0.8426	-0.023
Mof_C 	C 	0.211	0.9474	0.7387	0.085
Mof_H 	H 	0.1879	0.9234	0.7578	-0.017
Mof_C 	C 	0.305	0.0057	0.7411	0.086
Mof_H 	H 	0.3489	0.0236	0.7623	-0.029
Mof_C 	C 	0.9436	0.8828	0.3781	0.093
Mof_H 	H 	0.9246	0.8808	0.3379	-0.011
Mof_C 	C 	0.2772	0.0169	0.6821	-0.154
Mof_H 	H 	0.3017	0.0403	0.6641	0.077
Mof_C 	C 	0.8265	0.7068	0.2423	0.095
Mof_H 	H 	0.8653	0.6784	0.2648	-0.024
Mof_C 	C 	0.7451	0.7944	0.2355	0.072
Mof_H 	H 	0.7272	0.8303	0.2529	-0.018
Mof_C 	C 	0.8014	0.6978	0.1835	-0.151
Mof_H 	H 	0.8236	0.6665	0.167	0.087
Mof_C 	C 	0.7144	0.7866	0.1767	-0.14
Mof_H 	H 	0.6752	0.8147	0.1549	0.071
Mof_N 	N 	0.4393	0.8823	0.9103	-0.218
Mof_N 	N 	0.7956	0.5306	0.9167	-0.195
Mof_N 	N 	0.8003	0.7525	0.2696	-0.201
Mof_N 	N 	0.6482	0.7107	0.9712	-0.138
Mof_N 	N 	0.7376	0.6772	0.0616	-0.137
Mof_N 	N 	0.6523	0.766	0.0577	-0.142
Mof_N 	N 	0.9131	0.8432	0.4057	-0.191
Mof_N 	N 	0.2797	0.1866	0.4213	-0.209
Mof_N 	N 	0.2745	0.9718	0.77	-0.202
Mof_N 	N 	0.1251	0.0122	0.472	-0.142
Mof_N 	N 	0.2103	0.0488	0.5631	-0.149
Mof_N 	N 	0.1225	0.9622	0.5569	-0.138
Mof_Ag	Ag	0.84426	0.45759	0.86722	0.523
Mof_Ag	Ag	0.32144	0.25534	0.36681	0.535
Mof_C 	C 	0.5971	0.4708	0.4994	0.1
Mof_C 	C 	0.1238	0.2562	0.0007	0.096
Mof_C 	C 	0.0328	0.3104	0.9097	-0.15
Mof_H 	H 	0.0543	0.2896	0.8883	0.084
Mof_C 	C 	0.0599	0.3005	0.9681	0.067
Mof_C 	C 	0.5032	0.3847	0.4947	-0.139
Mof_H 	H 	0.5227	0.3838	0.535	0.087
Mof_C 	C 	0.6812	0.5522	0.5055	0.094
Mof_C 	C 	0.72	0.6514	0.3914	0.066
Mof_H 	H 	0.7004	0.6555	0.3513	-0.026
Mof_C 	C 	0.2976	0.0835	0.0044	-0.14
Mof_H 	H 	0.3195	0.0868	0.0445	0.087
Mof_C 	C 	0.5329	0.4265	0.4652	0.073
Mof_C 	C 	0.4437	0.3443	0.4633	0.09
Mof_H 	H 	0.424	0.3164	0.4836	-0.014
Mof_C 	C 	0.2094	0.2254	0.086	0.1
Mof_C 	C 	0.7763	0.638	0.5083	-0.138
Mof_H 	H 	0.7968	0.6347	0.5485	0.074
Mof_C 	C 	0.2358	0.0651	0.8879	0.087
Mof_H 	H 	0.2142	0.0583	0.8481	-0.011
Mof_C 	C 	0.2424	0.2363	0.1497	0.065
Mof_C 	C 	0.6783	0.4565	0.6793	-0.146
Mof_H 	H 	0.6342	0.4388	0.6591	0.084
Mof_C 	C 	0.0252	0.3343	0.9976	-0.154
Mof_H 	H 	0.0419	0.3297	0.0375	0.077
Mof_C 	C 	0.7139	0.6014	0.4759	0.056
Mof_C 	C 	0.7116	0.492	0.6506	0.063
Mof_C 	C 	0.6794	0.5015	0.5865	0.094
Mof_C 	C 	0.2042	0.1104	0.9142	-0.138
Mof_H 	H 	0.1622	0.133	0.8922	0.085
Mof_C 	C 	0.205	0.1721	0.0036	0.1
Mof_C 	C 	0.2354	0.1218	0.9732	0.072
Mof_C 	C 	0.9672	0.3737	0.967	0.085
Mof_H 	H 	0.9453	0.3965	0.9875	-0.025
Mof_C 	C 	0.8067	0.6795	0.4784	0.078
Mof_H 	H 	0.8482	0.7036	0.4997	-0.013
Mof_C 	C 	0.3249	0.041	0.9733	0.096
Mof_H 	H 	0.367	0.018	0.9938	-0.016
Mof_C 	C 	0.686	0.6091	0.4174	-0.138
Mof_H 	H 	0.6444	0.5861	0.395	0.079
Mof_C 	C 	0.5012	0.4261	0.4061	-0.149
Mof_H 	H 	0.5188	0.4554	0.3849	0.083
Mof_C 	C 	0.9727	0.3518	0.8825	0.078
Mof_H 	H 	0.955	0.3584	0.8426	-0.022
Mof_C 	C 	0.711	0.4474	0.7387	0.084
Mof_H 	H 	0.6879	0.4234	0.7578	-0.017
Mof_C 	C 	0.805	0.5057	0.7411	0.086
Mof_H 	H 	0.8489	0.5236	0.7623	-0.029
Mof_C 	C 	0.4436	0.3828	0.3781	0.093
Mof_H 	H 	0.4246	0.3808	0.3379	-0.01
Mof_C 	C 	0.7772	0.5169	0.6821	-0.154
Mof_H 	H 	0.8017	0.5403	0.6641	0.076
Mof_C 	C 	0.3265	0.2068	0.2423	0.095
Mof_H 	H 	0.3653	0.1784	0.2648	-0.024
Mof_C 	C 	0.2451	0.2944	0.2355	0.072
Mof_H 	H 	0.2272	0.3303	0.2529	-0.018
Mof_C 	C 	0.3014	0.1978	0.1835	-0.151
Mof_H 	H 	0.3236	0.1665	0.167	0.087
Mof_C 	C 	0.2144	0.2866	0.1767	-0.14
Mof_H 	H 	0.1752	0.3147	0.1549	0.071
Mof_N 	N 	0.9393	0.3823	0.9103	-0.217
Mof_N 	N 	0.2956	0.0306	0.9167	-0.196
Mof_N 	N 	0.3003	0.2525	0.2696	-0.201
Mof_N 	N 	0.1482	0.2107	0.9712	-0.137
Mof_N 	N 	0.2376	0.1772	0.0616	-0.137
Mof_N 	N 	0.1523	0.266	0.0577	-0.142
Mof_N 	N 	0.4131	0.3432	0.4057	-0.191
Mof_N 	N 	0.7797	0.6866	0.4213	-0.209
Mof_N 	N 	0.7745	0.4718	0.77	-0.202
Mof_N 	N 	0.6251	0.5122	0.472	-0.142
Mof_N 	N 	0.7103	0.5488	0.5631	-0.149
Mof_N 	N 	0.6225	0.4622	0.5569	-0.138
_end
