data_functionalizedCrystal
_audit_creation_method	'EQeq! by Chris Wilmer'
_symmetry_space_group_name_H-M	'P1'
_symmetry_Int_Tables_number	1
_symmetry_cell_setting	triclinic
loop_
_symmetry_equiv_pos_as_xyz
  x,y,z
_cell_length_a	7.3162
_cell_length_b	19.404
_cell_length_c	26.155
_cell_angle_alpha	90
_cell_angle_beta	90
_cell_angle_gamma	90
loop_
_atom_site_label
_atom_site_type_symbol
_atom_site_fract_x
_atom_site_fract_y
_atom_site_fract_z
_atom_site_charge
Mof_Ba	Ba	0.39829	0.69374	0.99298	1.689
Mof_Ba	Ba	0.60171	0.30626	0.49298	1.777
Mof_Ba	Ba	0.89829	0.80626	0.99298	1.673
Mof_Ba	Ba	0.10171	0.19374	0.49298	1.761
Mof_H 	H 	0.1318	0.1251	0.028	0.11
Mof_H 	H 	0.1292	0.2276	0.9818	0.03
Mof_H 	H 	0.9798	0.3184	0.9419	0.058
Mof_H 	H 	0.2709	0.4095	0.7504	0.061
Mof_H 	H 	0.0697	0.2184	0.7297	0.074
Mof_H 	H 	0.03	0.4134	0.8055	0.061
Mof_H 	H 	0.3716	0.413	0.6678	0.02
Mof_H 	H 	0.1307	0.21	0.8175	0.07
Mof_H 	H 	0.1678	0.2211	0.6444	0
Mof_H 	H 	0.0274	0.9763	0.0642	0.264
Mof_H 	H 	0.9336	0.1275	0.8587	0.056
Mof_H 	H 	0.7966	0.4793	0.8444	0.058
Mof_H 	H 	0.0888	0.4287	0.9683	0.043
Mof_H 	H 	0.7502	0.5896	0.878	-0.007
Mof_H 	H 	0.9238	0.0273	0.9053	0.026
Mof_H 	H 	0.0582	0.5375	-0	0.082
Mof_H 	H 	0.8682	0.8749	0.528	0.019
Mof_H 	H 	0.8708	0.7724	0.4818	0.072
Mof_H 	H 	0.0202	0.6816	0.4419	0.052
Mof_H 	H 	0.7291	0.5905	0.2504	0.062
Mof_H 	H 	0.9303	0.7816	0.2297	0.074
Mof_H 	H 	0.97	0.5866	0.3055	0.054
Mof_H 	H 	0.6284	0.587	0.1678	0.023
Mof_H 	H 	0.8693	0.79	0.3175	0.062
Mof_H 	H 	0.8322	0.7789	0.1444	0.005
Mof_H 	H 	0.9726	0.0237	0.5642	0.275
Mof_H 	H 	0.0664	0.8725	0.3587	0.076
Mof_H 	H 	0.2034	0.5207	0.3444	0.08
Mof_H 	H 	0.9112	0.5713	0.4683	0.09
Mof_H 	H 	0.2498	0.4104	0.378	-0.029
Mof_H 	H 	0.0762	0.9727	0.4053	0.005
Mof_H 	H 	0.9418	0.4625	0.5	-0.021
Mof_H 	H 	0.6318	0.3749	0.028	0.116
Mof_H 	H 	0.6292	0.2724	0.9818	0.025
Mof_H 	H 	0.4798	0.1816	0.9419	0.07
Mof_H 	H 	0.7709	0.0905	0.7504	0.059
Mof_H 	H 	0.5697	0.2816	0.7297	0.073
Mof_H 	H 	0.53	0.0866	0.8055	0.064
Mof_H 	H 	0.8716	0.087	0.6678	0.021
Mof_H 	H 	0.6307	0.29	0.8175	0.073
Mof_H 	H 	0.6678	0.2789	0.6444	0.002
Mof_H 	H 	0.5274	0.5237	0.0642	0.261
Mof_H 	H 	0.4336	0.3725	0.8587	0.052
Mof_H 	H 	0.2966	0.0207	0.8444	0.059
Mof_H 	H 	0.5888	0.0713	0.9683	0.043
Mof_H 	H 	0.2502	0.9104	0.878	-0.007
Mof_H 	H 	0.4238	0.4727	0.9053	0.029
Mof_H 	H 	0.5582	0.9625	-0	0.084
Mof_H 	H 	0.3682	0.6251	0.528	0.018
Mof_H 	H 	0.3708	0.7276	0.4818	0.07
Mof_H 	H 	0.5202	0.8184	0.4419	0.062
Mof_H 	H 	0.2291	0.9095	0.2504	0.061
Mof_H 	H 	0.4303	0.7184	0.2297	0.073
Mof_H 	H 	0.47	0.9134	0.3055	0.059
Mof_H 	H 	0.1284	0.913	0.1678	0.025
Mof_H 	H 	0.3693	0.71	0.3175	0.065
Mof_H 	H 	0.3322	0.7211	0.1444	0.007
Mof_H 	H 	0.4726	0.4763	0.5642	0.273
Mof_H 	H 	0.5664	0.6275	0.3587	0.075
Mof_H 	H 	0.7034	0.9793	0.3444	0.073
Mof_H 	H 	0.4112	0.9287	0.4683	0.082
Mof_H 	H 	0.7498	0.0896	0.378	-0.022
Mof_H 	H 	0.5762	0.5273	0.4053	0.003
Mof_H 	H 	0.4418	0.0375	0.5	-0.014
Mof_C 	C 	0.0979	0.3116	0.8038	0.038
Mof_C 	C 	0.0897	0.1255	0.994	-0.096
Mof_C 	C 	0.0921	0.1866	0.9656	-0.035
Mof_C 	C 	0.1579	0.313	0.7488	0.045
Mof_C 	C 	0.2677	0.316	0.6457	-0.141
Mof_C 	C 	0.0048	0.3166	0.9066	-0.096
Mof_C 	C 	0.2496	0.3716	0.7288	-0.116
Mof_C 	C 	0.1287	0.2579	0.717	-0.123
Mof_C 	C 	0.0398	0.3735	0.8256	-0.106
Mof_C 	C 	0.9957	0.3757	0.8782	0.037
Mof_C 	C 	0.3073	0.3744	0.6799	0.038
Mof_C 	C 	0.098	0.2521	0.8328	-0.109
Mof_C 	C 	0.0509	0.2532	0.8839	0.051
Mof_C 	C 	0.0412	0.1891	0.914	0.01
Mof_C 	C 	0.1866	0.2599	0.6653	0.062
Mof_C 	C 	0.3354	0.3181	0.5912	0.368
Mof_C 	C 	0.0138	0.9996	0.9987	0.346
Mof_C 	C 	0.0247	0.0656	0.9716	-0.077
Mof_C 	C 	0.9516	0.4444	0.9015	0.021
Mof_C 	C 	0.9746	0.1277	0.8928	-0.079
Mof_C 	C 	0.8496	0.4913	0.8759	-0.105
Mof_C 	C 	0.0246	0.4619	0.9493	-0.055
Mof_C 	C 	0.8222	0.5575	0.8958	0.031
Mof_C 	C 	0.9678	0.0678	0.9208	0.003
Mof_C 	C 	0.0036	0.5261	0.9686	-0.051
Mof_C 	C 	0.9022	0.5757	0.9424	-0.138
Mof_C 	C 	0.8908	0.6497	0.9608	0.388
Mof_C 	C 	0.9021	0.6884	0.3038	0.022
Mof_C 	C 	0.9103	0.8745	0.494	0.071
Mof_C 	C 	0.9079	0.8134	0.4656	-0.132
Mof_C 	C 	0.8421	0.687	0.2488	0.05
Mof_C 	C 	0.7323	0.684	0.1457	-0.133
Mof_C 	C 	0.9952	0.6834	0.4066	-0.069
Mof_C 	C 	0.7504	0.6284	0.2288	-0.117
Mof_C 	C 	0.8713	0.7421	0.217	-0.123
Mof_C 	C 	0.9602	0.6265	0.3256	-0.085
Mof_C 	C 	0.0043	0.6243	0.3782	0.004
Mof_C 	C 	0.6927	0.6256	0.1799	0.037
Mof_C 	C 	0.902	0.7479	0.3328	-0.086
Mof_C 	C 	0.9491	0.7468	0.3839	0.018
Mof_C 	C 	0.9588	0.8109	0.414	0.068
Mof_C 	C 	0.8134	0.7401	0.1653	0.059
Mof_C 	C 	0.6646	0.6819	0.0912	0.361
Mof_C 	C 	0.9862	0.0004	0.4987	0.432
Mof_C 	C 	0.9753	0.9344	0.4716	-0.161
Mof_C 	C 	0.0484	0.5556	0.4015	0.088
Mof_C 	C 	0.0254	0.8723	0.3928	-0.137
Mof_C 	C 	0.1504	0.5087	0.3759	-0.169
Mof_C 	C 	0.9754	0.5381	0.4493	-0.168
Mof_C 	C 	0.1778	0.4425	0.3958	0.095
Mof_C 	C 	0.0322	0.9322	0.4208	0.071
Mof_C 	C 	0.9964	0.4739	0.4686	0.125
Mof_C 	C 	0.0978	0.4243	0.4424	-0.216
Mof_C 	C 	0.1092	0.3503	0.4608	0.426
Mof_C 	C 	0.5979	0.1884	0.8038	0.047
Mof_C 	C 	0.5897	0.3745	0.994	-0.109
Mof_C 	C 	0.5921	0.3134	0.9656	-0.024
Mof_C 	C 	0.6579	0.187	0.7488	0.04
Mof_C 	C 	0.7677	0.184	0.6457	-0.138
Mof_C 	C 	0.5048	0.1834	0.9066	-0.121
Mof_C 	C 	0.7496	0.1284	0.7288	-0.113
Mof_C 	C 	0.6287	0.2421	0.717	-0.119
Mof_C 	C 	0.5398	0.1265	0.8256	-0.12
Mof_C 	C 	0.4957	0.1243	0.8782	0.053
Mof_C 	C 	0.8073	0.1256	0.6799	0.036
Mof_C 	C 	0.598	0.2479	0.8328	-0.121
Mof_C 	C 	0.5509	0.2468	0.8839	0.066
Mof_C 	C 	0.5412	0.3109	0.914	-0.006
Mof_C 	C 	0.6866	0.2401	0.6653	0.06
Mof_C 	C 	0.8354	0.1819	0.5912	0.368
Mof_C 	C 	0.5138	0.5004	0.9987	0.33
Mof_C 	C 	0.5247	0.4344	0.9716	-0.069
Mof_C 	C 	0.4516	0.0556	0.9015	0.023
Mof_C 	C 	0.4746	0.3723	0.8928	-0.065
Mof_C 	C 	0.3496	0.0087	0.8759	-0.109
Mof_C 	C 	0.5246	0.0381	0.9493	-0.061
Mof_C 	C 	0.3222	0.9425	0.8958	0.036
Mof_C 	C 	0.4678	0.4322	0.9208	-0.001
Mof_C 	C 	0.5036	0.9739	0.9686	-0.056
Mof_C 	C 	0.4022	0.9243	0.9424	-0.133
Mof_C 	C 	0.3908	0.8503	0.9608	0.395
Mof_C 	C 	0.4021	0.8116	0.3038	0.032
Mof_C 	C 	0.4103	0.6255	0.494	0.07
Mof_C 	C 	0.4079	0.6866	0.4656	-0.129
Mof_C 	C 	0.3421	0.813	0.2488	0.045
Mof_C 	C 	0.2323	0.816	0.1457	-0.13
Mof_C 	C 	0.4952	0.8166	0.4066	-0.092
Mof_C 	C 	0.2504	0.8716	0.2288	-0.113
Mof_C 	C 	0.3713	0.7579	0.217	-0.119
Mof_C 	C 	0.4602	0.8735	0.3256	-0.1
Mof_C 	C 	0.5043	0.8757	0.3782	0.024
Mof_C 	C 	0.1927	0.8744	0.1799	0.035
Mof_C 	C 	0.402	0.7521	0.3328	-0.097
Mof_C 	C 	0.4491	0.7532	0.3839	0.03
Mof_C 	C 	0.4588	0.6891	0.414	0.06
Mof_C 	C 	0.3134	0.7599	0.1653	0.057
Mof_C 	C 	0.1646	0.8181	0.0912	0.361
Mof_C 	C 	0.4862	0.4996	0.4987	0.429
Mof_C 	C 	0.4753	0.5656	0.4716	-0.168
Mof_C 	C 	0.5484	0.9444	0.4015	0.073
Mof_C 	C 	0.5254	0.6277	0.3928	-0.132
Mof_C 	C 	0.6504	0.9913	0.3759	-0.146
Mof_C 	C 	0.4754	0.9619	0.4493	-0.147
Mof_C 	C 	0.6778	0.0575	0.3958	0.074
Mof_C 	C 	0.5322	0.5678	0.4208	0.075
Mof_C 	C 	0.4964	0.0261	0.4686	0.095
Mof_C 	C 	0.5978	0.0757	0.4424	-0.196
Mof_C 	C 	0.6092	0.1497	0.4608	0.426
Mof_O 	O 	0.7497	0.6831	0.9517	-0.558
Mof_O 	O 	0.0268	0.6717	0.9857	-0.561
Mof_O 	O 	0.9391	0.9481	0.9801	-0.435
Mof_O 	O 	0.4292	0.3704	0.5771	-0.4
Mof_O 	O 	0.3069	0.2668	0.56387	-0.502
Mof_O 	O 	0.0926	0.9982	0.0439	-0.424
Mof_O 	O 	0.2503	0.3169	0.4517	-0.573
Mof_O 	O 	0.9732	0.3283	0.4857	-0.565
Mof_O 	O 	0.0609	0.0519	0.4801	-0.452
Mof_O 	O 	0.5708	0.6296	0.0771	-0.375
Mof_O 	O 	0.6931	0.7332	0.06387	-0.464
Mof_O 	O 	0.9074	0.0018	0.5439	-0.494
Mof_O 	O 	0.2497	0.8169	0.9517	-0.557
Mof_O 	O 	0.5268	0.8283	0.9857	-0.568
Mof_O 	O 	0.4391	0.5519	0.9801	-0.427
Mof_O 	O 	0.9292	0.1296	0.5771	-0.397
Mof_O 	O 	0.8069	0.2332	0.56387	-0.5
Mof_O 	O 	0.5926	0.5018	0.0439	-0.422
Mof_O 	O 	0.7503	0.1831	0.4517	-0.57
Mof_O 	O 	0.4732	0.1717	0.4857	-0.571
Mof_O 	O 	0.5609	0.4481	0.4801	-0.446
Mof_O 	O 	0.0708	0.8704	0.0771	-0.371
Mof_O 	O 	0.1931	0.7668	0.06387	-0.463
Mof_O 	O 	0.4074	0.4982	0.5439	-0.492
_end
