# CIF file generated by openbabel 3.1.0, see https://openbabel.org
data_I
_chemical_name_common 'image0'
_cell_length_a 13.202
_cell_length_b 27.475
_cell_length_c 7.641
_cell_angle_alpha 90
_cell_angle_beta 123.254
_cell_angle_gamma 90
_space_group_name_H-M_alt 'P 1'
_space_group_name_Hall 'P 1'
loop_
    _symmetry_equiv_pos_as_xyz
    x,y,z
loop_
    _atom_site_label
    _atom_site_type_symbol
    _atom_site_fract_x
    _atom_site_fract_y
    _atom_site_fract_z
    _atom_site_occupancy
    C1       C        0.92500    0.28360    0.49740    1.000
    H1       H        0.94710    0.31210    0.46090    1.000
    C2       C        0.86900    0.24640    0.35430    1.000
    H2       H        0.84830    0.25060    0.21770    1.000
    C3       C        0.84330    0.20260    0.41320    1.000
    C4       C        0.87000    0.19750    0.61510    1.000
    H3       H        0.85000    0.16880    0.65390    1.000
    C5       C        0.92730    0.23550    0.76130    1.000
    H4       H        0.95030    0.23130    0.89920    1.000
    C6       C        0.94820    0.27800    0.69810    1.000
    C7       C        0.99950    0.32150    0.84530    1.000
    C8       C        0.04450    0.32570    0.04910    1.000
    H5       H        0.05400    0.29990    0.13570    1.000
    C9       C        0.04580    0.39620    0.95230    1.000
    H6       H        0.05580    0.42970    0.95070    1.000
    C10      C        0.77880    0.16050    0.26520    1.000
    C11      C        0.60870    0.56310    0.67520    1.000
    H7       H        0.55160    0.58740    0.64020    1.000
    C12      C        0.72850    0.57500    0.75380    1.000
    H8       H        0.75300    0.60730    0.78400    1.000
    C13      C        0.81540    0.53810    0.78930    1.000
    C14      C        0.77890    0.49090    0.75630    1.000
    H9       H        0.83510    0.46630    0.78990    1.000
    C15      C        0.66130    0.47950    0.67480    1.000
    H10      H        0.63720    0.44740    0.63380    1.000
    C16      C        0.57430    0.51260    0.64870    1.000
    C17      C        0.45120    0.49860    0.56260    1.000
    C18      C        0.40370    0.45340    0.56670    1.000
    H11      H        0.44760    0.42460    0.61870    1.000
    C19      C        0.25490    0.50630    0.42980    1.000
    H12      H        0.17760    0.51950    0.36660    1.000
    C20      C        0.94490    0.55230    0.86110    1.000
    Cd1      Cd       0.15111    0.40207    0.43916    1.000
    N1       N        0.07460    0.37270    0.11410    1.000
    N2       N        0.99960    0.36830    0.78380    1.000
    H13      H        0.97440    0.37780    0.65900    1.000
    N3       N        0.28340    0.45840    0.48240    1.000
    N4       N        0.35560    0.53140    0.48360    1.000
    H14      H        0.36010    0.56230    0.47130    1.000
    O1       O        0.73200    0.17220    0.06760    1.000
    O2       O        0.77360    0.12190    0.30850    1.000
    O3       O        0.01090    0.52370    0.85000    1.000
    O4       O        0.97330    0.59620    0.92210    1.000
    C21      C        0.42500    0.78360    0.49740    1.000
    H15      H        0.44710    0.81210    0.46090    1.000
    C22      C        0.36900    0.74640    0.35430    1.000
    H16      H        0.34830    0.75060    0.21770    1.000
    C23      C        0.34330    0.70260    0.41320    1.000
    C24      C        0.37000    0.69750    0.61510    1.000
    H17      H        0.35000    0.66880    0.65390    1.000
    C25      C        0.42730    0.73550    0.76130    1.000
    H18      H        0.45030    0.73130    0.89920    1.000
    C26      C        0.44820    0.77800    0.69810    1.000
    C27      C        0.49950    0.82150    0.84530    1.000
    C28      C        0.54450    0.82570    0.04910    1.000
    H19      H        0.55400    0.79990    0.13570    1.000
    C29      C        0.54580    0.89620    0.95230    1.000
    H20      H        0.55580    0.92970    0.95070    1.000
    C30      C        0.27880    0.66050    0.26520    1.000
    C31      C        0.10870    0.06310    0.67520    1.000
    H21      H        0.05160    0.08740    0.64020    1.000
    C32      C        0.22850    0.07500    0.75380    1.000
    H22      H        0.25300    0.10730    0.78400    1.000
    C33      C        0.31540    0.03810    0.78930    1.000
    C34      C        0.27890    0.99090    0.75630    1.000
    H23      H        0.33510    0.96630    0.78990    1.000
    C35      C        0.16130    0.97950    0.67480    1.000
    H24      H        0.13720    0.94740    0.63380    1.000
    C36      C        0.07430    0.01260    0.64870    1.000
    C37      C        0.95120    0.99860    0.56260    1.000
    C38      C        0.90370    0.95340    0.56670    1.000
    H25      H        0.94760    0.92460    0.61870    1.000
    C39      C        0.75490    0.00630    0.42980    1.000
    H26      H        0.67760    0.01950    0.36660    1.000
    C40      C        0.44490    0.05230    0.86110    1.000
    Cd2      Cd       0.65111    0.90207    0.43916    1.000
    N5       N        0.57460    0.87270    0.11410    1.000
    N6       N        0.49960    0.86830    0.78380    1.000
    H27      H        0.47440    0.87780    0.65900    1.000
    N7       N        0.78340    0.95840    0.48240    1.000
    N8       N        0.85560    0.03140    0.48360    1.000
    H28      H        0.86010    0.06230    0.47130    1.000
    O5       O        0.23200    0.67220    0.06760    1.000
    O6       O        0.27360    0.62190    0.30850    1.000
    O7       O        0.51090    0.02370    0.85000    1.000
    O8       O        0.47330    0.09620    0.92210    1.000
    C41      C        0.92500    0.71640    0.99740    1.000
    H29      H        0.94710    0.68790    0.96090    1.000
    C42      C        0.86900    0.75360    0.85430    1.000
    H30      H        0.84830    0.74940    0.71770    1.000
    C43      C        0.84330    0.79740    0.91320    1.000
    C44      C        0.87000    0.80250    0.11510    1.000
    H31      H        0.85000    0.83120    0.15390    1.000
    C45      C        0.92730    0.76450    0.26130    1.000
    H32      H        0.95030    0.76870    0.39920    1.000
    C46      C        0.94820    0.72200    0.19810    1.000
    C47      C        0.99950    0.67850    0.34530    1.000
    C48      C        0.04450    0.67430    0.54910    1.000
    H33      H        0.05400    0.70010    0.63570    1.000
    C49      C        0.04580    0.60380    0.45230    1.000
    H34      H        0.05580    0.57030    0.45070    1.000
    C50      C        0.77880    0.83950    0.76520    1.000
    C51      C        0.60870    0.43690    0.17520    1.000
    H35      H        0.55160    0.41260    0.14020    1.000
    C52      C        0.72850    0.42500    0.25380    1.000
    H36      H        0.75300    0.39270    0.28400    1.000
    C53      C        0.81540    0.46190    0.28930    1.000
    C54      C        0.77890    0.50910    0.25630    1.000
    H37      H        0.83510    0.53370    0.28990    1.000
    C55      C        0.66130    0.52050    0.17480    1.000
    H38      H        0.63720    0.55260    0.13380    1.000
    C56      C        0.57430    0.48740    0.14870    1.000
    C57      C        0.45120    0.50140    0.06260    1.000
    C58      C        0.40370    0.54660    0.06670    1.000
    H39      H        0.44760    0.57540    0.11870    1.000
    C59      C        0.25490    0.49370    0.92980    1.000
    H40      H        0.17760    0.48050    0.86660    1.000
    C60      C        0.94490    0.44770    0.36110    1.000
    Cd3      Cd       0.15111    0.59793    0.93916    1.000
    N9       N        0.07460    0.62730    0.61410    1.000
    N10      N        0.99960    0.63170    0.28380    1.000
    H41      H        0.97440    0.62220    0.15900    1.000
    N11      N        0.28340    0.54160    0.98240    1.000
    N12      N        0.35560    0.46860    0.98360    1.000
    H42      H        0.36010    0.43770    0.97130    1.000
    O9       O        0.73200    0.82780    0.56760    1.000
    O10      O        0.77360    0.87810    0.80850    1.000
    O11      O        0.01090    0.47630    0.35000    1.000
    O12      O        0.97330    0.40380    0.42210    1.000
    C61      C        0.42500    0.21640    0.99740    1.000
    H43      H        0.44710    0.18790    0.96090    1.000
    C62      C        0.36900    0.25360    0.85430    1.000
    H44      H        0.34830    0.24940    0.71770    1.000
    C63      C        0.34330    0.29740    0.91320    1.000
    C64      C        0.37000    0.30250    0.11510    1.000
    H45      H        0.35000    0.33120    0.15390    1.000
    C65      C        0.42730    0.26450    0.26130    1.000
    H46      H        0.45030    0.26870    0.39920    1.000
    C66      C        0.44820    0.22200    0.19810    1.000
    C67      C        0.49950    0.17850    0.34530    1.000
    C68      C        0.54450    0.17430    0.54910    1.000
    H47      H        0.55400    0.20010    0.63570    1.000
    C69      C        0.54580    0.10380    0.45230    1.000
    H48      H        0.55580    0.07030    0.45070    1.000
    C70      C        0.27880    0.33950    0.76520    1.000
    C71      C        0.10870    0.93690    0.17520    1.000
    H49      H        0.05160    0.91260    0.14020    1.000
    C72      C        0.22850    0.92500    0.25380    1.000
    H50      H        0.25300    0.89270    0.28400    1.000
    C73      C        0.31540    0.96190    0.28930    1.000
    C74      C        0.27890    0.00910    0.25630    1.000
    H51      H        0.33510    0.03370    0.28990    1.000
    C75      C        0.16130    0.02050    0.17480    1.000
    H52      H        0.13720    0.05260    0.13380    1.000
    C76      C        0.07430    0.98740    0.14870    1.000
    C77      C        0.95120    0.00140    0.06260    1.000
    C78      C        0.90370    0.04660    0.06670    1.000
    H53      H        0.94760    0.07540    0.11870    1.000
    C79      C        0.75490    0.99370    0.92980    1.000
    H54      H        0.67760    0.98050    0.86660    1.000
    C80      C        0.44490    0.94770    0.36110    1.000
    Cd4      Cd       0.65111    0.09793    0.93916    1.000
    N13      N        0.57460    0.12730    0.61410    1.000
    N14      N        0.49960    0.13170    0.28380    1.000
    H55      H        0.47440    0.12220    0.15900    1.000
    N15      N        0.78340    0.04160    0.98240    1.000
    N16      N        0.85560    0.96860    0.98360    1.000
    H56      H        0.86010    0.93770    0.97130    1.000
    O13      O        0.23200    0.32780    0.56760    1.000
    O14      O        0.27360    0.37810    0.80850    1.000
    O15      O        0.51090    0.97630    0.35000    1.000
    O16      O        0.47330    0.90380    0.42210    1.000
