# CIF file generated by openbabel 3.1.0, see https://openbabel.org
data_I
_chemical_name_common 'image0'
_cell_length_a 30.41
_cell_length_b 17.909
_cell_length_c 10.567
_cell_angle_alpha 90
_cell_angle_beta 107.1
_cell_angle_gamma 90
_space_group_name_H-M_alt 'P 1'
_space_group_name_Hall 'P 1'
loop_
    _symmetry_equiv_pos_as_xyz
    x,y,z
loop_
    _atom_site_label
    _atom_site_type_symbol
    _atom_site_fract_x
    _atom_site_fract_y
    _atom_site_fract_z
    _atom_site_occupancy
    W1       W        0.60843    0.81570    0.34243    1.000
    W2       W        0.89161    0.63060    0.15819    1.000
    Co1      Co       0.42394    0.83530    0.18350    1.000
    Co2      Co       0.57647    0.11110    0.31890    1.000
    Co3      Co       0.75000    0.72450    0.75030    1.000
    N1       N        0.34830    0.83930    0.09300    1.000
    C1       C        0.32310    0.87630    0.98100    1.000
    H1       H        0.33830    0.90530    0.93170    1.000
    C2       C        0.27610    0.87100    0.94200    1.000
    H2       H        0.25870    0.89700    0.86470    1.000
    C3       C        0.25420    0.83000    0.01400    1.000
    H3       H        0.22160    0.82620    0.98620    1.000
    N2       N        0.27930    0.79260    0.12500    1.000
    C4       C        0.32640    0.79750    0.16450    1.000
    H4       H        0.34380    0.77190    0.24180    1.000
    N3       N        0.42150    0.71240    0.18200    1.000
    C5       C        0.40520    0.66780    0.07300    1.000
    H5       H        0.39220    0.68970    0.98840    1.000
    C6       C        0.40750    0.59170    0.08600    1.000
    H6       H        0.39620    0.56080    0.01030    1.000
    C7       C        0.42630    0.56010    0.20800    1.000
    C8       C        0.44260    0.60460    0.31730    1.000
    H7       H        0.45560    0.58280    0.40200    1.000
    C9       C        0.44020    0.68080    0.30400    1.000
    H8       H        0.45150    0.71170    0.38010    1.000
    C10      C        0.42800    0.47500    0.23100    1.000
    H9       H        0.39560    0.46010    0.22550    1.000
    C11      C        0.43570    0.44800    0.10500    1.000
    H10      H        0.45460    0.40260    0.12360    1.000
    H11      H        0.45170    0.48670    0.07030    1.000
    H12      H        0.40610    0.43680    0.04030    1.000
    O1       O        0.45600    0.44100    0.34700    1.000
    H13      H        0.47630    0.41520    0.32830    1.000
    N4       N        0.65100    0.11630    0.39600    1.000
    C12      C        0.67480    0.16330    0.33660    1.000
    H14      H        0.65850    0.19490    0.26600    1.000
    N5       N        0.72210    0.16470    0.38000    1.000
    C13      C        0.74550    0.11910    0.48200    1.000
    H15      H        0.77820    0.12000    0.51140    1.000
    C14      C        0.72180    0.07210    0.54100    1.000
    H16      H        0.73800    0.04050    0.61160    1.000
    C15      C        0.67450    0.07070    0.49800    1.000
    H17      H        0.65800    0.03820    0.53900    1.000
    N6       N        0.57540    0.23190    0.30100    1.000
    C16      C        0.59730    0.26920    0.41520    1.000
    H18      H        0.61050    0.24200    0.49460    1.000
    C17      C        0.60020    0.34550    0.41500    1.000
    H19      H        0.61540    0.37130    0.49450    1.000
    C18      C        0.58120    0.38460    0.30100    1.000
    C19      C        0.55930    0.34740    0.18600    1.000
    H20      H        0.54610    0.37450    0.10680    1.000
    C20      C        0.55640    0.27100    0.18600    1.000
    H21      H        0.54120    0.24520    0.10690    1.000
    C21      C        0.58380    0.47060    0.29200    1.000
    H22      H        0.55740    0.49450    0.22480    1.000
    C22      C        0.59090    0.49600    0.43200    1.000
    H23      H        0.57370    0.54270    0.43120    1.000
    H24      H        0.62370    0.50530    0.47430    1.000
    H25      H        0.57980    0.45790    0.48090    1.000
    O2       O        0.62880    0.48600    0.27700    1.000
    H26      H        0.62870    0.47510    0.19930    1.000
    C23      C        0.53580    0.82600    0.28000    1.000
    N7       N        0.49410    0.82450    0.25700    1.000
    C24      C        0.60430    0.81910    0.50290    1.000
    N8       N        0.58110    0.83580    0.61070    1.000
    C25      C        0.58930    0.93040    0.33100    1.000
    N9       N        0.58000    0.00010    0.33000    1.000
    C26      C        0.58830    0.82740    0.14590    1.000
    N10      N        0.57540    0.83240    0.02100    1.000
    C27      C        0.57400    0.70700    0.32900    1.000
    N11      N        0.58100    0.65300    0.27800    1.000
    C28      C        0.58620    0.70400    0.36600    1.000
    N12      N        0.56880    0.64800    0.37800    1.000
    C29      C        0.66540    0.78510    0.50200    1.000
    N13      N        0.69290    0.74500    0.57900    1.000
    C30      C        0.66710    0.88000    0.34100    1.000
    N14      N        0.69700    0.91700    0.33000    1.000
    C31      C        0.65300    0.74820    0.26200    1.000
    N15      N        0.66620    0.69700    0.20500    1.000
    C32      C        0.83940    0.68450    0.00000    1.000
    N16      N        0.80120    0.68400    0.90600    1.000
    C33      C        0.59140    0.11060    0.03070    1.000
    N17      N        0.58570    0.10550    0.13820    1.000
    C34      C        0.46540    0.12560    0.20900    1.000
    N18      N        0.50560    0.11170    0.24400    1.000
    C35      C        0.58390    0.11500    0.62120    1.000
    N19      N        0.57570    0.11140    0.50260    1.000
    C36      C        0.91870    0.74200    0.14300    1.000
    N20      N        0.93110    0.79800    0.12900    1.000
    C37      C        0.83370    0.56100    0.17200    1.000
    N21      N        0.80180    0.52800    0.17300    1.000
    C38      C        0.85380    0.70800    0.25000    1.000
    N22      N        0.82470    0.74000    0.27700    1.000
    C39      C        0.63700    0.22300    0.75700    1.000
    N23      N        0.66200    0.27200    0.77600    1.000
    C40      C        0.40820    0.01500    0.16400    1.000
    N24      N        0.41830    0.95570    0.17600    1.000
    W3       W        0.10843    0.31570    0.34243    1.000
    W4       W        0.39161    0.13060    0.15819    1.000
    Co4      Co       0.92394    0.33530    0.18350    1.000
    Co5      Co       0.07647    0.61110    0.31890    1.000
    Co6      Co       0.25000    0.22450    0.75030    1.000
    N25      N        0.84830    0.33930    0.09300    1.000
    C41      C        0.82310    0.37630    0.98100    1.000
    H27      H        0.83830    0.40530    0.93170    1.000
    C42      C        0.77610    0.37100    0.94200    1.000
    H28      H        0.75870    0.39700    0.86470    1.000
    C43      C        0.75420    0.33000    0.01400    1.000
    H29      H        0.72160    0.32620    0.98620    1.000
    N26      N        0.77930    0.29260    0.12500    1.000
    C44      C        0.82640    0.29750    0.16450    1.000
    H30      H        0.84380    0.27190    0.24180    1.000
    N27      N        0.92150    0.21240    0.18200    1.000
    C45      C        0.90520    0.16780    0.07300    1.000
    H31      H        0.89220    0.18970    0.98840    1.000
    C46      C        0.90750    0.09170    0.08600    1.000
    H32      H        0.89620    0.06080    0.01030    1.000
    C47      C        0.92630    0.06010    0.20800    1.000
    C48      C        0.94260    0.10460    0.31730    1.000
    H33      H        0.95560    0.08280    0.40200    1.000
    C49      C        0.94020    0.18080    0.30400    1.000
    H34      H        0.95150    0.21170    0.38010    1.000
    C50      C        0.92800    0.97500    0.23100    1.000
    H35      H        0.89560    0.96010    0.22550    1.000
    C51      C        0.93570    0.94800    0.10500    1.000
    H36      H        0.95460    0.90260    0.12360    1.000
    H37      H        0.95170    0.98670    0.07030    1.000
    H38      H        0.90610    0.93680    0.04030    1.000
    O3       O        0.95600    0.94100    0.34700    1.000
    H39      H        0.97630    0.91520    0.32830    1.000
    N28      N        0.15100    0.61630    0.39600    1.000
    C52      C        0.17480    0.66330    0.33660    1.000
    H40      H        0.15850    0.69490    0.26600    1.000
    N29      N        0.22210    0.66470    0.38000    1.000
    C53      C        0.24550    0.61910    0.48200    1.000
    H41      H        0.27820    0.62000    0.51140    1.000
    C54      C        0.22180    0.57210    0.54100    1.000
    H42      H        0.23800    0.54050    0.61160    1.000
    C55      C        0.17450    0.57070    0.49800    1.000
    H43      H        0.15800    0.53820    0.53900    1.000
    N30      N        0.07540    0.73190    0.30100    1.000
    C56      C        0.09730    0.76920    0.41520    1.000
    H44      H        0.11050    0.74200    0.49460    1.000
    C57      C        0.10020    0.84550    0.41500    1.000
    H45      H        0.11540    0.87130    0.49450    1.000
    C58      C        0.08120    0.88460    0.30100    1.000
    C59      C        0.05930    0.84740    0.18600    1.000
    H46      H        0.04610    0.87450    0.10680    1.000
    C60      C        0.05640    0.77100    0.18600    1.000
    H47      H        0.04120    0.74520    0.10690    1.000
    C61      C        0.08380    0.97060    0.29200    1.000
    H48      H        0.05740    0.99450    0.22480    1.000
    C62      C        0.09090    0.99600    0.43200    1.000
    H49      H        0.07370    0.04270    0.43120    1.000
    H50      H        0.12370    0.00530    0.47430    1.000
    H51      H        0.07980    0.95790    0.48090    1.000
    O4       O        0.12880    0.98600    0.27700    1.000
    H52      H        0.12870    0.97510    0.19930    1.000
    C63      C        0.03580    0.32600    0.28000    1.000
    N31      N        0.99410    0.32450    0.25700    1.000
    C64      C        0.10430    0.31910    0.50290    1.000
    N32      N        0.08110    0.33580    0.61070    1.000
    C65      C        0.08930    0.43040    0.33100    1.000
    N33      N        0.08000    0.50010    0.33000    1.000
    C66      C        0.08830    0.32740    0.14590    1.000
    N34      N        0.07540    0.33240    0.02100    1.000
    C67      C        0.07400    0.20700    0.32900    1.000
    N35      N        0.08100    0.15300    0.27800    1.000
    C68      C        0.08620    0.20400    0.36600    1.000
    N36      N        0.06880    0.14800    0.37800    1.000
    C69      C        0.16540    0.28510    0.50200    1.000
    N37      N        0.19290    0.24500    0.57900    1.000
    C70      C        0.16710    0.38000    0.34100    1.000
    N38      N        0.19700    0.41700    0.33000    1.000
    C71      C        0.15300    0.24820    0.26200    1.000
    N39      N        0.16620    0.19700    0.20500    1.000
    C72      C        0.33940    0.18450    0.00000    1.000
    N40      N        0.30120    0.18400    0.90600    1.000
    C73      C        0.09140    0.61060    0.03070    1.000
    N41      N        0.08570    0.60550    0.13820    1.000
    C74      C        0.96540    0.62560    0.20900    1.000
    N42      N        0.00560    0.61170    0.24400    1.000
    C75      C        0.08390    0.61500    0.62120    1.000
    N43      N        0.07570    0.61140    0.50260    1.000
    C76      C        0.41870    0.24200    0.14300    1.000
    N44      N        0.43110    0.29800    0.12900    1.000
    C77      C        0.33370    0.06100    0.17200    1.000
    N45      N        0.30180    0.02800    0.17300    1.000
    C78      C        0.35380    0.20800    0.25000    1.000
    N46      N        0.32470    0.24000    0.27700    1.000
    C79      C        0.13700    0.72300    0.75700    1.000
    N47      N        0.16200    0.77200    0.77600    1.000
    C80      C        0.90820    0.51500    0.16400    1.000
    N48      N        0.91830    0.45570    0.17600    1.000
    W5       W        0.39157    0.81570    0.65757    1.000
    W6       W        0.10839    0.63060    0.84181    1.000
    Co7      Co       0.57606    0.83530    0.81650    1.000
    Co8      Co       0.42353    0.11110    0.68110    1.000
    Co9      Co       0.25000    0.72450    0.24970    1.000
    N49      N        0.65170    0.83930    0.90700    1.000
    C81      C        0.67690    0.87630    0.01900    1.000
    H53      H        0.66170    0.90530    0.06830    1.000
    C82      C        0.72390    0.87100    0.05800    1.000
    H54      H        0.74130    0.89700    0.13530    1.000
    C83      C        0.74580    0.83000    0.98600    1.000
    H55      H        0.77840    0.82620    0.01380    1.000
    N50      N        0.72070    0.79260    0.87500    1.000
    C84      C        0.67360    0.79750    0.83550    1.000
    H56      H        0.65620    0.77190    0.75820    1.000
    N51      N        0.57850    0.71240    0.81800    1.000
    C85      C        0.59480    0.66780    0.92700    1.000
    H57      H        0.60780    0.68970    0.01160    1.000
    C86      C        0.59250    0.59170    0.91400    1.000
    H58      H        0.60380    0.56080    0.98970    1.000
    C87      C        0.57370    0.56010    0.79200    1.000
    C88      C        0.55740    0.60460    0.68270    1.000
    H59      H        0.54440    0.58280    0.59800    1.000
    C89      C        0.55980    0.68080    0.69600    1.000
    H60      H        0.54850    0.71170    0.61990    1.000
    C90      C        0.57200    0.47500    0.76900    1.000
    H61      H        0.60440    0.46010    0.77450    1.000
    C91      C        0.56430    0.44800    0.89500    1.000
    H62      H        0.54540    0.40260    0.87640    1.000
    H63      H        0.54830    0.48670    0.92970    1.000
    H64      H        0.59390    0.43680    0.95970    1.000
    O5       O        0.54400    0.44100    0.65300    1.000
    H65      H        0.52370    0.41520    0.67170    1.000
    N52      N        0.34900    0.11630    0.60400    1.000
    C92      C        0.32520    0.16330    0.66340    1.000
    H66      H        0.34150    0.19490    0.73400    1.000
    N53      N        0.27790    0.16470    0.62000    1.000
    C93      C        0.25450    0.11910    0.51800    1.000
    H67      H        0.22180    0.12000    0.48860    1.000
    C94      C        0.27820    0.07210    0.45900    1.000
    H68      H        0.26200    0.04050    0.38840    1.000
    C95      C        0.32550    0.07070    0.50200    1.000
    H69      H        0.34200    0.03820    0.46100    1.000
    N54      N        0.42460    0.23190    0.69900    1.000
    C96      C        0.40270    0.26920    0.58480    1.000
    H70      H        0.38950    0.24200    0.50540    1.000
    C97      C        0.39980    0.34550    0.58500    1.000
    H71      H        0.38460    0.37130    0.50550    1.000
    C98      C        0.41880    0.38460    0.69900    1.000
    C99      C        0.44070    0.34740    0.81400    1.000
    H72      H        0.45390    0.37450    0.89320    1.000
    C100     C        0.44360    0.27100    0.81400    1.000
    H73      H        0.45880    0.24520    0.89310    1.000
    C101     C        0.41620    0.47060    0.70800    1.000
    H74      H        0.44260    0.49450    0.77520    1.000
    C102     C        0.40910    0.49600    0.56800    1.000
    H75      H        0.42630    0.54270    0.56880    1.000
    H76      H        0.37630    0.50530    0.52570    1.000
    H77      H        0.42020    0.45790    0.51910    1.000
    O6       O        0.37120    0.48600    0.72300    1.000
    H78      H        0.37130    0.47510    0.80070    1.000
    C103     C        0.46420    0.82600    0.72000    1.000
    N55      N        0.50590    0.82450    0.74300    1.000
    C104     C        0.39570    0.81910    0.49710    1.000
    N56      N        0.41890    0.83580    0.38930    1.000
    C105     C        0.41070    0.93040    0.66900    1.000
    N57      N        0.42000    0.00010    0.67000    1.000
    C106     C        0.41170    0.82740    0.85410    1.000
    N58      N        0.42460    0.83240    0.97900    1.000
    C107     C        0.42600    0.70700    0.67100    1.000
    N59      N        0.41900    0.65300    0.72200    1.000
    C108     C        0.41380    0.70400    0.63400    1.000
    N60      N        0.43120    0.64800    0.62200    1.000
    C109     C        0.33460    0.78510    0.49800    1.000
    N61      N        0.30710    0.74500    0.42100    1.000
    C110     C        0.33290    0.88000    0.65900    1.000
    N62      N        0.30300    0.91700    0.67000    1.000
    C111     C        0.34700    0.74820    0.73800    1.000
    N63      N        0.33380    0.69700    0.79500    1.000
    C112     C        0.16060    0.68450    0.00000    1.000
    N64      N        0.19880    0.68400    0.09400    1.000
    C113     C        0.40860    0.11060    0.96930    1.000
    N65      N        0.41430    0.10550    0.86180    1.000
    C114     C        0.53460    0.12560    0.79100    1.000
    N66      N        0.49440    0.11170    0.75600    1.000
    C115     C        0.41610    0.11500    0.37880    1.000
    N67      N        0.42430    0.11140    0.49740    1.000
    C116     C        0.08130    0.74200    0.85700    1.000
    N68      N        0.06890    0.79800    0.87100    1.000
    C117     C        0.16630    0.56100    0.82800    1.000
    N69      N        0.19820    0.52800    0.82700    1.000
    C118     C        0.14620    0.70800    0.75000    1.000
    N70      N        0.17530    0.74000    0.72300    1.000
    C119     C        0.36300    0.22300    0.24300    1.000
    N71      N        0.33800    0.27200    0.22400    1.000
    C120     C        0.59180    0.01500    0.83600    1.000
    N72      N        0.58170    0.95570    0.82400    1.000
    W7       W        0.89157    0.31570    0.65757    1.000
    W8       W        0.60839    0.13060    0.84181    1.000
    Co10     Co       0.07606    0.33530    0.81650    1.000
    Co11     Co       0.92353    0.61110    0.68110    1.000
    Co12     Co       0.75000    0.22450    0.24970    1.000
    N73      N        0.15170    0.33930    0.90700    1.000
    C121     C        0.17690    0.37630    0.01900    1.000
    H79      H        0.16170    0.40530    0.06830    1.000
    C122     C        0.22390    0.37100    0.05800    1.000
    H80      H        0.24130    0.39700    0.13530    1.000
    C123     C        0.24580    0.33000    0.98600    1.000
    H81      H        0.27840    0.32620    0.01380    1.000
    N74      N        0.22070    0.29260    0.87500    1.000
    C124     C        0.17360    0.29750    0.83550    1.000
    H82      H        0.15620    0.27190    0.75820    1.000
    N75      N        0.07850    0.21240    0.81800    1.000
    C125     C        0.09480    0.16780    0.92700    1.000
    H83      H        0.10780    0.18970    0.01160    1.000
    C126     C        0.09250    0.09170    0.91400    1.000
    H84      H        0.10380    0.06080    0.98970    1.000
    C127     C        0.07370    0.06010    0.79200    1.000
    C128     C        0.05740    0.10460    0.68270    1.000
    H85      H        0.04440    0.08280    0.59800    1.000
    C129     C        0.05980    0.18080    0.69600    1.000
    H86      H        0.04850    0.21170    0.61990    1.000
    C130     C        0.07200    0.97500    0.76900    1.000
    H87      H        0.10440    0.96010    0.77450    1.000
    C131     C        0.06430    0.94800    0.89500    1.000
    H88      H        0.04540    0.90260    0.87640    1.000
    H89      H        0.04830    0.98670    0.92970    1.000
    H90      H        0.09390    0.93680    0.95970    1.000
    O7       O        0.04400    0.94100    0.65300    1.000
    H91      H        0.02370    0.91520    0.67170    1.000
    N76      N        0.84900    0.61630    0.60400    1.000
    C132     C        0.82520    0.66330    0.66340    1.000
    H92      H        0.84150    0.69490    0.73400    1.000
    N77      N        0.77790    0.66470    0.62000    1.000
    C133     C        0.75450    0.61910    0.51800    1.000
    H93      H        0.72180    0.62000    0.48860    1.000
    C134     C        0.77820    0.57210    0.45900    1.000
    H94      H        0.76200    0.54050    0.38840    1.000
    C135     C        0.82550    0.57070    0.50200    1.000
    H95      H        0.84200    0.53820    0.46100    1.000
    N78      N        0.92460    0.73190    0.69900    1.000
    C136     C        0.90270    0.76920    0.58480    1.000
    H96      H        0.88950    0.74200    0.50540    1.000
    C137     C        0.89980    0.84550    0.58500    1.000
    H97      H        0.88460    0.87130    0.50550    1.000
    C138     C        0.91880    0.88460    0.69900    1.000
    C139     C        0.94070    0.84740    0.81400    1.000
    H98      H        0.95390    0.87450    0.89320    1.000
    C140     C        0.94360    0.77100    0.81400    1.000
    H99      H        0.95880    0.74520    0.89310    1.000
    C141     C        0.91620    0.97060    0.70800    1.000
    H100     H        0.94260    0.99450    0.77520    1.000
    C142     C        0.90910    0.99600    0.56800    1.000
    H101     H        0.92630    0.04270    0.56880    1.000
    H102     H        0.87630    0.00530    0.52570    1.000
    H103     H        0.92020    0.95790    0.51910    1.000
    O8       O        0.87120    0.98600    0.72300    1.000
    H104     H        0.87130    0.97510    0.80070    1.000
    C143     C        0.96420    0.32600    0.72000    1.000
    N79      N        0.00590    0.32450    0.74300    1.000
    C144     C        0.89570    0.31910    0.49710    1.000
    N80      N        0.91890    0.33580    0.38930    1.000
    C145     C        0.91070    0.43040    0.66900    1.000
    N81      N        0.92000    0.50010    0.67000    1.000
    C146     C        0.91170    0.32740    0.85410    1.000
    N82      N        0.92460    0.33240    0.97900    1.000
    C147     C        0.92600    0.20700    0.67100    1.000
    N83      N        0.91900    0.15300    0.72200    1.000
    C148     C        0.91380    0.20400    0.63400    1.000
    N84      N        0.93120    0.14800    0.62200    1.000
    C149     C        0.83460    0.28510    0.49800    1.000
    N85      N        0.80710    0.24500    0.42100    1.000
    C150     C        0.83290    0.38000    0.65900    1.000
    N86      N        0.80300    0.41700    0.67000    1.000
    C151     C        0.84700    0.24820    0.73800    1.000
    N87      N        0.83380    0.19700    0.79500    1.000
    C152     C        0.66060    0.18450    0.00000    1.000
    N88      N        0.69880    0.18400    0.09400    1.000
    C153     C        0.90860    0.61060    0.96930    1.000
    N89      N        0.91430    0.60550    0.86180    1.000
    C154     C        0.03460    0.62560    0.79100    1.000
    N90      N        0.99440    0.61170    0.75600    1.000
    C155     C        0.91610    0.61500    0.37880    1.000
    N91      N        0.92430    0.61140    0.49740    1.000
    C156     C        0.58130    0.24200    0.85700    1.000
    N92      N        0.56890    0.29800    0.87100    1.000
    C157     C        0.66630    0.06100    0.82800    1.000
    N93      N        0.69820    0.02800    0.82700    1.000
    C158     C        0.64620    0.20800    0.75000    1.000
    N94      N        0.67530    0.24000    0.72300    1.000
    C159     C        0.86300    0.72300    0.24300    1.000
    N95      N        0.83800    0.77200    0.22400    1.000
    C160     C        0.09180    0.51500    0.83600    1.000
    N96      N        0.08170    0.45570    0.82400    1.000
