# CIF file generated by openbabel 3.1.0, see https://openbabel.org
data_I
_chemical_name_common 'LAVTEJ_clean'
_cell_length_a 10.32
_cell_length_b 10.32
_cell_length_c 14.5
_cell_angle_alpha 90
_cell_angle_beta 90
_cell_angle_gamma 90
_space_group_name_H-M_alt 'P 1'
_space_group_name_Hall 'P 1'
loop_
    _symmetry_equiv_pos_as_xyz
    x,y,z
loop_
    _atom_site_label
    _atom_site_type_symbol
    _atom_site_fract_x
    _atom_site_fract_y
    _atom_site_fract_z
    _atom_site_occupancy
    Dy1      Dy       0.85213    0.85213    0.87500    1.000
    Dy2      Dy       0.14787    0.14787    0.37500    1.000
    Dy3      Dy       0.14787    0.85213    0.12500    1.000
    Dy4      Dy       0.85213    0.14787    0.62500    1.000
    H1       H        0.92850    0.44110    0.87110    1.000
    H2       H        0.07150    0.55890    0.37110    1.000
    H3       H        0.55890    0.92850    0.12110    1.000
    H4       H        0.44110    0.07150    0.62110    1.000
    H5       H        0.07150    0.44110    0.12890    1.000
    H6       H        0.92850    0.55890    0.62890    1.000
    H7       H        0.44110    0.92850    0.87890    1.000
    H8       H        0.55890    0.07150    0.37890    1.000
    H9       H        0.00000    0.10290    0.00000    1.000
    H10      H        0.00000    0.89710    0.50000    1.000
    H11      H        0.89710    0.00000    0.25000    1.000
    H12      H        0.10290    0.00000    0.75000    1.000
    C1       C        0.95690    0.39580    0.92270    1.000
    C2       C        0.95640    0.26090    0.92290    1.000
    C3       C        0.91300    0.18540    0.83890    1.000
    C4       C        0.04310    0.60420    0.42270    1.000
    C5       C        0.04360    0.73910    0.42290    1.000
    C6       C        0.08700    0.81460    0.33890    1.000
    C7       C        0.60420    0.95690    0.17270    1.000
    C8       C        0.73910    0.95640    0.17290    1.000
    C9       C        0.81460    0.91300    0.08890    1.000
    C10      C        0.39580    0.04310    0.67270    1.000
    C11      C        0.26090    0.04360    0.67290    1.000
    C12      C        0.18540    0.08700    0.58890    1.000
    C13      C        0.04310    0.39580    0.07730    1.000
    C14      C        0.04360    0.26090    0.07710    1.000
    C15      C        0.08700    0.18540    0.16110    1.000
    C16      C        0.95690    0.60420    0.57730    1.000
    C17      C        0.95640    0.73910    0.57710    1.000
    C18      C        0.91300    0.81460    0.66110    1.000
    C19      C        0.39580    0.95690    0.82730    1.000
    C20      C        0.26090    0.95640    0.82710    1.000
    C21      C        0.18540    0.91300    0.91110    1.000
    C22      C        0.60420    0.04310    0.32730    1.000
    C23      C        0.73910    0.04360    0.32710    1.000
    C24      C        0.81460    0.08700    0.41110    1.000
    C25      C        0.00000    0.46270    0.00000    1.000
    C26      C        0.00000    0.61040    0.00000    1.000
    C27      C        0.00000    0.19300    0.00000    1.000
    C28      C        0.00000    0.53730    0.50000    1.000
    C29      C        0.00000    0.38960    0.50000    1.000
    C30      C        0.00000    0.80700    0.50000    1.000
    C31      C        0.53730    0.00000    0.25000    1.000
    C32      C        0.38960    0.00000    0.25000    1.000
    C33      C        0.80700    0.00000    0.25000    1.000
    C34      C        0.46270    0.00000    0.75000    1.000
    C35      C        0.61040    0.00000    0.75000    1.000
    C36      C        0.19300    0.00000    0.75000    1.000
    O1       O        0.90480    0.24360    0.76430    1.000
    O2       O        0.92910    0.66360    0.94160    1.000
    O3       O        0.89040    0.06930    0.84860    1.000
    O4       O        0.09520    0.75640    0.26430    1.000
    O5       O        0.07090    0.33640    0.44160    1.000
    O6       O        0.10960    0.93070    0.34860    1.000
    O7       O        0.75640    0.90480    0.01430    1.000
    O8       O        0.33640    0.92910    0.19160    1.000
    O9       O        0.93070    0.89040    0.09860    1.000
    O10      O        0.24360    0.09520    0.51430    1.000
    O11      O        0.66360    0.07090    0.69160    1.000
    O12      O        0.06930    0.10960    0.59860    1.000
    O13      O        0.09520    0.24360    0.23570    1.000
    O14      O        0.07090    0.66360    0.05840    1.000
    O15      O        0.10960    0.06930    0.15140    1.000
    O16      O        0.90480    0.75640    0.73570    1.000
    O17      O        0.92910    0.33640    0.55840    1.000
    O18      O        0.89040    0.93070    0.65140    1.000
    O19      O        0.24360    0.90480    0.98570    1.000
    O20      O        0.66360    0.92910    0.80840    1.000
    O21      O        0.06930    0.89040    0.90140    1.000
    O22      O        0.75640    0.09520    0.48570    1.000
    O23      O        0.33640    0.07090    0.30840    1.000
    O24      O        0.93070    0.10960    0.40140    1.000
