# CIF file generated by openbabel 3.1.0, see https://openbabel.org
data_I
_chemical_name_common 'LUKRIS_clean'
_cell_length_a 12.3428
_cell_length_b 14.963
_cell_length_c 16.137
_cell_angle_alpha 116.589
_cell_angle_beta 90
_cell_angle_gamma 90
_space_group_name_H-M_alt 'P 1'
_space_group_name_Hall 'P 1'
loop_
    _symmetry_equiv_pos_as_xyz
    x,y,z
loop_
    _atom_site_label
    _atom_site_type_symbol
    _atom_site_fract_x
    _atom_site_fract_y
    _atom_site_fract_z
    _atom_site_occupancy
    Co1      Co       0.17757    0.74925    0.02502    1.000
    Co2      Co       0.54833    0.52142    0.99389    1.000
    Co3      Co       0.67757    0.25075    0.97498    1.000
    Co4      Co       0.04833    0.47858    0.00611    1.000
    P1       P        0.18590    0.64064    0.16028    1.000
    P2       P        0.39190    0.63237    0.91124    1.000
    P3       P        0.51096    0.43012    0.12070    1.000
    P4       P        0.24760    0.32009    0.91663    1.000
    P5       P        0.68590    0.35936    0.83972    1.000
    P6       P        0.89190    0.36763    0.08876    1.000
    P7       P        0.01096    0.56988    0.87930    1.000
    P8       P        0.74760    0.67991    0.08337    1.000
    H1       H        0.78020    0.56800    0.75630    1.000
    H2       H        0.87470    0.57490    0.63530    1.000
    H3       H        0.61260    0.59360    0.84550    1.000
    H4       H        0.33700    0.67460    0.75750    1.000
    H5       H        0.42830    0.78690    0.39250    1.000
    H6       H        0.09110    0.83280    0.28200    1.000
    H7       H        0.43060    0.68200    0.63920    1.000
    H8       H        0.20120    0.69430    0.62660    1.000
    H9       H        0.24200    0.61230    0.31640    1.000
    H10      H        0.78820    0.05400    0.63130    1.000
    H11      H        0.90340    0.51690    0.47110    1.000
    H12      H        0.95830    0.62360    0.53380    1.000
    H13      H        0.86950    0.18900    0.75280    1.000
    H14      H        0.25280    0.62150    0.47340    1.000
    H15      H        0.03030    0.27270    0.84380    1.000
    H16      H        0.46120    0.88630    0.54890    1.000
    H17      H        0.99670    0.74160    0.70260    1.000
    H18      H        0.98850    0.83560    0.80100    1.000
    H19      H        0.81380    0.78370    0.35730    1.000
    H20      H        0.68610    0.79980    0.37420    1.000
    H21      H        0.75200    0.73820    0.41710    1.000
    H22      H        0.05250    0.91660    0.43760    1.000
    H23      H        0.63370    0.49100    0.42510    1.000
    H24      H        0.23650    0.98370    0.67560    1.000
    H25      H        0.87490    0.56700    0.35220    1.000
    H26      H        0.00130    0.56670    0.37440    1.000
    H27      H        0.93590    0.67000    0.41410    1.000
    H28      H        0.56250    0.98850    0.72790    1.000
    H29      H        0.45650    0.93250    0.67270    1.000
    H30      H        0.77760    0.94850    0.47510    1.000
    H31      H        0.71820    0.90180    0.53550    1.000
    H32      H        0.31680    0.12440    0.78690    1.000
    H33      H        0.61530    0.39770    0.26770    1.000
    H34      H        0.45380    0.62580    0.25230    1.000
    H35      H        0.39740    0.93290    0.77510    1.000
    H36      H        0.49530    0.00390    0.83230    1.000
    H37      H        0.50350    0.88570    0.79680    1.000
    H38      H        0.83610    0.79980    0.73020    1.000
    H39      H        0.88610    0.81340    0.64510    1.000
    H40      H        0.87700    0.90740    0.74500    1.000
    H41      H        0.28020    0.43200    0.24370    1.000
    H42      H        0.37470    0.42510    0.36470    1.000
    H43      H        0.11260    0.40640    0.15450    1.000
    H44      H        0.83700    0.32540    0.24250    1.000
    H45      H        0.92830    0.21310    0.60750    1.000
    H46      H        0.59110    0.16720    0.71800    1.000
    H47      H        0.93060    0.31800    0.36080    1.000
    H48      H        0.70120    0.30570    0.37340    1.000
    H49      H        0.74200    0.38770    0.68360    1.000
    H50      H        0.28820    0.94600    0.36870    1.000
    H51      H        0.40340    0.48310    0.52890    1.000
    H52      H        0.45830    0.37640    0.46620    1.000
    H53      H        0.36950    0.81100    0.24720    1.000
    H54      H        0.75280    0.37850    0.52660    1.000
    H55      H        0.53030    0.72730    0.15620    1.000
    H56      H        0.96120    0.11370    0.45110    1.000
    H57      H        0.49670    0.25840    0.29740    1.000
    H58      H        0.48850    0.16440    0.19900    1.000
    H59      H        0.31380    0.21630    0.64270    1.000
    H60      H        0.18610    0.20020    0.62580    1.000
    H61      H        0.25200    0.26180    0.58290    1.000
    H62      H        0.55250    0.08340    0.56240    1.000
    H63      H        0.13370    0.50900    0.57490    1.000
    H64      H        0.73650    0.01630    0.32440    1.000
    H65      H        0.37490    0.43300    0.64780    1.000
    H66      H        0.50130    0.43330    0.62560    1.000
    H67      H        0.43590    0.33000    0.58590    1.000
    H68      H        0.06250    0.01150    0.27210    1.000
    H69      H        0.95650    0.06750    0.32730    1.000
    H70      H        0.27760    0.05150    0.52490    1.000
    H71      H        0.21820    0.09820    0.46450    1.000
    H72      H        0.81680    0.87560    0.21310    1.000
    H73      H        0.11530    0.60230    0.73230    1.000
    H74      H        0.95380    0.37420    0.74770    1.000
    H75      H        0.89740    0.06710    0.22490    1.000
    H76      H        0.99530    0.99610    0.16770    1.000
    H77      H        0.00350    0.11430    0.20320    1.000
    H78      H        0.33610    0.20020    0.26980    1.000
    H79      H        0.38610    0.18660    0.35490    1.000
    H80      H        0.37700    0.09260    0.25500    1.000
    C1       C        0.17060    0.71220    0.28380    1.000
    C2       C        0.57820    0.63980    0.66540    1.000
    C3       C        0.56230    0.62100    0.43590    1.000
    C4       C        0.46360    0.63270    0.81540    1.000
    C5       C        0.54850    0.78070    0.56880    1.000
    C6       C        0.74400    0.58750    0.71510    1.000
    C7       C        0.08140    0.04160    0.68670    1.000
    C8       C        0.74610    0.61990    0.58250    1.000
    C9       C        0.02170    0.13040    0.73870    1.000
    C10      C        0.18290    0.72360    0.43840    1.000
    C11      C        0.63220    0.61250    0.72800    1.000
    C12      C        0.11970    0.81050    0.62220    1.000
    C13      C        0.03060    0.95680    0.61670    1.000
    C14      C        0.79980    0.59140    0.64360    1.000
    C15      C        0.92410    0.96310    0.59540    1.000
    C16      C        0.57530    0.61030    0.80280    1.000
    C17      C        0.41220    0.65920    0.75090    1.000
    C18      C        0.46760    0.76040    0.42710    1.000
    C19      C        0.58300    0.68330    0.53210    1.000
    C20      C        0.11350    0.80500    0.32180    1.000
    C21      C        0.46790    0.66290    0.68030    1.000
    C22      C        0.63730    0.64580    0.59300    1.000
    C23      C        0.09030    0.85950    0.56950    1.000
    C24      C        0.18090    0.72370    0.58760    1.000
    C25      C        0.20380    0.67400    0.34140    1.000
    C26      C        0.86210    0.05080    0.64610    1.000
    C27      C        0.90430    0.58820    0.48450    1.000
    C28      C        0.50480    0.65880    0.38220    1.000
    C29      C        0.91140    0.13110    0.71720    1.000
    C30      C        0.12100    0.81700    0.47610    1.000
    C31      C        0.21130    0.68130    0.49730    1.000
    C32      C        0.07170    0.21440    0.80860    1.000
    C33      C        0.48780    0.81980    0.51920    1.000
    C34      C        0.98970    0.81530    0.73360    1.000
    C35      C        0.75510    0.79460    0.40170    1.000
    C36      C        0.09030    0.85480    0.41460    1.000
    C37      C        0.59940    0.51970    0.39000    1.000
    C38      C        0.19430    0.04220    0.70830    1.000
    C39      C        0.93150    0.59890    0.39890    1.000
    C40      C        0.51540    0.92980    0.71320    1.000
    C41      C        0.77590    0.89070    0.48930    1.000
    C42      C        0.17950    0.21270    0.82620    1.000
    C43      C        0.24160    0.12490    0.77460    1.000
    C44      C        0.58660    0.46360    0.29690    1.000
    C45      C        0.49140    0.59920    0.28770    1.000
    C46      C        0.53090    0.50240    0.24300    1.000
    C47      C        0.47600    0.93840    0.78210    1.000
    C48      C        0.89060    0.83530    0.71200    1.000
    C49      C        0.67060    0.28780    0.71620    1.000
    C50      C        0.07820    0.36020    0.33460    1.000
    C51      C        0.06230    0.37900    0.56410    1.000
    C52      C        0.96360    0.36730    0.18460    1.000
    C53      C        0.04850    0.21930    0.43120    1.000
    C54      C        0.24400    0.41250    0.28490    1.000
    C55      C        0.58140    0.95840    0.31330    1.000
    C56      C        0.24610    0.38010    0.41750    1.000
    C57      C        0.52170    0.86960    0.26130    1.000
    C58      C        0.68290    0.27640    0.56160    1.000
    C59      C        0.13220    0.38750    0.27200    1.000
    C60      C        0.61970    0.18950    0.37780    1.000
    C61      C        0.53060    0.04320    0.38330    1.000
    C62      C        0.29980    0.40860    0.35640    1.000
    C63      C        0.42410    0.03690    0.40460    1.000
    C64      C        0.07530    0.38970    0.19720    1.000
    C65      C        0.91220    0.34080    0.24910    1.000
    C66      C        0.96760    0.23960    0.57290    1.000
    C67      C        0.08300    0.31670    0.46790    1.000
    C68      C        0.61350    0.19500    0.67820    1.000
    C69      C        0.96790    0.33710    0.31970    1.000
    C70      C        0.13730    0.35420    0.40700    1.000
    C71      C        0.59030    0.14050    0.43050    1.000
    C72      C        0.68090    0.27630    0.41240    1.000
    C73      C        0.70380    0.32600    0.65860    1.000
    C74      C        0.36210    0.94920    0.35390    1.000
    C75      C        0.40430    0.41180    0.51550    1.000
    C76      C        0.00480    0.34120    0.61780    1.000
    C77      C        0.41140    0.86890    0.28280    1.000
    C78      C        0.62100    0.18300    0.52390    1.000
    C79      C        0.71130    0.31870    0.50270    1.000
    C80      C        0.57170    0.78560    0.19140    1.000
    C81      C        0.98780    0.18020    0.48080    1.000
    C82      C        0.48970    0.18470    0.26640    1.000
    C83      C        0.25510    0.20540    0.59830    1.000
    C84      C        0.59030    0.14520    0.58540    1.000
    C85      C        0.09940    0.48030    0.61000    1.000
    C86      C        0.69430    0.95780    0.29170    1.000
    C87      C        0.43150    0.40110    0.60110    1.000
    C88      C        0.01540    0.07020    0.28680    1.000
    C89      C        0.27590    0.10930    0.51070    1.000
    C90      C        0.67950    0.78730    0.17380    1.000
    C91      C        0.74160    0.87510    0.22540    1.000
    C92      C        0.08660    0.53640    0.70310    1.000
    C93      C        0.99140    0.40080    0.71230    1.000
    C94      C        0.03090    0.49760    0.75700    1.000
    C95      C        0.97600    0.06160    0.21790    1.000
    C96      C        0.39060    0.16470    0.28800    1.000
    O1       O        0.32000    0.72230    0.95030    1.000
    O2       O        0.47120    0.62470    0.97720    1.000
    O3       O        0.79940    0.63160    0.51290    1.000
    O4       O        0.26230    0.55260    0.15150    1.000
    O5       O        0.57940    0.83980    0.65990    1.000
    O6       O        0.07550    0.59690    0.12110    1.000
    O7       O        0.87840    0.87890    0.52440    1.000
    O8       O        0.31850    0.53250    0.86870    1.000
    O9       O        0.08790    0.85290    0.71630    1.000
    O10      O        0.23520    0.70340    0.11960    1.000
    O11      O        0.43200    0.34300    0.10960    1.000
    O12      O        0.62110    0.38990    0.07610    1.000
    O13      O        0.28210    0.29020    0.98890    1.000
    O14      O        0.35390    0.33700    0.86940    1.000
    O15      O        0.45820    0.49610    0.08230    1.000
    O16      O        0.18070    0.41060    0.94350    1.000
    O17      O        0.82000    0.27770    0.04970    1.000
    O18      O        0.97120    0.37530    0.02280    1.000
    O19      O        0.29940    0.36840    0.48710    1.000
    O20      O        0.76230    0.44740    0.84850    1.000
    O21      O        0.07940    0.16020    0.34010    1.000
    O22      O        0.57550    0.40310    0.87890    1.000
    O23      O        0.37840    0.12110    0.47560    1.000
    O24      O        0.81850    0.46750    0.13130    1.000
    O25      O        0.58790    0.14710    0.28370    1.000
    O26      O        0.73520    0.29660    0.88040    1.000
    O27      O        0.93200    0.65700    0.89040    1.000
    O28      O        0.12110    0.61010    0.92390    1.000
    O29      O        0.78210    0.70980    0.01110    1.000
    O30      O        0.85390    0.66300    0.13060    1.000
    O31      O        0.95820    0.50390    0.91770    1.000
    O32      O        0.68070    0.58940    0.05650    1.000
