# CIF file generated by openbabel 3.1.0, see https://openbabel.org
data_I
_chemical_name_common 'EQOCES_clean'
_cell_length_a 9.081
_cell_length_b 9.9179
_cell_length_c 14.5781
_cell_angle_alpha 81.8023
_cell_angle_beta 71.8527
_cell_angle_gamma 62.7544
_space_group_name_H-M_alt 'P 1'
_space_group_name_Hall 'P 1'
loop_
    _symmetry_equiv_pos_as_xyz
    x,y,z
loop_
    _atom_site_label
    _atom_site_type_symbol
    _atom_site_fract_x
    _atom_site_fract_y
    _atom_site_fract_z
    _atom_site_occupancy
    Co1      Co       0.59239    0.57008    0.87396    1.000
    Co2      Co       0.03643    0.42992    0.12604    1.000
    Co3      Co       0.21635    0.07008    0.62604    1.000
    Co4      Co       0.91247    0.92992    0.37396    1.000
    H1       H        0.84640    0.24240    0.77020    1.000
    H2       H        0.17100    0.40920    0.63880    1.000
    H3       H        0.92280    0.60400    0.74180    1.000
    H4       H        0.89860    0.46320    0.95300    1.000
    H5       H        0.61430    0.65080    0.20200    1.000
    H6       H        0.42740    0.70860    0.09860    1.000
    H7       H        0.85900    0.75760    0.22980    1.000
    H8       H        0.21900    0.59080    0.36120    1.000
    H9       H        0.26860    0.39600    0.25820    1.000
    H10      H        0.31480    0.53680    0.04700    1.000
    H11      H        0.46710    0.34920    0.79800    1.000
    H12      H        0.23460    0.29140    0.90140    1.000
    H13      H        0.36660    0.74240    0.72980    1.000
    H14      H        0.55980    0.90920    0.86120    1.000
    H15      H        0.41460    0.10400    0.75820    1.000
    H16      H        0.60160    0.96320    0.54700    1.000
    H17      H        0.56630    0.15080    0.29800    1.000
    H18      H        0.27600    0.20860    0.40140    1.000
    H19      H        0.83880    0.25760    0.27020    1.000
    H20      H        0.33020    0.09080    0.13880    1.000
    H21      H        0.27680    0.89600    0.24180    1.000
    H22      H        0.11180    0.03680    0.45300    1.000
    H23      H        0.01510    0.84920    0.70200    1.000
    H24      H        0.88600    0.79140    0.59860    1.000
    C1       C        0.89593    0.30940    0.74954    1.000
    C2       C        0.07400    0.39900    0.67800    1.000
    C3       C        0.93670    0.50680    0.73460    1.000
    C4       C        0.80320    0.51900    0.00260    1.000
    C5       C        0.65070    0.61920    0.13840    1.000
    C6       C        0.54670    0.65240    0.08120    1.000
    C7       C        0.95487    0.69060    0.25046    1.000
    C8       C        0.15100    0.60100    0.32200    1.000
    C9       C        0.17810    0.49320    0.26540    1.000
    C10      C        0.32480    0.48100    0.99740    1.000
    C11      C        0.40830    0.38080    0.86160    1.000
    C12      C        0.28030    0.34760    0.91880    1.000
    C13      C        0.39547    0.80940    0.75046    1.000
    C14      C        0.50200    0.89900    0.82200    1.000
    C15      C        0.42130    0.00680    0.76540    1.000
    C16      C        0.55580    0.01900    0.49740    1.000
    C17      C        0.53910    0.11920    0.36160    1.000
    C18      C        0.37790    0.15240    0.41880    1.000
    C19      C        0.95533    0.19060    0.24954    1.000
    C20      C        0.22300    0.10100    0.17800    1.000
    C21      C        0.19350    0.99320    0.23460    1.000
    C22      C        0.07220    0.98100    0.50260    1.000
    C23      C        0.01990    0.88080    0.63840    1.000
    C24      C        0.94910    0.84760    0.58120    1.000
    N1       N        0.81826    0.45160    0.78068    1.000
    N2       N        0.04962    0.27140    0.68676    1.000
    N3       N        0.64836    0.58900    0.99288    1.000
    N4       N        0.81504    0.53320    0.08932    1.000
    N5       N        0.05054    0.54840    0.21932    1.000
    N6       N        0.00778    0.72860    0.31324    1.000
    N7       N        0.23024    0.41100    0.00712    1.000
    N8       N        0.43756    0.46680    0.91068    1.000
    N9       N        0.34894    0.95160    0.71932    1.000
    N10      N        0.48638    0.77140    0.81324    1.000
    N11      N        0.39124    0.08900    0.50712    1.000
    N12      N        0.65436    0.03320    0.41068    1.000
    N13      N        0.01986    0.04840    0.28068    1.000
    N14      N        0.07102    0.22860    0.18676    1.000
    N15      N        0.98736    0.91100    0.49288    1.000
    N16      N        0.09824    0.96680    0.58932    1.000
