data_functionalizedCrystal
_audit_creation_method	'EQeq! by Chris Wilmer'
_symmetry_space_group_name_H-M	'P1'
_symmetry_Int_Tables_number	1
_symmetry_cell_setting	triclinic
loop_
_symmetry_equiv_pos_as_xyz
  x,y,z
_cell_length_a	13.6872
_cell_length_b	13.6872
_cell_length_c	13.6872
_cell_angle_alpha	102.29
_cell_angle_beta	102.29
_cell_angle_gamma	102.29
loop_
_atom_site_label
_atom_site_type_symbol
_atom_site_fract_x
_atom_site_fract_y
_atom_site_fract_z
_atom_site_charge
Mof_Co	Co	0.88331	0.11669	0.5	1.151
Mof_Co	Co	0.5	0.88331	0.11669	1.151
Mof_Co	Co	0.11669	0.5	0.88331	1.151
Mof_H 	H 	0.8662	0.4082	0.3169	0.082
Mof_H 	H 	0.879	0.3253	0.6273	-0.011
Mof_H 	H 	0.9007	0.9108	0.3774	-0.025
Mof_H 	H 	0.8237	0.8062	0.6547	0.081
Mof_H 	H 	0.8585	0.4852	0.6157	0.087
Mof_H 	H 	0.8562	0.5821	0.3879	0.052
Mof_H 	H 	0.8376	0.9745	0.6444	-0.022
Mof_H 	H 	0.8886	0.7408	0.3792	0.086
Mof_H 	H 	0.8839	0.2488	0.3368	-0.024
Mof_H 	H 	0.8505	0.6348	0.5908	0.06
Mof_H 	H 	0.3169	0.8662	0.4082	0.082
Mof_H 	H 	0.6273	0.879	0.3253	-0.011
Mof_H 	H 	0.3774	0.9007	0.9108	-0.025
Mof_H 	H 	0.6547	0.8237	0.8062	0.081
Mof_H 	H 	0.6157	0.8585	0.4852	0.087
Mof_H 	H 	0.3879	0.8562	0.5821	0.052
Mof_H 	H 	0.6444	0.8376	0.9745	-0.022
Mof_H 	H 	0.3792	0.8886	0.7408	0.086
Mof_H 	H 	0.3368	0.8839	0.2488	-0.024
Mof_H 	H 	0.5908	0.8505	0.6348	0.06
Mof_H 	H 	0.4082	0.3169	0.8662	0.082
Mof_H 	H 	0.3253	0.6273	0.879	-0.011
Mof_H 	H 	0.9108	0.3774	0.9007	-0.025
Mof_H 	H 	0.8062	0.6547	0.8237	0.081
Mof_H 	H 	0.4852	0.6157	0.8585	0.087
Mof_H 	H 	0.5821	0.3879	0.8562	0.052
Mof_H 	H 	0.9745	0.6444	0.8376	-0.022
Mof_H 	H 	0.7408	0.3792	0.8886	0.086
Mof_H 	H 	0.2488	0.3368	0.8839	-0.024
Mof_H 	H 	0.6348	0.5908	0.8505	0.06
Mof_H 	H 	0.5918	0.1338	0.6831	0.078
Mof_H 	H 	0.6747	0.121	0.3727	-0.016
Mof_H 	H 	0.0892	0.0993	0.6226	-0.046
Mof_H 	H 	0.1938	0.1763	0.3453	0.073
Mof_H 	H 	0.5148	0.1415	0.3843	0.083
Mof_H 	H 	0.4179	0.1438	0.6121	0.048
Mof_H 	H 	0.0255	0.1624	0.3556	-0.045
Mof_H 	H 	0.2592	0.1114	0.6208	0.079
Mof_H 	H 	0.7512	0.1161	0.6632	-0.028
Mof_H 	H 	0.3652	0.1495	0.4092	0.055
Mof_H 	H 	0.1338	0.6831	0.5918	0.078
Mof_H 	H 	0.121	0.3727	0.6747	-0.016
Mof_H 	H 	0.0993	0.6226	0.0892	-0.046
Mof_H 	H 	0.1763	0.3453	0.1938	0.073
Mof_H 	H 	0.1415	0.3843	0.5148	0.083
Mof_H 	H 	0.1438	0.6121	0.4179	0.048
Mof_H 	H 	0.1624	0.3556	0.0255	-0.045
Mof_H 	H 	0.1114	0.6208	0.2592	0.079
Mof_H 	H 	0.1161	0.6632	0.7512	-0.028
Mof_H 	H 	0.1495	0.4092	0.3652	0.055
Mof_H 	H 	0.6831	0.5918	0.1338	0.078
Mof_H 	H 	0.3727	0.6747	0.121	-0.016
Mof_H 	H 	0.6226	0.0892	0.0993	-0.046
Mof_H 	H 	0.3453	0.1938	0.1763	0.073
Mof_H 	H 	0.3843	0.5148	0.1415	0.083
Mof_H 	H 	0.6121	0.4179	0.1438	0.048
Mof_H 	H 	0.3556	0.0255	0.1624	-0.045
Mof_H 	H 	0.6208	0.2592	0.1114	0.079
Mof_H 	H 	0.6632	0.7512	0.1161	-0.028
Mof_H 	H 	0.4092	0.3652	0.1495	0.055
Mof_W 	W 	6.02981e-18	0.20664	0.79336	0.621
Mof_W 	W 	0.79336	0	0.20664	0.621
Mof_W 	W 	0.20664	0.79336	-0	0.621
Mof_C 	C 	0.869	0.3935	0.3813	-0.169
Mof_C 	C 	0.8763	0.3422	0.5639	0.095
Mof_C 	C 	0.8573	0.7537	0.5185	0.125
Mof_C 	C 	0.8854	0.8894	0.4345	0.106
Mof_C 	C 	0.8404	0.8257	0.5972	-0.183
Mof_C 	C 	0.8648	0.4386	0.5576	-0.16
Mof_C 	C 	0.8625	0.4669	0.4653	0.116
Mof_C 	C 	0.8575	0.5707	0.4535	-0.075
Mof_C 	C 	0.8485	0.9265	0.5903	0.101
Mof_C 	C 	0.8786	0.7872	0.4352	-0.181
Mof_C 	C 	0.8795	0.2979	0.3941	0.102
Mof_C 	C 	0.8546	0.648	0.527	-0.094
Mof_C 	C 	0.3813	0.869	0.3935	-0.169
Mof_C 	C 	0.5639	0.8763	0.3422	0.095
Mof_C 	C 	0.5185	0.8573	0.7537	0.125
Mof_C 	C 	0.4345	0.8854	0.8894	0.106
Mof_C 	C 	0.5972	0.8404	0.8257	-0.183
Mof_C 	C 	0.5576	0.8648	0.4386	-0.16
Mof_C 	C 	0.4653	0.8625	0.4669	0.116
Mof_C 	C 	0.4535	0.8575	0.5707	-0.075
Mof_C 	C 	0.5903	0.8485	0.9265	0.101
Mof_C 	C 	0.4352	0.8786	0.7872	-0.181
Mof_C 	C 	0.3941	0.8795	0.2979	0.102
Mof_C 	C 	0.527	0.8546	0.648	-0.094
Mof_C 	C 	0.3935	0.3813	0.869	-0.169
Mof_C 	C 	0.3422	0.5639	0.8763	0.095
Mof_C 	C 	0.7537	0.5185	0.8573	0.125
Mof_C 	C 	0.8894	0.4345	0.8854	0.106
Mof_C 	C 	0.8257	0.5972	0.8404	-0.183
Mof_C 	C 	0.4386	0.5576	0.8648	-0.16
Mof_C 	C 	0.4669	0.4653	0.8625	0.116
Mof_C 	C 	0.5707	0.4535	0.8575	-0.075
Mof_C 	C 	0.9265	0.5903	0.8485	0.101
Mof_C 	C 	0.7872	0.4352	0.8786	-0.181
Mof_C 	C 	0.2979	0.3941	0.8795	0.102
Mof_C 	C 	0.648	0.527	0.8546	-0.094
Mof_C 	C 	0.6065	0.131	0.6187	-0.172
Mof_C 	C 	0.6578	0.1237	0.4361	0.088
Mof_C 	C 	0.2463	0.1427	0.4815	0.119
Mof_C 	C 	0.1106	0.1146	0.5655	0.096
Mof_C 	C 	0.1743	0.1596	0.4028	-0.191
Mof_C 	C 	0.5614	0.1352	0.4424	-0.165
Mof_C 	C 	0.5331	0.1375	0.5347	0.109
Mof_C 	C 	0.4293	0.1425	0.5465	-0.08
Mof_C 	C 	0.0735	0.1515	0.4097	0.093
Mof_C 	C 	0.2128	0.1214	0.5648	-0.188
Mof_C 	C 	0.7021	0.1205	0.6059	0.093
Mof_C 	C 	0.352	0.1454	0.473	-0.1
Mof_C 	C 	0.131	0.6187	0.6065	-0.172
Mof_C 	C 	0.1237	0.4361	0.6578	0.088
Mof_C 	C 	0.1427	0.4815	0.2463	0.119
Mof_C 	C 	0.1146	0.5655	0.1106	0.096
Mof_C 	C 	0.1596	0.4028	0.1743	-0.191
Mof_C 	C 	0.1352	0.4424	0.5614	-0.165
Mof_C 	C 	0.1375	0.5347	0.5331	0.109
Mof_C 	C 	0.1425	0.5465	0.4293	-0.08
Mof_C 	C 	0.1515	0.4097	0.0735	0.093
Mof_C 	C 	0.1214	0.5648	0.2128	-0.188
Mof_C 	C 	0.1205	0.6059	0.7021	0.093
Mof_C 	C 	0.1454	0.473	0.352	-0.1
Mof_C 	C 	0.6187	0.6065	0.131	-0.172
Mof_C 	C 	0.4361	0.6578	0.1237	0.088
Mof_C 	C 	0.4815	0.2463	0.1427	0.119
Mof_C 	C 	0.5655	0.1106	0.1146	0.096
Mof_C 	C 	0.4028	0.1743	0.1596	-0.191
Mof_C 	C 	0.4424	0.5614	0.1352	-0.165
Mof_C 	C 	0.5347	0.5331	0.1375	0.109
Mof_C 	C 	0.5465	0.4293	0.1425	-0.08
Mof_C 	C 	0.4097	0.0735	0.1515	0.093
Mof_C 	C 	0.5648	0.2128	0.1214	-0.188
Mof_C 	C 	0.6059	0.7021	0.1205	0.093
Mof_C 	C 	0.473	0.352	0.1454	-0.1
Mof_N 	N 	0.8838	0.2716	0.4833	-0.234
Mof_N 	N 	0.8711	0.9584	0.5109	-0.235
Mof_N 	N 	0.4833	0.8838	0.2716	-0.234
Mof_N 	N 	0.5109	0.8711	0.9584	-0.235
Mof_N 	N 	0.2716	0.4833	0.8838	-0.234
Mof_N 	N 	0.9584	0.5109	0.8711	-0.235
Mof_N 	N 	0.7284	0.1162	0.5167	-0.24
Mof_N 	N 	0.0416	0.1289	0.4891	-0.257
Mof_N 	N 	0.1162	0.5167	0.7284	-0.24
Mof_N 	N 	0.1289	0.4891	0.0416	-0.257
Mof_N 	N 	0.5167	0.7284	0.1162	-0.24
Mof_N 	N 	0.4891	0.0416	0.1289	-0.257
Mof_O 	O 	0.93819	0.16828	0.6576	-0.461
Mof_O 	O 	0.6576	0.93819	0.16828	-0.461
Mof_O 	O 	0.16828	0.6576	0.93819	-0.461
Mof_O 	O 	0.83172	0.06181	0.3424	-0.477
Mof_O 	O 	0.06181	0.3424	0.83172	-0.477
Mof_O 	O 	0.3424	0.83172	0.06181	-0.477
_end
