data_functionalizedCrystal
_audit_creation_method	'EQeq! by Chris Wilmer'
_symmetry_space_group_name_H-M	'P1'
_symmetry_Int_Tables_number	1
_symmetry_cell_setting	triclinic
loop_
_symmetry_equiv_pos_as_xyz
  x,y,z
_cell_length_a	16.3248
_cell_length_b	13.3361
_cell_length_c	10.1019
_cell_angle_alpha	90
_cell_angle_beta	89.994
_cell_angle_gamma	90
loop_
_atom_site_label
_atom_site_type_symbol
_atom_site_fract_x
_atom_site_fract_y
_atom_site_fract_z
_atom_site_charge
Mof_V 	V 	0.0237	0.54667	0.24768	1.706
Mof_V 	V 	0.25003	0.24997	0.53647	1.712
Mof_V 	V 	0.47634	0.54669	0.74768	1.709
Mof_P 	P 	0.08665	0.39478	0.49759	0.494
Mof_P 	P 	0.08569	0.10619	0.51492	0.483
Mof_P 	P 	0.41433	0.39385	0.51499	0.485
Mof_P 	P 	0.41335	0.10517	0.4976	0.493
Mof_O 	O 	0.07158	0.47978	0.4011	-0.549
Mof_O 	O 	0.09529	0.0426	0.64037	-0.532
Mof_O 	O 	0.07517	0.42831	0.64169	-0.532
Mof_O 	O 	0.05471	0.04468	0.39886	-0.537
Mof_O 	O 	0.1685	0.15138	0.47893	-0.531
Mof_O 	O 	0.32556	0.14287	0.48187	-0.527
Mof_O 	O 	0.1744	0.35714	0.48201	-0.527
Mof_O 	O 	0.33146	0.34857	0.47903	-0.531
Mof_O 	O 	0.40478	0.45765	0.64042	-0.54
Mof_O 	O 	0.42832	0.02006	0.4012	-0.549
Mof_O 	O 	0.44518	0.45531	0.39876	-0.542
Mof_O 	O 	0.42481	0.07157	0.6418	-0.532
Mof_C 	C 	0.01441	0.29675	0.4607	-0.242
Mof_H 	H 	0.9598	0.3255	0.4617	0.039
Mof_H 	H 	0.0248	0.2732	0.3715	0.041
Mof_C 	C 	0.01507	0.20551	0.5542	-0.219
Mof_H 	H 	0.9603	0.1774	0.556	0.026
Mof_H 	H 	0.0273	0.2291	0.6428	0.031
Mof_C 	C 	0.48488	0.29457	0.5543	-0.245
Mof_H 	H 	0.5397	0.3227	0.5563	0.044
Mof_H 	H 	0.4726	0.2709	0.6429	0.035
Mof_C 	C 	0.48564	0.20328	0.4608	-0.244
Mof_H 	H 	0.4752	0.2268	0.3715	0.041
Mof_H 	H 	0.5402	0.1746	0.4618	0.043
Mof_V 	V 	0.9763	0.04667	0.25232	1.697
Mof_V 	V 	0.74997	0.74997	0.96353	1.707
Mof_V 	V 	0.52366	0.04669	0.75232	1.709
Mof_P 	P 	0.91335	0.89478	0.00241	0.496
Mof_P 	P 	0.91431	0.60619	0.98508	0.479
Mof_P 	P 	0.58567	0.89385	0.98501	0.471
Mof_P 	P 	0.58665	0.60517	0.0024	0.494
Mof_O 	O 	0.92842	0.97978	0.0989	-0.535
Mof_O 	O 	0.90471	0.5426	0.85963	-0.541
Mof_O 	O 	0.92483	0.92831	0.85831	-0.539
Mof_O 	O 	0.94529	0.54468	0.10114	-0.535
Mof_O 	O 	0.8315	0.65138	0.02107	-0.524
Mof_O 	O 	0.67444	0.64287	0.01813	-0.525
Mof_O 	O 	0.8256	0.85714	0.01799	-0.522
Mof_O 	O 	0.66854	0.84857	0.02097	-0.522
Mof_O 	O 	0.59522	0.95765	0.85958	-0.541
Mof_O 	O 	0.57168	0.52006	0.0988	-0.548
Mof_O 	O 	0.55482	0.95531	0.10124	-0.534
Mof_O 	O 	0.57519	0.57157	0.8582	-0.535
Mof_C 	C 	0.98559	0.79675	0.0393	-0.18
Mof_H 	H 	0.0402	0.8255	0.0383	0.01
Mof_H 	H 	0.9752	0.7732	0.1285	0.027
Mof_C 	C 	0.98493	0.70551	0.9458	-0.283
Mof_H 	H 	0.0397	0.6774	0.944	0.054
Mof_H 	H 	0.9727	0.7291	0.8572	0.045
Mof_C 	C 	0.51512	0.79457	0.9457	-0.249
Mof_H 	H 	0.4603	0.8227	0.9437	0.042
Mof_H 	H 	0.5274	0.7709	0.8571	0.035
Mof_C 	C 	0.51436	0.70328	0.0392	-0.239
Mof_H 	H 	0.5248	0.7268	0.1285	0.04
Mof_H 	H 	0.4598	0.6746	0.0382	0.043
Mof_V 	V 	0.9763	0.45333	0.75232	1.706
Mof_V 	V 	0.74997	0.75003	0.46353	1.712
Mof_V 	V 	0.52366	0.45331	0.25232	1.709
Mof_P 	P 	0.91335	0.60522	0.50241	0.494
Mof_P 	P 	0.91431	0.89381	0.48508	0.483
Mof_P 	P 	0.58567	0.60615	0.48501	0.485
Mof_P 	P 	0.58665	0.89483	0.5024	0.493
Mof_O 	O 	0.92842	0.52022	0.5989	-0.549
Mof_O 	O 	0.90471	0.9574	0.35963	-0.532
Mof_O 	O 	0.92483	0.57169	0.35831	-0.532
Mof_O 	O 	0.94529	0.95532	0.60114	-0.537
Mof_O 	O 	0.8315	0.84862	0.52107	-0.531
Mof_O 	O 	0.67444	0.85713	0.51813	-0.527
Mof_O 	O 	0.8256	0.64286	0.51799	-0.527
Mof_O 	O 	0.66854	0.65143	0.52097	-0.531
Mof_O 	O 	0.59522	0.54235	0.35958	-0.54
Mof_O 	O 	0.57168	0.97994	0.5988	-0.549
Mof_O 	O 	0.55482	0.54469	0.60124	-0.542
Mof_O 	O 	0.57519	0.92843	0.3582	-0.532
Mof_C 	C 	0.98559	0.70325	0.5393	-0.242
Mof_H 	H 	0.0402	0.6745	0.5383	0.039
Mof_H 	H 	0.9752	0.7268	0.6285	0.041
Mof_C 	C 	0.98493	0.79449	0.4458	-0.219
Mof_H 	H 	0.0397	0.8226	0.444	0.026
Mof_H 	H 	0.9727	0.7709	0.3572	0.031
Mof_C 	C 	0.51512	0.70543	0.4457	-0.245
Mof_H 	H 	0.4603	0.6773	0.4437	0.044
Mof_H 	H 	0.5274	0.7291	0.3571	0.035
Mof_C 	C 	0.51436	0.79672	0.5392	-0.244
Mof_H 	H 	0.5248	0.7732	0.6285	0.041
Mof_H 	H 	0.4598	0.8254	0.5382	0.043
Mof_V 	V 	0.0237	0.95333	0.74768	1.697
Mof_V 	V 	0.25003	0.25003	0.03647	1.707
Mof_V 	V 	0.47634	0.95331	0.24768	1.709
Mof_P 	P 	0.08665	0.10522	0.99759	0.496
Mof_P 	P 	0.08569	0.39381	0.01492	0.479
Mof_P 	P 	0.41433	0.10615	0.01499	0.471
Mof_P 	P 	0.41335	0.39483	0.9976	0.494
Mof_O 	O 	0.07158	0.02022	0.9011	-0.535
Mof_O 	O 	0.09529	0.4574	0.14037	-0.541
Mof_O 	O 	0.07517	0.07169	0.14169	-0.539
Mof_O 	O 	0.05471	0.45532	0.89886	-0.535
Mof_O 	O 	0.1685	0.34862	0.97893	-0.524
Mof_O 	O 	0.32556	0.35713	0.98187	-0.525
Mof_O 	O 	0.1744	0.14286	0.98201	-0.522
Mof_O 	O 	0.33146	0.15143	0.97903	-0.522
Mof_O 	O 	0.40478	0.04235	0.14042	-0.541
Mof_O 	O 	0.42832	0.47994	0.9012	-0.548
Mof_O 	O 	0.44518	0.04469	0.89876	-0.534
Mof_O 	O 	0.42481	0.42843	0.1418	-0.535
Mof_C 	C 	0.01441	0.20325	0.9607	-0.18
Mof_H 	H 	0.9598	0.1745	0.9617	0.01
Mof_H 	H 	0.0248	0.2268	0.8715	0.027
Mof_C 	C 	0.01507	0.29449	0.0542	-0.283
Mof_H 	H 	0.9603	0.3226	0.056	0.054
Mof_H 	H 	0.0273	0.2709	0.1428	0.045
Mof_C 	C 	0.48488	0.20543	0.0543	-0.249
Mof_H 	H 	0.5397	0.1773	0.0563	0.042
Mof_H 	H 	0.4726	0.2291	0.1429	0.035
Mof_C 	C 	0.48564	0.29672	0.9608	-0.239
Mof_H 	H 	0.4752	0.2732	0.8715	0.04
Mof_H 	H 	0.5402	0.3254	0.9618	0.043
_end
