# CIF file generated by openbabel 3.1.0, see https://openbabel.org
data_I
_chemical_name_common 'YASPEP_clean'
_cell_length_a 6.277
_cell_length_b 17.702
_cell_length_c 20.486
_cell_angle_alpha 90
_cell_angle_beta 97.565
_cell_angle_gamma 90
_space_group_name_H-M_alt 'P 1'
_space_group_name_Hall 'P 1'
loop_
    _symmetry_equiv_pos_as_xyz
    x,y,z
loop_
    _atom_site_label
    _atom_site_type_symbol
    _atom_site_fract_x
    _atom_site_fract_y
    _atom_site_fract_z
    _atom_site_occupancy
    Zn1      Zn       0.18960    0.51275    0.77638    1.000
    Zn2      Zn       0.31040    0.01275    0.72362    1.000
    Zn3      Zn       0.81040    0.48725    0.22362    1.000
    Zn4      Zn       0.68960    0.98725    0.27638    1.000
    H1       H        0.01740    0.79100    0.59340    1.000
    H2       H        0.23350    0.75690    0.51590    1.000
    H3       H        0.56410    0.70470    0.54720    1.000
    H4       H        0.68300    0.68700    0.65730    1.000
    H5       H        0.65690    0.70700    0.76970    1.000
    H6       H        0.46870    0.75590    0.79070    1.000
    H7       H        0.09090    0.75350    0.76000    1.000
    H8       H        0.93290    0.79060    0.70340    1.000
    H9       H        0.73550    0.47530    0.72320    1.000
    H10      H        0.50900    0.47690    0.62750    1.000
    H11      H        0.96450    0.58380    0.54300    1.000
    H12      H        0.17890    0.57970    0.64180    1.000
    H13      H        0.65310    0.53990    0.47350    1.000
    H14      H        0.47120    0.57530    0.50880    1.000
    H15      H        0.01750    0.39690    0.86290    1.000
    H16      H        0.81300    0.38770    0.94590    1.000
    H17      H        0.70040    0.60840    0.93130    1.000
    H18      H        0.91850    0.61550    0.85070    1.000
    H19      H        0.66090    0.52890    0.03940    1.000
    H20      H        0.61900    0.44340    0.02470    1.000
    H21      H        0.48260    0.29100    0.90660    1.000
    H22      H        0.26650    0.25690    0.98410    1.000
    H23      H        0.93590    0.20470    0.95280    1.000
    H24      H        0.81700    0.18700    0.84270    1.000
    H25      H        0.84310    0.20700    0.73030    1.000
    H26      H        0.03130    0.25590    0.70930    1.000
    H27      H        0.40910    0.25350    0.74000    1.000
    H28      H        0.56710    0.29060    0.79660    1.000
    H29      H        0.76450    0.97530    0.77680    1.000
    H30      H        0.99100    0.97690    0.87250    1.000
    H31      H        0.53550    0.08380    0.95700    1.000
    H32      H        0.32110    0.07970    0.85820    1.000
    H33      H        0.84690    0.03990    0.02650    1.000
    H34      H        0.02880    0.07530    0.99120    1.000
    H35      H        0.48250    0.89690    0.63710    1.000
    H36      H        0.68700    0.88770    0.55410    1.000
    H37      H        0.79960    0.10840    0.56870    1.000
    H38      H        0.58150    0.11550    0.64930    1.000
    H39      H        0.83910    0.02890    0.46060    1.000
    H40      H        0.88100    0.94340    0.47530    1.000
    H41      H        0.98260    0.20900    0.40660    1.000
    H42      H        0.76650    0.24310    0.48410    1.000
    H43      H        0.43590    0.29530    0.45280    1.000
    H44      H        0.31700    0.31300    0.34270    1.000
    H45      H        0.34310    0.29300    0.23030    1.000
    H46      H        0.53130    0.24410    0.20930    1.000
    H47      H        0.90910    0.24650    0.24000    1.000
    H48      H        0.06710    0.20940    0.29660    1.000
    H49      H        0.26450    0.52470    0.27680    1.000
    H50      H        0.49100    0.52310    0.37250    1.000
    H51      H        0.03550    0.41620    0.45700    1.000
    H52      H        0.82110    0.42030    0.35820    1.000
    H53      H        0.34690    0.46010    0.52650    1.000
    H54      H        0.52880    0.42470    0.49120    1.000
    H55      H        0.98250    0.60310    0.13710    1.000
    H56      H        0.18700    0.61230    0.05410    1.000
    H57      H        0.29960    0.39160    0.06870    1.000
    H58      H        0.08150    0.38450    0.14930    1.000
    H59      H        0.33910    0.47110    0.96060    1.000
    H60      H        0.38100    0.55660    0.97530    1.000
    H61      H        0.51740    0.70900    0.09340    1.000
    H62      H        0.73350    0.74310    0.01590    1.000
    H63      H        0.06410    0.79530    0.04720    1.000
    H64      H        0.18300    0.81300    0.15730    1.000
    H65      H        0.15690    0.79300    0.26970    1.000
    H66      H        0.96870    0.74410    0.29070    1.000
    H67      H        0.59090    0.74650    0.26000    1.000
    H68      H        0.43290    0.70940    0.20340    1.000
    H69      H        0.23550    0.02470    0.22320    1.000
    H70      H        0.00900    0.02310    0.12750    1.000
    H71      H        0.46450    0.91620    0.04300    1.000
    H72      H        0.67890    0.92030    0.14180    1.000
    H73      H        0.15310    0.96010    0.97350    1.000
    H74      H        0.97120    0.92470    0.00880    1.000
    H75      H        0.51750    0.10310    0.36290    1.000
    H76      H        0.31300    0.11230    0.44590    1.000
    H77      H        0.20040    0.89160    0.43130    1.000
    H78      H        0.41850    0.88450    0.35070    1.000
    H79      H        0.16090    0.97110    0.53940    1.000
    H80      H        0.11900    0.05660    0.52470    1.000
    C1       C        0.42260    0.72890    0.69260    1.000
    C2       C        0.22000    0.76090    0.67360    1.000
    C3       C        0.15220    0.77030    0.60700    1.000
    C4       C        0.28160    0.74960    0.56030    1.000
    C5       C        0.47790    0.71870    0.57880    1.000
    C6       C        0.54840    0.70830    0.64470    1.000
    C7       C        0.50200    0.71320    0.76410    1.000
    C8       C        0.39840    0.64240    0.78740    1.000
    C9       C        0.08150    0.78890    0.72370    1.000
    C10      C        0.14660    0.86600    0.74990    1.000
    C11      C        0.78260    0.49670    0.68620    1.000
    C12      C        0.64560    0.49770    0.62900    1.000
    C13      C        0.70950    0.53010    0.57230    1.000
    C14      C        0.91440    0.56100    0.57890    1.000
    C15      C        0.04300    0.55800    0.63830    1.000
    C16      C        0.56480    0.53180    0.50840    1.000
    C17      C        0.95560    0.44040    0.87750    1.000
    C18      C        0.83280    0.43460    0.92720    1.000
    C19      C        0.73720    0.49770    0.95020    1.000
    C20      C        0.76800    0.56490    0.91890    1.000
    C21      C        0.89630    0.56900    0.86980    1.000
    C22      C        0.60080    0.49360    0.00570    1.000
    C23      C        0.07740    0.22890    0.80740    1.000
    C24      C        0.28000    0.26090    0.82640    1.000
    C25      C        0.34780    0.27030    0.89300    1.000
    C26      C        0.21840    0.24960    0.93970    1.000
    C27      C        0.02210    0.21870    0.92120    1.000
    C28      C        0.95160    0.20830    0.85530    1.000
    C29      C        0.99800    0.21320    0.73590    1.000
    C30      C        0.10160    0.14240    0.71260    1.000
    C31      C        0.41850    0.28890    0.77630    1.000
    C32      C        0.35340    0.36600    0.75010    1.000
    C33      C        0.71740    0.99670    0.81380    1.000
    C34      C        0.85440    0.99770    0.87100    1.000
    C35      C        0.79050    0.03010    0.92770    1.000
    C36      C        0.58560    0.06100    0.92110    1.000
    C37      C        0.45700    0.05800    0.86170    1.000
    C38      C        0.93520    0.03180    0.99160    1.000
    C39      C        0.54440    0.94040    0.62250    1.000
    C40      C        0.66720    0.93460    0.57280    1.000
    C41      C        0.76280    0.99770    0.54980    1.000
    C42      C        0.73200    0.06490    0.58110    1.000
    C43      C        0.60370    0.06900    0.63020    1.000
    C44      C        0.89920    0.99360    0.49430    1.000
    C45      C        0.57740    0.27110    0.30740    1.000
    C46      C        0.78000    0.23910    0.32640    1.000
    C47      C        0.84780    0.22970    0.39300    1.000
    C48      C        0.71840    0.25040    0.43970    1.000
    C49      C        0.52210    0.28130    0.42120    1.000
    C50      C        0.45160    0.29170    0.35530    1.000
    C51      C        0.49800    0.28680    0.23590    1.000
    C52      C        0.60160    0.35760    0.21260    1.000
    C53      C        0.91850    0.21110    0.27630    1.000
    C54      C        0.85340    0.13400    0.25010    1.000
    C55      C        0.21740    0.50330    0.31380    1.000
    C56      C        0.35440    0.50230    0.37100    1.000
    C57      C        0.29050    0.46990    0.42770    1.000
    C58      C        0.08560    0.43900    0.42110    1.000
    C59      C        0.95700    0.44200    0.36170    1.000
    C60      C        0.43520    0.46820    0.49160    1.000
    C61      C        0.04440    0.55960    0.12250    1.000
    C62      C        0.16720    0.56540    0.07280    1.000
    C63      C        0.26280    0.50230    0.04980    1.000
    C64      C        0.23200    0.43510    0.08110    1.000
    C65      C        0.10370    0.43100    0.13020    1.000
    C66      C        0.39920    0.50640    0.99430    1.000
    C67      C        0.92260    0.77110    0.19260    1.000
    C68      C        0.72000    0.73910    0.17360    1.000
    C69      C        0.65220    0.72970    0.10700    1.000
    C70      C        0.78160    0.75040    0.06030    1.000
    C71      C        0.97790    0.78130    0.07880    1.000
    C72      C        0.04840    0.79170    0.14470    1.000
    C73      C        0.00200    0.78680    0.26410    1.000
    C74      C        0.89840    0.85760    0.28740    1.000
    C75      C        0.58150    0.71110    0.22370    1.000
    C76      C        0.64660    0.63400    0.24990    1.000
    C77      C        0.28260    0.00330    0.18620    1.000
    C78      C        0.14560    0.00230    0.12900    1.000
    C79      C        0.20950    0.96990    0.07230    1.000
    C80      C        0.41440    0.93900    0.07890    1.000
    C81      C        0.54300    0.94200    0.13830    1.000
    C82      C        0.06480    0.96820    0.00840    1.000
    C83      C        0.45560    0.05960    0.37750    1.000
    C84      C        0.33280    0.06540    0.42720    1.000
    C85      C        0.23720    0.00230    0.45020    1.000
    C86      C        0.26800    0.93510    0.41890    1.000
    C87      C        0.39630    0.93100    0.36980    1.000
    C88      C        0.10080    0.00640    0.50570    1.000
    N1       N        0.98110    0.52490    0.69170    1.000
    N2       N        0.99100    0.50690    0.84860    1.000
    N3       N        0.51890    0.02490    0.80830    1.000
    N4       N        0.50900    0.00690    0.65140    1.000
    N5       N        0.01890    0.47510    0.30830    1.000
    N6       N        0.00900    0.49310    0.15140    1.000
    N7       N        0.48110    0.97510    0.19170    1.000
    N8       N        0.49100    0.99310    0.34860    1.000
    O1       O        0.41220    0.58370    0.75520    1.000
    O2       O        0.30130    0.64290    0.83430    1.000
    O3       O        0.18860    0.91350    0.70720    1.000
    O4       O        0.15690    0.88060    0.80930    1.000
    O5       O        0.08780    0.08370    0.74480    1.000
    O6       O        0.19870    0.14290    0.66570    1.000
    O7       O        0.31140    0.41350    0.79280    1.000
    O8       O        0.34310    0.38060    0.69070    1.000
    O9       O        0.58780    0.41630    0.24480    1.000
    O10      O        0.69870    0.35710    0.16570    1.000
    O11      O        0.81140    0.08650    0.29280    1.000
    O12      O        0.84310    0.11940    0.19070    1.000
    O13      O        0.91220    0.91630    0.25520    1.000
    O14      O        0.80130    0.85710    0.33430    1.000
    O15      O        0.68860    0.58650    0.20720    1.000
    O16      O        0.65690    0.61940    0.30930    1.000
