# CIF file generated by openbabel 3.1.0, see https://openbabel.org
data_I
_chemical_name_common 'image0'
_cell_length_a 6.5539
_cell_length_b 16.439
_cell_length_c 13.1379
_cell_angle_alpha 90
_cell_angle_beta 90
_cell_angle_gamma 90.5441
_space_group_name_H-M_alt 'P 1'
_space_group_name_Hall 'P 1'
loop_
    _symmetry_equiv_pos_as_xyz
    x,y,z
loop_
    _atom_site_label
    _atom_site_type_symbol
    _atom_site_fract_x
    _atom_site_fract_y
    _atom_site_fract_z
    _atom_site_occupancy
    O1       O        0.15870    0.17412    0.85300    1.000
    O2       O        0.81870    0.65915    0.16580    1.000
    C1       C        0.79690    0.02450    0.95050    1.000
    C2       C        0.00370    0.06260    0.94580    1.000
    C3       C        0.00140    0.13630    0.86680    1.000
    C4       C        0.19330    0.54010    0.02440    1.000
    O3       O        0.65870    0.67412    0.35300    1.000
    O4       O        0.31870    0.15915    0.66580    1.000
    C5       C        0.29690    0.52450    0.45050    1.000
    C6       C        0.50370    0.56260    0.44580    1.000
    C7       C        0.50140    0.63630    0.36680    1.000
    C8       C        0.69330    0.04010    0.52440    1.000
    O5       O        0.84130    0.32588    0.85300    1.000
    O6       O        0.18130    0.84085    0.16580    1.000
    C9       C        0.20310    0.47550    0.95050    1.000
    C10      C        0.99630    0.43740    0.94580    1.000
    C11      C        0.99860    0.36370    0.86680    1.000
    C12      C        0.80670    0.95990    0.02440    1.000
    O7       O        0.34130    0.82588    0.35300    1.000
    O8       O        0.68130    0.34085    0.66580    1.000
    C13      C        0.70310    0.97550    0.45050    1.000
    C14      C        0.49630    0.93740    0.44580    1.000
    C15      C        0.49860    0.86370    0.36680    1.000
    C16      C        0.30670    0.45990    0.52440    1.000
    O9       O        0.84130    0.82588    0.14700    1.000
    O10      O        0.18130    0.34085    0.83420    1.000
    C17      C        0.20310    0.97550    0.04950    1.000
    C18      C        0.99630    0.93740    0.05420    1.000
    C19      C        0.99860    0.86370    0.13320    1.000
    C20      C        0.80670    0.45990    0.97560    1.000
    O11      O        0.34130    0.32588    0.64700    1.000
    O12      O        0.68130    0.84085    0.33420    1.000
    C21      C        0.70310    0.47550    0.54950    1.000
    C22      C        0.49630    0.43740    0.55420    1.000
    C23      C        0.49860    0.36370    0.63320    1.000
    C24      C        0.30670    0.95990    0.47560    1.000
    O13      O        0.15870    0.67412    0.14700    1.000
    O14      O        0.81870    0.15915    0.83420    1.000
    C25      C        0.79690    0.52450    0.04950    1.000
    C26      C        0.00370    0.56260    0.05420    1.000
    C27      C        0.00140    0.63630    0.13320    1.000
    C28      C        0.19330    0.04010    0.97560    1.000
    O15      O        0.65870    0.17412    0.64700    1.000
    O16      O        0.31870    0.65915    0.33420    1.000
    C29      C        0.29690    0.02450    0.54950    1.000
    C30      C        0.50370    0.06260    0.55420    1.000
    C31      C        0.50140    0.13630    0.63320    1.000
    C32      C        0.69330    0.54010    0.47560    1.000
    Al1      Al       0.25000    0.25000    0.75000    1.000
    Al2      Al       0.75000    0.25000    0.75000    1.000
    Al3      Al       0.75000    0.75000    0.25000    1.000
    Al4      Al       0.25000    0.75000    0.25000    1.000
    F1       F        0.00000    0.25000    0.69060    1.000
    F2       F        0.50000    0.75000    0.19060    1.000
    F3       F        0.00000    0.75000    0.30940    1.000
    F4       F        0.50000    0.25000    0.80940    1.000
