data_functionalizedCrystal
_audit_creation_method	'EQeq! by Chris Wilmer'
_symmetry_space_group_name_H-M	'P1'
_symmetry_Int_Tables_number	1
_symmetry_cell_setting	triclinic
loop_
_symmetry_equiv_pos_as_xyz
  x,y,z
_cell_length_a	10.471
_cell_length_b	11.359
_cell_length_c	13.093
_cell_angle_alpha	107.541
_cell_angle_beta	90.084
_cell_angle_gamma	92.355
loop_
_atom_site_label
_atom_site_type_symbol
_atom_site_fract_x
_atom_site_fract_y
_atom_site_fract_z
_atom_site_charge
Mof_Nd	Nd	0.48068	0.45342	0.33946	2.357
Mof_C 	C 	0.4987	0.2335	0.1706	0.351
Mof_C 	C 	0.5089	0.7462	0.5072	0.531
Mof_C 	C 	0.2668	0.4913	0.5612	0.452
Mof_C 	C 	0.4998	0.1154	0.0861	-0.112
Mof_C 	C 	0.5064	0.8799	0.5069	-0.173
Mof_C 	C 	0.1288	0.4966	0.5284	-0.161
Mof_C 	C 	0.4514	0.006	0.101	0.05
Mof_C 	C 	0.3912	0.9397	0.5257	0.049
Mof_C 	C 	0.0764	0.4029	0.4409	0.024
Mof_C 	C 	0.4033	0.0005	0.2051	-0.079
Mof_H 	H 	0.411	0.0712	0.2637	0.075
Mof_C 	C 	0.2769	0.8831	0.5525	-0.075
Mof_H 	H 	0.2792	0.804	0.5592	0.05
Mof_C 	C 	0.1495	0.3028	0.3813	-0.071
Mof_H 	H 	0.2346	0.299	0.4001	0.025
Mof_C 	C 	0.3486	0.8968	0.2187	-0.029
Mof_H 	H 	0.3135	0.8993	0.2845	0.037
Mof_C 	C 	0.1655	0.9417	0.5685	-0.041
Mof_H 	H 	0.0918	0.9014	0.5832	0.044
Mof_C 	C 	0.0954	0.2122	0.2965	-0.05
Mof_H 	H 	0.1436	0.1467	0.2582	0.049
Mof_C 	C 	0.3439	0.7831	0.1336	-0.037
Mof_H 	H 	0.3091	0.7111	0.144	0.011
Mof_C 	C 	0.1604	0.0627	0.5631	-0.019
Mof_H 	H 	0.0832	0.102	0.5737	0.033
Mof_C 	C 	0.9665	0.2181	0.2671	-0.018
Mof_H 	H 	0.9313	0.1573	0.2082	0.039
Mof_C 	C 	0.3919	0.7827	0.0362	-0.072
Mof_H 	H 	0.3883	0.7085	0.981	0.036
Mof_C 	C 	0.2674	0.1235	0.5427	-0.094
Mof_H 	H 	0.2631	0.2051	0.5427	0.062
Mof_C 	C 	0.8931	0.3108	0.3231	-0.098
Mof_H 	H 	0.8077	0.3114	0.3037	0.076
Mof_C 	C 	0.4475	0.8905	0.0145	0.036
Mof_C 	C 	0.3863	0.064	0.5213	0.062
Mof_C 	C 	0.9461	0.4077	0.4119	0.054
Mof_O 	O 	0.3909	0.281	0.1951	-0.517
Mof_O 	O 	0.4929	0.667	0.4159	-0.621
Mof_O 	O 	0.3574	0.5053	0.5021	-0.691
Mof_O 	O 	0.5985	0.2833	0.2172	-0.475
Mof_O 	O 	0.5277	0.7242	0.5928	-0.559
Mof_O 	O 	0.2887	0.4838	0.6524	-0.51
Mof_Nd	Nd	0.51932	0.54658	0.66054	2.356
Mof_C 	C 	0.5013	0.7665	0.8294	0.35
Mof_C 	C 	0.4911	0.2538	0.4928	0.531
Mof_C 	C 	0.7332	0.5087	0.4388	0.452
Mof_C 	C 	0.5002	0.8846	0.9139	-0.112
Mof_C 	C 	0.4936	0.1201	0.4931	-0.173
Mof_C 	C 	0.8712	0.5034	0.4716	-0.161
Mof_C 	C 	0.5486	0.994	0.899	0.05
Mof_C 	C 	0.6088	0.0603	0.4743	0.049
Mof_C 	C 	0.9236	0.5971	0.5591	0.024
Mof_C 	C 	0.5967	0.9995	0.7949	-0.079
Mof_H 	H 	0.589	0.9288	0.7363	0.075
Mof_C 	C 	0.7231	0.1169	0.4475	-0.075
Mof_H 	H 	0.7208	0.196	0.4408	0.05
Mof_C 	C 	0.8505	0.6972	0.6187	-0.071
Mof_H 	H 	0.7654	0.701	0.5999	0.025
Mof_C 	C 	0.6514	0.1032	0.7813	-0.029
Mof_H 	H 	0.6865	0.1007	0.7155	0.037
Mof_C 	C 	0.8345	0.0583	0.4315	-0.041
Mof_H 	H 	0.9082	0.0986	0.4168	0.044
Mof_C 	C 	0.9046	0.7878	0.7035	-0.05
Mof_H 	H 	0.8564	0.8533	0.7418	0.049
Mof_C 	C 	0.6561	0.2169	0.8664	-0.037
Mof_H 	H 	0.6909	0.2889	0.856	0.011
Mof_C 	C 	0.8396	0.9373	0.4369	-0.019
Mof_H 	H 	0.9168	0.898	0.4263	0.033
Mof_C 	C 	0.0335	0.7819	0.7329	-0.018
Mof_H 	H 	0.0687	0.8427	0.7918	0.039
Mof_C 	C 	0.6081	0.2173	0.9638	-0.072
Mof_H 	H 	0.6117	0.2915	0.019	0.036
Mof_C 	C 	0.7326	0.8765	0.4573	-0.094
Mof_H 	H 	0.7369	0.7949	0.4573	0.062
Mof_C 	C 	0.1069	0.6892	0.6769	-0.098
Mof_H 	H 	0.1923	0.6886	0.6963	0.076
Mof_C 	C 	0.5525	0.1095	0.9855	0.036
Mof_C 	C 	0.6137	0.936	0.4787	0.062
Mof_C 	C 	0.0539	0.5923	0.5881	0.054
Mof_O 	O 	0.6091	0.719	0.8049	-0.517
Mof_O 	O 	0.5071	0.333	0.5841	-0.621
Mof_O 	O 	0.6426	0.4947	0.4979	-0.691
Mof_O 	O 	0.4015	0.7167	0.7828	-0.475
Mof_O 	O 	0.4723	0.2758	0.4072	-0.559
Mof_O 	O 	0.7113	0.5162	0.3476	-0.51
_end
