# CIF file generated by openbabel 3.1.0, see https://openbabel.org
data_I
_chemical_name_common 'image0'
_cell_length_a 9.6083
_cell_length_b 16.036
_cell_length_c 14.084
_cell_angle_alpha 90
_cell_angle_beta 90
_cell_angle_gamma 90
_space_group_name_H-M_alt 'P 1'
_space_group_name_Hall 'P 1'
loop_
    _symmetry_equiv_pos_as_xyz
    x,y,z
loop_
    _atom_site_label
    _atom_site_type_symbol
    _atom_site_fract_x
    _atom_site_fract_y
    _atom_site_fract_z
    _atom_site_occupancy
    Zn1      Zn       0.04010    0.42021    0.89320    1.000
    O1       O        0.84880    0.39780    0.86170    1.000
    O2       O        0.64840    0.32350    0.80390    1.000
    O3       O        0.83540    0.35687    0.68770    1.000
    O4       O        0.07990    0.53810    0.88780    1.000
    O5       O        0.91290    0.62660    0.98350    1.000
    O6       O        0.05950    0.69019    0.85470    1.000
    P1       P        0.75858    0.38431    0.77600    1.000
    H1       H        0.72000    0.46300    0.75800    1.000
    P2       P        0.98286    0.61216    0.88788    1.000
    H2       H        0.87600    0.60200    0.82800    1.000
    Zn2      Zn       0.45990    0.07979    0.39320    1.000
    O7       O        0.65120    0.10220    0.36170    1.000
    O8       O        0.85160    0.17650    0.30390    1.000
    O9       O        0.66460    0.14313    0.18770    1.000
    O10      O        0.42010    0.96190    0.38780    1.000
    O11      O        0.58710    0.87340    0.48350    1.000
    O12      O        0.44050    0.80981    0.35470    1.000
    P3       P        0.74142    0.11569    0.27600    1.000
    H3       H        0.78000    0.03700    0.25800    1.000
    P4       P        0.51714    0.88784    0.38788    1.000
    H4       H        0.62400    0.89800    0.32800    1.000
    Zn3      Zn       0.95990    0.42021    0.60680    1.000
    O13      O        0.15120    0.39780    0.63830    1.000
    O14      O        0.35160    0.32350    0.69610    1.000
    O15      O        0.16460    0.35687    0.81230    1.000
    O16      O        0.92010    0.53810    0.61220    1.000
    O17      O        0.08710    0.62660    0.51650    1.000
    O18      O        0.94050    0.69019    0.64530    1.000
    P5       P        0.24142    0.38431    0.72400    1.000
    H5       H        0.28000    0.46300    0.74200    1.000
    P6       P        0.01714    0.61216    0.61212    1.000
    H6       H        0.12400    0.60200    0.67200    1.000
    Zn4      Zn       0.54010    0.07979    0.10680    1.000
    O19      O        0.34880    0.10220    0.13830    1.000
    O20      O        0.14840    0.17650    0.19610    1.000
    O21      O        0.33540    0.14313    0.31230    1.000
    O22      O        0.57990    0.96190    0.11220    1.000
    O23      O        0.41290    0.87340    0.01650    1.000
    O24      O        0.55950    0.80981    0.14530    1.000
    P7       P        0.25858    0.11569    0.22400    1.000
    H7       H        0.22000    0.03700    0.24200    1.000
    P8       P        0.48286    0.88784    0.11212    1.000
    H8       H        0.37600    0.89800    0.17200    1.000
    Zn5      Zn       0.95990    0.57979    0.10680    1.000
    O25      O        0.15120    0.60220    0.13830    1.000
    O26      O        0.35160    0.67650    0.19610    1.000
    O27      O        0.16460    0.64313    0.31230    1.000
    O28      O        0.92010    0.46190    0.11220    1.000
    O29      O        0.08710    0.37340    0.01650    1.000
    O30      O        0.94050    0.30981    0.14530    1.000
    P9       P        0.24142    0.61569    0.22400    1.000
    H9       H        0.28000    0.53700    0.24200    1.000
    P10      P        0.01714    0.38784    0.11212    1.000
    H10      H        0.12400    0.39800    0.17200    1.000
    Zn6      Zn       0.54010    0.92021    0.60680    1.000
    O31      O        0.34880    0.89780    0.63830    1.000
    O32      O        0.14840    0.82350    0.69610    1.000
    O33      O        0.33540    0.85687    0.81230    1.000
    O34      O        0.57990    0.03810    0.61220    1.000
    O35      O        0.41290    0.12660    0.51650    1.000
    O36      O        0.55950    0.19019    0.64530    1.000
    P11      P        0.25858    0.88431    0.72400    1.000
    H11      H        0.22000    0.96300    0.74200    1.000
    P12      P        0.48286    0.11216    0.61212    1.000
    H12      H        0.37600    0.10200    0.67200    1.000
    Zn7      Zn       0.04010    0.57979    0.39320    1.000
    O37      O        0.84880    0.60220    0.36170    1.000
    O38      O        0.64840    0.67650    0.30390    1.000
    O39      O        0.83540    0.64313    0.18770    1.000
    O40      O        0.07990    0.46190    0.38780    1.000
    O41      O        0.91290    0.37340    0.48350    1.000
    O42      O        0.05950    0.30981    0.35470    1.000
    P13      P        0.75858    0.61569    0.27600    1.000
    H13      H        0.72000    0.53700    0.25800    1.000
    P14      P        0.98286    0.38784    0.38788    1.000
    H14      H        0.87600    0.39800    0.32800    1.000
    Zn8      Zn       0.45990    0.92021    0.89320    1.000
    O43      O        0.65120    0.89780    0.86170    1.000
    O44      O        0.85160    0.82350    0.80390    1.000
    O45      O        0.66460    0.85687    0.68770    1.000
    O46      O        0.42010    0.03810    0.88780    1.000
    O47      O        0.58710    0.12660    0.98350    1.000
    O48      O        0.44050    0.19019    0.85470    1.000
    P15      P        0.74142    0.88431    0.77600    1.000
    H15      H        0.78000    0.96300    0.75800    1.000
    P16      P        0.51714    0.11216    0.88788    1.000
    H16      H        0.62400    0.10200    0.82800    1.000
    Zn9      Zn       0.00000    0.76115    0.75000    1.000
    Zn10     Zn       0.50000    0.73885    0.25000    1.000
    Zn11     Zn       0.00000    0.23885    0.25000    1.000
    Zn12     Zn       0.50000    0.26115    0.75000    1.000
