data_functionalizedCrystal
_audit_creation_method	'EQeq! by Chris Wilmer'
_symmetry_space_group_name_H-M	'P1'
_symmetry_Int_Tables_number	1
_symmetry_cell_setting	triclinic
loop_
_symmetry_equiv_pos_as_xyz
  x,y,z
_cell_length_a	16.9014
_cell_length_b	34.0597
_cell_length_c	18.3315
_cell_angle_alpha	90
_cell_angle_beta	90
_cell_angle_gamma	90
loop_
_atom_site_label
_atom_site_type_symbol
_atom_site_fract_x
_atom_site_fract_y
_atom_site_fract_z
_atom_site_charge
Mof_Ti	Ti	0.28802	0.15448	0.82914	1.395
Mof_Ti	Ti	0.17331	0.17557	0.66865	1.393
Mof_Ti	Ti	0.71198	0.84552	0.82914	1.394
Mof_Ti	Ti	0.82669	0.82443	0.66865	1.39
Mof_Ti	Ti	0.78802	0.34552	0.17086	1.394
Mof_Ti	Ti	0.67331	0.32443	0.33135	1.392
Mof_Ti	Ti	0.21198	0.65448	0.17086	1.395
Mof_Ti	Ti	0.32669	0.67557	0.33135	1.392
Mof_Zn	Zn	0.10811	0.0046	0.2486	1.21
Mof_Zn	Zn	0.0008	0.01403	0.09769	0.919
Mof_Zn	Zn	0.89189	0.9954	0.2486	1.208
Mof_Zn	Zn	0.9992	0.98597	0.09769	0.911
Mof_Zn	Zn	0.60811	0.4954	0.7514	1.21
Mof_Zn	Zn	0.5008	0.48597	0.90231	0.916
Mof_Zn	Zn	0.39189	0.5046	0.7514	1.21
Mof_Zn	Zn	0.4992	0.51403	0.90231	0.916
Mof_H 	H 	0.3183	0.0685	0.1318	-0.025
Mof_H 	H 	0.135	0.0464	0.9953	-0.044
Mof_H 	H 	0.4466	0.0778	0.1327	0.248
Mof_H 	H 	0.4081	0.1167	0.1665	0.241
Mof_H 	H 	0.4943	0.1184	0.1304	0.233
Mof_H 	H 	0.4729	0.0737	0.0012	0.242
Mof_H 	H 	0.5185	0.1145	0.0112	0.234
Mof_H 	H 	0.4528	0.11	0.9489	0.247
Mof_H 	H 	0.3758	0.1686	0.9971	0.27
Mof_H 	H 	0.4511	0.1734	0.0492	0.237
Mof_H 	H 	0.364	0.1723	0.0834	0.243
Mof_H 	H 	0.2029	0.0734	0.8422	-0.019
Mof_H 	H 	0.1194	0.0773	0.8833	0.006
Mof_H 	H 	0.1491	0.1502	0.9623	0.032
Mof_H 	H 	0.0297	0.1203	0.9329	0.031
Mof_H 	H 	0.0155	0.1502	0.8667	0.025
Mof_H 	H 	0.9384	0.1718	0.9663	0.058
Mof_H 	H 	0.0136	0.1709	0.0194	0.075
Mof_H 	H 	0.9871	0.2335	0.9877	0.001
Mof_H 	H 	0.9893	0.2224	0.903	-0.004
Mof_H 	H 	0.1208	0.2223	0.9983	0.066
Mof_H 	H 	0.1054	0.2531	0.9339	0.055
Mof_H 	H 	0.1204	0.2033	0.8451	-0.007
Mof_H 	H 	0.2249	0.2432	0.8049	0.031
Mof_H 	H 	0.2197	0.2644	0.8826	0.021
Mof_H 	H 	0.3103	0.3106	0.8682	0.015
Mof_H 	H 	0.5416	0.2868	0.8298	-0.021
Mof_H 	H 	0.6196	0.2477	0.7648	0.217
Mof_H 	H 	0.6606	0.2086	0.7949	0.215
Mof_H 	H 	0.6361	0.2428	0.8502	0.224
Mof_H 	H 	0.4965	0.1676	0.8879	0.242
Mof_H 	H 	0.5642	0.1948	0.9223	0.231
Mof_H 	H 	0.5871	0.1609	0.8656	0.224
Mof_H 	H 	0.4712	0.1736	0.7438	0.23
Mof_H 	H 	0.5643	0.1659	0.7369	0.211
Mof_H 	H 	0.5259	0.2042	0.7007	0.216
Mof_H 	H 	0.5867	0.4122	0.8241	-0.011
Mof_H 	H 	0.5532	0.3461	0.8084	0.062
Mof_H 	H 	0.3451	0.3648	0.9127	0.059
Mof_H 	H 	0.3786	0.431	0.9283	-0.023
Mof_H 	H 	0.0583	0.1222	0.3571	-0.039
Mof_H 	H 	0.1673	0.0467	0.4954	-0.007
Mof_H 	H 	0.99	0.1714	0.3412	0.247
Mof_H 	H 	0.075	0.1905	0.3266	0.235
Mof_H 	H 	0.0018	0.2178	0.3489	0.238
Mof_H 	H 	0.1226	0.2199	0.5065	0.275
Mof_H 	H 	0.0786	0.2458	0.4458	0.245
Mof_H 	H 	0.1519	0.2185	0.4235	0.252
Mof_H 	H 	0.983	0.1883	0.5361	0.254
Mof_H 	H 	0.9335	0.1716	0.4684	0.256
Mof_H 	H 	0.9498	0.2178	0.4754	0.25
Mof_H 	H 	0.1447	0.0877	0.6476	-0.023
Mof_H 	H 	0.2169	0.0667	0.6067	0.011
Mof_H 	H 	0.2769	0.1371	0.5344	0.025
Mof_H 	H 	0.3877	0.0924	0.6202	0.042
Mof_H 	H 	0.3372	0.0754	0.5535	0.055
Mof_H 	H 	0.4068	0.1148	0.4715	0.036
Mof_H 	H 	0.4678	0.0884	0.5171	0.033
Mof_H 	H 	0.4964	0.1435	0.5963	0.028
Mof_H 	H 	0.5147	0.1557	0.5135	0.019
Mof_H 	H 	0.3908	0.1878	0.5049	0.043
Mof_H 	H 	0.4389	0.2057	0.5726	0.032
Mof_H 	H 	0.3674	0.1657	0.6551	-0.001
Mof_H 	H 	0.3605	0.2455	0.6296	0.01
Mof_H 	H 	0.3304	0.2257	0.7034	0.026
Mof_H 	H 	0.3451	0.3091	0.6696	0.006
Mof_H 	H 	0.1273	0.3558	0.7013	-0.025
Mof_H 	H 	0.9368	0.3307	0.6984	0.245
Mof_H 	H 	0.0072	0.3491	0.6511	0.26
Mof_H 	H 	0.0137	0.3479	0.7382	0.252
Mof_H 	H 	0.9434	0.2715	0.6279	0.25
Mof_H 	H 	0.0239	0.2474	0.6169	0.27
Mof_H 	H 	0.0138	0.2898	0.5804	0.265
Mof_H 	H 	0.9562	0.2663	0.7632	0.237
Mof_H 	H 	0.0341	0.2826	0.8026	0.249
Mof_H 	H 	0.0378	0.2427	0.7565	0.255
Mof_H 	H 	0.4347	0.4315	0.6661	-0.002
Mof_H 	H 	0.3773	0.3706	0.6396	0.056
Mof_H 	H 	0.1941	0.3961	0.7741	0.06
Mof_H 	H 	0.2515	0.457	0.8007	-0.002
Mof_H 	H 	0.6817	0.9315	0.1318	-0.026
Mof_H 	H 	0.865	0.9536	0.9953	-0.045
Mof_H 	H 	0.5534	0.9222	0.1327	0.245
Mof_H 	H 	0.5919	0.8833	0.1665	0.24
Mof_H 	H 	0.5057	0.8816	0.1304	0.231
Mof_H 	H 	0.5271	0.9263	0.0012	0.239
Mof_H 	H 	0.4815	0.8855	0.0112	0.232
Mof_H 	H 	0.5472	0.89	0.9489	0.244
Mof_H 	H 	0.6242	0.8314	0.9971	0.27
Mof_H 	H 	0.5489	0.8266	0.0492	0.236
Mof_H 	H 	0.636	0.8277	0.0834	0.243
Mof_H 	H 	0.7971	0.9266	0.8422	-0.021
Mof_H 	H 	0.8806	0.9227	0.8833	0.003
Mof_H 	H 	0.8509	0.8498	0.9623	0.025
Mof_H 	H 	0.9703	0.8797	0.9329	0.045
Mof_H 	H 	0.9845	0.8498	0.8667	0.038
Mof_H 	H 	0.0616	0.8282	0.9663	0.028
Mof_H 	H 	0.9864	0.8291	0.0194	0.039
Mof_H 	H 	0.0129	0.7665	0.9877	0.037
Mof_H 	H 	0.0107	0.7776	0.903	0.032
Mof_H 	H 	0.8792	0.7777	0.9983	0.048
Mof_H 	H 	0.8946	0.7469	0.9339	0.035
Mof_H 	H 	0.8796	0.7967	0.8451	-0
Mof_H 	H 	0.7751	0.7568	0.8049	0.031
Mof_H 	H 	0.7803	0.7356	0.8826	0.021
Mof_H 	H 	0.6897	0.6894	0.8682	0.015
Mof_H 	H 	0.4584	0.7132	0.8298	-0.021
Mof_H 	H 	0.3804	0.7523	0.7648	0.217
Mof_H 	H 	0.3394	0.7914	0.7949	0.215
Mof_H 	H 	0.3639	0.7572	0.8502	0.224
Mof_H 	H 	0.5035	0.8324	0.8879	0.241
Mof_H 	H 	0.4358	0.8052	0.9223	0.231
Mof_H 	H 	0.4129	0.8391	0.8656	0.223
Mof_H 	H 	0.5288	0.8264	0.7438	0.229
Mof_H 	H 	0.4357	0.8341	0.7369	0.21
Mof_H 	H 	0.4741	0.7958	0.7007	0.215
Mof_H 	H 	0.4133	0.5878	0.8241	-0.011
Mof_H 	H 	0.4468	0.6539	0.8084	0.062
Mof_H 	H 	0.6549	0.6352	0.9127	0.059
Mof_H 	H 	0.6214	0.569	0.9283	-0.023
Mof_H 	H 	0.9417	0.8778	0.3571	-0.041
Mof_H 	H 	0.8327	0.9533	0.4954	-0.01
Mof_H 	H 	0.01	0.8286	0.3412	0.258
Mof_H 	H 	0.925	0.8095	0.3266	0.24
Mof_H 	H 	0.9982	0.7822	0.3489	0.241
Mof_H 	H 	0.8774	0.7801	0.5065	0.274
Mof_H 	H 	0.9214	0.7542	0.4458	0.242
Mof_H 	H 	0.8481	0.7815	0.4235	0.251
Mof_H 	H 	0.017	0.8117	0.5361	0.254
Mof_H 	H 	0.0665	0.8284	0.4684	0.255
Mof_H 	H 	0.0502	0.7822	0.4754	0.249
Mof_H 	H 	0.8553	0.9123	0.6476	-0.026
Mof_H 	H 	0.7831	0.9333	0.6067	0.008
Mof_H 	H 	0.7231	0.8629	0.5344	0.025
Mof_H 	H 	0.6123	0.9076	0.6202	0.041
Mof_H 	H 	0.6628	0.9246	0.5535	0.054
Mof_H 	H 	0.5932	0.8852	0.4715	0.035
Mof_H 	H 	0.5322	0.9116	0.5171	0.031
Mof_H 	H 	0.5036	0.8565	0.5963	0.027
Mof_H 	H 	0.4853	0.8443	0.5135	0.019
Mof_H 	H 	0.6092	0.8122	0.5049	0.043
Mof_H 	H 	0.5611	0.7943	0.5726	0.032
Mof_H 	H 	0.6326	0.8343	0.6551	-0.001
Mof_H 	H 	0.6395	0.7545	0.6296	0.011
Mof_H 	H 	0.6696	0.7743	0.7034	0.027
Mof_H 	H 	0.6549	0.6909	0.6696	0.006
Mof_H 	H 	0.8727	0.6442	0.7013	-0.024
Mof_H 	H 	0.0632	0.6693	0.6984	0.229
Mof_H 	H 	0.9928	0.6509	0.6511	0.239
Mof_H 	H 	0.9863	0.6521	0.7382	0.231
Mof_H 	H 	0.0566	0.7285	0.6279	0.257
Mof_H 	H 	0.9761	0.7526	0.6169	0.271
Mof_H 	H 	0.9862	0.7102	0.5804	0.266
Mof_H 	H 	0.0438	0.7337	0.7632	0.243
Mof_H 	H 	0.9659	0.7174	0.8026	0.249
Mof_H 	H 	0.9622	0.7573	0.7565	0.256
Mof_H 	H 	0.5653	0.5685	0.6661	-0.002
Mof_H 	H 	0.6227	0.6294	0.6396	0.056
Mof_H 	H 	0.8059	0.6039	0.7741	0.059
Mof_H 	H 	0.7485	0.543	0.8007	-0.002
Mof_H 	H 	0.8183	0.4315	0.8682	-0.026
Mof_H 	H 	0.635	0.4536	0.0047	-0.045
Mof_H 	H 	0.9466	0.4222	0.8673	0.246
Mof_H 	H 	0.9081	0.3833	0.8335	0.24
Mof_H 	H 	0.9943	0.3816	0.8696	0.231
Mof_H 	H 	0.9729	0.4263	0.9988	0.245
Mof_H 	H 	0.0185	0.3855	0.9888	0.24
Mof_H 	H 	0.9528	0.39	0.0511	0.25
Mof_H 	H 	0.8758	0.3314	0.0029	0.271
Mof_H 	H 	0.9511	0.3266	0.9508	0.236
Mof_H 	H 	0.864	0.3277	0.9166	0.243
Mof_H 	H 	0.7029	0.4266	0.1578	-0.02
Mof_H 	H 	0.6194	0.4227	0.1167	0.004
Mof_H 	H 	0.6491	0.3498	0.0377	0.029
Mof_H 	H 	0.5297	0.3797	0.0671	0.038
Mof_H 	H 	0.5155	0.3498	0.1333	0.031
Mof_H 	H 	0.4384	0.3282	0.0337	0.044
Mof_H 	H 	0.5136	0.3291	0.9806	0.058
Mof_H 	H 	0.4871	0.2665	0.0123	0.018
Mof_H 	H 	0.4893	0.2776	0.097	0.013
Mof_H 	H 	0.6208	0.2777	0.0017	0.057
Mof_H 	H 	0.6054	0.2469	0.0661	0.046
Mof_H 	H 	0.6204	0.2967	0.1549	-0.004
Mof_H 	H 	0.7249	0.2568	0.1951	0.032
Mof_H 	H 	0.7197	0.2356	0.1174	0.021
Mof_H 	H 	0.8103	0.1894	0.1318	0.016
Mof_H 	H 	0.0416	0.2132	0.1702	-0.015
Mof_H 	H 	0.1196	0.2523	0.2352	0.216
Mof_H 	H 	0.1606	0.2914	0.2051	0.214
Mof_H 	H 	0.1361	0.2572	0.1498	0.223
Mof_H 	H 	0.9965	0.3324	0.1121	0.234
Mof_H 	H 	0.0642	0.3052	0.0777	0.227
Mof_H 	H 	0.0871	0.3391	0.1344	0.219
Mof_H 	H 	0.9712	0.3264	0.2562	0.223
Mof_H 	H 	0.0643	0.3341	0.2631	0.207
Mof_H 	H 	0.0259	0.2958	0.2993	0.212
Mof_H 	H 	0.0867	0.0878	0.1759	-0.011
Mof_H 	H 	0.0532	0.1539	0.1916	0.06
Mof_H 	H 	0.8451	0.1352	0.0873	0.057
Mof_H 	H 	0.8786	0.069	0.0717	-0.021
Mof_H 	H 	0.5583	0.3778	0.6429	-0.04
Mof_H 	H 	0.6673	0.4533	0.5046	-0.008
Mof_H 	H 	0.49	0.3286	0.6588	0.252
Mof_H 	H 	0.575	0.3095	0.6734	0.237
Mof_H 	H 	0.5018	0.2822	0.6511	0.239
Mof_H 	H 	0.6226	0.2801	0.4935	0.275
Mof_H 	H 	0.5786	0.2542	0.5542	0.244
Mof_H 	H 	0.6519	0.2815	0.5765	0.251
Mof_H 	H 	0.483	0.3117	0.4639	0.254
Mof_H 	H 	0.4335	0.3284	0.5316	0.256
Mof_H 	H 	0.4498	0.2822	0.5246	0.249
Mof_H 	H 	0.6447	0.4123	0.3524	-0.024
Mof_H 	H 	0.7169	0.4333	0.3933	0.009
Mof_H 	H 	0.7769	0.3629	0.4656	0.024
Mof_H 	H 	0.8877	0.4076	0.3798	0.042
Mof_H 	H 	0.8372	0.4246	0.4465	0.055
Mof_H 	H 	0.9068	0.3852	0.5285	0.033
Mof_H 	H 	0.9678	0.4116	0.4829	0.029
Mof_H 	H 	0.9964	0.3565	0.4037	0.03
Mof_H 	H 	0.0147	0.3443	0.4865	0.025
Mof_H 	H 	0.8908	0.3122	0.4951	0.041
Mof_H 	H 	0.9389	0.2943	0.4274	0.029
Mof_H 	H 	0.8674	0.3343	0.3449	-0
Mof_H 	H 	0.8605	0.2545	0.3704	0.01
Mof_H 	H 	0.8304	0.2743	0.2966	0.026
Mof_H 	H 	0.8451	0.1909	0.3304	0.006
Mof_H 	H 	0.6273	0.1442	0.2987	-0.025
Mof_H 	H 	0.4368	0.1693	0.3016	0.237
Mof_H 	H 	0.5072	0.1509	0.3489	0.25
Mof_H 	H 	0.5137	0.1521	0.2618	0.242
Mof_H 	H 	0.4434	0.2285	0.3721	0.254
Mof_H 	H 	0.5239	0.2526	0.3831	0.27
Mof_H 	H 	0.5138	0.2102	0.4196	0.266
Mof_H 	H 	0.4562	0.2337	0.2368	0.24
Mof_H 	H 	0.5341	0.2174	0.1974	0.249
Mof_H 	H 	0.5378	0.2573	0.2435	0.256
Mof_H 	H 	0.9347	0.0685	0.3339	-0.003
Mof_H 	H 	0.8773	0.1294	0.3604	0.056
Mof_H 	H 	0.6941	0.1039	0.2259	0.06
Mof_H 	H 	0.7515	0.043	0.1993	-0.001
Mof_H 	H 	0.1817	0.5685	0.8682	-0.025
Mof_H 	H 	0.365	0.5464	0.0047	-0.044
Mof_H 	H 	0.0534	0.5778	0.8673	0.247
Mof_H 	H 	0.0919	0.6167	0.8335	0.241
Mof_H 	H 	0.0057	0.6184	0.8696	0.233
Mof_H 	H 	0.0271	0.5737	0.9988	0.237
Mof_H 	H 	0.9815	0.6145	0.9888	0.226
Mof_H 	H 	0.0472	0.61	0.0511	0.241
Mof_H 	H 	0.1242	0.6686	0.0029	0.27
Mof_H 	H 	0.0489	0.6734	0.9508	0.236
Mof_H 	H 	0.136	0.6723	0.9166	0.242
Mof_H 	H 	0.2971	0.5734	0.1578	-0.019
Mof_H 	H 	0.3806	0.5773	0.1167	0.005
Mof_H 	H 	0.3509	0.6502	0.0377	0.029
Mof_H 	H 	0.4703	0.6203	0.0671	0.037
Mof_H 	H 	0.4845	0.6502	0.1333	0.031
Mof_H 	H 	0.5616	0.6718	0.0337	0.043
Mof_H 	H 	0.4864	0.6709	0.9806	0.058
Mof_H 	H 	0.5129	0.7335	0.0123	0.018
Mof_H 	H 	0.5107	0.7224	0.097	0.012
Mof_H 	H 	0.3792	0.7223	0.0017	0.057
Mof_H 	H 	0.3946	0.7531	0.0661	0.046
Mof_H 	H 	0.3796	0.7033	0.1549	-0.004
Mof_H 	H 	0.2751	0.7432	0.1951	0.031
Mof_H 	H 	0.2803	0.7644	0.1174	0.021
Mof_H 	H 	0.1897	0.8106	0.1318	0.014
Mof_H 	H 	0.9584	0.7868	0.1702	-0.027
Mof_H 	H 	0.8804	0.7477	0.2352	0.218
Mof_H 	H 	0.8394	0.7086	0.2051	0.217
Mof_H 	H 	0.8639	0.7428	0.1498	0.226
Mof_H 	H 	0.0035	0.6676	0.1121	0.249
Mof_H 	H 	0.9358	0.6948	0.0777	0.235
Mof_H 	H 	0.9129	0.6609	0.1344	0.228
Mof_H 	H 	0.0288	0.6736	0.2562	0.237
Mof_H 	H 	0.9357	0.6659	0.2631	0.215
Mof_H 	H 	0.9741	0.7042	0.2993	0.219
Mof_H 	H 	0.9133	0.9122	0.1759	-0.011
Mof_H 	H 	0.9468	0.8461	0.1916	0.064
Mof_H 	H 	0.1549	0.8648	0.0873	0.06
Mof_H 	H 	0.1214	0.931	0.0717	-0.024
Mof_H 	H 	0.4417	0.6222	0.6429	-0.04
Mof_H 	H 	0.3327	0.5467	0.5046	-0.008
Mof_H 	H 	0.51	0.6714	0.6588	0.252
Mof_H 	H 	0.425	0.6905	0.6734	0.238
Mof_H 	H 	0.4982	0.7178	0.6511	0.239
Mof_H 	H 	0.3774	0.7199	0.4935	0.275
Mof_H 	H 	0.4214	0.7458	0.5542	0.244
Mof_H 	H 	0.3481	0.7185	0.5765	0.251
Mof_H 	H 	0.517	0.6883	0.4639	0.254
Mof_H 	H 	0.5665	0.6716	0.5316	0.256
Mof_H 	H 	0.5502	0.7178	0.5246	0.249
Mof_H 	H 	0.3553	0.5877	0.3524	-0.024
Mof_H 	H 	0.2831	0.5667	0.3933	0.01
Mof_H 	H 	0.2231	0.6371	0.4656	0.025
Mof_H 	H 	0.1123	0.5924	0.3798	0.041
Mof_H 	H 	0.1628	0.5754	0.4465	0.054
Mof_H 	H 	0.0932	0.6148	0.5285	0.038
Mof_H 	H 	0.0322	0.5884	0.4829	0.035
Mof_H 	H 	0.0036	0.6435	0.4037	0.025
Mof_H 	H 	0.9853	0.6557	0.4865	0.013
Mof_H 	H 	0.1092	0.6878	0.4951	0.046
Mof_H 	H 	0.0611	0.7057	0.4274	0.034
Mof_H 	H 	0.1326	0.6657	0.3449	-0.002
Mof_H 	H 	0.1395	0.7455	0.3704	0.011
Mof_H 	H 	0.1696	0.7257	0.2966	0.027
Mof_H 	H 	0.1549	0.8091	0.3304	0.006
Mof_H 	H 	0.3727	0.8558	0.2987	-0.025
Mof_H 	H 	0.5632	0.8307	0.3016	0.237
Mof_H 	H 	0.4928	0.8491	0.3489	0.249
Mof_H 	H 	0.4863	0.8479	0.2618	0.241
Mof_H 	H 	0.5566	0.7715	0.3721	0.254
Mof_H 	H 	0.4761	0.7474	0.3831	0.27
Mof_H 	H 	0.4862	0.7898	0.4196	0.266
Mof_H 	H 	0.5438	0.7663	0.2368	0.239
Mof_H 	H 	0.4659	0.7826	0.1974	0.249
Mof_H 	H 	0.4622	0.7427	0.2435	0.255
Mof_H 	H 	0.0653	0.9315	0.3339	-0.002
Mof_H 	H 	0.1227	0.8706	0.3604	0.056
Mof_H 	H 	0.3059	0.8961	0.2259	0.059
Mof_H 	H 	0.2485	0.957	0.1993	-0.004
Mof_C 	C 	0.1708	0.0278	0.128	0.347
Mof_C 	C 	0.2215	0.0534	0.0716	-0.171
Mof_C 	C 	0.2922	0.0727	0.0866	0.155
Mof_C 	C 	0.3247	0.098	0.0353	-0.339
Mof_C 	C 	0.2865	0.1042	0.9691	0.329
Mof_C 	C 	0.2158	0.0849	0.9542	-0.175
Mof_C 	C 	0.1833	0.0595	0.0054	0.086
Mof_C 	C 	0.404	0.116	0.0524	0.578
Mof_C 	C 	0.4417	0.1063	0.1274	-0.808
Mof_C 	C 	0.4678	0.1023	0.9985	-0.807
Mof_C 	C 	0.3982	0.1619	0.0448	-0.807
Mof_C 	C 	0.1734	0.0883	0.8798	0.003
Mof_C 	C 	0.1261	0.1558	0.9131	-0.009
Mof_C 	C 	0.0384	0.1476	0.9162	-0.07
Mof_C 	C 	0.9962	0.1763	0.9688	-0.158
Mof_C 	C 	0.0128	0.2163	0.9511	0.025
Mof_C 	C 	0.098	0.2254	0.9489	-0.177
Mof_C 	C 	0.1421	0.1982	0.8949	0.04
Mof_C 	C 	0.2469	0.2434	0.855	-0.01
Mof_C 	C 	0.3333	0.2525	0.8513	-0.13
Mof_C 	C 	0.3512	0.29221	0.8581	0.018
Mof_C 	C 	0.4288	0.30499	0.8501	-0.087
Mof_C 	C 	0.4885	0.2781	0.8352	0.086
Mof_C 	C 	0.4707	0.2384	0.8284	-0.294
Mof_C 	C 	0.3931	0.22565	0.8365	0.31
Mof_C 	C 	0.5377	0.2097	0.8152	0.519
Mof_C 	C 	0.6214	0.229	0.8054	-0.742
Mof_C 	C 	0.5472	0.1806	0.8785	-0.775
Mof_C 	C 	0.5234	0.1861	0.7423	-0.727
Mof_C 	C 	0.5377	0.4026	0.8421	0.058
Mof_C 	C 	0.5178	0.3633	0.8328	-0.133
Mof_C 	C 	0.446	0.3492	0.8591	0.079
Mof_C 	C 	0.3942	0.3745	0.8947	-0.122
Mof_C 	C 	0.4141	0.4137	0.904	0.025
Mof_C 	C 	0.1097	0.049	0.3616	0.523
Mof_C 	C 	0.1123	0.07983	0.4179	-0.264
Mof_C 	C 	0.0816	0.1169	0.4032	0.202
Mof_C 	C 	0.0851	0.14612	0.456	-0.348
Mof_C 	C 	0.1192	0.13833	0.5234	0.342
Mof_C 	C 	0.1499	0.10128	0.5381	-0.192
Mof_C 	C 	0.1464	0.07203	0.4853	0.134
Mof_C 	C 	0.0487	0.1868	0.4403	0.583
Mof_C 	C 	0.0267	0.1922	0.3561	-0.778
Mof_C 	C 	0.1056	0.2208	0.4554	-0.84
Mof_C 	C 	0.9718	0.1916	0.484	-0.84
Mof_C 	C 	0.187	0.0916	0.6109	0.026
Mof_C 	C 	0.303	0.1323	0.5825	0.012
Mof_C 	C 	0.3644	0.0991	0.5723	-0.118
Mof_C 	C 	0.4292	0.1102	0.5207	-0.074
Mof_C 	C 	0.4721	0.1484	0.5481	-0.074
Mof_C 	C 	0.4124	0.1818	0.5538	-0.12
Mof_C 	C 	0.3443	0.1701	0.6056	0.014
Mof_C 	C 	0.3131	0.2352	0.655	0.002
Mof_C 	C 	0.256	0.26885	0.6663	-0.144
Mof_C 	C 	0.28946	0.30591	0.6736	0.029
Mof_C 	C 	0.2415	0.33831	0.6866	-0.098
Mof_C 	C 	0.16	0.33365	0.6924	0.101
Mof_C 	C 	0.12653	0.29659	0.6851	-0.311
Mof_C 	C 	0.1745	0.26419	0.672	0.325
Mof_C 	C 	0.0347	0.2925	0.6905	0.604
Mof_C 	C 	0.9943	0.334	0.695	-0.842
Mof_C 	C 	0.001	0.2737	0.623	-0.873
Mof_C 	C 	0.0138	0.2689	0.7594	-0.829
Mof_C 	C 	0.3858	0.42427	0.688	0.057
Mof_C 	C 	0.3518	0.38811	0.6723	-0.131
Mof_C 	C 	0.2803	0.37761	0.7044	0.089
Mof_C 	C 	0.243	0.40326	0.7522	-0.134
Mof_C 	C 	0.277	0.43943	0.768	0.053
Mof_C 	C 	0.8292	0.9722	0.128	0.347
Mof_C 	C 	0.7785	0.9466	0.0716	-0.173
Mof_C 	C 	0.7078	0.9273	0.0866	0.155
Mof_C 	C 	0.6753	0.902	0.0353	-0.34
Mof_C 	C 	0.7135	0.8958	0.9691	0.33
Mof_C 	C 	0.7842	0.9151	0.9542	-0.175
Mof_C 	C 	0.8167	0.9405	0.0054	0.083
Mof_C 	C 	0.596	0.884	0.0524	0.576
Mof_C 	C 	0.5583	0.8937	0.1274	-0.804
Mof_C 	C 	0.5322	0.8977	0.9985	-0.801
Mof_C 	C 	0.6018	0.8381	0.0448	-0.806
Mof_C 	C 	0.8266	0.9117	0.8798	0.005
Mof_C 	C 	0.8739	0.8442	0.9131	0.017
Mof_C 	C 	0.9616	0.8524	0.9162	-0.127
Mof_C 	C 	0.0038	0.8237	0.9688	-0.053
Mof_C 	C 	0.9872	0.7837	0.9511	-0.087
Mof_C 	C 	0.902	0.7746	0.9489	-0.113
Mof_C 	C 	0.8579	0.8018	0.8949	0.013
Mof_C 	C 	0.7531	0.7566	0.855	-0.011
Mof_C 	C 	0.6667	0.7475	0.8513	-0.13
Mof_C 	C 	0.6488	0.70779	0.8581	0.018
Mof_C 	C 	0.5712	0.69501	0.8501	-0.087
Mof_C 	C 	0.5115	0.7219	0.8352	0.086
Mof_C 	C 	0.5293	0.7616	0.8284	-0.294
Mof_C 	C 	0.6069	0.77435	0.8365	0.31
Mof_C 	C 	0.4623	0.7903	0.8152	0.518
Mof_C 	C 	0.3786	0.771	0.8054	-0.742
Mof_C 	C 	0.4528	0.8194	0.8785	-0.774
Mof_C 	C 	0.4766	0.8139	0.7423	-0.726
Mof_C 	C 	0.4623	0.5974	0.8421	0.058
Mof_C 	C 	0.4822	0.6367	0.8328	-0.133
Mof_C 	C 	0.554	0.6508	0.8591	0.079
Mof_C 	C 	0.6058	0.6255	0.8947	-0.122
Mof_C 	C 	0.5859	0.5863	0.904	0.025
Mof_C 	C 	0.8903	0.951	0.3616	0.525
Mof_C 	C 	0.8877	0.92017	0.4179	-0.268
Mof_C 	C 	0.9184	0.8831	0.4032	0.203
Mof_C 	C 	0.9149	0.85388	0.456	-0.35
Mof_C 	C 	0.8808	0.86167	0.5234	0.342
Mof_C 	C 	0.8501	0.89872	0.5381	-0.195
Mof_C 	C 	0.8536	0.92797	0.4853	0.135
Mof_C 	C 	0.9513	0.8132	0.4403	0.581
Mof_C 	C 	0.9733	0.8078	0.3561	-0.799
Mof_C 	C 	0.8944	0.7792	0.4554	-0.838
Mof_C 	C 	0.0282	0.8084	0.484	-0.831
Mof_C 	C 	0.813	0.9084	0.6109	0.028
Mof_C 	C 	0.697	0.8677	0.5825	0.011
Mof_C 	C 	0.6356	0.9009	0.5723	-0.118
Mof_C 	C 	0.5708	0.8898	0.5207	-0.075
Mof_C 	C 	0.5279	0.8516	0.5481	-0.074
Mof_C 	C 	0.5876	0.8182	0.5538	-0.12
Mof_C 	C 	0.6557	0.8299	0.6056	0.014
Mof_C 	C 	0.6869	0.7648	0.655	0.002
Mof_C 	C 	0.744	0.73115	0.6663	-0.143
Mof_C 	C 	0.71054	0.69409	0.6736	0.028
Mof_C 	C 	0.7585	0.66169	0.6866	-0.097
Mof_C 	C 	0.84	0.66635	0.6924	0.097
Mof_C 	C 	0.87347	0.70341	0.6851	-0.306
Mof_C 	C 	0.8255	0.73581	0.672	0.323
Mof_C 	C 	0.9653	0.7075	0.6905	0.591
Mof_C 	C 	0.0057	0.666	0.695	-0.782
Mof_C 	C 	0.999	0.7263	0.623	-0.882
Mof_C 	C 	0.9862	0.7311	0.7594	-0.837
Mof_C 	C 	0.6142	0.57573	0.688	0.057
Mof_C 	C 	0.6482	0.61189	0.6723	-0.131
Mof_C 	C 	0.7197	0.62239	0.7044	0.089
Mof_C 	C 	0.757	0.59674	0.7522	-0.133
Mof_C 	C 	0.723	0.56057	0.768	0.052
Mof_C 	C 	0.6708	0.4722	0.872	0.347
Mof_C 	C 	0.7215	0.4466	0.9284	-0.173
Mof_C 	C 	0.7922	0.4273	0.9134	0.156
Mof_C 	C 	0.8247	0.402	0.9647	-0.341
Mof_C 	C 	0.7865	0.3958	0.0309	0.33
Mof_C 	C 	0.7158	0.4151	0.0458	-0.176
Mof_C 	C 	0.6833	0.4405	0.9946	0.086
Mof_C 	C 	0.904	0.384	0.9476	0.582
Mof_C 	C 	0.9417	0.3937	0.8726	-0.808
Mof_C 	C 	0.9678	0.3977	0.0015	-0.821
Mof_C 	C 	0.8982	0.3381	0.9552	-0.808
Mof_C 	C 	0.6734	0.4117	0.1202	0.005
Mof_C 	C 	0.6261	0.3442	0.0869	0.003
Mof_C 	C 	0.5384	0.3524	0.0838	-0.097
Mof_C 	C 	0.4962	0.3237	0.0312	-0.109
Mof_C 	C 	0.5128	0.2837	0.0489	-0.028
Mof_C 	C 	0.598	0.2746	0.0511	-0.147
Mof_C 	C 	0.6421	0.3018	0.1051	0.027
Mof_C 	C 	0.7469	0.2566	0.145	-0.012
Mof_C 	C 	0.8333	0.2475	0.1487	-0.128
Mof_C 	C 	0.8512	0.20779	0.1419	0.015
Mof_C 	C 	0.9288	0.19501	0.1499	-0.082
Mof_C 	C 	0.9885	0.2219	0.1648	0.075
Mof_C 	C 	0.9707	0.2616	0.1716	-0.291
Mof_C 	C 	0.8931	0.27435	0.1635	0.308
Mof_C 	C 	0.0377	0.2903	0.1848	0.512
Mof_C 	C 	0.1214	0.271	0.1946	-0.737
Mof_C 	C 	0.0472	0.3194	0.1215	-0.757
Mof_C 	C 	0.0234	0.3139	0.2577	-0.71
Mof_C 	C 	0.0377	0.0974	0.1579	0.059
Mof_C 	C 	0.0178	0.1367	0.1672	-0.126
Mof_C 	C 	0.946	0.1508	0.1409	0.071
Mof_C 	C 	0.8942	0.1255	0.1053	-0.119
Mof_C 	C 	0.9141	0.0863	0.096	0.022
Mof_C 	C 	0.6097	0.451	0.6384	0.524
Mof_C 	C 	0.6123	0.42017	0.5821	-0.266
Mof_C 	C 	0.5816	0.3831	0.5968	0.202
Mof_C 	C 	0.5851	0.35388	0.544	-0.349
Mof_C 	C 	0.6192	0.36167	0.4766	0.342
Mof_C 	C 	0.6499	0.39872	0.4619	-0.194
Mof_C 	C 	0.6464	0.42797	0.5147	0.135
Mof_C 	C 	0.5487	0.3132	0.5597	0.582
Mof_C 	C 	0.5267	0.3078	0.6439	-0.788
Mof_C 	C 	0.6056	0.2792	0.5446	-0.839
Mof_C 	C 	0.4718	0.3084	0.516	-0.836
Mof_C 	C 	0.687	0.4084	0.3891	0.027
Mof_C 	C 	0.803	0.3677	0.4175	0.013
Mof_C 	C 	0.8644	0.4009	0.4277	-0.121
Mof_C 	C 	0.9292	0.3898	0.4793	-0.069
Mof_C 	C 	0.9721	0.3516	0.4519	-0.085
Mof_C 	C 	0.9124	0.3182	0.4462	-0.115
Mof_C 	C 	0.8443	0.3299	0.3944	0.011
Mof_C 	C 	0.8131	0.2648	0.345	0.002
Mof_C 	C 	0.756	0.23115	0.3337	-0.144
Mof_C 	C 	0.78946	0.19409	0.3264	0.029
Mof_C 	C 	0.7415	0.16169	0.3134	-0.098
Mof_C 	C 	0.66	0.16635	0.3076	0.099
Mof_C 	C 	0.62653	0.20341	0.3149	-0.308
Mof_C 	C 	0.6745	0.23581	0.328	0.324
Mof_C 	C 	0.5347	0.2075	0.3095	0.598
Mof_C 	C 	0.4943	0.166	0.305	-0.814
Mof_C 	C 	0.501	0.2263	0.377	-0.877
Mof_C 	C 	0.5138	0.2311	0.2406	-0.833
Mof_C 	C 	0.8858	0.07573	0.312	0.057
Mof_C 	C 	0.8518	0.11189	0.3277	-0.131
Mof_C 	C 	0.7803	0.12239	0.2956	0.089
Mof_C 	C 	0.743	0.09674	0.2478	-0.133
Mof_C 	C 	0.777	0.06057	0.232	0.053
Mof_C 	C 	0.3292	0.5278	0.872	0.347
Mof_C 	C 	0.2785	0.5534	0.9284	-0.171
Mof_C 	C 	0.2078	0.5727	0.9134	0.154
Mof_C 	C 	0.1753	0.598	0.9647	-0.338
Mof_C 	C 	0.2135	0.6042	0.0309	0.329
Mof_C 	C 	0.2842	0.5849	0.0458	-0.174
Mof_C 	C 	0.3167	0.5595	0.9946	0.084
Mof_C 	C 	0.096	0.616	0.9476	0.573
Mof_C 	C 	0.0583	0.6063	0.8726	-0.804
Mof_C 	C 	0.0322	0.6023	0.0015	-0.788
Mof_C 	C 	0.1018	0.6619	0.9552	-0.805
Mof_C 	C 	0.3266	0.5883	0.1202	0.004
Mof_C 	C 	0.3739	0.6558	0.0869	0.003
Mof_C 	C 	0.4616	0.6476	0.0838	-0.097
Mof_C 	C 	0.5038	0.6763	0.0312	-0.109
Mof_C 	C 	0.4872	0.7163	0.0489	-0.027
Mof_C 	C 	0.402	0.7254	0.0511	-0.147
Mof_C 	C 	0.3579	0.6982	0.1051	0.027
Mof_C 	C 	0.2531	0.7434	0.145	-0.009
Mof_C 	C 	0.1667	0.7525	0.1487	-0.132
Mof_C 	C 	0.1488	0.79221	0.1419	0.022
Mof_C 	C 	0.0712	0.80499	0.1499	-0.093
Mof_C 	C 	0.0115	0.7781	0.1648	0.098
Mof_C 	C 	0.0293	0.7384	0.1716	-0.297
Mof_C 	C 	0.1069	0.72565	0.1635	0.312
Mof_C 	C 	0.9623	0.7097	0.1848	0.525
Mof_C 	C 	0.8786	0.729	0.1946	-0.747
Mof_C 	C 	0.9528	0.6806	0.1215	-0.793
Mof_C 	C 	0.9766	0.6861	0.2577	-0.743
Mof_C 	C 	0.9623	0.9026	0.1579	0.056
Mof_C 	C 	0.9822	0.8633	0.1672	-0.141
Mof_C 	C 	0.054	0.8492	0.1409	0.089
Mof_C 	C 	0.1058	0.8745	0.1053	-0.126
Mof_C 	C 	0.0859	0.9137	0.096	0.028
Mof_C 	C 	0.3903	0.549	0.6384	0.523
Mof_C 	C 	0.3877	0.57983	0.5821	-0.266
Mof_C 	C 	0.4184	0.6169	0.5968	0.202
Mof_C 	C 	0.4149	0.64612	0.544	-0.349
Mof_C 	C 	0.3808	0.63833	0.4766	0.342
Mof_C 	C 	0.3501	0.60128	0.4619	-0.193
Mof_C 	C 	0.3536	0.57203	0.5147	0.134
Mof_C 	C 	0.4513	0.6868	0.5597	0.582
Mof_C 	C 	0.4733	0.6922	0.6439	-0.788
Mof_C 	C 	0.3944	0.7208	0.5446	-0.839
Mof_C 	C 	0.5282	0.6916	0.516	-0.835
Mof_C 	C 	0.313	0.5916	0.3891	0.027
Mof_C 	C 	0.197	0.6323	0.4175	0.01
Mof_C 	C 	0.1356	0.5991	0.4277	-0.115
Mof_C 	C 	0.0708	0.6102	0.4793	-0.081
Mof_C 	C 	0.0279	0.6484	0.4519	-0.063
Mof_C 	C 	0.0876	0.6818	0.4462	-0.126
Mof_C 	C 	0.1557	0.6701	0.3944	0.016
Mof_C 	C 	0.1869	0.7352	0.345	0.002
Mof_C 	C 	0.244	0.76885	0.3337	-0.144
Mof_C 	C 	0.21054	0.80591	0.3264	0.028
Mof_C 	C 	0.2585	0.83831	0.3134	-0.098
Mof_C 	C 	0.34	0.83365	0.3076	0.099
Mof_C 	C 	0.37347	0.79659	0.3149	-0.308
Mof_C 	C 	0.3255	0.76419	0.328	0.324
Mof_C 	C 	0.4653	0.7925	0.3095	0.598
Mof_C 	C 	0.5057	0.834	0.305	-0.813
Mof_C 	C 	0.499	0.7737	0.377	-0.877
Mof_C 	C 	0.4862	0.7689	0.2406	-0.833
Mof_C 	C 	0.1142	0.92427	0.312	0.056
Mof_C 	C 	0.1482	0.88811	0.3277	-0.131
Mof_C 	C 	0.2197	0.87761	0.2956	0.089
Mof_C 	C 	0.257	0.90326	0.2478	-0.134
Mof_C 	C 	0.223	0.93943	0.232	0.052
Mof_N 	N 	0.1694	0.1318	0.8587	-0.223
Mof_N 	N 	0.2299	0.2036	0.8916	-0.193
Mof_N 	N 	0.2411	0.12319	0.6361	-0.231
Mof_N 	N 	0.2818	0.20103	0.6124	-0.191
Mof_N 	N 	0.4858	0.4278	0.8777	-0.272
Mof_N 	N 	0.3485	0.44993	0.7359	-0.257
Mof_N 	N 	0.8306	0.8682	0.8587	-0.227
Mof_N 	N 	0.7701	0.7964	0.8916	-0.19
Mof_N 	N 	0.7589	0.87681	0.6361	-0.231
Mof_N 	N 	0.7182	0.79897	0.6124	-0.191
Mof_N 	N 	0.5142	0.5722	0.8777	-0.272
Mof_N 	N 	0.6515	0.55007	0.7359	-0.257
Mof_N 	N 	0.6694	0.3682	0.1413	-0.225
Mof_N 	N 	0.7299	0.2964	0.1084	-0.192
Mof_N 	N 	0.7411	0.37681	0.3639	-0.231
Mof_N 	N 	0.7818	0.29897	0.3876	-0.191
Mof_N 	N 	0.9858	0.0722	0.1223	-0.274
Mof_N 	N 	0.8485	0.05007	0.2641	-0.256
Mof_N 	N 	0.3306	0.6318	0.1413	-0.225
Mof_N 	N 	0.2701	0.7036	0.1084	-0.192
Mof_N 	N 	0.2589	0.62319	0.3639	-0.231
Mof_N 	N 	0.2182	0.70103	0.3876	-0.191
Mof_N 	N 	0.0142	0.9278	0.1223	-0.271
Mof_N 	N 	0.1515	0.94993	0.2641	-0.258
Mof_O 	O 	0.1204	0.004	0.1013	-0.614
Mof_O 	O 	0.2019	0.0293	0.1899	-0.435
Mof_O 	O 	0.3157	0.1299	0.921	-0.514
Mof_O 	O 	0.3749	0.1873	0.8303	-0.527
Mof_O 	O 	0.1397	0.0197	0.3687	-0.467
Mof_O 	O 	0.0794	0.0548	0.3023	-0.504
Mof_O 	O 	0.1246	0.16577	0.5756	-0.52
Mof_O 	O 	0.1429	0.22848	0.6699	-0.526
Mof_O 	O 	0.2362	0.17503	0.7498	-0.7
Mof_O 	O 	0.8796	0.996	0.1013	-0.622
Mof_O 	O 	0.7981	0.9707	0.1899	-0.438
Mof_O 	O 	0.6843	0.8701	0.921	-0.514
Mof_O 	O 	0.6251	0.8127	0.8303	-0.527
Mof_O 	O 	0.8603	0.9803	0.3687	-0.472
Mof_O 	O 	0.9206	0.9452	0.3023	-0.508
Mof_O 	O 	0.8754	0.83423	0.5756	-0.522
Mof_O 	O 	0.8571	0.77152	0.6699	-0.525
Mof_O 	O 	0.7638	0.82497	0.7498	-0.7
Mof_O 	O 	0.6204	0.496	0.8987	-0.618
Mof_O 	O 	0.7019	0.4707	0.8101	-0.437
Mof_O 	O 	0.8157	0.3701	0.079	-0.514
Mof_O 	O 	0.8749	0.3127	0.1697	-0.527
Mof_O 	O 	0.6397	0.4803	0.6313	-0.47
Mof_O 	O 	0.5794	0.4452	0.6977	-0.506
Mof_O 	O 	0.6246	0.33423	0.4244	-0.521
Mof_O 	O 	0.6429	0.27152	0.3301	-0.526
Mof_O 	O 	0.7362	0.32497	0.2502	-0.7
Mof_O 	O 	0.3796	0.504	0.8987	-0.618
Mof_O 	O 	0.2981	0.5293	0.8101	-0.436
Mof_O 	O 	0.1843	0.6299	0.079	-0.514
Mof_O 	O 	0.1251	0.6873	0.1697	-0.528
Mof_O 	O 	0.3603	0.5197	0.6313	-0.469
Mof_O 	O 	0.4206	0.5548	0.6977	-0.506
Mof_O 	O 	0.3754	0.66577	0.4244	-0.521
Mof_O 	O 	0.3571	0.72848	0.3301	-0.526
Mof_O 	O 	0.2638	0.67503	0.2502	-0.7
Mof_O 	O 	8.1211e-34	0	0.1997	-0.803
Mof_O 	O 	0.5	0.5	0.8003	-0.809
_end
