# CIF file generated by openbabel 3.1.0, see https://openbabel.org
data_I
_chemical_name_common 'image0'
_cell_length_a 34.628
_cell_length_b 18.2216
_cell_length_c 23.1357
_cell_angle_alpha 90
_cell_angle_beta 118.404
_cell_angle_gamma 90
_space_group_name_H-M_alt 'P 1'
_space_group_name_Hall 'P 1'
loop_
    _symmetry_equiv_pos_as_xyz
    x,y,z
loop_
    _atom_site_label
    _atom_site_type_symbol
    _atom_site_fract_x
    _atom_site_fract_y
    _atom_site_fract_z
    _atom_site_occupancy
    Cd1      Cd       0.71000    0.10581    0.80913    1.000
    Cd2      Cd       0.32140    0.38197    0.32400    1.000
    Cd3      Cd       0.32262    0.44934    0.46342    1.000
    C1       C        0.62110    0.10910    0.74590    1.000
    C2       C        0.57130    0.10460    0.71780    1.000
    C3       C        0.55060    0.16150    0.68110    1.000
    H1       H        0.56780    0.20050    0.68070    1.000
    C4       C        0.50660    0.16840    0.64390    1.000
    H2       H        0.49370    0.21010    0.61890    1.000
    C5       C        0.48100    0.10640    0.64580    1.000
    C6       C        0.50140    0.05060    0.68200    1.000
    H3       H        0.48530    0.01050    0.68360    1.000
    C7       C        0.54640    0.04910    0.71810    1.000
    H4       H        0.55990    0.00800    0.74360    1.000
    C8       C        0.43300    0.11260    0.61160    1.000
    C9       C        0.28540    0.29100    0.41040    1.000
    C10      C        0.30280    0.23110    0.46100    1.000
    C11      C        0.34780    0.22020    0.49910    1.000
    H5       H        0.36690    0.24930    0.49110    1.000
    C12      C        0.36520    0.16880    0.54770    1.000
    C13      C        0.33580    0.12760    0.56120    1.000
    H6       H        0.34650    0.09420    0.59580    1.000
    C14      C        0.29100    0.13730    0.52270    1.000
    C15      C        0.27440    0.18790    0.47340    1.000
    H7       H        0.24410    0.19350    0.44820    1.000
    C16      C        0.26050    0.09200    0.53930    1.000
    C17      C        0.09590    0.91250    0.06380    1.000
    C18      C        0.04800    0.90250    0.01500    1.000
    C19      C        0.02300    0.84470    0.02460    1.000
    H8       H        0.03620    0.81510    0.06170    1.000
    C20      C        0.98150    0.83360    0.98090    1.000
    H9       H        0.96610    0.79410    0.98540    1.000
    C21      C        0.96170    0.88020    0.92980    1.000
    C22      C        0.98490    0.93630    0.92160    1.000
    H10      H        0.97150    0.96740    0.88560    1.000
    C23      C        0.02690    0.94590    0.96570    1.000
    H11      H        0.04170    0.98590    0.96070    1.000
    C24      C        0.91430    0.87570    0.88690    1.000
    C25      C        0.75750    0.97940    0.81400    1.000
    C26      C        0.77950    0.90780    0.81420    1.000
    C27      C        0.75270    0.84670    0.78420    1.000
    H12      H        0.72230    0.85140    0.76220    1.000
    C28      C        0.77240    0.77840    0.78790    1.000
    C29      C        0.81840    0.77210    0.81930    1.000
    H13      H        0.83140    0.72690    0.82080    1.000
    C30      C        0.84430    0.83220    0.84790    1.000
    C31      C        0.82410    0.90040    0.84420    1.000
    H14      H        0.84160    0.94140    0.86270    1.000
    C32      C        0.74370    0.71260    0.75560    1.000
    N1       N        0.41060    0.16040    0.58790    1.000
    N2       N        0.88890    0.82460    0.88840    1.000
    O1       O        0.64610    0.11290    0.70200    1.000
    O2       O        0.63520    0.04360    0.78220    1.000
    O3       O        0.24502    0.29330    0.37360    1.000
    O4       O        0.31396    0.33580    0.41100    1.000
    O5       O        0.27500    0.05560    0.59150    1.000
    O6       O        0.22069    0.09540    0.49770    1.000
    O7       O        0.11920    0.95590    0.05920    1.000
    O8       O        0.11010    0.87490    0.11970    1.000
    O9       O        0.71806    0.98780    0.77940    1.000
    O10      O        0.78253    0.03110    0.84990    1.000
    O11      O        0.76070    0.65330    0.75560    1.000
    O12      O        0.70290    0.72240    0.72810    1.000
    C33      C        0.42610    0.13200    0.80820    1.000
    C34      C        0.44220    0.15120    0.88140    1.000
    C35      C        0.48760    0.15490    0.91770    1.000
    C36      C        0.48450    0.15530    0.61520    1.000
    C37      C        0.49970    0.14100    0.67470    1.000
    C38      C        0.45240    0.13000    0.78100    1.000
    C39      C        0.43590    0.16890    0.57460    1.000
    H15      H        0.42350    0.15940    0.89900    1.000
    H16      H        0.49920    0.15720    0.53670    1.000
    H17      H        0.48050    0.13690    0.69220    1.000
    H18      H        0.44140    0.12260    0.73620    1.000
    N3       N        0.39510    0.33760    0.86070    1.000
    O13      O        0.35840    0.15420    0.75410    1.000
    O14      O        0.35740    0.15070    0.72350    1.000
    Cd4      Cd       0.21000    0.60581    0.80913    1.000
    Cd5      Cd       0.82140    0.88197    0.32400    1.000
    Cd6      Cd       0.82262    0.94934    0.46342    1.000
    C40      C        0.12110    0.60910    0.74590    1.000
    C41      C        0.07130    0.60460    0.71780    1.000
    C42      C        0.05060    0.66150    0.68110    1.000
    H19      H        0.06780    0.70050    0.68070    1.000
    C43      C        0.00660    0.66840    0.64390    1.000
    H20      H        0.99370    0.71010    0.61890    1.000
    C44      C        0.98100    0.60640    0.64580    1.000
    C45      C        0.00140    0.55060    0.68200    1.000
    H21      H        0.98530    0.51050    0.68360    1.000
    C46      C        0.04640    0.54910    0.71810    1.000
    H22      H        0.05990    0.50800    0.74360    1.000
    C47      C        0.93300    0.61260    0.61160    1.000
    C48      C        0.78540    0.79100    0.41040    1.000
    C49      C        0.80280    0.73110    0.46100    1.000
    C50      C        0.84780    0.72020    0.49910    1.000
    H23      H        0.86690    0.74930    0.49110    1.000
    C51      C        0.86520    0.66880    0.54770    1.000
    C52      C        0.83580    0.62760    0.56120    1.000
    H24      H        0.84650    0.59420    0.59580    1.000
    C53      C        0.79100    0.63730    0.52270    1.000
    C54      C        0.77440    0.68790    0.47340    1.000
    H25      H        0.74410    0.69350    0.44820    1.000
    C55      C        0.76050    0.59200    0.53930    1.000
    C56      C        0.59590    0.41250    0.06380    1.000
    C57      C        0.54800    0.40250    0.01500    1.000
    C58      C        0.52300    0.34470    0.02460    1.000
    H26      H        0.53620    0.31510    0.06170    1.000
    C59      C        0.48150    0.33360    0.98090    1.000
    H27      H        0.46610    0.29410    0.98540    1.000
    C60      C        0.46170    0.38020    0.92980    1.000
    C61      C        0.48490    0.43630    0.92160    1.000
    H28      H        0.47150    0.46740    0.88560    1.000
    C62      C        0.52690    0.44590    0.96570    1.000
    H29      H        0.54170    0.48590    0.96070    1.000
    C63      C        0.41430    0.37570    0.88690    1.000
    C64      C        0.25750    0.47940    0.81400    1.000
    C65      C        0.27950    0.40780    0.81420    1.000
    C66      C        0.25270    0.34670    0.78420    1.000
    H30      H        0.22230    0.35140    0.76220    1.000
    C67      C        0.27240    0.27840    0.78790    1.000
    C68      C        0.31840    0.27210    0.81930    1.000
    H31      H        0.33140    0.22690    0.82080    1.000
    C69      C        0.34430    0.33220    0.84790    1.000
    C70      C        0.32410    0.40040    0.84420    1.000
    H32      H        0.34160    0.44140    0.86270    1.000
    C71      C        0.24370    0.21260    0.75560    1.000
    N4       N        0.91060    0.66040    0.58790    1.000
    N5       N        0.38890    0.32460    0.88840    1.000
    O15      O        0.14610    0.61290    0.70200    1.000
    O16      O        0.13520    0.54360    0.78220    1.000
    O17      O        0.74502    0.79330    0.37360    1.000
    O18      O        0.81396    0.83580    0.41100    1.000
    O19      O        0.77500    0.55560    0.59150    1.000
    O20      O        0.72069    0.59540    0.49770    1.000
    O21      O        0.61920    0.45590    0.05920    1.000
    O22      O        0.61010    0.37490    0.11970    1.000
    O23      O        0.21806    0.48780    0.77940    1.000
    O24      O        0.28253    0.53110    0.84990    1.000
    O25      O        0.26070    0.15330    0.75560    1.000
    O26      O        0.20290    0.22240    0.72810    1.000
    C72      C        0.92610    0.63200    0.80820    1.000
    C73      C        0.94220    0.65120    0.88140    1.000
    C74      C        0.98760    0.65490    0.91770    1.000
    C75      C        0.98450    0.65530    0.61520    1.000
    C76      C        0.99970    0.64100    0.67470    1.000
    C77      C        0.95240    0.63000    0.78100    1.000
    C78      C        0.93590    0.66890    0.57460    1.000
    H33      H        0.92350    0.65940    0.89900    1.000
    H34      H        0.99920    0.65720    0.53670    1.000
    H35      H        0.98050    0.63690    0.69220    1.000
    H36      H        0.94140    0.62260    0.73620    1.000
    N6       N        0.89510    0.83760    0.86070    1.000
    O27      O        0.85840    0.65420    0.75410    1.000
    O28      O        0.85740    0.65070    0.72350    1.000
    Cd7      Cd       0.29000    0.10581    0.69087    1.000
    Cd8      Cd       0.67860    0.38197    0.17600    1.000
    Cd9      Cd       0.67738    0.44934    0.03658    1.000
    C79      C        0.37890    0.10910    0.75410    1.000
    C80      C        0.42870    0.10460    0.78220    1.000
    C81      C        0.44940    0.16150    0.81890    1.000
    H37      H        0.43220    0.20050    0.81930    1.000
    C82      C        0.49340    0.16840    0.85610    1.000
    H38      H        0.50630    0.21010    0.88110    1.000
    C83      C        0.51900    0.10640    0.85420    1.000
    C84      C        0.49860    0.05060    0.81800    1.000
    H39      H        0.51470    0.01050    0.81640    1.000
    C85      C        0.45360    0.04910    0.78190    1.000
    H40      H        0.44010    0.00800    0.75640    1.000
    C86      C        0.56700    0.11260    0.88840    1.000
    C87      C        0.71460    0.29100    0.08960    1.000
    C88      C        0.69720    0.23110    0.03900    1.000
    C89      C        0.65220    0.22020    0.00090    1.000
    H41      H        0.63310    0.24930    0.00890    1.000
    C90      C        0.63480    0.16880    0.95230    1.000
    C91      C        0.66420    0.12760    0.93880    1.000
    H42      H        0.65350    0.09420    0.90420    1.000
    C92      C        0.70900    0.13730    0.97730    1.000
    C93      C        0.72560    0.18790    0.02660    1.000
    H43      H        0.75590    0.19350    0.05180    1.000
    C94      C        0.73950    0.09200    0.96070    1.000
    C95      C        0.90410    0.91250    0.43620    1.000
    C96      C        0.95200    0.90250    0.48500    1.000
    C97      C        0.97700    0.84470    0.47540    1.000
    H44      H        0.96380    0.81510    0.43830    1.000
    C98      C        0.01850    0.83360    0.51910    1.000
    H45      H        0.03390    0.79410    0.51460    1.000
    C99      C        0.03830    0.88020    0.57020    1.000
    C100     C        0.01510    0.93630    0.57840    1.000
    H46      H        0.02850    0.96740    0.61440    1.000
    C101     C        0.97310    0.94590    0.53430    1.000
    H47      H        0.95830    0.98590    0.53930    1.000
    C102     C        0.08570    0.87570    0.61310    1.000
    C103     C        0.24250    0.97940    0.68600    1.000
    C104     C        0.22050    0.90780    0.68580    1.000
    C105     C        0.24730    0.84670    0.71580    1.000
    H48      H        0.27770    0.85140    0.73780    1.000
    C106     C        0.22760    0.77840    0.71210    1.000
    C107     C        0.18160    0.77210    0.68070    1.000
    H49      H        0.16860    0.72690    0.67920    1.000
    C108     C        0.15570    0.83220    0.65210    1.000
    C109     C        0.17590    0.90040    0.65580    1.000
    H50      H        0.15840    0.94140    0.63730    1.000
    C110     C        0.25630    0.71260    0.74440    1.000
    N7       N        0.58940    0.16040    0.91210    1.000
    N8       N        0.11110    0.82460    0.61160    1.000
    O29      O        0.35390    0.11290    0.79800    1.000
    O30      O        0.36480    0.04360    0.71780    1.000
    O31      O        0.75498    0.29330    0.12640    1.000
    O32      O        0.68604    0.33580    0.08900    1.000
    O33      O        0.72500    0.05560    0.90850    1.000
    O34      O        0.77931    0.09540    0.00230    1.000
    O35      O        0.88080    0.95590    0.44080    1.000
    O36      O        0.88990    0.87490    0.38030    1.000
    O37      O        0.28194    0.98780    0.72060    1.000
    O38      O        0.21747    0.03110    0.65010    1.000
    O39      O        0.23930    0.65330    0.74440    1.000
    O40      O        0.29710    0.72240    0.77190    1.000
    C111     C        0.57390    0.13200    0.69180    1.000
    C112     C        0.55780    0.15120    0.61860    1.000
    C113     C        0.51240    0.15490    0.58230    1.000
    C114     C        0.51550    0.15530    0.88480    1.000
    C115     C        0.50030    0.14100    0.82530    1.000
    C116     C        0.54760    0.13000    0.71900    1.000
    C117     C        0.56410    0.16890    0.92540    1.000
    H51      H        0.57650    0.15940    0.60100    1.000
    H52      H        0.50080    0.15720    0.96330    1.000
    H53      H        0.51950    0.13690    0.80780    1.000
    H54      H        0.55860    0.12260    0.76380    1.000
    N9       N        0.60490    0.33760    0.63930    1.000
    O41      O        0.64160    0.15420    0.74590    1.000
    O42      O        0.64260    0.15070    0.77650    1.000
    Cd10     Cd       0.79000    0.60581    0.69087    1.000
    Cd11     Cd       0.17860    0.88197    0.17600    1.000
    Cd12     Cd       0.17738    0.94934    0.03658    1.000
    C118     C        0.87890    0.60910    0.75410    1.000
    C119     C        0.92870    0.60460    0.78220    1.000
    C120     C        0.94940    0.66150    0.81890    1.000
    H55      H        0.93220    0.70050    0.81930    1.000
    C121     C        0.99340    0.66840    0.85610    1.000
    H56      H        0.00630    0.71010    0.88110    1.000
    C122     C        0.01900    0.60640    0.85420    1.000
    C123     C        0.99860    0.55060    0.81800    1.000
    H57      H        0.01470    0.51050    0.81640    1.000
    C124     C        0.95360    0.54910    0.78190    1.000
    H58      H        0.94010    0.50800    0.75640    1.000
    C125     C        0.06700    0.61260    0.88840    1.000
    C126     C        0.21460    0.79100    0.08960    1.000
    C127     C        0.19720    0.73110    0.03900    1.000
    C128     C        0.15220    0.72020    0.00090    1.000
    H59      H        0.13310    0.74930    0.00890    1.000
    C129     C        0.13480    0.66880    0.95230    1.000
    C130     C        0.16420    0.62760    0.93880    1.000
    H60      H        0.15350    0.59420    0.90420    1.000
    C131     C        0.20900    0.63730    0.97730    1.000
    C132     C        0.22560    0.68790    0.02660    1.000
    H61      H        0.25590    0.69350    0.05180    1.000
    C133     C        0.23950    0.59200    0.96070    1.000
    C134     C        0.40410    0.41250    0.43620    1.000
    C135     C        0.45200    0.40250    0.48500    1.000
    C136     C        0.47700    0.34470    0.47540    1.000
    H62      H        0.46380    0.31510    0.43830    1.000
    C137     C        0.51850    0.33360    0.51910    1.000
    H63      H        0.53390    0.29410    0.51460    1.000
    C138     C        0.53830    0.38020    0.57020    1.000
    C139     C        0.51510    0.43630    0.57840    1.000
    H64      H        0.52850    0.46740    0.61440    1.000
    C140     C        0.47310    0.44590    0.53430    1.000
    H65      H        0.45830    0.48590    0.53930    1.000
    C141     C        0.58570    0.37570    0.61310    1.000
    C142     C        0.74250    0.47940    0.68600    1.000
    C143     C        0.72050    0.40780    0.68580    1.000
    C144     C        0.74730    0.34670    0.71580    1.000
    H66      H        0.77770    0.35140    0.73780    1.000
    C145     C        0.72760    0.27840    0.71210    1.000
    C146     C        0.68160    0.27210    0.68070    1.000
    H67      H        0.66860    0.22690    0.67920    1.000
    C147     C        0.65570    0.33220    0.65210    1.000
    C148     C        0.67590    0.40040    0.65580    1.000
    H68      H        0.65840    0.44140    0.63730    1.000
    C149     C        0.75630    0.21260    0.74440    1.000
    N10      N        0.08940    0.66040    0.91210    1.000
    N11      N        0.61110    0.32460    0.61160    1.000
    O43      O        0.85390    0.61290    0.79800    1.000
    O44      O        0.86480    0.54360    0.71780    1.000
    O45      O        0.25498    0.79330    0.12640    1.000
    O46      O        0.18604    0.83580    0.08900    1.000
    O47      O        0.22500    0.55560    0.90850    1.000
    O48      O        0.27931    0.59540    0.00230    1.000
    O49      O        0.38080    0.45590    0.44080    1.000
    O50      O        0.38990    0.37490    0.38030    1.000
    O51      O        0.78194    0.48780    0.72060    1.000
    O52      O        0.71747    0.53110    0.65010    1.000
    O53      O        0.73930    0.15330    0.74440    1.000
    O54      O        0.79710    0.22240    0.77190    1.000
    C150     C        0.07390    0.63200    0.69180    1.000
    C151     C        0.05780    0.65120    0.61860    1.000
    C152     C        0.01240    0.65490    0.58230    1.000
    C153     C        0.01550    0.65530    0.88480    1.000
    C154     C        0.00030    0.64100    0.82530    1.000
    C155     C        0.04760    0.63000    0.71900    1.000
    C156     C        0.06410    0.66890    0.92540    1.000
    H69      H        0.07650    0.65940    0.60100    1.000
    H70      H        0.00080    0.65720    0.96330    1.000
    H71      H        0.01950    0.63690    0.80780    1.000
    H72      H        0.05860    0.62260    0.76380    1.000
    N12      N        0.10490    0.83760    0.63930    1.000
    O55      O        0.14160    0.65420    0.74590    1.000
    O56      O        0.14260    0.65070    0.77650    1.000
    Cd13     Cd       0.29000    0.89419    0.19087    1.000
    Cd14     Cd       0.67860    0.61803    0.67600    1.000
    Cd15     Cd       0.67738    0.55066    0.53658    1.000
    C157     C        0.37890    0.89090    0.25410    1.000
    C158     C        0.42870    0.89540    0.28220    1.000
    C159     C        0.44940    0.83850    0.31890    1.000
    H73      H        0.43220    0.79950    0.31930    1.000
    C160     C        0.49340    0.83160    0.35610    1.000
    H74      H        0.50630    0.78990    0.38110    1.000
    C161     C        0.51900    0.89360    0.35420    1.000
    C162     C        0.49860    0.94940    0.31800    1.000
    H75      H        0.51470    0.98950    0.31640    1.000
    C163     C        0.45360    0.95090    0.28190    1.000
    H76      H        0.44010    0.99200    0.25640    1.000
    C164     C        0.56700    0.88740    0.38840    1.000
    C165     C        0.71460    0.70900    0.58960    1.000
    C166     C        0.69720    0.76890    0.53900    1.000
    C167     C        0.65220    0.77980    0.50090    1.000
    H77      H        0.63310    0.75070    0.50890    1.000
    C168     C        0.63480    0.83120    0.45230    1.000
    C169     C        0.66420    0.87240    0.43880    1.000
    H78      H        0.65350    0.90580    0.40420    1.000
    C170     C        0.70900    0.86270    0.47730    1.000
    C171     C        0.72560    0.81210    0.52660    1.000
    H79      H        0.75590    0.80650    0.55180    1.000
    C172     C        0.73950    0.90800    0.46070    1.000
    C173     C        0.90410    0.08750    0.93620    1.000
    C174     C        0.95200    0.09750    0.98500    1.000
    C175     C        0.97700    0.15530    0.97540    1.000
    H80      H        0.96380    0.18490    0.93830    1.000
    C176     C        0.01850    0.16640    0.01910    1.000
    H81      H        0.03390    0.20590    0.01460    1.000
    C177     C        0.03830    0.11980    0.07020    1.000
    C178     C        0.01510    0.06370    0.07840    1.000
    H82      H        0.02850    0.03260    0.11440    1.000
    C179     C        0.97310    0.05410    0.03430    1.000
    H83      H        0.95830    0.01410    0.03930    1.000
    C180     C        0.08570    0.12430    0.11310    1.000
    C181     C        0.24250    0.02060    0.18600    1.000
    C182     C        0.22050    0.09220    0.18580    1.000
    C183     C        0.24730    0.15330    0.21580    1.000
    H84      H        0.27770    0.14860    0.23780    1.000
    C184     C        0.22760    0.22160    0.21210    1.000
    C185     C        0.18160    0.22790    0.18070    1.000
    H85      H        0.16860    0.27310    0.17920    1.000
    C186     C        0.15570    0.16780    0.15210    1.000
    C187     C        0.17590    0.09960    0.15580    1.000
    H86      H        0.15840    0.05860    0.13730    1.000
    C188     C        0.25630    0.28740    0.24440    1.000
    N13      N        0.58940    0.83960    0.41210    1.000
    N14      N        0.11110    0.17540    0.11160    1.000
    O57      O        0.35390    0.88710    0.29800    1.000
    O58      O        0.36480    0.95640    0.21780    1.000
    O59      O        0.75498    0.70670    0.62640    1.000
    O60      O        0.68604    0.66420    0.58900    1.000
    O61      O        0.72500    0.94440    0.40850    1.000
    O62      O        0.77931    0.90460    0.50230    1.000
    O63      O        0.88080    0.04410    0.94080    1.000
    O64      O        0.88990    0.12510    0.88030    1.000
    O65      O        0.28194    0.01220    0.22060    1.000
    O66      O        0.21747    0.96890    0.15010    1.000
    O67      O        0.23930    0.34670    0.24440    1.000
    O68      O        0.29710    0.27760    0.27190    1.000
    C189     C        0.57390    0.86800    0.19180    1.000
    C190     C        0.55780    0.84880    0.11860    1.000
    C191     C        0.51240    0.84510    0.08230    1.000
    C192     C        0.51550    0.84470    0.38480    1.000
    C193     C        0.50030    0.85900    0.32530    1.000
    C194     C        0.54760    0.87000    0.21900    1.000
    C195     C        0.56410    0.83110    0.42540    1.000
    H87      H        0.57650    0.84060    0.10100    1.000
    H88      H        0.50080    0.84280    0.46330    1.000
    H89      H        0.51950    0.86310    0.30780    1.000
    H90      H        0.55860    0.87740    0.26380    1.000
    N15      N        0.60490    0.66240    0.13930    1.000
    O69      O        0.64160    0.84580    0.24590    1.000
    O70      O        0.64260    0.84930    0.27650    1.000
    Cd16     Cd       0.79000    0.39419    0.19087    1.000
    Cd17     Cd       0.17860    0.11803    0.67600    1.000
    Cd18     Cd       0.17738    0.05066    0.53658    1.000
    C196     C        0.87890    0.39090    0.25410    1.000
    C197     C        0.92870    0.39540    0.28220    1.000
    C198     C        0.94940    0.33850    0.31890    1.000
    H91      H        0.93220    0.29950    0.31930    1.000
    C199     C        0.99340    0.33160    0.35610    1.000
    H92      H        0.00630    0.28990    0.38110    1.000
    C200     C        0.01900    0.39360    0.35420    1.000
    C201     C        0.99860    0.44940    0.31800    1.000
    H93      H        0.01470    0.48950    0.31640    1.000
    C202     C        0.95360    0.45090    0.28190    1.000
    H94      H        0.94010    0.49200    0.25640    1.000
    C203     C        0.06700    0.38740    0.38840    1.000
    C204     C        0.21460    0.20900    0.58960    1.000
    C205     C        0.19720    0.26890    0.53900    1.000
    C206     C        0.15220    0.27980    0.50090    1.000
    H95      H        0.13310    0.25070    0.50890    1.000
    C207     C        0.13480    0.33120    0.45230    1.000
    C208     C        0.16420    0.37240    0.43880    1.000
    H96      H        0.15350    0.40580    0.40420    1.000
    C209     C        0.20900    0.36270    0.47730    1.000
    C210     C        0.22560    0.31210    0.52660    1.000
    H97      H        0.25590    0.30650    0.55180    1.000
    C211     C        0.23950    0.40800    0.46070    1.000
    C212     C        0.40410    0.58750    0.93620    1.000
    C213     C        0.45200    0.59750    0.98500    1.000
    C214     C        0.47700    0.65530    0.97540    1.000
    H98      H        0.46380    0.68490    0.93830    1.000
    C215     C        0.51850    0.66640    0.01910    1.000
    H99      H        0.53390    0.70590    0.01460    1.000
    C216     C        0.53830    0.61980    0.07020    1.000
    C217     C        0.51510    0.56370    0.07840    1.000
    H100     H        0.52850    0.53260    0.11440    1.000
    C218     C        0.47310    0.55410    0.03430    1.000
    H101     H        0.45830    0.51410    0.03930    1.000
    C219     C        0.58570    0.62430    0.11310    1.000
    C220     C        0.74250    0.52060    0.18600    1.000
    C221     C        0.72050    0.59220    0.18580    1.000
    C222     C        0.74730    0.65330    0.21580    1.000
    H102     H        0.77770    0.64860    0.23780    1.000
    C223     C        0.72760    0.72160    0.21210    1.000
    C224     C        0.68160    0.72790    0.18070    1.000
    H103     H        0.66860    0.77310    0.17920    1.000
    C225     C        0.65570    0.66780    0.15210    1.000
    C226     C        0.67590    0.59960    0.15580    1.000
    H104     H        0.65840    0.55860    0.13730    1.000
    C227     C        0.75630    0.78740    0.24440    1.000
    N16      N        0.08940    0.33960    0.41210    1.000
    N17      N        0.61110    0.67540    0.11160    1.000
    O71      O        0.85390    0.38710    0.29800    1.000
    O72      O        0.86480    0.45640    0.21780    1.000
    O73      O        0.25498    0.20670    0.62640    1.000
    O74      O        0.18604    0.16420    0.58900    1.000
    O75      O        0.22500    0.44440    0.40850    1.000
    O76      O        0.27931    0.40460    0.50230    1.000
    O77      O        0.38080    0.54410    0.94080    1.000
    O78      O        0.38990    0.62510    0.88030    1.000
    O79      O        0.78194    0.51220    0.22060    1.000
    O80      O        0.71747    0.46890    0.15010    1.000
    O81      O        0.73930    0.84670    0.24440    1.000
    O82      O        0.79710    0.77760    0.27190    1.000
    C228     C        0.07390    0.36800    0.19180    1.000
    C229     C        0.05780    0.34880    0.11860    1.000
    C230     C        0.01240    0.34510    0.08230    1.000
    C231     C        0.01550    0.34470    0.38480    1.000
    C232     C        0.00030    0.35900    0.32530    1.000
    C233     C        0.04760    0.37000    0.21900    1.000
    C234     C        0.06410    0.33110    0.42540    1.000
    H105     H        0.07650    0.34060    0.10100    1.000
    H106     H        0.00080    0.34280    0.46330    1.000
    H107     H        0.01950    0.36310    0.30780    1.000
    H108     H        0.05860    0.37740    0.26380    1.000
    N18      N        0.10490    0.16240    0.13930    1.000
    O83      O        0.14160    0.34580    0.24590    1.000
    O84      O        0.14260    0.34930    0.27650    1.000
    Cd19     Cd       0.71000    0.89419    0.30913    1.000
    Cd20     Cd       0.32140    0.61803    0.82400    1.000
    Cd21     Cd       0.32262    0.55066    0.96342    1.000
    C235     C        0.62110    0.89090    0.24590    1.000
    C236     C        0.57130    0.89540    0.21780    1.000
    C237     C        0.55060    0.83850    0.18110    1.000
    H109     H        0.56780    0.79950    0.18070    1.000
    C238     C        0.50660    0.83160    0.14390    1.000
    H110     H        0.49370    0.78990    0.11890    1.000
    C239     C        0.48100    0.89360    0.14580    1.000
    C240     C        0.50140    0.94940    0.18200    1.000
    H111     H        0.48530    0.98950    0.18360    1.000
    C241     C        0.54640    0.95090    0.21810    1.000
    H112     H        0.55990    0.99200    0.24360    1.000
    C242     C        0.43300    0.88740    0.11160    1.000
    C243     C        0.28540    0.70900    0.91040    1.000
    C244     C        0.30280    0.76890    0.96100    1.000
    C245     C        0.34780    0.77980    0.99910    1.000
    H113     H        0.36690    0.75070    0.99110    1.000
    C246     C        0.36520    0.83120    0.04770    1.000
    C247     C        0.33580    0.87240    0.06120    1.000
    H114     H        0.34650    0.90580    0.09580    1.000
    C248     C        0.29100    0.86270    0.02270    1.000
    C249     C        0.27440    0.81210    0.97340    1.000
    H115     H        0.24410    0.80650    0.94820    1.000
    C250     C        0.26050    0.90800    0.03930    1.000
    C251     C        0.09590    0.08750    0.56380    1.000
    C252     C        0.04800    0.09750    0.51500    1.000
    C253     C        0.02300    0.15530    0.52460    1.000
    H116     H        0.03620    0.18490    0.56170    1.000
    C254     C        0.98150    0.16640    0.48090    1.000
    H117     H        0.96610    0.20590    0.48540    1.000
    C255     C        0.96170    0.11980    0.42980    1.000
    C256     C        0.98490    0.06370    0.42160    1.000
    H118     H        0.97150    0.03260    0.38560    1.000
    C257     C        0.02690    0.05410    0.46570    1.000
    H119     H        0.04170    0.01410    0.46070    1.000
    C258     C        0.91430    0.12430    0.38690    1.000
    C259     C        0.75750    0.02060    0.31400    1.000
    C260     C        0.77950    0.09220    0.31420    1.000
    C261     C        0.75270    0.15330    0.28420    1.000
    H120     H        0.72230    0.14860    0.26220    1.000
    C262     C        0.77240    0.22160    0.28790    1.000
    C263     C        0.81840    0.22790    0.31930    1.000
    H121     H        0.83140    0.27310    0.32080    1.000
    C264     C        0.84430    0.16780    0.34790    1.000
    C265     C        0.82410    0.09960    0.34420    1.000
    H122     H        0.84160    0.05860    0.36270    1.000
    C266     C        0.74370    0.28740    0.25560    1.000
    N19      N        0.41060    0.83960    0.08790    1.000
    N20      N        0.88890    0.17540    0.38840    1.000
    O85      O        0.64610    0.88710    0.20200    1.000
    O86      O        0.63520    0.95640    0.28220    1.000
    O87      O        0.24502    0.70670    0.87360    1.000
    O88      O        0.31396    0.66420    0.91100    1.000
    O89      O        0.27500    0.94440    0.09150    1.000
    O90      O        0.22069    0.90460    0.99770    1.000
    O91      O        0.11920    0.04410    0.55920    1.000
    O92      O        0.11010    0.12510    0.61970    1.000
    O93      O        0.71806    0.01220    0.27940    1.000
    O94      O        0.78253    0.96890    0.34990    1.000
    O95      O        0.76070    0.34670    0.25560    1.000
    O96      O        0.70290    0.27760    0.22810    1.000
    C267     C        0.42610    0.86800    0.30820    1.000
    C268     C        0.44220    0.84880    0.38140    1.000
    C269     C        0.48760    0.84510    0.41770    1.000
    C270     C        0.48450    0.84470    0.11520    1.000
    C271     C        0.49970    0.85900    0.17470    1.000
    C272     C        0.45240    0.87000    0.28100    1.000
    C273     C        0.43590    0.83110    0.07460    1.000
    H123     H        0.42350    0.84060    0.39900    1.000
    H124     H        0.49920    0.84280    0.03670    1.000
    H125     H        0.48050    0.86310    0.19220    1.000
    H126     H        0.44140    0.87740    0.23620    1.000
    N21      N        0.39510    0.66240    0.36070    1.000
    O97      O        0.35840    0.84580    0.25410    1.000
    O98      O        0.35740    0.84930    0.22350    1.000
    Cd22     Cd       0.21000    0.39419    0.30913    1.000
    Cd23     Cd       0.82140    0.11803    0.82400    1.000
    Cd24     Cd       0.82262    0.05066    0.96342    1.000
    C274     C        0.12110    0.39090    0.24590    1.000
    C275     C        0.07130    0.39540    0.21780    1.000
    C276     C        0.05060    0.33850    0.18110    1.000
    H127     H        0.06780    0.29950    0.18070    1.000
    C277     C        0.00660    0.33160    0.14390    1.000
    H128     H        0.99370    0.28990    0.11890    1.000
    C278     C        0.98100    0.39360    0.14580    1.000
    C279     C        0.00140    0.44940    0.18200    1.000
    H129     H        0.98530    0.48950    0.18360    1.000
    C280     C        0.04640    0.45090    0.21810    1.000
    H130     H        0.05990    0.49200    0.24360    1.000
    C281     C        0.93300    0.38740    0.11160    1.000
    C282     C        0.78540    0.20900    0.91040    1.000
    C283     C        0.80280    0.26890    0.96100    1.000
    C284     C        0.84780    0.27980    0.99910    1.000
    H131     H        0.86690    0.25070    0.99110    1.000
    C285     C        0.86520    0.33120    0.04770    1.000
    C286     C        0.83580    0.37240    0.06120    1.000
    H132     H        0.84650    0.40580    0.09580    1.000
    C287     C        0.79100    0.36270    0.02270    1.000
    C288     C        0.77440    0.31210    0.97340    1.000
    H133     H        0.74410    0.30650    0.94820    1.000
    C289     C        0.76050    0.40800    0.03930    1.000
    C290     C        0.59590    0.58750    0.56380    1.000
    C291     C        0.54800    0.59750    0.51500    1.000
    C292     C        0.52300    0.65530    0.52460    1.000
    H134     H        0.53620    0.68490    0.56170    1.000
    C293     C        0.48150    0.66640    0.48090    1.000
    H135     H        0.46610    0.70590    0.48540    1.000
    C294     C        0.46170    0.61980    0.42980    1.000
    C295     C        0.48490    0.56370    0.42160    1.000
    H136     H        0.47150    0.53260    0.38560    1.000
    C296     C        0.52690    0.55410    0.46570    1.000
    H137     H        0.54170    0.51410    0.46070    1.000
    C297     C        0.41430    0.62430    0.38690    1.000
    C298     C        0.25750    0.52060    0.31400    1.000
    C299     C        0.27950    0.59220    0.31420    1.000
    C300     C        0.25270    0.65330    0.28420    1.000
    H138     H        0.22230    0.64860    0.26220    1.000
    C301     C        0.27240    0.72160    0.28790    1.000
    C302     C        0.31840    0.72790    0.31930    1.000
    H139     H        0.33140    0.77310    0.32080    1.000
    C303     C        0.34430    0.66780    0.34790    1.000
    C304     C        0.32410    0.59960    0.34420    1.000
    H140     H        0.34160    0.55860    0.36270    1.000
    C305     C        0.24370    0.78740    0.25560    1.000
    N22      N        0.91060    0.33960    0.08790    1.000
    N23      N        0.38890    0.67540    0.38840    1.000
    O99      O        0.14610    0.38710    0.20200    1.000
    O100     O        0.13520    0.45640    0.28220    1.000
    O101     O        0.74502    0.20670    0.87360    1.000
    O102     O        0.81396    0.16420    0.91100    1.000
    O103     O        0.77500    0.44440    0.09150    1.000
    O104     O        0.72069    0.40460    0.99770    1.000
    O105     O        0.61920    0.54410    0.55920    1.000
    O106     O        0.61010    0.62510    0.61970    1.000
    O107     O        0.21806    0.51220    0.27940    1.000
    O108     O        0.28253    0.46890    0.34990    1.000
    O109     O        0.26070    0.84670    0.25560    1.000
    O110     O        0.20290    0.77760    0.22810    1.000
    C306     C        0.92610    0.36800    0.30820    1.000
    C307     C        0.94220    0.34880    0.38140    1.000
    C308     C        0.98760    0.34510    0.41770    1.000
    C309     C        0.98450    0.34470    0.11520    1.000
    C310     C        0.99970    0.35900    0.17470    1.000
    C311     C        0.95240    0.37000    0.28100    1.000
    C312     C        0.93590    0.33110    0.07460    1.000
    H141     H        0.92350    0.34060    0.39900    1.000
    H142     H        0.99920    0.34280    0.03670    1.000
    H143     H        0.98050    0.36310    0.19220    1.000
    H144     H        0.94140    0.37740    0.23620    1.000
    N24      N        0.89510    0.16240    0.36070    1.000
    O111     O        0.85840    0.34580    0.25410    1.000
    O112     O        0.85740    0.34930    0.22350    1.000
