data_functionalizedCrystal
_audit_creation_method	'EQeq! by Chris Wilmer'
_symmetry_space_group_name_H-M	'P1'
_symmetry_Int_Tables_number	1
_symmetry_cell_setting	triclinic
loop_
_symmetry_equiv_pos_as_xyz
  x,y,z
_cell_length_a	13.862
_cell_length_b	14.477
_cell_length_c	14.664
_cell_angle_alpha	95.331
_cell_angle_beta	106.021
_cell_angle_gamma	118.084
loop_
_atom_site_label
_atom_site_type_symbol
_atom_site_fract_x
_atom_site_fract_y
_atom_site_fract_z
_atom_site_charge
Mof_Cd	Cd	0.62151	0.71356	0.41856	0.458
Mof_Cd	Cd	0.52645	0.72488	0.16923	0.484
Mof_Cd	Cd	0.28356	0.79385	0.13661	0.471
Mof_O 	O 	0.4449	0.9744	0.1631	-0.263
Mof_O 	O 	0.4826	0.8589	0.2282	-0.269
Mof_O 	O 	0.6856	0.8881	0.4248	-0.301
Mof_O 	O 	0.6959	0.8635	0.2777	-0.303
Mof_O 	O 	0.9109	0.1007	0.4647	-0.289
Mof_O 	O 	0.8488	0.1417	0.8532	-0.256
Mof_O 	O 	0.7477	0.1631	0.7229	-0.239
Mof_O 	O 	0.4494	0.5293	0.3648	-0.258
Mof_O 	O 	0.4498	0.6466	0.2796	-0.27
Mof_O 	O 	0.1995	0.6169	0.153	-0.281
Mof_O 	O 	0.3288	0.6479	0.0812	-0.299
Mof_O 	O 	0.0984	0.4173	0.9637	-0.29
Mof_O 	O 	0.3208	0.3659	0.6799	-0.28
Mof_O 	O 	0.3841	0.3677	0.8354	-0.276
Mof_N 	N 	0.5577	0.7382	0.5458	-0.144
Mof_N 	N 	0.5364	0.7513	0.0223	-0.175
Mof_N 	N 	0.1968	0.7662	0.972	-0.153
Mof_N 	N 	0.7801	0.7288	0.5419	-0.152
Mof_C 	C 	0.8235	0.1173	0.4102	0.264
Mof_C 	C 	0.7188	0.0299	0.3487	-0.176
Mof_C 	C 	0.6966	0.9177	0.3502	0.378
Mof_C 	C 	0.6339	0.0447	0.2851	0.045
Mof_C 	C 	0.5131	0.9539	0.2207	0.262
Mof_C 	C 	0.6619	0.1529	0.2883	-0.141
Mof_H 	H 	0.6087	0.1659	0.246	0.098
Mof_C 	C 	0.767	0.2385	0.3535	0.12
Mof_H 	H 	0.7829	0.3089	0.3564	-0.009
Mof_C 	C 	0.8495	0.2221	0.4147	-0.249
Mof_H 	H 	0.9209	0.2806	0.4581	0.127
Mof_C 	C 	0.934	0.1078	0.5641	0.275
Mof_C 	C 	0.8639	0.117	0.6116	-0.212
Mof_H 	H 	0.798	0.1189	0.5769	0.131
Mof_C 	C 	0.8931	0.1232	0.7117	0.052
Mof_C 	C 	0.8259	0.1414	0.7649	0.242
Mof_C 	C 	0.9918	0.1192	0.7605	-0.136
Mof_H 	H 	0.0127	0.1239	0.8275	0.085
Mof_C 	C 	0.0593	0.1083	0.7116	0.109
Mof_H 	H 	0.1245	0.1048	0.7454	0.011
Mof_C 	C 	0.0302	0.1026	0.6124	-0.244
Mof_H 	H 	0.0754	0.0954	0.579	0.146
Mof_C 	C 	0.1589	0.3942	0.0414	0.267
Mof_C 	C 	0.2429	0.48	0.1236	-0.177
Mof_C 	C 	0.2591	0.59	0.1209	0.36
Mof_C 	C 	0.3016	0.4575	0.2039	0.055
Mof_C 	C 	0.404	0.548	0.2889	0.252
Mof_C 	C 	0.2702	0.353	0.2037	-0.162
Mof_H 	H 	0.3069	0.338	0.2586	0.105
Mof_C 	C 	0.1842	0.2694	0.1223	0.139
Mof_H 	H 	0.1631	0.1984	0.1231	-0.015
Mof_C 	C 	0.1294	0.2893	0.0407	-0.266
Mof_H 	H 	0.073	0.2326	0.9853	0.141
Mof_C 	C 	0.1186	0.41	0.877	0.296
Mof_C 	C 	0.2083	0.3972	0.8656	-0.239
Mof_H 	H 	0.2596	0.3924	0.9185	0.133
Mof_C 	C 	0.2206	0.3918	0.7768	0.072
Mof_C 	C 	0.3164	0.3737	0.7629	0.277
Mof_C 	C 	0.1457	0.3989	0.698	-0.17
Mof_H 	H 	0.1554	0.3964	0.6377	0.1
Mof_C 	C 	0.0543	0.4099	0.7098	0.148
Mof_H 	H 	0.0028	0.4148	0.6571	-0.019
Mof_C 	C 	0.0408	0.4134	0.7987	-0.279
Mof_H 	H 	0.9785	0.4181	0.8058	0.162
Mof_C 	C 	0.4913	0.6505	0.5715	0.08
Mof_H 	H 	0.4505	0.5836	0.5257	0.028
Mof_C 	C 	0.4797	0.653	0.6596	-0.126
Mof_H 	H 	0.4319	0.5888	0.6728	0.086
Mof_C 	C 	0.538	0.75	0.7307	0.034
Mof_C 	C 	0.6059	0.8438	0.7049	-0.124
Mof_H 	H 	0.6455	0.9118	0.7489	0.088
Mof_C 	C 	0.6124	0.8329	0.614	0.077
Mof_H 	H 	0.6582	0.8958	0.5979	0.027
Mof_C 	C 	0.5375	0.7528	0.831	0.11
Mof_C 	C 	0.4524	0.6738	0.8502	-0.175
Mof_H 	H 	0.3922	0.6135	0.7993	0.096
Mof_C 	C 	0.4513	0.6793	0.9452	0.117
Mof_H 	H 	0.3842	0.6272	0.9532	0.015
Mof_C 	C 	0.6114	0.8303	0.0018	0.138
Mof_H 	H 	0.6693	0.8906	0.0536	-0.009
Mof_C 	C 	0.6146	0.8349	0.9098	-0.19
Mof_H 	H 	0.6728	0.8976	0.9023	0.106
Mof_C 	C 	0.2184	0.8489	0.9325	0.092
Mof_H 	H 	0.2883	0.9143	0.9663	0.015
Mof_C 	C 	0.1452	0.8459	0.845	-0.142
Mof_H 	H 	0.1644	0.9077	0.822	0.088
Mof_C 	C 	0.0428	0.7485	0.7926	0.069
Mof_C 	C 	0.0222	0.66	0.83	-0.142
Mof_H 	H 	0.9558	0.5922	0.7959	0.092
Mof_C 	C 	0.1004	0.6732	0.9173	0.095
Mof_H 	H 	0.085	0.612	0.9406	0.028
Mof_C 	C 	0.9546	0.7412	0.7023	0.064
Mof_C 	C 	0.9439	0.8295	0.6918	-0.131
Mof_H 	H 	0.9962	0.8957	0.7387	0.081
Mof_C 	C 	0.8569	0.8208	0.6129	0.085
Mof_H 	H 	0.851	0.8817	0.6084	0.015
Mof_C 	C 	0.7944	0.6445	0.5515	0.093
Mof_H 	H 	0.7442	0.5802	0.502	0.008
Mof_C 	C 	0.8769	0.6468	0.6285	-0.144
Mof_H 	H 	0.8812	0.5849	0.6315	0.083
Mof_Cd	Cd	0.37849	0.28644	0.58144	0.458
Mof_Cd	Cd	0.47355	0.27512	0.83077	0.484
Mof_Cd	Cd	0.71644	0.20615	0.86339	0.471
Mof_O 	O 	0.5551	0.0256	0.8369	-0.263
Mof_O 	O 	0.5174	0.1411	0.7718	-0.269
Mof_O 	O 	0.3144	0.1119	0.5752	-0.301
Mof_O 	O 	0.3041	0.1365	0.7223	-0.303
Mof_O 	O 	0.0891	0.8993	0.5353	-0.289
Mof_O 	O 	0.1512	0.8583	0.1468	-0.256
Mof_O 	O 	0.2523	0.8369	0.2771	-0.239
Mof_O 	O 	0.5506	0.4707	0.6352	-0.258
Mof_O 	O 	0.5502	0.3534	0.7204	-0.27
Mof_O 	O 	0.8005	0.3831	0.847	-0.281
Mof_O 	O 	0.6712	0.3521	0.9188	-0.299
Mof_O 	O 	0.9016	0.5827	0.0363	-0.29
Mof_O 	O 	0.6792	0.6341	0.3201	-0.28
Mof_O 	O 	0.6159	0.6323	0.1646	-0.276
Mof_N 	N 	0.4423	0.2618	0.4542	-0.144
Mof_N 	N 	0.4636	0.2487	0.9777	-0.175
Mof_N 	N 	0.8032	0.2338	0.028	-0.153
Mof_N 	N 	0.2199	0.2712	0.4581	-0.152
Mof_C 	C 	0.1765	0.8827	0.5898	0.264
Mof_C 	C 	0.2812	0.9701	0.6513	-0.176
Mof_C 	C 	0.3034	0.0823	0.6498	0.378
Mof_C 	C 	0.3661	0.9553	0.7149	0.045
Mof_C 	C 	0.4869	0.0461	0.7793	0.262
Mof_C 	C 	0.3381	0.8471	0.7117	-0.141
Mof_H 	H 	0.3913	0.8341	0.754	0.098
Mof_C 	C 	0.233	0.7615	0.6465	0.12
Mof_H 	H 	0.2171	0.6911	0.6436	-0.009
Mof_C 	C 	0.1505	0.7779	0.5853	-0.249
Mof_H 	H 	0.0791	0.7194	0.5419	0.127
Mof_C 	C 	0.066	0.8922	0.4359	0.275
Mof_C 	C 	0.1361	0.883	0.3884	-0.212
Mof_H 	H 	0.202	0.8811	0.4231	0.131
Mof_C 	C 	0.1069	0.8768	0.2883	0.052
Mof_C 	C 	0.1741	0.8586	0.2351	0.242
Mof_C 	C 	0.0082	0.8808	0.2395	-0.136
Mof_H 	H 	0.9873	0.8761	0.1725	0.085
Mof_C 	C 	0.9407	0.8917	0.2884	0.109
Mof_H 	H 	0.8755	0.8952	0.2546	0.011
Mof_C 	C 	0.9698	0.8974	0.3876	-0.244
Mof_H 	H 	0.9246	0.9046	0.421	0.146
Mof_C 	C 	0.8411	0.6058	0.9586	0.267
Mof_C 	C 	0.7571	0.52	0.8764	-0.177
Mof_C 	C 	0.7409	0.41	0.8791	0.36
Mof_C 	C 	0.6984	0.5425	0.7961	0.055
Mof_C 	C 	0.596	0.452	0.7111	0.252
Mof_C 	C 	0.7298	0.647	0.7963	-0.162
Mof_H 	H 	0.6931	0.662	0.7414	0.105
Mof_C 	C 	0.8158	0.7306	0.8777	0.139
Mof_H 	H 	0.8369	0.8016	0.8769	-0.015
Mof_C 	C 	0.8706	0.7107	0.9593	-0.266
Mof_H 	H 	0.927	0.7674	0.0147	0.141
Mof_C 	C 	0.8814	0.59	0.123	0.296
Mof_C 	C 	0.7917	0.6028	0.1344	-0.239
Mof_H 	H 	0.7404	0.6076	0.0815	0.133
Mof_C 	C 	0.7794	0.6082	0.2232	0.072
Mof_C 	C 	0.6836	0.6263	0.2371	0.277
Mof_C 	C 	0.8543	0.6011	0.302	-0.17
Mof_H 	H 	0.8446	0.6036	0.3623	0.1
Mof_C 	C 	0.9457	0.5901	0.2902	0.148
Mof_H 	H 	0.9972	0.5852	0.3429	-0.019
Mof_C 	C 	0.9592	0.5866	0.2013	-0.279
Mof_H 	H 	0.0215	0.5819	0.1942	0.162
Mof_C 	C 	0.5087	0.3495	0.4285	0.08
Mof_H 	H 	0.5495	0.4164	0.4743	0.028
Mof_C 	C 	0.5203	0.347	0.3404	-0.126
Mof_H 	H 	0.5681	0.4112	0.3272	0.086
Mof_C 	C 	0.462	0.25	0.2693	0.034
Mof_C 	C 	0.3941	0.1562	0.2951	-0.124
Mof_H 	H 	0.3545	0.0882	0.2511	0.088
Mof_C 	C 	0.3876	0.1671	0.386	0.077
Mof_H 	H 	0.3418	0.1042	0.4021	0.027
Mof_C 	C 	0.4625	0.2472	0.169	0.11
Mof_C 	C 	0.5476	0.3262	0.1498	-0.175
Mof_H 	H 	0.6078	0.3865	0.2007	0.096
Mof_C 	C 	0.5487	0.3207	0.0548	0.117
Mof_H 	H 	0.6158	0.3728	0.0468	0.015
Mof_C 	C 	0.3886	0.1697	0.9982	0.138
Mof_H 	H 	0.3307	0.1094	0.9464	-0.009
Mof_C 	C 	0.3854	0.1651	0.0902	-0.19
Mof_H 	H 	0.3272	0.1024	0.0977	0.106
Mof_C 	C 	0.7816	0.1511	0.0675	0.092
Mof_H 	H 	0.7117	0.0857	0.0337	0.015
Mof_C 	C 	0.8548	0.1541	0.155	-0.142
Mof_H 	H 	0.8356	0.0923	0.178	0.088
Mof_C 	C 	0.9572	0.2515	0.2074	0.069
Mof_C 	C 	0.9778	0.34	0.17	-0.142
Mof_H 	H 	0.0442	0.4078	0.2041	0.092
Mof_C 	C 	0.8996	0.3268	0.0827	0.095
Mof_H 	H 	0.915	0.388	0.0594	0.028
Mof_C 	C 	0.0454	0.2588	0.2977	0.064
Mof_C 	C 	0.0561	0.1705	0.3082	-0.131
Mof_H 	H 	0.0038	0.1043	0.2613	0.081
Mof_C 	C 	0.1431	0.1792	0.3871	0.085
Mof_H 	H 	0.149	0.1183	0.3916	0.015
Mof_C 	C 	0.2056	0.3555	0.4485	0.093
Mof_H 	H 	0.2558	0.4198	0.498	0.008
Mof_C 	C 	0.1231	0.3532	0.3715	-0.144
Mof_H 	H 	0.1188	0.4151	0.3685	0.083
_end
