# CIF file generated by openbabel 3.1.0, see https://openbabel.org
data_I
_chemical_name_common 'image0'
_cell_length_a 8.8048
_cell_length_b 8.8048
_cell_length_c 12.031
_cell_angle_alpha 90
_cell_angle_beta 90
_cell_angle_gamma 90
_space_group_name_H-M_alt 'P 1'
_space_group_name_Hall 'P 1'
loop_
    _symmetry_equiv_pos_as_xyz
    x,y,z
loop_
    _atom_site_label
    _atom_site_type_symbol
    _atom_site_fract_x
    _atom_site_fract_y
    _atom_site_fract_z
    _atom_site_occupancy
    C1       C        0.76550    0.54520    0.11590    1.000
    O1       O        0.89050    0.61350    0.13380    1.000
    O2       O        0.68500    0.60600    0.03240    1.000
    O3       O        0.71450    0.44140    0.17420    1.000
    C2       C        0.23450    0.45480    0.11590    1.000
    O4       O        0.10950    0.38650    0.13380    1.000
    O5       O        0.31500    0.39400    0.03240    1.000
    O6       O        0.28550    0.55860    0.17420    1.000
    C3       C        0.54520    0.23450    0.88410    1.000
    O7       O        0.61350    0.10950    0.86620    1.000
    O8       O        0.60600    0.31500    0.96760    1.000
    O9       O        0.44140    0.28550    0.82580    1.000
    C4       C        0.45480    0.76550    0.88410    1.000
    O10      O        0.38650    0.89050    0.86620    1.000
    O11      O        0.39400    0.68500    0.96760    1.000
    O12      O        0.55860    0.71450    0.82580    1.000
    C5       C        0.26550    0.95480    0.61590    1.000
    O13      O        0.39050    0.88650    0.63380    1.000
    O14      O        0.18500    0.89400    0.53240    1.000
    O15      O        0.21450    0.05860    0.67420    1.000
    C6       C        0.73450    0.04520    0.61590    1.000
    O16      O        0.60950    0.11350    0.63380    1.000
    O17      O        0.81500    0.10600    0.53240    1.000
    O18      O        0.78550    0.94140    0.67420    1.000
    C7       C        0.04520    0.26550    0.38410    1.000
    O19      O        0.11350    0.39050    0.36620    1.000
    O20      O        0.10600    0.18500    0.46760    1.000
    O21      O        0.94140    0.21450    0.32580    1.000
    C8       C        0.95480    0.73450    0.38410    1.000
    O22      O        0.88650    0.60950    0.36620    1.000
    O23      O        0.89400    0.81500    0.46760    1.000
    O24      O        0.05860    0.78550    0.32580    1.000
    Cu1      Cu       0.00000    0.50000    0.25000    1.000
    Cu2      Cu       0.50000    0.00000    0.75000    1.000
    Cu3      Cu       0.50000    0.50000    0.00000    1.000
    Cu4      Cu       0.00000    0.00000    0.50000    1.000
