data_functionalizedCrystal
_audit_creation_method	'EQeq! by Chris Wilmer'
_symmetry_space_group_name_H-M	'P1'
_symmetry_Int_Tables_number	1
_symmetry_cell_setting	triclinic
loop_
_symmetry_equiv_pos_as_xyz
  x,y,z
_cell_length_a	15.318
_cell_length_b	8.0546
_cell_length_c	29.444
_cell_angle_alpha	90
_cell_angle_beta	99.92
_cell_angle_gamma	90
loop_
_atom_site_label
_atom_site_type_symbol
_atom_site_fract_x
_atom_site_fract_y
_atom_site_fract_z
_atom_site_charge
Mof_Tb	Tb	0.04775	0.74556	0.5096	2.091
Mof_Cu	Cu	0.57051	0.5779	0.75201	0.729
Mof_Cu	Cu	0.64402	0.3058	0.71545	0.739
Mof_Cu	Cu	0.49341	0.4277	0.67191	0.732
Mof_Cu	Cu	0.64929	0.6231	0.68094	0.733
Mof_I 	I 	0.62658	0.3349	0.6251	-0.563
Mof_I 	I 	0.74951	0.54561	0.76144	-0.767
Mof_I 	I 	0.50263	0.2719	0.75243	-0.585
Mof_I 	I 	0.49067	0.75368	0.67525	-0.601
Mof_O 	O 	0.9739	0.4955	0.5427	-0.605
Mof_O 	O 	0.1466	0.9479	0.5477	-0.53
Mof_O 	O 	0.9611	0.8876	0.5514	-0.571
Mof_O 	O 	0.885	0.1222	0.5474	-0.547
Mof_O 	O 	0.0777	0.626	0.5899	-0.435
Mof_O 	O 	0.0821	0.2	0.5435	-0.542
Mof_N 	N 	0.7307	0.7478	0.6448	-0.209
Mof_N 	N 	0.9553	0.223	0.6962	-0.221
Mof_N 	N 	0.3817	0.3225	0.6355	-0.213
Mof_C 	C 	0.0176	0.5178	0.5835	0.375
Mof_C 	C 	0.8419	0.9035	0.5923	-0.133
Mof_C 	C 	0.9971	0.4163	0.6231	-0.084
Mof_C 	C 	0.9104	0.3573	0.6225	-0.021
Mof_H 	H 	0.8645	0.381	0.5972	0.037
Mof_C 	C 	0.9	0.9798	0.5617	0.507
Mof_C 	C 	0.0375	0.2831	0.6962	0.026
Mof_H 	H 	0.0826	0.2572	0.7216	0.012
Mof_C 	C 	0.2305	0.1776	0.5849	-0.108
Mof_C 	C 	0.0596	0.3803	0.6612	-0.022
Mof_H 	H 	0.1182	0.4223	0.6635	0.053
Mof_C 	C 	0.3798	0.1617	0.6246	0.011
Mof_H 	H 	0.4313	0.0967	0.6346	0.025
Mof_C 	C 	0.8932	0.2643	0.6594	0.011
Mof_H 	H 	0.8343	0.227	0.659	0.013
Mof_C 	C 	0.3057	0.0853	0.5992	-0.008
Mof_H 	H 	0.3069	0.9706	0.5919	0.044
Mof_C 	C 	0.308	0.4098	0.6226	0.007
Mof_H 	H 	0.3076	0.5232	0.6314	0.012
Mof_C 	C 	0.7539	0.9486	0.5889	-0.001
Mof_H 	H 	0.7301	0.0348	0.5685	0.043
Mof_C 	C 	0.7007	0.8679	0.6154	0.006
Mof_H 	H 	0.6403	0.8997	0.6123	0.022
Mof_C 	C 	0.2308	0.343	0.5966	-0.014
Mof_H 	H 	0.1799	0.4102	0.5872	0.027
Mof_C 	C 	0.1457	0.1003	0.5555	0.475
Mof_C 	C 	0.8735	0.7803	0.6236	-0.004
Mof_H 	H 	0.9336	0.7459	0.6272	0.047
Mof_C 	C 	0.8164	0.7073	0.6498	-0.013
Mof_H 	H 	0.8392	0.6258	0.672	0.016
Mof_Tb	Tb	0.45225	0.24556	0.9904	2.095
Mof_Cu	Cu	0.92949	0.0779	0.74799	0.729
Mof_Cu	Cu	0.85598	0.8058	0.78455	0.741
Mof_Cu	Cu	0.00659	0.9277	0.82809	0.731
Mof_Cu	Cu	0.85071	0.1231	0.81906	0.732
Mof_I 	I 	0.87342	0.8349	0.8749	-0.559
Mof_I 	I 	0.75049	0.04561	0.73856	-0.771
Mof_I 	I 	0.99737	0.7719	0.74757	-0.581
Mof_I 	I 	0.00933	0.25368	0.82475	-0.599
Mof_O 	O 	0.5261	0.9955	0.9573	-0.604
Mof_O 	O 	0.3534	0.4479	0.9523	-0.527
Mof_O 	O 	0.5389	0.3876	0.9486	-0.572
Mof_O 	O 	0.615	0.6222	0.9526	-0.543
Mof_O 	O 	0.4223	0.126	0.9101	-0.434
Mof_O 	O 	0.4179	0.7	0.9565	-0.542
Mof_N 	N 	0.7693	0.2478	0.8552	-0.21
Mof_N 	N 	0.5447	0.723	0.8038	-0.219
Mof_N 	N 	0.1183	0.8225	0.8645	-0.213
Mof_C 	C 	0.4824	0.0178	0.9165	0.372
Mof_C 	C 	0.6581	0.4035	0.9077	-0.13
Mof_C 	C 	0.5029	0.9163	0.8769	-0.081
Mof_C 	C 	0.5896	0.8573	0.8775	-0.021
Mof_H 	H 	0.6355	0.881	0.9028	0.038
Mof_C 	C 	0.6	0.4798	0.9383	0.502
Mof_C 	C 	0.4625	0.7831	0.8038	0.024
Mof_H 	H 	0.4174	0.7572	0.7784	0.012
Mof_C 	C 	0.2695	0.6776	0.9151	-0.107
Mof_C 	C 	0.4404	0.8803	0.8388	-0.024
Mof_H 	H 	0.3818	0.9223	0.8365	0.054
Mof_C 	C 	0.1202	0.6617	0.8754	0.012
Mof_H 	H 	0.0687	0.5967	0.8654	0.025
Mof_C 	C 	0.6068	0.7643	0.8406	0.012
Mof_H 	H 	0.6657	0.727	0.841	0.013
Mof_C 	C 	0.1943	0.5853	0.9008	-0.011
Mof_H 	H 	0.1931	0.4706	0.9081	0.046
Mof_C 	C 	0.192	0.9098	0.8774	0.004
Mof_H 	H 	0.1924	0.0232	0.8686	0.014
Mof_C 	C 	0.7461	0.4486	0.9111	-0.008
Mof_H 	H 	0.7699	0.5348	0.9315	0.047
Mof_C 	C 	0.7993	0.3679	0.8846	0.008
Mof_H 	H 	0.8597	0.3997	0.8877	0.02
Mof_C 	C 	0.2692	0.843	0.9034	-0.014
Mof_H 	H 	0.3201	0.9102	0.9128	0.027
Mof_C 	C 	0.3543	0.6003	0.9445	0.471
Mof_C 	C 	0.6265	0.2803	0.8764	-0.007
Mof_H 	H 	0.5664	0.2459	0.8728	0.047
Mof_C 	C 	0.6836	0.2073	0.8502	-0.012
Mof_H 	H 	0.6608	0.1258	0.828	0.015
Mof_Tb	Tb	0.95225	0.25444	0.4904	2.092
Mof_Cu	Cu	0.42949	0.4221	0.24799	0.73
Mof_Cu	Cu	0.35598	0.6942	0.28455	0.74
Mof_Cu	Cu	0.50659	0.5723	0.32809	0.733
Mof_Cu	Cu	0.35071	0.3769	0.31906	0.733
Mof_I 	I 	0.37342	0.6651	0.3749	-0.563
Mof_I 	I 	0.25049	0.45439	0.23856	-0.767
Mof_I 	I 	0.49737	0.7281	0.24757	-0.585
Mof_I 	I 	0.50933	0.24632	0.32475	-0.601
Mof_O 	O 	0.0261	0.5045	0.4573	-0.605
Mof_O 	O 	0.8534	0.0521	0.4523	-0.53
Mof_O 	O 	0.0389	0.1124	0.4486	-0.571
Mof_O 	O 	0.115	0.8778	0.4526	-0.547
Mof_O 	O 	0.9223	0.374	0.4101	-0.435
Mof_O 	O 	0.9179	0.8	0.4565	-0.542
Mof_N 	N 	0.2693	0.2522	0.3552	-0.209
Mof_N 	N 	0.0447	0.777	0.3038	-0.221
Mof_N 	N 	0.6183	0.6775	0.3645	-0.213
Mof_C 	C 	0.9824	0.4822	0.4165	0.375
Mof_C 	C 	0.1581	0.0965	0.4077	-0.133
Mof_C 	C 	0.0029	0.5837	0.3769	-0.084
Mof_C 	C 	0.0896	0.6427	0.3775	-0.021
Mof_H 	H 	0.1355	0.619	0.4028	0.037
Mof_C 	C 	0.1	0.0202	0.4383	0.507
Mof_C 	C 	0.9625	0.7169	0.3038	0.026
Mof_H 	H 	0.9174	0.7428	0.2784	0.012
Mof_C 	C 	0.7695	0.8224	0.4151	-0.108
Mof_C 	C 	0.9404	0.6197	0.3388	-0.022
Mof_H 	H 	0.8818	0.5777	0.3365	0.053
Mof_C 	C 	0.6202	0.8383	0.3754	0.011
Mof_H 	H 	0.5687	0.9033	0.3654	0.025
Mof_C 	C 	0.1068	0.7357	0.3406	0.011
Mof_H 	H 	0.1657	0.773	0.341	0.013
Mof_C 	C 	0.6943	0.9147	0.4008	-0.008
Mof_H 	H 	0.6931	0.0294	0.4081	0.044
Mof_C 	C 	0.692	0.5902	0.3774	0.007
Mof_H 	H 	0.6924	0.4768	0.3686	0.012
Mof_C 	C 	0.2461	0.0514	0.4111	-0.001
Mof_H 	H 	0.2699	0.9652	0.4315	0.043
Mof_C 	C 	0.2993	0.1321	0.3846	0.006
Mof_H 	H 	0.3597	0.1003	0.3877	0.022
Mof_C 	C 	0.7692	0.657	0.4034	-0.014
Mof_H 	H 	0.8201	0.5898	0.4128	0.027
Mof_C 	C 	0.8543	0.8997	0.4445	0.475
Mof_C 	C 	0.1265	0.2197	0.3764	-0.004
Mof_H 	H 	0.0664	0.2541	0.3728	0.047
Mof_C 	C 	0.1836	0.2927	0.3502	-0.013
Mof_H 	H 	0.1608	0.3742	0.328	0.016
Mof_Tb	Tb	0.54775	0.75444	0.0096	2.095
Mof_Cu	Cu	0.07051	0.9221	0.25201	0.729
Mof_Cu	Cu	0.14402	0.1942	0.21545	0.741
Mof_Cu	Cu	0.99341	0.0723	0.17191	0.731
Mof_Cu	Cu	0.14929	0.8769	0.18094	0.732
Mof_I 	I 	0.12658	0.1651	0.1251	-0.559
Mof_I 	I 	0.24951	0.95439	0.26144	-0.771
Mof_I 	I 	0.00263	0.2281	0.25243	-0.581
Mof_I 	I 	0.99067	0.74632	0.17525	-0.599
Mof_O 	O 	0.4739	0.0045	0.0427	-0.604
Mof_O 	O 	0.6466	0.5521	0.0477	-0.527
Mof_O 	O 	0.4611	0.6124	0.0514	-0.572
Mof_O 	O 	0.385	0.3778	0.0474	-0.543
Mof_O 	O 	0.5777	0.874	0.0899	-0.434
Mof_O 	O 	0.5821	0.3	0.0435	-0.542
Mof_N 	N 	0.2307	0.7522	0.1448	-0.21
Mof_N 	N 	0.4553	0.277	0.1962	-0.219
Mof_N 	N 	0.8817	0.1775	0.1355	-0.213
Mof_C 	C 	0.5176	0.9822	0.0835	0.372
Mof_C 	C 	0.3419	0.5965	0.0923	-0.13
Mof_C 	C 	0.4971	0.0837	0.1231	-0.081
Mof_C 	C 	0.4104	0.1427	0.1225	-0.021
Mof_H 	H 	0.3645	0.119	0.0972	0.038
Mof_C 	C 	0.4	0.5202	0.0617	0.502
Mof_C 	C 	0.5375	0.2169	0.1962	0.024
Mof_H 	H 	0.5826	0.2428	0.2216	0.012
Mof_C 	C 	0.7305	0.3224	0.0849	-0.107
Mof_C 	C 	0.5596	0.1197	0.1612	-0.024
Mof_H 	H 	0.6182	0.0777	0.1635	0.054
Mof_C 	C 	0.8798	0.3383	0.1246	0.012
Mof_H 	H 	0.9313	0.4033	0.1346	0.025
Mof_C 	C 	0.3932	0.2357	0.1594	0.012
Mof_H 	H 	0.3343	0.273	0.159	0.013
Mof_C 	C 	0.8057	0.4147	0.0992	-0.011
Mof_H 	H 	0.8069	0.5294	0.0919	0.046
Mof_C 	C 	0.808	0.0902	0.1226	0.004
Mof_H 	H 	0.8076	0.9768	0.1314	0.014
Mof_C 	C 	0.2539	0.5514	0.0889	-0.008
Mof_H 	H 	0.2301	0.4652	0.0685	0.047
Mof_C 	C 	0.2007	0.6321	0.1154	0.008
Mof_H 	H 	0.1403	0.6003	0.1123	0.02
Mof_C 	C 	0.7308	0.157	0.0966	-0.014
Mof_H 	H 	0.6799	0.0898	0.0872	0.027
Mof_C 	C 	0.6457	0.3997	0.0555	0.471
Mof_C 	C 	0.3735	0.7197	0.1236	-0.007
Mof_H 	H 	0.4336	0.7541	0.1272	0.047
Mof_C 	C 	0.3164	0.7927	0.1498	-0.012
Mof_H 	H 	0.3392	0.8742	0.172	0.015
_end
