# CIF file generated by openbabel 3.1.0, see https://openbabel.org
data_I
_chemical_name_common 'image0'
_cell_length_a 10.2726
_cell_length_b 13.3346
_cell_length_c 15.2745
_cell_angle_alpha 100.554
_cell_angle_beta 107.524
_cell_angle_gamma 99.341
_space_group_name_H-M_alt 'P 1'
_space_group_name_Hall 'P 1'
loop_
    _symmetry_equiv_pos_as_xyz
    x,y,z
loop_
    _atom_site_label
    _atom_site_type_symbol
    _atom_site_fract_x
    _atom_site_fract_y
    _atom_site_fract_z
    _atom_site_occupancy
    Ba1      Ba       0.52788    0.82020    0.49016    1.000
    Ba2      Ba       0.08845    0.92503    0.39152    1.000
    C1       C        0.78270    0.61790    0.92300    1.000
    C2       C        0.15330    0.75990    0.98000    1.000
    C3       C        0.75960    0.69570    0.87590    1.000
    H1       H        0.76820    0.76370    0.90900    1.000
    C4       C        0.09480    0.73630    0.88120    1.000
    C5       C        0.72340    0.67060    0.77800    1.000
    C6       C        0.77320    0.51760    0.87560    1.000
    H2       H        0.79300    0.46700    0.90900    1.000
    C7       C        0.13670    0.93960    0.98640    1.000
    H3       H        0.15090    0.00750    0.02200    1.000
    C8       C        0.73400    0.49200    0.77780    1.000
    C9       C        0.05690    0.81460    0.83650    1.000
    H4       H        0.01840    0.79900    0.77080    1.000
    C10      C        0.07610    0.91530    0.88900    1.000
    C11      C        0.17570    0.86250    0.03020    1.000
    C12      C        0.91460    0.70250    0.21030    1.000
    C13      C        0.70960    0.56930    0.72960    1.000
    H5       H        0.68370    0.55270    0.66390    1.000
    C14      C        0.45880    0.95060    0.25410    1.000
    C15      C        0.07480    0.62970    0.82070    1.000
    C16      C        0.57620    0.63300    0.00390    1.000
    H6       H        0.54790    0.60840    0.93850    1.000
    C17      C        0.36960    0.95020    0.31670    1.000
    C18      C        0.71560    0.65510    0.05810    1.000
    C19      C        0.71550    0.38280    0.72390    1.000
    C20      C        0.66210    0.70660    0.20000    1.000
    C21      C        0.76100    0.68980    0.15660    1.000
    C22      C        0.70380    0.75130    0.30520    1.000
    C23      C        0.38930    0.92080    0.15680    1.000
    C24      C        0.69930    0.75090    0.72250    1.000
    C25      C        0.46210    0.92240    0.09380    1.000
    H7       H        0.41410    0.90290    0.02890    1.000
    C26      C        0.03690    0.99730    0.83730    1.000
    C27      C        0.69080    0.01030    0.39270    1.000
    C28      C        0.60580    0.98040    0.28880    1.000
    C29      C        0.67730    0.98070    0.22480    1.000
    H8       H        0.77480    0.99980    0.24720    1.000
    C30      C        0.52110    0.68480    0.14430    1.000
    H9       H        0.45460    0.69550    0.17280    1.000
    C31      C        0.60610    0.95320    0.12870    1.000
    H10      H        0.65580    0.95540    0.08700    1.000
    C32      C        0.47860    0.64760    0.04720    1.000
    H11      H        0.38390    0.63240    0.01100    1.000
    O1       O        0.07290    0.09190    0.89100    1.000
    H12      H        0.05100    0.12800    0.85800    1.000
    O2       O        0.97820    0.97400    0.75190    1.000
    O3       O        0.82670    0.85950    0.53100    1.000
    H13      H        0.84360    0.84170    0.47990    1.000
    H14      H        0.86880    0.82260    0.56490    1.000
    O4       O        0.66920    0.73120    0.63730    1.000
    O5       O        0.71290    0.84420    0.77490    1.000
    H15      H        0.68700    0.88000    0.73900    1.000
    O6       O        0.75100    0.31990    0.77870    1.000
    H16      H        0.73800    0.26900    0.75100    1.000
    O7       O        0.67040    0.35670    0.63790    1.000
    O8       O        0.82130    0.64140    0.02140    1.000
    O9       O        0.83110    0.79190    0.35110    1.000
    O10      O        0.60870    0.74680    0.34050    1.000
    O11      O        0.95070    0.62840    0.24270    1.000
    O12      O        0.99780    0.78640    0.21710    1.000
    O13      O        0.24450    0.88940    0.12827    1.000
    O14      O        0.11300    0.56120    0.86940    1.000
    H17      H        0.09300    0.50100    0.82600    1.000
    O15      O        0.02990    0.60910    0.73530    1.000
    O16      O        0.33240    0.86790    0.34070    1.000
    O17      O        0.62570    0.01390    0.45200    1.000
    O18      O        0.82170    0.02790    0.41570    1.000
    O19      O        0.32870    0.03190    0.33910    1.000
    Ba3      Ba       0.47212    0.17980    0.50984    1.000
    Ba4      Ba       0.91155    0.07497    0.60848    1.000
    C33      C        0.21730    0.38210    0.07700    1.000
    C34      C        0.84670    0.24010    0.02000    1.000
    C35      C        0.24040    0.30430    0.12410    1.000
    H18      H        0.23180    0.23630    0.09100    1.000
    C36      C        0.90520    0.26370    0.11880    1.000
    C37      C        0.27660    0.32940    0.22200    1.000
    C38      C        0.22680    0.48240    0.12440    1.000
    H19      H        0.20700    0.53300    0.09100    1.000
    C39      C        0.86330    0.06040    0.01360    1.000
    H20      H        0.84910    0.99250    0.97800    1.000
    C40      C        0.26600    0.50800    0.22220    1.000
    C41      C        0.94310    0.18540    0.16350    1.000
    H21      H        0.98160    0.20100    0.22920    1.000
    C42      C        0.92390    0.08470    0.11100    1.000
    C43      C        0.82430    0.13750    0.96980    1.000
    C44      C        0.08540    0.29750    0.78970    1.000
    C45      C        0.29040    0.43070    0.27040    1.000
    H22      H        0.31630    0.44730    0.33610    1.000
    C46      C        0.54120    0.04940    0.74590    1.000
    C47      C        0.92520    0.37030    0.17930    1.000
    C48      C        0.42380    0.36700    0.99610    1.000
    H23      H        0.45210    0.39160    0.06150    1.000
    C49      C        0.63040    0.04980    0.68330    1.000
    C50      C        0.28440    0.34490    0.94190    1.000
    C51      C        0.28450    0.61720    0.27610    1.000
    C52      C        0.33790    0.29340    0.80000    1.000
    C53      C        0.23900    0.31020    0.84340    1.000
    C54      C        0.29620    0.24870    0.69480    1.000
    C55      C        0.61070    0.07920    0.84320    1.000
    C56      C        0.30070    0.24910    0.27750    1.000
    C57      C        0.53790    0.07760    0.90620    1.000
    H24      H        0.58590    0.09710    0.97110    1.000
    C58      C        0.96310    0.00270    0.16270    1.000
    C59      C        0.30920    0.98970    0.60730    1.000
    C60      C        0.39420    0.01960    0.71120    1.000
    C61      C        0.32270    0.01930    0.77520    1.000
    H25      H        0.22520    0.00020    0.75280    1.000
    C62      C        0.47890    0.31520    0.85570    1.000
    H26      H        0.54540    0.30450    0.82720    1.000
    C63      C        0.39390    0.04680    0.87130    1.000
    H27      H        0.34420    0.04460    0.91300    1.000
    C64      C        0.52140    0.35240    0.95280    1.000
    H28      H        0.61610    0.36760    0.98900    1.000
    O20      O        0.92710    0.90810    0.10900    1.000
    H29      H        0.94900    0.87200    0.14200    1.000
    O21      O        0.02180    0.02600    0.24810    1.000
    O22      O        0.17330    0.14050    0.46900    1.000
    H30      H        0.15640    0.15830    0.52010    1.000
    H31      H        0.13120    0.17740    0.43510    1.000
    O23      O        0.33080    0.26880    0.36270    1.000
    O24      O        0.28710    0.15580    0.22510    1.000
    H32      H        0.31300    0.12000    0.26100    1.000
    O25      O        0.24900    0.68010    0.22130    1.000
    H33      H        0.26200    0.73100    0.24900    1.000
    O26      O        0.32960    0.64330    0.36210    1.000
    O27      O        0.17870    0.35860    0.97860    1.000
    O28      O        0.16890    0.20810    0.64890    1.000
    O29      O        0.39130    0.25320    0.65950    1.000
    O30      O        0.04930    0.37160    0.75730    1.000
    O31      O        0.00220    0.21360    0.78290    1.000
    O32      O        0.75550    0.11060    0.87173    1.000
    O33      O        0.88700    0.43880    0.13060    1.000
    H34      H        0.90700    0.49900    0.17400    1.000
    O34      O        0.97010    0.39090    0.26470    1.000
    O35      O        0.66760    0.13210    0.65930    1.000
    O36      O        0.37430    0.98610    0.54800    1.000
    O37      O        0.17830    0.97210    0.58430    1.000
    O38      O        0.67130    0.96810    0.66090    1.000
