# CIF file generated by openbabel 3.1.0, see https://openbabel.org
data_I
_chemical_name_common 'image0'
_cell_length_a 12.3342
_cell_length_b 12.3731
_cell_length_c 8.8709
_cell_angle_alpha 75.4778
_cell_angle_beta 78.9579
_cell_angle_gamma 63.3879
_space_group_name_H-M_alt 'P 1'
_space_group_name_Hall 'P 1'
loop_
    _symmetry_equiv_pos_as_xyz
    x,y,z
loop_
    _atom_site_label
    _atom_site_type_symbol
    _atom_site_fract_x
    _atom_site_fract_y
    _atom_site_fract_z
    _atom_site_occupancy
    C1       C        0.97498    0.38904    0.39648    1.000
    C2       C        0.01109    0.56772    0.30254    1.000
    C3       C        0.86204    0.54411    0.19693    1.000
    C4       C        0.04002    0.45413    0.39728    1.000
    H1       H        0.11846    0.41311    0.46366    1.000
    C5       C        0.92313    0.61282    0.20017    1.000
    H2       H        0.90067    0.70232    0.12563    1.000
    C6       C        0.88298    0.43672    0.30213    1.000
    H3       H        0.83202    0.38447    0.30503    1.000
    C7       C        0.13948    0.68915    0.29613    1.000
    C8       C        0.07997    0.63401    0.30113    1.000
    C9       C        0.65010    0.64433    0.09637    1.000
    C10      C        0.75459    0.59666    0.12006    1.000
    C11      C        0.08784    0.15471    0.42316    1.000
    C12      C        0.03153    0.25998    0.43262    1.000
    O1       O        0.24749    0.95908    0.46253    1.000
    O2       O        0.17249    0.04302    0.22336    1.000
    C13      C        0.16478    0.04312    0.37314    1.000
    O3       O        0.48237    0.90692    0.33274    1.000
    O4       O        0.40033    0.01915    0.10298    1.000
    C14      C        0.47563    0.99202    0.20651    1.000
    Cu1      Cu       0.37634    0.81896    0.38958    1.000
    Cu2      Cu       0.30621    0.92857    0.10832    1.000
    O5       O        0.49303    0.69260    0.28205    1.000
    O6       O        0.45860    0.80340    0.03534    1.000
    O7       O        0.26283    0.74696    0.40287    1.000
    O8       O        0.22458    0.82174    0.14617    1.000
    C15      C        0.52377    0.70549    0.13155    1.000
    C16      C        0.21079    0.75523    0.28217    1.000
    C17      C        0.80625    0.26610    0.15493    1.000
    C18      C        0.80291    0.26576    0.88381    1.000
    C19      C        0.69849    0.16868    0.08674    1.000
    C20      C        0.84084    0.29941    0.99677    1.000
    H4       H        0.89585    0.35083    0.96224    1.000
    C21      C        0.73195    0.20071    0.93099    1.000
    H5       H        0.70177    0.17523    0.84413    1.000
    C22      C        0.73573    0.20127    0.19704    1.000
    H6       H        0.70838    0.17664    0.31927    1.000
    C23      C        0.84460    0.30681    0.57420    1.000
    C24      C        0.83199    0.29436    0.71603    1.000
    C25      C        0.55613    0.05181    0.17288    1.000
    C26      C        0.62198    0.10423    0.13507    1.000
    C27      C        0.84650    0.30785    0.41211    1.000
    C28      C        0.83616    0.29540    0.28489    1.000
