# CIF file generated by openbabel 3.1.0, see https://openbabel.org
data_I
_chemical_name_common 'image0'
_cell_length_a 9.6706
_cell_length_b 11.7551
_cell_length_c 12.3115
_cell_angle_alpha 90
_cell_angle_beta 99.269
_cell_angle_gamma 90
_space_group_name_H-M_alt 'P 1'
_space_group_name_Hall 'P 1'
loop_
    _symmetry_equiv_pos_as_xyz
    x,y,z
loop_
    _atom_site_label
    _atom_site_type_symbol
    _atom_site_fract_x
    _atom_site_fract_y
    _atom_site_fract_z
    _atom_site_occupancy
    Eu1      Eu       0.28617    0.01554    0.16909    1.000
    O1       O        0.36050    0.21540    0.15630    1.000
    O2       O        0.19210    0.14080    0.29430    1.000
    O3       O        0.31600    0.39480    0.20010    1.000
    O4       O        0.13390    0.31971    0.32780    1.000
    O5       O        0.31860    0.01180    0.97730    1.000
    O6       O        0.46640    0.98630    0.85770    1.000
    O7       O        0.10230    0.89110    0.06710    1.000
    O8       O        0.91610    0.88190    0.93340    1.000
    C1       C        0.30120    0.28900    0.20610    1.000
    C2       C        0.19980    0.24520    0.28220    1.000
    C3       C        0.43790    0.99900    0.95310    1.000
    C4       C        0.00590    0.93410    0.00080    1.000
    Eu2      Eu       0.21383    0.51554    0.33091    1.000
    O9       O        0.13950    0.71540    0.34370    1.000
    O10      O        0.30790    0.64080    0.20570    1.000
    O11      O        0.18400    0.89480    0.29990    1.000
    O12      O        0.36610    0.81971    0.17220    1.000
    O13      O        0.18140    0.51180    0.52270    1.000
    O14      O        0.03360    0.48630    0.64230    1.000
    O15      O        0.39770    0.39110    0.43290    1.000
    O16      O        0.58390    0.38190    0.56660    1.000
    C5       C        0.19880    0.78900    0.29390    1.000
    C6       C        0.30020    0.74520    0.21780    1.000
    C7       C        0.06210    0.49900    0.54690    1.000
    C8       C        0.49410    0.43410    0.49920    1.000
    Eu3      Eu       0.71383    0.98446    0.83091    1.000
    O17      O        0.63950    0.78460    0.84370    1.000
    O18      O        0.80790    0.85920    0.70570    1.000
    O19      O        0.68400    0.60520    0.79990    1.000
    O20      O        0.86610    0.68029    0.67220    1.000
    O21      O        0.68140    0.98820    0.02270    1.000
    O22      O        0.53360    0.01370    0.14230    1.000
    O23      O        0.89770    0.10890    0.93290    1.000
    O24      O        0.08390    0.11810    0.06660    1.000
    C9       C        0.69880    0.71100    0.79390    1.000
    C10      C        0.80020    0.75480    0.71780    1.000
    C11      C        0.56210    0.00100    0.04690    1.000
    C12      C        0.99410    0.06590    0.99920    1.000
    Eu4      Eu       0.78617    0.48446    0.66909    1.000
    O25      O        0.86050    0.28460    0.65630    1.000
    O26      O        0.69210    0.35920    0.79430    1.000
    O27      O        0.81600    0.10520    0.70010    1.000
    O28      O        0.63390    0.18029    0.82780    1.000
    O29      O        0.81860    0.48820    0.47730    1.000
    O30      O        0.96640    0.51370    0.35770    1.000
    O31      O        0.60230    0.60890    0.56710    1.000
    O32      O        0.41610    0.61810    0.43340    1.000
    C13      C        0.80120    0.21100    0.70610    1.000
    C14      C        0.69980    0.25480    0.78220    1.000
    C15      C        0.93790    0.50100    0.45310    1.000
    C16      C        0.50590    0.56590    0.50080    1.000
