data_functionalizedCrystal
_audit_creation_method	'EQeq! by Chris Wilmer'
_symmetry_space_group_name_H-M	'P1'
_symmetry_Int_Tables_number	1
_symmetry_cell_setting	triclinic
loop_
_symmetry_equiv_pos_as_xyz
  x,y,z
_cell_length_a	26.1174
_cell_length_b	26.1174
_cell_length_c	19.491
_cell_angle_alpha	90
_cell_angle_beta	90
_cell_angle_gamma	120
loop_
_atom_site_label
_atom_site_type_symbol
_atom_site_fract_x
_atom_site_fract_y
_atom_site_fract_z
_atom_site_charge
Mof_Zn	Zn	0.43551	0.33203	0.59613	1.2
Mof_C 	C 	0.3582	0.325	0.712	0.021
Mof_H 	H 	0.3292	0.3258	0.6831	0.03
Mof_N 	N 	0.4067	0.3238	0.6915	-0.273
Mof_O 	O 	0.5081	0.3221	0.6948	-0.16
Mof_C 	C 	0.5586	0.3777	0.5364	0.053
Mof_H 	H 	0.5504	0.3399	0.5209	0.017
Mof_N 	N 	0.5182	0.3954	0.5666	-0.051
Mof_C 	C 	0.5494	0.3985	0.528	-0.131
Mof_H 	H 	0.5757	0.4175	0.4907	0.05
Mof_N 	N 	0.5092	0.4091	0.5917	-0.293
Mof_O 	O 	0.5486	0.5332	0.6226	-0.098
Mof_O 	O 	0.5578	0.5257	0.6773	-0.074
Mof_N 	N 	0.4317	0.26028	0.5614	-0.277
Mof_C 	C 	0.4293	0.2412	0.4969	0.044
Mof_C 	C 	0.4277	0.2687	0.4348	0.006
Mof_H 	H 	0.4276	0.305	0.4343	0.031
Mof_C 	C 	0.4262	0.2398	0.3759	-0.17
Mof_H 	H 	0.4252	0.2567	0.3331	0.445
Mof_N 	N 	0.44	0.277	0.313	-0.378
Mof_O 	O 	0.4292	0.3144	0.3099	-0.018
Mof_N 	N 	0.376	0.3388	0.5402	-0.275
Mof_C 	C 	0.3201	0.2971	0.5255	0.047
Mof_C 	C 	0.2861	0.2389	0.5523	-0.03
Mof_H 	H 	0.3001	0.2231	0.5866	0.04
Mof_C 	C 	0.2296	0.2073	0.5227	-0.113
Mof_H 	H 	0.2053	0.1672	0.5358	0.311
Mof_N 	N 	0.197	0.1418	0.5531	-0.235
Mof_O 	O 	0.1434	0.1155	0.5136	-0.036
Mof_Zn	Zn	0.66797	0.10348	0.59613	1.199
Mof_C 	C 	0.675	0.0332	0.712	0.02
Mof_H 	H 	0.6742	0.0034	0.6831	0.028
Mof_N 	N 	0.6762	0.0829	0.6915	-0.274
Mof_O 	O 	0.6779	0.186	0.6948	-0.161
Mof_C 	C 	0.6223	0.1809	0.5364	0.052
Mof_H 	H 	0.6601	0.2105	0.5209	0.016
Mof_N 	N 	0.6046	0.1228	0.5666	-0.052
Mof_C 	C 	0.6015	0.1509	0.528	-0.131
Mof_H 	H 	0.5825	0.1582	0.4907	0.049
Mof_N 	N 	0.5909	0.1001	0.5917	-0.294
Mof_O 	O 	0.4668	0.0154	0.6226	-0.1
Mof_O 	O 	0.4743	0.0321	0.6773	-0.075
Mof_N 	N 	0.73972	0.17142	0.5614	-0.278
Mof_C 	C 	0.7588	0.1881	0.4969	0.041
Mof_C 	C 	0.7313	0.159	0.4348	0.011
Mof_H 	H 	0.695	0.1226	0.4343	0.027
Mof_C 	C 	0.7602	0.1864	0.3759	-0.18
Mof_H 	H 	0.7433	0.1685	0.3331	0.45
Mof_N 	N 	0.723	0.163	0.313	-0.383
Mof_O 	O 	0.6856	0.1148	0.3099	-0.018
Mof_N 	N 	0.6612	0.0372	0.5402	-0.272
Mof_C 	C 	0.7029	0.023	0.5255	0.031
Mof_C 	C 	0.7611	0.0472	0.5523	-0.003
Mof_H 	H 	0.7769	0.077	0.5866	0.031
Mof_C 	C 	0.7927	0.0223	0.5227	-0.16
Mof_H 	H 	0.8328	0.0381	0.5358	0.338
Mof_N 	N 	0.8582	0.0552	0.5531	-0.25
Mof_O 	O 	0.8845	0.0279	0.5136	-0.037
Mof_Zn	Zn	0.89652	0.56449	0.59613	1.199
Mof_C 	C 	0.9668	0.6418	0.712	0.02
Mof_H 	H 	0.9966	0.6708	0.6831	0.03
Mof_N 	N 	0.9171	0.5933	0.6915	-0.274
Mof_O 	O 	0.814	0.4919	0.6948	-0.162
Mof_C 	C 	0.8191	0.4414	0.5364	0.053
Mof_H 	H 	0.7895	0.4496	0.5209	0.016
Mof_N 	N 	0.8772	0.4818	0.5666	-0.052
Mof_C 	C 	0.8491	0.4506	0.528	-0.132
Mof_H 	H 	0.8418	0.4243	0.4907	0.049
Mof_N 	N 	0.8999	0.4908	0.5917	-0.295
Mof_O 	O 	0.9846	0.4514	0.6226	-0.098
Mof_O 	O 	0.9679	0.4422	0.6773	-0.075
Mof_N 	N 	0.82858	0.5683	0.5614	-0.278
Mof_C 	C 	0.8119	0.5707	0.4969	0.043
Mof_C 	C 	0.841	0.5723	0.4348	0.006
Mof_H 	H 	0.8774	0.5724	0.4343	0.029
Mof_C 	C 	0.8136	0.5738	0.3759	-0.173
Mof_H 	H 	0.8315	0.5748	0.3331	0.446
Mof_N 	N 	0.837	0.56	0.313	-0.38
Mof_O 	O 	0.8852	0.5708	0.3099	-0.017
Mof_N 	N 	0.9628	0.624	0.5402	-0.275
Mof_C 	C 	0.977	0.6799	0.5255	0.056
Mof_C 	C 	0.9528	0.7139	0.5523	-0.044
Mof_H 	H 	0.923	0.6999	0.5866	0.044
Mof_C 	C 	0.9777	0.7704	0.5227	-0.089
Mof_H 	H 	0.9619	0.7947	0.5358	0.297
Mof_N 	N 	0.9448	0.803	0.5531	-0.227
Mof_O 	O 	0.9721	0.8566	0.5136	-0.034
Mof_Zn	Zn	0.56449	0.66797	0.09613	1.199
Mof_C 	C 	0.6418	0.675	0.212	0.02
Mof_H 	H 	0.6708	0.6742	0.1831	0.029
Mof_N 	N 	0.5933	0.6762	0.1915	-0.274
Mof_O 	O 	0.4919	0.6779	0.1948	-0.161
Mof_C 	C 	0.4414	0.6223	0.0364	0.043
Mof_H 	H 	0.4496	0.6601	0.0209	0.018
Mof_N 	N 	0.4818	0.6046	0.0666	-0.056
Mof_C 	C 	0.4506	0.6015	0.028	-0.124
Mof_H 	H 	0.4243	0.5825	0.9907	0.049
Mof_N 	N 	0.4908	0.5909	0.0917	-0.292
Mof_O 	O 	0.4514	0.4668	0.1226	-0.099
Mof_O 	O 	0.4422	0.4743	0.1773	-0.075
Mof_N 	N 	0.5683	0.73972	0.0614	-0.28
Mof_C 	C 	0.5707	0.7588	0.9969	0.045
Mof_C 	C 	0.5723	0.7313	0.9348	0.006
Mof_H 	H 	0.5724	0.695	0.9343	0.03
Mof_C 	C 	0.5738	0.7602	0.8759	-0.173
Mof_H 	H 	0.5748	0.7433	0.8331	0.446
Mof_N 	N 	0.56	0.723	0.813	-0.38
Mof_O 	O 	0.5708	0.6856	0.8099	-0.017
Mof_N 	N 	0.624	0.6612	0.0402	-0.272
Mof_C 	C 	0.6799	0.7029	0.0255	0.033
Mof_C 	C 	0.7139	0.7611	0.0523	-0.006
Mof_H 	H 	0.6999	0.7769	0.0866	0.032
Mof_C 	C 	0.7704	0.7927	0.0227	-0.155
Mof_H 	H 	0.7947	0.8328	0.0358	0.335
Mof_N 	N 	0.803	0.8582	0.0531	-0.248
Mof_O 	O 	0.8566	0.8845	0.0136	-0.036
Mof_Zn	Zn	0.33203	0.89652	0.09613	1.199
Mof_C 	C 	0.325	0.9668	0.212	0.021
Mof_H 	H 	0.3258	0.9966	0.1831	0.03
Mof_N 	N 	0.3238	0.9171	0.1915	-0.274
Mof_O 	O 	0.3221	0.814	0.1948	-0.161
Mof_C 	C 	0.3777	0.8191	0.0364	0.044
Mof_H 	H 	0.3399	0.7895	0.0209	0.018
Mof_N 	N 	0.3954	0.8772	0.0666	-0.055
Mof_C 	C 	0.3985	0.8491	0.028	-0.125
Mof_H 	H 	0.4175	0.8418	0.9907	0.05
Mof_N 	N 	0.4091	0.8999	0.0917	-0.292
Mof_O 	O 	0.5332	0.9846	0.1226	-0.098
Mof_O 	O 	0.5257	0.9679	0.1773	-0.075
Mof_N 	N 	0.26028	0.82858	0.0614	-0.28
Mof_C 	C 	0.2412	0.8119	0.9969	0.046
Mof_C 	C 	0.2687	0.841	0.9348	0.005
Mof_H 	H 	0.305	0.8774	0.9343	0.031
Mof_C 	C 	0.2398	0.8136	0.8759	-0.171
Mof_H 	H 	0.2567	0.8315	0.8331	0.444
Mof_N 	N 	0.277	0.837	0.813	-0.379
Mof_O 	O 	0.3144	0.8852	0.8099	-0.016
Mof_N 	N 	0.3388	0.9628	0.0402	-0.273
Mof_C 	C 	0.2971	0.977	0.0255	0.047
Mof_C 	C 	0.2389	0.9528	0.0523	-0.03
Mof_H 	H 	0.2231	0.923	0.0866	0.04
Mof_C 	C 	0.2073	0.9777	0.0227	-0.114
Mof_H 	H 	0.1672	0.9619	0.0358	0.311
Mof_N 	N 	0.1418	0.9448	0.0531	-0.235
Mof_O 	O 	0.1155	0.9721	0.0136	-0.035
Mof_Zn	Zn	0.10348	0.43551	0.09613	1.199
Mof_C 	C 	0.0332	0.3582	0.212	0.02
Mof_H 	H 	0.0034	0.3292	0.1831	0.029
Mof_N 	N 	0.0829	0.4067	0.1915	-0.274
Mof_O 	O 	0.186	0.5081	0.1948	-0.161
Mof_C 	C 	0.1809	0.5586	0.0364	0.043
Mof_H 	H 	0.2105	0.5504	0.0209	0.018
Mof_N 	N 	0.1228	0.5182	0.0666	-0.056
Mof_C 	C 	0.1509	0.5494	0.028	-0.124
Mof_H 	H 	0.1582	0.5757	0.9907	0.049
Mof_N 	N 	0.1001	0.5092	0.0917	-0.292
Mof_O 	O 	0.0154	0.5486	0.1226	-0.1
Mof_O 	O 	0.0321	0.5578	0.1773	-0.075
Mof_N 	N 	0.17142	0.4317	0.0614	-0.28
Mof_C 	C 	0.1881	0.4293	0.9969	0.044
Mof_C 	C 	0.159	0.4277	0.9348	0.009
Mof_H 	H 	0.1226	0.4276	0.9343	0.029
Mof_C 	C 	0.1864	0.4262	0.8759	-0.178
Mof_H 	H 	0.1685	0.4252	0.8331	0.449
Mof_N 	N 	0.163	0.44	0.813	-0.382
Mof_O 	O 	0.1148	0.4292	0.8099	-0.017
Mof_N 	N 	0.0372	0.376	0.0402	-0.271
Mof_C 	C 	0.023	0.3201	0.0255	0.025
Mof_C 	C 	0.0472	0.2861	0.0523	0.007
Mof_H 	H 	0.077	0.3001	0.0866	0.027
Mof_C 	C 	0.0223	0.2296	0.0227	-0.177
Mof_H 	H 	0.0381	0.2053	0.0358	0.348
Mof_N 	N 	0.0552	0.197	0.0531	-0.255
Mof_O 	O 	0.0279	0.1434	0.0136	-0.038
Mof_Zn	Zn	0.33203	0.43551	0.40387	1.199
Mof_C 	C 	0.325	0.3582	0.288	0.02
Mof_H 	H 	0.3258	0.3292	0.3169	0.029
Mof_N 	N 	0.3238	0.4067	0.3085	-0.274
Mof_O 	O 	0.3221	0.5081	0.3052	-0.161
Mof_C 	C 	0.3777	0.5586	0.4636	0.052
Mof_H 	H 	0.3399	0.5504	0.4791	0.016
Mof_N 	N 	0.3954	0.5182	0.4334	-0.052
Mof_C 	C 	0.3985	0.5494	0.472	-0.132
Mof_H 	H 	0.4175	0.5757	0.5093	0.049
Mof_N 	N 	0.4091	0.5092	0.4083	-0.294
Mof_O 	O 	0.5332	0.5486	0.3774	-0.099
Mof_O 	O 	0.5257	0.5578	0.3227	-0.075
Mof_N 	N 	0.26028	0.4317	0.4386	-0.278
Mof_C 	C 	0.2412	0.4293	0.5031	0.043
Mof_C 	C 	0.2687	0.4277	0.5652	0.007
Mof_H 	H 	0.305	0.4276	0.5657	0.029
Mof_C 	C 	0.2398	0.4262	0.6241	-0.174
Mof_H 	H 	0.2567	0.4252	0.6669	0.446
Mof_N 	N 	0.277	0.44	0.687	-0.38
Mof_O 	O 	0.3144	0.4292	0.6901	-0.017
Mof_N 	N 	0.3388	0.376	0.4598	-0.275
Mof_C 	C 	0.2971	0.3201	0.4745	0.047
Mof_C 	C 	0.2389	0.2861	0.4477	-0.03
Mof_H 	H 	0.2231	0.3001	0.4134	0.04
Mof_C 	C 	0.2073	0.2296	0.4773	-0.113
Mof_H 	H 	0.1672	0.2053	0.4642	0.311
Mof_N 	N 	0.1418	0.197	0.4469	-0.235
Mof_O 	O 	0.1155	0.1434	0.4864	-0.036
Mof_Zn	Zn	0.10348	0.66797	0.40387	1.199
Mof_C 	C 	0.0332	0.675	0.288	0.02
Mof_H 	H 	0.0034	0.6742	0.3169	0.029
Mof_N 	N 	0.0829	0.6762	0.3085	-0.274
Mof_O 	O 	0.186	0.6779	0.3052	-0.161
Mof_C 	C 	0.1809	0.6223	0.4636	0.052
Mof_H 	H 	0.2105	0.6601	0.4791	0.016
Mof_N 	N 	0.1228	0.6046	0.4334	-0.052
Mof_C 	C 	0.1509	0.6015	0.472	-0.132
Mof_H 	H 	0.1582	0.5825	0.5093	0.049
Mof_N 	N 	0.1001	0.5909	0.4083	-0.294
Mof_O 	O 	0.0154	0.4668	0.3774	-0.099
Mof_O 	O 	0.0321	0.4743	0.3227	-0.075
Mof_N 	N 	0.17142	0.73972	0.4386	-0.278
Mof_C 	C 	0.1881	0.7588	0.5031	0.041
Mof_C 	C 	0.159	0.7313	0.5652	0.01
Mof_H 	H 	0.1226	0.695	0.5657	0.028
Mof_C 	C 	0.1864	0.7602	0.6241	-0.18
Mof_H 	H 	0.1685	0.7433	0.6669	0.45
Mof_N 	N 	0.163	0.723	0.687	-0.383
Mof_O 	O 	0.1148	0.6856	0.6901	-0.017
Mof_N 	N 	0.0372	0.6612	0.4598	-0.273
Mof_C 	C 	0.023	0.7029	0.4745	0.039
Mof_C 	C 	0.0472	0.7611	0.4477	-0.016
Mof_H 	H 	0.077	0.7769	0.4134	0.035
Mof_C 	C 	0.0223	0.7927	0.4773	-0.137
Mof_H 	H 	0.0381	0.8328	0.4642	0.325
Mof_N 	N 	0.0552	0.8582	0.4469	-0.243
Mof_O 	O 	0.0279	0.8845	0.4864	-0.036
Mof_Zn	Zn	0.56449	0.89652	0.40387	1.199
Mof_C 	C 	0.6418	0.9668	0.288	0.02
Mof_H 	H 	0.6708	0.9966	0.3169	0.03
Mof_N 	N 	0.5933	0.9171	0.3085	-0.274
Mof_O 	O 	0.4919	0.814	0.3052	-0.161
Mof_C 	C 	0.4414	0.8191	0.4636	0.053
Mof_H 	H 	0.4496	0.7895	0.4791	0.016
Mof_N 	N 	0.4818	0.8772	0.4334	-0.052
Mof_C 	C 	0.4506	0.8491	0.472	-0.132
Mof_H 	H 	0.4243	0.8418	0.5093	0.05
Mof_N 	N 	0.4908	0.8999	0.4083	-0.295
Mof_O 	O 	0.4514	0.9846	0.3774	-0.097
Mof_O 	O 	0.4422	0.9679	0.3227	-0.075
Mof_N 	N 	0.5683	0.82858	0.4386	-0.278
Mof_C 	C 	0.5707	0.8119	0.5031	0.044
Mof_C 	C 	0.5723	0.841	0.5652	0.005
Mof_H 	H 	0.5724	0.8774	0.5657	0.03
Mof_C 	C 	0.5738	0.8136	0.6241	-0.17
Mof_H 	H 	0.5748	0.8315	0.6669	0.444
Mof_N 	N 	0.56	0.837	0.687	-0.379
Mof_O 	O 	0.5708	0.8852	0.6901	-0.016
Mof_N 	N 	0.624	0.9628	0.4598	-0.276
Mof_C 	C 	0.6799	0.977	0.4745	0.063
Mof_C 	C 	0.7139	0.9528	0.4477	-0.057
Mof_H 	H 	0.6999	0.923	0.4134	0.049
Mof_C 	C 	0.7704	0.9777	0.4773	-0.066
Mof_H 	H 	0.7947	0.9619	0.4642	0.284
Mof_N 	N 	0.803	0.9448	0.4469	-0.219
Mof_O 	O 	0.8566	0.9721	0.4864	-0.033
Mof_Zn	Zn	0.66797	0.56449	0.90387	1.2
Mof_C 	C 	0.675	0.6418	0.788	0.02
Mof_H 	H 	0.6742	0.6708	0.8169	0.029
Mof_N 	N 	0.6762	0.5933	0.8085	-0.274
Mof_O 	O 	0.6779	0.4919	0.8052	-0.162
Mof_C 	C 	0.6223	0.4414	0.9636	0.063
Mof_H 	H 	0.6601	0.4496	0.9791	0.014
Mof_N 	N 	0.6046	0.4818	0.9334	-0.048
Mof_C 	C 	0.6015	0.4506	0.972	-0.141
Mof_H 	H 	0.5825	0.4243	0.0093	0.049
Mof_N 	N 	0.5909	0.4908	0.9083	-0.298
Mof_O 	O 	0.4668	0.4514	0.8774	-0.098
Mof_O 	O 	0.4743	0.4422	0.8227	-0.075
Mof_N 	N 	0.73972	0.5683	0.9386	-0.277
Mof_C 	C 	0.7588	0.5707	0.0031	0.04
Mof_C 	C 	0.7313	0.5723	0.0652	0.008
Mof_H 	H 	0.695	0.5724	0.0657	0.028
Mof_C 	C 	0.7602	0.5738	0.1241	-0.175
Mof_H 	H 	0.7433	0.5748	0.1669	0.447
Mof_N 	N 	0.723	0.56	0.187	-0.381
Mof_O 	O 	0.6856	0.5708	0.1901	-0.017
Mof_N 	N 	0.6612	0.624	0.9598	-0.275
Mof_C 	C 	0.7029	0.6799	0.9745	0.062
Mof_C 	C 	0.7611	0.7139	0.9477	-0.054
Mof_H 	H 	0.7769	0.6999	0.9134	0.048
Mof_C 	C 	0.7927	0.7704	0.9773	-0.071
Mof_H 	H 	0.8328	0.7947	0.9642	0.287
Mof_N 	N 	0.8582	0.803	0.9469	-0.221
Mof_O 	O 	0.8845	0.8566	0.9864	-0.034
Mof_Zn	Zn	0.89652	0.33203	0.90387	1.2
Mof_C 	C 	0.9668	0.325	0.788	0.02
Mof_H 	H 	0.9966	0.3258	0.8169	0.03
Mof_N 	N 	0.9171	0.3238	0.8085	-0.274
Mof_O 	O 	0.814	0.3221	0.8052	-0.162
Mof_C 	C 	0.8191	0.3777	0.9636	0.063
Mof_H 	H 	0.7895	0.3399	0.9791	0.013
Mof_N 	N 	0.8772	0.3954	0.9334	-0.048
Mof_C 	C 	0.8491	0.3985	0.972	-0.141
Mof_H 	H 	0.8418	0.4175	0.0093	0.049
Mof_N 	N 	0.8999	0.4091	0.9083	-0.298
Mof_O 	O 	0.9846	0.5332	0.8774	-0.097
Mof_O 	O 	0.9679	0.5257	0.8227	-0.075
Mof_N 	N 	0.82858	0.26028	0.9386	-0.277
Mof_C 	C 	0.8119	0.2412	0.0031	0.041
Mof_C 	C 	0.841	0.2687	0.0652	0.004
Mof_H 	H 	0.8774	0.305	0.0657	0.03
Mof_C 	C 	0.8136	0.2398	0.1241	-0.168
Mof_H 	H 	0.8315	0.2567	0.1669	0.442
Mof_N 	N 	0.837	0.277	0.187	-0.377
Mof_O 	O 	0.8852	0.3144	0.1901	-0.017
Mof_N 	N 	0.9628	0.3388	0.9598	-0.275
Mof_C 	C 	0.977	0.2971	0.9745	0.069
Mof_C 	C 	0.9528	0.2389	0.9477	-0.066
Mof_H 	H 	0.923	0.2231	0.9134	0.052
Mof_C 	C 	0.9777	0.2073	0.9773	-0.05
Mof_H 	H 	0.9619	0.1672	0.9642	0.274
Mof_N 	N 	0.9448	0.1418	0.9469	-0.214
Mof_O 	O 	0.9721	0.1155	0.9864	-0.033
Mof_Zn	Zn	0.43551	0.10348	0.90387	1.2
Mof_C 	C 	0.3582	0.0332	0.788	0.02
Mof_H 	H 	0.3292	0.0034	0.8169	0.029
Mof_N 	N 	0.4067	0.0829	0.8085	-0.274
Mof_O 	O 	0.5081	0.186	0.8052	-0.162
Mof_C 	C 	0.5586	0.1809	0.9636	0.063
Mof_H 	H 	0.5504	0.2105	0.9791	0.014
Mof_N 	N 	0.5182	0.1228	0.9334	-0.048
Mof_C 	C 	0.5494	0.1509	0.972	-0.141
Mof_H 	H 	0.5757	0.1582	0.0093	0.049
Mof_N 	N 	0.5092	0.1001	0.9083	-0.298
Mof_O 	O 	0.5486	0.0154	0.8774	-0.098
Mof_O 	O 	0.5578	0.0321	0.8227	-0.075
Mof_N 	N 	0.4317	0.17142	0.9386	-0.276
Mof_C 	C 	0.4293	0.1881	0.0031	0.037
Mof_C 	C 	0.4277	0.159	0.0652	0.012
Mof_H 	H 	0.4276	0.1226	0.0657	0.026
Mof_C 	C 	0.4262	0.1864	0.1241	-0.182
Mof_H 	H 	0.4252	0.1685	0.1669	0.451
Mof_N 	N 	0.44	0.163	0.187	-0.384
Mof_O 	O 	0.4292	0.1148	0.1901	-0.018
Mof_N 	N 	0.376	0.0372	0.9598	-0.272
Mof_C 	C 	0.3201	0.023	0.9745	0.048
Mof_C 	C 	0.2861	0.0472	0.9477	-0.03
Mof_H 	H 	0.3001	0.077	0.9134	0.04
Mof_C 	C 	0.2296	0.0223	0.9773	-0.112
Mof_H 	H 	0.2053	0.0381	0.9642	0.311
Mof_N 	N 	0.197	0.0552	0.9469	-0.235
Mof_O 	O 	0.1434	0.0279	0.9864	-0.036
Mof_Zn	Zn	0.56449	0.66797	0.40387	1.199
Mof_C 	C 	0.6418	0.675	0.288	0.02
Mof_H 	H 	0.6708	0.6742	0.3169	0.029
Mof_N 	N 	0.5933	0.6762	0.3085	-0.274
Mof_O 	O 	0.4919	0.6779	0.3052	-0.161
Mof_C 	C 	0.4414	0.6223	0.4636	0.052
Mof_H 	H 	0.4496	0.6601	0.4791	0.016
Mof_N 	N 	0.4818	0.6046	0.4334	-0.052
Mof_C 	C 	0.4506	0.6015	0.472	-0.132
Mof_H 	H 	0.4243	0.5825	0.5093	0.049
Mof_N 	N 	0.4908	0.5909	0.4083	-0.294
Mof_O 	O 	0.4514	0.4668	0.3774	-0.099
Mof_O 	O 	0.4422	0.4743	0.3227	-0.075
Mof_N 	N 	0.5683	0.73972	0.4386	-0.278
Mof_C 	C 	0.5707	0.7588	0.5031	0.041
Mof_C 	C 	0.5723	0.7313	0.5652	0.01
Mof_H 	H 	0.5724	0.695	0.5657	0.028
Mof_C 	C 	0.5738	0.7602	0.6241	-0.179
Mof_H 	H 	0.5748	0.7433	0.6669	0.45
Mof_N 	N 	0.56	0.723	0.687	-0.383
Mof_O 	O 	0.5708	0.6856	0.6901	-0.016
Mof_N 	N 	0.624	0.6612	0.4598	-0.275
Mof_C 	C 	0.6799	0.7029	0.4745	0.047
Mof_C 	C 	0.7139	0.7611	0.4477	-0.03
Mof_H 	H 	0.6999	0.7769	0.4134	0.04
Mof_C 	C 	0.7704	0.7927	0.4773	-0.113
Mof_H 	H 	0.7947	0.8328	0.4642	0.311
Mof_N 	N 	0.803	0.8582	0.4469	-0.235
Mof_O 	O 	0.8566	0.8845	0.4864	-0.035
Mof_Zn	Zn	0.33203	0.89652	0.40387	1.199
Mof_C 	C 	0.325	0.9668	0.288	0.02
Mof_H 	H 	0.3258	0.9966	0.3169	0.03
Mof_N 	N 	0.3238	0.9171	0.3085	-0.274
Mof_O 	O 	0.3221	0.814	0.3052	-0.161
Mof_C 	C 	0.3777	0.8191	0.4636	0.053
Mof_H 	H 	0.3399	0.7895	0.4791	0.016
Mof_N 	N 	0.3954	0.8772	0.4334	-0.052
Mof_C 	C 	0.3985	0.8491	0.472	-0.132
Mof_H 	H 	0.4175	0.8418	0.5093	0.05
Mof_N 	N 	0.4091	0.8999	0.4083	-0.295
Mof_O 	O 	0.5332	0.9846	0.3774	-0.097
Mof_O 	O 	0.5257	0.9679	0.3227	-0.075
Mof_N 	N 	0.26028	0.82858	0.4386	-0.278
Mof_C 	C 	0.2412	0.8119	0.5031	0.044
Mof_C 	C 	0.2687	0.841	0.5652	0.004
Mof_H 	H 	0.305	0.8774	0.5657	0.03
Mof_C 	C 	0.2398	0.8136	0.6241	-0.169
Mof_H 	H 	0.2567	0.8315	0.6669	0.443
Mof_N 	N 	0.277	0.837	0.687	-0.378
Mof_O 	O 	0.3144	0.8852	0.6901	-0.016
Mof_N 	N 	0.3388	0.9628	0.4598	-0.275
Mof_C 	C 	0.2971	0.977	0.4745	0.062
Mof_C 	C 	0.2389	0.9528	0.4477	-0.054
Mof_H 	H 	0.2231	0.923	0.4134	0.048
Mof_C 	C 	0.2073	0.9777	0.4773	-0.072
Mof_H 	H 	0.1672	0.9619	0.4642	0.287
Mof_N 	N 	0.1418	0.9448	0.4469	-0.221
Mof_O 	O 	0.1155	0.9721	0.4864	-0.034
Mof_Zn	Zn	0.10348	0.43551	0.40387	1.199
Mof_C 	C 	0.0332	0.3582	0.288	0.02
Mof_H 	H 	0.0034	0.3292	0.3169	0.029
Mof_N 	N 	0.0829	0.4067	0.3085	-0.274
Mof_O 	O 	0.186	0.5081	0.3052	-0.161
Mof_C 	C 	0.1809	0.5586	0.4636	0.052
Mof_H 	H 	0.2105	0.5504	0.4791	0.016
Mof_N 	N 	0.1228	0.5182	0.4334	-0.052
Mof_C 	C 	0.1509	0.5494	0.472	-0.132
Mof_H 	H 	0.1582	0.5757	0.5093	0.049
Mof_N 	N 	0.1001	0.5092	0.4083	-0.294
Mof_O 	O 	0.0154	0.5486	0.3774	-0.099
Mof_O 	O 	0.0321	0.5578	0.3227	-0.075
Mof_N 	N 	0.17142	0.4317	0.4386	-0.278
Mof_C 	C 	0.1881	0.4293	0.5031	0.042
Mof_C 	C 	0.159	0.4277	0.5652	0.008
Mof_H 	H 	0.1226	0.4276	0.5657	0.029
Mof_C 	C 	0.1864	0.4262	0.6241	-0.175
Mof_H 	H 	0.1685	0.4252	0.6669	0.447
Mof_N 	N 	0.163	0.44	0.687	-0.381
Mof_O 	O 	0.1148	0.4292	0.6901	-0.017
Mof_N 	N 	0.0372	0.376	0.4598	-0.274
Mof_C 	C 	0.023	0.3201	0.4745	0.041
Mof_C 	C 	0.0472	0.2861	0.4477	-0.019
Mof_H 	H 	0.077	0.3001	0.4134	0.036
Mof_C 	C 	0.0223	0.2296	0.4773	-0.132
Mof_H 	H 	0.0381	0.2053	0.4642	0.322
Mof_N 	N 	0.0552	0.197	0.4469	-0.241
Mof_O 	O 	0.0279	0.1434	0.4864	-0.037
Mof_Zn	Zn	0.43551	0.33203	0.90387	1.2
Mof_C 	C 	0.3582	0.325	0.788	0.02
Mof_H 	H 	0.3292	0.3258	0.8169	0.029
Mof_N 	N 	0.4067	0.3238	0.8085	-0.274
Mof_O 	O 	0.5081	0.3221	0.8052	-0.162
Mof_C 	C 	0.5586	0.3777	0.9636	0.063
Mof_H 	H 	0.5504	0.3399	0.9791	0.014
Mof_N 	N 	0.5182	0.3954	0.9334	-0.048
Mof_C 	C 	0.5494	0.3985	0.972	-0.141
Mof_H 	H 	0.5757	0.4175	0.0093	0.049
Mof_N 	N 	0.5092	0.4091	0.9083	-0.298
Mof_O 	O 	0.5486	0.5332	0.8774	-0.098
Mof_O 	O 	0.5578	0.5257	0.8227	-0.075
Mof_N 	N 	0.4317	0.26028	0.9386	-0.277
Mof_C 	C 	0.4293	0.2412	0.0031	0.042
Mof_C 	C 	0.4277	0.2687	0.0652	0.004
Mof_H 	H 	0.4276	0.305	0.0657	0.029
Mof_C 	C 	0.4262	0.2398	0.1241	-0.168
Mof_H 	H 	0.4252	0.2567	0.1669	0.442
Mof_N 	N 	0.44	0.277	0.187	-0.377
Mof_O 	O 	0.4292	0.3144	0.1901	-0.018
Mof_N 	N 	0.376	0.3388	0.9598	-0.275
Mof_C 	C 	0.3201	0.2971	0.9745	0.063
Mof_C 	C 	0.2861	0.2389	0.9477	-0.055
Mof_H 	H 	0.3001	0.2231	0.9134	0.048
Mof_C 	C 	0.2296	0.2073	0.9773	-0.068
Mof_H 	H 	0.2053	0.1672	0.9642	0.285
Mof_N 	N 	0.197	0.1418	0.9469	-0.22
Mof_O 	O 	0.1434	0.1155	0.9864	-0.034
Mof_Zn	Zn	0.66797	0.10348	0.90387	1.2
Mof_C 	C 	0.675	0.0332	0.788	0.02
Mof_H 	H 	0.6742	0.0034	0.8169	0.029
Mof_N 	N 	0.6762	0.0829	0.8085	-0.274
Mof_O 	O 	0.6779	0.186	0.8052	-0.162
Mof_C 	C 	0.6223	0.1809	0.9636	0.063
Mof_H 	H 	0.6601	0.2105	0.9791	0.014
Mof_N 	N 	0.6046	0.1228	0.9334	-0.048
Mof_C 	C 	0.6015	0.1509	0.972	-0.141
Mof_H 	H 	0.5825	0.1582	0.0093	0.049
Mof_N 	N 	0.5909	0.1001	0.9083	-0.298
Mof_O 	O 	0.4668	0.0154	0.8774	-0.098
Mof_O 	O 	0.4743	0.0321	0.8227	-0.075
Mof_N 	N 	0.73972	0.17142	0.9386	-0.276
Mof_C 	C 	0.7588	0.1881	0.0031	0.037
Mof_C 	C 	0.7313	0.159	0.0652	0.012
Mof_H 	H 	0.695	0.1226	0.0657	0.026
Mof_C 	C 	0.7602	0.1864	0.1241	-0.182
Mof_H 	H 	0.7433	0.1685	0.1669	0.451
Mof_N 	N 	0.723	0.163	0.187	-0.384
Mof_O 	O 	0.6856	0.1148	0.1901	-0.018
Mof_N 	N 	0.6612	0.0372	0.9598	-0.272
Mof_C 	C 	0.7029	0.023	0.9745	0.047
Mof_C 	C 	0.7611	0.0472	0.9477	-0.028
Mof_H 	H 	0.7769	0.077	0.9134	0.039
Mof_C 	C 	0.7927	0.0223	0.9773	-0.116
Mof_H 	H 	0.8328	0.0381	0.9642	0.313
Mof_N 	N 	0.8582	0.0552	0.9469	-0.236
Mof_O 	O 	0.8845	0.0279	0.9864	-0.036
Mof_Zn	Zn	0.89652	0.56449	0.90387	1.2
Mof_C 	C 	0.9668	0.6418	0.788	0.02
Mof_H 	H 	0.9966	0.6708	0.8169	0.03
Mof_N 	N 	0.9171	0.5933	0.8085	-0.274
Mof_O 	O 	0.814	0.4919	0.8052	-0.162
Mof_C 	C 	0.8191	0.4414	0.9636	0.063
Mof_H 	H 	0.7895	0.4496	0.9791	0.013
Mof_N 	N 	0.8772	0.4818	0.9334	-0.048
Mof_C 	C 	0.8491	0.4506	0.972	-0.141
Mof_H 	H 	0.8418	0.4243	0.0093	0.049
Mof_N 	N 	0.8999	0.4908	0.9083	-0.298
Mof_O 	O 	0.9846	0.4514	0.8774	-0.097
Mof_O 	O 	0.9679	0.4422	0.8227	-0.075
Mof_N 	N 	0.82858	0.5683	0.9386	-0.276
Mof_C 	C 	0.8119	0.5707	0.0031	0.04
Mof_C 	C 	0.841	0.5723	0.0652	0.008
Mof_H 	H 	0.8774	0.5724	0.0657	0.028
Mof_C 	C 	0.8136	0.5738	0.1241	-0.175
Mof_H 	H 	0.8315	0.5748	0.1669	0.447
Mof_N 	N 	0.837	0.56	0.187	-0.381
Mof_O 	O 	0.8852	0.5708	0.1901	-0.016
Mof_N 	N 	0.9628	0.624	0.9598	-0.276
Mof_C 	C 	0.977	0.6799	0.9745	0.07
Mof_C 	C 	0.9528	0.7139	0.9477	-0.067
Mof_H 	H 	0.923	0.6999	0.9134	0.052
Mof_C 	C 	0.9777	0.7704	0.9773	-0.049
Mof_H 	H 	0.9619	0.7947	0.9642	0.274
Mof_N 	N 	0.9448	0.803	0.9469	-0.214
Mof_O 	O 	0.9721	0.8566	0.9864	-0.033
Mof_Zn	Zn	0.66797	0.56449	0.59613	1.199
Mof_C 	C 	0.675	0.6418	0.712	0.02
Mof_H 	H 	0.6742	0.6708	0.6831	0.029
Mof_N 	N 	0.6762	0.5933	0.6915	-0.274
Mof_O 	O 	0.6779	0.4919	0.6948	-0.162
Mof_C 	C 	0.6223	0.4414	0.5364	0.052
Mof_H 	H 	0.6601	0.4496	0.5209	0.016
Mof_N 	N 	0.6046	0.4818	0.5666	-0.052
Mof_C 	C 	0.6015	0.4506	0.528	-0.132
Mof_H 	H 	0.5825	0.4243	0.4907	0.049
Mof_N 	N 	0.5909	0.4908	0.5917	-0.294
Mof_O 	O 	0.4668	0.4514	0.6226	-0.099
Mof_O 	O 	0.4743	0.4422	0.6773	-0.075
Mof_N 	N 	0.73972	0.5683	0.5614	-0.278
Mof_C 	C 	0.7588	0.5707	0.4969	0.042
Mof_C 	C 	0.7313	0.5723	0.4348	0.009
Mof_H 	H 	0.695	0.5724	0.4343	0.028
Mof_C 	C 	0.7602	0.5738	0.3759	-0.176
Mof_H 	H 	0.7433	0.5748	0.3331	0.448
Mof_N 	N 	0.723	0.56	0.313	-0.381
Mof_O 	O 	0.6856	0.5708	0.3099	-0.017
Mof_N 	N 	0.6612	0.624	0.5402	-0.275
Mof_C 	C 	0.7029	0.6799	0.5255	0.047
Mof_C 	C 	0.7611	0.7139	0.5523	-0.03
Mof_H 	H 	0.7769	0.6999	0.5866	0.04
Mof_C 	C 	0.7927	0.7704	0.5227	-0.113
Mof_H 	H 	0.8328	0.7947	0.5358	0.311
Mof_N 	N 	0.8582	0.803	0.5531	-0.235
Mof_O 	O 	0.8845	0.8566	0.5136	-0.035
Mof_Zn	Zn	0.89652	0.33203	0.59613	1.199
Mof_C 	C 	0.9668	0.325	0.712	0.02
Mof_H 	H 	0.9966	0.3258	0.6831	0.03
Mof_N 	N 	0.9171	0.3238	0.6915	-0.274
Mof_O 	O 	0.814	0.3221	0.6948	-0.162
Mof_C 	C 	0.8191	0.3777	0.5364	0.053
Mof_H 	H 	0.7895	0.3399	0.5209	0.016
Mof_N 	N 	0.8772	0.3954	0.5666	-0.052
Mof_C 	C 	0.8491	0.3985	0.528	-0.132
Mof_H 	H 	0.8418	0.4175	0.4907	0.049
Mof_N 	N 	0.8999	0.4091	0.5917	-0.295
Mof_O 	O 	0.9846	0.5332	0.6226	-0.098
Mof_O 	O 	0.9679	0.5257	0.6773	-0.075
Mof_N 	N 	0.82858	0.26028	0.5614	-0.278
Mof_C 	C 	0.8119	0.2412	0.4969	0.044
Mof_C 	C 	0.841	0.2687	0.4348	0.004
Mof_H 	H 	0.8774	0.305	0.4343	0.03
Mof_C 	C 	0.8136	0.2398	0.3759	-0.169
Mof_H 	H 	0.8315	0.2567	0.3331	0.443
Mof_N 	N 	0.837	0.277	0.313	-0.378
Mof_O 	O 	0.8852	0.3144	0.3099	-0.017
Mof_N 	N 	0.9628	0.3388	0.5402	-0.275
Mof_C 	C 	0.977	0.2971	0.5255	0.054
Mof_C 	C 	0.9528	0.2389	0.5523	-0.041
Mof_H 	H 	0.923	0.2231	0.5866	0.043
Mof_C 	C 	0.9777	0.2073	0.5227	-0.094
Mof_H 	H 	0.9619	0.1672	0.5358	0.3
Mof_N 	N 	0.9448	0.1418	0.5531	-0.229
Mof_O 	O 	0.9721	0.1155	0.5136	-0.035
Mof_Zn	Zn	0.43551	0.10348	0.59613	1.199
Mof_C 	C 	0.3582	0.0332	0.712	0.02
Mof_H 	H 	0.3292	0.0034	0.6831	0.029
Mof_N 	N 	0.4067	0.0829	0.6915	-0.274
Mof_O 	O 	0.5081	0.186	0.6948	-0.161
Mof_C 	C 	0.5586	0.1809	0.5364	0.052
Mof_H 	H 	0.5504	0.2105	0.5209	0.016
Mof_N 	N 	0.5182	0.1228	0.5666	-0.052
Mof_C 	C 	0.5494	0.1509	0.528	-0.131
Mof_H 	H 	0.5757	0.1582	0.4907	0.049
Mof_N 	N 	0.5092	0.1001	0.5917	-0.294
Mof_O 	O 	0.5486	0.0154	0.6226	-0.1
Mof_O 	O 	0.5578	0.0321	0.6773	-0.075
Mof_N 	N 	0.4317	0.17142	0.5614	-0.278
Mof_C 	C 	0.4293	0.1881	0.4969	0.041
Mof_C 	C 	0.4277	0.159	0.4348	0.009
Mof_H 	H 	0.4276	0.1226	0.4343	0.028
Mof_C 	C 	0.4262	0.1864	0.3759	-0.178
Mof_H 	H 	0.4252	0.1685	0.3331	0.449
Mof_N 	N 	0.44	0.163	0.313	-0.382
Mof_O 	O 	0.4292	0.1148	0.3099	-0.018
Mof_N 	N 	0.376	0.0372	0.5402	-0.272
Mof_C 	C 	0.3201	0.023	0.5255	0.033
Mof_C 	C 	0.2861	0.0472	0.5523	-0.006
Mof_H 	H 	0.3001	0.077	0.5866	0.032
Mof_C 	C 	0.2296	0.0223	0.5227	-0.155
Mof_H 	H 	0.2053	0.0381	0.5358	0.335
Mof_N 	N 	0.197	0.0552	0.5531	-0.248
Mof_O 	O 	0.1434	0.0279	0.5136	-0.037
Mof_Zn	Zn	0.33203	0.43551	0.09613	1.199
Mof_C 	C 	0.325	0.3582	0.212	0.02
Mof_H 	H 	0.3258	0.3292	0.1831	0.029
Mof_N 	N 	0.3238	0.4067	0.1915	-0.274
Mof_O 	O 	0.3221	0.5081	0.1948	-0.161
Mof_C 	C 	0.3777	0.5586	0.0364	0.043
Mof_H 	H 	0.3399	0.5504	0.0209	0.018
Mof_N 	N 	0.3954	0.5182	0.0666	-0.056
Mof_C 	C 	0.3985	0.5494	0.028	-0.124
Mof_H 	H 	0.4175	0.5757	0.9907	0.049
Mof_N 	N 	0.4091	0.5092	0.0917	-0.292
Mof_O 	O 	0.5332	0.5486	0.1226	-0.099
Mof_O 	O 	0.5257	0.5578	0.1773	-0.075
Mof_N 	N 	0.26028	0.4317	0.0614	-0.28
Mof_C 	C 	0.2412	0.4293	0.9969	0.047
Mof_C 	C 	0.2687	0.4277	0.9348	0.004
Mof_H 	H 	0.305	0.4276	0.9343	0.031
Mof_C 	C 	0.2398	0.4262	0.8759	-0.17
Mof_H 	H 	0.2567	0.4252	0.8331	0.444
Mof_N 	N 	0.277	0.44	0.813	-0.378
Mof_O 	O 	0.3144	0.4292	0.8099	-0.017
Mof_N 	N 	0.3388	0.376	0.0402	-0.272
Mof_C 	C 	0.2971	0.3201	0.0255	0.032
Mof_C 	C 	0.2389	0.2861	0.0523	-0.004
Mof_H 	H 	0.2231	0.3001	0.0866	0.031
Mof_C 	C 	0.2073	0.2296	0.0227	-0.158
Mof_H 	H 	0.1672	0.2053	0.0358	0.337
Mof_N 	N 	0.1418	0.197	0.0531	-0.249
Mof_O 	O 	0.1155	0.1434	0.0136	-0.037
Mof_Zn	Zn	0.10348	0.66797	0.09613	1.199
Mof_C 	C 	0.0332	0.675	0.212	0.02
Mof_H 	H 	0.0034	0.6742	0.1831	0.029
Mof_N 	N 	0.0829	0.6762	0.1915	-0.274
Mof_O 	O 	0.186	0.6779	0.1948	-0.161
Mof_C 	C 	0.1809	0.6223	0.0364	0.043
Mof_H 	H 	0.2105	0.6601	0.0209	0.018
Mof_N 	N 	0.1228	0.6046	0.0666	-0.056
Mof_C 	C 	0.1509	0.6015	0.028	-0.124
Mof_H 	H 	0.1582	0.5825	0.9907	0.049
Mof_N 	N 	0.1001	0.5909	0.0917	-0.292
Mof_O 	O 	0.0154	0.4668	0.1226	-0.1
Mof_O 	O 	0.0321	0.4743	0.1773	-0.075
Mof_N 	N 	0.17142	0.73972	0.0614	-0.279
Mof_C 	C 	0.1881	0.7588	0.9969	0.044
Mof_C 	C 	0.159	0.7313	0.9348	0.009
Mof_H 	H 	0.1226	0.695	0.9343	0.029
Mof_C 	C 	0.1864	0.7602	0.8759	-0.177
Mof_H 	H 	0.1685	0.7433	0.8331	0.449
Mof_N 	N 	0.163	0.723	0.813	-0.382
Mof_O 	O 	0.1148	0.6856	0.8099	-0.017
Mof_N 	N 	0.0372	0.6612	0.0402	-0.271
Mof_C 	C 	0.023	0.7029	0.0255	0.025
Mof_C 	C 	0.0472	0.7611	0.0523	0.007
Mof_H 	H 	0.077	0.7769	0.0866	0.027
Mof_C 	C 	0.0223	0.7927	0.0227	-0.177
Mof_H 	H 	0.0381	0.8328	0.0358	0.348
Mof_N 	N 	0.0552	0.8582	0.0531	-0.256
Mof_O 	O 	0.0279	0.8845	0.0136	-0.038
Mof_Zn	Zn	0.56449	0.89652	0.09613	1.199
Mof_C 	C 	0.6418	0.9668	0.212	0.021
Mof_H 	H 	0.6708	0.9966	0.1831	0.03
Mof_N 	N 	0.5933	0.9171	0.1915	-0.274
Mof_O 	O 	0.4919	0.814	0.1948	-0.161
Mof_C 	C 	0.4414	0.8191	0.0364	0.044
Mof_H 	H 	0.4496	0.7895	0.0209	0.018
Mof_N 	N 	0.4818	0.8772	0.0666	-0.055
Mof_C 	C 	0.4506	0.8491	0.028	-0.125
Mof_H 	H 	0.4243	0.8418	0.9907	0.05
Mof_N 	N 	0.4908	0.8999	0.0917	-0.292
Mof_O 	O 	0.4514	0.9846	0.1226	-0.098
Mof_O 	O 	0.4422	0.9679	0.1773	-0.075
Mof_N 	N 	0.5683	0.82858	0.0614	-0.28
Mof_C 	C 	0.5707	0.8119	0.9969	0.045
Mof_C 	C 	0.5723	0.841	0.9348	0.007
Mof_H 	H 	0.5724	0.8774	0.9343	0.03
Mof_C 	C 	0.5738	0.8136	0.8759	-0.175
Mof_H 	H 	0.5748	0.8315	0.8331	0.447
Mof_N 	N 	0.56	0.837	0.813	-0.381
Mof_O 	O 	0.5708	0.8852	0.8099	-0.016
Mof_N 	N 	0.624	0.9628	0.0402	-0.273
Mof_C 	C 	0.6799	0.977	0.0255	0.048
Mof_C 	C 	0.7139	0.9528	0.0523	-0.031
Mof_H 	H 	0.6999	0.923	0.0866	0.04
Mof_C 	C 	0.7704	0.9777	0.0227	-0.11
Mof_H 	H 	0.7947	0.9619	0.0358	0.309
Mof_N 	N 	0.803	0.9448	0.0531	-0.234
Mof_O 	O 	0.8566	0.9721	0.0136	-0.035
Mof_C 	C 	0.4306	0.3222	0.75	0.176
Mof_N 	N 	0.4861	0.3227	0.75	-0.024
Mof_C 	C 	0.6778	0.1084	0.75	0.176
Mof_N 	N 	0.6773	0.1634	0.75	-0.024
Mof_C 	C 	0.8916	0.5694	0.75	0.176
Mof_N 	N 	0.8366	0.5139	0.75	-0.024
Mof_C 	C 	0.5694	0.6778	0.25	0.176
Mof_N 	N 	0.5139	0.6773	0.25	-0.025
Mof_C 	C 	0.3222	0.8916	0.25	0.176
Mof_N 	N 	0.3227	0.8366	0.25	-0.025
Mof_C 	C 	0.1084	0.4306	0.25	0.176
Mof_N 	N 	0.1634	0.4861	0.25	-0.025
Mof_C 	C 	0.3222	0.4306	0.25	0.176
Mof_N 	N 	0.3227	0.4861	0.25	-0.025
Mof_C 	C 	0.1084	0.6778	0.25	0.176
Mof_N 	N 	0.1634	0.6773	0.25	-0.025
Mof_C 	C 	0.5694	0.8916	0.25	0.176
Mof_N 	N 	0.5139	0.8366	0.25	-0.025
Mof_C 	C 	0.6778	0.5694	0.75	0.176
Mof_N 	N 	0.6773	0.5139	0.75	-0.024
Mof_C 	C 	0.8916	0.3222	0.75	0.176
Mof_N 	N 	0.8366	0.3227	0.75	-0.024
Mof_C 	C 	0.4306	0.1084	0.75	0.176
Mof_N 	N 	0.4861	0.1634	0.75	-0.024
Mof_C 	C 	0.5519	0.4481	0.5755	0.178
Mof_C 	C 	0.5448	0.4552	0.602	0.239
Mof_N 	N 	0.525	0.475	0.658	0.013
Mof_N 	N 	0.5189	0.4811	0.611	-0.058
Mof_C 	C 	0.5519	0.1038	0.5755	0.178
Mof_C 	C 	0.5448	0.0896	0.602	0.238
Mof_N 	N 	0.525	0.05	0.658	0.013
Mof_N 	N 	0.5189	0.0378	0.611	-0.058
Mof_C 	C 	0.8962	0.4481	0.5755	0.178
Mof_C 	C 	0.9104	0.4552	0.602	0.239
Mof_N 	N 	0.95	0.475	0.658	0.013
Mof_N 	N 	0.9622	0.4811	0.611	-0.058
Mof_C 	C 	0.4481	0.5519	0.0755	0.179
Mof_C 	C 	0.4552	0.5448	0.102	0.235
Mof_N 	N 	0.475	0.525	0.158	0.014
Mof_N 	N 	0.4811	0.5189	0.111	-0.057
Mof_C 	C 	0.4481	0.8962	0.0755	0.179
Mof_C 	C 	0.4552	0.9104	0.102	0.236
Mof_N 	N 	0.475	0.95	0.158	0.013
Mof_N 	N 	0.4811	0.9622	0.111	-0.058
Mof_C 	C 	0.1038	0.5519	0.0755	0.179
Mof_C 	C 	0.0896	0.5448	0.102	0.235
Mof_N 	N 	0.05	0.525	0.158	0.014
Mof_N 	N 	0.0378	0.5189	0.111	-0.057
Mof_C 	C 	0.4481	0.5519	0.4245	0.178
Mof_C 	C 	0.4552	0.5448	0.398	0.239
Mof_N 	N 	0.475	0.525	0.342	0.013
Mof_N 	N 	0.4811	0.5189	0.389	-0.058
Mof_C 	C 	0.1038	0.5519	0.4245	0.178
Mof_C 	C 	0.0896	0.5448	0.398	0.238
Mof_N 	N 	0.05	0.525	0.342	0.013
Mof_N 	N 	0.0378	0.5189	0.389	-0.058
Mof_C 	C 	0.4481	0.8962	0.4245	0.178
Mof_C 	C 	0.4552	0.9104	0.398	0.239
Mof_N 	N 	0.475	0.95	0.342	0.013
Mof_N 	N 	0.4811	0.9622	0.389	-0.058
Mof_C 	C 	0.5519	0.4481	0.9245	0.177
Mof_C 	C 	0.5448	0.4552	0.898	0.243
Mof_N 	N 	0.525	0.475	0.842	0.013
Mof_N 	N 	0.5189	0.4811	0.889	-0.059
Mof_C 	C 	0.8962	0.4481	0.9245	0.177
Mof_C 	C 	0.9104	0.4552	0.898	0.244
Mof_N 	N 	0.95	0.475	0.842	0.013
Mof_N 	N 	0.9622	0.4811	0.889	-0.059
Mof_C 	C 	0.5519	0.1038	0.9245	0.177
Mof_C 	C 	0.5448	0.0896	0.898	0.243
Mof_N 	N 	0.525	0.05	0.842	0.013
Mof_N 	N 	0.5189	0.0378	0.889	-0.059
Mof_C 	C 	0.4329	0.21645	0.6007	0.07
Mof_H 	H 	0.4343	0.21715	0.6494	-0.003
Mof_O 	O 	0.2237	0.11185	0.591	-0.032
Mof_C 	C 	0.78355	0.21645	0.6007	0.07
Mof_H 	H 	0.78285	0.21715	0.6494	-0.003
Mof_O 	O 	0.88815	0.11185	0.591	-0.032
Mof_C 	C 	0.78355	0.5671	0.6007	0.07
Mof_H 	H 	0.78285	0.5657	0.6494	-0.003
Mof_O 	O 	0.88815	0.7763	0.591	-0.035
Mof_C 	C 	0.5671	0.78355	0.1007	0.07
Mof_H 	H 	0.5657	0.78285	0.1494	-0.003
Mof_O 	O 	0.7763	0.88815	0.091	-0.031
Mof_C 	C 	0.21645	0.78355	0.1007	0.07
Mof_H 	H 	0.21715	0.78285	0.1494	-0.003
Mof_O 	O 	0.11185	0.88815	0.091	-0.03
Mof_C 	C 	0.21645	0.4329	0.1007	0.07
Mof_H 	H 	0.21715	0.4343	0.1494	-0.003
Mof_O 	O 	0.11185	0.2237	0.091	-0.028
Mof_C 	C 	0.21645	0.4329	0.3993	0.07
Mof_H 	H 	0.21715	0.4343	0.3506	-0.003
Mof_O 	O 	0.11185	0.2237	0.409	-0.033
Mof_C 	C 	0.21645	0.78355	0.3993	0.07
Mof_H 	H 	0.21715	0.78285	0.3506	-0.003
Mof_O 	O 	0.11185	0.88815	0.409	-0.035
Mof_C 	C 	0.5671	0.78355	0.3993	0.07
Mof_H 	H 	0.5657	0.78285	0.3506	-0.003
Mof_O 	O 	0.7763	0.88815	0.409	-0.036
Mof_C 	C 	0.78355	0.5671	0.8993	0.07
Mof_H 	H 	0.78285	0.5657	0.8506	-0.003
Mof_O 	O 	0.88815	0.7763	0.909	-0.039
Mof_C 	C 	0.78355	0.21645	0.8993	0.071
Mof_H 	H 	0.78285	0.21715	0.8506	-0.003
Mof_O 	O 	0.88815	0.11185	0.909	-0.037
Mof_C 	C 	0.4329	0.21645	0.8993	0.071
Mof_H 	H 	0.4343	0.21715	0.8506	-0.003
Mof_O 	O 	0.2237	0.11185	0.909	-0.036
Mof_O 	O 	0.473	0.281	0.25	0.027
Mof_O 	O 	0.719	0.192	0.25	0.029
Mof_O 	O 	0.808	0.527	0.25	0.028
Mof_O 	O 	0.527	0.719	0.75	0.029
Mof_O 	O 	0.281	0.808	0.75	0.028
Mof_O 	O 	0.192	0.473	0.75	0.028
Mof_O 	O 	0.281	0.473	0.75	0.028
Mof_O 	O 	0.192	0.719	0.75	0.029
Mof_O 	O 	0.527	0.808	0.75	0.028
Mof_O 	O 	0.719	0.527	0.25	0.028
Mof_O 	O 	0.808	0.281	0.25	0.027
Mof_O 	O 	0.473	0.192	0.25	0.028
Mof_C 	C 	0.3852	0.3852	0.5	0.091
Mof_H 	H 	0.4216	0.4216	0.5	-0.004
Mof_C 	C 	0.6148	0	0.5	0.087
Mof_H 	H 	0.5784	0	0.5	-0.004
Mof_C 	C 	3.32939e-17	0.6148	0.5	0.089
Mof_H 	H 	3.32939e-17	0.5784	0.5	-0.004
Mof_C 	C 	0.6148	0.6148	-0	0.087
Mof_H 	H 	0.5784	0.5784	-0	-0.004
Mof_C 	C 	0.3852	0	-0	0.083
Mof_H 	H 	0.4216	0	-0	-0.004
Mof_C 	C 	-0	0.3852	-0	0.085
Mof_H 	H 	3.94953e-17	0.4216	-0	-0.004
Mof_C 	C 	0.6148	0.6148	0.5	0.091
Mof_H 	H 	0.5784	0.5784	0.5	-0.004
Mof_C 	C 	0.3852	0	0.5	0.087
Mof_H 	H 	0.4216	0	0.5	-0.004
Mof_C 	C 	-6.20141e-18	0.3852	0.5	0.089
Mof_H 	H 	7.27892e-17	0.4216	0.5	-0.004
Mof_C 	C 	0.3852	0.3852	-0	0.087
Mof_H 	H 	0.4216	0.4216	-0	-0.004
Mof_C 	C 	0.6148	0	-0	0.083
Mof_H 	H 	0.5784	0	-0	-0.003
Mof_C 	C 	3.94953e-17	0.6148	-0	0.085
Mof_H 	H 	-0	0.5784	-0	-0.004
_end
