data_functionalizedCrystal
_audit_creation_method	'EQeq! by Chris Wilmer'
_symmetry_space_group_name_H-M	'P1'
_symmetry_Int_Tables_number	1
_symmetry_cell_setting	triclinic
loop_
_symmetry_equiv_pos_as_xyz
  x,y,z
_cell_length_a	18.1935
_cell_length_b	18.5759
_cell_length_c	20.2044
_cell_angle_alpha	90
_cell_angle_beta	90
_cell_angle_gamma	90
loop_
_atom_site_label
_atom_site_type_symbol
_atom_site_fract_x
_atom_site_fract_y
_atom_site_fract_z
_atom_site_charge
Mof_Ag	Ag	0.3375	0.35848	0.65273	0.584
Mof_Si	Si	0.95402	0.32993	0.63028	0.933
Mof_Si	Si	0.4745	0.1728	0.92781	1.014
Mof_N 	N 	0.2108	0.3537	0.6401	-0.158
Mof_N 	N 	0.8835	0.2197	0.4306	-0.15
Mof_N 	N 	0.374	0.2919	0.7444	-0.146
Mof_N 	N 	0.6023	0.9645	0.8602	-0.157
Mof_C 	C 	0.8362	0.2558	0.4687	-0.043
Mof_H 	H 	0.7865	0.2597	0.4546	0.024
Mof_C 	C 	0.8564	0.288	0.5283	0.075
Mof_H 	H 	0.8201	0.3099	0.5554	-0.026
Mof_C 	C 	0.9278	0.2882	0.5475	-0.325
Mof_C 	C 	0.9759	0.2541	0.5091	0.08
Mof_H 	H 	0.0261	0.252	0.5221	-0.02
Mof_C 	C 	0.954	0.2212	0.4497	-0.047
Mof_H 	H 	0.9902	0.1995	0.4224	0.021
Mof_C 	C 	0.9202	0.2707	0.6991	-0.482
Mof_H 	H 	0.8858	0.2332	0.683	0.145
Mof_H 	H 	0.961	0.2479	0.7237	0.148
Mof_C 	C 	0.8784	0.3322	0.743	-0.137
Mof_H 	H 	0.8308	0.3122	0.7581	0.057
Mof_H 	H 	0.9084	0.3417	0.783	0.057
Mof_C 	C 	0.8649	0.3973	0.7121	0.175
Mof_H 	H 	0.8766	0.4361	0.744	-0.034
Mof_H 	H 	0.8115	0.4001	0.7029	-0.037
Mof_C 	C 	0.9048	0.4131	0.6493	-0.642
Mof_H 	H 	0.9395	0.4536	0.6553	0.19
Mof_H 	H 	0.8698	0.4254	0.6134	0.187
Mof_C 	C 	0.0565	0.3389	0.6334	-0.313
Mof_C 	C 	0.1032	0.2815	0.6384	0.073
Mof_H 	H 	0.0834	0.2341	0.6383	-0.021
Mof_C 	C 	0.1782	0.2904	0.6438	-0.033
Mof_H 	H 	0.2079	0.249	0.6505	0.016
Mof_C 	C 	0.166	0.4111	0.6318	-0.035
Mof_H 	H 	0.188	0.4573	0.629	0.017
Mof_C 	C 	0.0935	0.407	0.6273	0.058
Mof_H 	H 	0.0656	0.4495	0.62	-0.02
Mof_C 	C 	0.4298	0.2468	0.7386	-0.09
Mof_H 	H 	0.4531	0.2403	0.697	0.033
Mof_C 	C 	0.4547	0.2082	0.795	0.182
Mof_H 	H 	0.4909	0.1721	0.7883	-0.056
Mof_C 	C 	0.4329	0.2181	0.8515	-0.393
Mof_C 	C 	0.3771	0.2666	0.8586	0.102
Mof_H 	H 	0.3573	0.2775	0.9009	-0.041
Mof_C 	C 	0.3504	0.2988	0.8026	-0.042
Mof_H 	H 	0.3095	0.33	0.8083	0.025
Mof_C 	C 	0.4047	0.1474	0.9922	-0.697
Mof_H 	H 	0.3661	0.1848	0.9949	0.198
Mof_H 	H 	0.381	0.1012	0.9801	0.2
Mof_C 	C 	0.4414	0.1404	0.0554	0.246
Mof_H 	H 	0.4053	0.1278	0.0895	-0.059
Mof_H 	H 	0.4649	0.1862	0.0669	-0.074
Mof_H 	H 	0.4788	0.1026	0.0526	-0.072
Mof_C 	C 	0.5402	0.2376	0.9654	-0.675
Mof_H 	H 	0.5104	0.2701	0.9935	0.193
Mof_H 	H 	0.5712	0.2091	0.996	0.196
Mof_C 	C 	0.5908	0.2842	0.9281	0.236
Mof_H 	H 	0.6182	0.3147	0.959	-0.05
Mof_H 	H 	0.5626	0.3146	0.8976	-0.068
Mof_H 	H 	0.6252	0.2543	0.9028	-0.06
Mof_C 	C 	0.5237	0.09	0.8999	-0.354
Mof_C 	C 	0.5981	0.0876	0.8843	0.086
Mof_H 	H 	0.6257	0.1309	0.8868	-0.022
Mof_C 	C 	0.6324	0.0278	0.866	-0.047
Mof_H 	H 	0.6834	0.0315	0.8563	0.019
Mof_C 	C 	0.5318	0.9633	0.8735	-0.05
Mof_H 	H 	0.5066	0.9186	0.8703	0.015
Mof_C 	C 	0.4907	0.026	0.8927	0.095
Mof_H 	H 	0.4393	0.0219	0.9003	-0.036
Mof_Ag	Ag	0.1625	0.64152	0.15273	0.585
Mof_Si	Si	0.54598	0.67007	0.13028	0.938
Mof_Si	Si	0.0255	0.8272	0.42781	1.001
Mof_N 	N 	0.2892	0.6463	0.1401	-0.157
Mof_N 	N 	0.6165	0.7803	0.9306	-0.149
Mof_N 	N 	0.126	0.7081	0.2444	-0.146
Mof_N 	N 	0.8977	0.0355	0.3602	-0.161
Mof_C 	C 	0.6638	0.7442	0.9687	-0.043
Mof_H 	H 	0.7135	0.7403	0.9546	0.024
Mof_C 	C 	0.6436	0.712	0.0283	0.075
Mof_H 	H 	0.6799	0.6901	0.0554	-0.026
Mof_C 	C 	0.5722	0.7118	0.0475	-0.327
Mof_C 	C 	0.5241	0.7459	0.0091	0.085
Mof_H 	H 	0.4739	0.748	0.0221	-0.023
Mof_C 	C 	0.546	0.7788	0.9497	-0.048
Mof_H 	H 	0.5098	0.8005	0.9224	0.022
Mof_C 	C 	0.5798	0.7293	0.1991	-0.483
Mof_H 	H 	0.6142	0.7668	0.183	0.145
Mof_H 	H 	0.539	0.7521	0.2237	0.149
Mof_C 	C 	0.6216	0.6678	0.243	-0.138
Mof_H 	H 	0.6692	0.6878	0.2581	0.057
Mof_H 	H 	0.5916	0.6583	0.283	0.057
Mof_C 	C 	0.6351	0.6027	0.2121	0.176
Mof_H 	H 	0.6234	0.5639	0.244	-0.035
Mof_H 	H 	0.6885	0.5999	0.2029	-0.038
Mof_C 	C 	0.5952	0.5869	0.1493	-0.644
Mof_H 	H 	0.5605	0.5464	0.1553	0.191
Mof_H 	H 	0.6302	0.5746	0.1134	0.187
Mof_C 	C 	0.4435	0.6611	0.1334	-0.315
Mof_C 	C 	0.3968	0.7185	0.1384	0.075
Mof_H 	H 	0.4166	0.7659	0.1383	-0.023
Mof_C 	C 	0.3218	0.7096	0.1438	-0.034
Mof_H 	H 	0.2921	0.751	0.1505	0.016
Mof_C 	C 	0.334	0.5889	0.1318	-0.036
Mof_H 	H 	0.312	0.5427	0.129	0.017
Mof_C 	C 	0.4065	0.593	0.1273	0.059
Mof_H 	H 	0.4344	0.5505	0.12	-0.021
Mof_C 	C 	0.0702	0.7532	0.2386	-0.089
Mof_H 	H 	0.0469	0.7597	0.197	0.032
Mof_C 	C 	0.0453	0.7918	0.295	0.179
Mof_H 	H 	0.0091	0.8279	0.2883	-0.055
Mof_C 	C 	0.0671	0.7819	0.3515	-0.389
Mof_C 	C 	0.1229	0.7334	0.3586	0.099
Mof_H 	H 	0.1427	0.7225	0.4009	-0.039
Mof_C 	C 	0.1496	0.7012	0.3026	-0.04
Mof_H 	H 	0.1905	0.67	0.3083	0.025
Mof_C 	C 	0.0953	0.8526	0.4922	-0.688
Mof_H 	H 	0.1339	0.8152	0.4949	0.196
Mof_H 	H 	0.119	0.8988	0.4801	0.197
Mof_C 	C 	0.0586	0.8596	0.5554	0.239
Mof_H 	H 	0.0947	0.8722	0.5895	-0.057
Mof_H 	H 	0.0351	0.8138	0.5669	-0.072
Mof_H 	H 	0.0212	0.8974	0.5526	-0.071
Mof_C 	C 	0.9598	0.7624	0.4654	-0.667
Mof_H 	H 	0.9896	0.7299	0.4935	0.192
Mof_H 	H 	0.9288	0.7909	0.496	0.195
Mof_C 	C 	0.9092	0.7158	0.4281	0.228
Mof_H 	H 	0.8818	0.6853	0.459	-0.048
Mof_H 	H 	0.9374	0.6854	0.3976	-0.065
Mof_H 	H 	0.8748	0.7457	0.4028	-0.058
Mof_C 	C 	0.9763	0.91	0.3999	-0.343
Mof_C 	C 	0.9019	0.9124	0.3843	0.078
Mof_H 	H 	0.8743	0.8691	0.3868	-0.019
Mof_C 	C 	0.8676	0.9722	0.366	-0.037
Mof_H 	H 	0.8166	0.9685	0.3563	0.018
Mof_C 	C 	0.9682	0.0367	0.3735	-0.05
Mof_H 	H 	0.9934	0.0814	0.3703	0.015
Mof_C 	C 	0.0093	0.974	0.3927	0.089
Mof_H 	H 	0.0607	0.9781	0.4003	-0.034
Mof_Ag	Ag	0.6625	0.85848	0.84727	0.586
Mof_Si	Si	0.04598	0.82993	0.86972	0.933
Mof_Si	Si	0.5255	0.6728	0.57219	1.014
Mof_N 	N 	0.7892	0.8537	0.8599	-0.158
Mof_N 	N 	0.1165	0.7197	0.0694	-0.149
Mof_N 	N 	0.626	0.7919	0.7556	-0.146
Mof_N 	N 	0.3977	0.4645	0.6398	-0.158
Mof_C 	C 	0.1638	0.7558	0.0313	-0.044
Mof_H 	H 	0.2135	0.7597	0.0454	0.025
Mof_C 	C 	0.1436	0.788	0.9717	0.076
Mof_H 	H 	0.1799	0.8099	0.9446	-0.026
Mof_C 	C 	0.0722	0.7882	0.9525	-0.326
Mof_C 	C 	0.0241	0.7541	0.9909	0.082
Mof_H 	H 	0.9739	0.752	0.9779	-0.021
Mof_C 	C 	0.046	0.7212	0.0503	-0.049
Mof_H 	H 	0.0098	0.6995	0.0776	0.022
Mof_C 	C 	0.0798	0.7707	0.8009	-0.482
Mof_H 	H 	0.1142	0.7332	0.817	0.145
Mof_H 	H 	0.039	0.7479	0.7763	0.148
Mof_C 	C 	0.1216	0.8322	0.757	-0.137
Mof_H 	H 	0.1692	0.8122	0.7419	0.057
Mof_H 	H 	0.0916	0.8417	0.717	0.057
Mof_C 	C 	0.1351	0.8973	0.7879	0.175
Mof_H 	H 	0.1234	0.9361	0.756	-0.035
Mof_H 	H 	0.1885	0.9001	0.7971	-0.037
Mof_C 	C 	0.0952	0.9131	0.8507	-0.642
Mof_H 	H 	0.0605	0.9536	0.8447	0.19
Mof_H 	H 	0.1302	0.9254	0.8866	0.186
Mof_C 	C 	0.9435	0.8389	0.8666	-0.312
Mof_C 	C 	0.8968	0.7815	0.8616	0.073
Mof_H 	H 	0.9166	0.7341	0.8617	-0.022
Mof_C 	C 	0.8218	0.7904	0.8562	-0.033
Mof_H 	H 	0.7921	0.749	0.8495	0.016
Mof_C 	C 	0.834	0.9111	0.8682	-0.034
Mof_H 	H 	0.812	0.9573	0.871	0.018
Mof_C 	C 	0.9065	0.907	0.8727	0.057
Mof_H 	H 	0.9344	0.9495	0.88	-0.019
Mof_C 	C 	0.5702	0.7468	0.7614	-0.09
Mof_H 	H 	0.5469	0.7403	0.803	0.033
Mof_C 	C 	0.5453	0.7082	0.705	0.182
Mof_H 	H 	0.5091	0.6721	0.7117	-0.056
Mof_C 	C 	0.5671	0.7181	0.6485	-0.393
Mof_C 	C 	0.6229	0.7666	0.6414	0.102
Mof_H 	H 	0.6427	0.7775	0.5991	-0.04
Mof_C 	C 	0.6496	0.7988	0.6974	-0.042
Mof_H 	H 	0.6905	0.83	0.6917	0.026
Mof_C 	C 	0.5953	0.6474	0.5078	-0.695
Mof_H 	H 	0.6339	0.6848	0.5051	0.198
Mof_H 	H 	0.619	0.6012	0.5199	0.199
Mof_C 	C 	0.5586	0.6404	0.4446	0.244
Mof_H 	H 	0.5947	0.6278	0.4105	-0.059
Mof_H 	H 	0.5351	0.6862	0.4331	-0.073
Mof_H 	H 	0.5212	0.6026	0.4474	-0.072
Mof_C 	C 	0.4598	0.7376	0.5346	-0.675
Mof_H 	H 	0.4896	0.7701	0.5065	0.194
Mof_H 	H 	0.4288	0.7091	0.504	0.197
Mof_C 	C 	0.4092	0.7842	0.5719	0.236
Mof_H 	H 	0.3818	0.8147	0.541	-0.05
Mof_H 	H 	0.4374	0.8146	0.6024	-0.068
Mof_H 	H 	0.3748	0.7543	0.5972	-0.06
Mof_C 	C 	0.4763	0.59	0.6001	-0.354
Mof_C 	C 	0.4019	0.5876	0.6157	0.085
Mof_H 	H 	0.3743	0.6309	0.6132	-0.022
Mof_C 	C 	0.3676	0.5278	0.634	-0.045
Mof_H 	H 	0.3166	0.5315	0.6437	0.02
Mof_C 	C 	0.4682	0.4633	0.6265	-0.052
Mof_H 	H 	0.4934	0.4186	0.6297	0.016
Mof_C 	C 	0.5093	0.526	0.6073	0.097
Mof_H 	H 	0.5607	0.5219	0.5997	-0.037
Mof_Ag	Ag	0.8375	0.14152	0.34727	0.585
Mof_Si	Si	0.45402	0.17007	0.36972	0.938
Mof_Si	Si	0.9745	0.3272	0.07219	1.003
Mof_N 	N 	0.7108	0.1463	0.3599	-0.157
Mof_N 	N 	0.3835	0.2803	0.5694	-0.149
Mof_N 	N 	0.874	0.2081	0.2556	-0.146
Mof_N 	N 	0.1023	0.5355	0.1398	-0.159
Mof_C 	C 	0.3362	0.2442	0.5313	-0.044
Mof_H 	H 	0.2865	0.2403	0.5454	0.025
Mof_C 	C 	0.3564	0.212	0.4717	0.077
Mof_H 	H 	0.3201	0.1901	0.4446	-0.027
Mof_C 	C 	0.4278	0.2118	0.4525	-0.329
Mof_C 	C 	0.4759	0.2459	0.4909	0.087
Mof_H 	H 	0.5261	0.248	0.4779	-0.024
Mof_C 	C 	0.454	0.2788	0.5503	-0.05
Mof_H 	H 	0.4902	0.3005	0.5776	0.023
Mof_C 	C 	0.4202	0.2293	0.3009	-0.484
Mof_H 	H 	0.3858	0.2668	0.317	0.146
Mof_H 	H 	0.461	0.2521	0.2763	0.149
Mof_C 	C 	0.3784	0.1678	0.257	-0.137
Mof_H 	H 	0.3308	0.1878	0.2419	0.057
Mof_H 	H 	0.4084	0.1583	0.217	0.057
Mof_C 	C 	0.3649	0.1027	0.2879	0.176
Mof_H 	H 	0.3766	0.0639	0.256	-0.034
Mof_H 	H 	0.3115	0.0999	0.2971	-0.037
Mof_C 	C 	0.4048	0.0869	0.3507	-0.644
Mof_H 	H 	0.4395	0.0464	0.3447	0.191
Mof_H 	H 	0.3698	0.0746	0.3866	0.187
Mof_C 	C 	0.5565	0.1611	0.3666	-0.316
Mof_C 	C 	0.6032	0.2185	0.3616	0.075
Mof_H 	H 	0.5834	0.2659	0.3617	-0.023
Mof_C 	C 	0.6782	0.2096	0.3562	-0.034
Mof_H 	H 	0.7079	0.251	0.3495	0.016
Mof_C 	C 	0.666	0.0889	0.3682	-0.036
Mof_H 	H 	0.688	0.0427	0.371	0.017
Mof_C 	C 	0.5935	0.093	0.3727	0.059
Mof_H 	H 	0.5656	0.0505	0.38	-0.021
Mof_C 	C 	0.9298	0.2532	0.2614	-0.089
Mof_H 	H 	0.9531	0.2597	0.303	0.032
Mof_C 	C 	0.9547	0.2918	0.205	0.179
Mof_H 	H 	0.9909	0.3279	0.2117	-0.055
Mof_C 	C 	0.9329	0.2819	0.1485	-0.39
Mof_C 	C 	0.8771	0.2334	0.1414	0.1
Mof_H 	H 	0.8573	0.2225	0.0991	-0.04
Mof_C 	C 	0.8504	0.2012	0.1974	-0.041
Mof_H 	H 	0.8095	0.17	0.1917	0.025
Mof_C 	C 	0.9047	0.3526	0.0078	-0.69
Mof_H 	H 	0.8661	0.3152	0.0051	0.196
Mof_H 	H 	0.881	0.3988	0.0199	0.198
Mof_C 	C 	0.9414	0.3596	0.9446	0.24
Mof_H 	H 	0.9053	0.3722	0.9105	-0.058
Mof_H 	H 	0.9649	0.3138	0.9331	-0.072
Mof_H 	H 	0.9788	0.3974	0.9474	-0.071
Mof_C 	C 	0.0402	0.2624	0.0346	-0.667
Mof_H 	H 	0.0104	0.2299	0.0065	0.192
Mof_H 	H 	0.0712	0.2909	0.004	0.195
Mof_C 	C 	0.0908	0.2158	0.0719	0.227
Mof_H 	H 	0.1182	0.1853	0.041	-0.047
Mof_H 	H 	0.0626	0.1854	0.1024	-0.064
Mof_H 	H 	0.1252	0.2457	0.0972	-0.058
Mof_C 	C 	0.0237	0.41	0.1001	-0.347
Mof_C 	C 	0.0981	0.4124	0.1157	0.081
Mof_H 	H 	0.1257	0.3691	0.1132	-0.02
Mof_C 	C 	0.1324	0.4722	0.134	-0.042
Mof_H 	H 	0.1834	0.4685	0.1437	0.019
Mof_C 	C 	0.0318	0.5367	0.1265	-0.049
Mof_H 	H 	0.0066	0.5814	0.1297	0.015
Mof_C 	C 	0.9907	0.474	0.1073	0.091
Mof_H 	H 	0.9393	0.4781	0.0997	-0.035
Mof_Ag	Ag	0.84052	0.63	0.65805	0.576
Mof_Si	Si	0.5503	0.5073	0.8545	1.174
Mof_Si	Si	0.1338	0.5071	0.86095	0.819
Mof_N 	N 	0.7402	0.5886	0.7157	-0.145
Mof_N 	N 	0.6316	0.4184	0.0555	-0.147
Mof_N 	N 	0.9387	0.5987	0.7316	-0.158
Mof_N 	N 	0.1478	0.2521	0.8516	-0.164
Mof_C 	C 	0.7032	0.5298	0.6965	-0.055
Mof_H 	H 	0.7139	0.5087	0.6547	0.021
Mof_C 	C 	0.6494	0.4991	0.7365	0.102
Mof_H 	H 	0.6251	0.4561	0.7235	-0.039
Mof_C 	C 	0.6313	0.5339	0.7984	-0.408
Mof_C 	C 	0.6745	0.585	0.8152	0.175
Mof_H 	H 	0.6706	0.6036	0.8589	-0.062
Mof_C 	C 	0.7252	0.6139	0.7748	-0.084
Mof_H 	H 	0.7515	0.6549	0.7898	0.035
Mof_C 	C 	0.4842	0.4537	0.8196	-1.154
Mof_H 	H 	0.4968	0.4472	0.7723	0.325
Mof_H 	H 	0.4872	0.4057	0.8408	0.331
Mof_C 	C 	0.4161	0.4751	0.823	0.623
Mof_H 	H 	0.3931	0.4604	0.8651	-0.178
Mof_H 	H 	0.3869	0.4555	0.7856	-0.182
Mof_C 	C 	0.4234	0.5653	0.818	-0.185
Mof_H 	H 	0.439	0.5796	0.7726	0.065
Mof_H 	H 	0.3755	0.5882	0.8273	0.067
Mof_C 	C 	0.4799	0.5883	0.8677	-0.453
Mof_H 	H 	0.4598	0.5895	0.9132	0.134
Mof_H 	H 	0.502	0.6355	0.8566	0.133
Mof_C 	C 	0.5881	0.4673	0.9313	-0.438
Mof_C 	C 	0.6576	0.4732	0.9533	0.156
Mof_H 	H 	0.6917	0.5006	0.9281	-0.048
Mof_C 	C 	0.6817	0.4406	0.0119	-0.08
Mof_H 	H 	0.7327	0.4344	0.0203	0.026
Mof_C 	C 	0.5633	0.4207	0.0365	-0.063
Mof_H 	H 	0.5274	0.4054	0.0675	0.021
Mof_C 	C 	0.5382	0.4434	0.9755	0.127
Mof_H 	H 	0.4874	0.4421	0.965	-0.047
Mof_C 	C 	0.0073	0.603	0.7113	-0.031
Mof_H 	H 	0.0176	0.6267	0.6707	0.014
Mof_C 	C 	0.0654	0.5738	0.7477	0.046
Mof_H 	H 	0.1133	0.5759	0.7292	-0.01
Mof_C 	C 	0.057	0.542	0.8092	-0.277
Mof_C 	C 	0.9838	0.5396	0.8295	0.036
Mof_H 	H 	0.9709	0.5173	0.8702	-0.008
Mof_C 	C 	0.9303	0.5698	0.7899	-0.014
Mof_H 	H 	0.8817	0.5695	0.8072	0.019
Mof_C 	C 	0.1233	0.5402	0.95	-0.479
Mof_H 	H 	0.0806	0.5728	0.9549	0.147
Mof_H 	H 	0.1186	0.4997	0.9815	0.147
Mof_C 	C 	0.196	0.5806	0.9592	-0.019
Mof_H 	H 	0.1995	0.5991	0.0045	0.014
Mof_H 	H 	0.1988	0.6209	0.9279	0.015
Mof_H 	H 	0.2374	0.5476	0.9509	0.002
Mof_C 	C 	0.2251	0.5444	0.8326	-0.448
Mof_H 	H 	0.2609	0.5423	0.8695	0.135
Mof_H 	H 	0.2444	0.5147	0.7958	0.13
Mof_C 	C 	0.216	0.629	0.808	-0.106
Mof_H 	H 	0.2645	0.6505	0.802	0.043
Mof_H 	H 	0.1879	0.656	0.8406	0.033
Mof_H 	H 	0.1896	0.6297	0.7652	0.04
Mof_C 	C 	0.1368	0.4042	0.8576	-0.269
Mof_C 	C 	0.1783	0.3656	0.9027	0.042
Mof_H 	H 	0.2039	0.3902	0.9369	-0.014
Mof_C 	C 	0.1825	0.2954	0.8985	-0.036
Mof_H 	H 	0.2121	0.2717	0.9306	0.016
Mof_C 	C 	0.1073	0.2899	0.811	-0.018
Mof_H 	H 	0.0825	0.2649	0.7766	0.013
Mof_C 	C 	0.0982	0.3618	0.8142	0.047
Mof_H 	H 	0.0638	0.3839	0.7854	-0.005
Mof_Ag	Ag	0.65948	0.37	0.15805	0.576
Mof_Si	Si	0.9497	0.4927	0.3545	1.171
Mof_Si	Si	0.3662	0.4929	0.36095	0.818
Mof_N 	N 	0.7598	0.4114	0.2157	-0.145
Mof_N 	N 	0.8684	0.5816	0.5555	-0.147
Mof_N 	N 	0.5613	0.4013	0.2316	-0.159
Mof_N 	N 	0.3522	0.7479	0.3516	-0.164
Mof_C 	C 	0.7968	0.4702	0.1965	-0.055
Mof_H 	H 	0.7861	0.4913	0.1547	0.021
Mof_C 	C 	0.8506	0.5009	0.2365	0.102
Mof_H 	H 	0.8749	0.5439	0.2235	-0.038
Mof_C 	C 	0.8687	0.4661	0.2984	-0.406
Mof_C 	C 	0.8255	0.415	0.3152	0.174
Mof_H 	H 	0.8294	0.3964	0.3589	-0.062
Mof_C 	C 	0.7748	0.3861	0.2748	-0.083
Mof_H 	H 	0.7485	0.3451	0.2898	0.035
Mof_C 	C 	0.0158	0.5463	0.3196	-1.151
Mof_H 	H 	0.0032	0.5528	0.2723	0.324
Mof_H 	H 	0.0128	0.5943	0.3408	0.331
Mof_C 	C 	0.0839	0.5249	0.323	0.621
Mof_H 	H 	0.1069	0.5396	0.3651	-0.177
Mof_H 	H 	0.1131	0.5445	0.2856	-0.181
Mof_C 	C 	0.0766	0.4347	0.318	-0.187
Mof_H 	H 	0.061	0.4204	0.2726	0.066
Mof_H 	H 	0.1245	0.4118	0.3273	0.068
Mof_C 	C 	0.0201	0.4117	0.3677	-0.448
Mof_H 	H 	0.0402	0.4105	0.4132	0.133
Mof_H 	H 	0.998	0.3645	0.3566	0.131
Mof_C 	C 	0.9119	0.5327	0.4313	-0.436
Mof_C 	C 	0.8424	0.5268	0.4533	0.155
Mof_H 	H 	0.8083	0.4994	0.4281	-0.047
Mof_C 	C 	0.8183	0.5594	0.5119	-0.079
Mof_H 	H 	0.7673	0.5656	0.5203	0.026
Mof_C 	C 	0.9367	0.5793	0.5365	-0.062
Mof_H 	H 	0.9726	0.5946	0.5675	0.021
Mof_C 	C 	0.9618	0.5566	0.4755	0.126
Mof_H 	H 	0.0126	0.5579	0.465	-0.047
Mof_C 	C 	0.4927	0.397	0.2113	-0.03
Mof_H 	H 	0.4824	0.3733	0.1707	0.014
Mof_C 	C 	0.4346	0.4262	0.2477	0.046
Mof_H 	H 	0.3867	0.4241	0.2292	-0.01
Mof_C 	C 	0.443	0.458	0.3092	-0.277
Mof_C 	C 	0.5162	0.4604	0.3295	0.035
Mof_H 	H 	0.5291	0.4827	0.3702	-0.008
Mof_C 	C 	0.5697	0.4302	0.2899	-0.014
Mof_H 	H 	0.6183	0.4305	0.3072	0.019
Mof_C 	C 	0.3767	0.4598	0.45	-0.479
Mof_H 	H 	0.4194	0.4272	0.4549	0.147
Mof_H 	H 	0.3814	0.5003	0.4815	0.147
Mof_C 	C 	0.304	0.4194	0.4592	-0.019
Mof_H 	H 	0.3005	0.4009	0.5045	0.014
Mof_H 	H 	0.3012	0.3791	0.4279	0.015
Mof_H 	H 	0.2626	0.4524	0.4509	0.002
Mof_C 	C 	0.2749	0.4556	0.3326	-0.448
Mof_H 	H 	0.2391	0.4577	0.3695	0.135
Mof_H 	H 	0.2556	0.4853	0.2958	0.13
Mof_C 	C 	0.284	0.371	0.308	-0.106
Mof_H 	H 	0.2355	0.3495	0.302	0.043
Mof_H 	H 	0.3121	0.344	0.3406	0.033
Mof_H 	H 	0.3104	0.3703	0.2652	0.04
Mof_C 	C 	0.3632	0.5958	0.3576	-0.269
Mof_C 	C 	0.3217	0.6344	0.4027	0.042
Mof_H 	H 	0.2961	0.6098	0.4369	-0.014
Mof_C 	C 	0.3175	0.7046	0.3985	-0.036
Mof_H 	H 	0.2879	0.7283	0.4306	0.016
Mof_C 	C 	0.3927	0.7101	0.311	-0.018
Mof_H 	H 	0.4175	0.7351	0.2766	0.013
Mof_C 	C 	0.4018	0.6382	0.3142	0.046
Mof_H 	H 	0.4362	0.6161	0.2854	-0.005
Mof_Ag	Ag	0.15948	0.13	0.84195	0.577
Mof_Si	Si	0.4497	0.0073	0.6455	1.172
Mof_Si	Si	0.8662	0.0071	0.63905	0.817
Mof_N 	N 	0.2598	0.0886	0.7843	-0.145
Mof_N 	N 	0.3684	0.9184	0.4445	-0.147
Mof_N 	N 	0.0613	0.0987	0.7684	-0.156
Mof_N 	N 	0.8522	0.7521	0.6484	-0.164
Mof_C 	C 	0.2968	0.0298	0.8035	-0.055
Mof_H 	H 	0.2861	0.0087	0.8453	0.021
Mof_C 	C 	0.3506	0.9991	0.7635	0.102
Mof_H 	H 	0.3749	0.9561	0.7765	-0.038
Mof_C 	C 	0.3687	0.0339	0.7016	-0.407
Mof_C 	C 	0.3255	0.085	0.6848	0.174
Mof_H 	H 	0.3294	0.1036	0.6411	-0.062
Mof_C 	C 	0.2748	0.1139	0.7252	-0.084
Mof_H 	H 	0.2485	0.1549	0.7102	0.035
Mof_C 	C 	0.5158	0.9537	0.6804	-1.153
Mof_H 	H 	0.5032	0.9472	0.7277	0.325
Mof_H 	H 	0.5128	0.9057	0.6592	0.331
Mof_C 	C 	0.5839	0.9751	0.677	0.624
Mof_H 	H 	0.6069	0.9604	0.6349	-0.177
Mof_H 	H 	0.6131	0.9555	0.7144	-0.182
Mof_C 	C 	0.5766	0.0653	0.682	-0.187
Mof_H 	H 	0.561	0.0796	0.7274	0.065
Mof_H 	H 	0.6245	0.0882	0.6727	0.068
Mof_C 	C 	0.5201	0.0883	0.6323	-0.451
Mof_H 	H 	0.5402	0.0895	0.5868	0.133
Mof_H 	H 	0.498	0.1355	0.6434	0.133
Mof_C 	C 	0.4119	0.9673	0.5687	-0.436
Mof_C 	C 	0.3424	0.9732	0.5467	0.153
Mof_H 	H 	0.3083	0.0006	0.5719	-0.046
Mof_C 	C 	0.3183	0.9406	0.4881	-0.078
Mof_H 	H 	0.2673	0.9344	0.4797	0.026
Mof_C 	C 	0.4367	0.9207	0.4635	-0.062
Mof_H 	H 	0.4726	0.9054	0.4325	0.02
Mof_C 	C 	0.4618	0.9434	0.5245	0.125
Mof_H 	H 	0.5126	0.9421	0.535	-0.046
Mof_C 	C 	0.9927	0.103	0.7887	-0.036
Mof_H 	H 	0.9824	0.1267	0.8293	0.015
Mof_C 	C 	0.9346	0.0738	0.7523	0.049
Mof_H 	H 	0.8867	0.0759	0.7708	-0.011
Mof_C 	C 	0.943	0.042	0.6908	-0.283
Mof_C 	C 	0.0162	0.0396	0.6705	0.043
Mof_H 	H 	0.0291	0.0173	0.6298	-0.009
Mof_C 	C 	0.0697	0.0698	0.7101	-0.016
Mof_H 	H 	0.1183	0.0695	0.6928	0.02
Mof_C 	C 	0.8767	0.0402	0.55	-0.487
Mof_H 	H 	0.9194	0.0728	0.5451	0.148
Mof_H 	H 	0.8814	0.9997	0.5185	0.152
Mof_C 	C 	0.804	0.0806	0.5408	-0.013
Mof_H 	H 	0.8005	0.0991	0.4955	0.012
Mof_H 	H 	0.8012	0.1209	0.5721	0.013
Mof_H 	H 	0.7626	0.0476	0.5491	-0
Mof_C 	C 	0.7749	0.0444	0.6674	-0.447
Mof_H 	H 	0.7391	0.0423	0.6305	0.135
Mof_H 	H 	0.7556	0.0147	0.7042	0.129
Mof_C 	C 	0.784	0.129	0.692	-0.106
Mof_H 	H 	0.7355	0.1505	0.698	0.043
Mof_H 	H 	0.8121	0.156	0.6594	0.033
Mof_H 	H 	0.8104	0.1297	0.7348	0.04
Mof_C 	C 	0.8632	0.9042	0.6424	-0.265
Mof_C 	C 	0.8217	0.8656	0.5973	0.04
Mof_H 	H 	0.7961	0.8902	0.5631	-0.013
Mof_C 	C 	0.8175	0.7954	0.6015	-0.035
Mof_H 	H 	0.7879	0.7717	0.5694	0.016
Mof_C 	C 	0.8927	0.7899	0.689	-0.016
Mof_H 	H 	0.9175	0.7649	0.7234	0.013
Mof_C 	C 	0.9018	0.8618	0.6858	0.045
Mof_H 	H 	0.9362	0.8839	0.7146	-0.004
Mof_Ag	Ag	0.34052	0.87	0.34195	0.576
Mof_Si	Si	0.0503	0.9927	0.1455	1.17
Mof_Si	Si	0.6338	0.9929	0.13905	0.82
Mof_N 	N 	0.2402	0.9114	0.2843	-0.144
Mof_N 	N 	0.1316	0.0816	0.9445	-0.144
Mof_N 	N 	0.4387	0.9013	0.2684	-0.159
Mof_N 	N 	0.6478	0.2479	0.1484	-0.164
Mof_C 	C 	0.2032	0.9702	0.3035	-0.061
Mof_H 	H 	0.2139	0.9913	0.3453	0.023
Mof_C 	C 	0.1494	0.0009	0.2635	0.111
Mof_H 	H 	0.1251	0.0439	0.2765	-0.04
Mof_C 	C 	0.1313	0.9661	0.2016	-0.412
Mof_C 	C 	0.1745	0.915	0.1848	0.178
Mof_H 	H 	0.1706	0.8964	0.1411	-0.063
Mof_C 	C 	0.2252	0.8861	0.2252	-0.086
Mof_H 	H 	0.2515	0.8451	0.2102	0.036
Mof_C 	C 	0.9842	0.0463	0.1804	-1.15
Mof_H 	H 	0.9968	0.0528	0.2277	0.323
Mof_H 	H 	0.9872	0.0943	0.1592	0.33
Mof_C 	C 	0.9161	0.0249	0.177	0.618
Mof_H 	H 	0.8931	0.0396	0.1349	-0.177
Mof_H 	H 	0.8869	0.0445	0.2144	-0.181
Mof_C 	C 	0.9234	0.9347	0.182	-0.184
Mof_H 	H 	0.939	0.9204	0.2274	0.066
Mof_H 	H 	0.8755	0.9118	0.1727	0.068
Mof_C 	C 	0.9799	0.9117	0.1323	-0.446
Mof_H 	H 	0.9598	0.9105	0.0868	0.132
Mof_H 	H 	0.002	0.8645	0.1434	0.13
Mof_C 	C 	0.0881	0.0327	0.0687	-0.442
Mof_C 	C 	0.1576	0.0268	0.0467	0.166
Mof_H 	H 	0.1917	0.9994	0.0719	-0.053
Mof_C 	C 	0.1817	0.0594	0.9881	-0.086
Mof_H 	H 	0.2327	0.0656	0.9797	0.028
Mof_C 	C 	0.0633	0.0793	0.9635	-0.071
Mof_H 	H 	0.0274	0.0946	0.9325	0.024
Mof_C 	C 	0.0382	0.0566	0.0245	0.14
Mof_H 	H 	0.9874	0.0579	0.035	-0.054
Mof_C 	C 	0.5073	0.897	0.2887	-0.03
Mof_H 	H 	0.5176	0.8733	0.3293	0.014
Mof_C 	C 	0.5654	0.9262	0.2523	0.046
Mof_H 	H 	0.6133	0.9241	0.2708	-0.009
Mof_C 	C 	0.557	0.958	0.1908	-0.277
Mof_C 	C 	0.4838	0.9604	0.1705	0.036
Mof_H 	H 	0.4709	0.9827	0.1298	-0.008
Mof_C 	C 	0.4303	0.9302	0.2101	-0.014
Mof_H 	H 	0.3817	0.9305	0.1928	0.018
Mof_C 	C 	0.6233	0.9598	0.05	-0.477
Mof_H 	H 	0.5806	0.9272	0.0451	0.146
Mof_H 	H 	0.6186	0.0003	0.0185	0.146
Mof_C 	C 	0.696	0.9194	0.0408	-0.025
Mof_H 	H 	0.6995	0.9009	0.9955	0.017
Mof_H 	H 	0.6988	0.8791	0.0721	0.016
Mof_H 	H 	0.7374	0.9524	0.0491	0.004
Mof_C 	C 	0.7251	0.9556	0.1674	-0.449
Mof_H 	H 	0.7609	0.9577	0.1305	0.136
Mof_H 	H 	0.7444	0.9853	0.2042	0.131
Mof_C 	C 	0.716	0.871	0.192	-0.105
Mof_H 	H 	0.7645	0.8495	0.198	0.043
Mof_H 	H 	0.6879	0.844	0.1594	0.033
Mof_H 	H 	0.6896	0.8703	0.2348	0.04
Mof_C 	C 	0.6368	0.0958	0.1424	-0.27
Mof_C 	C 	0.6783	0.1344	0.0973	0.042
Mof_H 	H 	0.7039	0.1098	0.0631	-0.015
Mof_C 	C 	0.6825	0.2046	0.1015	-0.036
Mof_H 	H 	0.7121	0.2283	0.0694	0.016
Mof_C 	C 	0.6073	0.2101	0.189	-0.018
Mof_H 	H 	0.5825	0.2351	0.2234	0.013
Mof_C 	C 	0.5982	0.1382	0.1858	0.047
Mof_H 	H 	0.5638	0.1161	0.2146	-0.006
_end
