# CIF file generated by openbabel 3.1.0, see https://openbabel.org
data_I
_chemical_name_common 'OKIYIR01_charged'
_cell_length_a 15.8548
_cell_length_b 15.8548
_cell_length_c 21.746
_cell_angle_alpha 90
_cell_angle_beta 90
_cell_angle_gamma 90
_space_group_name_H-M_alt 'P 1'
_space_group_name_Hall 'P 1'
loop_
    _symmetry_equiv_pos_as_xyz
    x,y,z
loop_
    _atom_site_label
    _atom_site_type_symbol
    _atom_site_fract_x
    _atom_site_fract_y
    _atom_site_fract_z
    _atom_site_occupancy
    Cd1      Cd       0.05973    0.94027    0.25000    1.000
    Cd2      Cd       0.94027    0.05973    0.75000    1.000
    Cd3      Cd       0.55973    0.55973    0.50000    1.000
    Cd4      Cd       0.44027    0.44027    0.00000    1.000
    H1       H        0.74310    0.49540    0.57110    1.000
    H2       H        0.85380    0.40350    0.55890    1.000
    H3       H        0.76390    0.34550    0.39340    1.000
    H4       H        0.65760    0.44030    0.40880    1.000
    H5       H        0.96700    0.33640    0.53430    1.000
    H6       H        0.06660    0.23420    0.52440    1.000
    H7       H        0.04640    0.12070    0.45900    1.000
    H8       H        0.82570    0.22330    0.40500    1.000
    H9       H        0.80150    0.00190    0.20890    1.000
    H10      H        0.70520    0.90990    0.16430    1.000
    H11      H        0.65650    0.79480    0.21870    1.000
    H12      H        0.80420    0.85930    0.36040    1.000
    H13      H        0.58790    0.71420    0.28420    1.000
    H14      H        0.53620    0.61440    0.35070    1.000
    H15      H        0.73200    0.63970    0.45730    1.000
    H16      H        0.78960    0.73650    0.39400    1.000
    H17      H        0.74180    0.02650    0.38650    1.000
    H18      H        0.74320    0.10590    0.35300    1.000
    H19      H        0.25690    0.50460    0.07110    1.000
    H20      H        0.14620    0.59650    0.05890    1.000
    H21      H        0.23610    0.65450    0.89340    1.000
    H22      H        0.34240    0.55970    0.90880    1.000
    H23      H        0.03300    0.66360    0.03430    1.000
    H24      H        0.93340    0.76580    0.02440    1.000
    H25      H        0.95360    0.87930    0.95900    1.000
    H26      H        0.17430    0.77670    0.90500    1.000
    H27      H        0.19850    0.99810    0.70890    1.000
    H28      H        0.29480    0.09010    0.66430    1.000
    H29      H        0.34350    0.20520    0.71870    1.000
    H30      H        0.19580    0.14070    0.86040    1.000
    H31      H        0.41210    0.28580    0.78420    1.000
    H32      H        0.46380    0.38560    0.85070    1.000
    H33      H        0.26800    0.36030    0.95730    1.000
    H34      H        0.21040    0.26350    0.89400    1.000
    H35      H        0.25820    0.97350    0.88650    1.000
    H36      H        0.25680    0.89410    0.85300    1.000
    H37      H        0.00460    0.24310    0.82110    1.000
    H38      H        0.09650    0.35380    0.80890    1.000
    H39      H        0.15450    0.26390    0.64340    1.000
    H40      H        0.05970    0.15760    0.65880    1.000
    H41      H        0.16360    0.46700    0.78430    1.000
    H42      H        0.26580    0.56660    0.77440    1.000
    H43      H        0.37930    0.54640    0.70900    1.000
    H44      H        0.27670    0.32570    0.65500    1.000
    H45      H        0.49810    0.30150    0.45890    1.000
    H46      H        0.59010    0.20520    0.41430    1.000
    H47      H        0.70520    0.15650    0.46870    1.000
    H48      H        0.64070    0.30420    0.61040    1.000
    H49      H        0.78580    0.08790    0.53420    1.000
    H50      H        0.88560    0.03620    0.60070    1.000
    H51      H        0.86030    0.23200    0.70730    1.000
    H52      H        0.76350    0.28960    0.64400    1.000
    H53      H        0.47350    0.24180    0.63650    1.000
    H54      H        0.39410    0.24320    0.60300    1.000
    H55      H        0.99540    0.75690    0.32110    1.000
    H56      H        0.90350    0.64620    0.30890    1.000
    H57      H        0.84550    0.73610    0.14340    1.000
    H58      H        0.94030    0.84240    0.15880    1.000
    H59      H        0.83640    0.53300    0.28430    1.000
    H60      H        0.73420    0.43340    0.27440    1.000
    H61      H        0.62070    0.45360    0.20900    1.000
    H62      H        0.72330    0.67430    0.15500    1.000
    H63      H        0.50190    0.69850    0.95890    1.000
    H64      H        0.40990    0.79480    0.91430    1.000
    H65      H        0.29480    0.84350    0.96870    1.000
    H66      H        0.35930    0.69580    0.11040    1.000
    H67      H        0.21420    0.91210    0.03420    1.000
    H68      H        0.11440    0.96380    0.10070    1.000
    H69      H        0.13970    0.76800    0.20730    1.000
    H70      H        0.23650    0.71040    0.14400    1.000
    H71      H        0.52650    0.75820    0.13650    1.000
    H72      H        0.60590    0.75680    0.10300    1.000
    H73      H        0.75690    0.99540    0.67890    1.000
    H74      H        0.64620    0.90350    0.69110    1.000
    H75      H        0.73610    0.84550    0.85660    1.000
    H76      H        0.84240    0.94030    0.84120    1.000
    H77      H        0.53300    0.83640    0.71570    1.000
    H78      H        0.43340    0.73420    0.72560    1.000
    H79      H        0.45360    0.62070    0.79100    1.000
    H80      H        0.67430    0.72330    0.84500    1.000
    H81      H        0.69850    0.50190    0.04110    1.000
    H82      H        0.79480    0.40990    0.08570    1.000
    H83      H        0.84350    0.29480    0.03130    1.000
    H84      H        0.69580    0.35930    0.88960    1.000
    H85      H        0.91210    0.21420    0.96580    1.000
    H86      H        0.96380    0.11440    0.89930    1.000
    H87      H        0.76800    0.13970    0.79270    1.000
    H88      H        0.71040    0.23650    0.85600    1.000
    H89      H        0.75820    0.52650    0.86350    1.000
    H90      H        0.75680    0.60590    0.89700    1.000
    H91      H        0.24310    0.00460    0.17890    1.000
    H92      H        0.35380    0.09650    0.19110    1.000
    H93      H        0.26390    0.15450    0.35660    1.000
    H94      H        0.15760    0.05970    0.34120    1.000
    H95      H        0.46700    0.16360    0.21570    1.000
    H96      H        0.56660    0.26580    0.22560    1.000
    H97      H        0.54640    0.37930    0.29100    1.000
    H98      H        0.32570    0.27670    0.34500    1.000
    H99      H        0.30150    0.49810    0.54110    1.000
    H100     H        0.20520    0.59010    0.58570    1.000
    H101     H        0.15650    0.70520    0.53130    1.000
    H102     H        0.30420    0.64070    0.38960    1.000
    H103     H        0.08790    0.78580    0.46580    1.000
    H104     H        0.03620    0.88560    0.39930    1.000
    H105     H        0.23200    0.86030    0.29270    1.000
    H106     H        0.28960    0.76350    0.35600    1.000
    H107     H        0.24180    0.47350    0.36350    1.000
    H108     H        0.24320    0.39410    0.39700    1.000
    H109     H        0.49540    0.74310    0.42890    1.000
    H110     H        0.40350    0.85380    0.44110    1.000
    H111     H        0.34550    0.76390    0.60660    1.000
    H112     H        0.44030    0.65760    0.59120    1.000
    H113     H        0.33640    0.96700    0.46570    1.000
    H114     H        0.23420    0.06660    0.47560    1.000
    H115     H        0.12070    0.04640    0.54100    1.000
    H116     H        0.22330    0.82570    0.59500    1.000
    H117     H        0.00190    0.80150    0.79110    1.000
    H118     H        0.90990    0.70520    0.83570    1.000
    H119     H        0.79480    0.65650    0.78130    1.000
    H120     H        0.85930    0.80420    0.63960    1.000
    H121     H        0.71420    0.58790    0.71580    1.000
    H122     H        0.61440    0.53620    0.64930    1.000
    H123     H        0.63970    0.73200    0.54270    1.000
    H124     H        0.73650    0.78960    0.60600    1.000
    H125     H        0.02650    0.74180    0.61350    1.000
    H126     H        0.10590    0.74320    0.64700    1.000
    H127     H        0.50460    0.25690    0.92890    1.000
    H128     H        0.59650    0.14620    0.94110    1.000
    H129     H        0.65450    0.23610    0.10660    1.000
    H130     H        0.55970    0.34240    0.09120    1.000
    H131     H        0.66360    0.03300    0.96570    1.000
    H132     H        0.76580    0.93340    0.97560    1.000
    H133     H        0.87930    0.95360    0.04100    1.000
    H134     H        0.77670    0.17430    0.09500    1.000
    H135     H        0.99810    0.19850    0.29110    1.000
    H136     H        0.09010    0.29480    0.33570    1.000
    H137     H        0.20520    0.34350    0.28130    1.000
    H138     H        0.14070    0.19580    0.13960    1.000
    H139     H        0.28580    0.41210    0.21580    1.000
    H140     H        0.38560    0.46380    0.14930    1.000
    H141     H        0.36030    0.26800    0.04270    1.000
    H142     H        0.26350    0.21040    0.10600    1.000
    H143     H        0.97350    0.25820    0.11350    1.000
    H144     H        0.89410    0.25680    0.14700    1.000
    C1       C        0.74700    0.46450    0.53480    1.000
    C2       C        0.81350    0.40810    0.52800    1.000
    C3       C        0.82010    0.35950    0.47640    1.000
    C4       C        0.76060    0.37450    0.43050    1.000
    C5       C        0.69680    0.43200    0.44010    1.000
    C6       C        0.88590    0.29300    0.47020    1.000
    C7       C        0.95860    0.29310    0.50610    1.000
    C8       C        0.01770    0.23110    0.50090    1.000
    C9       C        0.00650    0.16360    0.46130    1.000
    C10      C        0.93350    0.16140    0.42470    1.000
    C11      C        0.87400    0.22530    0.42930    1.000
    C12      C        0.92480    0.09110    0.38121    1.000
    C13      C        0.87430    0.99550    0.31960    1.000
    C14      C        0.81280    0.93860    0.28910    1.000
    C15      C        0.78280    0.95480    0.23040    1.000
    C16      C        0.72460    0.90010    0.20400    1.000
    C17      C        0.69550    0.83100    0.23660    1.000
    C18      C        0.72400    0.81530    0.29610    1.000
    C19      C        0.78360    0.86970    0.32110    1.000
    C20      C        0.69320    0.74280    0.33340    1.000
    C21      C        0.61740    0.70140    0.31990    1.000
    C22      C        0.58670    0.64130    0.36030    1.000
    C23      C        0.70170    0.65600    0.42270    1.000
    C24      C        0.73650    0.71480    0.38510    1.000
    C25      C        0.25300    0.53550    0.03480    1.000
    C26      C        0.18650    0.59190    0.02800    1.000
    C27      C        0.17990    0.64050    0.97640    1.000
    C28      C        0.23940    0.62550    0.93050    1.000
    C29      C        0.30320    0.56800    0.94010    1.000
    C30      C        0.11410    0.70700    0.97020    1.000
    C31      C        0.04140    0.70690    0.00610    1.000
    C32      C        0.98230    0.76890    0.00090    1.000
    C33      C        0.99350    0.83640    0.96130    1.000
    C34      C        0.06650    0.83860    0.92470    1.000
    C35      C        0.12600    0.77470    0.92930    1.000
    C36      C        0.07520    0.90890    0.88121    1.000
    C37      C        0.12570    0.00450    0.81960    1.000
    C38      C        0.18720    0.06140    0.78910    1.000
    C39      C        0.21720    0.04520    0.73040    1.000
    C40      C        0.27540    0.09990    0.70400    1.000
    C41      C        0.30450    0.16900    0.73660    1.000
    C42      C        0.27600    0.18470    0.79610    1.000
    C43      C        0.21640    0.13030    0.82110    1.000
    C44      C        0.30680    0.25720    0.83340    1.000
    C45      C        0.38260    0.29860    0.81990    1.000
    C46      C        0.41330    0.35870    0.86030    1.000
    C47      C        0.29830    0.34400    0.92270    1.000
    C48      C        0.26350    0.28520    0.88510    1.000
    C49      C        0.03550    0.24700    0.78480    1.000
    C50      C        0.09190    0.31350    0.77800    1.000
    C51      C        0.14050    0.32010    0.72640    1.000
    C52      C        0.12550    0.26060    0.68050    1.000
    C53      C        0.06800    0.19680    0.69010    1.000
    C54      C        0.20700    0.38590    0.72020    1.000
    C55      C        0.20690    0.45860    0.75610    1.000
    C56      C        0.26890    0.51770    0.75090    1.000
    C57      C        0.33640    0.50650    0.71130    1.000
    C58      C        0.33860    0.43350    0.67470    1.000
    C59      C        0.27470    0.37400    0.67930    1.000
    C60      C        0.40890    0.42480    0.63121    1.000
    C61      C        0.50450    0.37430    0.56960    1.000
    C62      C        0.56140    0.31280    0.53910    1.000
    C63      C        0.54520    0.28280    0.48040    1.000
    C64      C        0.59990    0.22460    0.45400    1.000
    C65      C        0.66900    0.19550    0.48660    1.000
    C66      C        0.68470    0.22400    0.54610    1.000
    C67      C        0.63030    0.28360    0.57110    1.000
    C68      C        0.75720    0.19320    0.58340    1.000
    C69      C        0.79860    0.11740    0.56990    1.000
    C70      C        0.85870    0.08670    0.61030    1.000
    C71      C        0.84400    0.20170    0.67270    1.000
    C72      C        0.78520    0.23650    0.63510    1.000
    C73      C        0.96450    0.75300    0.28480    1.000
    C74      C        0.90810    0.68650    0.27800    1.000
    C75      C        0.85950    0.67990    0.22640    1.000
    C76      C        0.87450    0.73940    0.18050    1.000
    C77      C        0.93200    0.80320    0.19010    1.000
    C78      C        0.79300    0.61410    0.22020    1.000
    C79      C        0.79310    0.54140    0.25610    1.000
    C80      C        0.73110    0.48230    0.25090    1.000
    C81      C        0.66360    0.49350    0.21130    1.000
    C82      C        0.66140    0.56650    0.17470    1.000
    C83      C        0.72530    0.62600    0.17930    1.000
    C84      C        0.59110    0.57520    0.13121    1.000
    C85      C        0.49550    0.62570    0.06960    1.000
    C86      C        0.43860    0.68720    0.03910    1.000
    C87      C        0.45480    0.71720    0.98040    1.000
    C88      C        0.40010    0.77540    0.95400    1.000
    C89      C        0.33100    0.80450    0.98660    1.000
    C90      C        0.31530    0.77600    0.04610    1.000
    C91      C        0.36970    0.71640    0.07110    1.000
    C92      C        0.24280    0.80680    0.08340    1.000
    C93      C        0.20140    0.88260    0.06990    1.000
    C94      C        0.14130    0.91330    0.11030    1.000
    C95      C        0.15600    0.79830    0.17270    1.000
    C96      C        0.21480    0.76350    0.13510    1.000
    C97      C        0.75300    0.96450    0.71520    1.000
    C98      C        0.68650    0.90810    0.72200    1.000
    C99      C        0.67990    0.85950    0.77360    1.000
    C100     C        0.73940    0.87450    0.81950    1.000
    C101     C        0.80320    0.93200    0.80990    1.000
    C102     C        0.61410    0.79300    0.77980    1.000
    C103     C        0.54140    0.79310    0.74390    1.000
    C104     C        0.48230    0.73110    0.74910    1.000
    C105     C        0.49350    0.66360    0.78870    1.000
    C106     C        0.56650    0.66140    0.82530    1.000
    C107     C        0.62600    0.72530    0.82070    1.000
    C108     C        0.57520    0.59110    0.86879    1.000
    C109     C        0.62570    0.49550    0.93040    1.000
    C110     C        0.68720    0.43860    0.96090    1.000
    C111     C        0.71720    0.45480    0.01960    1.000
    C112     C        0.77540    0.40010    0.04600    1.000
    C113     C        0.80450    0.33100    0.01340    1.000
    C114     C        0.77600    0.31530    0.95390    1.000
    C115     C        0.71640    0.36970    0.92890    1.000
    C116     C        0.80680    0.24280    0.91660    1.000
    C117     C        0.88260    0.20140    0.93010    1.000
    C118     C        0.91330    0.14130    0.88970    1.000
    C119     C        0.79830    0.15600    0.82730    1.000
    C120     C        0.76350    0.21480    0.86490    1.000
    C121     C        0.24700    0.03550    0.21520    1.000
    C122     C        0.31350    0.09190    0.22200    1.000
    C123     C        0.32010    0.14050    0.27360    1.000
    C124     C        0.26060    0.12550    0.31950    1.000
    C125     C        0.19680    0.06800    0.30990    1.000
    C126     C        0.38590    0.20700    0.27980    1.000
    C127     C        0.45860    0.20690    0.24390    1.000
    C128     C        0.51770    0.26890    0.24910    1.000
    C129     C        0.50650    0.33640    0.28870    1.000
    C130     C        0.43350    0.33860    0.32530    1.000
    C131     C        0.37400    0.27470    0.32070    1.000
    C132     C        0.42480    0.40890    0.36879    1.000
    C133     C        0.37430    0.50450    0.43040    1.000
    C134     C        0.31280    0.56140    0.46090    1.000
    C135     C        0.28280    0.54520    0.51960    1.000
    C136     C        0.22460    0.59990    0.54600    1.000
    C137     C        0.19550    0.66900    0.51340    1.000
    C138     C        0.22400    0.68470    0.45390    1.000
    C139     C        0.28360    0.63030    0.42890    1.000
    C140     C        0.19320    0.75720    0.41660    1.000
    C141     C        0.11740    0.79860    0.43010    1.000
    C142     C        0.08670    0.85870    0.38970    1.000
    C143     C        0.20170    0.84400    0.32730    1.000
    C144     C        0.23650    0.78520    0.36490    1.000
    C145     C        0.46450    0.74700    0.46520    1.000
    C146     C        0.40810    0.81350    0.47200    1.000
    C147     C        0.35950    0.82010    0.52360    1.000
    C148     C        0.37450    0.76060    0.56950    1.000
    C149     C        0.43200    0.69680    0.55990    1.000
    C150     C        0.29300    0.88590    0.52980    1.000
    C151     C        0.29310    0.95860    0.49390    1.000
    C152     C        0.23110    0.01770    0.49910    1.000
    C153     C        0.16360    0.00650    0.53870    1.000
    C154     C        0.16140    0.93350    0.57530    1.000
    C155     C        0.22530    0.87400    0.57070    1.000
    C156     C        0.09110    0.92480    0.61879    1.000
    C157     C        0.99550    0.87430    0.68040    1.000
    C158     C        0.93860    0.81280    0.71090    1.000
    C159     C        0.95480    0.78280    0.76960    1.000
    C160     C        0.90010    0.72460    0.79600    1.000
    C161     C        0.83100    0.69550    0.76340    1.000
    C162     C        0.81530    0.72400    0.70390    1.000
    C163     C        0.86970    0.78360    0.67890    1.000
    C164     C        0.74280    0.69320    0.66660    1.000
    C165     C        0.70140    0.61740    0.68010    1.000
    C166     C        0.64130    0.58670    0.63970    1.000
    C167     C        0.65600    0.70170    0.57730    1.000
    C168     C        0.71480    0.73650    0.61490    1.000
    C169     C        0.53550    0.25300    0.96520    1.000
    C170     C        0.59190    0.18650    0.97200    1.000
    C171     C        0.64050    0.17990    0.02360    1.000
    C172     C        0.62550    0.23940    0.06950    1.000
    C173     C        0.56800    0.30320    0.05990    1.000
    C174     C        0.70700    0.11410    0.02980    1.000
    C175     C        0.70690    0.04140    0.99390    1.000
    C176     C        0.76890    0.98230    0.99910    1.000
    C177     C        0.83640    0.99350    0.03870    1.000
    C178     C        0.83860    0.06650    0.07530    1.000
    C179     C        0.77470    0.12600    0.07070    1.000
    C180     C        0.90890    0.07520    0.11879    1.000
    C181     C        0.00450    0.12570    0.18040    1.000
    C182     C        0.06140    0.18720    0.21090    1.000
    C183     C        0.04520    0.21720    0.26960    1.000
    C184     C        0.09990    0.27540    0.29600    1.000
    C185     C        0.16900    0.30450    0.26340    1.000
    C186     C        0.18470    0.27600    0.20390    1.000
    C187     C        0.13030    0.21640    0.17890    1.000
    C188     C        0.25720    0.30680    0.16660    1.000
    C189     C        0.29860    0.38260    0.18010    1.000
    C190     C        0.35870    0.41330    0.13970    1.000
    C191     C        0.34400    0.29830    0.07730    1.000
    C192     C        0.28520    0.26350    0.11490    1.000
    N1       N        0.68830    0.47630    0.49135    1.000
    N2       N        0.98880    0.05400    0.35495    1.000
    N3       N        0.95620    0.99330    0.31633    1.000
    N4       N        0.85170    0.05640    0.36001    1.000
    N5       N        0.76980    0.07460    0.38090    1.000
    N6       N        0.62620    0.61990    0.41295    1.000
    N7       N        0.31170    0.52370    0.99135    1.000
    N8       N        0.01120    0.94600    0.85495    1.000
    N9       N        0.04380    0.00670    0.81633    1.000
    N10      N        0.14830    0.94360    0.86001    1.000
    N11      N        0.23020    0.92540    0.88090    1.000
    N12      N        0.37380    0.38010    0.91295    1.000
    N13      N        0.02370    0.18830    0.74135    1.000
    N14      N        0.44600    0.48880    0.60495    1.000
    N15      N        0.50670    0.45620    0.56633    1.000
    N16      N        0.44360    0.35170    0.61001    1.000
    N17      N        0.42540    0.26980    0.63090    1.000
    N18      N        0.88010    0.12620    0.66295    1.000
    N19      N        0.97630    0.81170    0.24135    1.000
    N20      N        0.55400    0.51120    0.10495    1.000
    N21      N        0.49330    0.54380    0.06633    1.000
    N22      N        0.55640    0.64830    0.11001    1.000
    N23      N        0.57460    0.73020    0.13090    1.000
    N24      N        0.11990    0.87380    0.16295    1.000
    N25      N        0.81170    0.97630    0.75865    1.000
    N26      N        0.51120    0.55400    0.89505    1.000
    N27      N        0.54380    0.49330    0.93367    1.000
    N28      N        0.64830    0.55640    0.88999    1.000
    N29      N        0.73020    0.57460    0.86910    1.000
    N30      N        0.87380    0.11990    0.83705    1.000
    N31      N        0.18830    0.02370    0.25865    1.000
    N32      N        0.48880    0.44600    0.39505    1.000
    N33      N        0.45620    0.50670    0.43367    1.000
    N34      N        0.35170    0.44360    0.38999    1.000
    N35      N        0.26980    0.42540    0.36910    1.000
    N36      N        0.12620    0.88010    0.33705    1.000
    N37      N        0.47630    0.68830    0.50865    1.000
    N38      N        0.05400    0.98880    0.64505    1.000
    N39      N        0.99330    0.95620    0.68367    1.000
    N40      N        0.05640    0.85170    0.63999    1.000
    N41      N        0.07460    0.76980    0.61910    1.000
    N42      N        0.61990    0.62620    0.58705    1.000
    N43      N        0.52370    0.31170    0.00865    1.000
    N44      N        0.94600    0.01120    0.14505    1.000
    N45      N        0.00670    0.04380    0.18367    1.000
    N46      N        0.94360    0.14830    0.13999    1.000
    N47      N        0.92540    0.23020    0.11910    1.000
    N48      N        0.38010    0.37380    0.08705    1.000
    Cl1      Cl       0.62647    0.37353    0.75000    1.000
    O1       O        0.63130    0.44300    0.78800    1.000
    O2       O        0.66870    0.40590    0.69940    1.000
    O3       O        0.55700    0.36870    0.71200    1.000
    O4       O        0.59410    0.33130    0.80060    1.000
    Cl2      Cl       0.37353    0.62647    0.25000    1.000
    O5       O        0.36870    0.55700    0.28800    1.000
    O6       O        0.33130    0.59410    0.19940    1.000
    O7       O        0.44300    0.63130    0.21200    1.000
    O8       O        0.40590    0.66870    0.30060    1.000
    Cl3      Cl       0.12647    0.12647    0.00000    1.000
    O9       O        0.05700    0.13130    0.03800    1.000
    O10      O        0.09410    0.16870    0.94940    1.000
    O11      O        0.13130    0.05700    0.96200    1.000
    O12      O        0.16870    0.09410    0.05060    1.000
    Cl4      Cl       0.87353    0.87353    0.50000    1.000
    O13      O        0.94300    0.86870    0.53800    1.000
    O14      O        0.90590    0.83130    0.44940    1.000
    O15      O        0.86870    0.94300    0.46200    1.000
    O16      O        0.83130    0.90590    0.55060    1.000
