# CIF file generated by openbabel 3.1.0, see https://openbabel.org
data_I
_chemical_name_common 'image0'
_cell_length_a 21.628
_cell_length_b 13.998
_cell_length_c 8.945
_cell_angle_alpha 90
_cell_angle_beta 90
_cell_angle_gamma 90
_space_group_name_H-M_alt 'P 1'
_space_group_name_Hall 'P 1'
loop_
    _symmetry_equiv_pos_as_xyz
    x,y,z
loop_
    _atom_site_label
    _atom_site_type_symbol
    _atom_site_fract_x
    _atom_site_fract_y
    _atom_site_fract_z
    _atom_site_occupancy
    N1       N        0.06320    0.28460    0.05300    1.000
    N2       N        0.20180    0.35810    0.06280    1.000
    C1       C        0.03260    0.29460    0.95260    1.000
    C2       C        0.22520    0.38710    0.95680    1.000
    N3       N        0.43680    0.78460    0.94700    1.000
    N4       N        0.29820    0.85810    0.93720    1.000
    C3       C        0.46740    0.79460    0.04740    1.000
    C4       C        0.27480    0.88710    0.04320    1.000
    N5       N        0.93680    0.71540    0.55300    1.000
    N6       N        0.79820    0.64190    0.56280    1.000
    C5       C        0.96740    0.70540    0.45260    1.000
    C6       C        0.77480    0.61290    0.45680    1.000
    N7       N        0.56320    0.21540    0.44700    1.000
    N8       N        0.70180    0.14190    0.43720    1.000
    C7       C        0.53260    0.20540    0.54740    1.000
    C8       C        0.72520    0.11290    0.54320    1.000
    N9       N        0.93680    0.71540    0.94700    1.000
    N10      N        0.79820    0.64190    0.93720    1.000
    C9       C        0.96740    0.70540    0.04740    1.000
    C10      C        0.77480    0.61290    0.04320    1.000
    N11      N        0.56320    0.21540    0.05300    1.000
    N12      N        0.70180    0.14190    0.06280    1.000
    C11      C        0.53260    0.20540    0.95260    1.000
    C12      C        0.72520    0.11290    0.95680    1.000
    N13      N        0.06320    0.28460    0.44700    1.000
    N14      N        0.20180    0.35810    0.43720    1.000
    C13      C        0.03260    0.29460    0.54740    1.000
    C14      C        0.22520    0.38710    0.54320    1.000
    N15      N        0.43680    0.78460    0.55300    1.000
    N16      N        0.29820    0.85810    0.56280    1.000
    C15      C        0.46740    0.79460    0.45260    1.000
    C16      C        0.27480    0.88710    0.45680    1.000
    Cd1      Cd       0.13000    0.31264    0.25000    1.000
    N17      N        0.09490    0.46910    0.25000    1.000
    N18      N        0.16780    0.15420    0.25000    1.000
    C17      C        0.06950    0.53850    0.25000    1.000
    C18      C        0.18770    0.07850    0.25000    1.000
    Cd2      Cd       0.37000    0.81264    0.75000    1.000
    N19      N        0.40510    0.96910    0.75000    1.000
    N20      N        0.33220    0.65420    0.75000    1.000
    C19      C        0.43050    0.03850    0.75000    1.000
    C20      C        0.31230    0.57850    0.75000    1.000
    Cd3      Cd       0.87000    0.68736    0.75000    1.000
    N21      N        0.90510    0.53090    0.75000    1.000
    N22      N        0.83220    0.84580    0.75000    1.000
    C21      C        0.93050    0.46150    0.75000    1.000
    C22      C        0.81230    0.92150    0.75000    1.000
    Cd4      Cd       0.63000    0.18736    0.25000    1.000
    N23      N        0.59490    0.03090    0.25000    1.000
    N24      N        0.66780    0.34580    0.25000    1.000
    C23      C        0.56950    0.96150    0.25000    1.000
    C24      C        0.68770    0.42150    0.25000    1.000
    Cd5      Cd       0.27139    0.43390    0.75000    1.000
    Cd6      Cd       0.97510    0.31989    0.75000    1.000
    C25      C        0.89430    0.21910    0.75000    1.000
    C26      C        0.35310    0.33210    0.75000    1.000
    Cd7      Cd       0.22861    0.93390    0.25000    1.000
    Cd8      Cd       0.52490    0.81989    0.25000    1.000
    C27      C        0.60570    0.71910    0.25000    1.000
    C28      C        0.14690    0.83210    0.25000    1.000
    Cd9      Cd       0.72861    0.56610    0.25000    1.000
    Cd10     Cd       0.02490    0.68011    0.25000    1.000
    C29      C        0.10570    0.78090    0.25000    1.000
    C30      C        0.64690    0.66790    0.25000    1.000
    Cd11     Cd       0.77139    0.06610    0.75000    1.000
    Cd12     Cd       0.47510    0.18011    0.75000    1.000
    C31      C        0.39430    0.28090    0.75000    1.000
    C32      C        0.85310    0.16790    0.75000    1.000
