# CIF file generated by openbabel 3.1.0, see https://openbabel.org
data_I
_chemical_name_common 'ZIHTEP_clean'
_cell_length_a 8.118
_cell_length_b 11.568
_cell_length_c 14.244
_cell_angle_alpha 94.64
_cell_angle_beta 97.44
_cell_angle_gamma 103
_space_group_name_H-M_alt 'P 1'
_space_group_name_Hall 'P 1'
loop_
    _symmetry_equiv_pos_as_xyz
    x,y,z
loop_
    _atom_site_label
    _atom_site_type_symbol
    _atom_site_fract_x
    _atom_site_fract_y
    _atom_site_fract_z
    _atom_site_occupancy
    Li1      Li       0.46100    0.92100    0.41400    1.000
    Li2      Li       0.84200    0.41300    0.22800    1.000
    Li3      Li       0.93100    0.23900    0.10600    1.000
    Li4      Li       0.53900    0.07900    0.58600    1.000
    Li5      Li       0.15800    0.58700    0.77200    1.000
    Li6      Li       0.06900    0.76100    0.89400    1.000
    Co1      Co       0.88690    0.83290    0.20570    1.000
    Co2      Co       0.11310    0.16710    0.79430    1.000
    H1       H        0.66490    0.11220    0.19340    1.000
    H2       H        0.36900    0.99230    0.19490    1.000
    H3       H        0.25740    0.98290    0.09630    1.000
    H4       H        0.43100    0.94670    0.10340    1.000
    H5       H        0.42970    0.20670    0.01150    1.000
    H6       H        0.25850    0.14540    0.04310    1.000
    H7       H        0.37370    0.26050    0.10200    1.000
    H8       H        0.36100    0.11320    0.33610    1.000
    H9       H        0.58680    0.42500    0.48180    1.000
    H10      H        0.53350    0.32050    0.54180    1.000
    H11      H        0.68900    0.32680    0.48790    1.000
    H12      H        0.41950    0.32370    0.27130    1.000
    H13      H        0.26510    0.31600    0.32630    1.000
    H14      H        0.42300    0.42330    0.35180    1.000
    H15      H        0.13540    0.42220    0.04250    1.000
    H16      H        0.36570    0.68180    0.22930    1.000
    H17      H        0.17240    0.63310    0.23260    1.000
    H18      H        0.30290    0.56090    0.26850    1.000
    H19      H        0.43020    0.57090    0.04830    1.000
    H20      H        0.29360    0.64270    0.02320    1.000
    H21      H        0.43580    0.68860    0.11050    1.000
    H22      H        0.33510    0.88780    0.80660    1.000
    H23      H        0.63100    0.00770    0.80510    1.000
    H24      H        0.74260    0.01710    0.90370    1.000
    H25      H        0.56900    0.05330    0.89660    1.000
    H26      H        0.57030    0.79330    0.98850    1.000
    H27      H        0.74150    0.85460    0.95690    1.000
    H28      H        0.62630    0.73950    0.89800    1.000
    H29      H        0.63900    0.88680    0.66390    1.000
    H30      H        0.41320    0.57500    0.51820    1.000
    H31      H        0.46650    0.67950    0.45820    1.000
    H32      H        0.31100    0.67320    0.51210    1.000
    H33      H        0.58050    0.67630    0.72870    1.000
    H34      H        0.73490    0.68400    0.67370    1.000
    H35      H        0.57700    0.57670    0.64820    1.000
    H36      H        0.86460    0.57780    0.95750    1.000
    H37      H        0.63430    0.31820    0.77070    1.000
    H38      H        0.82760    0.36690    0.76740    1.000
    H39      H        0.69710    0.43910    0.73150    1.000
    H40      H        0.56980    0.42910    0.95170    1.000
    H41      H        0.70640    0.35730    0.97680    1.000
    H42      H        0.56420    0.31140    0.88950    1.000
    C1       C        0.93300    0.99900    0.18460    1.000
    C2       C        0.98600    0.80000    0.09900    1.000
    C3       C        0.81400    0.66500    0.21100    1.000
    C4       C        0.73800    0.86300    0.29320    1.000
    C5       C        0.10100    0.85700    0.29800    1.000
    C6       C        0.61400    0.16400    0.15700    1.000
    C7       C        0.37100    0.00000    0.12900    1.000
    C8       C        0.37300    0.18800    0.06500    1.000
    C9       C        0.43500    0.15500    0.39200    1.000
    C10      C        0.57900    0.34200    0.48600    1.000
    C11      C        0.38600    0.34000    0.33200    1.000
    C12      C        0.14400    0.45800    0.10600    1.000
    C13      C        0.27600    0.61200    0.22300    1.000
    C14      C        0.36300    0.62000    0.07400    1.000
    C15      C        0.06700    0.00100    0.81540    1.000
    C16      C        0.01400    0.20000    0.90100    1.000
    C17      C        0.18600    0.33500    0.78900    1.000
    C18      C        0.26200    0.13700    0.70680    1.000
    C19      C        0.89900    0.14300    0.70200    1.000
    C20      C        0.38600    0.83600    0.84300    1.000
    C21      C        0.62900    0.00000    0.87100    1.000
    C22      C        0.62700    0.81200    0.93500    1.000
    C23      C        0.56500    0.84500    0.60800    1.000
    C24      C        0.42100    0.65800    0.51400    1.000
    C25      C        0.61400    0.66000    0.66800    1.000
    C26      C        0.85600    0.54200    0.89400    1.000
    C27      C        0.72400    0.38800    0.77700    1.000
    C28      C        0.63700    0.38000    0.92600    1.000
    N1       N        0.96600    0.09800    0.16950    1.000
    N2       N        0.03900    0.77800    0.02940    1.000
    N3       N        0.77200    0.56400    0.21340    1.000
    N4       N        0.64300    0.88100    0.34350    1.000
    N5       N        0.22800    0.86800    0.34630    1.000
    N6       N        0.45600    0.12100    0.11900    1.000
    N7       N        0.46600    0.27300    0.40260    1.000
    N8       N        0.25600    0.55300    0.13330    1.000
    N9       N        0.03400    0.90200    0.83050    1.000
    N10      N        0.96100    0.22200    0.97060    1.000
    N11      N        0.22800    0.43600    0.78660    1.000
    N12      N        0.35700    0.11900    0.65650    1.000
    N13      N        0.77200    0.13200    0.65370    1.000
    N14      N        0.54400    0.87900    0.88100    1.000
    N15      N        0.53400    0.72700    0.59740    1.000
    N16      N        0.74400    0.44700    0.86670    1.000
    O1       O        0.70700    0.26240    0.15270    1.000
    O2       O        0.49400    0.09720    0.44850    1.000
    O3       O        0.04000    0.40600    0.16150    1.000
    O4       O        0.29300    0.73760    0.84730    1.000
    O5       O        0.50600    0.90280    0.55150    1.000
    O6       O        0.96000    0.59400    0.83850    1.000
