# CIF file generated by openbabel 3.1.0, see https://openbabel.org
data_I
_chemical_name_common 'image0'
_cell_length_a 17.8491
_cell_length_b 12.6534
_cell_length_c 11.1984
_cell_angle_alpha 90
_cell_angle_beta 94.865
_cell_angle_gamma 90
_space_group_name_H-M_alt 'P 1'
_space_group_name_Hall 'P 1'
loop_
    _symmetry_equiv_pos_as_xyz
    x,y,z
loop_
    _atom_site_label
    _atom_site_type_symbol
    _atom_site_fract_x
    _atom_site_fract_y
    _atom_site_fract_z
    _atom_site_occupancy
    Co1      Co       0.42123    0.55902    0.50044    1.000
    N1       N        0.87397    0.93480    0.16210    1.000
    N2       N        0.91073    0.98300    0.25580    1.000
    N3       N        0.87738    0.97050    0.35590    1.000
    C1       C        0.81170    0.88750    0.20510    1.000
    C2       C        0.81490    0.91040    0.32790    1.000
    C3       C        0.75980    0.87310    0.40030    1.000
    H1       H        0.76210    0.88790    0.48280    1.000
    C4       C        0.70300    0.81440    0.34500    1.000
    H2       H        0.66550    0.78800    0.39110    1.000
    C5       C        0.69830    0.79150    0.22020    1.000
    C6       C        0.75280    0.82700    0.14920    1.000
    H3       H        0.75050    0.81130    0.06690    1.000
    C7       C        0.63310    0.72600    0.16860    1.000
    O1       O        0.52009    0.58010    0.43200    1.000
    H4       H        0.54300    0.64100    0.46500    1.000
    O2       O        0.63617    0.68970    0.06330    1.000
    O3       O        0.58104    0.71170    0.23490    1.000
    Co2      Co       0.92123    0.05902    0.50044    1.000
    N4       N        0.37397    0.43480    0.16210    1.000
    N5       N        0.41073    0.48300    0.25580    1.000
    N6       N        0.37738    0.47050    0.35590    1.000
    C8       C        0.31170    0.38750    0.20510    1.000
    C9       C        0.31490    0.41040    0.32790    1.000
    C10      C        0.25980    0.37310    0.40030    1.000
    H5       H        0.26210    0.38790    0.48280    1.000
    C11      C        0.20300    0.31440    0.34500    1.000
    H6       H        0.16550    0.28800    0.39110    1.000
    C12      C        0.19830    0.29150    0.22020    1.000
    C13      C        0.25280    0.32700    0.14920    1.000
    H7       H        0.25050    0.31130    0.06690    1.000
    C14      C        0.13310    0.22600    0.16860    1.000
    O4       O        0.02009    0.08010    0.43200    1.000
    H8       H        0.04300    0.14100    0.46500    1.000
    O5       O        0.13617    0.18970    0.06330    1.000
    O6       O        0.08104    0.21170    0.23490    1.000
    Co3      Co       0.57877    0.55902    0.99956    1.000
    N7       N        0.12603    0.93480    0.33790    1.000
    N8       N        0.08927    0.98300    0.24420    1.000
    N9       N        0.12262    0.97050    0.14410    1.000
    C15      C        0.18830    0.88750    0.29490    1.000
    C16      C        0.18510    0.91040    0.17210    1.000
    C17      C        0.24020    0.87310    0.09970    1.000
    H9       H        0.23790    0.88790    0.01720    1.000
    C18      C        0.29700    0.81440    0.15500    1.000
    H10      H        0.33450    0.78800    0.10890    1.000
    C19      C        0.30170    0.79150    0.27980    1.000
    C20      C        0.24720    0.82700    0.35080    1.000
    H11      H        0.24950    0.81130    0.43310    1.000
    C21      C        0.36690    0.72600    0.33140    1.000
    O7       O        0.47991    0.58010    0.06800    1.000
    H12      H        0.45700    0.64100    0.03500    1.000
    O8       O        0.36383    0.68970    0.43670    1.000
    O9       O        0.41896    0.71170    0.26510    1.000
    Co4      Co       0.07877    0.05902    0.99956    1.000
    N10      N        0.62603    0.43480    0.33790    1.000
    N11      N        0.58927    0.48300    0.24420    1.000
    N12      N        0.62262    0.47050    0.14410    1.000
    C22      C        0.68830    0.38750    0.29490    1.000
    C23      C        0.68510    0.41040    0.17210    1.000
    C24      C        0.74020    0.37310    0.09970    1.000
    H13      H        0.73790    0.38790    0.01720    1.000
    C25      C        0.79700    0.31440    0.15500    1.000
    H14      H        0.83450    0.28800    0.10890    1.000
    C26      C        0.80170    0.29150    0.27980    1.000
    C27      C        0.74720    0.32700    0.35080    1.000
    H15      H        0.74950    0.31130    0.43310    1.000
    C28      C        0.86690    0.22600    0.33140    1.000
    O10      O        0.97991    0.08010    0.06800    1.000
    H16      H        0.95700    0.14100    0.03500    1.000
    O11      O        0.86383    0.18970    0.43670    1.000
    O12      O        0.91896    0.21170    0.26510    1.000
    Co5      Co       0.57877    0.44098    0.49956    1.000
    N13      N        0.12603    0.06520    0.83790    1.000
    N14      N        0.08927    0.01700    0.74420    1.000
    N15      N        0.12262    0.02950    0.64410    1.000
    C29      C        0.18830    0.11250    0.79490    1.000
    C30      C        0.18510    0.08960    0.67210    1.000
    C31      C        0.24020    0.12690    0.59970    1.000
    H17      H        0.23790    0.11210    0.51720    1.000
    C32      C        0.29700    0.18560    0.65500    1.000
    H18      H        0.33450    0.21200    0.60890    1.000
    C33      C        0.30170    0.20850    0.77980    1.000
    C34      C        0.24720    0.17300    0.85080    1.000
    H19      H        0.24950    0.18870    0.93310    1.000
    C35      C        0.36690    0.27400    0.83140    1.000
    O13      O        0.47991    0.41990    0.56800    1.000
    H20      H        0.45700    0.35900    0.53500    1.000
    O14      O        0.36383    0.31030    0.93670    1.000
    O15      O        0.41896    0.28830    0.76510    1.000
    Co6      Co       0.07877    0.94098    0.49956    1.000
    N16      N        0.62603    0.56520    0.83790    1.000
    N17      N        0.58927    0.51700    0.74420    1.000
    N18      N        0.62262    0.52950    0.64410    1.000
    C36      C        0.68830    0.61250    0.79490    1.000
    C37      C        0.68510    0.58960    0.67210    1.000
    C38      C        0.74020    0.62690    0.59970    1.000
    H21      H        0.73790    0.61210    0.51720    1.000
    C39      C        0.79700    0.68560    0.65500    1.000
    H22      H        0.83450    0.71200    0.60890    1.000
    C40      C        0.80170    0.70850    0.77980    1.000
    C41      C        0.74720    0.67300    0.85080    1.000
    H23      H        0.74950    0.68870    0.93310    1.000
    C42      C        0.86690    0.77400    0.83140    1.000
    O16      O        0.97991    0.91990    0.56800    1.000
    H24      H        0.95700    0.85900    0.53500    1.000
    O17      O        0.86383    0.81030    0.93670    1.000
    O18      O        0.91896    0.78830    0.76510    1.000
    Co7      Co       0.42123    0.44098    0.00044    1.000
    N19      N        0.87397    0.06520    0.66210    1.000
    N20      N        0.91073    0.01700    0.75580    1.000
    N21      N        0.87738    0.02950    0.85590    1.000
    C43      C        0.81170    0.11250    0.70510    1.000
    C44      C        0.81490    0.08960    0.82790    1.000
    C45      C        0.75980    0.12690    0.90030    1.000
    H25      H        0.76210    0.11210    0.98280    1.000
    C46      C        0.70300    0.18560    0.84500    1.000
    H26      H        0.66550    0.21200    0.89110    1.000
    C47      C        0.69830    0.20850    0.72020    1.000
    C48      C        0.75280    0.17300    0.64920    1.000
    H27      H        0.75050    0.18870    0.56690    1.000
    C49      C        0.63310    0.27400    0.66860    1.000
    O19      O        0.52009    0.41990    0.93200    1.000
    H28      H        0.54300    0.35900    0.96500    1.000
    O20      O        0.63617    0.31030    0.56330    1.000
    O21      O        0.58104    0.28830    0.73490    1.000
    Co8      Co       0.92123    0.94098    0.00044    1.000
    N22      N        0.37397    0.56520    0.66210    1.000
    N23      N        0.41073    0.51700    0.75580    1.000
    N24      N        0.37738    0.52950    0.85590    1.000
    C50      C        0.31170    0.61250    0.70510    1.000
    C51      C        0.31490    0.58960    0.82790    1.000
    C52      C        0.25980    0.62690    0.90030    1.000
    H29      H        0.26210    0.61210    0.98280    1.000
    C53      C        0.20300    0.68560    0.84500    1.000
    H30      H        0.16550    0.71200    0.89110    1.000
    C54      C        0.19830    0.70850    0.72020    1.000
    C55      C        0.25280    0.67300    0.64920    1.000
    H31      H        0.25050    0.68870    0.56690    1.000
    C56      C        0.13310    0.77400    0.66860    1.000
    O22      O        0.02009    0.91990    0.93200    1.000
    H32      H        0.04300    0.85900    0.96500    1.000
    O23      O        0.13617    0.81030    0.56330    1.000
    O24      O        0.08104    0.78830    0.73490    1.000
    Co9      Co       0.50000    0.59553    0.25000    1.000
    Co10     Co       0.00000    0.09553    0.25000    1.000
    Co11     Co       0.50000    0.40447    0.75000    1.000
    Co12     Co       0.00000    0.90447    0.75000    1.000
