# CIF file generated by openbabel 3.1.0, see https://openbabel.org
data_I
_chemical_name_common 'image0'
_cell_length_a 7.973
_cell_length_b 8.423
_cell_length_c 8.834
_cell_angle_alpha 116.834
_cell_angle_beta 100.992
_cell_angle_gamma 103.428
_space_group_name_H-M_alt 'P 1'
_space_group_name_Hall 'P 1'
loop_
    _symmetry_equiv_pos_as_xyz
    x,y,z
loop_
    _atom_site_label
    _atom_site_type_symbol
    _atom_site_fract_x
    _atom_site_fract_y
    _atom_site_fract_z
    _atom_site_occupancy
    Ga1      Ga       0.67761    0.27979    0.31353    1.000
    Ga2      Ga       0.23079    0.46236    0.00653    1.000
    P1       P        0.45955    0.19027    0.91224    1.000
    P2       P        0.96110    0.50767    0.73468    1.000
    C1       C        0.55850    0.58270    0.49610    1.000
    O1       O        0.67350    0.55440    0.41950    1.000
    O2       O        0.52710    0.73520    0.57160    1.000
    O3       O        0.49480    0.21200    0.09590    1.000
    O4       O        0.36860    0.98330    0.75740    1.000
    O5       O        0.32970    0.29350    0.88500    1.000
    O6       O        0.63630    0.28300    0.88770    1.000
    O7       O        0.02520    0.39920    0.82450    1.000
    O8       O        0.83060    0.59170    0.82810    1.000
    O9       O        0.85510    0.35630    0.53930    1.000
    O10      O        0.12210    0.67140    0.76990    1.000
    Ga3      Ga       0.32239    0.72021    0.68647    1.000
    Ga4      Ga       0.76921    0.53764    0.99347    1.000
    P3       P        0.54045    0.80973    0.08776    1.000
    P4       P        0.03890    0.49233    0.26532    1.000
    C2       C        0.44150    0.41730    0.50390    1.000
    O11      O        0.32650    0.44560    0.58050    1.000
    O12      O        0.47290    0.26480    0.42840    1.000
    O13      O        0.50520    0.78800    0.90410    1.000
    O14      O        0.63140    0.01670    0.24260    1.000
    O15      O        0.67030    0.70650    0.11500    1.000
    O16      O        0.36370    0.71700    0.11230    1.000
    O17      O        0.97480    0.60080    0.17550    1.000
    O18      O        0.16940    0.40830    0.17190    1.000
    O19      O        0.14490    0.64370    0.46070    1.000
    O20      O        0.87790    0.32860    0.23010    1.000
