data_functionalizedCrystal
_audit_creation_method	'EQeq! by Chris Wilmer'
_symmetry_space_group_name_H-M	'P1'
_symmetry_Int_Tables_number	1
_symmetry_cell_setting	triclinic
loop_
_symmetry_equiv_pos_as_xyz
  x,y,z
_cell_length_a	35.3278
_cell_length_b	35.3278
_cell_length_c	20.1184
_cell_angle_alpha	90
_cell_angle_beta	90
_cell_angle_gamma	120
loop_
_atom_site_label
_atom_site_type_symbol
_atom_site_fract_x
_atom_site_fract_y
_atom_site_fract_z
_atom_site_charge
Mof_O 	O 	0.52432	0.55356	0.42468	-0.398
Mof_O 	O 	0.51128	0.56666	0.53041	-0.41
Mof_C 	C 	0.5225	0.57757	0.47191	0.345
Mof_C 	C 	0.53696	0.62421	0.4509	-0.1
Mof_C 	C 	0.5354	0.65256	0.49964	0.035
Mof_H 	H 	0.525	0.6426	0.5433	0.032
Mof_C 	C 	0.54986	0.69585	0.48051	-0.12
Mof_H 	H 	0.5487	0.7154	0.5119	0.081
Mof_C 	C 	0.56553	0.71086	0.4182	0.086
Mof_C 	C 	0.56523	0.68171	0.36853	-0.121
Mof_H 	H 	0.5741	0.6913	0.3242	0.073
Mof_C 	C 	0.55143	0.63856	0.38748	0.04
Mof_H 	H 	0.5521	0.6189	0.3559	0.033
Mof_C 	C 	0.58451	0.75787	0.39977	-0.052
Mof_C 	C 	0.62383	0.77841	0.36649	-0.05
Mof_H 	H 	0.6375	0.7619	0.3557	0.048
Mof_H 	H 	0.4838	0.7189	0.3702	0.003
Mof_H 	H 	0.4512	0.7482	0.4842	0.158
Mof_O 	O 	0.19099	0.88689	0.75801	-0.398
Mof_O 	O 	0.17795	0.89999	0.86374	-0.41
Mof_C 	C 	0.18917	0.9109	0.80524	0.345
Mof_C 	C 	0.20363	0.95754	0.78423	-0.1
Mof_C 	C 	0.20207	0.98589	0.83297	0.035
Mof_H 	H 	0.19167	0.97593	0.87663	0.032
Mof_C 	C 	0.21653	0.02918	0.81384	-0.12
Mof_H 	H 	0.21537	0.04873	0.84523	0.081
Mof_C 	C 	0.2322	0.04419	0.75153	0.086
Mof_C 	C 	0.2319	0.01504	0.70186	-0.121
Mof_H 	H 	0.24077	0.02463	0.65753	0.073
Mof_C 	C 	0.2181	0.97189	0.72081	0.04
Mof_H 	H 	0.21877	0.95223	0.68923	0.033
Mof_C 	C 	0.25118	0.0912	0.7331	-0.052
Mof_C 	C 	0.2905	0.11174	0.69982	-0.05
Mof_H 	H 	0.30417	0.09523	0.68903	0.048
Mof_H 	H 	0.15047	0.05223	0.70353	0.003
Mof_H 	H 	0.11787	0.08153	0.81753	0.158
Mof_O 	O 	0.85765	0.22023	0.09135	-0.398
Mof_O 	O 	0.84461	0.23333	0.19708	-0.41
Mof_C 	C 	0.85583	0.24424	0.13858	0.345
Mof_C 	C 	0.87029	0.29088	0.11757	-0.1
Mof_C 	C 	0.86873	0.31923	0.16631	0.035
Mof_H 	H 	0.85833	0.30927	0.20997	0.032
Mof_C 	C 	0.88319	0.36252	0.14718	-0.12
Mof_H 	H 	0.88203	0.38207	0.17857	0.081
Mof_C 	C 	0.89886	0.37753	0.08487	0.086
Mof_C 	C 	0.89856	0.34838	0.0352	-0.121
Mof_H 	H 	0.90743	0.35797	0.99087	0.073
Mof_C 	C 	0.88476	0.30523	0.05415	0.04
Mof_H 	H 	0.88543	0.28557	0.02257	0.033
Mof_C 	C 	0.91784	0.42454	0.06644	-0.052
Mof_C 	C 	0.95716	0.44508	0.03316	-0.05
Mof_H 	H 	0.97083	0.42857	0.02237	0.048
Mof_H 	H 	0.81713	0.38557	0.03687	0.003
Mof_H 	H 	0.78453	0.41487	0.15087	0.158
Mof_O 	O 	0.44644	0.97076	0.42468	-0.398
Mof_O 	O 	0.43334	0.94462	0.53041	-0.41
Mof_C 	C 	0.42243	0.94493	0.47191	0.345
Mof_C 	C 	0.37579	0.91275	0.4509	-0.1
Mof_C 	C 	0.34744	0.88284	0.49964	0.035
Mof_H 	H 	0.3574	0.8824	0.5433	0.032
Mof_C 	C 	0.30415	0.85401	0.48051	-0.12
Mof_H 	H 	0.2846	0.8333	0.5119	0.081
Mof_C 	C 	0.28914	0.85467	0.4182	0.086
Mof_C 	C 	0.31829	0.88352	0.36853	-0.121
Mof_H 	H 	0.3087	0.8828	0.3242	0.073
Mof_C 	C 	0.36144	0.91287	0.38748	0.04
Mof_H 	H 	0.3811	0.9332	0.3559	0.033
Mof_C 	C 	0.24213	0.82664	0.39977	-0.052
Mof_C 	C 	0.22159	0.84542	0.36649	-0.05
Mof_H 	H 	0.2381	0.8756	0.3557	0.048
Mof_H 	H 	0.2811	0.7649	0.3702	0.003
Mof_H 	H 	0.2518	0.703	0.4842	0.158
Mof_O 	O 	0.11311	0.30409	0.75801	-0.398
Mof_O 	O 	0.10001	0.27795	0.86374	-0.41
Mof_C 	C 	0.0891	0.27826	0.80524	0.345
Mof_C 	C 	0.04246	0.24608	0.78423	-0.1
Mof_C 	C 	0.01411	0.21617	0.83297	0.035
Mof_H 	H 	0.02407	0.21573	0.87663	0.032
Mof_C 	C 	0.97082	0.18734	0.81384	-0.12
Mof_H 	H 	0.95127	0.16663	0.84523	0.081
Mof_C 	C 	0.95581	0.188	0.75153	0.086
Mof_C 	C 	0.98496	0.21685	0.70186	-0.121
Mof_H 	H 	0.97537	0.21613	0.65753	0.073
Mof_C 	C 	0.02811	0.2462	0.72081	0.04
Mof_H 	H 	0.04777	0.26653	0.68923	0.033
Mof_C 	C 	0.9088	0.15997	0.7331	-0.052
Mof_C 	C 	0.88826	0.17875	0.69982	-0.05
Mof_H 	H 	0.90477	0.20893	0.68903	0.048
Mof_H 	H 	0.94777	0.09823	0.70353	0.003
Mof_H 	H 	0.91847	0.03633	0.81753	0.158
Mof_O 	O 	0.77977	0.63743	0.09135	-0.398
Mof_O 	O 	0.76667	0.61129	0.19708	-0.41
Mof_C 	C 	0.75576	0.6116	0.13858	0.345
Mof_C 	C 	0.70912	0.57942	0.11757	-0.1
Mof_C 	C 	0.68077	0.54951	0.16631	0.035
Mof_H 	H 	0.69073	0.54907	0.20997	0.032
Mof_C 	C 	0.63748	0.52068	0.14718	-0.12
Mof_H 	H 	0.61793	0.49997	0.17857	0.081
Mof_C 	C 	0.62247	0.52134	0.08487	0.086
Mof_C 	C 	0.65162	0.55019	0.0352	-0.121
Mof_H 	H 	0.64203	0.54947	0.99087	0.073
Mof_C 	C 	0.69477	0.57954	0.05415	0.04
Mof_H 	H 	0.71443	0.59987	0.02257	0.033
Mof_C 	C 	0.57546	0.49331	0.06644	-0.052
Mof_C 	C 	0.55492	0.51209	0.03316	-0.05
Mof_H 	H 	0.57143	0.54227	0.02237	0.048
Mof_H 	H 	0.61443	0.43157	0.03687	0.003
Mof_H 	H 	0.58513	0.36967	0.15087	0.158
Mof_O 	O 	0.02924	0.47568	0.42468	-0.398
Mof_O 	O 	0.05538	0.48872	0.53041	-0.41
Mof_C 	C 	0.05507	0.4775	0.47191	0.345
Mof_C 	C 	0.08725	0.46304	0.4509	-0.1
Mof_C 	C 	0.11716	0.4646	0.49964	0.035
Mof_H 	H 	0.1176	0.475	0.5433	0.032
Mof_C 	C 	0.14599	0.45014	0.48051	-0.12
Mof_H 	H 	0.1667	0.4513	0.5119	0.081
Mof_C 	C 	0.14533	0.43447	0.4182	0.086
Mof_C 	C 	0.11648	0.43477	0.36853	-0.121
Mof_H 	H 	0.1172	0.4259	0.3242	0.073
Mof_C 	C 	0.08713	0.44857	0.38748	0.04
Mof_H 	H 	0.0668	0.4479	0.3559	0.033
Mof_C 	C 	0.17336	0.41549	0.39977	-0.052
Mof_C 	C 	0.15458	0.37617	0.36649	-0.05
Mof_H 	H 	0.1244	0.3625	0.3557	0.048
Mof_H 	H 	0.2351	0.5162	0.3702	0.003
Mof_H 	H 	0.297	0.5488	0.4842	0.158
Mof_O 	O 	0.69591	0.80901	0.75801	-0.398
Mof_O 	O 	0.72205	0.82205	0.86374	-0.41
Mof_C 	C 	0.72174	0.81083	0.80524	0.345
Mof_C 	C 	0.75392	0.79637	0.78423	-0.1
Mof_C 	C 	0.78383	0.79793	0.83297	0.035
Mof_H 	H 	0.78427	0.80833	0.87663	0.032
Mof_C 	C 	0.81266	0.78347	0.81384	-0.12
Mof_H 	H 	0.83337	0.78463	0.84523	0.081
Mof_C 	C 	0.812	0.7678	0.75153	0.086
Mof_C 	C 	0.78315	0.7681	0.70186	-0.121
Mof_H 	H 	0.78387	0.75923	0.65753	0.073
Mof_C 	C 	0.7538	0.7819	0.72081	0.04
Mof_H 	H 	0.73347	0.78123	0.68923	0.033
Mof_C 	C 	0.84003	0.74882	0.7331	-0.052
Mof_C 	C 	0.82125	0.7095	0.69982	-0.05
Mof_H 	H 	0.79107	0.69583	0.68903	0.048
Mof_H 	H 	0.90177	0.84953	0.70353	0.003
Mof_H 	H 	0.96367	0.88213	0.81753	0.158
Mof_O 	O 	0.36257	0.14235	0.09135	-0.398
Mof_O 	O 	0.38871	0.15539	0.19708	-0.41
Mof_C 	C 	0.3884	0.14417	0.13858	0.345
Mof_C 	C 	0.42058	0.12971	0.11757	-0.1
Mof_C 	C 	0.45049	0.13127	0.16631	0.035
Mof_H 	H 	0.45093	0.14167	0.20997	0.032
Mof_C 	C 	0.47932	0.11681	0.14718	-0.12
Mof_H 	H 	0.50003	0.11797	0.17857	0.081
Mof_C 	C 	0.47866	0.10114	0.08487	0.086
Mof_C 	C 	0.44981	0.10144	0.0352	-0.121
Mof_H 	H 	0.45053	0.09257	0.99087	0.073
Mof_C 	C 	0.42046	0.11524	0.05415	0.04
Mof_H 	H 	0.40013	0.11457	0.02257	0.033
Mof_C 	C 	0.50669	0.08216	0.06644	-0.052
Mof_C 	C 	0.48791	0.04284	0.03316	-0.05
Mof_H 	H 	0.45773	0.02917	0.02237	0.048
Mof_H 	H 	0.56843	0.18287	0.03687	0.003
Mof_H 	H 	0.63033	0.21547	0.15087	0.158
Mof_O 	O 	0.55356	0.52432	0.57532	-0.398
Mof_O 	O 	0.56666	0.51128	0.46959	-0.41
Mof_C 	C 	0.57757	0.5225	0.52809	0.345
Mof_C 	C 	0.62421	0.53696	0.5491	-0.1
Mof_C 	C 	0.65256	0.5354	0.50036	0.035
Mof_H 	H 	0.6426	0.525	0.4567	0.032
Mof_C 	C 	0.69585	0.54986	0.51949	-0.12
Mof_H 	H 	0.7154	0.5487	0.4881	0.081
Mof_C 	C 	0.71086	0.56553	0.5818	0.086
Mof_C 	C 	0.68171	0.56523	0.63147	-0.121
Mof_H 	H 	0.6913	0.5741	0.6758	0.073
Mof_C 	C 	0.63856	0.55143	0.61252	0.04
Mof_H 	H 	0.6189	0.5521	0.6441	0.033
Mof_C 	C 	0.75787	0.58451	0.60023	-0.052
Mof_C 	C 	0.77841	0.62383	0.63351	-0.05
Mof_H 	H 	0.7619	0.6375	0.6443	0.048
Mof_H 	H 	0.7189	0.4838	0.6298	0.003
Mof_H 	H 	0.7482	0.4512	0.5158	0.158
Mof_O 	O 	0.22023	0.85765	0.90865	-0.398
Mof_O 	O 	0.23333	0.84461	0.80292	-0.41
Mof_C 	C 	0.24424	0.85583	0.86142	0.345
Mof_C 	C 	0.29088	0.87029	0.88243	-0.1
Mof_C 	C 	0.31923	0.86873	0.83369	0.035
Mof_H 	H 	0.30927	0.85833	0.79003	0.032
Mof_C 	C 	0.36252	0.88319	0.85282	-0.12
Mof_H 	H 	0.38207	0.88203	0.82143	0.081
Mof_C 	C 	0.37753	0.89886	0.91513	0.086
Mof_C 	C 	0.34838	0.89856	0.9648	-0.121
Mof_H 	H 	0.35797	0.90743	0.00913	0.073
Mof_C 	C 	0.30523	0.88476	0.94585	0.04
Mof_H 	H 	0.28557	0.88543	0.97743	0.033
Mof_C 	C 	0.42454	0.91784	0.93356	-0.052
Mof_C 	C 	0.44508	0.95716	0.96684	-0.05
Mof_H 	H 	0.42857	0.97083	0.97763	0.048
Mof_H 	H 	0.38557	0.81713	0.96313	0.003
Mof_H 	H 	0.41487	0.78453	0.84913	0.158
Mof_O 	O 	0.88689	0.19099	0.24199	-0.398
Mof_O 	O 	0.89999	0.17795	0.13626	-0.41
Mof_C 	C 	0.9109	0.18917	0.19476	0.345
Mof_C 	C 	0.95754	0.20363	0.21577	-0.1
Mof_C 	C 	0.98589	0.20207	0.16703	0.035
Mof_H 	H 	0.97593	0.19167	0.12337	0.032
Mof_C 	C 	0.02918	0.21653	0.18616	-0.12
Mof_H 	H 	0.04873	0.21537	0.15477	0.081
Mof_C 	C 	0.04419	0.2322	0.24847	0.086
Mof_C 	C 	0.01504	0.2319	0.29814	-0.121
Mof_H 	H 	0.02463	0.24077	0.34247	0.073
Mof_C 	C 	0.97189	0.2181	0.27919	0.04
Mof_H 	H 	0.95223	0.21877	0.31077	0.033
Mof_C 	C 	0.0912	0.25118	0.2669	-0.052
Mof_C 	C 	0.11174	0.2905	0.30018	-0.05
Mof_H 	H 	0.09523	0.30417	0.31097	0.048
Mof_H 	H 	0.05223	0.15047	0.29647	0.003
Mof_H 	H 	0.08153	0.11787	0.18247	0.158
Mof_O 	O 	0.97076	0.44644	0.57532	-0.398
Mof_O 	O 	0.94462	0.43334	0.46959	-0.41
Mof_C 	C 	0.94493	0.42243	0.52809	0.345
Mof_C 	C 	0.91275	0.37579	0.5491	-0.1
Mof_C 	C 	0.88284	0.34744	0.50036	0.035
Mof_H 	H 	0.8824	0.3574	0.4567	0.032
Mof_C 	C 	0.85401	0.30415	0.51949	-0.12
Mof_H 	H 	0.8333	0.2846	0.4881	0.081
Mof_C 	C 	0.85467	0.28914	0.5818	0.086
Mof_C 	C 	0.88352	0.31829	0.63147	-0.121
Mof_H 	H 	0.8828	0.3087	0.6758	0.073
Mof_C 	C 	0.91287	0.36144	0.61252	0.04
Mof_H 	H 	0.9332	0.3811	0.6441	0.033
Mof_C 	C 	0.82664	0.24213	0.60023	-0.052
Mof_C 	C 	0.84542	0.22159	0.63351	-0.05
Mof_H 	H 	0.8756	0.2381	0.6443	0.048
Mof_H 	H 	0.7649	0.2811	0.6298	0.003
Mof_H 	H 	0.703	0.2518	0.5158	0.158
Mof_O 	O 	0.63743	0.77977	0.90865	-0.398
Mof_O 	O 	0.61129	0.76667	0.80292	-0.41
Mof_C 	C 	0.6116	0.75576	0.86142	0.345
Mof_C 	C 	0.57942	0.70912	0.88243	-0.1
Mof_C 	C 	0.54951	0.68077	0.83369	0.035
Mof_H 	H 	0.54907	0.69073	0.79003	0.032
Mof_C 	C 	0.52068	0.63748	0.85282	-0.12
Mof_H 	H 	0.49997	0.61793	0.82143	0.081
Mof_C 	C 	0.52134	0.62247	0.91513	0.086
Mof_C 	C 	0.55019	0.65162	0.9648	-0.121
Mof_H 	H 	0.54947	0.64203	0.00913	0.073
Mof_C 	C 	0.57954	0.69477	0.94585	0.04
Mof_H 	H 	0.59987	0.71443	0.97743	0.033
Mof_C 	C 	0.49331	0.57546	0.93356	-0.052
Mof_C 	C 	0.51209	0.55492	0.96684	-0.05
Mof_H 	H 	0.54227	0.57143	0.97763	0.048
Mof_H 	H 	0.43157	0.61443	0.96313	0.003
Mof_H 	H 	0.36967	0.58513	0.84913	0.158
Mof_O 	O 	0.30409	0.11311	0.24199	-0.398
Mof_O 	O 	0.27795	0.10001	0.13626	-0.41
Mof_C 	C 	0.27826	0.0891	0.19476	0.345
Mof_C 	C 	0.24608	0.04246	0.21577	-0.1
Mof_C 	C 	0.21617	0.01411	0.16703	0.035
Mof_H 	H 	0.21573	0.02407	0.12337	0.032
Mof_C 	C 	0.18734	0.97082	0.18616	-0.12
Mof_H 	H 	0.16663	0.95127	0.15477	0.081
Mof_C 	C 	0.188	0.95581	0.24847	0.086
Mof_C 	C 	0.21685	0.98496	0.29814	-0.121
Mof_H 	H 	0.21613	0.97537	0.34247	0.073
Mof_C 	C 	0.2462	0.02811	0.27919	0.04
Mof_H 	H 	0.26653	0.04777	0.31077	0.033
Mof_C 	C 	0.15997	0.9088	0.2669	-0.052
Mof_C 	C 	0.17875	0.88826	0.30018	-0.05
Mof_H 	H 	0.20893	0.90477	0.31097	0.048
Mof_H 	H 	0.09823	0.94777	0.29647	0.003
Mof_H 	H 	0.03633	0.91847	0.18247	0.158
Mof_O 	O 	0.47568	0.02924	0.57532	-0.398
Mof_O 	O 	0.48872	0.05538	0.46959	-0.41
Mof_C 	C 	0.4775	0.05507	0.52809	0.345
Mof_C 	C 	0.46304	0.08725	0.5491	-0.1
Mof_C 	C 	0.4646	0.11716	0.50036	0.035
Mof_H 	H 	0.475	0.1176	0.4567	0.032
Mof_C 	C 	0.45014	0.14599	0.51949	-0.12
Mof_H 	H 	0.4513	0.1667	0.4881	0.081
Mof_C 	C 	0.43447	0.14533	0.5818	0.086
Mof_C 	C 	0.43477	0.11648	0.63147	-0.121
Mof_H 	H 	0.4259	0.1172	0.6758	0.073
Mof_C 	C 	0.44857	0.08713	0.61252	0.04
Mof_H 	H 	0.4479	0.0668	0.6441	0.033
Mof_C 	C 	0.41549	0.17336	0.60023	-0.052
Mof_C 	C 	0.37617	0.15458	0.63351	-0.05
Mof_H 	H 	0.3625	0.1244	0.6443	0.048
Mof_H 	H 	0.5162	0.2351	0.6298	0.003
Mof_H 	H 	0.5488	0.297	0.5158	0.158
Mof_O 	O 	0.14235	0.36257	0.90865	-0.398
Mof_O 	O 	0.15539	0.38871	0.80292	-0.41
Mof_C 	C 	0.14417	0.3884	0.86142	0.345
Mof_C 	C 	0.12971	0.42058	0.88243	-0.1
Mof_C 	C 	0.13127	0.45049	0.83369	0.035
Mof_H 	H 	0.14167	0.45093	0.79003	0.032
Mof_C 	C 	0.11681	0.47932	0.85282	-0.12
Mof_H 	H 	0.11797	0.50003	0.82143	0.081
Mof_C 	C 	0.10114	0.47866	0.91513	0.086
Mof_C 	C 	0.10144	0.44981	0.9648	-0.121
Mof_H 	H 	0.09257	0.45053	0.00913	0.073
Mof_C 	C 	0.11524	0.42046	0.94585	0.04
Mof_H 	H 	0.11457	0.40013	0.97743	0.033
Mof_C 	C 	0.08216	0.50669	0.93356	-0.052
Mof_C 	C 	0.04284	0.48791	0.96684	-0.05
Mof_H 	H 	0.02917	0.45773	0.97763	0.048
Mof_H 	H 	0.18287	0.56843	0.96313	0.003
Mof_H 	H 	0.21547	0.63033	0.84913	0.158
Mof_O 	O 	0.80901	0.69591	0.24199	-0.398
Mof_O 	O 	0.82205	0.72205	0.13626	-0.41
Mof_C 	C 	0.81083	0.72174	0.19476	0.345
Mof_C 	C 	0.79637	0.75392	0.21577	-0.1
Mof_C 	C 	0.79793	0.78383	0.16703	0.035
Mof_H 	H 	0.80833	0.78427	0.12337	0.032
Mof_C 	C 	0.78347	0.81266	0.18616	-0.12
Mof_H 	H 	0.78463	0.83337	0.15477	0.081
Mof_C 	C 	0.7678	0.812	0.24847	0.086
Mof_C 	C 	0.7681	0.78315	0.29814	-0.121
Mof_H 	H 	0.75923	0.78387	0.34247	0.073
Mof_C 	C 	0.7819	0.7538	0.27919	0.04
Mof_H 	H 	0.78123	0.73347	0.31077	0.033
Mof_C 	C 	0.74882	0.84003	0.2669	-0.052
Mof_C 	C 	0.7095	0.82125	0.30018	-0.05
Mof_H 	H 	0.69583	0.79107	0.31097	0.048
Mof_H 	H 	0.84953	0.90177	0.29647	0.003
Mof_H 	H 	0.88213	0.96367	0.18247	0.158
Mof_O 	O 	0.47568	0.44644	0.57532	-0.398
Mof_O 	O 	0.48872	0.43334	0.46959	-0.41
Mof_C 	C 	0.4775	0.42243	0.52809	0.345
Mof_C 	C 	0.46304	0.37579	0.5491	-0.1
Mof_C 	C 	0.4646	0.34744	0.50036	0.035
Mof_H 	H 	0.475	0.3574	0.4567	0.032
Mof_C 	C 	0.45014	0.30415	0.51949	-0.12
Mof_H 	H 	0.4513	0.2846	0.4881	0.081
Mof_C 	C 	0.43447	0.28914	0.5818	0.086
Mof_C 	C 	0.43477	0.31829	0.63147	-0.121
Mof_H 	H 	0.4259	0.3087	0.6758	0.073
Mof_C 	C 	0.44857	0.36144	0.61252	0.04
Mof_H 	H 	0.4479	0.3811	0.6441	0.033
Mof_C 	C 	0.41549	0.24213	0.60023	-0.052
Mof_C 	C 	0.37617	0.22159	0.63351	-0.05
Mof_H 	H 	0.3625	0.2381	0.6443	0.048
Mof_H 	H 	0.5162	0.2811	0.6298	0.003
Mof_H 	H 	0.5488	0.2518	0.5158	0.158
Mof_O 	O 	0.14235	0.77977	0.90865	-0.398
Mof_O 	O 	0.15539	0.76667	0.80292	-0.41
Mof_C 	C 	0.14417	0.75576	0.86142	0.345
Mof_C 	C 	0.12971	0.70912	0.88243	-0.1
Mof_C 	C 	0.13127	0.68077	0.83369	0.035
Mof_H 	H 	0.14167	0.69073	0.79003	0.032
Mof_C 	C 	0.11681	0.63748	0.85282	-0.12
Mof_H 	H 	0.11797	0.61793	0.82143	0.081
Mof_C 	C 	0.10114	0.62247	0.91513	0.086
Mof_C 	C 	0.10144	0.65162	0.9648	-0.121
Mof_H 	H 	0.09257	0.64203	0.00913	0.073
Mof_C 	C 	0.11524	0.69477	0.94585	0.04
Mof_H 	H 	0.11457	0.71443	0.97743	0.033
Mof_C 	C 	0.08216	0.57546	0.93356	-0.052
Mof_C 	C 	0.04284	0.55492	0.96684	-0.05
Mof_H 	H 	0.02917	0.57143	0.97763	0.048
Mof_H 	H 	0.18287	0.61443	0.96313	0.003
Mof_H 	H 	0.21547	0.58513	0.84913	0.158
Mof_O 	O 	0.80901	0.11311	0.24199	-0.398
Mof_O 	O 	0.82205	0.10001	0.13626	-0.41
Mof_C 	C 	0.81083	0.0891	0.19476	0.345
Mof_C 	C 	0.79637	0.04246	0.21577	-0.1
Mof_C 	C 	0.79793	0.01411	0.16703	0.035
Mof_H 	H 	0.80833	0.02407	0.12337	0.032
Mof_C 	C 	0.78347	0.97082	0.18616	-0.12
Mof_H 	H 	0.78463	0.95127	0.15477	0.081
Mof_C 	C 	0.7678	0.95581	0.24847	0.086
Mof_C 	C 	0.7681	0.98496	0.29814	-0.121
Mof_H 	H 	0.75923	0.97537	0.34247	0.073
Mof_C 	C 	0.7819	0.02811	0.27919	0.04
Mof_H 	H 	0.78123	0.04777	0.31077	0.033
Mof_C 	C 	0.74882	0.9088	0.2669	-0.052
Mof_C 	C 	0.7095	0.88826	0.30018	-0.05
Mof_H 	H 	0.69583	0.90477	0.31097	0.048
Mof_H 	H 	0.84953	0.94777	0.29647	0.003
Mof_H 	H 	0.88213	0.91847	0.18247	0.158
Mof_O 	O 	0.55356	0.02924	0.57532	-0.398
Mof_O 	O 	0.56666	0.05538	0.46959	-0.41
Mof_C 	C 	0.57757	0.05507	0.52809	0.345
Mof_C 	C 	0.62421	0.08725	0.5491	-0.1
Mof_C 	C 	0.65256	0.11716	0.50036	0.035
Mof_H 	H 	0.6426	0.1176	0.4567	0.032
Mof_C 	C 	0.69585	0.14599	0.51949	-0.12
Mof_H 	H 	0.7154	0.1667	0.4881	0.081
Mof_C 	C 	0.71086	0.14533	0.5818	0.086
Mof_C 	C 	0.68171	0.11648	0.63147	-0.121
Mof_H 	H 	0.6913	0.1172	0.6758	0.073
Mof_C 	C 	0.63856	0.08713	0.61252	0.04
Mof_H 	H 	0.6189	0.0668	0.6441	0.033
Mof_C 	C 	0.75787	0.17336	0.60023	-0.052
Mof_C 	C 	0.77841	0.15458	0.63351	-0.05
Mof_H 	H 	0.7619	0.1244	0.6443	0.048
Mof_H 	H 	0.7189	0.2351	0.6298	0.003
Mof_H 	H 	0.7482	0.297	0.5158	0.158
Mof_O 	O 	0.22023	0.36257	0.90865	-0.398
Mof_O 	O 	0.23333	0.38871	0.80292	-0.41
Mof_C 	C 	0.24424	0.3884	0.86142	0.345
Mof_C 	C 	0.29088	0.42058	0.88243	-0.1
Mof_C 	C 	0.31923	0.45049	0.83369	0.035
Mof_H 	H 	0.30927	0.45093	0.79003	0.032
Mof_C 	C 	0.36252	0.47932	0.85282	-0.12
Mof_H 	H 	0.38207	0.50003	0.82143	0.081
Mof_C 	C 	0.37753	0.47866	0.91513	0.086
Mof_C 	C 	0.34838	0.44981	0.9648	-0.121
Mof_H 	H 	0.35797	0.45053	0.00913	0.073
Mof_C 	C 	0.30523	0.42046	0.94585	0.04
Mof_H 	H 	0.28557	0.40013	0.97743	0.033
Mof_C 	C 	0.42454	0.50669	0.93356	-0.052
Mof_C 	C 	0.44508	0.48791	0.96684	-0.05
Mof_H 	H 	0.42857	0.45773	0.97763	0.048
Mof_H 	H 	0.38557	0.56843	0.96313	0.003
Mof_H 	H 	0.41487	0.63033	0.84913	0.158
Mof_O 	O 	0.88689	0.69591	0.24199	-0.398
Mof_O 	O 	0.89999	0.72205	0.13626	-0.41
Mof_C 	C 	0.9109	0.72174	0.19476	0.345
Mof_C 	C 	0.95754	0.75392	0.21577	-0.1
Mof_C 	C 	0.98589	0.78383	0.16703	0.035
Mof_H 	H 	0.97593	0.78427	0.12337	0.032
Mof_C 	C 	0.02918	0.81266	0.18616	-0.12
Mof_H 	H 	0.04873	0.83337	0.15477	0.081
Mof_C 	C 	0.04419	0.812	0.24847	0.086
Mof_C 	C 	0.01504	0.78315	0.29814	-0.121
Mof_H 	H 	0.02463	0.78387	0.34247	0.073
Mof_C 	C 	0.97189	0.7538	0.27919	0.04
Mof_H 	H 	0.95223	0.73347	0.31077	0.033
Mof_C 	C 	0.0912	0.84003	0.2669	-0.052
Mof_C 	C 	0.11174	0.82125	0.30018	-0.05
Mof_H 	H 	0.09523	0.79107	0.31097	0.048
Mof_H 	H 	0.05223	0.90177	0.29647	0.003
Mof_H 	H 	0.08153	0.96367	0.18247	0.158
Mof_O 	O 	0.97076	0.52432	0.57532	-0.398
Mof_O 	O 	0.94462	0.51128	0.46959	-0.41
Mof_C 	C 	0.94493	0.5225	0.52809	0.345
Mof_C 	C 	0.91275	0.53696	0.5491	-0.1
Mof_C 	C 	0.88284	0.5354	0.50036	0.035
Mof_H 	H 	0.8824	0.525	0.4567	0.032
Mof_C 	C 	0.85401	0.54986	0.51949	-0.12
Mof_H 	H 	0.8333	0.5487	0.4881	0.081
Mof_C 	C 	0.85467	0.56553	0.5818	0.086
Mof_C 	C 	0.88352	0.56523	0.63147	-0.121
Mof_H 	H 	0.8828	0.5741	0.6758	0.073
Mof_C 	C 	0.91287	0.55143	0.61252	0.04
Mof_H 	H 	0.9332	0.5521	0.6441	0.033
Mof_C 	C 	0.82664	0.58451	0.60023	-0.052
Mof_C 	C 	0.84542	0.62383	0.63351	-0.05
Mof_H 	H 	0.8756	0.6375	0.6443	0.048
Mof_H 	H 	0.7649	0.4838	0.6298	0.003
Mof_H 	H 	0.703	0.4512	0.5158	0.158
Mof_O 	O 	0.63743	0.85765	0.90865	-0.398
Mof_O 	O 	0.61129	0.84461	0.80292	-0.41
Mof_C 	C 	0.6116	0.85583	0.86142	0.345
Mof_C 	C 	0.57942	0.87029	0.88243	-0.1
Mof_C 	C 	0.54951	0.86873	0.83369	0.035
Mof_H 	H 	0.54907	0.85833	0.79003	0.032
Mof_C 	C 	0.52068	0.88319	0.85282	-0.12
Mof_H 	H 	0.49997	0.88203	0.82143	0.081
Mof_C 	C 	0.52134	0.89886	0.91513	0.086
Mof_C 	C 	0.55019	0.89856	0.9648	-0.121
Mof_H 	H 	0.54947	0.90743	0.00913	0.073
Mof_C 	C 	0.57954	0.88476	0.94585	0.04
Mof_H 	H 	0.59987	0.88543	0.97743	0.033
Mof_C 	C 	0.49331	0.91784	0.93356	-0.052
Mof_C 	C 	0.51209	0.95716	0.96684	-0.05
Mof_H 	H 	0.54227	0.97083	0.97763	0.048
Mof_H 	H 	0.43157	0.81713	0.96313	0.003
Mof_H 	H 	0.36967	0.78453	0.84913	0.158
Mof_O 	O 	0.30409	0.19099	0.24199	-0.398
Mof_O 	O 	0.27795	0.17795	0.13626	-0.41
Mof_C 	C 	0.27826	0.18917	0.19476	0.345
Mof_C 	C 	0.24608	0.20363	0.21577	-0.1
Mof_C 	C 	0.21617	0.20207	0.16703	0.035
Mof_H 	H 	0.21573	0.19167	0.12337	0.032
Mof_C 	C 	0.18734	0.21653	0.18616	-0.12
Mof_H 	H 	0.16663	0.21537	0.15477	0.081
Mof_C 	C 	0.188	0.2322	0.24847	0.086
Mof_C 	C 	0.21685	0.2319	0.29814	-0.121
Mof_H 	H 	0.21613	0.24077	0.34247	0.073
Mof_C 	C 	0.2462	0.2181	0.27919	0.04
Mof_H 	H 	0.26653	0.21877	0.31077	0.033
Mof_C 	C 	0.15997	0.25118	0.2669	-0.052
Mof_C 	C 	0.17875	0.2905	0.30018	-0.05
Mof_H 	H 	0.20893	0.30417	0.31097	0.048
Mof_H 	H 	0.09823	0.15047	0.29647	0.003
Mof_H 	H 	0.03633	0.11787	0.18247	0.158
Mof_O 	O 	0.44644	0.47568	0.42468	-0.398
Mof_O 	O 	0.43334	0.48872	0.53041	-0.41
Mof_C 	C 	0.42243	0.4775	0.47191	0.345
Mof_C 	C 	0.37579	0.46304	0.4509	-0.1
Mof_C 	C 	0.34744	0.4646	0.49964	0.035
Mof_H 	H 	0.3574	0.475	0.5433	0.032
Mof_C 	C 	0.30415	0.45014	0.48051	-0.12
Mof_H 	H 	0.2846	0.4513	0.5119	0.081
Mof_C 	C 	0.28914	0.43447	0.4182	0.086
Mof_C 	C 	0.31829	0.43477	0.36853	-0.121
Mof_H 	H 	0.3087	0.4259	0.3242	0.073
Mof_C 	C 	0.36144	0.44857	0.38748	0.04
Mof_H 	H 	0.3811	0.4479	0.3559	0.033
Mof_C 	C 	0.24213	0.41549	0.39977	-0.052
Mof_C 	C 	0.22159	0.37617	0.36649	-0.05
Mof_H 	H 	0.2381	0.3625	0.3557	0.048
Mof_H 	H 	0.2811	0.5162	0.3702	0.003
Mof_H 	H 	0.2518	0.5488	0.4842	0.158
Mof_O 	O 	0.11311	0.80901	0.75801	-0.398
Mof_O 	O 	0.10001	0.82205	0.86374	-0.41
Mof_C 	C 	0.0891	0.81083	0.80524	0.345
Mof_C 	C 	0.04246	0.79637	0.78423	-0.1
Mof_C 	C 	0.01411	0.79793	0.83297	0.035
Mof_H 	H 	0.02407	0.80833	0.87663	0.032
Mof_C 	C 	0.97082	0.78347	0.81384	-0.12
Mof_H 	H 	0.95127	0.78463	0.84523	0.081
Mof_C 	C 	0.95581	0.7678	0.75153	0.086
Mof_C 	C 	0.98496	0.7681	0.70186	-0.121
Mof_H 	H 	0.97537	0.75923	0.65753	0.073
Mof_C 	C 	0.02811	0.7819	0.72081	0.04
Mof_H 	H 	0.04777	0.78123	0.68923	0.033
Mof_C 	C 	0.9088	0.74882	0.7331	-0.052
Mof_C 	C 	0.88826	0.7095	0.69982	-0.05
Mof_H 	H 	0.90477	0.69583	0.68903	0.048
Mof_H 	H 	0.94777	0.84953	0.70353	0.003
Mof_H 	H 	0.91847	0.88213	0.81753	0.158
Mof_O 	O 	0.77977	0.14235	0.09135	-0.398
Mof_O 	O 	0.76667	0.15539	0.19708	-0.41
Mof_C 	C 	0.75576	0.14417	0.13858	0.345
Mof_C 	C 	0.70912	0.12971	0.11757	-0.1
Mof_C 	C 	0.68077	0.13127	0.16631	0.035
Mof_H 	H 	0.69073	0.14167	0.20997	0.032
Mof_C 	C 	0.63748	0.11681	0.14718	-0.12
Mof_H 	H 	0.61793	0.11797	0.17857	0.081
Mof_C 	C 	0.62247	0.10114	0.08487	0.086
Mof_C 	C 	0.65162	0.10144	0.0352	-0.121
Mof_H 	H 	0.64203	0.09257	0.99087	0.073
Mof_C 	C 	0.69477	0.11524	0.05415	0.04
Mof_H 	H 	0.71443	0.11457	0.02257	0.033
Mof_C 	C 	0.57546	0.08216	0.06644	-0.052
Mof_C 	C 	0.55492	0.04284	0.03316	-0.05
Mof_H 	H 	0.57143	0.02917	0.02237	0.048
Mof_H 	H 	0.61443	0.18287	0.03687	0.003
Mof_H 	H 	0.58513	0.21547	0.15087	0.158
Mof_O 	O 	0.02924	0.55356	0.42468	-0.398
Mof_O 	O 	0.05538	0.56666	0.53041	-0.41
Mof_C 	C 	0.05507	0.57757	0.47191	0.345
Mof_C 	C 	0.08725	0.62421	0.4509	-0.1
Mof_C 	C 	0.11716	0.65256	0.49964	0.035
Mof_H 	H 	0.1176	0.6426	0.5433	0.032
Mof_C 	C 	0.14599	0.69585	0.48051	-0.12
Mof_H 	H 	0.1667	0.7154	0.5119	0.081
Mof_C 	C 	0.14533	0.71086	0.4182	0.086
Mof_C 	C 	0.11648	0.68171	0.36853	-0.121
Mof_H 	H 	0.1172	0.6913	0.3242	0.073
Mof_C 	C 	0.08713	0.63856	0.38748	0.04
Mof_H 	H 	0.0668	0.6189	0.3559	0.033
Mof_C 	C 	0.17336	0.75787	0.39977	-0.052
Mof_C 	C 	0.15458	0.77841	0.36649	-0.05
Mof_H 	H 	0.1244	0.7619	0.3557	0.048
Mof_H 	H 	0.2351	0.7189	0.3702	0.003
Mof_H 	H 	0.297	0.7482	0.4842	0.158
Mof_O 	O 	0.69591	0.88689	0.75801	-0.398
Mof_O 	O 	0.72205	0.89999	0.86374	-0.41
Mof_C 	C 	0.72174	0.9109	0.80524	0.345
Mof_C 	C 	0.75392	0.95754	0.78423	-0.1
Mof_C 	C 	0.78383	0.98589	0.83297	0.035
Mof_H 	H 	0.78427	0.97593	0.87663	0.032
Mof_C 	C 	0.81266	0.02918	0.81384	-0.12
Mof_H 	H 	0.83337	0.04873	0.84523	0.081
Mof_C 	C 	0.812	0.04419	0.75153	0.086
Mof_C 	C 	0.78315	0.01504	0.70186	-0.121
Mof_H 	H 	0.78387	0.02463	0.65753	0.073
Mof_C 	C 	0.7538	0.97189	0.72081	0.04
Mof_H 	H 	0.73347	0.95223	0.68923	0.033
Mof_C 	C 	0.84003	0.0912	0.7331	-0.052
Mof_C 	C 	0.82125	0.11174	0.69982	-0.05
Mof_H 	H 	0.79107	0.09523	0.68903	0.048
Mof_H 	H 	0.90177	0.05223	0.70353	0.003
Mof_H 	H 	0.96367	0.08153	0.81753	0.158
Mof_O 	O 	0.36257	0.22023	0.09135	-0.398
Mof_O 	O 	0.38871	0.23333	0.19708	-0.41
Mof_C 	C 	0.3884	0.24424	0.13858	0.345
Mof_C 	C 	0.42058	0.29088	0.11757	-0.1
Mof_C 	C 	0.45049	0.31923	0.16631	0.035
Mof_H 	H 	0.45093	0.30927	0.20997	0.032
Mof_C 	C 	0.47932	0.36252	0.14718	-0.12
Mof_H 	H 	0.50003	0.38207	0.17857	0.081
Mof_C 	C 	0.47866	0.37753	0.08487	0.086
Mof_C 	C 	0.44981	0.34838	0.0352	-0.121
Mof_H 	H 	0.45053	0.35797	0.99087	0.073
Mof_C 	C 	0.42046	0.30523	0.05415	0.04
Mof_H 	H 	0.40013	0.28557	0.02257	0.033
Mof_C 	C 	0.50669	0.42454	0.06644	-0.052
Mof_C 	C 	0.48791	0.44508	0.03316	-0.05
Mof_H 	H 	0.45773	0.42857	0.02237	0.048
Mof_H 	H 	0.56843	0.38557	0.03687	0.003
Mof_H 	H 	0.63033	0.41487	0.15087	0.158
Mof_O 	O 	0.52432	0.97076	0.42468	-0.398
Mof_O 	O 	0.51128	0.94462	0.53041	-0.41
Mof_C 	C 	0.5225	0.94493	0.47191	0.345
Mof_C 	C 	0.53696	0.91275	0.4509	-0.1
Mof_C 	C 	0.5354	0.88284	0.49964	0.035
Mof_H 	H 	0.525	0.8824	0.5433	0.032
Mof_C 	C 	0.54986	0.85401	0.48051	-0.12
Mof_H 	H 	0.5487	0.8333	0.5119	0.081
Mof_C 	C 	0.56553	0.85467	0.4182	0.086
Mof_C 	C 	0.56523	0.88352	0.36853	-0.121
Mof_H 	H 	0.5741	0.8828	0.3242	0.073
Mof_C 	C 	0.55143	0.91287	0.38748	0.04
Mof_H 	H 	0.5521	0.9332	0.3559	0.033
Mof_C 	C 	0.58451	0.82664	0.39977	-0.052
Mof_C 	C 	0.62383	0.84542	0.36649	-0.05
Mof_H 	H 	0.6375	0.8756	0.3557	0.048
Mof_H 	H 	0.4838	0.7649	0.3702	0.003
Mof_H 	H 	0.4512	0.703	0.4842	0.158
Mof_O 	O 	0.19099	0.30409	0.75801	-0.398
Mof_O 	O 	0.17795	0.27795	0.86374	-0.41
Mof_C 	C 	0.18917	0.27826	0.80524	0.345
Mof_C 	C 	0.20363	0.24608	0.78423	-0.1
Mof_C 	C 	0.20207	0.21617	0.83297	0.035
Mof_H 	H 	0.19167	0.21573	0.87663	0.032
Mof_C 	C 	0.21653	0.18734	0.81384	-0.12
Mof_H 	H 	0.21537	0.16663	0.84523	0.081
Mof_C 	C 	0.2322	0.188	0.75153	0.086
Mof_C 	C 	0.2319	0.21685	0.70186	-0.121
Mof_H 	H 	0.24077	0.21613	0.65753	0.073
Mof_C 	C 	0.2181	0.2462	0.72081	0.04
Mof_H 	H 	0.21877	0.26653	0.68923	0.033
Mof_C 	C 	0.25118	0.15997	0.7331	-0.052
Mof_C 	C 	0.2905	0.17875	0.69982	-0.05
Mof_H 	H 	0.30417	0.20893	0.68903	0.048
Mof_H 	H 	0.15047	0.09823	0.70353	0.003
Mof_H 	H 	0.11787	0.03633	0.81753	0.158
Mof_O 	O 	0.85765	0.63743	0.09135	-0.398
Mof_O 	O 	0.84461	0.61129	0.19708	-0.41
Mof_C 	C 	0.85583	0.6116	0.13858	0.345
Mof_C 	C 	0.87029	0.57942	0.11757	-0.1
Mof_C 	C 	0.86873	0.54951	0.16631	0.035
Mof_H 	H 	0.85833	0.54907	0.20997	0.032
Mof_C 	C 	0.88319	0.52068	0.14718	-0.12
Mof_H 	H 	0.88203	0.49997	0.17857	0.081
Mof_C 	C 	0.89886	0.52134	0.08487	0.086
Mof_C 	C 	0.89856	0.55019	0.0352	-0.121
Mof_H 	H 	0.90743	0.54947	0.99087	0.073
Mof_C 	C 	0.88476	0.57954	0.05415	0.04
Mof_H 	H 	0.88543	0.59987	0.02257	0.033
Mof_C 	C 	0.91784	0.49331	0.06644	-0.052
Mof_C 	C 	0.95716	0.51209	0.03316	-0.05
Mof_H 	H 	0.97083	0.54227	0.02237	0.048
Mof_H 	H 	0.81713	0.43157	0.03687	0.003
Mof_H 	H 	0.78453	0.36967	0.15087	0.158
Mof_Cu	Cu	0.49247	0.50753	0.56086	0.903
Mof_Cu	Cu	0.15913	0.84087	0.89419	0.903
Mof_Cu	Cu	0.8258	0.1742	0.22753	0.903
Mof_Cu	Cu	0.49247	0.98493	0.56086	0.903
Mof_Cu	Cu	0.15913	0.31826	0.89419	0.903
Mof_Cu	Cu	0.8258	0.6516	0.22753	0.903
Mof_Cu	Cu	0.01507	0.50753	0.56086	0.903
Mof_Cu	Cu	0.68174	0.84087	0.89419	0.903
Mof_Cu	Cu	0.3484	0.1742	0.22753	0.903
Mof_Cu	Cu	0.50753	0.49247	0.43914	0.903
Mof_Cu	Cu	0.1742	0.8258	0.77247	0.903
Mof_Cu	Cu	0.84087	0.15913	0.10581	0.903
Mof_Cu	Cu	0.98493	0.49247	0.43914	0.903
Mof_Cu	Cu	0.6516	0.8258	0.77247	0.903
Mof_Cu	Cu	0.31826	0.15913	0.10581	0.903
Mof_Cu	Cu	0.50753	0.01507	0.43914	0.903
Mof_Cu	Cu	0.1742	0.3484	0.77247	0.903
Mof_Cu	Cu	0.84087	0.68174	0.10581	0.903
Mof_O 	O 	0.52356	0.76178	0.4499	-0.215
Mof_C 	C 	0.6447	0.82235	0.3478	0.01
Mof_C 	C 	0.56461	0.7823	0.4163	0.114
Mof_C 	C 	0.4846	0.7423	0.3982	0.108
Mof_C 	C 	0.4477	0.72385	0.4566	-0.428
Mof_H 	H 	0.4185	0.70925	0.4364	0.142
Mof_O 	O 	0.19023	0.09511	0.78323	-0.215
Mof_C 	C 	0.31137	0.15568	0.68113	0.01
Mof_C 	C 	0.23128	0.11564	0.74963	0.114
Mof_C 	C 	0.15127	0.07563	0.73153	0.108
Mof_C 	C 	0.11437	0.05718	0.78993	-0.428
Mof_H 	H 	0.08517	0.04258	0.76973	0.142
Mof_O 	O 	0.85689	0.42845	0.11657	-0.215
Mof_C 	C 	0.97803	0.48902	0.01447	0.01
Mof_C 	C 	0.89794	0.44897	0.08297	0.114
Mof_C 	C 	0.81793	0.40897	0.06487	0.108
Mof_C 	C 	0.78103	0.39052	0.12327	-0.428
Mof_H 	H 	0.75183	0.37592	0.10307	0.142
Mof_O 	O 	0.23822	0.76178	0.4499	-0.215
Mof_C 	C 	0.17765	0.82235	0.3478	0.01
Mof_C 	C 	0.2177	0.7823	0.4163	0.114
Mof_C 	C 	0.2577	0.7423	0.3982	0.108
Mof_C 	C 	0.27615	0.72385	0.4566	-0.428
Mof_H 	H 	0.29075	0.70925	0.4364	0.142
Mof_O 	O 	0.90489	0.09511	0.78323	-0.215
Mof_C 	C 	0.84432	0.15568	0.68113	0.01
Mof_C 	C 	0.88436	0.11564	0.74963	0.114
Mof_C 	C 	0.92437	0.07563	0.73153	0.108
Mof_C 	C 	0.94282	0.05718	0.78993	-0.428
Mof_H 	H 	0.95742	0.04258	0.76973	0.142
Mof_O 	O 	0.57155	0.42845	0.11657	-0.215
Mof_C 	C 	0.51098	0.48902	0.01447	0.01
Mof_C 	C 	0.55103	0.44897	0.08297	0.114
Mof_C 	C 	0.59103	0.40897	0.06487	0.108
Mof_C 	C 	0.60948	0.39052	0.12327	-0.428
Mof_H 	H 	0.62408	0.37592	0.10307	0.142
Mof_O 	O 	0.23822	0.47644	0.4499	-0.215
Mof_C 	C 	0.17765	0.3553	0.3478	0.01
Mof_C 	C 	0.21769	0.43539	0.4163	0.114
Mof_C 	C 	0.2577	0.5154	0.3982	0.108
Mof_C 	C 	0.27615	0.5523	0.4566	-0.428
Mof_H 	H 	0.29075	0.5815	0.4364	0.142
Mof_O 	O 	0.90489	0.80977	0.78323	-0.215
Mof_C 	C 	0.84432	0.68863	0.68113	0.01
Mof_C 	C 	0.88436	0.76872	0.74963	0.114
Mof_C 	C 	0.92437	0.84873	0.73153	0.108
Mof_C 	C 	0.94282	0.88563	0.78993	-0.428
Mof_H 	H 	0.95742	0.91483	0.76973	0.142
Mof_O 	O 	0.57155	0.14311	0.11657	-0.215
Mof_C 	C 	0.51098	0.02197	0.01447	0.01
Mof_C 	C 	0.55103	0.10206	0.08297	0.114
Mof_C 	C 	0.59103	0.18207	0.06487	0.108
Mof_C 	C 	0.60948	0.21897	0.12327	-0.428
Mof_H 	H 	0.62408	0.24817	0.10307	0.142
Mof_O 	O 	0.76178	0.52356	0.5501	-0.215
Mof_C 	C 	0.82235	0.6447	0.6522	0.01
Mof_C 	C 	0.7823	0.56461	0.5837	0.114
Mof_C 	C 	0.7423	0.4846	0.6018	0.108
Mof_C 	C 	0.72385	0.4477	0.5434	-0.428
Mof_H 	H 	0.70925	0.4185	0.5636	0.142
Mof_O 	O 	0.42845	0.85689	0.88343	-0.215
Mof_C 	C 	0.48902	0.97803	0.98553	0.01
Mof_C 	C 	0.44897	0.89794	0.91703	0.114
Mof_C 	C 	0.40897	0.81793	0.93513	0.108
Mof_C 	C 	0.39052	0.78103	0.87673	-0.428
Mof_H 	H 	0.37592	0.75183	0.89693	0.142
Mof_O 	O 	0.09511	0.19023	0.21677	-0.215
Mof_C 	C 	0.15568	0.31137	0.31887	0.01
Mof_C 	C 	0.11564	0.23128	0.25037	0.114
Mof_C 	C 	0.07563	0.15127	0.26847	0.108
Mof_C 	C 	0.05718	0.11437	0.21007	-0.428
Mof_H 	H 	0.04258	0.08517	0.23027	0.142
Mof_O 	O 	0.76178	0.23822	0.5501	-0.215
Mof_C 	C 	0.82235	0.17765	0.6522	0.01
Mof_C 	C 	0.78231	0.2177	0.5837	0.114
Mof_C 	C 	0.7423	0.2577	0.6018	0.108
Mof_C 	C 	0.72385	0.27615	0.5434	-0.428
Mof_H 	H 	0.70925	0.29075	0.5636	0.142
Mof_O 	O 	0.42845	0.57155	0.88343	-0.215
Mof_C 	C 	0.48902	0.51098	0.98553	0.01
Mof_C 	C 	0.44897	0.55103	0.91703	0.114
Mof_C 	C 	0.40897	0.59103	0.93513	0.108
Mof_C 	C 	0.39052	0.60948	0.87673	-0.428
Mof_H 	H 	0.37592	0.62408	0.89693	0.142
Mof_O 	O 	0.09511	0.90489	0.21677	-0.215
Mof_C 	C 	0.15568	0.84432	0.31887	0.01
Mof_C 	C 	0.11564	0.88436	0.25037	0.114
Mof_C 	C 	0.07563	0.92437	0.26847	0.108
Mof_C 	C 	0.05718	0.94282	0.21007	-0.428
Mof_H 	H 	0.04258	0.95742	0.23027	0.142
Mof_O 	O 	0.47644	0.23822	0.5501	-0.215
Mof_C 	C 	0.3553	0.17765	0.6522	0.01
Mof_C 	C 	0.43539	0.2177	0.5837	0.114
Mof_C 	C 	0.5154	0.2577	0.6018	0.108
Mof_C 	C 	0.5523	0.27615	0.5434	-0.428
Mof_H 	H 	0.5815	0.29075	0.5636	0.142
Mof_O 	O 	0.14311	0.57155	0.88343	-0.215
Mof_C 	C 	0.02197	0.51098	0.98553	0.01
Mof_C 	C 	0.10206	0.55103	0.91703	0.114
Mof_C 	C 	0.18207	0.59103	0.93513	0.108
Mof_C 	C 	0.21897	0.60948	0.87673	-0.428
Mof_H 	H 	0.24817	0.62408	0.89693	0.142
Mof_O 	O 	0.80977	0.90489	0.21677	-0.215
Mof_C 	C 	0.68863	0.84432	0.31887	0.01
Mof_C 	C 	0.76872	0.88436	0.25037	0.114
Mof_C 	C 	0.84873	0.92437	0.26847	0.108
Mof_C 	C 	0.88563	0.94282	0.21007	-0.428
Mof_H 	H 	0.91483	0.95742	0.23027	0.142
_end
