# CIF file generated by openbabel 3.1.0, see https://openbabel.org
data_I
_chemical_name_common 'COXQUB_clean'
_cell_length_a 9.7554
_cell_length_b 13.243
_cell_length_c 13.5956
_cell_angle_alpha 118.303
_cell_angle_beta 90
_cell_angle_gamma 111.612
_space_group_name_H-M_alt 'P 1'
_space_group_name_Hall 'P 1'
loop_
    _symmetry_equiv_pos_as_xyz
    x,y,z
loop_
    _atom_site_label
    _atom_site_type_symbol
    _atom_site_fract_x
    _atom_site_fract_y
    _atom_site_fract_z
    _atom_site_occupancy
    Cd1      Cd       0.32318    0.51296    0.85645    1.000
    Cd2      Cd       0.81897    0.49182    0.60272    1.000
    Cd3      Cd       0.81022    0.48704    0.14355    1.000
    Cd4      Cd       0.32715    0.50818    0.39728    1.000
    H1       H        0.40400    0.80600    0.00290    1.000
    H2       H        0.59660    0.00220    0.11170    1.000
    H3       H        0.89070    0.84120    0.05920    1.000
    H4       H        0.68260    0.64400    0.95720    1.000
    H5       H        0.77000    0.17720    0.20530    1.000
    H6       H        0.97080    0.37360    0.29750    1.000
    H7       H        0.25960    0.22000    0.23920    1.000
    H8       H        0.06620    0.01820    0.13680    1.000
    H9       H        0.95340    0.37400    0.78500    1.000
    H10      H        0.75570    0.17760    0.69510    1.000
    H11      H        0.05890    0.02220    0.63580    1.000
    H12      H        0.24780    0.22400    0.72150    1.000
    H13      H        0.69010    0.64840    0.45990    1.000
    H14      H        0.88970    0.84860    0.54820    1.000
    H15      H        0.58310    0.99680    0.64030    1.000
    H16      H        0.39270    0.79280    0.54990    1.000
    H17      H        0.59800    0.19400    0.99710    1.000
    H18      H        0.59440    0.99780    0.88830    1.000
    H19      H        0.04950    0.15880    0.94080    1.000
    H20      H        0.03860    0.35600    0.04280    1.000
    H21      H        0.59280    0.82280    0.79470    1.000
    H22      H        0.59720    0.62640    0.70250    1.000
    H23      H        0.03960    0.78000    0.76080    1.000
    H24      H        0.04800    0.98180    0.86320    1.000
    H25      H        0.57940    0.62600    0.21500    1.000
    H26      H        0.57810    0.82240    0.30490    1.000
    H27      H        0.03670    0.97780    0.36420    1.000
    H28      H        0.02380    0.77600    0.27850    1.000
    H29      H        0.04170    0.35160    0.54010    1.000
    H30      H        0.04110    0.15140    0.45180    1.000
    H31      H        0.58630    0.00320    0.35970    1.000
    H32      H        0.59990    0.20720    0.45010    1.000
    C1       C        0.50320    0.81240    0.01460    1.000
    C2       C        0.61940    0.93100    0.07930    1.000
    C3       C        0.76490    0.94520    0.09830    1.000
    C4       C        0.79070    0.83680    0.04960    1.000
    C5       C        0.66620    0.71840    0.98750    1.000
    C6       C        0.89260    0.07480    0.16110    1.000
    C7       C        0.86930    0.18320    0.21010    1.000
    C8       C        0.99040    0.30040    0.26700    1.000
    C9       C        0.15810    0.21080    0.23150    1.000
    C10      C        0.04400    0.09040    0.17110    1.000
    C11      C        0.97490    0.30180    0.75330    1.000
    C12      C        0.85610    0.18440    0.70210    1.000
    C13      C        0.88330    0.07620    0.65990    1.000
    C14      C        0.03460    0.09300    0.66650    1.000
    C15      C        0.14610    0.21420    0.71770    1.000
    C16      C        0.66820    0.72020    0.49680    1.000
    C17      C        0.78790    0.84000    0.54990    1.000
    C18      C        0.75780    0.94700    0.60440    1.000
    C19      C        0.60880    0.92720    0.60400    1.000
    C20      C        0.49460    0.80420    0.54930    1.000
    C21      C        0.69080    0.18760    0.98540    1.000
    C22      C        0.68840    0.06900    0.92070    1.000
    C23      C        0.81970    0.05480    0.90170    1.000
    C24      C        0.95390    0.16320    0.95040    1.000
    C25      C        0.94780    0.28160    0.01250    1.000
    C26      C        0.81780    0.92520    0.83890    1.000
    C27      C        0.68610    0.81680    0.78990    1.000
    C28      C        0.69000    0.69960    0.73300    1.000
    C29      C        0.94730    0.78920    0.76850    1.000
    C30      C        0.95360    0.90960    0.82890    1.000
    C31      C        0.67310    0.69820    0.24670    1.000
    C32      C        0.67170    0.81560    0.29790    1.000
    C33      C        0.80710    0.92380    0.34010    1.000
    C34      C        0.94160    0.90700    0.33350    1.000
    C35      C        0.93190    0.78580    0.28230    1.000
    C36      C        0.94800    0.27980    0.50320    1.000
    C37      C        0.94790    0.16000    0.45010    1.000
    C38      C        0.81080    0.05300    0.39560    1.000
    C39      C        0.68160    0.07280    0.39600    1.000
    C40      C        0.69040    0.19580    0.45070    1.000
    S1       S        0.22268    0.61696    0.68840    1.000
    S2       S        0.57714    0.37088    0.72320    1.000
    S3       S        0.60572    0.38304    0.31160    1.000
    S4       S        0.20626    0.62912    0.27680    1.000
    N1       N        0.52500    0.70680    0.96880    1.000
    N2       N        0.13350    0.31540    0.28020    1.000
    N3       N        0.12210    0.31900    0.76190    1.000
    N4       N        0.52410    0.70140    0.49550    1.000
    N5       N        0.81820    0.29320    0.03120    1.000
    N6       N        0.81810    0.68460    0.71980    1.000
    N7       N        0.80310    0.68100    0.23810    1.000
    N8       N        0.82270    0.29860    0.50450    1.000
    O1       O        0.29830    0.54480    0.70510    1.000
    O2       O        0.30640    0.75160    0.76620    1.000
    O3       O        0.06740    0.57320    0.71000    1.000
    O4       O        0.21130    0.58560    0.56890    1.000
    O5       O        0.57380    0.40100    0.63150    1.000
    O6       O        0.50890    0.23460    0.67080    1.000
    O7       O        0.73570    0.42920    0.77620    1.000
    O8       O        0.49530    0.42800    0.80540    1.000
    O9       O        0.75350    0.45520    0.29490    1.000
    O10      O        0.55480    0.24840    0.23380    1.000
    O11      O        0.49420    0.42680    0.29000    1.000
    O12      O        0.62570    0.41440    0.43110    1.000
    O13      O        0.17280    0.59900    0.36850    1.000
    O14      O        0.27430    0.76540    0.32920    1.000
    O15      O        0.30650    0.57080    0.22380    1.000
    O16      O        0.06730    0.57200    0.19460    1.000
