data_functionalizedCrystal
_audit_creation_method	'EQeq! by Chris Wilmer'
_symmetry_space_group_name_H-M	'P1'
_symmetry_Int_Tables_number	1
_symmetry_cell_setting	triclinic
loop_
_symmetry_equiv_pos_as_xyz
  x,y,z
_cell_length_a	17.1454
_cell_length_b	17.1454
_cell_length_c	17.1454
_cell_angle_alpha	108.651
_cell_angle_beta	109.883
_cell_angle_gamma	109.883
loop_
_atom_site_label
_atom_site_type_symbol
_atom_site_fract_x
_atom_site_fract_y
_atom_site_fract_z
_atom_site_charge
Mof_Mn	Mn	0.8771	0.00646	0.91928	0.672
Mof_Mn	Mn	0.6229	0.54218	0.12936	0.675
Mof_Mn	Mn	0.91282	0.91928	0.54218	0.675
Mof_Mn	Mn	0.58718	0.12936	0.00646	0.676
Mof_Mn	Mn	0.1229	0.99354	0.08072	0.672
Mof_Mn	Mn	0.3771	0.45782	0.87064	0.675
Mof_Mn	Mn	0.08718	0.08072	0.45782	0.674
Mof_Mn	Mn	0.41282	0.87064	0.99354	0.675
Mof_H 	H 	0.5449	0.7891	0.9212	-0.003
Mof_H 	H 	0.9341	0.3399	0.9786	0.082
Mof_H 	H 	0.0803	0.4029	0.9862	0.005
Mof_H 	H 	0.1597	0.3175	0.981	0.077
Mof_H 	H 	0.085	0.1662	0.9578	-0.011
Mof_H 	H 	0.9551	0.8763	0.2442	-0.003
Mof_H 	H 	0.5659	0.5445	0.4058	0.081
Mof_H 	H 	0.4197	0.4059	0.3226	0.006
Mof_H 	H 	0.3403	0.3213	0.1578	0.076
Mof_H 	H 	0.415	0.3728	0.0812	-0.01
Mof_H 	H 	0.1321	0.9212	0.8763	-0.003
Mof_H 	H 	0.6387	0.9786	0.5445	0.082
Mof_H 	H 	0.5833	0.9862	0.4059	0.006
Mof_H 	H 	0.6635	0.981	0.3213	0.076
Mof_H 	H 	0.7916	0.9578	0.3728	-0.01
Mof_H 	H 	0.3679	0.2442	0.7891	-0.003
Mof_H 	H 	0.8613	0.4058	0.3399	0.081
Mof_H 	H 	0.9167	0.3226	0.4029	0.006
Mof_H 	H 	0.8365	0.1578	0.3175	0.076
Mof_H 	H 	0.7084	0.0812	0.1662	-0.01
Mof_H 	H 	0.4551	0.2109	0.0788	-0.003
Mof_H 	H 	0.0659	0.6601	0.0214	0.082
Mof_H 	H 	0.9197	0.5971	0.0138	0.005
Mof_H 	H 	0.8403	0.6825	0.019	0.077
Mof_H 	H 	0.915	0.8338	0.0422	-0.011
Mof_H 	H 	0.0449	0.1237	0.7558	-0.003
Mof_H 	H 	0.4341	0.4555	0.5942	0.081
Mof_H 	H 	0.5803	0.5941	0.6774	0.006
Mof_H 	H 	0.6597	0.6787	0.8422	0.076
Mof_H 	H 	0.585	0.6272	0.9188	-0.01
Mof_H 	H 	0.8679	0.0788	0.1237	-0.003
Mof_H 	H 	0.3613	0.0214	0.4555	0.082
Mof_H 	H 	0.4167	0.0138	0.5941	0.006
Mof_H 	H 	0.3365	0.019	0.6787	0.076
Mof_H 	H 	0.2084	0.0422	0.6272	-0.01
Mof_H 	H 	0.6321	0.7558	0.2109	-0.003
Mof_H 	H 	0.1387	0.5942	0.6601	0.081
Mof_H 	H 	0.0833	0.6774	0.5971	0.006
Mof_H 	H 	0.1635	0.8422	0.6825	0.076
Mof_H 	H 	0.2916	0.9188	0.8338	-0.01
Mof_C 	C 	0.5672	0.8512	0.9318	0.097
Mof_C 	C 	0.64649	0.98171	0.94426	0.067
Mof_C 	C 	0.71572	0.0646	0.95036	0.077
Mof_C 	C 	0.83364	0.16854	0.9605	0.078
Mof_C 	C 	0.9252	0.2142	0.964	0.071
Mof_C 	C 	0.9656	0.3052	0.9748	-0.137
Mof_C 	C 	0.0526	0.3426	0.9798	0.066
Mof_C 	C 	0.0996	0.2918	0.9754	-0.152
Mof_C 	C 	0.0545	0.2018	0.9625	0.089
Mof_C 	C 	0.9328	0.8646	0.284	0.097
Mof_C 	C 	0.85351	0.79777	0.33522	0.065
Mof_C 	C 	0.78428	0.73464	0.34888	0.079
Mof_C 	C 	0.66636	0.62686	0.3349	0.078
Mof_C 	C 	0.5748	0.5388	0.289	0.07
Mof_C 	C 	0.5344	0.5092	0.3396	-0.133
Mof_C 	C 	0.4474	0.4272	0.29	0.063
Mof_C 	C 	0.4004	0.3758	0.1922	-0.149
Mof_C 	C 	0.4455	0.408	0.1473	0.087
Mof_C 	C 	0.0806	0.9318	0.8646	0.097
Mof_C 	C 	0.96255	0.94426	0.79777	0.066
Mof_C 	C 	0.88576	0.95036	0.73464	0.079
Mof_C 	C 	0.79196	0.9605	0.62686	0.078
Mof_C 	C 	0.7498	0.964	0.5388	0.07
Mof_C 	C 	0.6696	0.9748	0.5092	-0.133
Mof_C 	C 	0.6372	0.9798	0.4272	0.063
Mof_C 	C 	0.6836	0.9754	0.3758	-0.149
Mof_C 	C 	0.7607	0.9625	0.408	0.087
Mof_C 	C 	0.4194	0.284	0.8512	0.097
Mof_C 	C 	0.53745	0.33522	0.98171	0.064
Mof_C 	C 	0.61424	0.34888	0.0646	0.08
Mof_C 	C 	0.70804	0.3349	0.16854	0.078
Mof_C 	C 	0.7502	0.289	0.2142	0.07
Mof_C 	C 	0.8304	0.3396	0.3052	-0.133
Mof_C 	C 	0.8628	0.29	0.3426	0.062
Mof_C 	C 	0.8164	0.1922	0.2918	-0.149
Mof_C 	C 	0.7393	0.1473	0.2018	0.087
Mof_C 	C 	0.4328	0.1488	0.0682	0.097
Mof_C 	C 	0.35351	0.01829	0.05574	0.067
Mof_C 	C 	0.28428	0.9354	0.04964	0.077
Mof_C 	C 	0.16636	0.83146	0.0395	0.078
Mof_C 	C 	0.0748	0.7858	0.036	0.071
Mof_C 	C 	0.0344	0.6948	0.0252	-0.137
Mof_C 	C 	0.9474	0.6574	0.0202	0.066
Mof_C 	C 	0.9004	0.7082	0.0246	-0.152
Mof_C 	C 	0.9455	0.7982	0.0375	0.089
Mof_C 	C 	0.0672	0.1354	0.716	0.097
Mof_C 	C 	0.14649	0.20223	0.66478	0.065
Mof_C 	C 	0.21572	0.26536	0.65112	0.079
Mof_C 	C 	0.33364	0.37314	0.6651	0.078
Mof_C 	C 	0.4252	0.4612	0.711	0.07
Mof_C 	C 	0.4656	0.4908	0.6604	-0.133
Mof_C 	C 	0.5526	0.5728	0.71	0.063
Mof_C 	C 	0.5996	0.6242	0.8078	-0.149
Mof_C 	C 	0.5545	0.592	0.8527	0.087
Mof_C 	C 	0.9194	0.0682	0.1354	0.097
Mof_C 	C 	0.03745	0.05574	0.20223	0.066
Mof_C 	C 	0.11424	0.04964	0.26536	0.079
Mof_C 	C 	0.20804	0.0395	0.37314	0.078
Mof_C 	C 	0.2502	0.036	0.4612	0.07
Mof_C 	C 	0.3304	0.0252	0.4908	-0.133
Mof_C 	C 	0.3628	0.0202	0.5728	0.063
Mof_C 	C 	0.3164	0.0246	0.6242	-0.149
Mof_C 	C 	0.2393	0.0375	0.592	0.087
Mof_C 	C 	0.5806	0.716	0.1488	0.097
Mof_C 	C 	0.46255	0.66478	0.01829	0.064
Mof_C 	C 	0.38576	0.65112	0.9354	0.08
Mof_C 	C 	0.29196	0.6651	0.83146	0.078
Mof_C 	C 	0.2498	0.711	0.7858	0.07
Mof_C 	C 	0.1696	0.6604	0.6948	-0.133
Mof_C 	C 	0.1372	0.71	0.6574	0.062
Mof_C 	C 	0.1836	0.8078	0.7082	-0.149
Mof_C 	C 	0.2607	0.8527	0.7982	0.087
Mof_N 	N 	0.64161	0.8969	0.92229	-0.144
Mof_N 	N 	0.58057	0.98819	0.96602	-0.159
Mof_N 	N 	0.52838	0.90247	0.95763	-0.165
Mof_N 	N 	0.79336	0.07618	0.9415	-0.188
Mof_N 	N 	0.78481	0.21041	0.97838	-0.096
Mof_N 	N 	0.70714	0.14175	0.97105	-0.148
Mof_N 	N 	0.96841	0.1623	0.95619	-0.183
Mof_N 	N 	0.85839	0.78068	0.25529	-0.144
Mof_N 	N 	0.91943	0.88545	0.40762	-0.159
Mof_N 	N 	0.97162	0.92925	0.37409	-0.165
Mof_N 	N 	0.70664	0.64814	0.28282	-0.188
Mof_N 	N 	0.71519	0.69357	0.4256	-0.095
Mof_N 	N 	0.79286	0.76391	0.43461	-0.148
Mof_N 	N 	0.53159	0.48778	0.19389	-0.182
Mof_N 	N 	0.02539	0.92229	0.78068	-0.144
Mof_N 	N 	0.97783	0.96602	0.88545	-0.159
Mof_N 	N 	0.05516	0.95763	0.92925	-0.165
Mof_N 	N 	0.86532	0.9415	0.64814	-0.188
Mof_N 	N 	0.76797	0.97838	0.69357	-0.095
Mof_N 	N 	0.8293	0.97105	0.76391	-0.147
Mof_N 	N 	0.79389	0.95619	0.48778	-0.182
Mof_N 	N 	0.47461	0.25529	0.8969	-0.144
Mof_N 	N 	0.52217	0.40762	0.98819	-0.159
Mof_N 	N 	0.44484	0.37409	0.90247	-0.165
Mof_N 	N 	0.63468	0.28282	0.07618	-0.188
Mof_N 	N 	0.73203	0.4256	0.21041	-0.095
Mof_N 	N 	0.6707	0.43461	0.14175	-0.148
Mof_N 	N 	0.70611	0.19389	0.1623	-0.182
Mof_N 	N 	0.35839	0.1031	0.07771	-0.144
Mof_N 	N 	0.41943	0.01181	0.03398	-0.159
Mof_N 	N 	0.47162	0.09753	0.04237	-0.165
Mof_N 	N 	0.20664	0.92382	0.0585	-0.188
Mof_N 	N 	0.21519	0.78959	0.02162	-0.096
Mof_N 	N 	0.29286	0.85825	0.02895	-0.148
Mof_N 	N 	0.03159	0.8377	0.04381	-0.183
Mof_N 	N 	0.14161	0.21932	0.74471	-0.144
Mof_N 	N 	0.08057	0.11455	0.59238	-0.159
Mof_N 	N 	0.02838	0.07075	0.62591	-0.165
Mof_N 	N 	0.29336	0.35186	0.71718	-0.188
Mof_N 	N 	0.28481	0.30643	0.5744	-0.095
Mof_N 	N 	0.20714	0.23609	0.56539	-0.148
Mof_N 	N 	0.46841	0.51222	0.80611	-0.182
Mof_N 	N 	0.97461	0.07771	0.21932	-0.144
Mof_N 	N 	0.02217	0.03398	0.11455	-0.159
Mof_N 	N 	0.94484	0.04237	0.07075	-0.165
Mof_N 	N 	0.13468	0.0585	0.35186	-0.188
Mof_N 	N 	0.23203	0.02162	0.30643	-0.095
Mof_N 	N 	0.1707	0.02895	0.23609	-0.147
Mof_N 	N 	0.20611	0.04381	0.51222	-0.182
Mof_N 	N 	0.52539	0.74471	0.1031	-0.144
Mof_N 	N 	0.47783	0.59238	0.01181	-0.159
Mof_N 	N 	0.55516	0.62591	0.09753	-0.165
Mof_N 	N 	0.36532	0.71718	0.92382	-0.188
Mof_N 	N 	0.26797	0.5744	0.78959	-0.095
Mof_N 	N 	0.3293	0.56539	0.85825	-0.148
Mof_N 	N 	0.29389	0.80611	0.8377	-0.182
_end
