data_functionalizedCrystal
_audit_creation_method	'EQeq! by Chris Wilmer'
_symmetry_space_group_name_H-M	'P1'
_symmetry_Int_Tables_number	1
_symmetry_cell_setting	triclinic
loop_
_symmetry_equiv_pos_as_xyz
  x,y,z
_cell_length_a	29.641
_cell_length_b	11.9922
_cell_length_c	25.453
_cell_angle_alpha	90
_cell_angle_beta	118.613
_cell_angle_gamma	90
loop_
_atom_site_label
_atom_site_type_symbol
_atom_site_fract_x
_atom_site_fract_y
_atom_site_fract_z
_atom_site_charge
Mof_C 	C 	0.28851	0.0033	0.0999	0.09
Mof_H 	H 	0.3213	0.9816	0.1077	-0.002
Mof_C 	C 	0.20805	0.0468	0.0543	0.001
Mof_H 	H 	0.1748	0.0604	0.0241	0.024
Mof_C 	C 	0.22376	0.0549	0.1135	-0.004
Mof_H 	H 	0.2039	0.0755	0.1312	0.031
Mof_C 	C 	0.30906	0.0241	0.20589	0.041
Mof_C 	C 	0.35902	0.0497	0.228	-0.01
Mof_H 	H 	0.3721	0.0661	0.2022	0.034
Mof_C 	C 	0.39105	0.0514	0.2896	-0.179
Mof_H 	H 	0.4256	0.0696	0.3051	0.093
Mof_C 	C 	0.37157	0.0262	0.32735	0.224
Mof_C 	C 	0.32081	0.9983	0.3044	-0.168
Mof_H 	H 	0.3079	0.9797	0.3301	0.103
Mof_C 	C 	0.2888	0.9976	0.2437	-0.007
Mof_H 	H 	0.2542	0.9797	0.2281	0.043
Mof_C 	C 	0.45188	0.0525	0.4134	0.223
Mof_C 	C 	0.4839	0.9636	0.421	-0.165
Mof_H 	H 	0.4699	0.8938	0.4063	0.097
Mof_C 	C 	0.53763	0.9774	0.4507	-0.018
Mof_H 	H 	0.5596	0.9171	0.4582	0.047
Mof_C 	C 	0.5563	0.0837	0.4683	0.054
Mof_C 	C 	0.52453	0.1718	0.4597	-0.017
Mof_H 	H 	0.5382	0.2429	0.4719	0.04
Mof_C 	C 	0.47127	0.1554	0.4325	-0.177
Mof_H 	H 	0.4495	0.2148	0.4277	0.101
Mof_C 	C 	0.64407	0.0356	0.4907	0.095
Mof_H 	H 	0.6346	0.9777	0.4632	0.002
Mof_C 	C 	0.68794	0.153	0.558	0.005
Mof_H 	H 	0.7156	0.1921	0.5874	0.015
Mof_C 	C 	0.63915	0.1751	0.5411	0.003
Mof_H 	H 	0.6267	0.232	0.5554	0.031
Mof_C 	C 	0.27836	0.8395	0.88127	0.098
Mof_H 	H 	0.312	0.8395	0.9124	0.002
Mof_C 	C 	0.19969	0.8712	0.8297	0.013
Mof_H 	H 	0.1667	0.8977	0.8176	0.031
Mof_C 	C 	0.21279	0.8082	0.796	0.003
Mof_H 	H 	0.1912	0.7839	0.7572	0.034
Mof_C 	C 	0.29565	0.7273	0.81174	0.052
Mof_C 	C 	0.28257	0.7203	0.75188	-0.013
Mof_H 	H 	0.2521	0.7524	0.7231	0.039
Mof_C 	C 	0.31422	0.6662	0.7346	-0.168
Mof_H 	H 	0.3055	0.6623	0.6944	0.096
Mof_C 	C 	0.35838	0.6185	0.777	0.213
Mof_C 	C 	0.37072	0.6204	0.836	-0.172
Mof_H 	H 	0.4004	0.5852	0.8643	0.092
Mof_C 	C 	0.33867	0.6752	0.8539	-0.018
Mof_H 	H 	0.3466	0.676	0.8939	0.044
Mof_C 	C 	0.44142	0.5777	0.79	0.204
Mof_C 	C 	0.5454	0.6066	0.84514	0.078
Mof_C 	C 	0.515	0.6987	0.816	-0.034
Mof_H 	H 	0.5291	0.7677	0.8153	0.032
Mof_C 	C 	0.462	0.6804	0.7878	-0.125
Mof_H 	H 	0.4399	0.7386	0.767	0.071
Mof_C 	C 	0.63476	0.539	0.8905	0.102
Mof_H 	H 	0.6261	0.4638	0.8844	-0.005
Mof_C 	C 	0.67844	0.6895	0.9161	0.002
Mof_H 	H 	0.7058	0.7394	0.9316	0.015
Mof_C 	C 	0.62757	0.7179	0.8888	0.002
Mof_H 	H 	0.6142	0.7898	0.882	0.029
Mof_C 	C 	0.27946	0.7513	0.01549	0.218
Mof_Co	Co	0.24529	0.96683	0.96294	1.14
Mof_N 	N 	0.24883	0.0153	0.04518	-0.227
Mof_N 	N 	0.27543	0.0262	0.14243	-0.127
Mof_N 	N 	0.61057	0.098	0.49838	-0.129
Mof_N 	N 	0.69224	0.065	0.52649	-0.239
Mof_N 	N 	0.24039	0.8917	0.88356	-0.227
Mof_N 	N 	0.26335	0.7864	0.8292	-0.13
Mof_N 	N 	0.60001	0.6201	0.87333	-0.137
Mof_N 	N 	0.68254	0.5751	0.9169	-0.239
Mof_O 	O 	0.39976	0.0324	0.38857	-0.28
Mof_O 	O 	0.38853	0.5604	0.75781	-0.278
Mof_O 	O 	0.29951	0.8392	0.01278	-0.362
Mof_O 	O 	0.30417	0.6638	0.04097	-0.358
Mof_C 	C 	0.4712	0.499	0.8201	-0.113
Mof_H 	H 	0.4571	0.4303	0.8211	0.071
Mof_C 	C 	0.5251	0.5124	0.8522	-0.098
Mof_H 	H 	0.5459	0.4566	0.8777	0.063
Mof_C 	C 	0.4708	0.4852	0.7901	-0.049
Mof_H 	H 	0.456	0.4169	0.7734	0.045
Mof_C 	C 	0.5242	0.5038	0.8175	0.032
Mof_H 	H 	0.5458	0.4476	0.8172	0.02
Mof_C 	C 	0.4603	0.6736	0.8124	-0.028
Mof_H 	H 	0.439	0.7322	0.8106	0.041
Mof_C 	C 	0.5147	0.688	0.8401	-0.02
Mof_H 	H 	0.5285	0.7578	0.855	0.035
Mof_C 	C 	0.78851	0.5033	0.0999	0.093
Mof_H 	H 	0.8213	0.4816	0.1077	-0.002
Mof_C 	C 	0.70805	0.5468	0.0543	0.002
Mof_H 	H 	0.6748	0.5604	0.0241	0.025
Mof_C 	C 	0.72376	0.5549	0.1135	-0.003
Mof_H 	H 	0.7039	0.5755	0.1312	0.032
Mof_C 	C 	0.80906	0.5241	0.20589	0.043
Mof_C 	C 	0.85902	0.5497	0.228	-0.009
Mof_H 	H 	0.8721	0.5661	0.2022	0.034
Mof_C 	C 	0.89105	0.5514	0.2896	-0.179
Mof_H 	H 	0.9256	0.5696	0.3051	0.092
Mof_C 	C 	0.87157	0.5262	0.32735	0.225
Mof_C 	C 	0.82081	0.4983	0.3044	-0.169
Mof_H 	H 	0.8079	0.4797	0.3301	0.103
Mof_C 	C 	0.7888	0.4976	0.2437	-0.008
Mof_H 	H 	0.7542	0.4797	0.2281	0.043
Mof_C 	C 	0.95188	0.5525	0.4134	0.223
Mof_C 	C 	0.9839	0.4636	0.421	-0.166
Mof_H 	H 	0.9699	0.3938	0.4063	0.097
Mof_C 	C 	0.03763	0.4774	0.4507	-0.018
Mof_H 	H 	0.0596	0.4171	0.4582	0.047
Mof_C 	C 	0.0563	0.5837	0.4683	0.053
Mof_C 	C 	0.02453	0.6718	0.4597	-0.017
Mof_H 	H 	0.0382	0.7429	0.4719	0.039
Mof_C 	C 	0.97127	0.6554	0.4325	-0.177
Mof_H 	H 	0.9495	0.7148	0.4277	0.101
Mof_C 	C 	0.14407	0.5356	0.4907	0.094
Mof_H 	H 	0.1346	0.4777	0.4632	0.002
Mof_C 	C 	0.18794	0.653	0.558	0.005
Mof_H 	H 	0.2156	0.6921	0.5874	0.015
Mof_C 	C 	0.13915	0.6751	0.5411	0.003
Mof_H 	H 	0.1267	0.732	0.5554	0.031
Mof_C 	C 	0.77836	0.3395	0.88127	0.099
Mof_H 	H 	0.812	0.3395	0.9124	0.003
Mof_C 	C 	0.69969	0.3712	0.8297	0.013
Mof_H 	H 	0.6667	0.3977	0.8176	0.032
Mof_C 	C 	0.71279	0.3082	0.796	0.003
Mof_H 	H 	0.6912	0.2839	0.7572	0.034
Mof_C 	C 	0.79565	0.2273	0.81174	0.052
Mof_C 	C 	0.78257	0.2203	0.75188	-0.013
Mof_H 	H 	0.7521	0.2524	0.7231	0.039
Mof_C 	C 	0.81422	0.1662	0.7346	-0.168
Mof_H 	H 	0.8055	0.1623	0.6944	0.096
Mof_C 	C 	0.85838	0.1185	0.777	0.214
Mof_C 	C 	0.87072	0.1204	0.836	-0.172
Mof_H 	H 	0.9004	0.0852	0.8643	0.093
Mof_C 	C 	0.83867	0.1752	0.8539	-0.018
Mof_H 	H 	0.8466	0.176	0.8939	0.044
Mof_C 	C 	0.94142	0.0777	0.79	0.208
Mof_C 	C 	0.0454	0.1066	0.84514	0.075
Mof_C 	C 	0.015	0.1987	0.816	-0.032
Mof_H 	H 	0.0291	0.2677	0.8153	0.032
Mof_C 	C 	0.962	0.1804	0.7878	-0.126
Mof_H 	H 	0.9399	0.2386	0.767	0.071
Mof_C 	C 	0.13476	0.039	0.8905	0.106
Mof_H 	H 	0.1261	0.9638	0.8844	-0.007
Mof_C 	C 	0.17844	0.1895	0.9161	0.003
Mof_H 	H 	0.2058	0.2394	0.9316	0.015
Mof_C 	C 	0.12757	0.2179	0.8888	0.002
Mof_H 	H 	0.1142	0.2898	0.882	0.029
Mof_C 	C 	0.77946	0.2513	0.01549	0.216
Mof_Co	Co	0.74529	0.46683	0.96294	1.141
Mof_N 	N 	0.74883	0.5153	0.04518	-0.227
Mof_N 	N 	0.77543	0.5262	0.14243	-0.128
Mof_N 	N 	0.11057	0.598	0.49838	-0.129
Mof_N 	N 	0.19224	0.565	0.52649	-0.239
Mof_N 	N 	0.74039	0.3917	0.88356	-0.226
Mof_N 	N 	0.76335	0.2864	0.8292	-0.13
Mof_N 	N 	0.10001	0.1201	0.87333	-0.137
Mof_N 	N 	0.18254	0.0751	0.9169	-0.239
Mof_O 	O 	0.89976	0.5324	0.38857	-0.28
Mof_O 	O 	0.88853	0.0604	0.75781	-0.279
Mof_O 	O 	0.79951	0.3392	0.01278	-0.362
Mof_O 	O 	0.80417	0.1638	0.04097	-0.358
Mof_C 	C 	0.9712	0.999	0.8201	-0.115
Mof_H 	H 	0.9571	0.9303	0.8211	0.072
Mof_C 	C 	0.0251	0.0124	0.8522	-0.096
Mof_H 	H 	0.0459	0.9566	0.8777	0.061
Mof_C 	C 	0.9708	0.9852	0.7901	-0.053
Mof_H 	H 	0.956	0.9169	0.7734	0.046
Mof_C 	C 	0.0242	0.0038	0.8175	0.038
Mof_H 	H 	0.0458	0.9476	0.8172	0.017
Mof_C 	C 	0.9603	0.1736	0.8124	-0.029
Mof_H 	H 	0.939	0.2322	0.8106	0.042
Mof_C 	C 	0.0147	0.188	0.8401	-0.02
Mof_H 	H 	0.0285	0.2578	0.855	0.035
Mof_C 	C 	0.71149	0.0033	0.4001	0.093
Mof_H 	H 	0.6787	0.9816	0.3923	-0.002
Mof_C 	C 	0.79195	0.0468	0.4457	0.002
Mof_H 	H 	0.8252	0.0604	0.4759	0.025
Mof_C 	C 	0.77624	0.0549	0.3865	-0.003
Mof_H 	H 	0.7961	0.0755	0.3688	0.032
Mof_C 	C 	0.69094	0.0241	0.29411	0.043
Mof_C 	C 	0.64098	0.0497	0.272	-0.01
Mof_H 	H 	0.6279	0.0661	0.2978	0.034
Mof_C 	C 	0.60895	0.0514	0.2104	-0.178
Mof_H 	H 	0.5744	0.0696	0.1949	0.092
Mof_C 	C 	0.62843	0.0262	0.17265	0.223
Mof_C 	C 	0.67919	0.9983	0.1956	-0.166
Mof_H 	H 	0.6921	0.9797	0.1699	0.102
Mof_C 	C 	0.7112	0.9976	0.2563	-0.008
Mof_H 	H 	0.7458	0.9797	0.2719	0.043
Mof_C 	C 	0.54812	0.0525	0.0866	0.221
Mof_C 	C 	0.5161	0.9636	0.079	-0.164
Mof_H 	H 	0.5301	0.8938	0.0937	0.097
Mof_C 	C 	0.46237	0.9774	0.0493	-0.016
Mof_H 	H 	0.4404	0.9171	0.0418	0.047
Mof_C 	C 	0.4437	0.0837	0.0317	0.051
Mof_C 	C 	0.47547	0.1718	0.0403	-0.016
Mof_H 	H 	0.4618	0.2429	0.0281	0.039
Mof_C 	C 	0.52873	0.1554	0.0675	-0.177
Mof_H 	H 	0.5505	0.2148	0.0723	0.101
Mof_C 	C 	0.35593	0.0356	0.0093	0.09
Mof_H 	H 	0.3654	0.9777	0.0368	0.005
Mof_C 	C 	0.31206	0.153	0.942	0.004
Mof_H 	H 	0.2844	0.1921	0.9126	0.015
Mof_C 	C 	0.36085	0.1751	0.9589	0.005
Mof_H 	H 	0.3733	0.232	0.9446	0.031
Mof_C 	C 	0.72164	0.8395	0.61873	0.098
Mof_H 	H 	0.688	0.8395	0.5876	0.003
Mof_C 	C 	0.80031	0.8712	0.6703	0.013
Mof_H 	H 	0.8333	0.8977	0.6824	0.031
Mof_C 	C 	0.78721	0.8082	0.704	0.003
Mof_H 	H 	0.8088	0.7839	0.7428	0.034
Mof_C 	C 	0.70435	0.7273	0.68826	0.052
Mof_C 	C 	0.71743	0.7203	0.74812	-0.014
Mof_H 	H 	0.7479	0.7524	0.7769	0.039
Mof_C 	C 	0.68578	0.6662	0.7654	-0.168
Mof_H 	H 	0.6945	0.6623	0.8056	0.096
Mof_C 	C 	0.64162	0.6185	0.723	0.213
Mof_C 	C 	0.62928	0.6204	0.664	-0.172
Mof_H 	H 	0.5996	0.5852	0.6357	0.092
Mof_C 	C 	0.66133	0.6752	0.6461	-0.018
Mof_H 	H 	0.6534	0.676	0.6061	0.044
Mof_C 	C 	0.55858	0.5777	0.71	0.204
Mof_C 	C 	0.4546	0.6066	0.65486	0.078
Mof_C 	C 	0.485	0.6987	0.684	-0.034
Mof_H 	H 	0.4709	0.7677	0.6847	0.033
Mof_C 	C 	0.538	0.6804	0.7122	-0.125
Mof_H 	H 	0.5601	0.7386	0.733	0.071
Mof_C 	C 	0.36524	0.539	0.6095	0.102
Mof_H 	H 	0.3739	0.4638	0.6156	-0.005
Mof_C 	C 	0.32156	0.6895	0.5839	0.002
Mof_H 	H 	0.2942	0.7394	0.5684	0.015
Mof_C 	C 	0.37243	0.7179	0.6112	0.002
Mof_H 	H 	0.3858	0.7898	0.618	0.029
Mof_C 	C 	0.72054	0.7513	0.48451	0.217
Mof_Co	Co	0.75471	0.96683	0.53706	1.141
Mof_N 	N 	0.75117	0.0153	0.45482	-0.227
Mof_N 	N 	0.72457	0.0262	0.35757	-0.128
Mof_N 	N 	0.38943	0.098	0.00162	-0.129
Mof_N 	N 	0.30776	0.065	0.97351	-0.237
Mof_N 	N 	0.75961	0.8917	0.61644	-0.226
Mof_N 	N 	0.73665	0.7864	0.6708	-0.13
Mof_N 	N 	0.39999	0.6201	0.62667	-0.137
Mof_N 	N 	0.31746	0.5751	0.5831	-0.239
Mof_O 	O 	0.60024	0.0324	0.11143	-0.279
Mof_O 	O 	0.61147	0.5604	0.74219	-0.278
Mof_O 	O 	0.70049	0.8392	0.48722	-0.362
Mof_O 	O 	0.69583	0.6638	0.45903	-0.358
Mof_C 	C 	0.5288	0.499	0.6799	-0.113
Mof_H 	H 	0.5429	0.4303	0.6789	0.071
Mof_C 	C 	0.4749	0.5124	0.6478	-0.098
Mof_H 	H 	0.4541	0.4566	0.6223	0.063
Mof_C 	C 	0.5292	0.4852	0.7099	-0.049
Mof_H 	H 	0.544	0.4169	0.7266	0.045
Mof_C 	C 	0.4758	0.5038	0.6825	0.032
Mof_H 	H 	0.4542	0.4476	0.6828	0.02
Mof_C 	C 	0.5397	0.6736	0.6876	-0.028
Mof_H 	H 	0.561	0.7322	0.6894	0.041
Mof_C 	C 	0.4853	0.688	0.6599	-0.02
Mof_H 	H 	0.4715	0.7578	0.645	0.035
Mof_C 	C 	0.21149	0.5033	0.4001	0.093
Mof_H 	H 	0.1787	0.4816	0.3923	-0.002
Mof_C 	C 	0.29195	0.5468	0.4457	0.002
Mof_H 	H 	0.3252	0.5604	0.4759	0.025
Mof_C 	C 	0.27624	0.5549	0.3865	-0.003
Mof_H 	H 	0.2961	0.5755	0.3688	0.032
Mof_C 	C 	0.19094	0.5241	0.29411	0.043
Mof_C 	C 	0.14098	0.5497	0.272	-0.009
Mof_H 	H 	0.1279	0.5661	0.2978	0.034
Mof_C 	C 	0.10895	0.5514	0.2104	-0.179
Mof_H 	H 	0.0744	0.5696	0.1949	0.092
Mof_C 	C 	0.12843	0.5262	0.17265	0.225
Mof_C 	C 	0.17919	0.4983	0.1956	-0.169
Mof_H 	H 	0.1921	0.4797	0.1699	0.103
Mof_C 	C 	0.2112	0.4976	0.2563	-0.008
Mof_H 	H 	0.2458	0.4797	0.2719	0.043
Mof_C 	C 	0.04812	0.5525	0.0866	0.223
Mof_C 	C 	0.0161	0.4636	0.079	-0.166
Mof_H 	H 	0.0301	0.3938	0.0937	0.097
Mof_C 	C 	0.96237	0.4774	0.0493	-0.018
Mof_H 	H 	0.9404	0.4171	0.0418	0.047
Mof_C 	C 	0.9437	0.5837	0.0317	0.054
Mof_C 	C 	0.97547	0.6718	0.0403	-0.017
Mof_H 	H 	0.9618	0.7429	0.0281	0.04
Mof_C 	C 	0.02873	0.6554	0.0675	-0.177
Mof_H 	H 	0.0505	0.7148	0.0723	0.101
Mof_C 	C 	0.85593	0.5356	0.0093	0.095
Mof_H 	H 	0.8654	0.4777	0.0368	0.002
Mof_C 	C 	0.81206	0.653	0.942	0.005
Mof_H 	H 	0.7844	0.6921	0.9126	0.015
Mof_C 	C 	0.86085	0.6751	0.9589	0.003
Mof_H 	H 	0.8733	0.732	0.9446	0.031
Mof_C 	C 	0.22164	0.3395	0.61873	0.099
Mof_H 	H 	0.188	0.3395	0.5876	0.003
Mof_C 	C 	0.30031	0.3712	0.6703	0.013
Mof_H 	H 	0.3333	0.3977	0.6824	0.032
Mof_C 	C 	0.28721	0.3082	0.704	0.003
Mof_H 	H 	0.3088	0.2839	0.7428	0.034
Mof_C 	C 	0.20435	0.2273	0.68826	0.052
Mof_C 	C 	0.21743	0.2203	0.74812	-0.013
Mof_H 	H 	0.2479	0.2524	0.7769	0.039
Mof_C 	C 	0.18578	0.1662	0.7654	-0.168
Mof_H 	H 	0.1945	0.1623	0.8056	0.096
Mof_C 	C 	0.14162	0.1185	0.723	0.214
Mof_C 	C 	0.12928	0.1204	0.664	-0.172
Mof_H 	H 	0.0996	0.0852	0.6357	0.092
Mof_C 	C 	0.16133	0.1752	0.6461	-0.018
Mof_H 	H 	0.1534	0.176	0.6061	0.044
Mof_C 	C 	0.05858	0.0777	0.71	0.207
Mof_C 	C 	0.9546	0.1066	0.65486	0.076
Mof_C 	C 	0.985	0.1987	0.684	-0.033
Mof_H 	H 	0.9709	0.2677	0.6847	0.032
Mof_C 	C 	0.038	0.1804	0.7122	-0.125
Mof_H 	H 	0.0601	0.2386	0.733	0.071
Mof_C 	C 	0.86524	0.039	0.6095	0.103
Mof_H 	H 	0.8739	0.9638	0.6156	-0.006
Mof_C 	C 	0.82156	0.1895	0.5839	0.003
Mof_H 	H 	0.7942	0.2394	0.5684	0.015
Mof_C 	C 	0.87243	0.2179	0.6112	0.002
Mof_H 	H 	0.8858	0.2898	0.618	0.029
Mof_C 	C 	0.22054	0.2513	0.48451	0.217
Mof_Co	Co	0.25471	0.46683	0.53706	1.141
Mof_N 	N 	0.25117	0.5153	0.45482	-0.227
Mof_N 	N 	0.22457	0.5262	0.35757	-0.128
Mof_N 	N 	0.88943	0.598	0.00162	-0.129
Mof_N 	N 	0.80776	0.565	0.97351	-0.239
Mof_N 	N 	0.25961	0.3917	0.61644	-0.226
Mof_N 	N 	0.23665	0.2864	0.6708	-0.13
Mof_N 	N 	0.89999	0.1201	0.62667	-0.137
Mof_N 	N 	0.81746	0.0751	0.5831	-0.239
Mof_O 	O 	0.10024	0.5324	0.11143	-0.28
Mof_O 	O 	0.11147	0.0604	0.74219	-0.279
Mof_O 	O 	0.20049	0.3392	0.48722	-0.362
Mof_O 	O 	0.19583	0.1638	0.45903	-0.358
Mof_C 	C 	0.0288	0.999	0.6799	-0.116
Mof_H 	H 	0.0429	0.9303	0.6789	0.072
Mof_C 	C 	0.9749	0.0124	0.6478	-0.097
Mof_H 	H 	0.9541	0.9566	0.6223	0.062
Mof_C 	C 	0.0292	0.9852	0.7099	-0.05
Mof_H 	H 	0.044	0.9169	0.7266	0.045
Mof_C 	C 	0.9758	0.0038	0.6825	0.036
Mof_H 	H 	0.9542	0.9476	0.6828	0.018
Mof_C 	C 	0.0397	0.1736	0.6876	-0.029
Mof_H 	H 	0.061	0.2322	0.6894	0.042
Mof_C 	C 	0.9853	0.188	0.6599	-0.02
Mof_H 	H 	0.9715	0.2578	0.645	0.035
Mof_C 	C 	0.71149	0.9967	0.9001	0.091
Mof_H 	H 	0.6787	0.0184	0.8923	-0.001
Mof_C 	C 	0.79195	0.9532	0.9457	0.002
Mof_H 	H 	0.8252	0.9396	0.9759	0.025
Mof_C 	C 	0.77624	0.9451	0.8865	-0.003
Mof_H 	H 	0.7961	0.9245	0.8688	0.032
Mof_C 	C 	0.69094	0.9759	0.79411	0.042
Mof_C 	C 	0.64098	0.9503	0.772	-0.009
Mof_H 	H 	0.6279	0.9339	0.7978	0.034
Mof_C 	C 	0.60895	0.9486	0.7104	-0.179
Mof_H 	H 	0.5744	0.9304	0.6949	0.093
Mof_C 	C 	0.62843	0.9738	0.67265	0.224
Mof_C 	C 	0.67919	0.0017	0.6956	-0.168
Mof_H 	H 	0.6921	0.0203	0.6699	0.103
Mof_C 	C 	0.7112	0.0024	0.7563	-0.007
Mof_H 	H 	0.7458	0.0203	0.7719	0.043
Mof_C 	C 	0.54812	0.9475	0.5866	0.223
Mof_C 	C 	0.5161	0.0364	0.579	-0.165
Mof_H 	H 	0.5301	0.1062	0.5937	0.097
Mof_C 	C 	0.46237	0.0226	0.5493	-0.018
Mof_H 	H 	0.4404	0.0829	0.5418	0.047
Mof_C 	C 	0.4437	0.9163	0.5317	0.054
Mof_C 	C 	0.47547	0.8282	0.5403	-0.017
Mof_H 	H 	0.4618	0.7571	0.5281	0.04
Mof_C 	C 	0.52873	0.8446	0.5675	-0.177
Mof_H 	H 	0.5505	0.7852	0.5723	0.101
Mof_C 	C 	0.35593	0.9644	0.5093	0.095
Mof_H 	H 	0.3654	0.0223	0.5368	0.002
Mof_C 	C 	0.31206	0.847	0.442	0.005
Mof_H 	H 	0.2844	0.8079	0.4126	0.015
Mof_C 	C 	0.36085	0.8249	0.4589	0.003
Mof_H 	H 	0.3733	0.768	0.4446	0.031
Mof_C 	C 	0.72164	0.1605	0.11873	0.098
Mof_H 	H 	0.688	0.1605	0.0876	0.002
Mof_C 	C 	0.80031	0.1288	0.1703	0.013
Mof_H 	H 	0.8333	0.1023	0.1824	0.031
Mof_C 	C 	0.78721	0.1918	0.204	0.003
Mof_H 	H 	0.8088	0.2161	0.2428	0.034
Mof_C 	C 	0.70435	0.2727	0.18826	0.052
Mof_C 	C 	0.71743	0.2797	0.24812	-0.013
Mof_H 	H 	0.7479	0.2476	0.2769	0.039
Mof_C 	C 	0.68578	0.3338	0.2654	-0.168
Mof_H 	H 	0.6945	0.3377	0.3056	0.096
Mof_C 	C 	0.64162	0.3815	0.223	0.213
Mof_C 	C 	0.62928	0.3796	0.164	-0.172
Mof_H 	H 	0.5996	0.4148	0.1357	0.092
Mof_C 	C 	0.66133	0.3248	0.1461	-0.018
Mof_H 	H 	0.6534	0.324	0.1061	0.044
Mof_C 	C 	0.55858	0.4223	0.21	0.204
Mof_C 	C 	0.4546	0.3934	0.15486	0.078
Mof_C 	C 	0.485	0.3013	0.184	-0.034
Mof_H 	H 	0.4709	0.2323	0.1847	0.032
Mof_C 	C 	0.538	0.3196	0.2122	-0.125
Mof_H 	H 	0.5601	0.2614	0.233	0.071
Mof_C 	C 	0.36524	0.461	0.1095	0.102
Mof_H 	H 	0.3739	0.5362	0.1156	-0.005
Mof_C 	C 	0.32156	0.3105	0.0839	0.002
Mof_H 	H 	0.2942	0.2606	0.0684	0.015
Mof_C 	C 	0.37243	0.2821	0.1112	0.002
Mof_H 	H 	0.3858	0.2102	0.118	0.029
Mof_C 	C 	0.72054	0.2487	0.98451	0.218
Mof_Co	Co	0.75471	0.03317	0.03706	1.14
Mof_N 	N 	0.75117	0.9847	0.95482	-0.227
Mof_N 	N 	0.72457	0.9738	0.85757	-0.127
Mof_N 	N 	0.38943	0.902	0.50162	-0.129
Mof_N 	N 	0.30776	0.935	0.47351	-0.239
Mof_N 	N 	0.75961	0.1083	0.11644	-0.227
Mof_N 	N 	0.73665	0.2136	0.1708	-0.13
Mof_N 	N 	0.39999	0.3799	0.12667	-0.137
Mof_N 	N 	0.31746	0.4249	0.0831	-0.239
Mof_O 	O 	0.60024	0.9676	0.61143	-0.28
Mof_O 	O 	0.61147	0.4396	0.24219	-0.278
Mof_O 	O 	0.70049	0.1608	0.98722	-0.362
Mof_O 	O 	0.69583	0.3362	0.95903	-0.358
Mof_C 	C 	0.5288	0.501	0.1799	-0.113
Mof_H 	H 	0.5429	0.5697	0.1789	0.071
Mof_C 	C 	0.4749	0.4876	0.1478	-0.098
Mof_H 	H 	0.4541	0.5434	0.1223	0.063
Mof_C 	C 	0.5292	0.5148	0.2099	-0.049
Mof_H 	H 	0.544	0.5831	0.2266	0.045
Mof_C 	C 	0.4758	0.4962	0.1825	0.032
Mof_H 	H 	0.4542	0.5524	0.1828	0.02
Mof_C 	C 	0.5397	0.3264	0.1876	-0.028
Mof_H 	H 	0.561	0.2678	0.1894	0.041
Mof_C 	C 	0.4853	0.312	0.1599	-0.02
Mof_H 	H 	0.4715	0.2422	0.145	0.035
Mof_C 	C 	0.21149	0.4967	0.9001	0.093
Mof_H 	H 	0.1787	0.5184	0.8923	-0.002
Mof_C 	C 	0.29195	0.4532	0.9457	0.002
Mof_H 	H 	0.3252	0.4396	0.9759	0.025
Mof_C 	C 	0.27624	0.4451	0.8865	-0.003
Mof_H 	H 	0.2961	0.4245	0.8688	0.032
Mof_C 	C 	0.19094	0.4759	0.79411	0.043
Mof_C 	C 	0.14098	0.4503	0.772	-0.009
Mof_H 	H 	0.1279	0.4339	0.7978	0.034
Mof_C 	C 	0.10895	0.4486	0.7104	-0.179
Mof_H 	H 	0.0744	0.4304	0.6949	0.092
Mof_C 	C 	0.12843	0.4738	0.67265	0.225
Mof_C 	C 	0.17919	0.5017	0.6956	-0.169
Mof_H 	H 	0.1921	0.5203	0.6699	0.103
Mof_C 	C 	0.2112	0.5024	0.7563	-0.008
Mof_H 	H 	0.2458	0.5203	0.7719	0.043
Mof_C 	C 	0.04812	0.4475	0.5866	0.223
Mof_C 	C 	0.0161	0.5364	0.579	-0.166
Mof_H 	H 	0.0301	0.6062	0.5937	0.097
Mof_C 	C 	0.96237	0.5226	0.5493	-0.018
Mof_H 	H 	0.9404	0.5829	0.5418	0.047
Mof_C 	C 	0.9437	0.4163	0.5317	0.053
Mof_C 	C 	0.97547	0.3282	0.5403	-0.017
Mof_H 	H 	0.9618	0.2571	0.5281	0.039
Mof_C 	C 	0.02873	0.3446	0.5675	-0.177
Mof_H 	H 	0.0505	0.2852	0.5723	0.101
Mof_C 	C 	0.85593	0.4644	0.5093	0.094
Mof_H 	H 	0.8654	0.5223	0.5368	0.002
Mof_C 	C 	0.81206	0.347	0.442	0.005
Mof_H 	H 	0.7844	0.3079	0.4126	0.015
Mof_C 	C 	0.86085	0.3249	0.4589	0.003
Mof_H 	H 	0.8733	0.268	0.4446	0.031
Mof_C 	C 	0.22164	0.6605	0.11873	0.099
Mof_H 	H 	0.188	0.6605	0.0876	0.003
Mof_C 	C 	0.30031	0.6288	0.1703	0.013
Mof_H 	H 	0.3333	0.6023	0.1824	0.032
Mof_C 	C 	0.28721	0.6918	0.204	0.003
Mof_H 	H 	0.3088	0.7161	0.2428	0.034
Mof_C 	C 	0.20435	0.7727	0.18826	0.052
Mof_C 	C 	0.21743	0.7797	0.24812	-0.013
Mof_H 	H 	0.2479	0.7476	0.2769	0.039
Mof_C 	C 	0.18578	0.8338	0.2654	-0.168
Mof_H 	H 	0.1945	0.8377	0.3056	0.096
Mof_C 	C 	0.14162	0.8815	0.223	0.214
Mof_C 	C 	0.12928	0.8796	0.164	-0.172
Mof_H 	H 	0.0996	0.9148	0.1357	0.093
Mof_C 	C 	0.16133	0.8248	0.1461	-0.018
Mof_H 	H 	0.1534	0.824	0.1061	0.044
Mof_C 	C 	0.05858	0.9223	0.21	0.208
Mof_C 	C 	0.9546	0.8934	0.15486	0.075
Mof_C 	C 	0.985	0.8013	0.184	-0.032
Mof_H 	H 	0.9709	0.7323	0.1847	0.032
Mof_C 	C 	0.038	0.8196	0.2122	-0.126
Mof_H 	H 	0.0601	0.7614	0.233	0.071
Mof_C 	C 	0.86524	0.961	0.1095	0.106
Mof_H 	H 	0.8739	0.0362	0.1156	-0.007
Mof_C 	C 	0.82156	0.8105	0.0839	0.003
Mof_H 	H 	0.7942	0.7606	0.0684	0.015
Mof_C 	C 	0.87243	0.7821	0.1112	0.002
Mof_H 	H 	0.8858	0.7102	0.118	0.029
Mof_C 	C 	0.22054	0.7487	0.98451	0.216
Mof_Co	Co	0.25471	0.53317	0.03706	1.141
Mof_N 	N 	0.25117	0.4847	0.95482	-0.227
Mof_N 	N 	0.22457	0.4738	0.85757	-0.128
Mof_N 	N 	0.88943	0.402	0.50162	-0.129
Mof_N 	N 	0.80776	0.435	0.47351	-0.239
Mof_N 	N 	0.25961	0.6083	0.11644	-0.226
Mof_N 	N 	0.23665	0.7136	0.1708	-0.13
Mof_N 	N 	0.89999	0.8799	0.12667	-0.137
Mof_N 	N 	0.81746	0.9249	0.0831	-0.239
Mof_O 	O 	0.10024	0.4676	0.61143	-0.28
Mof_O 	O 	0.11147	0.9396	0.24219	-0.279
Mof_O 	O 	0.20049	0.6608	0.98722	-0.362
Mof_O 	O 	0.19583	0.8362	0.95903	-0.358
Mof_C 	C 	0.0288	0.001	0.1799	-0.115
Mof_H 	H 	0.0429	0.0697	0.1789	0.072
Mof_C 	C 	0.9749	0.9876	0.1478	-0.096
Mof_H 	H 	0.9541	0.0434	0.1223	0.061
Mof_C 	C 	0.0292	0.0148	0.2099	-0.053
Mof_H 	H 	0.044	0.0831	0.2266	0.046
Mof_C 	C 	0.9758	0.9962	0.1825	0.038
Mof_H 	H 	0.9542	0.0524	0.1828	0.017
Mof_C 	C 	0.0397	0.8264	0.1876	-0.029
Mof_H 	H 	0.061	0.7678	0.1894	0.042
Mof_C 	C 	0.9853	0.812	0.1599	-0.02
Mof_H 	H 	0.9715	0.7422	0.145	0.035
Mof_C 	C 	0.28851	0.9967	0.5999	0.093
Mof_H 	H 	0.3213	0.0184	0.6077	-0.002
Mof_C 	C 	0.20805	0.9532	0.5543	0.002
Mof_H 	H 	0.1748	0.9396	0.5241	0.025
Mof_C 	C 	0.22376	0.9451	0.6135	-0.003
Mof_H 	H 	0.2039	0.9245	0.6312	0.032
Mof_C 	C 	0.30906	0.9759	0.70589	0.043
Mof_C 	C 	0.35902	0.9503	0.728	-0.01
Mof_H 	H 	0.3721	0.9339	0.7022	0.034
Mof_C 	C 	0.39105	0.9486	0.7896	-0.178
Mof_H 	H 	0.4256	0.9304	0.8051	0.092
Mof_C 	C 	0.37157	0.9738	0.82735	0.223
Mof_C 	C 	0.32081	0.0017	0.8044	-0.166
Mof_H 	H 	0.3079	0.0203	0.8301	0.102
Mof_C 	C 	0.2888	0.0024	0.7437	-0.008
Mof_H 	H 	0.2542	0.0203	0.7281	0.043
Mof_C 	C 	0.45188	0.9475	0.9134	0.221
Mof_C 	C 	0.4839	0.0364	0.921	-0.164
Mof_H 	H 	0.4699	0.1062	0.9063	0.097
Mof_C 	C 	0.53763	0.0226	0.9507	-0.016
Mof_H 	H 	0.5596	0.0829	0.9582	0.047
Mof_C 	C 	0.5563	0.9163	0.9683	0.051
Mof_C 	C 	0.52453	0.8282	0.9597	-0.016
Mof_H 	H 	0.5382	0.7571	0.9719	0.039
Mof_C 	C 	0.47127	0.8446	0.9325	-0.177
Mof_H 	H 	0.4495	0.7852	0.9277	0.101
Mof_C 	C 	0.64407	0.9644	0.9907	0.09
Mof_H 	H 	0.6346	0.0223	0.9632	0.005
Mof_C 	C 	0.68794	0.847	0.058	0.004
Mof_H 	H 	0.7156	0.8079	0.0874	0.015
Mof_C 	C 	0.63915	0.8249	0.0411	0.005
Mof_H 	H 	0.6267	0.768	0.0554	0.031
Mof_C 	C 	0.27836	0.1605	0.38127	0.098
Mof_H 	H 	0.312	0.1605	0.4124	0.003
Mof_C 	C 	0.19969	0.1288	0.3297	0.013
Mof_H 	H 	0.1667	0.1023	0.3176	0.031
Mof_C 	C 	0.21279	0.1918	0.296	0.003
Mof_H 	H 	0.1912	0.2161	0.2572	0.034
Mof_C 	C 	0.29565	0.2727	0.31174	0.052
Mof_C 	C 	0.28257	0.2797	0.25188	-0.014
Mof_H 	H 	0.2521	0.2476	0.2231	0.039
Mof_C 	C 	0.31422	0.3338	0.2346	-0.168
Mof_H 	H 	0.3055	0.3377	0.1944	0.096
Mof_C 	C 	0.35838	0.3815	0.277	0.213
Mof_C 	C 	0.37072	0.3796	0.336	-0.172
Mof_H 	H 	0.4004	0.4148	0.3643	0.092
Mof_C 	C 	0.33867	0.3248	0.3539	-0.018
Mof_H 	H 	0.3466	0.324	0.3939	0.044
Mof_C 	C 	0.44142	0.4223	0.29	0.204
Mof_C 	C 	0.5454	0.3934	0.34514	0.078
Mof_C 	C 	0.515	0.3013	0.316	-0.034
Mof_H 	H 	0.5291	0.2323	0.3153	0.033
Mof_C 	C 	0.462	0.3196	0.2878	-0.125
Mof_H 	H 	0.4399	0.2614	0.267	0.071
Mof_C 	C 	0.63476	0.461	0.3905	0.102
Mof_H 	H 	0.6261	0.5362	0.3844	-0.005
Mof_C 	C 	0.67844	0.3105	0.4161	0.002
Mof_H 	H 	0.7058	0.2606	0.4316	0.015
Mof_C 	C 	0.62757	0.2821	0.3888	0.002
Mof_H 	H 	0.6142	0.2102	0.382	0.029
Mof_C 	C 	0.27946	0.2487	0.51549	0.217
Mof_Co	Co	0.24529	0.03317	0.46294	1.141
Mof_N 	N 	0.24883	0.9847	0.54518	-0.227
Mof_N 	N 	0.27543	0.9738	0.64243	-0.128
Mof_N 	N 	0.61057	0.902	0.99838	-0.129
Mof_N 	N 	0.69224	0.935	0.02649	-0.237
Mof_N 	N 	0.24039	0.1083	0.38356	-0.226
Mof_N 	N 	0.26335	0.2136	0.3292	-0.13
Mof_N 	N 	0.60001	0.3799	0.37333	-0.137
Mof_N 	N 	0.68254	0.4249	0.4169	-0.239
Mof_O 	O 	0.39976	0.9676	0.88857	-0.279
Mof_O 	O 	0.38853	0.4396	0.25781	-0.278
Mof_O 	O 	0.29951	0.1608	0.51278	-0.362
Mof_O 	O 	0.30417	0.3362	0.54097	-0.358
Mof_C 	C 	0.4712	0.501	0.3201	-0.113
Mof_H 	H 	0.4571	0.5697	0.3211	0.071
Mof_C 	C 	0.5251	0.4876	0.3522	-0.098
Mof_H 	H 	0.5459	0.5434	0.3777	0.063
Mof_C 	C 	0.4708	0.5148	0.2901	-0.049
Mof_H 	H 	0.456	0.5831	0.2734	0.045
Mof_C 	C 	0.5242	0.4962	0.3175	0.032
Mof_H 	H 	0.5458	0.5524	0.3172	0.02
Mof_C 	C 	0.4603	0.3264	0.3124	-0.028
Mof_H 	H 	0.439	0.2678	0.3106	0.041
Mof_C 	C 	0.5147	0.312	0.3401	-0.02
Mof_H 	H 	0.5285	0.2422	0.355	0.035
Mof_C 	C 	0.78851	0.4967	0.5999	0.093
Mof_H 	H 	0.8213	0.5184	0.6077	-0.002
Mof_C 	C 	0.70805	0.4532	0.5543	0.002
Mof_H 	H 	0.6748	0.4396	0.5241	0.025
Mof_C 	C 	0.72376	0.4451	0.6135	-0.003
Mof_H 	H 	0.7039	0.4245	0.6312	0.032
Mof_C 	C 	0.80906	0.4759	0.70589	0.043
Mof_C 	C 	0.85902	0.4503	0.728	-0.009
Mof_H 	H 	0.8721	0.4339	0.7022	0.034
Mof_C 	C 	0.89105	0.4486	0.7896	-0.179
Mof_H 	H 	0.9256	0.4304	0.8051	0.092
Mof_C 	C 	0.87157	0.4738	0.82735	0.225
Mof_C 	C 	0.82081	0.5017	0.8044	-0.169
Mof_H 	H 	0.8079	0.5203	0.8301	0.103
Mof_C 	C 	0.7888	0.5024	0.7437	-0.008
Mof_H 	H 	0.7542	0.5203	0.7281	0.043
Mof_C 	C 	0.95188	0.4475	0.9134	0.223
Mof_C 	C 	0.9839	0.5364	0.921	-0.166
Mof_H 	H 	0.9699	0.6062	0.9063	0.097
Mof_C 	C 	0.03763	0.5226	0.9507	-0.018
Mof_H 	H 	0.0596	0.5829	0.9582	0.047
Mof_C 	C 	0.0563	0.4163	0.9683	0.054
Mof_C 	C 	0.02453	0.3282	0.9597	-0.017
Mof_H 	H 	0.0382	0.2571	0.9719	0.04
Mof_C 	C 	0.97127	0.3446	0.9325	-0.177
Mof_H 	H 	0.9495	0.2852	0.9277	0.101
Mof_C 	C 	0.14407	0.4644	0.9907	0.095
Mof_H 	H 	0.1346	0.5223	0.9632	0.002
Mof_C 	C 	0.18794	0.347	0.058	0.005
Mof_H 	H 	0.2156	0.3079	0.0874	0.015
Mof_C 	C 	0.13915	0.3249	0.0411	0.003
Mof_H 	H 	0.1267	0.268	0.0554	0.031
Mof_C 	C 	0.77836	0.6605	0.38127	0.099
Mof_H 	H 	0.812	0.6605	0.4124	0.003
Mof_C 	C 	0.69969	0.6288	0.3297	0.013
Mof_H 	H 	0.6667	0.6023	0.3176	0.032
Mof_C 	C 	0.71279	0.6918	0.296	0.003
Mof_H 	H 	0.6912	0.7161	0.2572	0.034
Mof_C 	C 	0.79565	0.7727	0.31174	0.052
Mof_C 	C 	0.78257	0.7797	0.25188	-0.013
Mof_H 	H 	0.7521	0.7476	0.2231	0.039
Mof_C 	C 	0.81422	0.8338	0.2346	-0.168
Mof_H 	H 	0.8055	0.8377	0.1944	0.096
Mof_C 	C 	0.85838	0.8815	0.277	0.214
Mof_C 	C 	0.87072	0.8796	0.336	-0.172
Mof_H 	H 	0.9004	0.9148	0.3643	0.092
Mof_C 	C 	0.83867	0.8248	0.3539	-0.018
Mof_H 	H 	0.8466	0.824	0.3939	0.044
Mof_C 	C 	0.94142	0.9223	0.29	0.207
Mof_C 	C 	0.0454	0.8934	0.34514	0.076
Mof_C 	C 	0.015	0.8013	0.316	-0.033
Mof_H 	H 	0.0291	0.7323	0.3153	0.032
Mof_C 	C 	0.962	0.8196	0.2878	-0.125
Mof_H 	H 	0.9399	0.7614	0.267	0.071
Mof_C 	C 	0.13476	0.961	0.3905	0.103
Mof_H 	H 	0.1261	0.0362	0.3844	-0.006
Mof_C 	C 	0.17844	0.8105	0.4161	0.003
Mof_H 	H 	0.2058	0.7606	0.4316	0.015
Mof_C 	C 	0.12757	0.7821	0.3888	0.002
Mof_H 	H 	0.1142	0.7102	0.382	0.029
Mof_C 	C 	0.77946	0.7487	0.51549	0.217
Mof_Co	Co	0.74529	0.53317	0.46294	1.141
Mof_N 	N 	0.74883	0.4847	0.54518	-0.227
Mof_N 	N 	0.77543	0.4738	0.64243	-0.128
Mof_N 	N 	0.11057	0.402	0.99838	-0.129
Mof_N 	N 	0.19224	0.435	0.02649	-0.239
Mof_N 	N 	0.74039	0.6083	0.38356	-0.226
Mof_N 	N 	0.76335	0.7136	0.3292	-0.13
Mof_N 	N 	0.10001	0.8799	0.37333	-0.137
Mof_N 	N 	0.18254	0.9249	0.4169	-0.239
Mof_O 	O 	0.89976	0.4676	0.88857	-0.28
Mof_O 	O 	0.88853	0.9396	0.25781	-0.279
Mof_O 	O 	0.79951	0.6608	0.51278	-0.362
Mof_O 	O 	0.80417	0.8362	0.54097	-0.358
Mof_C 	C 	0.9712	0.001	0.3201	-0.116
Mof_H 	H 	0.9571	0.0697	0.3211	0.072
Mof_C 	C 	0.0251	0.9876	0.3522	-0.097
Mof_H 	H 	0.0459	0.0434	0.3777	0.062
Mof_C 	C 	0.9708	0.0148	0.2901	-0.05
Mof_H 	H 	0.956	0.0831	0.2734	0.045
Mof_C 	C 	0.0242	0.9962	0.3175	0.036
Mof_H 	H 	0.0458	0.0524	0.3172	0.018
Mof_C 	C 	0.9603	0.8264	0.3124	-0.029
Mof_H 	H 	0.939	0.7678	0.3106	0.042
Mof_C 	C 	0.0147	0.812	0.3401	-0.02
Mof_H 	H 	0.0285	0.7422	0.355	0.035
_end
