data_functionalizedCrystal
_audit_creation_method	'EQeq! by Chris Wilmer'
_symmetry_space_group_name_H-M	'P1'
_symmetry_Int_Tables_number	1
_symmetry_cell_setting	triclinic
loop_
_symmetry_equiv_pos_as_xyz
  x,y,z
_cell_length_a	13.5494
_cell_length_b	13.5494
_cell_length_c	15.2795
_cell_angle_alpha	90
_cell_angle_beta	90
_cell_angle_gamma	120
loop_
_atom_site_label
_atom_site_type_symbol
_atom_site_fract_x
_atom_site_fract_y
_atom_site_fract_z
_atom_site_charge
Mof_Al	Al	0.0973	0.6621	0.0695	7.04
Mof_P 	P 	0.3283	0.8979	0.063	1.854
Mof_O 	O 	0.216	0.7896	0.0436	-2.24
Mof_O 	O 	0.1259	0.5528	0.052	-2.348
Mof_O 	O 	0.9898	0.6496	0.0019	-2.116
Mof_O 	O 	0.0539	0.6607	0.1773	-2.235
Mof_Al	Al	0.76397	0.99543	0.40283	7.163
Mof_P 	P 	0.99497	0.23123	0.39633	1.916
Mof_O 	O 	0.88267	0.12293	0.37693	-2.255
Mof_O 	O 	0.79257	0.88613	0.38533	-2.375
Mof_O 	O 	0.65647	0.98293	0.33523	-2.172
Mof_O 	O 	0.72057	0.99403	0.51063	-2.255
Mof_Al	Al	0.43063	0.32877	0.73617	7.18
Mof_P 	P 	0.66163	0.56457	0.72967	1.904
Mof_O 	O 	0.54933	0.45627	0.71027	-2.265
Mof_O 	O 	0.45923	0.21947	0.71867	-2.376
Mof_O 	O 	0.32313	0.31627	0.66857	-2.174
Mof_O 	O 	0.38723	0.32737	0.84397	-2.255
Mof_Al	Al	0.3379	0.4352	0.0695	7.165
Mof_P 	P 	0.1021	0.4304	0.063	1.874
Mof_O 	O 	0.2104	0.4264	0.0436	-2.262
Mof_O 	O 	0.4472	0.5731	0.052	-2.374
Mof_O 	O 	0.3504	0.3402	0.0019	-2.169
Mof_O 	O 	0.3393	0.3932	0.1773	-2.255
Mof_Al	Al	0.00457	0.76853	0.40283	7.163
Mof_P 	P 	0.76877	0.76373	0.39633	1.903
Mof_O 	O 	0.87707	0.75973	0.37693	-2.258
Mof_O 	O 	0.11387	0.90643	0.38533	-2.381
Mof_O 	O 	0.01707	0.67353	0.33523	-2.174
Mof_O 	O 	0.00597	0.72653	0.51063	-2.255
Mof_Al	Al	0.67123	0.10187	0.73617	7.166
Mof_P 	P 	0.43543	0.09707	0.72967	1.898
Mof_O 	O 	0.54373	0.09307	0.71027	-2.26
Mof_O 	O 	0.78053	0.23977	0.71867	-2.373
Mof_O 	O 	0.68373	0.00687	0.66857	-2.179
Mof_O 	O 	0.67263	0.05987	0.84397	-2.254
Mof_Al	Al	0.5648	0.9027	0.0695	7.043
Mof_P 	P 	0.5696	0.6717	0.063	1.895
Mof_O 	O 	0.5736	0.784	0.0436	-2.239
Mof_O 	O 	0.4269	0.8741	0.052	-2.346
Mof_O 	O 	0.6598	0.0102	0.0019	-2.099
Mof_O 	O 	0.6068	0.9461	0.1773	-2.232
Mof_Al	Al	0.23147	0.23603	0.40283	7.19
Mof_P 	P 	0.23627	0.00503	0.39633	1.915
Mof_O 	O 	0.24027	0.11733	0.37693	-2.267
Mof_O 	O 	0.09357	0.20743	0.38533	-2.385
Mof_O 	O 	0.32647	0.34353	0.33523	-2.177
Mof_O 	O 	0.27347	0.27943	0.51063	-2.261
Mof_Al	Al	0.89813	0.56937	0.73617	7.175
Mof_P 	P 	0.90293	0.33837	0.72967	1.897
Mof_O 	O 	0.90693	0.45067	0.71027	-2.263
Mof_O 	O 	0.76023	0.54077	0.71867	-2.377
Mof_O 	O 	0.99313	0.67687	0.66857	-2.18
Mof_O 	O 	0.94013	0.61277	0.84397	-2.255
Mof_Al	Al	0.9027	0.3379	0.9305	7.04
Mof_P 	P 	0.6717	0.1021	0.937	1.854
Mof_O 	O 	0.784	0.2104	0.9564	-2.24
Mof_O 	O 	0.8741	0.4472	0.948	-2.348
Mof_O 	O 	0.0102	0.3504	0.9981	-2.116
Mof_O 	O 	0.9461	0.3393	0.8227	-2.235
Mof_Al	Al	0.56937	0.67123	0.26383	7.18
Mof_P 	P 	0.33837	0.43543	0.27033	1.904
Mof_O 	O 	0.45067	0.54373	0.28973	-2.265
Mof_O 	O 	0.54077	0.78053	0.28133	-2.376
Mof_O 	O 	0.67687	0.68373	0.33143	-2.174
Mof_O 	O 	0.61277	0.67263	0.15603	-2.255
Mof_Al	Al	0.23603	0.00457	0.59717	7.163
Mof_P 	P 	0.00503	0.76877	0.60367	1.916
Mof_O 	O 	0.11733	0.87707	0.62307	-2.255
Mof_O 	O 	0.20743	0.11387	0.61467	-2.375
Mof_O 	O 	0.34353	0.01707	0.66477	-2.172
Mof_O 	O 	0.27943	0.00597	0.48937	-2.255
Mof_Al	Al	0.6621	0.5648	0.9305	7.165
Mof_P 	P 	0.8979	0.5696	0.937	1.874
Mof_O 	O 	0.7896	0.5736	0.9564	-2.262
Mof_O 	O 	0.5528	0.4269	0.948	-2.374
Mof_O 	O 	0.6496	0.6598	0.9981	-2.169
Mof_O 	O 	0.6607	0.6068	0.8227	-2.255
Mof_Al	Al	0.32877	0.89813	0.26383	7.166
Mof_P 	P 	0.56457	0.90293	0.27033	1.898
Mof_O 	O 	0.45627	0.90693	0.28973	-2.26
Mof_O 	O 	0.21947	0.76023	0.28133	-2.373
Mof_O 	O 	0.31627	0.99313	0.33143	-2.179
Mof_O 	O 	0.32737	0.94013	0.15603	-2.254
Mof_Al	Al	0.99543	0.23147	0.59717	7.163
Mof_P 	P 	0.23123	0.23627	0.60367	1.903
Mof_O 	O 	0.12293	0.24027	0.62307	-2.258
Mof_O 	O 	0.88613	0.09357	0.61467	-2.381
Mof_O 	O 	0.98293	0.32647	0.66477	-2.174
Mof_O 	O 	0.99403	0.27347	0.48937	-2.255
Mof_Al	Al	0.4352	0.0973	0.9305	7.043
Mof_P 	P 	0.4304	0.3283	0.937	1.895
Mof_O 	O 	0.4264	0.216	0.9564	-2.239
Mof_O 	O 	0.5731	0.1259	0.948	-2.346
Mof_O 	O 	0.3402	0.9898	0.9981	-2.099
Mof_O 	O 	0.3932	0.0539	0.8227	-2.232
Mof_Al	Al	0.10187	0.43063	0.26383	7.175
Mof_P 	P 	0.09707	0.66163	0.27033	1.897
Mof_O 	O 	0.09307	0.54933	0.28973	-2.263
Mof_O 	O 	0.23977	0.45923	0.28133	-2.377
Mof_O 	O 	0.00687	0.32313	0.33143	-2.18
Mof_O 	O 	0.05987	0.38723	0.15603	-2.255
Mof_Al	Al	0.76853	0.76397	0.59717	7.19
Mof_P 	P 	0.76373	0.99497	0.60367	1.915
Mof_O 	O 	0.75973	0.88267	0.62307	-2.267
Mof_O 	O 	0.90643	0.79257	0.61467	-2.385
Mof_O 	O 	0.67353	0.65647	0.66477	-2.177
Mof_O 	O 	0.72653	0.72057	0.48937	-2.261
_end
