data_functionalizedCrystal
_audit_creation_method	'EQeq! by Chris Wilmer'
_symmetry_space_group_name_H-M	'P1'
_symmetry_Int_Tables_number	1
_symmetry_cell_setting	triclinic
loop_
_symmetry_equiv_pos_as_xyz
  x,y,z
_cell_length_a	9.2006
_cell_length_b	13.4378
_cell_length_c	14.5636
_cell_angle_alpha	90
_cell_angle_beta	90.356
_cell_angle_gamma	90
loop_
_atom_site_label
_atom_site_type_symbol
_atom_site_fract_x
_atom_site_fract_y
_atom_site_fract_z
_atom_site_charge
Mof_Dy	Dy	0.2511	0.49698	0.59214	2.193
Mof_C 	C 	0.0047	0.3889	0.8273	-0.049
Mof_C 	C 	0.0296	0.2944	0.8643	0.023
Mof_H 	H 	0.0956	0.2502	0.8354	0.045
Mof_C 	C 	0.9571	0.2652	0.9439	-0.125
Mof_C 	C 	0.865	0.3328	0.9874	-0.049
Mof_H 	H 	0.8147	0.3129	0.0411	0.063
Mof_C 	C 	0.8454	0.4288	0.9536	0.085
Mof_C 	C 	0.9122	0.4541	0.8717	-0.09
Mof_H 	H 	0.8941	0.5177	0.8454	0.079
Mof_C 	C 	0.7606	0.503	0.0094	-0.244
Mof_H 	H 	0.6997	0.4658	0.0535	0.109
Mof_H 	H 	0.8305	0.5432	0.0457	0.11
Mof_C 	C 	0.664	0.573	0.9569	0.09
Mof_C 	C 	0.5898	0.5435	0.8786	-0.086
Mof_H 	H 	0.607	0.4791	0.8541	0.079
Mof_C 	C 	0.4908	0.6059	0.8351	-0.052
Mof_C 	C 	0.4635	0.7001	0.8714	0.021
Mof_H 	H 	0.3916	0.7416	0.8443	0.045
Mof_C 	C 	0.5421	0.733	0.9475	-0.126
Mof_C 	C 	0.6426	0.6687	0.9895	-0.058
Mof_H 	H 	0.697	0.6912	0.0411	0.068
Mof_C 	C 	0.0838	0.4253	0.7433	0.299
Mof_C 	C 	0.9766	0.1628	0.9843	0.488
Mof_C 	C 	0.4115	0.5674	0.7515	0.296
Mof_C 	C 	0.5237	0.8366	0.9862	0.525
Mof_O 	O 	0.0268	0.4926	0.69511	-0.383
Mof_O 	O 	0.2067	0.3885	0.72479	-0.4
Mof_O 	O 	0.0683	0.1068	0.94991	-0.547
Mof_O 	O 	0.8985	0.1403	0.0527	-0.513
Mof_O 	O 	0.4703	0.4976	0.70525	-0.363
Mof_O 	O 	0.2912	0.6043	0.72891	-0.396
Mof_O 	O 	0.4147	0.8849	0.96179	-0.577
Mof_O 	O 	0.6197	0.8673	0.04034	-0.544
Mof_Dy	Dy	0.2489	0.99698	0.90786	2.172
Mof_C 	C 	0.4953	0.8889	0.6727	-0.047
Mof_C 	C 	0.4704	0.7944	0.6357	0.014
Mof_H 	H 	0.4044	0.7502	0.6646	0.047
Mof_C 	C 	0.5429	0.7652	0.5561	-0.118
Mof_C 	C 	0.635	0.8328	0.5126	-0.057
Mof_H 	H 	0.6853	0.8129	0.4589	0.065
Mof_C 	C 	0.6546	0.9288	0.5464	0.096
Mof_C 	C 	0.5878	0.9541	0.6283	-0.095
Mof_H 	H 	0.6059	0.0177	0.6546	0.083
Mof_C 	C 	0.7394	0.003	0.4906	-0.26
Mof_H 	H 	0.8003	0.9658	0.4465	0.115
Mof_H 	H 	0.6695	0.0432	0.4543	0.113
Mof_C 	C 	0.836	0.073	0.5431	0.094
Mof_C 	C 	0.9102	0.0435	0.6214	-0.094
Mof_H 	H 	0.893	0.9791	0.6459	0.083
Mof_C 	C 	0.0092	0.1059	0.6649	-0.05
Mof_C 	C 	0.0365	0.2001	0.6286	0.027
Mof_H 	H 	0.1084	0.2416	0.6557	0.042
Mof_C 	C 	0.9579	0.233	0.5525	-0.136
Mof_C 	C 	0.8574	0.1687	0.5105	-0.048
Mof_H 	H 	0.803	0.1912	0.4589	0.061
Mof_C 	C 	0.4162	0.9253	0.7567	0.298
Mof_C 	C 	0.5234	0.6628	0.5157	0.494
Mof_C 	C 	0.0885	0.0674	0.7485	0.306
Mof_C 	C 	0.9763	0.3366	0.5138	0.537
Mof_O 	O 	0.4732	0.9926	0.80489	-0.383
Mof_O 	O 	0.2933	0.8885	0.77521	-0.399
Mof_O 	O 	0.4317	0.6068	0.55009	-0.561
Mof_O 	O 	0.6015	0.6403	0.4473	-0.514
Mof_O 	O 	0.0297	0.9976	0.79475	-0.37
Mof_O 	O 	0.2088	0.1043	0.77109	-0.394
Mof_O 	O 	0.0853	0.3849	0.53821	-0.58
Mof_O 	O 	0.8803	0.3673	0.45966	-0.557
Mof_Dy	Dy	0.7489	0.50302	0.40786	2.193
Mof_C 	C 	0.9953	0.6111	0.1727	-0.049
Mof_C 	C 	0.9704	0.7056	0.1357	0.023
Mof_H 	H 	0.9044	0.7498	0.1646	0.045
Mof_C 	C 	0.0429	0.7348	0.0561	-0.125
Mof_C 	C 	0.135	0.6672	0.0126	-0.049
Mof_H 	H 	0.1853	0.6871	0.9589	0.063
Mof_C 	C 	0.1546	0.5712	0.0464	0.085
Mof_C 	C 	0.0878	0.5459	0.1283	-0.09
Mof_H 	H 	0.1059	0.4823	0.1546	0.079
Mof_C 	C 	0.2394	0.497	0.9906	-0.244
Mof_H 	H 	0.3003	0.5342	0.9465	0.109
Mof_H 	H 	0.1695	0.4568	0.9543	0.11
Mof_C 	C 	0.336	0.427	0.0431	0.09
Mof_C 	C 	0.4102	0.4565	0.1214	-0.086
Mof_H 	H 	0.393	0.5209	0.1459	0.079
Mof_C 	C 	0.5092	0.3941	0.1649	-0.052
Mof_C 	C 	0.5365	0.2999	0.1286	0.021
Mof_H 	H 	0.6084	0.2584	0.1557	0.045
Mof_C 	C 	0.4579	0.267	0.0525	-0.126
Mof_C 	C 	0.3574	0.3313	0.0105	-0.058
Mof_H 	H 	0.303	0.3088	0.9589	0.068
Mof_C 	C 	0.9162	0.5747	0.2567	0.299
Mof_C 	C 	0.0234	0.8372	0.0157	0.488
Mof_C 	C 	0.5885	0.4326	0.2485	0.296
Mof_C 	C 	0.4763	0.1634	0.0138	0.525
Mof_O 	O 	0.9732	0.5074	0.30489	-0.383
Mof_O 	O 	0.7933	0.6115	0.27521	-0.4
Mof_O 	O 	0.9317	0.8932	0.05009	-0.547
Mof_O 	O 	0.1015	0.8597	0.9473	-0.513
Mof_O 	O 	0.5297	0.5024	0.29475	-0.363
Mof_O 	O 	0.7088	0.3957	0.27109	-0.396
Mof_O 	O 	0.5853	0.1151	0.03821	-0.577
Mof_O 	O 	0.3803	0.1327	0.95966	-0.544
Mof_Dy	Dy	0.7511	0.00302	0.09214	2.172
Mof_C 	C 	0.5047	0.1111	0.3273	-0.047
Mof_C 	C 	0.5296	0.2056	0.3643	0.014
Mof_H 	H 	0.5956	0.2498	0.3354	0.047
Mof_C 	C 	0.4571	0.2348	0.4439	-0.118
Mof_C 	C 	0.365	0.1672	0.4874	-0.057
Mof_H 	H 	0.3147	0.1871	0.5411	0.065
Mof_C 	C 	0.3454	0.0712	0.4536	0.096
Mof_C 	C 	0.4122	0.0459	0.3717	-0.095
Mof_H 	H 	0.3941	0.9823	0.3454	0.083
Mof_C 	C 	0.2606	0.997	0.5094	-0.26
Mof_H 	H 	0.1997	0.0342	0.5535	0.115
Mof_H 	H 	0.3305	0.9568	0.5457	0.113
Mof_C 	C 	0.164	0.927	0.4569	0.094
Mof_C 	C 	0.0898	0.9565	0.3786	-0.094
Mof_H 	H 	0.107	0.0209	0.3541	0.083
Mof_C 	C 	0.9908	0.8941	0.3351	-0.05
Mof_C 	C 	0.9635	0.7999	0.3714	0.027
Mof_H 	H 	0.8916	0.7584	0.3443	0.042
Mof_C 	C 	0.0421	0.767	0.4475	-0.136
Mof_C 	C 	0.1426	0.8313	0.4895	-0.048
Mof_H 	H 	0.197	0.8088	0.5411	0.061
Mof_C 	C 	0.5838	0.0747	0.2433	0.298
Mof_C 	C 	0.4766	0.3372	0.4843	0.494
Mof_C 	C 	0.9115	0.9326	0.2515	0.306
Mof_C 	C 	0.0237	0.6634	0.4862	0.537
Mof_O 	O 	0.5268	0.0074	0.19511	-0.383
Mof_O 	O 	0.7067	0.1115	0.22479	-0.399
Mof_O 	O 	0.5683	0.3932	0.44991	-0.561
Mof_O 	O 	0.3985	0.3597	0.5527	-0.514
Mof_O 	O 	0.9703	0.0024	0.20525	-0.37
Mof_O 	O 	0.7912	0.8957	0.22891	-0.394
Mof_O 	O 	0.9147	0.6151	0.46179	-0.58
Mof_O 	O 	0.1197	0.6327	0.54034	-0.557
_end
