data_functionalizedCrystal
_audit_creation_method	'EQeq! by Chris Wilmer'
_symmetry_space_group_name_H-M	'P1'
_symmetry_Int_Tables_number	1
_symmetry_cell_setting	triclinic
loop_
_symmetry_equiv_pos_as_xyz
  x,y,z
_cell_length_a	15.458
_cell_length_b	14.22
_cell_length_c	14.245
_cell_angle_alpha	90
_cell_angle_beta	99.84
_cell_angle_gamma	90
loop_
_atom_site_label
_atom_site_type_symbol
_atom_site_fract_x
_atom_site_fract_y
_atom_site_fract_z
_atom_site_charge
Mof_O 	O 	0.62946	0.31181	0.82349	-0.482
Mof_O 	O 	0.75079	0.22824	0.86431	-0.338
Mof_O 	O 	0.99836	0.6713	0.90214	-0.429
Mof_O 	O 	0.88622	0.583	0.91335	-0.312
Mof_N 	N 	0.72903	0.5535	0.9727	-0.097
Mof_N 	N 	0.84681	0.65152	0.11335	-0.094
Mof_C 	C 	0.7078	0.3015	0.8648	0.482
Mof_C 	C 	0.7524	0.3856	0.918	-0.454
Mof_H 	H 	0.8051	0.4012	0.8927	0.172
Mof_H 	H 	0.7697	0.3696	0.9847	0.183
Mof_C 	C 	0.693	0.4709	0.9093	0.12
Mof_H 	H 	0.6371	0.4521	0.9257	0.004
Mof_H 	H 	0.6822	0.4915	0.8434	0.004
Mof_C 	C 	0.7323	0.5278	0.0764	-0.079
Mof_H 	H 	0.6732	0.5152	0.0873	0.067
Mof_H 	H 	0.7663	0.4706	0.0901	0.06
Mof_C 	C 	0.7726	0.6043	0.1432	-0.046
Mof_H 	H 	0.7276	0.6502	0.1496	0.052
Mof_H 	H 	0.7923	0.5768	0.2055	0.042
Mof_C 	C 	0.8733	0.7334	0.1741	-0.053
Mof_H 	H 	0.933	0.7502	0.1687	0.058
Mof_H 	H 	0.8725	0.7168	0.24	0.049
Mof_C 	C 	0.8146	0.8192	0.1466	-0.116
Mof_H 	H 	0.7537	0.8001	0.1417	0.08
Mof_H 	H 	0.8266	0.8664	0.1962	0.076
Mof_C 	C 	0.6718	0.6406	0.9436	-0.035
Mof_H 	H 	0.685	0.6878	0.9931	0.062
Mof_H 	H 	0.6105	0.6236	0.9388	0.049
Mof_C 	C 	0.9224	0.5876	0.1137	0.01
Mof_H 	H 	0.952	0.5786	0.1788	0.033
Mof_H 	H 	0.901	0.5269	0.089	0.039
Mof_C 	C 	0.9878	0.6232	0.0558	-0.193
Mof_H 	H 	0.0396	0.5837	0.0671	0.064
Mof_H 	H 	0.0055	0.6862	0.0774	0.06
Mof_C 	C 	0.953	0.6255	0.9489	0.424
Mof_O 	O 	0.4594	0.3591	0.8582	-0.459
Mof_H 	H 	0.5256	0.3608	0.884	0.157
Mof_H 	H 	0.4322	0.3447	0.8031	0.136
Mof_O 	O 	0.12946	0.81181	0.82349	-0.479
Mof_O 	O 	0.25079	0.72824	0.86431	-0.34
Mof_O 	O 	0.49836	0.1713	0.90214	-0.498
Mof_O 	O 	0.38622	0.083	0.91335	-0.344
Mof_N 	N 	0.22903	0.0535	0.9727	-0.097
Mof_N 	N 	0.34681	0.15152	0.11335	-0.117
Mof_C 	C 	0.2078	0.8015	0.8648	0.48
Mof_C 	C 	0.2524	0.8856	0.918	-0.456
Mof_H 	H 	0.3051	0.9012	0.8927	0.174
Mof_H 	H 	0.2697	0.8696	0.9847	0.182
Mof_C 	C 	0.193	0.9709	0.9093	0.124
Mof_H 	H 	0.1371	0.9521	0.9257	-0.001
Mof_H 	H 	0.1822	0.9915	0.8434	0
Mof_C 	C 	0.2323	0.0278	0.0764	-0.08
Mof_H 	H 	0.1732	0.0152	0.0873	0.064
Mof_H 	H 	0.2663	0.9706	0.0901	0.058
Mof_C 	C 	0.2726	0.1043	0.1432	-0.039
Mof_H 	H 	0.2276	0.1502	0.1496	0.05
Mof_H 	H 	0.2923	0.0768	0.2055	0.038
Mof_C 	C 	0.3733	0.2334	0.1741	-0.03
Mof_H 	H 	0.433	0.2502	0.1687	0.034
Mof_H 	H 	0.3725	0.2168	0.24	0.039
Mof_C 	C 	0.3146	0.3192	0.1466	-0.138
Mof_H 	H 	0.2537	0.3001	0.1417	0.087
Mof_H 	H 	0.3266	0.3664	0.1962	0.08
Mof_C 	C 	0.1718	0.1406	0.9436	-0.024
Mof_H 	H 	0.185	0.1878	0.9931	0.059
Mof_H 	H 	0.1105	0.1236	0.9388	0.039
Mof_C 	C 	0.4224	0.0876	0.1137	0.16
Mof_H 	H 	0.452	0.0786	0.1788	-0.031
Mof_H 	H 	0.401	0.0269	0.089	-0.012
Mof_C 	C 	0.4878	0.1232	0.0558	-0.486
Mof_H 	H 	0.5396	0.0837	0.0671	0.178
Mof_H 	H 	0.5055	0.1862	0.0774	0.181
Mof_C 	C 	0.453	0.1255	0.9489	0.516
Mof_O 	O 	0.9594	0.8591	0.8582	-0.411
Mof_H 	H 	0.0256	0.8608	0.884	0.125
Mof_H 	H 	0.9322	0.8447	0.8031	0.137
Mof_O 	O 	0.37054	0.31181	0.67651	-0.484
Mof_O 	O 	0.24921	0.22824	0.63569	-0.343
Mof_O 	O 	0.00164	0.6713	0.59786	-0.532
Mof_O 	O 	0.11378	0.583	0.58665	-0.364
Mof_N 	N 	0.27097	0.5535	0.5273	-0.096
Mof_N 	N 	0.15319	0.65152	0.38665	-0.137
Mof_C 	C 	0.2922	0.3015	0.6352	0.483
Mof_C 	C 	0.2476	0.3856	0.582	-0.457
Mof_H 	H 	0.1949	0.4012	0.6073	0.177
Mof_H 	H 	0.2303	0.3696	0.5153	0.181
Mof_C 	C 	0.307	0.4709	0.5907	0.123
Mof_H 	H 	0.3629	0.4521	0.5743	0.003
Mof_H 	H 	0.3178	0.4915	0.6566	0.004
Mof_C 	C 	0.2677	0.5278	0.4236	-0.082
Mof_H 	H 	0.3268	0.5152	0.4127	0.068
Mof_H 	H 	0.2337	0.4706	0.4099	0.061
Mof_C 	C 	0.2274	0.6043	0.3568	-0.031
Mof_H 	H 	0.2724	0.6502	0.3504	0.048
Mof_H 	H 	0.2077	0.5768	0.2945	0.035
Mof_C 	C 	0.1267	0.7334	0.3259	-0.011
Mof_H 	H 	0.067	0.7502	0.3313	0.012
Mof_H 	H 	0.1275	0.7168	0.26	0.03
Mof_C 	C 	0.1854	0.8192	0.3534	-0.153
Mof_H 	H 	0.2463	0.8001	0.3583	0.092
Mof_H 	H 	0.1734	0.8664	0.3038	0.081
Mof_C 	C 	0.3282	0.6406	0.5564	-0.034
Mof_H 	H 	0.315	0.6878	0.5069	0.061
Mof_H 	H 	0.3895	0.6236	0.5612	0.049
Mof_C 	C 	0.0776	0.5876	0.3863	0.296
Mof_H 	H 	0.048	0.5786	0.3212	-0.089
Mof_H 	H 	0.099	0.5269	0.411	-0.055
Mof_C 	C 	0.0122	0.6232	0.4442	-0.756
Mof_H 	H 	0.9604	0.5837	0.4329	0.287
Mof_H 	H 	0.9945	0.6862	0.4226	0.296
Mof_C 	C 	0.047	0.6255	0.5511	0.586
Mof_O 	O 	0.5406	0.3591	0.6418	-0.459
Mof_H 	H 	0.4744	0.3608	0.616	0.157
Mof_H 	H 	0.5678	0.3447	0.6969	0.136
Mof_O 	O 	0.87054	0.81181	0.67651	-0.46
Mof_O 	O 	0.74921	0.72824	0.63569	-0.335
Mof_O 	O 	0.50164	0.1713	0.59786	-0.497
Mof_O 	O 	0.61378	0.083	0.58665	-0.343
Mof_N 	N 	0.77097	0.0535	0.5273	-0.093
Mof_N 	N 	0.65319	0.15152	0.38665	-0.116
Mof_C 	C 	0.7922	0.8015	0.6352	0.474
Mof_C 	C 	0.7476	0.8856	0.582	-0.446
Mof_H 	H 	0.6949	0.9012	0.6073	0.171
Mof_H 	H 	0.7303	0.8696	0.5153	0.179
Mof_C 	C 	0.807	0.9709	0.5907	0.113
Mof_H 	H 	0.8629	0.9521	0.5743	0.01
Mof_H 	H 	0.8178	0.9915	0.6566	0.009
Mof_C 	C 	0.7677	0.0278	0.4236	-0.081
Mof_H 	H 	0.8268	0.0152	0.4127	0.072
Mof_H 	H 	0.7337	0.9706	0.4099	0.061
Mof_C 	C 	0.7274	0.1043	0.3568	-0.038
Mof_H 	H 	0.7724	0.1502	0.3504	0.051
Mof_H 	H 	0.7077	0.0768	0.2945	0.038
Mof_C 	C 	0.6267	0.2334	0.3259	-0.03
Mof_H 	H 	0.567	0.2502	0.3313	0.034
Mof_H 	H 	0.6275	0.2168	0.26	0.039
Mof_C 	C 	0.6854	0.3192	0.3534	-0.138
Mof_H 	H 	0.7463	0.3001	0.3583	0.088
Mof_H 	H 	0.6734	0.3664	0.3038	0.08
Mof_C 	C 	0.8282	0.1406	0.5564	-0.05
Mof_H 	H 	0.815	0.1878	0.5069	0.068
Mof_H 	H 	0.8895	0.1236	0.5612	0.062
Mof_C 	C 	0.5776	0.0876	0.3863	0.157
Mof_H 	H 	0.548	0.0786	0.3212	-0.031
Mof_H 	H 	0.599	0.0269	0.411	-0.011
Mof_C 	C 	0.5122	0.1232	0.4442	-0.48
Mof_H 	H 	0.4604	0.0837	0.4329	0.177
Mof_H 	H 	0.4945	0.1862	0.4226	0.18
Mof_C 	C 	0.547	0.1255	0.5511	0.512
Mof_O 	O 	0.0406	0.8591	0.6418	-0.51
Mof_H 	H 	0.9744	0.8608	0.616	0.199
Mof_H 	H 	0.0678	0.8447	0.6969	0.158
Mof_O 	O 	0.37054	0.68819	0.17651	-0.484
Mof_O 	O 	0.24921	0.77176	0.13569	-0.344
Mof_O 	O 	0.00164	0.3287	0.09786	-0.53
Mof_O 	O 	0.11378	0.417	0.08665	-0.362
Mof_N 	N 	0.27097	0.4465	0.0273	-0.098
Mof_N 	N 	0.15319	0.34848	0.88665	-0.135
Mof_C 	C 	0.2922	0.6985	0.1352	0.483
Mof_C 	C 	0.2476	0.6144	0.082	-0.456
Mof_H 	H 	0.1949	0.5988	0.1073	0.176
Mof_H 	H 	0.2303	0.6304	0.0153	0.18
Mof_C 	C 	0.307	0.5291	0.0907	0.122
Mof_H 	H 	0.3629	0.5479	0.0743	0.002
Mof_H 	H 	0.3178	0.5085	0.1566	0.004
Mof_C 	C 	0.2677	0.4722	0.9236	-0.078
Mof_H 	H 	0.3268	0.4848	0.9127	0.068
Mof_H 	H 	0.2337	0.5294	0.9099	0.06
Mof_C 	C 	0.2274	0.3957	0.8568	-0.033
Mof_H 	H 	0.2724	0.3498	0.8504	0.048
Mof_H 	H 	0.2077	0.4232	0.7945	0.036
Mof_C 	C 	0.1267	0.2666	0.8259	-0.013
Mof_H 	H 	0.067	0.2498	0.8313	0.013
Mof_H 	H 	0.1275	0.2832	0.76	0.03
Mof_C 	C 	0.1854	0.1808	0.8534	-0.151
Mof_H 	H 	0.2463	0.1999	0.8583	0.091
Mof_H 	H 	0.1734	0.1336	0.8038	0.081
Mof_C 	C 	0.3282	0.3594	0.0564	-0.033
Mof_H 	H 	0.315	0.3122	0.0069	0.059
Mof_H 	H 	0.3895	0.3764	0.0612	0.048
Mof_C 	C 	0.0776	0.4124	0.8863	0.286
Mof_H 	H 	0.048	0.4214	0.8212	-0.085
Mof_H 	H 	0.099	0.4731	0.911	-0.052
Mof_C 	C 	0.0122	0.3768	0.9442	-0.736
Mof_H 	H 	0.9604	0.4163	0.9329	0.28
Mof_H 	H 	0.9945	0.3138	0.9226	0.29
Mof_C 	C 	0.047	0.3745	0.0511	0.577
Mof_O 	O 	0.5406	0.6409	0.1418	-0.46
Mof_H 	H 	0.4744	0.6392	0.116	0.157
Mof_H 	H 	0.5678	0.6553	0.1969	0.136
Mof_O 	O 	0.87054	0.18819	0.17651	-0.46
Mof_O 	O 	0.74921	0.27176	0.13569	-0.335
Mof_O 	O 	0.50164	0.8287	0.09786	-0.497
Mof_O 	O 	0.61378	0.917	0.08665	-0.343
Mof_N 	N 	0.77097	0.9465	0.0273	-0.095
Mof_N 	N 	0.65319	0.84848	0.88665	-0.116
Mof_C 	C 	0.7922	0.1985	0.1352	0.473
Mof_C 	C 	0.7476	0.1144	0.082	-0.445
Mof_H 	H 	0.6949	0.0988	0.1073	0.17
Mof_H 	H 	0.7303	0.1304	0.0153	0.178
Mof_C 	C 	0.807	0.0291	0.0907	0.113
Mof_H 	H 	0.8629	0.0479	0.0743	0.009
Mof_H 	H 	0.8178	0.0085	0.1566	0.009
Mof_C 	C 	0.7677	0.9722	0.9236	-0.08
Mof_H 	H 	0.8268	0.9848	0.9127	0.071
Mof_H 	H 	0.7337	0.0294	0.9099	0.061
Mof_C 	C 	0.7274	0.8957	0.8568	-0.038
Mof_H 	H 	0.7724	0.8498	0.8504	0.051
Mof_H 	H 	0.7077	0.9232	0.7945	0.038
Mof_C 	C 	0.6267	0.7666	0.8259	-0.031
Mof_H 	H 	0.567	0.7498	0.8313	0.035
Mof_H 	H 	0.6275	0.7832	0.76	0.039
Mof_C 	C 	0.6854	0.6808	0.8534	-0.137
Mof_H 	H 	0.7463	0.6999	0.8583	0.088
Mof_H 	H 	0.6734	0.6336	0.8038	0.079
Mof_C 	C 	0.8282	0.8594	0.0564	-0.049
Mof_H 	H 	0.815	0.8122	0.0069	0.066
Mof_H 	H 	0.8895	0.8764	0.0612	0.061
Mof_C 	C 	0.5776	0.9124	0.8863	0.155
Mof_H 	H 	0.548	0.9214	0.8212	-0.03
Mof_H 	H 	0.599	0.9731	0.911	-0.01
Mof_C 	C 	0.5122	0.8768	0.9442	-0.476
Mof_H 	H 	0.4604	0.9163	0.9329	0.176
Mof_H 	H 	0.4945	0.8138	0.9226	0.179
Mof_C 	C 	0.547	0.8745	0.0511	0.508
Mof_O 	O 	0.0406	0.1409	0.1418	-0.512
Mof_H 	H 	0.9744	0.1392	0.116	0.2
Mof_H 	H 	0.0678	0.1553	0.1969	0.159
Mof_O 	O 	0.62946	0.68819	0.32349	-0.483
Mof_O 	O 	0.75079	0.77176	0.36431	-0.34
Mof_O 	O 	0.99836	0.3287	0.40214	-0.428
Mof_O 	O 	0.88622	0.417	0.41335	-0.313
Mof_N 	N 	0.72903	0.4465	0.4727	-0.098
Mof_N 	N 	0.84681	0.34848	0.61335	-0.094
Mof_C 	C 	0.7078	0.6985	0.3648	0.482
Mof_C 	C 	0.7524	0.6144	0.418	-0.454
Mof_H 	H 	0.8051	0.5988	0.3927	0.171
Mof_H 	H 	0.7697	0.6304	0.4847	0.182
Mof_C 	C 	0.693	0.5291	0.4093	0.119
Mof_H 	H 	0.6371	0.5479	0.4257	0.004
Mof_H 	H 	0.6822	0.5085	0.3434	0.004
Mof_C 	C 	0.7323	0.4722	0.5764	-0.077
Mof_H 	H 	0.6732	0.4848	0.5873	0.067
Mof_H 	H 	0.7663	0.5294	0.5901	0.06
Mof_C 	C 	0.7726	0.3957	0.6432	-0.046
Mof_H 	H 	0.7276	0.3498	0.6496	0.053
Mof_H 	H 	0.7923	0.4232	0.7055	0.042
Mof_C 	C 	0.8733	0.2666	0.6741	-0.053
Mof_H 	H 	0.933	0.2498	0.6687	0.058
Mof_H 	H 	0.8725	0.2832	0.74	0.049
Mof_C 	C 	0.8146	0.1808	0.6466	-0.116
Mof_H 	H 	0.7537	0.1999	0.6417	0.08
Mof_H 	H 	0.8266	0.1336	0.6962	0.076
Mof_C 	C 	0.6718	0.3594	0.4436	-0.034
Mof_H 	H 	0.685	0.3122	0.4931	0.061
Mof_H 	H 	0.6105	0.3764	0.4388	0.049
Mof_C 	C 	0.9224	0.4124	0.6137	0.012
Mof_H 	H 	0.952	0.4214	0.6788	0.032
Mof_H 	H 	0.901	0.4731	0.589	0.039
Mof_C 	C 	0.9878	0.3768	0.5558	-0.195
Mof_H 	H 	0.0396	0.4163	0.5671	0.065
Mof_H 	H 	0.0055	0.3138	0.5774	0.062
Mof_C 	C 	0.953	0.3745	0.4489	0.423
Mof_O 	O 	0.4594	0.6409	0.3582	-0.459
Mof_H 	H 	0.5256	0.6392	0.384	0.157
Mof_H 	H 	0.4322	0.6553	0.3031	0.136
Mof_O 	O 	0.12946	0.18819	0.32349	-0.479
Mof_O 	O 	0.25079	0.27176	0.36431	-0.34
Mof_O 	O 	0.49836	0.8287	0.40214	-0.497
Mof_O 	O 	0.38622	0.917	0.41335	-0.344
Mof_N 	N 	0.22903	0.9465	0.4727	-0.099
Mof_N 	N 	0.34681	0.84848	0.61335	-0.116
Mof_C 	C 	0.2078	0.1985	0.3648	0.479
Mof_C 	C 	0.2524	0.1144	0.418	-0.455
Mof_H 	H 	0.3051	0.0988	0.3927	0.174
Mof_H 	H 	0.2697	0.1304	0.4847	0.181
Mof_C 	C 	0.193	0.0291	0.4093	0.124
Mof_H 	H 	0.1371	0.0479	0.4257	-0.002
Mof_H 	H 	0.1822	0.0085	0.3434	0
Mof_C 	C 	0.2323	0.9722	0.5764	-0.076
Mof_H 	H 	0.1732	0.9848	0.5873	0.063
Mof_H 	H 	0.2663	0.0294	0.5901	0.058
Mof_C 	C 	0.2726	0.8957	0.6432	-0.041
Mof_H 	H 	0.2276	0.8498	0.6496	0.051
Mof_H 	H 	0.2923	0.9232	0.7055	0.038
Mof_C 	C 	0.3733	0.7666	0.6741	-0.031
Mof_H 	H 	0.433	0.7498	0.6687	0.034
Mof_H 	H 	0.3725	0.7832	0.74	0.039
Mof_C 	C 	0.3146	0.6808	0.6466	-0.136
Mof_H 	H 	0.2537	0.6999	0.6417	0.087
Mof_H 	H 	0.3266	0.6336	0.6962	0.079
Mof_C 	C 	0.1718	0.8594	0.4436	-0.022
Mof_H 	H 	0.185	0.8122	0.4931	0.056
Mof_H 	H 	0.1105	0.8764	0.4388	0.037
Mof_C 	C 	0.4224	0.9124	0.6137	0.157
Mof_H 	H 	0.452	0.9214	0.6788	-0.031
Mof_H 	H 	0.401	0.9731	0.589	-0.011
Mof_C 	C 	0.4878	0.8768	0.5558	-0.481
Mof_H 	H 	0.5396	0.9163	0.5671	0.177
Mof_H 	H 	0.5055	0.8138	0.5774	0.18
Mof_C 	C 	0.453	0.8745	0.4489	0.512
Mof_O 	O 	0.9594	0.1409	0.3582	-0.409
Mof_H 	H 	0.0256	0.1392	0.384	0.123
Mof_H 	H 	0.9322	0.1553	0.3031	0.137
Mof_Gd	Gd	0.5	0.23608	0.75	1.573
Mof_Gd	Gd	-1.84247e-17	0.73608	0.75	1.468
Mof_Gd	Gd	0.5	0.76392	0.25	1.572
Mof_Gd	Gd	-4.60618e-18	0.26392	0.25	1.463
_end
