data_functionalizedCrystal
_audit_creation_method	'EQeq! by Chris Wilmer'
_symmetry_space_group_name_H-M	'P1'
_symmetry_Int_Tables_number	1
_symmetry_cell_setting	triclinic
loop_
_symmetry_equiv_pos_as_xyz
  x,y,z
_cell_length_a	16.366
_cell_length_b	38.437
_cell_length_c	17.626
_cell_angle_alpha	90
_cell_angle_beta	90
_cell_angle_gamma	90
loop_
_atom_site_label
_atom_site_type_symbol
_atom_site_fract_x
_atom_site_fract_y
_atom_site_fract_z
_atom_site_charge
Mof_Cu	Cu	0.00915	0.00315	0.19181	0.855
Mof_O 	O 	0.9456	0.9502	0.2477	0.042
Mof_O 	O 	0.1967	0.94141	0.4774	-0.314
Mof_O 	O 	0.0938	0.91007	0.4349	-0.168
Mof_N 	N 	0.085	0.99346	0.27172	-0.241
Mof_N 	N 	0.17995	0.98995	0.36323	-0.24
Mof_N 	N 	0.1862	0.09216	0.1977	-0.242
Mof_C 	C 	0.1513	0.00851	0.30314	0.142
Mof_C 	C 	0.0708	0.96418	0.313	-0.03
Mof_C 	C 	0.129	0.96199	0.3691	-0.01
Mof_C 	C 	0.1541	0.06202	0.2229	0.092
Mof_H 	H 	0.1048	0.0548	0.202	-0.064
Mof_C 	C 	0.1894	0.04108	0.2776	-0.15
Mof_C 	C 	0.2638	0.05215	0.3066	0.114
Mof_H 	H 	0.2908	0.0389	0.3429	-0.064
Mof_C 	C 	0.2975	0.08285	0.2815	-0.164
Mof_H 	H 	0.3474	0.0903	0.3006	0.118
Mof_C 	C 	0.257	0.10241	0.2281	0.102
Mof_H 	H 	0.2796	0.1234	0.2127	0.01
Mof_C 	C 	0.0029	0.94062	0.2929	0.296
Mof_C 	C 	0.142	0.93658	0.4313	0.253
Mof_H 	H 	0.971	0.9269	0.393	-0.038
Mof_O 	O 	0.984	0.9169	0.3469	0.431
Mof_O 	O 	0.9724	0.9452	0.2303	-0.344
Mof_O 	O 	0.9996	0.9103	0.3222	-0.584
Mof_Cu	Cu	0.00915	0.50315	0.69181	0.855
Mof_O 	O 	0.9456	0.4502	0.7477	0.048
Mof_O 	O 	0.1967	0.44141	0.9774	-0.315
Mof_O 	O 	0.0938	0.41007	0.9349	-0.169
Mof_N 	N 	0.085	0.49346	0.77172	-0.242
Mof_N 	N 	0.17995	0.48995	0.86323	-0.241
Mof_N 	N 	0.1862	0.59216	0.6977	-0.243
Mof_C 	C 	0.1513	0.50851	0.80314	0.141
Mof_C 	C 	0.0708	0.46418	0.813	-0.032
Mof_C 	C 	0.129	0.46199	0.8691	-0.01
Mof_C 	C 	0.1541	0.56202	0.7229	0.091
Mof_H 	H 	0.1048	0.5548	0.702	-0.064
Mof_C 	C 	0.1894	0.54108	0.7776	-0.151
Mof_C 	C 	0.2638	0.55215	0.8066	0.113
Mof_H 	H 	0.2908	0.5389	0.8429	-0.065
Mof_C 	C 	0.2975	0.58285	0.7815	-0.165
Mof_H 	H 	0.3474	0.5903	0.8006	0.118
Mof_C 	C 	0.257	0.60241	0.7281	0.102
Mof_H 	H 	0.2796	0.6234	0.7127	0.01
Mof_C 	C 	0.0029	0.44062	0.7929	0.302
Mof_C 	C 	0.142	0.43658	0.9313	0.253
Mof_H 	H 	0.971	0.4269	0.893	-0.037
Mof_O 	O 	0.984	0.4169	0.8469	0.425
Mof_O 	O 	0.9724	0.4452	0.7303	-0.355
Mof_O 	O 	0.9996	0.4103	0.8222	-0.582
Mof_Cu	Cu	0.50915	0.00315	0.69181	0.855
Mof_O 	O 	0.4456	0.9502	0.7477	0.046
Mof_O 	O 	0.6967	0.94141	0.9774	-0.316
Mof_O 	O 	0.5938	0.91007	0.9349	-0.17
Mof_N 	N 	0.585	0.99346	0.77172	-0.243
Mof_N 	N 	0.67995	0.98995	0.86323	-0.241
Mof_N 	N 	0.6862	0.09216	0.6977	-0.243
Mof_C 	C 	0.6513	0.00851	0.80314	0.141
Mof_C 	C 	0.5708	0.96418	0.813	-0.032
Mof_C 	C 	0.629	0.96199	0.8691	-0.011
Mof_C 	C 	0.6541	0.06202	0.7229	0.091
Mof_H 	H 	0.6048	0.0548	0.702	-0.064
Mof_C 	C 	0.6894	0.04108	0.7776	-0.151
Mof_C 	C 	0.7638	0.05215	0.8066	0.113
Mof_H 	H 	0.7908	0.0389	0.8429	-0.065
Mof_C 	C 	0.7975	0.08285	0.7815	-0.166
Mof_H 	H 	0.8474	0.0903	0.8006	0.118
Mof_C 	C 	0.757	0.10241	0.7281	0.102
Mof_H 	H 	0.7796	0.1234	0.7127	0.01
Mof_C 	C 	0.5029	0.94062	0.7929	0.298
Mof_C 	C 	0.642	0.93658	0.9313	0.253
Mof_H 	H 	0.471	0.9269	0.893	-0.037
Mof_O 	O 	0.484	0.9169	0.8469	0.429
Mof_O 	O 	0.4724	0.9452	0.7303	-0.351
Mof_O 	O 	0.4996	0.9103	0.8222	-0.583
Mof_Cu	Cu	0.50915	0.50315	0.19181	0.855
Mof_O 	O 	0.4456	0.4502	0.2477	0.046
Mof_O 	O 	0.6967	0.44141	0.4774	-0.315
Mof_O 	O 	0.5938	0.41007	0.4349	-0.169
Mof_N 	N 	0.585	0.49346	0.27172	-0.243
Mof_N 	N 	0.67995	0.48995	0.36323	-0.241
Mof_N 	N 	0.6862	0.59216	0.1977	-0.243
Mof_C 	C 	0.6513	0.50851	0.30314	0.141
Mof_C 	C 	0.5708	0.46418	0.313	-0.032
Mof_C 	C 	0.629	0.46199	0.3691	-0.011
Mof_C 	C 	0.6541	0.56202	0.2229	0.091
Mof_H 	H 	0.6048	0.5548	0.202	-0.064
Mof_C 	C 	0.6894	0.54108	0.2776	-0.151
Mof_C 	C 	0.7638	0.55215	0.3066	0.113
Mof_H 	H 	0.7908	0.5389	0.3429	-0.065
Mof_C 	C 	0.7975	0.58285	0.2815	-0.166
Mof_H 	H 	0.8474	0.5903	0.3006	0.118
Mof_C 	C 	0.757	0.60241	0.2281	0.102
Mof_H 	H 	0.7796	0.6234	0.2127	0.01
Mof_C 	C 	0.5029	0.44062	0.2929	0.298
Mof_C 	C 	0.642	0.43658	0.4313	0.253
Mof_H 	H 	0.471	0.4269	0.393	-0.037
Mof_O 	O 	0.484	0.4169	0.3469	0.428
Mof_O 	O 	0.4724	0.4452	0.2303	-0.351
Mof_O 	O 	0.4996	0.4103	0.3222	-0.583
Mof_Cu	Cu	0.74085	0.74685	0.19181	0.855
Mof_O 	O 	0.8044	0.7998	0.2477	0.047
Mof_O 	O 	0.5533	0.80859	0.4774	-0.315
Mof_O 	O 	0.6562	0.83993	0.4349	-0.169
Mof_N 	N 	0.665	0.75654	0.27172	-0.243
Mof_N 	N 	0.57005	0.76005	0.36323	-0.241
Mof_N 	N 	0.5638	0.65784	0.1977	-0.243
Mof_C 	C 	0.5987	0.74149	0.30314	0.141
Mof_C 	C 	0.6792	0.78582	0.313	-0.032
Mof_C 	C 	0.621	0.78801	0.3691	-0.011
Mof_C 	C 	0.5959	0.68798	0.2229	0.091
Mof_H 	H 	0.6452	0.6952	0.202	-0.064
Mof_C 	C 	0.5606	0.70892	0.2776	-0.151
Mof_C 	C 	0.4862	0.69785	0.3066	0.113
Mof_H 	H 	0.4592	0.7111	0.3429	-0.065
Mof_C 	C 	0.4525	0.66715	0.2815	-0.165
Mof_H 	H 	0.4026	0.6597	0.3006	0.118
Mof_C 	C 	0.493	0.64759	0.2281	0.102
Mof_H 	H 	0.4704	0.6266	0.2127	0.01
Mof_C 	C 	0.7471	0.80938	0.2929	0.298
Mof_C 	C 	0.608	0.81342	0.4313	0.253
Mof_H 	H 	0.779	0.8231	0.393	-0.037
Mof_O 	O 	0.766	0.8331	0.3469	0.429
Mof_O 	O 	0.7776	0.8048	0.2303	-0.351
Mof_O 	O 	0.7504	0.8397	0.3222	-0.583
Mof_Cu	Cu	0.74085	0.24685	0.69181	0.854
Mof_O 	O 	0.8044	0.2998	0.7477	0.044
Mof_O 	O 	0.5533	0.30859	0.9774	-0.315
Mof_O 	O 	0.6562	0.33993	0.9349	-0.17
Mof_N 	N 	0.665	0.25654	0.77172	-0.243
Mof_N 	N 	0.57005	0.26005	0.86323	-0.241
Mof_N 	N 	0.5638	0.15784	0.6977	-0.243
Mof_C 	C 	0.5987	0.24149	0.80314	0.141
Mof_C 	C 	0.6792	0.28582	0.813	-0.032
Mof_C 	C 	0.621	0.28801	0.8691	-0.011
Mof_C 	C 	0.5959	0.18798	0.7229	0.091
Mof_H 	H 	0.6452	0.1952	0.702	-0.064
Mof_C 	C 	0.5606	0.20892	0.7776	-0.151
Mof_C 	C 	0.4862	0.19785	0.8066	0.113
Mof_H 	H 	0.4592	0.2111	0.8429	-0.065
Mof_C 	C 	0.4525	0.16715	0.7815	-0.166
Mof_H 	H 	0.4026	0.1597	0.8006	0.118
Mof_C 	C 	0.493	0.14759	0.7281	0.102
Mof_H 	H 	0.4704	0.1266	0.7127	0.01
Mof_C 	C 	0.7471	0.30938	0.7929	0.298
Mof_C 	C 	0.608	0.31342	0.9313	0.253
Mof_H 	H 	0.779	0.3231	0.893	-0.037
Mof_O 	O 	0.766	0.3331	0.8469	0.428
Mof_O 	O 	0.7776	0.3048	0.7303	-0.349
Mof_O 	O 	0.7504	0.3397	0.8222	-0.582
Mof_Cu	Cu	0.24085	0.74685	0.69181	0.855
Mof_O 	O 	0.3044	0.7998	0.7477	0.046
Mof_O 	O 	0.0533	0.80859	0.9774	-0.314
Mof_O 	O 	0.1562	0.83993	0.9349	-0.169
Mof_N 	N 	0.165	0.75654	0.77172	-0.242
Mof_N 	N 	0.07005	0.76005	0.86323	-0.24
Mof_N 	N 	0.0638	0.65784	0.6977	-0.242
Mof_C 	C 	0.0987	0.74149	0.80314	0.14
Mof_C 	C 	0.1792	0.78582	0.813	-0.032
Mof_C 	C 	0.121	0.78801	0.8691	-0.01
Mof_C 	C 	0.0959	0.68798	0.7229	0.09
Mof_H 	H 	0.1452	0.6952	0.702	-0.064
Mof_C 	C 	0.0606	0.70892	0.7776	-0.148
Mof_C 	C 	0.9862	0.69785	0.8066	0.109
Mof_H 	H 	0.9592	0.7111	0.8429	-0.064
Mof_C 	C 	0.9525	0.66715	0.7815	-0.163
Mof_H 	H 	0.9026	0.6597	0.8006	0.117
Mof_C 	C 	0.993	0.64759	0.7281	0.1
Mof_H 	H 	0.9704	0.6266	0.7127	0.011
Mof_C 	C 	0.2471	0.80938	0.7929	0.298
Mof_C 	C 	0.108	0.81342	0.9313	0.253
Mof_H 	H 	0.279	0.8231	0.893	-0.037
Mof_O 	O 	0.266	0.8331	0.8469	0.429
Mof_O 	O 	0.2776	0.8048	0.7303	-0.351
Mof_O 	O 	0.2504	0.8397	0.8222	-0.583
Mof_Cu	Cu	0.24085	0.24685	0.19181	0.855
Mof_O 	O 	0.3044	0.2998	0.2477	0.046
Mof_O 	O 	0.0533	0.30859	0.4774	-0.315
Mof_O 	O 	0.1562	0.33993	0.4349	-0.169
Mof_N 	N 	0.165	0.25654	0.27172	-0.243
Mof_N 	N 	0.07005	0.26005	0.36323	-0.241
Mof_N 	N 	0.0638	0.15784	0.1977	-0.245
Mof_C 	C 	0.0987	0.24149	0.30314	0.141
Mof_C 	C 	0.1792	0.28582	0.313	-0.032
Mof_C 	C 	0.121	0.28801	0.3691	-0.011
Mof_C 	C 	0.0959	0.18798	0.2229	0.092
Mof_H 	H 	0.1452	0.1952	0.202	-0.065
Mof_C 	C 	0.0606	0.20892	0.2776	-0.153
Mof_C 	C 	0.9862	0.19785	0.3066	0.117
Mof_H 	H 	0.9592	0.2111	0.3429	-0.066
Mof_C 	C 	0.9525	0.16715	0.2815	-0.168
Mof_H 	H 	0.9026	0.1597	0.3006	0.119
Mof_C 	C 	0.993	0.14759	0.2281	0.106
Mof_H 	H 	0.9704	0.1266	0.2127	0.01
Mof_C 	C 	0.2471	0.30938	0.2929	0.298
Mof_C 	C 	0.108	0.31342	0.4313	0.253
Mof_H 	H 	0.279	0.3231	0.393	-0.037
Mof_O 	O 	0.266	0.3331	0.3469	0.428
Mof_O 	O 	0.2776	0.3048	0.2303	-0.351
Mof_O 	O 	0.2504	0.3397	0.3222	-0.583
Mof_Cu	Cu	0.74085	0.00315	0.55819	0.855
Mof_O 	O 	0.8044	0.9502	0.5023	0.047
Mof_O 	O 	0.5533	0.94141	0.2726	-0.315
Mof_O 	O 	0.6562	0.91007	0.3151	-0.169
Mof_N 	N 	0.665	0.99346	0.47828	-0.242
Mof_N 	N 	0.57005	0.98995	0.38677	-0.241
Mof_N 	N 	0.5638	0.09216	0.5523	-0.243
Mof_C 	C 	0.5987	0.00851	0.44686	0.141
Mof_C 	C 	0.6792	0.96418	0.437	-0.032
Mof_C 	C 	0.621	0.96199	0.3809	-0.011
Mof_C 	C 	0.5959	0.06202	0.5271	0.091
Mof_H 	H 	0.6452	0.0548	0.548	-0.064
Mof_C 	C 	0.5606	0.04108	0.4724	-0.151
Mof_C 	C 	0.4862	0.05215	0.4434	0.113
Mof_H 	H 	0.4592	0.0389	0.4071	-0.065
Mof_C 	C 	0.4525	0.08285	0.4685	-0.166
Mof_H 	H 	0.4026	0.0903	0.4494	0.118
Mof_C 	C 	0.493	0.10241	0.5219	0.102
Mof_H 	H 	0.4704	0.1234	0.5373	0.01
Mof_C 	C 	0.7471	0.94062	0.4571	0.299
Mof_C 	C 	0.608	0.93658	0.3187	0.253
Mof_H 	H 	0.779	0.9269	0.357	-0.037
Mof_O 	O 	0.766	0.9169	0.4031	0.429
Mof_O 	O 	0.7776	0.9452	0.5197	-0.352
Mof_O 	O 	0.7504	0.9103	0.4278	-0.583
Mof_Cu	Cu	0.74085	0.50315	0.05819	0.855
Mof_O 	O 	0.8044	0.4502	0.0023	0.047
Mof_O 	O 	0.5533	0.44141	0.7726	-0.315
Mof_O 	O 	0.6562	0.41007	0.8151	-0.17
Mof_N 	N 	0.665	0.49346	0.97828	-0.243
Mof_N 	N 	0.57005	0.48995	0.88677	-0.241
Mof_N 	N 	0.5638	0.59216	0.0523	-0.243
Mof_C 	C 	0.5987	0.50851	0.94686	0.141
Mof_C 	C 	0.6792	0.46418	0.937	-0.031
Mof_C 	C 	0.621	0.46199	0.8809	-0.011
Mof_C 	C 	0.5959	0.56202	0.0271	0.092
Mof_H 	H 	0.6452	0.5548	0.048	-0.064
Mof_C 	C 	0.5606	0.54108	0.9724	-0.151
Mof_C 	C 	0.4862	0.55215	0.9434	0.113
Mof_H 	H 	0.4592	0.5389	0.9071	-0.065
Mof_C 	C 	0.4525	0.58285	0.9685	-0.166
Mof_H 	H 	0.4026	0.5903	0.9494	0.118
Mof_C 	C 	0.493	0.60241	0.0219	0.102
Mof_H 	H 	0.4704	0.6234	0.0373	0.01
Mof_C 	C 	0.7471	0.44062	0.9571	0.297
Mof_C 	C 	0.608	0.43658	0.8187	0.253
Mof_H 	H 	0.779	0.4269	0.857	-0.037
Mof_O 	O 	0.766	0.4169	0.9031	0.428
Mof_O 	O 	0.7776	0.4452	0.0197	-0.351
Mof_O 	O 	0.7504	0.4103	0.9278	-0.582
Mof_Cu	Cu	0.24085	0.00315	0.05819	0.854
Mof_O 	O 	0.3044	0.9502	0.0023	0.046
Mof_O 	O 	0.0533	0.94141	0.7726	-0.314
Mof_O 	O 	0.1562	0.91007	0.8151	-0.169
Mof_N 	N 	0.165	0.99346	0.97828	-0.242
Mof_N 	N 	0.07005	0.98995	0.88677	-0.24
Mof_N 	N 	0.0638	0.09216	0.0523	-0.244
Mof_C 	C 	0.0987	0.00851	0.94686	0.14
Mof_C 	C 	0.1792	0.96418	0.937	-0.032
Mof_C 	C 	0.121	0.96199	0.8809	-0.01
Mof_C 	C 	0.0959	0.06202	0.0271	0.087
Mof_H 	H 	0.1452	0.0548	0.048	-0.063
Mof_C 	C 	0.0606	0.04108	0.9724	-0.146
Mof_C 	C 	0.9862	0.05215	0.9434	0.111
Mof_H 	H 	0.9592	0.0389	0.9071	-0.064
Mof_C 	C 	0.9525	0.08285	0.9685	-0.169
Mof_H 	H 	0.9026	0.0903	0.9494	0.119
Mof_C 	C 	0.993	0.10241	0.0219	0.108
Mof_H 	H 	0.9704	0.1234	0.0373	0.009
Mof_C 	C 	0.2471	0.94062	0.9571	0.3
Mof_C 	C 	0.108	0.93658	0.8187	0.253
Mof_H 	H 	0.279	0.9269	0.857	-0.037
Mof_O 	O 	0.266	0.9169	0.9031	0.429
Mof_O 	O 	0.2776	0.9452	0.0197	-0.352
Mof_O 	O 	0.2504	0.9103	0.9278	-0.584
Mof_Cu	Cu	0.24085	0.50315	0.55819	0.855
Mof_O 	O 	0.3044	0.4502	0.5023	0.046
Mof_O 	O 	0.0533	0.44141	0.2726	-0.316
Mof_O 	O 	0.1562	0.41007	0.3151	-0.17
Mof_N 	N 	0.165	0.49346	0.47828	-0.243
Mof_N 	N 	0.07005	0.48995	0.38677	-0.241
Mof_N 	N 	0.0638	0.59216	0.5523	-0.243
Mof_C 	C 	0.0987	0.50851	0.44686	0.141
Mof_C 	C 	0.1792	0.46418	0.437	-0.032
Mof_C 	C 	0.121	0.46199	0.3809	-0.011
Mof_C 	C 	0.0959	0.56202	0.5271	0.091
Mof_H 	H 	0.1452	0.5548	0.548	-0.064
Mof_C 	C 	0.0606	0.54108	0.4724	-0.151
Mof_C 	C 	0.9862	0.55215	0.4434	0.114
Mof_H 	H 	0.9592	0.5389	0.4071	-0.065
Mof_C 	C 	0.9525	0.58285	0.4685	-0.166
Mof_H 	H 	0.9026	0.5903	0.4494	0.118
Mof_C 	C 	0.993	0.60241	0.5219	0.102
Mof_H 	H 	0.9704	0.6234	0.5373	0.01
Mof_C 	C 	0.2471	0.44062	0.4571	0.298
Mof_C 	C 	0.108	0.43658	0.3187	0.253
Mof_H 	H 	0.279	0.4269	0.357	-0.037
Mof_O 	O 	0.266	0.4169	0.4031	0.428
Mof_O 	O 	0.2776	0.4452	0.5197	-0.351
Mof_O 	O 	0.2504	0.4103	0.4278	-0.583
Mof_Cu	Cu	0.00915	0.74685	0.55819	0.855
Mof_O 	O 	0.9456	0.7998	0.5023	0.046
Mof_O 	O 	0.1967	0.80859	0.2726	-0.315
Mof_O 	O 	0.0938	0.83993	0.3151	-0.17
Mof_N 	N 	0.085	0.75654	0.47828	-0.242
Mof_N 	N 	0.17995	0.76005	0.38677	-0.241
Mof_N 	N 	0.1862	0.65784	0.5523	-0.243
Mof_C 	C 	0.1513	0.74149	0.44686	0.141
Mof_C 	C 	0.0708	0.78582	0.437	-0.032
Mof_C 	C 	0.129	0.78801	0.3809	-0.011
Mof_C 	C 	0.1541	0.68798	0.5271	0.091
Mof_H 	H 	0.1048	0.6952	0.548	-0.064
Mof_C 	C 	0.1894	0.70892	0.4724	-0.151
Mof_C 	C 	0.2638	0.69785	0.4434	0.113
Mof_H 	H 	0.2908	0.7111	0.4071	-0.065
Mof_C 	C 	0.2975	0.66715	0.4685	-0.166
Mof_H 	H 	0.3474	0.6597	0.4494	0.118
Mof_C 	C 	0.257	0.64759	0.5219	0.102
Mof_H 	H 	0.2796	0.6266	0.5373	0.01
Mof_C 	C 	0.0029	0.80938	0.4571	0.298
Mof_C 	C 	0.142	0.81342	0.3187	0.253
Mof_H 	H 	0.971	0.8231	0.357	-0.037
Mof_O 	O 	0.984	0.8331	0.4031	0.429
Mof_O 	O 	0.9724	0.8048	0.5197	-0.351
Mof_O 	O 	0.9996	0.8397	0.4278	-0.583
Mof_Cu	Cu	0.00915	0.24685	0.05819	0.853
Mof_O 	O 	0.9456	0.2998	0.0023	0.046
Mof_O 	O 	0.1967	0.30859	0.7726	-0.315
Mof_O 	O 	0.0938	0.33993	0.8151	-0.169
Mof_N 	N 	0.085	0.25654	0.97828	-0.242
Mof_N 	N 	0.17995	0.26005	0.88677	-0.241
Mof_N 	N 	0.1862	0.15784	0.0523	-0.242
Mof_C 	C 	0.1513	0.24149	0.94686	0.14
Mof_C 	C 	0.0708	0.28582	0.937	-0.032
Mof_C 	C 	0.129	0.28801	0.8809	-0.01
Mof_C 	C 	0.1541	0.18798	0.0271	0.088
Mof_H 	H 	0.1048	0.1952	0.048	-0.064
Mof_C 	C 	0.1894	0.20892	0.9724	-0.147
Mof_C 	C 	0.2638	0.19785	0.9434	0.11
Mof_H 	H 	0.2908	0.2111	0.9071	-0.063
Mof_C 	C 	0.2975	0.16715	0.9685	-0.161
Mof_H 	H 	0.3474	0.1597	0.9494	0.116
Mof_C 	C 	0.257	0.14759	0.0219	0.099
Mof_H 	H 	0.2796	0.1266	0.0373	0.011
Mof_C 	C 	0.0029	0.30938	0.9571	0.301
Mof_C 	C 	0.142	0.31342	0.8187	0.253
Mof_H 	H 	0.971	0.3231	0.857	-0.036
Mof_O 	O 	0.984	0.3331	0.9031	0.424
Mof_O 	O 	0.9724	0.3048	0.0197	-0.35
Mof_O 	O 	0.9996	0.3397	0.9278	-0.581
Mof_Cu	Cu	0.50915	0.74685	0.05819	0.855
Mof_O 	O 	0.4456	0.7998	0.0023	0.043
Mof_O 	O 	0.6967	0.80859	0.7726	-0.315
Mof_O 	O 	0.5938	0.83993	0.8151	-0.169
Mof_N 	N 	0.585	0.75654	0.97828	-0.243
Mof_N 	N 	0.67995	0.76005	0.88677	-0.241
Mof_N 	N 	0.6862	0.65784	0.0523	-0.244
Mof_C 	C 	0.6513	0.74149	0.94686	0.141
Mof_C 	C 	0.5708	0.78582	0.937	-0.032
Mof_C 	C 	0.629	0.78801	0.8809	-0.011
Mof_C 	C 	0.6541	0.68798	0.0271	0.093
Mof_H 	H 	0.6048	0.6952	0.048	-0.065
Mof_C 	C 	0.6894	0.70892	0.9724	-0.153
Mof_C 	C 	0.7638	0.69785	0.9434	0.115
Mof_H 	H 	0.7908	0.7111	0.9071	-0.066
Mof_C 	C 	0.7975	0.66715	0.9685	-0.17
Mof_H 	H 	0.8474	0.6597	0.9494	0.119
Mof_C 	C 	0.757	0.64759	0.0219	0.105
Mof_H 	H 	0.7796	0.6266	0.0373	0.009
Mof_C 	C 	0.5029	0.80938	0.9571	0.298
Mof_C 	C 	0.642	0.81342	0.8187	0.253
Mof_H 	H 	0.471	0.8231	0.857	-0.037
Mof_O 	O 	0.484	0.8331	0.9031	0.428
Mof_O 	O 	0.4724	0.8048	0.0197	-0.348
Mof_O 	O 	0.4996	0.8397	0.9278	-0.582
Mof_Cu	Cu	0.50915	0.24685	0.55819	0.855
Mof_O 	O 	0.4456	0.2998	0.5023	0.046
Mof_O 	O 	0.6967	0.30859	0.2726	-0.315
Mof_O 	O 	0.5938	0.33993	0.3151	-0.169
Mof_N 	N 	0.585	0.25654	0.47828	-0.243
Mof_N 	N 	0.67995	0.26005	0.38677	-0.241
Mof_N 	N 	0.6862	0.15784	0.5523	-0.243
Mof_C 	C 	0.6513	0.24149	0.44686	0.141
Mof_C 	C 	0.5708	0.28582	0.437	-0.032
Mof_C 	C 	0.629	0.28801	0.3809	-0.011
Mof_C 	C 	0.6541	0.18798	0.5271	0.091
Mof_H 	H 	0.6048	0.1952	0.548	-0.064
Mof_C 	C 	0.6894	0.20892	0.4724	-0.151
Mof_C 	C 	0.7638	0.19785	0.4434	0.113
Mof_H 	H 	0.7908	0.2111	0.4071	-0.065
Mof_C 	C 	0.7975	0.16715	0.4685	-0.166
Mof_H 	H 	0.8474	0.1597	0.4494	0.118
Mof_C 	C 	0.757	0.14759	0.5219	0.102
Mof_H 	H 	0.7796	0.1266	0.5373	0.01
Mof_C 	C 	0.5029	0.30938	0.4571	0.298
Mof_C 	C 	0.642	0.31342	0.3187	0.253
Mof_H 	H 	0.471	0.3231	0.357	-0.037
Mof_O 	O 	0.484	0.3331	0.4031	0.429
Mof_O 	O 	0.4724	0.3048	0.5197	-0.351
Mof_O 	O 	0.4996	0.3397	0.4278	-0.583
Mof_Cu	Cu	0.99085	0.99685	0.80819	0.854
Mof_O 	O 	0.0544	0.0498	0.7523	0.041
Mof_O 	O 	0.8033	0.05859	0.5226	-0.315
Mof_O 	O 	0.9062	0.08993	0.5651	-0.169
Mof_N 	N 	0.915	0.00654	0.72828	-0.242
Mof_N 	N 	0.82005	0.01005	0.63677	-0.241
Mof_N 	N 	0.8138	0.90784	0.8023	-0.243
Mof_C 	C 	0.8487	0.99149	0.69686	0.141
Mof_C 	C 	0.9292	0.03582	0.687	-0.031
Mof_C 	C 	0.871	0.03801	0.6309	-0.011
Mof_C 	C 	0.8459	0.93798	0.7771	0.091
Mof_H 	H 	0.8952	0.9452	0.798	-0.065
Mof_C 	C 	0.8106	0.95892	0.7224	-0.151
Mof_C 	C 	0.7362	0.94785	0.6934	0.113
Mof_H 	H 	0.7092	0.9611	0.6571	-0.065
Mof_C 	C 	0.7025	0.91715	0.7185	-0.165
Mof_H 	H 	0.6526	0.9097	0.6994	0.118
Mof_C 	C 	0.743	0.89759	0.7719	0.102
Mof_H 	H 	0.7204	0.8766	0.7873	0.01
Mof_C 	C 	0.9971	0.05938	0.7071	0.296
Mof_C 	C 	0.858	0.06342	0.5687	0.253
Mof_H 	H 	0.029	0.0731	0.607	-0.038
Mof_O 	O 	0.016	0.0831	0.6531	0.431
Mof_O 	O 	0.0276	0.0548	0.7697	-0.344
Mof_O 	O 	0.0004	0.0897	0.6778	-0.584
Mof_Cu	Cu	0.99085	0.49685	0.30819	0.855
Mof_O 	O 	0.0544	0.5498	0.2523	0.048
Mof_O 	O 	0.8033	0.55859	0.0226	-0.315
Mof_O 	O 	0.9062	0.58993	0.0651	-0.169
Mof_N 	N 	0.915	0.50654	0.22828	-0.242
Mof_N 	N 	0.82005	0.51005	0.13677	-0.241
Mof_N 	N 	0.8138	0.40784	0.3023	-0.243
Mof_C 	C 	0.8487	0.49149	0.19686	0.141
Mof_C 	C 	0.9292	0.53582	0.187	-0.032
Mof_C 	C 	0.871	0.53801	0.1309	-0.01
Mof_C 	C 	0.8459	0.43798	0.2771	0.091
Mof_H 	H 	0.8952	0.4452	0.298	-0.064
Mof_C 	C 	0.8106	0.45892	0.2224	-0.151
Mof_C 	C 	0.7362	0.44785	0.1934	0.113
Mof_H 	H 	0.7092	0.4611	0.1571	-0.065
Mof_C 	C 	0.7025	0.41715	0.2185	-0.165
Mof_H 	H 	0.6526	0.4097	0.1994	0.118
Mof_C 	C 	0.743	0.39759	0.2719	0.102
Mof_H 	H 	0.7204	0.3766	0.2873	0.01
Mof_C 	C 	0.9971	0.55938	0.2071	0.302
Mof_C 	C 	0.858	0.56342	0.0687	0.253
Mof_H 	H 	0.029	0.5731	0.107	-0.037
Mof_O 	O 	0.016	0.5831	0.1531	0.425
Mof_O 	O 	0.0276	0.5548	0.2697	-0.355
Mof_O 	O 	0.0004	0.5897	0.1778	-0.582
Mof_Cu	Cu	0.49085	0.99685	0.30819	0.855
Mof_O 	O 	0.5544	0.0498	0.2523	0.046
Mof_O 	O 	0.3033	0.05859	0.0226	-0.316
Mof_O 	O 	0.4062	0.08993	0.0651	-0.17
Mof_N 	N 	0.415	0.00654	0.22828	-0.243
Mof_N 	N 	0.32005	0.01005	0.13677	-0.241
Mof_N 	N 	0.3138	0.90784	0.3023	-0.243
Mof_C 	C 	0.3487	0.99149	0.19686	0.141
Mof_C 	C 	0.4292	0.03582	0.187	-0.032
Mof_C 	C 	0.371	0.03801	0.1309	-0.011
Mof_C 	C 	0.3459	0.93798	0.2771	0.091
Mof_H 	H 	0.3952	0.9452	0.298	-0.064
Mof_C 	C 	0.3106	0.95892	0.2224	-0.151
Mof_C 	C 	0.2362	0.94785	0.1934	0.113
Mof_H 	H 	0.2092	0.9611	0.1571	-0.065
Mof_C 	C 	0.2025	0.91715	0.2185	-0.166
Mof_H 	H 	0.1526	0.9097	0.1994	0.118
Mof_C 	C 	0.243	0.89759	0.2719	0.102
Mof_H 	H 	0.2204	0.8766	0.2873	0.01
Mof_C 	C 	0.4971	0.05938	0.2071	0.298
Mof_C 	C 	0.358	0.06342	0.0687	0.253
Mof_H 	H 	0.529	0.0731	0.107	-0.037
Mof_O 	O 	0.516	0.0831	0.1531	0.429
Mof_O 	O 	0.5276	0.0548	0.2697	-0.351
Mof_O 	O 	0.5004	0.0897	0.1778	-0.583
Mof_Cu	Cu	0.49085	0.49685	0.80819	0.855
Mof_O 	O 	0.5544	0.5498	0.7523	0.046
Mof_O 	O 	0.3033	0.55859	0.5226	-0.315
Mof_O 	O 	0.4062	0.58993	0.5651	-0.169
Mof_N 	N 	0.415	0.50654	0.72828	-0.243
Mof_N 	N 	0.32005	0.51005	0.63677	-0.241
Mof_N 	N 	0.3138	0.40784	0.8023	-0.243
Mof_C 	C 	0.3487	0.49149	0.69686	0.141
Mof_C 	C 	0.4292	0.53582	0.687	-0.032
Mof_C 	C 	0.371	0.53801	0.6309	-0.011
Mof_C 	C 	0.3459	0.43798	0.7771	0.091
Mof_H 	H 	0.3952	0.4452	0.798	-0.064
Mof_C 	C 	0.3106	0.45892	0.7224	-0.151
Mof_C 	C 	0.2362	0.44785	0.6934	0.113
Mof_H 	H 	0.2092	0.4611	0.6571	-0.065
Mof_C 	C 	0.2025	0.41715	0.7185	-0.166
Mof_H 	H 	0.1526	0.4097	0.6994	0.118
Mof_C 	C 	0.243	0.39759	0.7719	0.102
Mof_H 	H 	0.2204	0.3766	0.7873	0.01
Mof_C 	C 	0.4971	0.55938	0.7071	0.298
Mof_C 	C 	0.358	0.56342	0.5687	0.253
Mof_H 	H 	0.529	0.5731	0.607	-0.037
Mof_O 	O 	0.516	0.5831	0.6531	0.428
Mof_O 	O 	0.5276	0.5548	0.7697	-0.351
Mof_O 	O 	0.5004	0.5897	0.6778	-0.583
Mof_Cu	Cu	0.25915	0.25315	0.80819	0.855
Mof_O 	O 	0.1956	0.2002	0.7523	0.047
Mof_O 	O 	0.4467	0.19141	0.5226	-0.315
Mof_O 	O 	0.3438	0.16007	0.5651	-0.169
Mof_N 	N 	0.335	0.24346	0.72828	-0.243
Mof_N 	N 	0.42995	0.23995	0.63677	-0.241
Mof_N 	N 	0.4362	0.34216	0.8023	-0.243
Mof_C 	C 	0.4013	0.25851	0.69686	0.141
Mof_C 	C 	0.3208	0.21418	0.687	-0.032
Mof_C 	C 	0.379	0.21199	0.6309	-0.011
Mof_C 	C 	0.4041	0.31202	0.7771	0.091
Mof_H 	H 	0.3548	0.3048	0.798	-0.064
Mof_C 	C 	0.4394	0.29108	0.7224	-0.151
Mof_C 	C 	0.5138	0.30215	0.6934	0.113
Mof_H 	H 	0.5408	0.2889	0.6571	-0.065
Mof_C 	C 	0.5475	0.33285	0.7185	-0.165
Mof_H 	H 	0.5974	0.3403	0.6994	0.118
Mof_C 	C 	0.507	0.35241	0.7719	0.102
Mof_H 	H 	0.5296	0.3734	0.7873	0.01
Mof_C 	C 	0.2529	0.19062	0.7071	0.298
Mof_C 	C 	0.392	0.18658	0.5687	0.253
Mof_H 	H 	0.221	0.1769	0.607	-0.037
Mof_O 	O 	0.234	0.1669	0.6531	0.429
Mof_O 	O 	0.2224	0.1952	0.7697	-0.351
Mof_O 	O 	0.2496	0.1603	0.6778	-0.583
Mof_Cu	Cu	0.25915	0.75315	0.30819	0.854
Mof_O 	O 	0.1956	0.7002	0.2523	0.044
Mof_O 	O 	0.4467	0.69141	0.0226	-0.315
Mof_O 	O 	0.3438	0.66007	0.0651	-0.17
Mof_N 	N 	0.335	0.74346	0.22828	-0.243
Mof_N 	N 	0.42995	0.73995	0.13677	-0.241
Mof_N 	N 	0.4362	0.84216	0.3023	-0.243
Mof_C 	C 	0.4013	0.75851	0.19686	0.141
Mof_C 	C 	0.3208	0.71418	0.187	-0.032
Mof_C 	C 	0.379	0.71199	0.1309	-0.011
Mof_C 	C 	0.4041	0.81202	0.2771	0.091
Mof_H 	H 	0.3548	0.8048	0.298	-0.064
Mof_C 	C 	0.4394	0.79108	0.2224	-0.151
Mof_C 	C 	0.5138	0.80215	0.1934	0.113
Mof_H 	H 	0.5408	0.7889	0.1571	-0.065
Mof_C 	C 	0.5475	0.83285	0.2185	-0.166
Mof_H 	H 	0.5974	0.8403	0.1994	0.118
Mof_C 	C 	0.507	0.85241	0.2719	0.102
Mof_H 	H 	0.5296	0.8734	0.2873	0.01
Mof_C 	C 	0.2529	0.69062	0.2071	0.298
Mof_C 	C 	0.392	0.68658	0.0687	0.253
Mof_H 	H 	0.221	0.6769	0.107	-0.037
Mof_O 	O 	0.234	0.6669	0.1531	0.428
Mof_O 	O 	0.2224	0.6952	0.2697	-0.349
Mof_O 	O 	0.2496	0.6603	0.1778	-0.582
Mof_Cu	Cu	0.75915	0.25315	0.30819	0.855
Mof_O 	O 	0.6956	0.2002	0.2523	0.046
Mof_O 	O 	0.9467	0.19141	0.0226	-0.314
Mof_O 	O 	0.8438	0.16007	0.0651	-0.169
Mof_N 	N 	0.835	0.24346	0.22828	-0.242
Mof_N 	N 	0.92995	0.23995	0.13677	-0.24
Mof_N 	N 	0.9362	0.34216	0.3023	-0.242
Mof_C 	C 	0.9013	0.25851	0.19686	0.14
Mof_C 	C 	0.8208	0.21418	0.187	-0.032
Mof_C 	C 	0.879	0.21199	0.1309	-0.01
Mof_C 	C 	0.9041	0.31202	0.2771	0.09
Mof_H 	H 	0.8548	0.3048	0.298	-0.064
Mof_C 	C 	0.9394	0.29108	0.2224	-0.148
Mof_C 	C 	0.0138	0.30215	0.1934	0.109
Mof_H 	H 	0.0408	0.2889	0.1571	-0.064
Mof_C 	C 	0.0475	0.33285	0.2185	-0.163
Mof_H 	H 	0.0974	0.3403	0.1994	0.117
Mof_C 	C 	0.007	0.35241	0.2719	0.1
Mof_H 	H 	0.0296	0.3734	0.2873	0.011
Mof_C 	C 	0.7529	0.19062	0.2071	0.298
Mof_C 	C 	0.892	0.18658	0.0687	0.253
Mof_H 	H 	0.721	0.1769	0.107	-0.037
Mof_O 	O 	0.734	0.1669	0.1531	0.429
Mof_O 	O 	0.7224	0.1952	0.2697	-0.351
Mof_O 	O 	0.7496	0.1603	0.1778	-0.583
Mof_Cu	Cu	0.75915	0.75315	0.80819	0.855
Mof_O 	O 	0.6956	0.7002	0.7523	0.046
Mof_O 	O 	0.9467	0.69141	0.5226	-0.315
Mof_O 	O 	0.8438	0.66007	0.5651	-0.169
Mof_N 	N 	0.835	0.74346	0.72828	-0.243
Mof_N 	N 	0.92995	0.73995	0.63677	-0.241
Mof_N 	N 	0.9362	0.84216	0.8023	-0.245
Mof_C 	C 	0.9013	0.75851	0.69686	0.141
Mof_C 	C 	0.8208	0.71418	0.687	-0.032
Mof_C 	C 	0.879	0.71199	0.6309	-0.011
Mof_C 	C 	0.9041	0.81202	0.7771	0.092
Mof_H 	H 	0.8548	0.8048	0.798	-0.065
Mof_C 	C 	0.9394	0.79108	0.7224	-0.153
Mof_C 	C 	0.0138	0.80215	0.6934	0.117
Mof_H 	H 	0.0408	0.7889	0.6571	-0.066
Mof_C 	C 	0.0475	0.83285	0.7185	-0.168
Mof_H 	H 	0.0974	0.8403	0.6994	0.119
Mof_C 	C 	0.007	0.85241	0.7719	0.106
Mof_H 	H 	0.0296	0.8734	0.7873	0.01
Mof_C 	C 	0.7529	0.69062	0.7071	0.298
Mof_C 	C 	0.892	0.68658	0.5687	0.253
Mof_H 	H 	0.721	0.6769	0.607	-0.037
Mof_O 	O 	0.734	0.6669	0.6531	0.428
Mof_O 	O 	0.7224	0.6952	0.7697	-0.351
Mof_O 	O 	0.7496	0.6603	0.6778	-0.583
Mof_Cu	Cu	0.25915	0.99685	0.44181	0.855
Mof_O 	O 	0.1956	0.0498	0.4977	0.047
Mof_O 	O 	0.4467	0.05859	0.7274	-0.315
Mof_O 	O 	0.3438	0.08993	0.6849	-0.169
Mof_N 	N 	0.335	0.00654	0.52172	-0.242
Mof_N 	N 	0.42995	0.01005	0.61323	-0.241
Mof_N 	N 	0.4362	0.90784	0.4477	-0.243
Mof_C 	C 	0.4013	0.99149	0.55314	0.141
Mof_C 	C 	0.3208	0.03582	0.563	-0.032
Mof_C 	C 	0.379	0.03801	0.6191	-0.011
Mof_C 	C 	0.4041	0.93798	0.4729	0.091
Mof_H 	H 	0.3548	0.9452	0.452	-0.064
Mof_C 	C 	0.4394	0.95892	0.5276	-0.151
Mof_C 	C 	0.5138	0.94785	0.5566	0.113
Mof_H 	H 	0.5408	0.9611	0.5929	-0.065
Mof_C 	C 	0.5475	0.91715	0.5315	-0.166
Mof_H 	H 	0.5974	0.9097	0.5506	0.118
Mof_C 	C 	0.507	0.89759	0.4781	0.102
Mof_H 	H 	0.5296	0.8766	0.4627	0.01
Mof_C 	C 	0.2529	0.05938	0.5429	0.299
Mof_C 	C 	0.392	0.06342	0.6813	0.253
Mof_H 	H 	0.221	0.0731	0.643	-0.037
Mof_O 	O 	0.234	0.0831	0.5969	0.429
Mof_O 	O 	0.2224	0.0548	0.4803	-0.352
Mof_O 	O 	0.2496	0.0897	0.5722	-0.583
Mof_Cu	Cu	0.25915	0.49685	0.94181	0.855
Mof_O 	O 	0.1956	0.5498	0.9977	0.047
Mof_O 	O 	0.4467	0.55859	0.2274	-0.315
Mof_O 	O 	0.3438	0.58993	0.1849	-0.17
Mof_N 	N 	0.335	0.50654	0.02172	-0.243
Mof_N 	N 	0.42995	0.51005	0.11323	-0.241
Mof_N 	N 	0.4362	0.40784	0.9477	-0.243
Mof_C 	C 	0.4013	0.49149	0.05314	0.141
Mof_C 	C 	0.3208	0.53582	0.063	-0.031
Mof_C 	C 	0.379	0.53801	0.1191	-0.011
Mof_C 	C 	0.4041	0.43798	0.9729	0.092
Mof_H 	H 	0.3548	0.4452	0.952	-0.064
Mof_C 	C 	0.4394	0.45892	0.0276	-0.151
Mof_C 	C 	0.5138	0.44785	0.0566	0.113
Mof_H 	H 	0.5408	0.4611	0.0929	-0.065
Mof_C 	C 	0.5475	0.41715	0.0315	-0.166
Mof_H 	H 	0.5974	0.4097	0.0506	0.118
Mof_C 	C 	0.507	0.39759	0.9781	0.102
Mof_H 	H 	0.5296	0.3766	0.9627	0.01
Mof_C 	C 	0.2529	0.55938	0.0429	0.297
Mof_C 	C 	0.392	0.56342	0.1813	0.253
Mof_H 	H 	0.221	0.5731	0.143	-0.037
Mof_O 	O 	0.234	0.5831	0.0969	0.428
Mof_O 	O 	0.2224	0.5548	0.9803	-0.351
Mof_O 	O 	0.2496	0.5897	0.0722	-0.582
Mof_Cu	Cu	0.75915	0.99685	0.94181	0.854
Mof_O 	O 	0.6956	0.0498	0.9977	0.046
Mof_O 	O 	0.9467	0.05859	0.2274	-0.314
Mof_O 	O 	0.8438	0.08993	0.1849	-0.169
Mof_N 	N 	0.835	0.00654	0.02172	-0.242
Mof_N 	N 	0.92995	0.01005	0.11323	-0.24
Mof_N 	N 	0.9362	0.90784	0.9477	-0.244
Mof_C 	C 	0.9013	0.99149	0.05314	0.14
Mof_C 	C 	0.8208	0.03582	0.063	-0.032
Mof_C 	C 	0.879	0.03801	0.1191	-0.01
Mof_C 	C 	0.9041	0.93798	0.9729	0.087
Mof_H 	H 	0.8548	0.9452	0.952	-0.063
Mof_C 	C 	0.9394	0.95892	0.0276	-0.146
Mof_C 	C 	0.0138	0.94785	0.0566	0.111
Mof_H 	H 	0.0408	0.9611	0.0929	-0.064
Mof_C 	C 	0.0475	0.91715	0.0315	-0.169
Mof_H 	H 	0.0974	0.9097	0.0506	0.119
Mof_C 	C 	0.007	0.89759	0.9781	0.108
Mof_H 	H 	0.0296	0.8766	0.9627	0.009
Mof_C 	C 	0.7529	0.05938	0.0429	0.3
Mof_C 	C 	0.892	0.06342	0.1813	0.253
Mof_H 	H 	0.721	0.0731	0.143	-0.037
Mof_O 	O 	0.734	0.0831	0.0969	0.429
Mof_O 	O 	0.7224	0.0548	0.9803	-0.352
Mof_O 	O 	0.7496	0.0897	0.0722	-0.584
Mof_Cu	Cu	0.75915	0.49685	0.44181	0.855
Mof_O 	O 	0.6956	0.5498	0.4977	0.046
Mof_O 	O 	0.9467	0.55859	0.7274	-0.316
Mof_O 	O 	0.8438	0.58993	0.6849	-0.17
Mof_N 	N 	0.835	0.50654	0.52172	-0.243
Mof_N 	N 	0.92995	0.51005	0.61323	-0.241
Mof_N 	N 	0.9362	0.40784	0.4477	-0.243
Mof_C 	C 	0.9013	0.49149	0.55314	0.141
Mof_C 	C 	0.8208	0.53582	0.563	-0.032
Mof_C 	C 	0.879	0.53801	0.6191	-0.011
Mof_C 	C 	0.9041	0.43798	0.4729	0.091
Mof_H 	H 	0.8548	0.4452	0.452	-0.064
Mof_C 	C 	0.9394	0.45892	0.5276	-0.151
Mof_C 	C 	0.0138	0.44785	0.5566	0.114
Mof_H 	H 	0.0408	0.4611	0.5929	-0.065
Mof_C 	C 	0.0475	0.41715	0.5315	-0.166
Mof_H 	H 	0.0974	0.4097	0.5506	0.118
Mof_C 	C 	0.007	0.39759	0.4781	0.102
Mof_H 	H 	0.0296	0.3766	0.4627	0.01
Mof_C 	C 	0.7529	0.55938	0.5429	0.298
Mof_C 	C 	0.892	0.56342	0.6813	0.253
Mof_H 	H 	0.721	0.5731	0.643	-0.037
Mof_O 	O 	0.734	0.5831	0.5969	0.428
Mof_O 	O 	0.7224	0.5548	0.4803	-0.351
Mof_O 	O 	0.7496	0.5897	0.5722	-0.583
Mof_Cu	Cu	0.99085	0.25315	0.44181	0.855
Mof_O 	O 	0.0544	0.2002	0.4977	0.046
Mof_O 	O 	0.8033	0.19141	0.7274	-0.315
Mof_O 	O 	0.9062	0.16007	0.6849	-0.17
Mof_N 	N 	0.915	0.24346	0.52172	-0.242
Mof_N 	N 	0.82005	0.23995	0.61323	-0.241
Mof_N 	N 	0.8138	0.34216	0.4477	-0.243
Mof_C 	C 	0.8487	0.25851	0.55314	0.141
Mof_C 	C 	0.9292	0.21418	0.563	-0.032
Mof_C 	C 	0.871	0.21199	0.6191	-0.011
Mof_C 	C 	0.8459	0.31202	0.4729	0.091
Mof_H 	H 	0.8952	0.3048	0.452	-0.064
Mof_C 	C 	0.8106	0.29108	0.5276	-0.151
Mof_C 	C 	0.7362	0.30215	0.5566	0.113
Mof_H 	H 	0.7092	0.2889	0.5929	-0.065
Mof_C 	C 	0.7025	0.33285	0.5315	-0.166
Mof_H 	H 	0.6526	0.3403	0.5506	0.118
Mof_C 	C 	0.743	0.35241	0.4781	0.102
Mof_H 	H 	0.7204	0.3734	0.4627	0.01
Mof_C 	C 	0.9971	0.19062	0.5429	0.298
Mof_C 	C 	0.858	0.18658	0.6813	0.253
Mof_H 	H 	0.029	0.1769	0.643	-0.037
Mof_O 	O 	0.016	0.1669	0.5969	0.429
Mof_O 	O 	0.0276	0.1952	0.4803	-0.351
Mof_O 	O 	0.0004	0.1603	0.5722	-0.583
Mof_Cu	Cu	0.99085	0.75315	0.94181	0.853
Mof_O 	O 	0.0544	0.7002	0.9977	0.046
Mof_O 	O 	0.8033	0.69141	0.2274	-0.315
Mof_O 	O 	0.9062	0.66007	0.1849	-0.169
Mof_N 	N 	0.915	0.74346	0.02172	-0.242
Mof_N 	N 	0.82005	0.73995	0.11323	-0.241
Mof_N 	N 	0.8138	0.84216	0.9477	-0.242
Mof_C 	C 	0.8487	0.75851	0.05314	0.14
Mof_C 	C 	0.9292	0.71418	0.063	-0.032
Mof_C 	C 	0.871	0.71199	0.1191	-0.01
Mof_C 	C 	0.8459	0.81202	0.9729	0.088
Mof_H 	H 	0.8952	0.8048	0.952	-0.064
Mof_C 	C 	0.8106	0.79108	0.0276	-0.147
Mof_C 	C 	0.7362	0.80215	0.0566	0.11
Mof_H 	H 	0.7092	0.7889	0.0929	-0.063
Mof_C 	C 	0.7025	0.83285	0.0315	-0.161
Mof_H 	H 	0.6526	0.8403	0.0506	0.116
Mof_C 	C 	0.743	0.85241	0.9781	0.099
Mof_H 	H 	0.7204	0.8734	0.9627	0.011
Mof_C 	C 	0.9971	0.69062	0.0429	0.301
Mof_C 	C 	0.858	0.68658	0.1813	0.253
Mof_H 	H 	0.029	0.6769	0.143	-0.036
Mof_O 	O 	0.016	0.6669	0.0969	0.424
Mof_O 	O 	0.0276	0.6952	0.9803	-0.35
Mof_O 	O 	0.0004	0.6603	0.0722	-0.581
Mof_Cu	Cu	0.49085	0.25315	0.94181	0.855
Mof_O 	O 	0.5544	0.2002	0.9977	0.043
Mof_O 	O 	0.3033	0.19141	0.2274	-0.315
Mof_O 	O 	0.4062	0.16007	0.1849	-0.169
Mof_N 	N 	0.415	0.24346	0.02172	-0.243
Mof_N 	N 	0.32005	0.23995	0.11323	-0.241
Mof_N 	N 	0.3138	0.34216	0.9477	-0.244
Mof_C 	C 	0.3487	0.25851	0.05314	0.141
Mof_C 	C 	0.4292	0.21418	0.063	-0.032
Mof_C 	C 	0.371	0.21199	0.1191	-0.011
Mof_C 	C 	0.3459	0.31202	0.9729	0.093
Mof_H 	H 	0.3952	0.3048	0.952	-0.065
Mof_C 	C 	0.3106	0.29108	0.0276	-0.153
Mof_C 	C 	0.2362	0.30215	0.0566	0.115
Mof_H 	H 	0.2092	0.2889	0.0929	-0.066
Mof_C 	C 	0.2025	0.33285	0.0315	-0.17
Mof_H 	H 	0.1526	0.3403	0.0506	0.119
Mof_C 	C 	0.243	0.35241	0.9781	0.105
Mof_H 	H 	0.2204	0.3734	0.9627	0.009
Mof_C 	C 	0.4971	0.19062	0.0429	0.298
Mof_C 	C 	0.358	0.18658	0.1813	0.253
Mof_H 	H 	0.529	0.1769	0.143	-0.037
Mof_O 	O 	0.516	0.1669	0.0969	0.428
Mof_O 	O 	0.5276	0.1952	0.9803	-0.348
Mof_O 	O 	0.5004	0.1603	0.0722	-0.582
Mof_Cu	Cu	0.49085	0.75315	0.44181	0.855
Mof_O 	O 	0.5544	0.7002	0.4977	0.046
Mof_O 	O 	0.3033	0.69141	0.7274	-0.315
Mof_O 	O 	0.4062	0.66007	0.6849	-0.169
Mof_N 	N 	0.415	0.74346	0.52172	-0.243
Mof_N 	N 	0.32005	0.73995	0.61323	-0.241
Mof_N 	N 	0.3138	0.84216	0.4477	-0.243
Mof_C 	C 	0.3487	0.75851	0.55314	0.141
Mof_C 	C 	0.4292	0.71418	0.563	-0.032
Mof_C 	C 	0.371	0.71199	0.6191	-0.011
Mof_C 	C 	0.3459	0.81202	0.4729	0.091
Mof_H 	H 	0.3952	0.8048	0.452	-0.064
Mof_C 	C 	0.3106	0.79108	0.5276	-0.151
Mof_C 	C 	0.2362	0.80215	0.5566	0.113
Mof_H 	H 	0.2092	0.7889	0.5929	-0.065
Mof_C 	C 	0.2025	0.83285	0.5315	-0.166
Mof_H 	H 	0.1526	0.8403	0.5506	0.118
Mof_C 	C 	0.243	0.85241	0.4781	0.102
Mof_H 	H 	0.2204	0.8734	0.4627	0.01
Mof_C 	C 	0.4971	0.69062	0.5429	0.298
Mof_C 	C 	0.358	0.68658	0.6813	0.253
Mof_H 	H 	0.529	0.6769	0.643	-0.037
Mof_O 	O 	0.516	0.6669	0.5969	0.429
Mof_O 	O 	0.5276	0.6952	0.4803	-0.351
Mof_O 	O 	0.5004	0.6603	0.5722	-0.583
Mof_Cu	Cu	0.125	0.125	0.125	0.855
Mof_Cu	Cu	0.125	0.625	0.625	0.855
Mof_Cu	Cu	0.625	0.125	0.625	0.855
Mof_Cu	Cu	0.625	0.625	0.125	0.855
Mof_Cu	Cu	0.875	0.875	0.875	0.855
Mof_Cu	Cu	0.875	0.375	0.375	0.855
Mof_Cu	Cu	0.375	0.875	0.375	0.855
Mof_Cu	Cu	0.375	0.375	0.875	0.855
_end
