data_functionalizedCrystal
_audit_creation_method	'EQeq! by Chris Wilmer'
_symmetry_space_group_name_H-M	'P1'
_symmetry_Int_Tables_number	1
_symmetry_cell_setting	triclinic
loop_
_symmetry_equiv_pos_as_xyz
  x,y,z
_cell_length_a	48.884
_cell_length_b	48.884
_cell_length_c	8.5632
_cell_angle_alpha	90
_cell_angle_beta	90
_cell_angle_gamma	120
loop_
_atom_site_label
_atom_site_type_symbol
_atom_site_fract_x
_atom_site_fract_y
_atom_site_fract_z
_atom_site_charge
Mof_K 	K 	0.59219	0.08755	0.759	3.364
Mof_Pr	Pr	0.51478	0.00956	0.45095	2.475
Mof_S 	S 	0.5769	0.09194	0.39234	0.633
Mof_S 	S 	0.75601	0.08047	0.23701	0.687
Mof_O 	O 	0.53509	0.02976	0.1906	-0.765
Mof_O 	O 	0.5539	0.04554	0.9542	-0.926
Mof_O 	O 	0.55723	0.06459	0.4926	-0.867
Mof_O 	O 	0.59792	0.11928	0.4916	-0.77
Mof_O 	O 	0.5589	0.09765	0.2785	-0.699
Mof_O 	O 	0.78779	0.14602	0.621	-0.566
Mof_O 	O 	0.80636	0.14848	0.3838	-0.754
Mof_O 	O 	0.77202	0.0759	0.3681	-0.636
Mof_O 	O 	0.77761	0.10265	0.1221	-0.615
Mof_O 	O 	0.73248	0.05192	0.1667	-0.346
Mof_C 	C 	0.59147	0.062	0.1574	-0.205
Mof_C 	C 	0.60164	0.08104	0.2898	-0.16
Mof_C 	C 	0.63274	0.09456	0.3385	-0.01
Mof_H 	H 	0.6392	0.1074	0.4265	-0.102
Mof_C 	C 	0.65483	0.08929	0.2575	-0.067
Mof_C 	C 	0.64461	0.0714	0.1228	-0.062
Mof_H 	H 	0.6589	0.0683	0.0647	0.002
Mof_C 	C 	0.61331	0.05798	0.0715	-0.127
Mof_H 	H 	0.6071	0.0463	0.9795	-0.042
Mof_C 	C 	0.55809	0.04502	0.0993	0.516
Mof_C 	C 	0.6877	0.10228	0.3125	0.007
Mof_C 	C 	0.70185	0.1281	0.4125	-0.129
Mof_H 	H 	0.6908	0.138	0.445	-0.016
Mof_C 	C 	0.73259	0.13914	0.4639	0.007
Mof_H 	H 	0.7415	0.156	0.5333	-0.04
Mof_C 	C 	0.75007	0.12618	0.4164	-0.141
Mof_C 	C 	0.73595	0.09983	0.3126	-0.09
Mof_C 	C 	0.70517	0.08814	0.2673	-0.065
Mof_H 	H 	0.6956	0.0702	0.2044	0.056
Mof_C 	C 	0.78321	0.14083	0.4782	0.422
Mof_K 	K 	0.25886	0.42088	0.09233	3.343
Mof_Pr	Pr	0.18145	0.34289	0.78428	2.488
Mof_S 	S 	0.24357	0.42527	0.72567	0.633
Mof_S 	S 	0.42268	0.4138	0.57034	0.688
Mof_O 	O 	0.20176	0.36309	0.52393	-0.765
Mof_O 	O 	0.22057	0.37887	0.28753	-0.932
Mof_O 	O 	0.2239	0.39792	0.82593	-0.865
Mof_O 	O 	0.26459	0.45261	0.82493	-0.765
Mof_O 	O 	0.22557	0.43098	0.61183	-0.697
Mof_O 	O 	0.45446	0.47935	0.95433	-0.563
Mof_O 	O 	0.47303	0.48181	0.71713	-0.753
Mof_O 	O 	0.43869	0.40923	0.70143	-0.637
Mof_O 	O 	0.44428	0.43598	0.45543	-0.616
Mof_O 	O 	0.39915	0.38525	0.50003	-0.346
Mof_C 	C 	0.25814	0.39533	0.49073	-0.217
Mof_C 	C 	0.26831	0.41437	0.62313	-0.152
Mof_C 	C 	0.29941	0.42789	0.67183	-0.017
Mof_H 	H 	0.30587	0.44073	0.75983	-0.098
Mof_C 	C 	0.3215	0.42262	0.59083	-0.057
Mof_C 	C 	0.31128	0.40473	0.45613	-0.077
Mof_H 	H 	0.32557	0.40163	0.39803	0.009
Mof_C 	C 	0.27998	0.39131	0.40483	-0.099
Mof_H 	H 	0.27377	0.37963	0.31283	-0.055
Mof_C 	C 	0.22476	0.37835	0.43263	0.531
Mof_C 	C 	0.35437	0.43561	0.64583	0.003
Mof_C 	C 	0.36852	0.46143	0.74583	-0.125
Mof_H 	H 	0.35747	0.47133	0.77833	-0.016
Mof_C 	C 	0.39926	0.47247	0.79723	0.005
Mof_H 	H 	0.40817	0.48933	0.86663	-0.038
Mof_C 	C 	0.41674	0.45951	0.74973	-0.138
Mof_C 	C 	0.40262	0.43316	0.64593	-0.091
Mof_C 	C 	0.37184	0.42147	0.60063	-0.062
Mof_H 	H 	0.36227	0.40353	0.53773	0.056
Mof_C 	C 	0.44988	0.47416	0.81153	0.421
Mof_K 	K 	0.92552	0.75422	0.42567	3.352
Mof_Pr	Pr	0.84811	0.67623	0.11762	2.498
Mof_S 	S 	0.91023	0.75861	0.05901	0.659
Mof_S 	S 	0.08934	0.74714	0.90368	0.688
Mof_O 	O 	0.86842	0.69643	0.85727	-0.766
Mof_O 	O 	0.88723	0.71221	0.62087	-0.931
Mof_O 	O 	0.89056	0.73126	0.15927	-0.87
Mof_O 	O 	0.93125	0.78595	0.15827	-0.769
Mof_O 	O 	0.89223	0.76432	0.94517	-0.707
Mof_O 	O 	0.12112	0.81269	0.28767	-0.564
Mof_O 	O 	0.13969	0.81515	0.05047	-0.749
Mof_O 	O 	0.10535	0.74257	0.03477	-0.635
Mof_O 	O 	0.11094	0.76932	0.78877	-0.615
Mof_O 	O 	0.06581	0.71859	0.83337	-0.344
Mof_C 	C 	0.9248	0.72867	0.82407	-0.201
Mof_C 	C 	0.93497	0.74771	0.95647	-0.183
Mof_C 	C 	0.96607	0.76123	0.00517	0.021
Mof_H 	H 	0.97253	0.77407	0.09317	-0.112
Mof_C 	C 	0.98816	0.75596	0.92417	-0.086
Mof_C 	C 	0.97794	0.73807	0.78947	-0.057
Mof_H 	H 	0.99223	0.73497	0.73137	0
Mof_C 	C 	0.94664	0.72465	0.73817	-0.117
Mof_H 	H 	0.94043	0.71297	0.64617	-0.049
Mof_C 	C 	0.89142	0.71169	0.76597	0.526
Mof_C 	C 	0.02103	0.76895	0.97917	0.008
Mof_C 	C 	0.03518	0.79477	0.07917	-0.12
Mof_H 	H 	0.02413	0.80467	0.11167	-0.014
Mof_C 	C 	0.06592	0.80581	0.13057	0.003
Mof_H 	H 	0.07483	0.82267	0.19997	-0.037
Mof_C 	C 	0.0834	0.79285	0.08307	-0.133
Mof_C 	C 	0.06928	0.7665	0.97927	-0.096
Mof_C 	C 	0.0385	0.75481	0.93397	-0.064
Mof_H 	H 	0.02893	0.73687	0.87107	0.058
Mof_C 	C 	0.11654	0.8075	0.14487	0.42
Mof_K 	K 	0.91245	0.50464	0.759	3.365
Mof_Pr	Pr	0.99044	0.50522	0.45095	2.476
Mof_S 	S 	0.90806	0.48496	0.39234	0.634
Mof_S 	S 	0.91953	0.67554	0.23701	0.688
Mof_O 	O 	0.97024	0.50533	0.1906	-0.764
Mof_O 	O 	0.95446	0.50836	0.9542	-0.925
Mof_O 	O 	0.93541	0.49264	0.4926	-0.866
Mof_O 	O 	0.88072	0.47864	0.4916	-0.769
Mof_O 	O 	0.90235	0.46125	0.2785	-0.698
Mof_O 	O 	0.85398	0.64177	0.621	-0.565
Mof_O 	O 	0.85152	0.65788	0.3838	-0.753
Mof_O 	O 	0.9241	0.69612	0.3681	-0.636
Mof_O 	O 	0.89735	0.67496	0.1221	-0.615
Mof_O 	O 	0.94808	0.68056	0.1667	-0.346
Mof_C 	C 	0.938	0.52947	0.1574	-0.205
Mof_C 	C 	0.91896	0.5206	0.2898	-0.16
Mof_C 	C 	0.90544	0.53818	0.3385	-0.01
Mof_H 	H 	0.8926	0.5318	0.4265	-0.102
Mof_C 	C 	0.91071	0.56554	0.2575	-0.067
Mof_C 	C 	0.9286	0.57321	0.1228	-0.062
Mof_H 	H 	0.9317	0.5906	0.0647	0.002
Mof_C 	C 	0.94202	0.55533	0.0715	-0.127
Mof_H 	H 	0.9537	0.5608	0.9795	-0.042
Mof_C 	C 	0.95498	0.51307	0.0993	0.516
Mof_C 	C 	0.89772	0.58542	0.3125	0.007
Mof_C 	C 	0.8719	0.57375	0.4125	-0.129
Mof_H 	H 	0.862	0.5528	0.445	-0.016
Mof_C 	C 	0.86086	0.59345	0.4639	0.007
Mof_H 	H 	0.844	0.5855	0.5333	-0.04
Mof_C 	C 	0.87382	0.62389	0.4164	-0.141
Mof_C 	C 	0.90017	0.63612	0.3126	-0.09
Mof_C 	C 	0.91186	0.61703	0.2673	-0.065
Mof_H 	H 	0.9298	0.6254	0.2044	0.056
Mof_C 	C 	0.85917	0.64238	0.4782	0.422
Mof_K 	K 	0.57912	0.83797	0.09233	3.344
Mof_Pr	Pr	0.65711	0.83855	0.78428	2.488
Mof_S 	S 	0.57473	0.81829	0.72567	0.633
Mof_S 	S 	0.5862	0.00887	0.57034	0.682
Mof_O 	O 	0.63691	0.83866	0.52393	-0.765
Mof_O 	O 	0.62113	0.84169	0.28753	-0.932
Mof_O 	O 	0.60208	0.82597	0.82593	-0.865
Mof_O 	O 	0.54739	0.81197	0.82493	-0.765
Mof_O 	O 	0.56902	0.79458	0.61183	-0.697
Mof_O 	O 	0.52065	0.9751	0.95433	-0.559
Mof_O 	O 	0.51819	0.99121	0.71713	-0.746
Mof_O 	O 	0.59077	0.02945	0.70143	-0.636
Mof_O 	O 	0.56402	0.00829	0.45543	-0.615
Mof_O 	O 	0.61475	0.01389	0.50003	-0.346
Mof_C 	C 	0.60467	0.8628	0.49073	-0.217
Mof_C 	C 	0.58563	0.85393	0.62313	-0.153
Mof_C 	C 	0.57211	0.87151	0.67183	-0.016
Mof_H 	H 	0.55927	0.86513	0.75983	-0.098
Mof_C 	C 	0.57738	0.89887	0.59083	-0.058
Mof_C 	C 	0.59527	0.90654	0.45613	-0.077
Mof_H 	H 	0.59837	0.92393	0.39803	0.009
Mof_C 	C 	0.60869	0.88866	0.40483	-0.099
Mof_H 	H 	0.62037	0.89413	0.31283	-0.054
Mof_C 	C 	0.62165	0.8464	0.43263	0.531
Mof_C 	C 	0.56439	0.91875	0.64583	0.005
Mof_C 	C 	0.53857	0.90708	0.74583	-0.127
Mof_H 	H 	0.52867	0.88613	0.77833	-0.016
Mof_C 	C 	0.52753	0.92678	0.79723	0.007
Mof_H 	H 	0.51067	0.91883	0.86663	-0.038
Mof_C 	C 	0.54049	0.95722	0.74973	-0.139
Mof_C 	C 	0.56684	0.96945	0.64593	-0.085
Mof_C 	C 	0.57853	0.95036	0.60063	-0.064
Mof_H 	H 	0.59647	0.95873	0.53773	0.058
Mof_C 	C 	0.52584	0.97571	0.81153	0.421
Mof_K 	K 	0.24578	0.17131	0.42567	3.356
Mof_Pr	Pr	0.32377	0.17189	0.11762	2.498
Mof_S 	S 	0.24139	0.15163	0.05901	0.658
Mof_S 	S 	0.25286	0.34221	0.90368	0.689
Mof_O 	O 	0.30357	0.172	0.85727	-0.766
Mof_O 	O 	0.28779	0.17503	0.62087	-0.932
Mof_O 	O 	0.26874	0.15931	0.15927	-0.87
Mof_O 	O 	0.21405	0.14531	0.15827	-0.769
Mof_O 	O 	0.23568	0.12792	0.94517	-0.706
Mof_O 	O 	0.18731	0.30844	0.28767	-0.564
Mof_O 	O 	0.18485	0.32455	0.05047	-0.749
Mof_O 	O 	0.25743	0.36279	0.03477	-0.635
Mof_O 	O 	0.23068	0.34163	0.78877	-0.616
Mof_O 	O 	0.28141	0.34723	0.83337	-0.345
Mof_C 	C 	0.27133	0.19614	0.82407	-0.204
Mof_C 	C 	0.25229	0.18727	0.95647	-0.18
Mof_C 	C 	0.23877	0.20485	0.00517	0.015
Mof_H 	H 	0.22593	0.19847	0.09317	-0.108
Mof_C 	C 	0.24404	0.23221	0.92417	-0.075
Mof_C 	C 	0.26193	0.23988	0.78947	-0.064
Mof_H 	H 	0.26503	0.25727	0.73137	0.005
Mof_C 	C 	0.27535	0.222	0.73817	-0.112
Mof_H 	H 	0.28703	0.22747	0.64617	-0.051
Mof_C 	C 	0.28831	0.17974	0.76597	0.527
Mof_C 	C 	0.23105	0.25209	0.97917	-0.004
Mof_C 	C 	0.20523	0.24042	0.07917	-0.113
Mof_H 	H 	0.19533	0.21947	0.11167	-0.019
Mof_C 	C 	0.19419	0.26012	0.13057	-0.002
Mof_H 	H 	0.17733	0.25217	0.19997	-0.036
Mof_C 	C 	0.20715	0.29056	0.08307	-0.13
Mof_C 	C 	0.2335	0.30279	0.97927	-0.099
Mof_C 	C 	0.24519	0.2837	0.93397	-0.057
Mof_H 	H 	0.26313	0.29207	0.87107	0.054
Mof_C 	C 	0.1925	0.30905	0.14487	0.419
Mof_K 	K 	0.49536	0.40781	0.759	3.366
Mof_Pr	Pr	0.49478	0.48522	0.45095	2.49
Mof_S 	S 	0.51504	0.4231	0.39234	0.635
Mof_S 	S 	0.32446	0.24399	0.23701	0.688
Mof_O 	O 	0.49467	0.46491	0.1906	-0.765
Mof_O 	O 	0.49164	0.4461	0.9542	-0.926
Mof_O 	O 	0.50736	0.44277	0.4926	-0.867
Mof_O 	O 	0.52136	0.40208	0.4916	-0.769
Mof_O 	O 	0.53875	0.4411	0.2785	-0.698
Mof_O 	O 	0.35823	0.21221	0.621	-0.565
Mof_O 	O 	0.34212	0.19364	0.3838	-0.753
Mof_O 	O 	0.30388	0.22798	0.3681	-0.636
Mof_O 	O 	0.32504	0.22239	0.1221	-0.615
Mof_O 	O 	0.31944	0.26752	0.1667	-0.345
Mof_C 	C 	0.47053	0.40853	0.1574	-0.205
Mof_C 	C 	0.4794	0.39836	0.2898	-0.16
Mof_C 	C 	0.46182	0.36726	0.3385	-0.009
Mof_H 	H 	0.4682	0.3608	0.4265	-0.102
Mof_C 	C 	0.43446	0.34517	0.2575	-0.067
Mof_C 	C 	0.42679	0.35539	0.1228	-0.062
Mof_H 	H 	0.4094	0.3411	0.0647	0.002
Mof_C 	C 	0.44467	0.38669	0.0715	-0.126
Mof_H 	H 	0.4392	0.3929	0.9795	-0.041
Mof_C 	C 	0.48693	0.44191	0.0993	0.516
Mof_C 	C 	0.41458	0.3123	0.3125	0.007
Mof_C 	C 	0.42625	0.29815	0.4125	-0.129
Mof_H 	H 	0.4472	0.3092	0.445	-0.016
Mof_C 	C 	0.40655	0.26741	0.4639	0.007
Mof_H 	H 	0.4145	0.2585	0.5333	-0.04
Mof_C 	C 	0.37611	0.24993	0.4164	-0.141
Mof_C 	C 	0.36388	0.26405	0.3126	-0.09
Mof_C 	C 	0.38297	0.29483	0.2673	-0.065
Mof_H 	H 	0.3746	0.3044	0.2044	0.056
Mof_C 	C 	0.35762	0.21679	0.4782	0.422
Mof_K 	K 	0.16203	0.74114	0.09233	3.343
Mof_Pr	Pr	0.16145	0.81855	0.78428	2.488
Mof_S 	S 	0.18171	0.75643	0.72567	0.633
Mof_S 	S 	0.99113	0.57732	0.57034	0.682
Mof_O 	O 	0.16134	0.79824	0.52393	-0.765
Mof_O 	O 	0.15831	0.77943	0.28753	-0.932
Mof_O 	O 	0.17403	0.7761	0.82593	-0.865
Mof_O 	O 	0.18803	0.73541	0.82493	-0.765
Mof_O 	O 	0.20542	0.77443	0.61183	-0.697
Mof_O 	O 	0.0249	0.54554	0.95433	-0.559
Mof_O 	O 	0.00879	0.52697	0.71713	-0.746
Mof_O 	O 	0.97055	0.56131	0.70143	-0.637
Mof_O 	O 	0.99171	0.55572	0.45543	-0.615
Mof_O 	O 	0.98611	0.60085	0.50003	-0.346
Mof_C 	C 	0.1372	0.74186	0.49073	-0.217
Mof_C 	C 	0.14607	0.73169	0.62313	-0.153
Mof_C 	C 	0.12849	0.70059	0.67183	-0.016
Mof_H 	H 	0.13487	0.69413	0.75983	-0.098
Mof_C 	C 	0.10113	0.6785	0.59083	-0.058
Mof_C 	C 	0.09346	0.68872	0.45613	-0.077
Mof_H 	H 	0.07607	0.67443	0.39803	0.009
Mof_C 	C 	0.11134	0.72002	0.40483	-0.099
Mof_H 	H 	0.10587	0.72623	0.31283	-0.054
Mof_C 	C 	0.1536	0.77524	0.43263	0.531
Mof_C 	C 	0.08125	0.64563	0.64583	0.005
Mof_C 	C 	0.09292	0.63148	0.74583	-0.127
Mof_H 	H 	0.11387	0.64253	0.77833	-0.016
Mof_C 	C 	0.07322	0.60074	0.79723	0.007
Mof_H 	H 	0.08117	0.59183	0.86663	-0.038
Mof_C 	C 	0.04278	0.58326	0.74973	-0.139
Mof_C 	C 	0.03055	0.59738	0.64593	-0.085
Mof_C 	C 	0.04964	0.62816	0.60063	-0.064
Mof_H 	H 	0.04127	0.63773	0.53773	0.058
Mof_C 	C 	0.02429	0.55012	0.81153	0.421
Mof_K 	K 	0.82869	0.07448	0.42567	3.351
Mof_Pr	Pr	0.82811	0.15189	0.11762	2.498
Mof_S 	S 	0.84837	0.08977	0.05901	0.659
Mof_S 	S 	0.65779	0.91066	0.90368	0.688
Mof_O 	O 	0.828	0.13158	0.85727	-0.766
Mof_O 	O 	0.82497	0.11277	0.62087	-0.931
Mof_O 	O 	0.84069	0.10944	0.15927	-0.87
Mof_O 	O 	0.85469	0.06875	0.15827	-0.769
Mof_O 	O 	0.87208	0.10777	0.94517	-0.707
Mof_O 	O 	0.69156	0.87888	0.28767	-0.564
Mof_O 	O 	0.67545	0.86031	0.05047	-0.749
Mof_O 	O 	0.63721	0.89465	0.03477	-0.635
Mof_O 	O 	0.65837	0.88906	0.78877	-0.615
Mof_O 	O 	0.65277	0.93419	0.83337	-0.344
Mof_C 	C 	0.80386	0.0752	0.82407	-0.201
Mof_C 	C 	0.81273	0.06503	0.95647	-0.183
Mof_C 	C 	0.79515	0.03393	0.00517	0.021
Mof_H 	H 	0.80153	0.02747	0.09317	-0.112
Mof_C 	C 	0.76779	0.01184	0.92417	-0.087
Mof_C 	C 	0.76012	0.02206	0.78947	-0.057
Mof_H 	H 	0.74273	0.00777	0.73137	0
Mof_C 	C 	0.778	0.05336	0.73817	-0.117
Mof_H 	H 	0.77253	0.05957	0.64617	-0.049
Mof_C 	C 	0.82026	0.10858	0.76597	0.526
Mof_C 	C 	0.74791	0.97897	0.97917	0.008
Mof_C 	C 	0.75958	0.96482	0.07917	-0.12
Mof_H 	H 	0.78053	0.97587	0.11167	-0.014
Mof_C 	C 	0.73988	0.93408	0.13057	0.003
Mof_H 	H 	0.74783	0.92517	0.19997	-0.037
Mof_C 	C 	0.70944	0.9166	0.08307	-0.133
Mof_C 	C 	0.69721	0.93072	0.97927	-0.096
Mof_C 	C 	0.7163	0.9615	0.93397	-0.064
Mof_H 	H 	0.70793	0.97107	0.87107	0.058
Mof_C 	C 	0.69095	0.88346	0.14487	0.42
Mof_K 	K 	0.91245	0.40781	0.259	3.327
Mof_Pr	Pr	0.99044	0.48522	0.95095	2.491
Mof_S 	S 	0.90806	0.4231	0.89234	0.633
Mof_S 	S 	0.91953	0.24399	0.73701	0.686
Mof_O 	O 	0.97024	0.46491	0.6906	-0.766
Mof_O 	O 	0.95446	0.4461	0.4542	-0.929
Mof_O 	O 	0.93541	0.44277	0.9926	-0.861
Mof_O 	O 	0.88072	0.40208	0.9916	-0.76
Mof_O 	O 	0.90235	0.4411	0.7785	-0.697
Mof_O 	O 	0.85398	0.21221	0.121	-0.567
Mof_O 	O 	0.85152	0.19364	0.8838	-0.753
Mof_O 	O 	0.9241	0.22798	0.8681	-0.635
Mof_O 	O 	0.89735	0.22239	0.6221	-0.615
Mof_O 	O 	0.94808	0.26752	0.6667	-0.346
Mof_C 	C 	0.938	0.40853	0.6574	-0.216
Mof_C 	C 	0.91896	0.39836	0.7898	-0.152
Mof_C 	C 	0.90544	0.36726	0.8385	-0.015
Mof_H 	H 	0.8926	0.3608	0.9265	-0.097
Mof_C 	C 	0.91071	0.34517	0.7575	-0.059
Mof_C 	C 	0.9286	0.35539	0.6228	-0.076
Mof_H 	H 	0.9317	0.3411	0.5647	0.008
Mof_C 	C 	0.94202	0.38669	0.5715	-0.099
Mof_H 	H 	0.9537	0.3929	0.4795	-0.055
Mof_C 	C 	0.95498	0.44191	0.5993	0.531
Mof_C 	C 	0.89772	0.3123	0.8125	0.008
Mof_C 	C 	0.8719	0.29815	0.9125	-0.135
Mof_H 	H 	0.862	0.3092	0.945	-0.012
Mof_C 	C 	0.86086	0.26741	0.9639	0.021
Mof_H 	H 	0.844	0.2585	0.0333	-0.049
Mof_C 	C 	0.87382	0.24993	0.9164	-0.146
Mof_C 	C 	0.90017	0.26405	0.8126	-0.087
Mof_C 	C 	0.91186	0.29483	0.7673	-0.066
Mof_H 	H 	0.9298	0.3044	0.7044	0.057
Mof_C 	C 	0.85917	0.21679	0.9782	0.424
Mof_K 	K 	0.57912	0.74114	0.59233	3.358
Mof_Pr	Pr	0.65711	0.81855	0.28428	2.495
Mof_S 	S 	0.57473	0.75643	0.22567	0.634
Mof_S 	S 	0.5862	0.57732	0.07034	0.678
Mof_O 	O 	0.63691	0.79824	0.02393	-0.763
Mof_O 	O 	0.62113	0.77943	0.78753	-0.932
Mof_O 	O 	0.60208	0.7761	0.32593	-0.867
Mof_O 	O 	0.54739	0.73541	0.32493	-0.768
Mof_O 	O 	0.56902	0.77443	0.11183	-0.698
Mof_O 	O 	0.52065	0.54554	0.45433	-0.565
Mof_O 	O 	0.51819	0.52697	0.21713	-0.756
Mof_O 	O 	0.59077	0.56131	0.20143	-0.633
Mof_O 	O 	0.56402	0.55572	0.95543	-0.61
Mof_O 	O 	0.61475	0.60085	3e-05	-0.345
Mof_C 	C 	0.60467	0.74186	0.99073	-0.214
Mof_C 	C 	0.58563	0.73169	0.12313	-0.156
Mof_C 	C 	0.57211	0.70059	0.17183	-0.013
Mof_H 	H 	0.55927	0.69413	0.25983	-0.101
Mof_C 	C 	0.57738	0.6785	0.09083	-0.062
Mof_C 	C 	0.59527	0.68872	0.95613	-0.071
Mof_H 	H 	0.59837	0.67443	0.89803	0.008
Mof_C 	C 	0.60869	0.72002	0.90483	-0.104
Mof_H 	H 	0.62037	0.72623	0.81283	-0.054
Mof_C 	C 	0.62165	0.77524	0.93263	0.528
Mof_C 	C 	0.56439	0.64563	0.14583	0.005
Mof_C 	C 	0.53857	0.63148	0.24583	-0.129
Mof_H 	H 	0.52867	0.64253	0.27833	-0.016
Mof_C 	C 	0.52753	0.60074	0.29723	0.007
Mof_H 	H 	0.51067	0.59183	0.36663	-0.041
Mof_C 	C 	0.54049	0.58326	0.24973	-0.142
Mof_C 	C 	0.56684	0.59738	0.14593	-0.088
Mof_C 	C 	0.57853	0.62816	0.10063	-0.065
Mof_H 	H 	0.59647	0.63773	0.03773	0.056
Mof_C 	C 	0.52584	0.55012	0.31153	0.423
Mof_K 	K 	0.24578	0.07448	0.92567	3.325
Mof_Pr	Pr	0.32377	0.15189	0.61762	2.493
Mof_S 	S 	0.24139	0.08977	0.55901	0.635
Mof_S 	S 	0.25286	0.91066	0.40368	0.686
Mof_O 	O 	0.30357	0.13158	0.35727	-0.765
Mof_O 	O 	0.28779	0.11277	0.12087	-0.926
Mof_O 	O 	0.26874	0.10944	0.65927	-0.865
Mof_O 	O 	0.21405	0.06875	0.65827	-0.766
Mof_O 	O 	0.23568	0.10777	0.44517	-0.697
Mof_O 	O 	0.18731	0.87888	0.78767	-0.566
Mof_O 	O 	0.18485	0.86031	0.55047	-0.752
Mof_O 	O 	0.25743	0.89465	0.53477	-0.636
Mof_O 	O 	0.23068	0.88906	0.28877	-0.614
Mof_O 	O 	0.28141	0.93419	0.33337	-0.344
Mof_C 	C 	0.27133	0.0752	0.32407	-0.212
Mof_C 	C 	0.25229	0.06503	0.45647	-0.156
Mof_C 	C 	0.23877	0.03393	0.50517	-0.009
Mof_H 	H 	0.22593	0.02747	0.59317	-0.102
Mof_C 	C 	0.24404	0.01184	0.42417	-0.069
Mof_C 	C 	0.26193	0.02206	0.28947	-0.069
Mof_H 	H 	0.26503	0.00777	0.23137	0.006
Mof_C 	C 	0.27535	0.05336	0.23817	-0.104
Mof_H 	H 	0.28703	0.05957	0.14617	-0.051
Mof_C 	C 	0.28831	0.10858	0.26597	0.529
Mof_C 	C 	0.23105	0.97897	0.47917	0.016
Mof_C 	C 	0.20523	0.96482	0.57917	-0.134
Mof_H 	H 	0.19533	0.97587	0.61167	-0.012
Mof_C 	C 	0.19419	0.93408	0.63057	0.012
Mof_H 	H 	0.17733	0.92517	0.69997	-0.042
Mof_C 	C 	0.20715	0.9166	0.58307	-0.143
Mof_C 	C 	0.2335	0.93072	0.47927	-0.086
Mof_C 	C 	0.24519	0.9615	0.43397	-0.069
Mof_H 	H 	0.26313	0.97107	0.37107	0.06
Mof_C 	C 	0.1925	0.88346	0.64487	0.423
Mof_K 	K 	0.49536	0.08755	0.259	3.327
Mof_Pr	Pr	0.49478	0.00956	0.95095	2.491
Mof_S 	S 	0.51504	0.09194	0.89234	0.633
Mof_S 	S 	0.32446	0.08047	0.73701	0.686
Mof_O 	O 	0.49467	0.02976	0.6906	-0.766
Mof_O 	O 	0.49164	0.04554	0.4542	-0.929
Mof_O 	O 	0.50736	0.06459	0.9926	-0.861
Mof_O 	O 	0.52136	0.11928	0.9916	-0.76
Mof_O 	O 	0.53875	0.09765	0.7785	-0.697
Mof_O 	O 	0.35823	0.14602	0.121	-0.567
Mof_O 	O 	0.34212	0.14848	0.8838	-0.753
Mof_O 	O 	0.30388	0.0759	0.8681	-0.635
Mof_O 	O 	0.32504	0.10265	0.6221	-0.615
Mof_O 	O 	0.31944	0.05192	0.6667	-0.346
Mof_C 	C 	0.47053	0.062	0.6574	-0.216
Mof_C 	C 	0.4794	0.08104	0.7898	-0.152
Mof_C 	C 	0.46182	0.09456	0.8385	-0.015
Mof_H 	H 	0.4682	0.1074	0.9265	-0.097
Mof_C 	C 	0.43446	0.08929	0.7575	-0.059
Mof_C 	C 	0.42679	0.0714	0.6228	-0.076
Mof_H 	H 	0.4094	0.0683	0.5647	0.008
Mof_C 	C 	0.44467	0.05798	0.5715	-0.099
Mof_H 	H 	0.4392	0.0463	0.4795	-0.055
Mof_C 	C 	0.48693	0.04502	0.5993	0.531
Mof_C 	C 	0.41458	0.10228	0.8125	0.008
Mof_C 	C 	0.42625	0.1281	0.9125	-0.135
Mof_H 	H 	0.4472	0.138	0.945	-0.012
Mof_C 	C 	0.40655	0.13914	0.9639	0.021
Mof_H 	H 	0.4145	0.156	0.0333	-0.049
Mof_C 	C 	0.37611	0.12618	0.9164	-0.146
Mof_C 	C 	0.36388	0.09983	0.8126	-0.087
Mof_C 	C 	0.38297	0.08814	0.7673	-0.066
Mof_H 	H 	0.3746	0.0702	0.7044	0.057
Mof_C 	C 	0.35762	0.14083	0.9782	0.424
Mof_K 	K 	0.16203	0.42088	0.59233	3.358
Mof_Pr	Pr	0.16145	0.34289	0.28428	2.495
Mof_S 	S 	0.18171	0.42527	0.22567	0.634
Mof_S 	S 	0.99113	0.4138	0.07034	0.672
Mof_O 	O 	0.16134	0.36309	0.02393	-0.763
Mof_O 	O 	0.15831	0.37887	0.78753	-0.932
Mof_O 	O 	0.17403	0.39792	0.32593	-0.867
Mof_O 	O 	0.18803	0.45261	0.32493	-0.768
Mof_O 	O 	0.20542	0.43098	0.11183	-0.698
Mof_O 	O 	0.0249	0.47935	0.45433	-0.561
Mof_O 	O 	0.00879	0.48181	0.21713	-0.75
Mof_O 	O 	0.97055	0.40923	0.20143	-0.633
Mof_O 	O 	0.99171	0.43598	0.95543	-0.609
Mof_O 	O 	0.98611	0.38525	3e-05	-0.346
Mof_C 	C 	0.1372	0.39533	0.99073	-0.213
Mof_C 	C 	0.14607	0.41437	0.12313	-0.156
Mof_C 	C 	0.12849	0.42789	0.17183	-0.013
Mof_H 	H 	0.13487	0.44073	0.25983	-0.101
Mof_C 	C 	0.10113	0.42262	0.09083	-0.063
Mof_C 	C 	0.09346	0.40473	0.95613	-0.07
Mof_H 	H 	0.07607	0.40163	0.89803	0.008
Mof_C 	C 	0.11134	0.39131	0.90483	-0.104
Mof_H 	H 	0.10587	0.37963	0.81283	-0.053
Mof_C 	C 	0.1536	0.37835	0.93263	0.528
Mof_C 	C 	0.08125	0.43561	0.14583	0.007
Mof_C 	C 	0.09292	0.46143	0.24583	-0.13
Mof_H 	H 	0.11387	0.47133	0.27833	-0.016
Mof_C 	C 	0.07322	0.47247	0.29723	0.009
Mof_H 	H 	0.08117	0.48933	0.36663	-0.041
Mof_C 	C 	0.04278	0.45951	0.24973	-0.143
Mof_C 	C 	0.03055	0.43316	0.14593	-0.082
Mof_C 	C 	0.04964	0.42147	0.10063	-0.068
Mof_H 	H 	0.04127	0.40353	0.03773	0.059
Mof_C 	C 	0.02429	0.47416	0.31153	0.423
Mof_K 	K 	0.82869	0.75422	0.92567	3.329
Mof_Pr	Pr	0.82811	0.67623	0.61762	2.493
Mof_S 	S 	0.84837	0.75861	0.55901	0.633
Mof_S 	S 	0.65779	0.74714	0.40368	0.688
Mof_O 	O 	0.828	0.69643	0.35727	-0.766
Mof_O 	O 	0.82497	0.71221	0.12087	-0.927
Mof_O 	O 	0.84069	0.73126	0.65927	-0.865
Mof_O 	O 	0.85469	0.78595	0.65827	-0.766
Mof_O 	O 	0.87208	0.76432	0.44517	-0.696
Mof_O 	O 	0.69156	0.81269	0.78767	-0.567
Mof_O 	O 	0.67545	0.81515	0.55047	-0.752
Mof_O 	O 	0.63721	0.74257	0.53477	-0.636
Mof_O 	O 	0.65837	0.76932	0.28877	-0.615
Mof_O 	O 	0.65277	0.71859	0.33337	-0.345
Mof_C 	C 	0.80386	0.72867	0.32407	-0.215
Mof_C 	C 	0.81273	0.74771	0.45647	-0.153
Mof_C 	C 	0.79515	0.76123	0.50517	-0.015
Mof_H 	H 	0.80153	0.77407	0.59317	-0.099
Mof_C 	C 	0.76779	0.75596	0.42417	-0.057
Mof_C 	C 	0.76012	0.73807	0.28947	-0.076
Mof_H 	H 	0.74273	0.73497	0.23137	0.01
Mof_C 	C 	0.778	0.72465	0.23817	-0.099
Mof_H 	H 	0.77253	0.71297	0.14617	-0.053
Mof_C 	C 	0.82026	0.71169	0.26597	0.53
Mof_C 	C 	0.74791	0.76895	0.47917	0.004
Mof_C 	C 	0.75958	0.79477	0.57917	-0.127
Mof_H 	H 	0.78053	0.80467	0.61167	-0.017
Mof_C 	C 	0.73988	0.80581	0.63057	0.006
Mof_H 	H 	0.74783	0.82267	0.69997	-0.041
Mof_C 	C 	0.70944	0.79285	0.58307	-0.14
Mof_C 	C 	0.69721	0.7665	0.47927	-0.09
Mof_C 	C 	0.7163	0.75481	0.43397	-0.062
Mof_H 	H 	0.70793	0.73687	0.37107	0.056
Mof_C 	C 	0.69095	0.8075	0.64487	0.422
Mof_K 	K 	0.59219	0.50464	0.259	3.328
Mof_Pr	Pr	0.51478	0.50522	0.95095	2.505
Mof_S 	S 	0.5769	0.48496	0.89234	0.633
Mof_S 	S 	0.75601	0.67554	0.73701	0.686
Mof_O 	O 	0.53509	0.50533	0.6906	-0.767
Mof_O 	O 	0.5539	0.50836	0.4542	-0.93
Mof_O 	O 	0.55723	0.49264	0.9926	-0.862
Mof_O 	O 	0.59792	0.47864	0.9916	-0.761
Mof_O 	O 	0.5589	0.46125	0.7785	-0.697
Mof_O 	O 	0.78779	0.64177	0.121	-0.567
Mof_O 	O 	0.80636	0.65788	0.8838	-0.753
Mof_O 	O 	0.77202	0.69612	0.8681	-0.635
Mof_O 	O 	0.77761	0.67496	0.6221	-0.615
Mof_O 	O 	0.73248	0.68056	0.6667	-0.345
Mof_C 	C 	0.59147	0.52947	0.6574	-0.216
Mof_C 	C 	0.60164	0.5206	0.7898	-0.152
Mof_C 	C 	0.63274	0.53818	0.8385	-0.015
Mof_H 	H 	0.6392	0.5318	0.9265	-0.098
Mof_C 	C 	0.65483	0.56554	0.7575	-0.059
Mof_C 	C 	0.64461	0.57321	0.6228	-0.076
Mof_H 	H 	0.6589	0.5906	0.5647	0.009
Mof_C 	C 	0.61331	0.55533	0.5715	-0.099
Mof_H 	H 	0.6071	0.5608	0.4795	-0.054
Mof_C 	C 	0.55809	0.51307	0.5993	0.531
Mof_C 	C 	0.6877	0.58542	0.8125	0.008
Mof_C 	C 	0.70185	0.57375	0.9125	-0.135
Mof_H 	H 	0.6908	0.5528	0.945	-0.012
Mof_C 	C 	0.73259	0.59345	0.9639	0.021
Mof_H 	H 	0.7415	0.5855	0.0333	-0.049
Mof_C 	C 	0.75007	0.62389	0.9164	-0.146
Mof_C 	C 	0.73595	0.63612	0.8126	-0.087
Mof_C 	C 	0.70517	0.61703	0.7673	-0.066
Mof_H 	H 	0.6956	0.6254	0.7044	0.057
Mof_C 	C 	0.78321	0.64238	0.9782	0.424
Mof_K 	K 	0.25886	0.83797	0.59233	3.358
Mof_Pr	Pr	0.18145	0.83855	0.28428	2.495
Mof_S 	S 	0.24357	0.81829	0.22567	0.634
Mof_S 	S 	0.42268	0.00887	0.07034	0.672
Mof_O 	O 	0.20176	0.83866	0.02393	-0.763
Mof_O 	O 	0.22057	0.84169	0.78753	-0.932
Mof_O 	O 	0.2239	0.82597	0.32593	-0.867
Mof_O 	O 	0.26459	0.81197	0.32493	-0.768
Mof_O 	O 	0.22557	0.79458	0.11183	-0.698
Mof_O 	O 	0.45446	0.9751	0.45433	-0.561
Mof_O 	O 	0.47303	0.99121	0.21713	-0.75
Mof_O 	O 	0.43869	0.02945	0.20143	-0.633
Mof_O 	O 	0.44428	0.00829	0.95543	-0.61
Mof_O 	O 	0.39915	0.01389	3e-05	-0.346
Mof_C 	C 	0.25814	0.8628	0.99073	-0.214
Mof_C 	C 	0.26831	0.85393	0.12313	-0.156
Mof_C 	C 	0.29941	0.87151	0.17183	-0.013
Mof_H 	H 	0.30587	0.86513	0.25983	-0.101
Mof_C 	C 	0.3215	0.89887	0.09083	-0.063
Mof_C 	C 	0.31128	0.90654	0.95613	-0.07
Mof_H 	H 	0.32557	0.92393	0.89803	0.008
Mof_C 	C 	0.27998	0.88866	0.90483	-0.104
Mof_H 	H 	0.27377	0.89413	0.81283	-0.053
Mof_C 	C 	0.22476	0.8464	0.93263	0.528
Mof_C 	C 	0.35437	0.91875	0.14583	0.007
Mof_C 	C 	0.36852	0.90708	0.24583	-0.13
Mof_H 	H 	0.35747	0.88613	0.27833	-0.016
Mof_C 	C 	0.39926	0.92678	0.29723	0.009
Mof_H 	H 	0.40817	0.91883	0.36663	-0.041
Mof_C 	C 	0.41674	0.95722	0.24973	-0.143
Mof_C 	C 	0.40262	0.96945	0.14593	-0.082
Mof_C 	C 	0.37184	0.95036	0.10063	-0.068
Mof_H 	H 	0.36227	0.95873	0.03773	0.059
Mof_C 	C 	0.44988	0.97571	0.31153	0.423
Mof_K 	K 	0.92552	0.17131	0.92567	3.324
Mof_Pr	Pr	0.84811	0.17189	0.61762	2.493
Mof_S 	S 	0.91023	0.15163	0.55901	0.635
Mof_S 	S 	0.08934	0.34221	0.40368	0.686
Mof_O 	O 	0.86842	0.172	0.35727	-0.765
Mof_O 	O 	0.88723	0.17503	0.12087	-0.926
Mof_O 	O 	0.89056	0.15931	0.65927	-0.864
Mof_O 	O 	0.93125	0.14531	0.65827	-0.766
Mof_O 	O 	0.89223	0.12792	0.44517	-0.697
Mof_O 	O 	0.12112	0.30844	0.78767	-0.567
Mof_O 	O 	0.13969	0.32455	0.55047	-0.752
Mof_O 	O 	0.10535	0.36279	0.53477	-0.636
Mof_O 	O 	0.11094	0.34163	0.28877	-0.614
Mof_O 	O 	0.06581	0.34723	0.33337	-0.344
Mof_C 	C 	0.9248	0.19614	0.32407	-0.212
Mof_C 	C 	0.93497	0.18727	0.45647	-0.156
Mof_C 	C 	0.96607	0.20485	0.50517	-0.009
Mof_H 	H 	0.97253	0.19847	0.59317	-0.103
Mof_C 	C 	0.98816	0.23221	0.42417	-0.069
Mof_C 	C 	0.97794	0.23988	0.28947	-0.069
Mof_H 	H 	0.99223	0.25727	0.23137	0.006
Mof_C 	C 	0.94664	0.222	0.23817	-0.104
Mof_H 	H 	0.94043	0.22747	0.14617	-0.051
Mof_C 	C 	0.89142	0.17974	0.26597	0.529
Mof_C 	C 	0.02103	0.25209	0.47917	0.016
Mof_C 	C 	0.03518	0.24042	0.57917	-0.134
Mof_H 	H 	0.02413	0.21947	0.61167	-0.012
Mof_C 	C 	0.06592	0.26012	0.63057	0.012
Mof_H 	H 	0.07483	0.25217	0.69997	-0.042
Mof_C 	C 	0.0834	0.29056	0.58307	-0.143
Mof_C 	C 	0.06928	0.30279	0.47927	-0.086
Mof_C 	C 	0.0385	0.2837	0.43397	-0.069
Mof_H 	H 	0.02893	0.29207	0.37107	0.06
Mof_C 	C 	0.11654	0.30905	0.64487	0.423
_end
