data_functionalizedCrystal
_audit_creation_method	'EQeq! by Chris Wilmer'
_symmetry_space_group_name_H-M	'P1'
_symmetry_Int_Tables_number	1
_symmetry_cell_setting	triclinic
loop_
_symmetry_equiv_pos_as_xyz
  x,y,z
_cell_length_a	14.9658
_cell_length_b	18.5746
_cell_length_c	32.5237
_cell_angle_alpha	81.3686
_cell_angle_beta	89.5249
_cell_angle_gamma	68.9668
loop_
_atom_site_label
_atom_site_type_symbol
_atom_site_fract_x
_atom_site_fract_y
_atom_site_fract_z
_atom_site_charge
Mof_C 	C 	0.9901	0.4374	0.0462	0.064
Mof_H 	H 	0.9883	0.479	0.0604	-0.008
Mof_C 	C 	0.9102	0.4452	0.0218	-0.114
Mof_H 	H 	0.8543	0.4912	0.0195	0.067
Mof_C 	C 	0.9139	0.3847	0.0009	0.049
Mof_C 	C 	0.9946	0.3185	0.0053	-0.113
Mof_H 	H 	0.9978	0.2761	0.9915	0.078
Mof_C 	C 	0.0711	0.3144	0.0299	0.061
Mof_H 	H 	0.1271	0.2685	0.0328	-0.01
Mof_C 	C 	0.8324	0.391	0.9728	0.09
Mof_C 	C 	0.5565	0.0857	0.7828	0.053
Mof_C 	C 	0.7775	0.3522	0.9192	0.112
Mof_C 	C 	0.8186	0.1463	0.2659	0.052
Mof_C 	C 	0.6808	0.455	0.9463	0.093
Mof_C 	C 	0.081	0.2013	0.2018	0.058
Mof_C 	C 	0.5891	0.5227	0.9444	0.051
Mof_C 	C 	0.5613	0.5628	0.9775	-0.122
Mof_H 	H 	0.5998	0.5469	0.0027	0.078
Mof_C 	C 	0.4759	0.6266	0.9735	0.075
Mof_H 	H 	0.4562	0.6537	0.9965	-0.007
Mof_C 	C 	0.4485	0.6132	0.9063	0.07
Mof_H 	H 	0.4097	0.6312	0.8811	-0.017
Mof_C 	C 	0.5313	0.5485	0.9083	-0.119
Mof_H 	H 	0.5486	0.5217	0.8851	0.084
Mof_C 	C 	0.2546	0.8711	0.8582	0.066
Mof_H 	H 	0.1943	0.8649	0.8574	-0
Mof_C 	C 	0.2692	0.9287	0.8297	-0.118
Mof_H 	H 	0.2203	0.9612	0.8095	0.088
Mof_C 	C 	0.3576	0.9374	0.8314	0.048
Mof_C 	C 	0.4259	0.8889	0.8602	-0.127
Mof_H 	H 	0.4868	0.8938	0.8619	0.084
Mof_C 	C 	0.4061	0.8323	0.887	0.072
Mof_H 	H 	0.4551	0.7977	0.9066	-0.001
Mof_C 	C 	0.3747	0.0005	0.8016	0.09
Mof_C 	C 	0.3276	0.0932	0.7451	0.102
Mof_C 	C 	0.2586	0.1364	0.7091	0.056
Mof_C 	C 	0.2793	0.1889	0.6793	-0.119
Mof_H 	H 	0.3378	0.1975	0.6812	0.089
Mof_C 	C 	0.2141	0.2282	0.6468	0.075
Mof_H 	H 	0.2292	0.2641	0.6266	-0.005
Mof_C 	C 	0.1125	0.1664	0.6702	0.07
Mof_H 	H 	0.0549	0.157	0.6666	-0.013
Mof_C 	C 	0.1726	0.125	0.7041	-0.121
Mof_H 	H 	0.1559	0.0892	0.7237	0.076
Mof_C 	C 	0.4661	0.0702	0.7805	0.107
Mof_C 	C 	0.6309	0.039	0.8112	-0.111
Mof_H 	H 	0.6235	0.9985	0.8309	0.076
Mof_C 	C 	0.7166	0.0527	0.8104	0.061
Mof_H 	H 	0.7682	0.0204	0.8295	-0.011
Mof_C 	C 	0.6563	0.1552	0.7564	0.066
Mof_H 	H 	0.6655	0.1957	0.7374	-0.013
Mof_C 	C 	0.569	0.1457	0.7549	-0.115
Mof_H 	H 	0.5191	0.179	0.7354	0.079
Mof_C 	C 	0.7489	0.2631	0.8259	0.072
Mof_H 	H 	0.7039	0.2737	0.8032	-0.017
Mof_C 	C 	0.7289	0.3126	0.8552	-0.114
Mof_H 	H 	0.6698	0.3556	0.8531	0.082
Mof_C 	C 	0.7951	0.2997	0.8877	0.06
Mof_C 	C 	0.8793	0.2357	0.8897	-0.112
Mof_H 	H 	0.927	0.2256	0.9111	0.083
Mof_C 	C 	0.8933	0.1867	0.8606	0.066
Mof_H 	H 	0.9499	0.1413	0.8631	-0.011
Mof_C 	C 	0.0886	0.4106	0.5478	0.072
Mof_H 	H 	0.0473	0.4445	0.5648	-0.01
Mof_C 	C 	0.1597	0.2886	0.5314	0.067
Mof_H 	H 	0.1694	0.2346	0.5367	-0.011
Mof_C 	C 	0.2078	0.3149	0.4997	-0.114
Mof_H 	H 	0.2502	0.2797	0.4837	0.081
Mof_C 	C 	0.1928	0.394	0.4919	0.053
Mof_C 	C 	0.1343	0.442	0.5166	-0.121
Mof_H 	H 	0.1249	0.496	0.5126	0.074
Mof_C 	C 	0.243	0.4236	0.4574	0.104
Mof_C 	C 	0.2981	0.5149	0.4265	0.103
Mof_C 	C 	0.3196	0.4068	0.3979	0.107
Mof_C 	C 	0.3579	0.358	0.3651	0.054
Mof_C 	C 	0.3908	0.3862	0.3288	-0.117
Mof_H 	H 	0.3889	0.4384	0.3239	0.082
Mof_C 	C 	0.4263	0.3377	0.2999	0.068
Mof_H 	H 	0.4482	0.3578	0.2748	-0.013
Mof_C 	C 	0.4009	0.2355	0.3414	0.065
Mof_H 	H 	0.4063	0.1823	0.3462	-0.007
Mof_C 	C 	0.3632	0.2802	0.3708	-0.117
Mof_H 	H 	0.3404	0.2591	0.3953	0.08
Mof_C 	C 	0.6852	0.1103	0.2869	0.066
Mof_H 	H 	0.6609	0.0751	0.3032	-0.007
Mof_C 	C 	0.7818	0.0959	0.2903	-0.114
Mof_H 	H 	0.8229	0.0522	0.3089	0.079
Mof_C 	C 	0.7549	0.2098	0.2404	-0.114
Mof_H 	H 	0.7777	0.2455	0.2237	0.08
Mof_C 	C 	0.6588	0.2218	0.2387	0.059
Mof_H 	H 	0.6163	0.2661	0.221	-0.012
Mof_C 	C 	0.9231	0.131	0.2664	0.105
Mof_C 	C 	0.0454	0.1558	0.235	0.104
Mof_C 	C 	0.0745	0.0601	0.2901	0.092
Mof_C 	C 	0.0188	0.2702	0.18	-0.115
Mof_H 	H 	0.9533	0.2899	0.1865	0.091
Mof_C 	C 	0.0531	0.3104	0.1483	0.073
Mof_H 	H 	0.0101	0.3581	0.1333	-0.007
Mof_C 	C 	0.2054	0.2178	0.1598	0.07
Mof_H 	H 	0.2706	0.1995	0.1527	-0.009
Mof_C 	C 	0.1769	0.1744	0.1921	-0.123
Mof_H 	H 	0.2216	0.1277	0.2071	0.079
Mof_C 	C 	0.1451	0.0007	0.3205	0.038
Mof_C 	C 	0.2421	0.9848	0.3169	-0.111
Mof_H 	H 	0.264	0.0102	0.2936	0.085
Mof_C 	C 	0.3073	0.9324	0.3467	0.061
Mof_H 	H 	0.3738	0.9214	0.3435	0
Mof_C 	C 	0.1169	0.9614	0.3546	-0.105
Mof_H 	H 	0.051	0.9691	0.3576	0.081
Mof_C 	C 	0.1851	0.9108	0.384	0.062
Mof_H 	H 	0.1648	0.8852	0.4076	0
Mof_C 	C 	0.3037	0.6977	0.4591	0.067
Mof_H 	H 	0.2852	0.7249	0.4822	-0.005
Mof_C 	C 	0.2855	0.6297	0.4591	-0.125
Mof_H 	H 	0.2538	0.6115	0.4814	0.078
Mof_C 	C 	0.3137	0.5891	0.4265	0.053
Mof_C 	C 	0.3582	0.6183	0.3943	-0.121
Mof_H 	H 	0.3779	0.5919	0.3711	0.084
Mof_C 	C 	0.3733	0.6863	0.3965	0.074
Mof_H 	H 	0.4047	0.7057	0.3744	-0.018
Mof_I 	I 	0.33428	0.26725	0.05966	-0.373
Mof_I 	I 	0.44371	0.07104	0.28353	-0.372
Mof_I 	I 	0.16649	0.7061	0.90003	-0.378
Mof_I 	I 	0.16132	0.47519	0.12244	-0.352
Mof_I 	I 	0.26733	0.80418	0.99893	-0.362
Mof_I 	I 	0.86324	0.20351	0.71203	-0.398
Mof_I 	I 	0.40768	0.28288	0.19027	-0.41
Mof_I 	I 	0.54289	0.81172	0.41267	-0.385
Mof_I 	I 	0.29824	0.88314	0.49428	-0.356
Mof_I 	I 	0.91937	0.39913	0.63397	-0.355
Mof_N 	N 	0.6924	0.4089	0.91785	-0.136
Mof_N 	N 	0.8501	0.3405	0.94604	-0.135
Mof_N 	N 	0.7475	0.449	0.97572	-0.146
Mof_N 	N 	0.4208	0.6514	0.93868	-0.275
Mof_N 	N 	0.0696	0.373	0.05026	-0.268
Mof_N 	N 	0.83	0.2007	0.8285	-0.273
Mof_N 	N 	0.1111	0.0972	0.25985	-0.142
Mof_N 	N 	0.9511	0.177	0.23742	-0.135
Mof_N 	N 	0.9814	0.0728	0.29389	-0.139
Mof_N 	N 	0.2789	0.8964	0.38051	-0.271
Mof_N 	N 	0.6233	0.1722	0.26165	-0.271
Mof_N 	N 	0.1448	0.2844	0.13804	-0.267
Mof_N 	N 	0.4037	0.1134	0.74882	-0.135
Mof_N 	N 	0.3096	0.0362	0.77012	-0.141
Mof_N 	N 	0.4536	0.0151	0.80845	-0.141
Mof_N 	N 	0.7279	0.1103	0.78335	-0.27
Mof_N 	N 	0.3216	0.8239	0.88675	-0.272
Mof_N 	N 	0.1299	0.219	0.6419	-0.277
Mof_N 	N 	0.2526	0.4917	0.4583	-0.144
Mof_N 	N 	0.3324	0.475	0.39536	-0.134
Mof_N 	N 	0.2759	0.3781	0.42849	-0.139
Mof_N 	N 	0.0999	0.3361	0.5549	-0.275
Mof_N 	N 	0.4314	0.263	0.30535	-0.272
Mof_N 	N 	0.3461	0.7268	0.4281	-0.276
Mof_Zn	Zn	0.18473	0.35343	0.09111	1.165
Mof_Zn	Zn	0.29307	0.74498	0.93217	1.164
Mof_Zn	Zn	0.85671	0.12913	0.78341	1.162
Mof_Zn	Zn	0.37117	0.82829	0.42928	1.164
Mof_Zn	Zn	0.47778	0.19579	0.25879	1.164
Mof_Zn	Zn	0.02543	0.289	0.59819	1.162
Mof_I 	I 	0.9754	0.1959	0.55802	-0.285
Mof_I 	I 	0.9979	0.00163	0.81154	-0.279
Mof_I 	I 	0.9576	0.2127	0.5646	-0.054
Mof_I 	I 	0.9714	0.0072	0.8117	-0.072
Mof_C 	C 	0.0099	0.5626	0.9538	0.065
Mof_H 	H 	0.0117	0.521	0.9396	-0.007
Mof_C 	C 	0.0898	0.5548	0.9782	-0.113
Mof_H 	H 	0.1457	0.5088	0.9805	0.068
Mof_C 	C 	0.0861	0.6153	0.9991	0.05
Mof_C 	C 	0.0054	0.6815	0.9947	-0.112
Mof_H 	H 	0.0022	0.7239	0.0085	0.079
Mof_C 	C 	0.9289	0.6856	0.9701	0.062
Mof_H 	H 	0.8729	0.7315	0.9672	-0.01
Mof_C 	C 	0.1676	0.609	0.0272	0.09
Mof_C 	C 	0.4435	0.9143	0.2172	0.053
Mof_C 	C 	0.2225	0.6478	0.0808	0.112
Mof_C 	C 	0.1814	0.8537	0.7341	0.052
Mof_C 	C 	0.3192	0.545	0.0537	0.093
Mof_C 	C 	0.919	0.7987	0.7982	0.058
Mof_C 	C 	0.4109	0.4773	0.0556	0.051
Mof_C 	C 	0.4387	0.4372	0.0225	-0.122
Mof_H 	H 	0.4002	0.4531	0.9973	0.078
Mof_C 	C 	0.5241	0.3734	0.0265	0.075
Mof_H 	H 	0.5438	0.3463	0.0035	-0.007
Mof_C 	C 	0.5515	0.3868	0.0937	0.07
Mof_H 	H 	0.5903	0.3688	0.1189	-0.017
Mof_C 	C 	0.4687	0.4515	0.0917	-0.119
Mof_H 	H 	0.4514	0.4783	0.1149	0.084
Mof_C 	C 	0.7454	0.1289	0.1418	0.066
Mof_H 	H 	0.8057	0.1351	0.1426	-0
Mof_C 	C 	0.7308	0.0713	0.1703	-0.118
Mof_H 	H 	0.7797	0.0388	0.1905	0.088
Mof_C 	C 	0.6424	0.0626	0.1686	0.048
Mof_C 	C 	0.5741	0.1111	0.1398	-0.127
Mof_H 	H 	0.5132	0.1062	0.1381	0.084
Mof_C 	C 	0.5939	0.1677	0.113	0.072
Mof_H 	H 	0.5449	0.2023	0.0934	-0.001
Mof_C 	C 	0.6253	0.9995	0.1984	0.09
Mof_C 	C 	0.6724	0.9068	0.2549	0.102
Mof_C 	C 	0.7414	0.8636	0.2909	0.056
Mof_C 	C 	0.7207	0.8111	0.3207	-0.119
Mof_H 	H 	0.6622	0.8025	0.3188	0.089
Mof_C 	C 	0.7859	0.7718	0.3532	0.075
Mof_H 	H 	0.7708	0.7359	0.3734	-0.005
Mof_C 	C 	0.8875	0.8336	0.3298	0.07
Mof_H 	H 	0.9451	0.843	0.3334	-0.013
Mof_C 	C 	0.8274	0.875	0.2959	-0.121
Mof_H 	H 	0.8441	0.9108	0.2763	0.076
Mof_C 	C 	0.5339	0.9298	0.2195	0.107
Mof_C 	C 	0.3691	0.961	0.1888	-0.111
Mof_H 	H 	0.3765	0.0015	0.1691	0.076
Mof_C 	C 	0.2834	0.9473	0.1896	0.061
Mof_H 	H 	0.2318	0.9796	0.1705	-0.011
Mof_C 	C 	0.3437	0.8448	0.2436	0.066
Mof_H 	H 	0.3345	0.8043	0.2626	-0.013
Mof_C 	C 	0.431	0.8543	0.2451	-0.115
Mof_H 	H 	0.4809	0.821	0.2646	0.079
Mof_C 	C 	0.2511	0.7369	0.1741	0.072
Mof_H 	H 	0.2961	0.7263	0.1968	-0.017
Mof_C 	C 	0.2711	0.6874	0.1448	-0.114
Mof_H 	H 	0.3302	0.6444	0.1469	0.082
Mof_C 	C 	0.2049	0.7003	0.1123	0.06
Mof_C 	C 	0.1207	0.7643	0.1103	-0.112
Mof_H 	H 	0.073	0.7744	0.0889	0.083
Mof_C 	C 	0.1067	0.8133	0.1394	0.066
Mof_H 	H 	0.0501	0.8587	0.1369	-0.011
Mof_C 	C 	0.9114	0.5894	0.4522	0.072
Mof_H 	H 	0.9527	0.5555	0.4352	-0.01
Mof_C 	C 	0.8403	0.7114	0.4686	0.067
Mof_H 	H 	0.8306	0.7654	0.4633	-0.011
Mof_C 	C 	0.7922	0.6851	0.5003	-0.114
Mof_H 	H 	0.7498	0.7203	0.5163	0.081
Mof_C 	C 	0.8072	0.606	0.5081	0.053
Mof_C 	C 	0.8657	0.558	0.4834	-0.121
Mof_H 	H 	0.8751	0.504	0.4874	0.074
Mof_C 	C 	0.757	0.5764	0.5426	0.104
Mof_C 	C 	0.7019	0.4851	0.5735	0.103
Mof_C 	C 	0.6804	0.5932	0.6021	0.107
Mof_C 	C 	0.6421	0.642	0.6349	0.054
Mof_C 	C 	0.6092	0.6138	0.6712	-0.117
Mof_H 	H 	0.6111	0.5616	0.6761	0.082
Mof_C 	C 	0.5737	0.6623	0.7001	0.068
Mof_H 	H 	0.5518	0.6422	0.7252	-0.013
Mof_C 	C 	0.5991	0.7645	0.6586	0.065
Mof_H 	H 	0.5937	0.8177	0.6538	-0.007
Mof_C 	C 	0.6368	0.7198	0.6292	-0.117
Mof_H 	H 	0.6596	0.7409	0.6047	0.08
Mof_C 	C 	0.3148	0.8897	0.7131	0.066
Mof_H 	H 	0.3391	0.9249	0.6968	-0.007
Mof_C 	C 	0.2182	0.9041	0.7097	-0.114
Mof_H 	H 	0.1771	0.9478	0.6911	0.079
Mof_C 	C 	0.2451	0.7902	0.7596	-0.114
Mof_H 	H 	0.2223	0.7545	0.7763	0.08
Mof_C 	C 	0.3412	0.7782	0.7613	0.059
Mof_H 	H 	0.3837	0.7339	0.779	-0.012
Mof_C 	C 	0.0769	0.869	0.7336	0.105
Mof_C 	C 	0.9546	0.8442	0.765	0.104
Mof_C 	C 	0.9255	0.9399	0.7099	0.092
Mof_C 	C 	0.9812	0.7298	0.82	-0.115
Mof_H 	H 	0.0467	0.7101	0.8135	0.091
Mof_C 	C 	0.9469	0.6896	0.8517	0.073
Mof_H 	H 	0.9899	0.6419	0.8667	-0.007
Mof_C 	C 	0.7946	0.7822	0.8402	0.07
Mof_H 	H 	0.7294	0.8005	0.8473	-0.009
Mof_C 	C 	0.8231	0.8256	0.8079	-0.123
Mof_H 	H 	0.7784	0.8723	0.7929	0.079
Mof_C 	C 	0.8549	0.9993	0.6795	0.038
Mof_C 	C 	0.7579	0.0152	0.6831	-0.111
Mof_H 	H 	0.736	0.9898	0.7064	0.085
Mof_C 	C 	0.6927	0.0676	0.6533	0.061
Mof_H 	H 	0.6262	0.0786	0.6565	0
Mof_C 	C 	0.8831	0.0386	0.6454	-0.105
Mof_H 	H 	0.949	0.0309	0.6424	0.081
Mof_C 	C 	0.8149	0.0892	0.616	0.062
Mof_H 	H 	0.8352	0.1148	0.5924	0
Mof_C 	C 	0.6963	0.3023	0.5409	0.067
Mof_H 	H 	0.7148	0.2751	0.5178	-0.005
Mof_C 	C 	0.7145	0.3703	0.5409	-0.125
Mof_H 	H 	0.7462	0.3885	0.5186	0.078
Mof_C 	C 	0.6863	0.4109	0.5735	0.053
Mof_C 	C 	0.6418	0.3817	0.6057	-0.121
Mof_H 	H 	0.6221	0.4081	0.6289	0.084
Mof_C 	C 	0.6267	0.3137	0.6035	0.074
Mof_H 	H 	0.5953	0.2943	0.6256	-0.018
Mof_I 	I 	0.66572	0.73275	0.94034	-0.373
Mof_I 	I 	0.55629	0.92896	0.71647	-0.372
Mof_I 	I 	0.83351	0.2939	0.09997	-0.378
Mof_I 	I 	0.83868	0.52481	0.87756	-0.352
Mof_I 	I 	0.73267	0.19582	0.00107	-0.362
Mof_I 	I 	0.13676	0.79649	0.28797	-0.398
Mof_I 	I 	0.59232	0.71712	0.80973	-0.41
Mof_I 	I 	0.45711	0.18828	0.58733	-0.385
Mof_I 	I 	0.70176	0.11686	0.50572	-0.356
Mof_I 	I 	0.08063	0.60087	0.36603	-0.355
Mof_N 	N 	0.3076	0.5911	0.08215	-0.136
Mof_N 	N 	0.1499	0.6595	0.05396	-0.135
Mof_N 	N 	0.2525	0.551	0.02428	-0.146
Mof_N 	N 	0.5792	0.3486	0.06132	-0.275
Mof_N 	N 	0.9304	0.627	0.94974	-0.268
Mof_N 	N 	0.17	0.7993	0.1715	-0.273
Mof_N 	N 	0.8889	0.9028	0.74015	-0.142
Mof_N 	N 	0.0489	0.823	0.76258	-0.135
Mof_N 	N 	0.0186	0.9272	0.70611	-0.139
Mof_N 	N 	0.7211	0.1036	0.61949	-0.271
Mof_N 	N 	0.3767	0.8278	0.73835	-0.271
Mof_N 	N 	0.8552	0.7156	0.86196	-0.267
Mof_N 	N 	0.5963	0.8866	0.25118	-0.135
Mof_N 	N 	0.6904	0.9638	0.22988	-0.141
Mof_N 	N 	0.5464	0.9849	0.19155	-0.141
Mof_N 	N 	0.2721	0.8897	0.21665	-0.27
Mof_N 	N 	0.6784	0.1761	0.11325	-0.272
Mof_N 	N 	0.8701	0.781	0.3581	-0.277
Mof_N 	N 	0.7474	0.5083	0.5417	-0.144
Mof_N 	N 	0.6676	0.525	0.60464	-0.134
Mof_N 	N 	0.7241	0.6219	0.57151	-0.139
Mof_N 	N 	0.9001	0.6639	0.4451	-0.275
Mof_N 	N 	0.5686	0.737	0.69465	-0.272
Mof_N 	N 	0.6539	0.2732	0.5719	-0.276
Mof_Zn	Zn	0.81527	0.64657	0.90889	1.165
Mof_Zn	Zn	0.70693	0.25502	0.06783	1.164
Mof_Zn	Zn	0.14329	0.87087	0.21659	1.162
Mof_Zn	Zn	0.62883	0.17171	0.57072	1.164
Mof_Zn	Zn	0.52222	0.80421	0.74121	1.164
Mof_Zn	Zn	0.97457	0.711	0.40181	1.162
Mof_I 	I 	0.0246	0.8041	0.44198	-0.285
Mof_I 	I 	0.0021	0.99837	0.18846	-0.279
Mof_I 	I 	0.0424	0.7873	0.4354	-0.054
Mof_I 	I 	0.0286	0.9928	0.1883	-0.072
_end
