data_functionalizedCrystal
_audit_creation_method	'EQeq! by Chris Wilmer'
_symmetry_space_group_name_H-M	'P1'
_symmetry_Int_Tables_number	1
_symmetry_cell_setting	triclinic
loop_
_symmetry_equiv_pos_as_xyz
  x,y,z
_cell_length_a	12.487
_cell_length_b	12.487
_cell_length_c	9.776
_cell_angle_alpha	90
_cell_angle_beta	90
_cell_angle_gamma	90
loop_
_atom_site_label
_atom_site_type_symbol
_atom_site_fract_x
_atom_site_fract_y
_atom_site_fract_z
_atom_site_charge
Mof_N 	N 	0.941	0.5631	0.251	2.662
Mof_H 	H 	0.9724	0.5793	0.1626	-0.14
Mof_N 	N 	0.6706	0.8564	0.101	-0.403
Mof_C 	C 	0.7523	0.8082	0.026	1.201
Mof_H 	H 	0.7746	0.8379	0.9439	-0.602
Mof_C 	C 	0.8007	0.7156	0.075	-0.892
Mof_H 	H 	0.8554	0.6833	0.0256	0.804
Mof_C 	C 	0.7674	0.6712	0.199	0.92
Mof_C 	C 	0.6857	0.7194	0.273	-0.816
Mof_H 	H 	0.6634	0.6897	0.3553	0.092
Mof_C 	C 	0.6373	0.812	0.224	0.187
Mof_H 	H 	0.5826	0.8443	0.2736	-0.171
Mof_C 	C 	0.812	0.576	0.242	-1.109
Mof_H 	H 	0.7869	0.5198	0.181	0.496
Mof_H 	H 	0.7838	0.5601	0.3318	0.41
Mof_C 	C 	0.985	0.64	0.358	-23.106
Mof_H 	H 	0.9301	0.691	0.3873	7.303
Mof_C 	C 	0.079	0.697	0.305	60.379
Mof_H 	H 	0.1032	0.7403	0.3619	-22.972
Mof_H 	H 	0.0606	0.7337	0.2221	-17.623
Mof_H 	H 	0.1354	0.6462	0.2861	-17.118
Mof_C 	C 	0.017	0.566	0.476	8.314
Mof_O 	O 	0.0525	0.6269	0.577	-1.884
Mof_O 	O 	0.0207	0.4747	0.469	-2.901
Mof_Zn	Zn	0.5902	0.9842	0.0279	1.309
Mof_N 	N 	0.059	0.4369	0.751	2.676
Mof_H 	H 	0.0276	0.4207	0.6626	-0.208
Mof_N 	N 	0.3294	0.1436	0.601	-0.35
Mof_C 	C 	0.2477	0.1918	0.526	0.334
Mof_H 	H 	0.2254	0.1621	0.4439	-0.043
Mof_C 	C 	0.1993	0.2844	0.575	-0.372
Mof_H 	H 	0.1446	0.3167	0.5256	0.516
Mof_C 	C 	0.2326	0.3288	0.699	0.582
Mof_C 	C 	0.3143	0.2806	0.773	-0.586
Mof_H 	H 	0.3366	0.3103	0.8553	0.026
Mof_C 	C 	0.3627	0.188	0.724	0.107
Mof_H 	H 	0.4174	0.1557	0.7736	-0.227
Mof_C 	C 	0.188	0.424	0.742	-0.884
Mof_H 	H 	0.2131	0.4802	0.681	0.379
Mof_H 	H 	0.2162	0.4399	0.8318	0.329
Mof_C 	C 	0.015	0.36	0.858	-23.26
Mof_H 	H 	0.0699	0.309	0.8873	7.347
Mof_C 	C 	0.921	0.303	0.805	61.356
Mof_H 	H 	0.8968	0.2597	0.8619	-23.492
Mof_H 	H 	0.9394	0.2663	0.7221	-18.009
Mof_H 	H 	0.8646	0.3538	0.7861	-17.473
Mof_C 	C 	0.983	0.434	0.976	7.892
Mof_O 	O 	0.9475	0.3731	0.077	-1.508
Mof_O 	O 	0.9793	0.5253	0.969	-3.02
Mof_Zn	Zn	0.4098	0.0158	0.5279	1.124
Mof_N 	N 	0.4369	0.941	0.001	-0.818
Mof_H 	H 	0.4207	0.9724	0.9126	0.085
Mof_N 	N 	0.1436	0.6706	0.851	0.113
Mof_C 	C 	0.1918	0.7523	0.776	-0.224
Mof_H 	H 	0.1621	0.7746	0.6939	0.575
Mof_C 	C 	0.2844	0.8007	0.825	0.449
Mof_H 	H 	0.3167	0.8554	0.7756	-0.096
Mof_C 	C 	0.3288	0.7674	0.949	-0.517
Mof_C 	C 	0.2806	0.6857	0.023	1.443
Mof_H 	H 	0.3103	0.6634	0.1053	0.134
Mof_C 	C 	0.188	0.6373	0.974	-0.69
Mof_H 	H 	0.1557	0.5826	0.0236	0.955
Mof_C 	C 	0.424	0.812	0.992	-0.342
Mof_H 	H 	0.4802	0.7869	0.931	0.021
Mof_H 	H 	0.4399	0.7838	0.0818	0.351
Mof_C 	C 	0.36	0.985	0.108	6.825
Mof_H 	H 	0.309	0.9301	0.1373	-1.686
Mof_C 	C 	0.303	0.079	0.055	-17.651
Mof_H 	H 	0.2597	0.1032	0.1119	6.934
Mof_H 	H 	0.2663	0.0606	0.9721	5.021
Mof_H 	H 	0.3538	0.1354	0.0361	5.152
Mof_C 	C 	0.434	0.017	0.226	-2.066
Mof_O 	O 	0.3731	0.0525	0.327	0.126
Mof_O 	O 	0.5253	0.0207	0.219	0.205
Mof_Zn	Zn	0.0158	0.5902	0.7779	1.362
Mof_N 	N 	0.5631	0.059	0.501	-1.544
Mof_H 	H 	0.5793	0.0276	0.4126	0.206
Mof_N 	N 	0.8564	0.3294	0.351	-0.109
Mof_C 	C 	0.8082	0.2477	0.276	0.025
Mof_H 	H 	0.8379	0.2254	0.1939	0.512
Mof_C 	C 	0.7156	0.1993	0.325	0.035
Mof_H 	H 	0.6833	0.1446	0.2756	-0.003
Mof_C 	C 	0.6712	0.2326	0.449	0.14
Mof_C 	C 	0.7194	0.3143	0.523	0.097
Mof_H 	H 	0.6897	0.3366	0.6053	0.522
Mof_C 	C 	0.812	0.3627	0.474	0.615
Mof_H 	H 	0.8443	0.4174	0.5236	0.277
Mof_C 	C 	0.576	0.188	0.492	-0.023
Mof_H 	H 	0.5198	0.2131	0.431	0.042
Mof_H 	H 	0.5601	0.2162	0.5818	0.065
Mof_C 	C 	0.64	0.015	0.608	10.116
Mof_H 	H 	0.691	0.0699	0.6373	-2.948
Mof_C 	C 	0.697	0.921	0.555	-28.289
Mof_H 	H 	0.7403	0.8968	0.6119	10.987
Mof_H 	H 	0.7337	0.9394	0.4721	8.524
Mof_H 	H 	0.6462	0.8646	0.5361	8.112
Mof_C 	C 	0.566	0.983	0.726	-2.959
Mof_O 	O 	0.6269	0.9475	0.827	0.286
Mof_O 	O 	0.4747	0.9793	0.719	0.699
Mof_Zn	Zn	0.9842	0.4098	0.2779	1.378
_end
