data_functionalizedCrystal
_audit_creation_method	'EQeq! by Chris Wilmer'
_symmetry_space_group_name_H-M	'P1'
_symmetry_Int_Tables_number	1
_symmetry_cell_setting	triclinic
loop_
_symmetry_equiv_pos_as_xyz
  x,y,z
_cell_length_a	11.5377
_cell_length_b	20.7238
_cell_length_c	23.5844
_cell_angle_alpha	90
_cell_angle_beta	90
_cell_angle_gamma	90
loop_
_atom_site_label
_atom_site_type_symbol
_atom_site_fract_x
_atom_site_fract_y
_atom_site_fract_z
_atom_site_charge
Mof_Gd	Gd	0.58132	0.9643	0.26826	1.535
Mof_C 	C 	0.7558	0.9555	0.3838	0.379
Mof_N 	N 	0.861	0.9177	0.4685	-0.32
Mof_H 	H 	0.8596	0.9151	0.5062	0.105
Mof_H 	H 	0.9232	0.9399	0.4576	0.108
Mof_H 	H 	0.864	0.8782	0.4538	0.098
Mof_Gd	Gd	0.91644	0.97318	0.26563	1.535
Mof_C 	C 	0.7552	0.9508	0.4484	0.011
Mof_H 	H 	0.6865	0.9269	0.4609	0.007
Mof_N 	N 	0.3801	0.7544	0.2778	-0.332
Mof_H 	H 	0.3496	0.7183	0.2918	0.129
Mof_H 	H 	0.3391	0.7672	0.2479	0.112
Mof_H 	H 	0.3788	0.7851	0.3042	0.106
Mof_Gd	Gd	0.75622	0.87716	0.1522	1.44
Mof_C 	C 	0.7511	0.0192	0.4714	-0.402
Mof_H 	H 	0.818	0.0425	0.4573	0.123
Mof_H 	H 	0.6825	0.0403	0.4565	0.124
Mof_N 	N 	0.8968	0.6798	0.2056	-0.325
Mof_H 	H 	0.8666	0.7147	0.1893	0.126
Mof_H 	H 	0.8505	0.6667	0.2336	0.111
Mof_H 	H 	0.9036	0.6485	0.18	0.101
Mof_Gd	Gd	0.73558	0.06678	0.15727	1.467
Mof_C 	C 	0.7492	0.0246	0.5356	0.496
Mof_C 	C 	0.5545	0.8044	0.2364	0.358
Mof_C 	C 	0.5026	0.742	0.2602	0.022
Mof_H 	H 	0.5465	0.7306	0.2943	0.003
Mof_C 	C 	0.5087	0.686	0.2208	-0.396
Mof_H 	H 	0.5881	0.6814	0.2079	0.132
Mof_H 	H 	0.4613	0.6954	0.1878	0.121
Mof_C 	C 	0.4694	0.6218	0.2459	0.484
Mof_C 	C 	0.067	0.6363	0.2575	0.383
Mof_C 	C 	0.0162	0.6961	0.2297	-0.002
Mof_H 	H 	0.0666	0.708	0.1979	0.008
Mof_C 	C 	0.0088	0.7538	0.2694	-0.396
Mof_H 	H 	0.9583	0.7426	0.3007	0.122
Mof_H 	H 	0.0853	0.7617	0.2849	0.131
Mof_C 	C 	0.9652	0.8158	0.2435	0.496
Mof_O 	O 	0.7536	0.90511	0.25095	-0.667
Mof_H 	H 	0.7576	0.8665	0.2749	0.182
Mof_O 	O 	0.7434	0.0334	0.25634	-0.666
Mof_H 	H 	0.7412	0.0703	0.2823	0.178
Mof_O 	O 	0.8618	0.9754	0.16925	-0.687
Mof_H 	H 	0.9297	0.9786	0.1445	0.124
Mof_O 	O 	0.6258	0.9685	0.17074	-0.676
Mof_H 	H 	0.5561	0.9672	0.147	0.122
Mof_O 	O 	0.8531	0.9576	0.3598	-0.489
Mof_O 	O 	0.6592	0.9589	0.3608	-0.494
Mof_O 	O 	0.7447	0.0799	0.55682	-0.535
Mof_O 	O 	0.7542	0.9728	0.56317	-0.535
Mof_O 	O 	0.5134	0.8568	0.2559	-0.501
Mof_O 	O 	0.633	0.7985	0.2017	-0.469
Mof_O 	O 	0.4124	0.6243	0.2922	-0.508
Mof_O 	O 	0.4962	0.5714	0.2209	-0.534
Mof_O 	O 	0.0232	0.5833	0.243	-0.511
Mof_O 	O 	0.1498	0.6445	0.2887	-0.484
Mof_O 	O 	0.9941	0.8671	0.2668	-0.544
Mof_O 	O 	0.8975	0.8112	0.2017	-0.506
Mof_Gd	Gd	0.91868	0.0357	0.76826	1.535
Mof_C 	C 	0.7442	0.0445	0.8838	0.38
Mof_N 	N 	0.639	0.0823	0.9685	-0.321
Mof_H 	H 	0.6404	0.0849	0.0062	0.106
Mof_H 	H 	0.5768	0.0601	0.9576	0.107
Mof_H 	H 	0.636	0.1218	0.9538	0.098
Mof_Gd	Gd	0.58356	0.02682	0.76563	1.536
Mof_C 	C 	0.7448	0.0492	0.9484	0.008
Mof_H 	H 	0.8135	0.0731	0.9609	0.007
Mof_N 	N 	0.1199	0.2456	0.7778	-0.332
Mof_H 	H 	0.1504	0.2817	0.7918	0.129
Mof_H 	H 	0.1609	0.2328	0.7479	0.112
Mof_H 	H 	0.1212	0.2149	0.8042	0.105
Mof_Gd	Gd	0.74378	0.12284	0.6522	1.441
Mof_C 	C 	0.7489	0.9808	0.9714	-0.396
Mof_H 	H 	0.682	0.9575	0.9573	0.122
Mof_H 	H 	0.8175	0.9597	0.9565	0.123
Mof_N 	N 	0.6032	0.3202	0.7056	-0.325
Mof_H 	H 	0.6334	0.2853	0.6893	0.127
Mof_H 	H 	0.6495	0.3333	0.7336	0.111
Mof_H 	H 	0.5964	0.3515	0.68	0.101
Mof_Gd	Gd	0.76442	0.93322	0.65727	1.465
Mof_C 	C 	0.7508	0.9754	0.0356	0.49
Mof_C 	C 	0.9455	0.1956	0.7364	0.358
Mof_C 	C 	0.9974	0.258	0.7602	0.022
Mof_H 	H 	0.9535	0.2694	0.7943	0.004
Mof_C 	C 	0.9913	0.314	0.7208	-0.394
Mof_H 	H 	0.9119	0.3186	0.7079	0.131
Mof_H 	H 	0.0387	0.3046	0.6878	0.12
Mof_C 	C 	0.0306	0.3782	0.7459	0.482
Mof_C 	C 	0.433	0.3637	0.7575	0.383
Mof_C 	C 	0.4838	0.3039	0.7297	-0.001
Mof_H 	H 	0.4334	0.292	0.6979	0.007
Mof_C 	C 	0.4912	0.2462	0.7694	-0.398
Mof_H 	H 	0.5417	0.2574	0.8007	0.123
Mof_H 	H 	0.4147	0.2383	0.7849	0.132
Mof_C 	C 	0.5348	0.1842	0.7435	0.497
Mof_O 	O 	0.7464	0.09489	0.75095	-0.668
Mof_H 	H 	0.7424	0.1335	0.7749	0.182
Mof_O 	O 	0.7566	0.9666	0.75634	-0.667
Mof_H 	H 	0.7588	0.9297	0.7823	0.178
Mof_O 	O 	0.6382	0.0246	0.66925	-0.687
Mof_H 	H 	0.5703	0.0214	0.6445	0.125
Mof_O 	O 	0.8742	0.0315	0.67074	-0.676
Mof_H 	H 	0.9439	0.0328	0.647	0.122
Mof_O 	O 	0.6469	0.0424	0.8598	-0.489
Mof_O 	O 	0.8408	0.0411	0.8608	-0.495
Mof_O 	O 	0.7553	0.9201	0.05682	-0.535
Mof_O 	O 	0.7458	0.0272	0.06317	-0.532
Mof_O 	O 	0.9866	0.1432	0.7559	-0.501
Mof_O 	O 	0.867	0.2015	0.7017	-0.469
Mof_O 	O 	0.0876	0.3757	0.7922	-0.508
Mof_O 	O 	0.0038	0.4286	0.7209	-0.534
Mof_O 	O 	0.4768	0.4167	0.743	-0.511
Mof_O 	O 	0.3502	0.3555	0.7887	-0.484
Mof_O 	O 	0.5059	0.1329	0.7668	-0.544
Mof_O 	O 	0.6025	0.1888	0.7017	-0.506
Mof_Gd	Gd	0.41868	0.4643	0.23174	1.535
Mof_C 	C 	0.2442	0.4555	0.1162	0.379
Mof_N 	N 	0.139	0.4177	0.0315	-0.319
Mof_H 	H 	0.1404	0.4151	0.9938	0.104
Mof_H 	H 	0.0768	0.4399	0.0424	0.108
Mof_H 	H 	0.136	0.3782	0.0462	0.098
Mof_Gd	Gd	0.08356	0.47318	0.23437	1.537
Mof_C 	C 	0.2448	0.4508	0.0516	0.011
Mof_H 	H 	0.3135	0.4269	0.0391	0.007
Mof_N 	N 	0.6199	0.2544	0.2222	-0.332
Mof_H 	H 	0.6504	0.2183	0.2082	0.129
Mof_H 	H 	0.6609	0.2672	0.2521	0.112
Mof_H 	H 	0.6212	0.2851	0.1958	0.106
Mof_Gd	Gd	0.24378	0.37716	0.3478	1.441
Mof_C 	C 	0.2489	0.5192	0.0286	-0.402
Mof_H 	H 	0.182	0.5425	0.0427	0.123
Mof_H 	H 	0.3175	0.5403	0.0435	0.124
Mof_N 	N 	0.1032	0.1798	0.2944	-0.325
Mof_H 	H 	0.1334	0.2147	0.3107	0.127
Mof_H 	H 	0.1495	0.1667	0.2664	0.111
Mof_H 	H 	0.0964	0.1485	0.32	0.101
Mof_Gd	Gd	0.26442	0.56678	0.34273	1.465
Mof_C 	C 	0.2508	0.5246	0.9644	0.495
Mof_C 	C 	0.4455	0.3044	0.2636	0.358
Mof_C 	C 	0.4974	0.242	0.2398	0.022
Mof_H 	H 	0.4535	0.2306	0.2057	0.004
Mof_C 	C 	0.4913	0.186	0.2792	-0.396
Mof_H 	H 	0.4119	0.1814	0.2921	0.132
Mof_H 	H 	0.5387	0.1954	0.3122	0.121
Mof_C 	C 	0.5306	0.1218	0.2541	0.484
Mof_C 	C 	0.933	0.1363	0.2425	0.383
Mof_C 	C 	0.9838	0.1961	0.2703	-0.001
Mof_H 	H 	0.9334	0.208	0.3021	0.007
Mof_C 	C 	0.9912	0.2538	0.2306	-0.398
Mof_H 	H 	0.0417	0.2426	0.1993	0.123
Mof_H 	H 	0.9147	0.2617	0.2151	0.132
Mof_C 	C 	0.0348	0.3158	0.2565	0.497
Mof_O 	O 	0.2464	0.40511	0.24905	-0.668
Mof_H 	H 	0.2424	0.3665	0.2251	0.182
Mof_O 	O 	0.2566	0.5334	0.24366	-0.667
Mof_H 	H 	0.2588	0.5703	0.2177	0.178
Mof_O 	O 	0.1382	0.4754	0.33075	-0.687
Mof_H 	H 	0.0703	0.4786	0.3555	0.125
Mof_O 	O 	0.3742	0.4685	0.32926	-0.676
Mof_H 	H 	0.4439	0.4672	0.353	0.122
Mof_O 	O 	0.1469	0.4576	0.1402	-0.489
Mof_O 	O 	0.3408	0.4589	0.1392	-0.495
Mof_O 	O 	0.2553	0.5799	0.94318	-0.535
Mof_O 	O 	0.2458	0.4728	0.93683	-0.535
Mof_O 	O 	0.4866	0.3568	0.2441	-0.501
Mof_O 	O 	0.367	0.2985	0.2983	-0.469
Mof_O 	O 	0.5876	0.1243	0.2078	-0.508
Mof_O 	O 	0.5038	0.0714	0.2791	-0.534
Mof_O 	O 	0.9768	0.0833	0.257	-0.51
Mof_O 	O 	0.8502	0.1445	0.2113	-0.484
Mof_O 	O 	0.0059	0.3671	0.2332	-0.544
Mof_O 	O 	0.1025	0.3112	0.2983	-0.506
Mof_Gd	Gd	0.08132	0.5357	0.73174	1.535
Mof_C 	C 	0.2558	0.5445	0.6162	0.379
Mof_N 	N 	0.361	0.5823	0.5315	-0.32
Mof_H 	H 	0.3596	0.5849	0.4938	0.105
Mof_H 	H 	0.4232	0.5601	0.5424	0.108
Mof_H 	H 	0.364	0.6218	0.5462	0.098
Mof_Gd	Gd	0.41644	0.52682	0.73437	1.537
Mof_C 	C 	0.2552	0.5492	0.5516	0.011
Mof_H 	H 	0.1865	0.5731	0.5391	0.007
Mof_N 	N 	0.8801	0.7456	0.7222	-0.332
Mof_H 	H 	0.8496	0.7817	0.7082	0.129
Mof_H 	H 	0.8391	0.7328	0.7521	0.112
Mof_H 	H 	0.8788	0.7149	0.6958	0.105
Mof_Gd	Gd	0.25622	0.62284	0.8478	1.441
Mof_C 	C 	0.2511	0.4808	0.5286	-0.403
Mof_H 	H 	0.318	0.4575	0.5427	0.123
Mof_H 	H 	0.1825	0.4597	0.5435	0.124
Mof_N 	N 	0.3968	0.8202	0.7944	-0.325
Mof_H 	H 	0.3666	0.7853	0.8107	0.127
Mof_H 	H 	0.3505	0.8333	0.7664	0.111
Mof_H 	H 	0.4036	0.8515	0.82	0.102
Mof_Gd	Gd	0.23558	0.43322	0.84273	1.464
Mof_C 	C 	0.2492	0.4754	0.4644	0.496
Mof_C 	C 	0.0545	0.6956	0.7636	0.358
Mof_C 	C 	0.0026	0.758	0.7398	0.022
Mof_H 	H 	0.0465	0.7694	0.7057	0.004
Mof_C 	C 	0.0087	0.814	0.7792	-0.395
Mof_H 	H 	0.0881	0.8186	0.7921	0.132
Mof_H 	H 	0.9613	0.8046	0.8122	0.121
Mof_C 	C 	0.9694	0.8782	0.7541	0.483
Mof_C 	C 	0.567	0.8637	0.7425	0.383
Mof_C 	C 	0.5162	0.8039	0.7703	-0.001
Mof_H 	H 	0.5666	0.792	0.8021	0.007
Mof_C 	C 	0.5088	0.7462	0.7306	-0.399
Mof_H 	H 	0.4583	0.7574	0.6993	0.123
Mof_H 	H 	0.5853	0.7383	0.7151	0.132
Mof_C 	C 	0.4652	0.6842	0.7565	0.498
Mof_O 	O 	0.2536	0.59489	0.74905	-0.668
Mof_H 	H 	0.2576	0.6335	0.7251	0.182
Mof_O 	O 	0.2434	0.4666	0.74366	-0.667
Mof_H 	H 	0.2412	0.4297	0.7177	0.178
Mof_O 	O 	0.3618	0.5246	0.83075	-0.687
Mof_H 	H 	0.4297	0.5214	0.8555	0.125
Mof_O 	O 	0.1258	0.5315	0.82926	-0.675
Mof_H 	H 	0.0561	0.5328	0.853	0.122
Mof_O 	O 	0.3531	0.5424	0.6402	-0.489
Mof_O 	O 	0.1592	0.5411	0.6392	-0.495
Mof_O 	O 	0.2447	0.4201	0.44318	-0.535
Mof_O 	O 	0.2542	0.5272	0.43683	-0.535
Mof_O 	O 	0.0134	0.6432	0.7441	-0.501
Mof_O 	O 	0.133	0.7015	0.7983	-0.469
Mof_O 	O 	0.9124	0.8757	0.7078	-0.508
Mof_O 	O 	0.9962	0.9286	0.7791	-0.534
Mof_O 	O 	0.5232	0.9167	0.757	-0.511
Mof_O 	O 	0.6498	0.8555	0.7113	-0.483
Mof_O 	O 	0.4941	0.6329	0.7332	-0.544
Mof_O 	O 	0.3975	0.6888	0.7983	-0.506
_end
