data_functionalizedCrystal
_audit_creation_method	'EQeq! by Chris Wilmer'
_symmetry_space_group_name_H-M	'P1'
_symmetry_Int_Tables_number	1
_symmetry_cell_setting	triclinic
loop_
_symmetry_equiv_pos_as_xyz
  x,y,z
_cell_length_a	33.964
_cell_length_b	14.5897
_cell_length_c	33.787
_cell_angle_alpha	90
_cell_angle_beta	104.936
_cell_angle_gamma	90
loop_
_atom_site_label
_atom_site_type_symbol
_atom_site_fract_x
_atom_site_fract_y
_atom_site_fract_z
_atom_site_charge
Mof_C 	C 	0.4627	0.6041	0.6689	0.075
Mof_H 	H 	0.4571	0.6547	0.6506	-0.008
Mof_C 	C 	0.4937	0.5451	0.6655	-0.115
Mof_H 	H 	0.5094	0.5554	0.6464	0.082
Mof_C 	C 	0.5003	0.4702	0.6916	0.06
Mof_C 	C 	0.4788	0.4629	0.722	-0.092
Mof_H 	H 	0.4847	0.4143	0.7413	0.085
Mof_C 	C 	0.4492	0.5259	0.7236	0.054
Mof_H 	H 	0.4349	0.521	0.7442	0.013
Mof_C 	C 	0.6693	0.3477	0.6151	0.052
Mof_H 	H 	0.6963	0.324	0.6221	-0.041
Mof_C 	C 	0.6454	0.3336	0.6399	-0.116
Mof_H 	H 	0.6549	0.2954	0.6632	0.087
Mof_C 	C 	0.6083	0.3714	0.6333	0.061
Mof_C 	C 	0.5937	0.417	0.597	-0.109
Mof_H 	H 	0.5669	0.4413	0.5909	0.075
Mof_C 	C 	0.6162	0.428	0.5692	0.037
Mof_H 	H 	0.6051	0.4577	0.5437	-0.053
Mof_C 	C 	0.5563	0.0919	0.7869	0.052
Mof_H 	H 	0.5364	0.069	0.7996	0.016
Mof_C 	C 	0.5468	0.1644	0.7605	-0.092
Mof_H 	H 	0.5206	0.1922	0.7551	0.082
Mof_C 	C 	0.5763	0.1973	0.7415	0.049
Mof_C 	C 	0.6154	0.1566	0.7513	-0.112
Mof_H 	H 	0.6364	0.1782	0.7398	0.087
Mof_C 	C 	0.6216	0.0832	0.7787	0.088
Mof_H 	H 	0.6477	0.055	0.7854	0.003
Mof_C 	C 	0.5327	0.4044	0.6899	0.114
Mof_C 	C 	0.5817	0.357	0.6619	0.116
Mof_C 	C 	0.5678	0.2758	0.7137	0.104
Mof_C 	C 	0.7252	0.5998	0.5711	0.094
Mof_H 	H 	0.7387	0.5657	0.5946	-0.089
Mof_C 	C 	0.7323	0.6909	0.5716	-0.149
Mof_H 	H 	0.751	0.72	0.5939	0.088
Mof_C 	C 	0.7105	0.7403	0.537	0.084
Mof_C 	C 	0.6843	0.6945	0.5052	-0.146
Mof_H 	H 	0.6684	0.7264	0.482	0.098
Mof_C 	C 	0.6822	0.6009	0.5082	0.094
Mof_H 	H 	0.666	0.5683	0.4854	-0.069
Mof_C 	C 	0.8203	0.1507	0.6166	0.135
Mof_H 	H 	0.8231	0.2154	0.6154	-0.008
Mof_C 	C 	0.8204	0.9757	0.1134	-0.038
Mof_H 	H 	0.8242	0.9114	0.112	0.041
Mof_C 	C 	0.7893	0.1097	0.5874	-0.224
Mof_H 	H 	0.7708	0.145	0.5672	0.149
Mof_C 	C 	0.7862	0.0165	0.5886	0.207
Mof_C 	C 	0.8123	0.9672	0.6186	-0.293
Mof_H 	H 	0.8104	0.9024	0.62	0.162
Mof_C 	C 	0.8412	0.015	0.6464	0.226
Mof_H 	H 	0.8592	0.981	0.6675	-0.051
Mof_C 	C 	0.6391	0.0257	0.3944	0.212
Mof_H 	H 	0.625	0.9923	0.3708	-0.066
Mof_C 	C 	0.6558	0.9775	0.4289	-0.283
Mof_H 	H 	0.6516	0.9133	0.43	0.15
Mof_C 	C 	0.6795	0.0241	0.4629	0.165
Mof_C 	C 	0.6828	0.1169	0.4603	-0.18
Mof_H 	H 	0.6984	0.1507	0.483	0.125
Mof_C 	C 	0.6629	0.1626	0.4239	0.089
Mof_H 	H 	0.6651	0.2274	0.4223	0.012
Mof_C 	C 	0.7166	0.8427	0.5345	0.104
Mof_C 	C 	0.7537	0.9697	0.5576	0.018
Mof_C 	C 	0.7027	0.9725	0.4994	0.026
Mof_C 	C 	0.5638	0.0459	0.286	0.106
Mof_H 	H 	0.5444	0.0708	0.2988	-0.025
Mof_C 	C 	0.5525	0.9742	0.2585	-0.165
Mof_H 	H 	0.5254	0.9515	0.2519	0.092
Mof_C 	C 	0.581	0.9363	0.2408	0.094
Mof_C 	C 	0.6191	0.973	0.2489	-0.186
Mof_H 	H 	0.6382	0.9507	0.2351	0.101
Mof_C 	C 	0.6297	0.043	0.2774	0.136
Mof_H 	H 	0.6571	0.0645	0.2846	-0.024
Mof_C 	C 	0.4639	0.5234	0.1718	0.077
Mof_H 	H 	0.4607	0.4684	0.1563	-0.002
Mof_C 	C 	0.4957	0.583	0.1712	-0.12
Mof_H 	H 	0.5139	0.5678	0.155	0.09
Mof_C 	C 	0.5015	0.6622	0.193	0.061
Mof_C 	C 	0.4751	0.6814	0.2173	-0.118
Mof_H 	H 	0.4779	0.7354	0.2335	0.077
Mof_C 	C 	0.4446	0.6181	0.2167	0.069
Mof_H 	H 	0.4268	0.6289	0.2339	-0.003
Mof_C 	C 	0.6693	0.7796	0.1095	0.132
Mof_H 	H 	0.6949	0.8092	0.1133	0.063
Mof_C 	C 	0.6466	0.793	0.1388	-0.133
Mof_H 	H 	0.658	0.8264	0.1632	0.094
Mof_C 	C 	0.6087	0.7582	0.132	0.078
Mof_C 	C 	0.597	0.6966	0.1007	-0.119
Mof_H 	H 	0.5736	0.6591	0.0978	0.092
Mof_C 	C 	0.6215	0.6915	0.073	0.092
Mof_H 	H 	0.6115	0.6577	0.0485	0.035
Mof_C 	C 	0.5715	0.8556	0.2122	0.093
Mof_C 	C 	0.5343	0.7298	0.19	0.112
Mof_C 	C 	0.5834	0.7744	0.1613	0.116
Mof_C 	C 	0.6765	0.5261	0.0043	0.073
Mof_H 	H 	0.6576	0.5562	0.9825	0.039
Mof_C 	C 	0.6814	0.4308	0.0039	-0.113
Mof_H 	H 	0.6652	0.3966	0.9817	0.087
Mof_C 	C 	0.7085	0.3859	0.0341	0.064
Mof_C 	C 	0.731	0.4384	0.0662	-0.116
Mof_H 	H 	0.7498	0.4094	0.0884	0.093
Mof_C 	C 	0.7263	0.5337	0.0666	0.091
Mof_H 	H 	0.7424	0.5694	0.0883	0.084
Mof_C 	C 	0.6586	0.9693	0.9213	-0.022
Mof_H 	H 	0.6602	0.9044	0.9197	0.032
Mof_C 	C 	0.6785	0.01	0.9573	0.01
Mof_H 	H 	0.6929	0.9744	0.9799	0.034
Mof_C 	C 	0.677	0.1043	0.9599	0.011
Mof_C 	C 	0.6543	0.1535	0.9263	-0.063
Mof_H 	H 	0.6522	0.2184	0.9273	0.086
Mof_C 	C 	0.6345	0.1044	0.8911	0.05
Mof_H 	H 	0.6186	0.1372	0.8682	0.028
Mof_C 	C 	0.8385	0.1152	0.1465	0.058
Mof_H 	H 	0.8547	0.1486	0.169	0.006
Mof_C 	C 	0.8091	0.1604	0.118	-0.077
Mof_H 	H 	0.8062	0.2248	0.1203	0.089
Mof_C 	C 	0.7836	0.1139	0.0858	0.011
Mof_C 	C 	0.7899	0.0172	0.0845	0.014
Mof_H 	H 	0.7728	0.9815	0.0635	0.035
Mof_C 	C 	0.7145	0.2859	0.0317	0.102
Mof_C 	C 	0.7002	0.1535	0.9966	0.124
Mof_C 	C 	0.7503	0.1582	0.0549	0.128
Mof_N 	N 	0.4402	0.5962	0.6954	-0.264
Mof_N 	N 	0.6559	0.3954	0.5797	-0.373
Mof_N 	N 	0.5947	0.051	0.7953	-0.249
Mof_N 	N 	0.5519	0.4162	0.6605	-0.135
Mof_N 	N 	0.5913	0.2844	0.6868	-0.131
Mof_N 	N 	0.5384	0.3342	0.717	-0.134
Mof_N 	N 	0.7009	0.5537	0.5405	-0.422
Mof_N 	N 	0.8463	0.1059	0.6463	-0.301
Mof_N 	N 	0.6409	0.1154	0.3911	-0.322
Mof_N 	N 	0.7476	0.8797	0.5631	-0.112
Mof_N 	N 	0.7315	0.0186	0.5251	-0.104
Mof_N 	N 	0.6934	0.8841	0.5025	-0.117
Mof_N 	N 	0.6025	0.0814	0.2951	-0.298
Mof_N 	N 	0.4387	0.5425	0.1935	-0.267
Mof_N 	N 	0.6563	0.7298	0.0789	-0.105
Mof_N 	N 	0.541	0.8004	0.2168	-0.139
Mof_N 	N 	0.5536	0.7146	0.1616	-0.13
Mof_N 	N 	0.5933	0.8458	0.1859	-0.135
Mof_N 	N 	0.6988	0.574	0.036	-0.153
Mof_N 	N 	0.6371	0.0132	0.8885	-0.223
Mof_N 	N 	0.8452	0.0246	0.1438	-0.225
Mof_N 	N 	0.6908	0.2424	0.999	-0.134
Mof_N 	N 	0.7303	0.1084	0.0239	-0.139
Mof_N 	N 	0.7445	0.2477	0.0609	-0.136
Mof_Zn	Zn	0.38917	0.67375	0.69126	1.184
Mof_Br	Br	0.36974	0.6445	0.75224	-0.292
Mof_Br	Br	0.39967	0.815	0.6626	-0.202
Mof_Zn	Zn	0.6936	0.4116	0.5416	-3.73
Mof_Br	Br	0.756	0.344	0.5739	-0.739
Mof_Br	Br	0.6574	0.3728	0.4751	-0.602
Mof_Zn	Zn	0.88873	0.95903	0.18888	1.185
Mof_Br	Br	0.90267	0.82059	0.1592	-0.482
Mof_Br	Br	0.86721	0.97483	0.24886	-0.483
Mof_Zn	Zn	0.62169	0.18587	0.33664	0.746
Mof_Br	Br	0.6823	0.24645	0.32522	0.155
Mof_Br	Br	0.56513	0.27516	0.33795	-0.582
Mof_Zn	Zn	0.68714	0.7166	0.0326	-3.398
Mof_Br	Br	0.74982	0.7906	0.0591	-0.027
Mof_Br	Br	0.6461	0.7504	0.96745	-0.145
Mof_Zn	Zn	0.6055	0.9474	0.836	0.576
Mof_Br	Br	0.6528	0.8499	0.8141	-0.099
Mof_Br	Br	0.5463	0.8891	0.8499	-0.307
Mof_Br	Br	0.3661	0.676	0.7485	-0.141
Mof_Br	Br	0.3992	0.8065	0.6538	-0.242
Mof_Zn	Zn	0.7031	0.413	0.5508	3.757
Mof_Br	Br	0.7663	0.3647	0.5932	0.28
Mof_Br	Br	0.6772	0.3602	0.4849	-0.531
Mof_Zn	Zn	0.6803	0.4157	0.5282	2.534
Mof_Br	Br	0.7404	0.3303	0.5498	-0.418
Mof_Br	Br	0.6369	0.3861	0.4638	0.302
Mof_Zn	Zn	0.6053	0.187	0.3383	0.752
Mof_Br	Br	0.6553	0.2736	0.3153	-0.703
Mof_Br	Br	0.5417	0.23	0.3512	-0.028
Mof_Zn	Zn	0.7042	0.7114	0.0561	-6.211
Mof_Br	Br	0.7616	0.7632	0.1053	0.186
Mof_Br	Br	0.6813	0.773	0.99	0.087
Mof_Zn	Zn	0.6978	0.7133	0.0458	9.352
Mof_Br	Br	0.7605	0.774	0.0821	-0.215
Mof_Br	Br	0.6679	0.7605	0.9795	-0.07
Mof_Zn	Zn	0.6117	0.937	0.8378	0.566
Mof_Br	Br	0.6677	0.8702	0.8228	-0.356
Mof_Br	Br	0.5475	0.882	0.8379	-0.126
Mof_C 	C 	0.9627	0.1041	0.6689	0.068
Mof_H 	H 	0.9571	0.1547	0.6506	-0.004
Mof_C 	C 	0.9937	0.0451	0.6655	-0.083
Mof_H 	H 	0.0094	0.0554	0.6464	0.079
Mof_C 	C 	0.0003	0.9702	0.6916	0.039
Mof_C 	C 	0.9788	0.9629	0.722	-0.124
Mof_H 	H 	0.9847	0.9143	0.7413	0.089
Mof_C 	C 	0.9492	0.0259	0.7236	0.088
Mof_H 	H 	0.9349	0.021	0.7442	0.008
Mof_C 	C 	0.1693	0.8477	0.6151	0.049
Mof_H 	H 	0.1963	0.824	0.6221	-0.043
Mof_C 	C 	0.1454	0.8336	0.6399	-0.116
Mof_H 	H 	0.1549	0.7954	0.6632	0.085
Mof_C 	C 	0.1083	0.8714	0.6333	0.057
Mof_C 	C 	0.0937	0.917	0.597	-0.109
Mof_H 	H 	0.0669	0.9413	0.5909	0.071
Mof_C 	C 	0.1162	0.928	0.5692	0.033
Mof_H 	H 	0.1051	0.9577	0.5437	-0.057
Mof_C 	C 	0.0563	0.5919	0.7869	0.051
Mof_H 	H 	0.0364	0.569	0.7996	0.009
Mof_C 	C 	0.0468	0.6644	0.7605	-0.095
Mof_H 	H 	0.0206	0.6922	0.7551	0.081
Mof_C 	C 	0.0763	0.6973	0.7415	0.048
Mof_C 	C 	0.1154	0.6566	0.7513	-0.114
Mof_H 	H 	0.1364	0.6782	0.7398	0.085
Mof_C 	C 	0.1216	0.5832	0.7787	0.087
Mof_H 	H 	0.1477	0.555	0.7854	-0.002
Mof_C 	C 	0.0327	0.9044	0.6899	0.116
Mof_C 	C 	0.0817	0.857	0.6619	0.116
Mof_C 	C 	0.0678	0.7758	0.7137	0.103
Mof_C 	C 	0.2252	0.0998	0.5711	0.095
Mof_H 	H 	0.2387	0.0657	0.5946	-0.083
Mof_C 	C 	0.2323	0.1909	0.5716	-0.146
Mof_H 	H 	0.251	0.22	0.5939	0.09
Mof_C 	C 	0.2105	0.2403	0.537	0.084
Mof_C 	C 	0.1843	0.1945	0.5052	-0.144
Mof_H 	H 	0.1684	0.2264	0.482	0.1
Mof_C 	C 	0.1822	0.1009	0.5082	0.095
Mof_H 	H 	0.166	0.0683	0.4854	-0.062
Mof_C 	C 	0.3203	0.6507	0.6166	0.091
Mof_H 	H 	0.3231	0.7154	0.6154	0.005
Mof_C 	C 	0.3204	0.4757	0.1134	0.064
Mof_H 	H 	0.3242	0.4114	0.112	0.011
Mof_C 	C 	0.2893	0.6097	0.5874	-0.149
Mof_H 	H 	0.2708	0.645	0.5672	0.123
Mof_C 	C 	0.2862	0.5165	0.5886	0.085
Mof_C 	C 	0.3123	0.4672	0.6186	-0.135
Mof_H 	H 	0.3104	0.4024	0.62	0.112
Mof_C 	C 	0.3412	0.515	0.6464	0.091
Mof_H 	H 	0.3592	0.481	0.6675	0.01
Mof_C 	C 	0.1391	0.5257	0.3944	0.078
Mof_H 	H 	0.125	0.4923	0.3708	-0.005
Mof_C 	C 	0.1558	0.4775	0.4289	-0.133
Mof_H 	H 	0.1516	0.4133	0.43	0.103
Mof_C 	C 	0.1795	0.5241	0.4629	0.052
Mof_C 	C 	0.1828	0.6169	0.4603	-0.113
Mof_H 	H 	0.1984	0.6507	0.483	0.102
Mof_C 	C 	0.1629	0.6626	0.4239	0.05
Mof_H 	H 	0.1651	0.7274	0.4223	0.024
Mof_C 	C 	0.2166	0.3427	0.5345	0.109
Mof_C 	C 	0.2537	0.4697	0.5576	0.087
Mof_C 	C 	0.2027	0.4725	0.4994	0.093
Mof_C 	C 	0.0638	0.5459	0.286	0.05
Mof_H 	H 	0.0444	0.5708	0.2988	-0.012
Mof_C 	C 	0.0525	0.4742	0.2585	-0.101
Mof_H 	H 	0.0254	0.4515	0.2519	0.077
Mof_C 	C 	0.081	0.4363	0.2408	0.055
Mof_C 	C 	0.1191	0.473	0.2489	-0.122
Mof_H 	H 	0.1382	0.4507	0.2351	0.085
Mof_C 	C 	0.1297	0.543	0.2774	0.079
Mof_H 	H 	0.1571	0.5645	0.2846	-0.012
Mof_C 	C 	0.9639	0.0234	0.1718	0.133
Mof_H 	H 	0.9607	0.9684	0.1563	-0.037
Mof_C 	C 	0.9957	0.083	0.1712	-0.149
Mof_H 	H 	0.0139	0.0678	0.155	0.104
Mof_C 	C 	0.0015	0.1622	0.193	0.077
Mof_C 	C 	0.9751	0.1814	0.2173	-0.128
Mof_H 	H 	0.9779	0.2354	0.2335	0.082
Mof_C 	C 	0.9446	0.1181	0.2167	0.078
Mof_H 	H 	0.9268	0.1289	0.2339	0
Mof_C 	C 	0.1693	0.2796	0.1095	0.134
Mof_H 	H 	0.1949	0.3092	0.1133	0.064
Mof_C 	C 	0.1466	0.293	0.1388	-0.133
Mof_H 	H 	0.158	0.3264	0.1632	0.096
Mof_C 	C 	0.1087	0.2582	0.132	0.08
Mof_C 	C 	0.097	0.1966	0.1007	-0.118
Mof_H 	H 	0.0736	0.1591	0.0978	0.094
Mof_C 	C 	0.1215	0.1915	0.073	0.094
Mof_H 	H 	0.1115	0.1577	0.0485	0.036
Mof_C 	C 	0.0715	0.3556	0.2122	0.107
Mof_C 	C 	0.0343	0.2298	0.19	0.108
Mof_C 	C 	0.0834	0.2744	0.1613	0.117
Mof_C 	C 	0.1765	0.0261	0.0043	0.126
Mof_H 	H 	0.1576	0.0562	0.9825	0.026
Mof_C 	C 	0.1814	0.9308	0.0039	-0.176
Mof_H 	H 	0.1652	0.8966	0.9817	0.102
Mof_C 	C 	0.2085	0.8859	0.0341	0.102
Mof_C 	C 	0.231	0.9384	0.0662	-0.179
Mof_H 	H 	0.2498	0.9094	0.0884	0.108
Mof_C 	C 	0.2263	0.0337	0.0666	0.144
Mof_H 	H 	0.2424	0.0694	0.0883	0.07
Mof_C 	C 	0.1586	0.4693	0.9213	0.086
Mof_H 	H 	0.1602	0.4044	0.9197	-0.001
Mof_C 	C 	0.1785	0.51	0.9573	-0.121
Mof_H 	H 	0.1929	0.4744	0.9799	0.092
Mof_C 	C 	0.177	0.6043	0.9599	0.064
Mof_C 	C 	0.1543	0.6535	0.9263	-0.101
Mof_H 	H 	0.1522	0.7184	0.9273	0.096
Mof_C 	C 	0.1345	0.6044	0.8911	0.069
Mof_H 	H 	0.1186	0.6372	0.8682	0.02
Mof_C 	C 	0.3385	0.6152	0.1465	0.078
Mof_H 	H 	0.3547	0.6486	0.169	-0.003
Mof_C 	C 	0.3091	0.6604	0.118	-0.113
Mof_H 	H 	0.3062	0.7248	0.1203	0.098
Mof_C 	C 	0.2836	0.6139	0.0858	0.057
Mof_C 	C 	0.2899	0.5172	0.0845	-0.107
Mof_H 	H 	0.2728	0.4815	0.0635	0.09
Mof_C 	C 	0.2145	0.7859	0.0317	0.087
Mof_C 	C 	0.2002	0.6535	0.9966	0.103
Mof_C 	C 	0.2503	0.6582	0.0549	0.109
Mof_N 	N 	0.9402	0.0962	0.6954	-0.265
Mof_N 	N 	0.1559	0.8954	0.5797	-0.375
Mof_N 	N 	0.0947	0.551	0.7953	-0.255
Mof_N 	N 	0.0519	0.9162	0.6605	-0.139
Mof_N 	N 	0.0913	0.7844	0.6868	-0.132
Mof_N 	N 	0.0384	0.8342	0.717	-0.135
Mof_N 	N 	0.2009	0.0537	0.5405	-0.414
Mof_N 	N 	0.3463	0.6059	0.6463	-0.271
Mof_N 	N 	0.1409	0.6154	0.3911	-0.293
Mof_N 	N 	0.2476	0.3797	0.5631	-0.123
Mof_N 	N 	0.2315	0.5186	0.5251	-0.142
Mof_N 	N 	0.1934	0.3841	0.5025	-0.127
Mof_N 	N 	0.1025	0.5814	0.2951	-0.284
Mof_N 	N 	0.9387	0.0425	0.1935	-0.271
Mof_N 	N 	0.1563	0.2298	0.0789	-0.105
Mof_N 	N 	0.041	0.3004	0.2168	-0.14
Mof_N 	N 	0.0536	0.2146	0.1616	-0.129
Mof_N 	N 	0.0933	0.3458	0.1859	-0.136
Mof_N 	N 	0.1988	0.074	0.036	-0.168
Mof_N 	N 	0.1371	0.5132	0.8885	-0.26
Mof_N 	N 	0.3452	0.5246	0.1438	-0.259
Mof_N 	N 	0.1908	0.7424	0.999	-0.13
Mof_N 	N 	0.2303	0.6084	0.0239	-0.138
Mof_N 	N 	0.2445	0.7477	0.0609	-0.132
Mof_Zn	Zn	0.88917	0.17375	0.69126	1.185
Mof_Br	Br	0.86974	0.1445	0.75224	-0.292
Mof_Br	Br	0.89967	0.315	0.6626	-0.198
Mof_Zn	Zn	0.1936	0.9116	0.5416	-3.719
Mof_Br	Br	0.256	0.844	0.5739	-0.748
Mof_Br	Br	0.1574	0.8728	0.4751	-0.609
Mof_Zn	Zn	0.38873	0.45903	0.18888	1.19
Mof_Br	Br	0.40267	0.32059	0.1592	-0.474
Mof_Br	Br	0.36721	0.47483	0.24886	-0.469
Mof_Zn	Zn	0.12169	0.68587	0.33664	0.746
Mof_Br	Br	0.1823	0.74645	0.32522	0.143
Mof_Br	Br	0.06513	0.77516	0.33795	-0.585
Mof_Zn	Zn	0.18714	0.2166	0.0326	-3.399
Mof_Br	Br	0.24982	0.2906	0.0591	-0.03
Mof_Br	Br	0.1461	0.2504	0.96745	-0.139
Mof_Zn	Zn	0.1055	0.4474	0.836	0.575
Mof_Br	Br	0.1528	0.3499	0.8141	-0.084
Mof_Br	Br	0.0463	0.3891	0.8499	-0.303
Mof_Br	Br	0.8661	0.176	0.7485	-0.134
Mof_Br	Br	0.8992	0.3065	0.6538	-0.239
Mof_Zn	Zn	0.2031	0.913	0.5508	3.745
Mof_Br	Br	0.2663	0.8647	0.5932	0.276
Mof_Br	Br	0.1772	0.8602	0.4849	-0.527
Mof_Zn	Zn	0.1803	0.9157	0.5282	2.526
Mof_Br	Br	0.2404	0.8303	0.5498	-0.412
Mof_Br	Br	0.1369	0.8861	0.4638	0.295
Mof_Zn	Zn	0.1053	0.687	0.3383	0.751
Mof_Br	Br	0.1553	0.7736	0.3153	-0.703
Mof_Br	Br	0.0417	0.73	0.3512	-0.033
Mof_Zn	Zn	0.2042	0.2114	0.0561	-6.213
Mof_Br	Br	0.2616	0.2632	0.1053	0.189
Mof_Br	Br	0.1813	0.273	0.99	0.084
Mof_Zn	Zn	0.1978	0.2133	0.0458	9.355
Mof_Br	Br	0.2605	0.274	0.0821	-0.212
Mof_Br	Br	0.1679	0.2605	0.9795	-0.067
Mof_Zn	Zn	0.1117	0.437	0.8378	0.574
Mof_Br	Br	0.1677	0.3702	0.8228	-0.356
Mof_Br	Br	0.0475	0.382	0.8379	-0.12
Mof_C 	C 	0.5373	0.6041	0.3311	0.074
Mof_H 	H 	0.5429	0.6547	0.3494	-0.009
Mof_C 	C 	0.5063	0.5451	0.3345	-0.116
Mof_H 	H 	0.4906	0.5554	0.3536	0.081
Mof_C 	C 	0.4997	0.4702	0.3084	0.059
Mof_C 	C 	0.5212	0.4629	0.278	-0.093
Mof_H 	H 	0.5153	0.4143	0.2587	0.084
Mof_C 	C 	0.5508	0.5259	0.2764	0.053
Mof_H 	H 	0.5651	0.521	0.2558	0.013
Mof_C 	C 	0.3307	0.3477	0.3849	0.052
Mof_H 	H 	0.3037	0.324	0.3779	-0.041
Mof_C 	C 	0.3546	0.3336	0.3601	-0.116
Mof_H 	H 	0.3451	0.2954	0.3368	0.087
Mof_C 	C 	0.3917	0.3714	0.3667	0.061
Mof_C 	C 	0.4063	0.417	0.403	-0.109
Mof_H 	H 	0.4331	0.4413	0.4091	0.075
Mof_C 	C 	0.3838	0.428	0.4308	0.037
Mof_H 	H 	0.3949	0.4577	0.4563	-0.053
Mof_C 	C 	0.4437	0.0919	0.2131	0.052
Mof_H 	H 	0.4636	0.069	0.2004	0.016
Mof_C 	C 	0.4532	0.1644	0.2395	-0.092
Mof_H 	H 	0.4794	0.1922	0.2449	0.082
Mof_C 	C 	0.4237	0.1973	0.2585	0.049
Mof_C 	C 	0.3846	0.1566	0.2487	-0.112
Mof_H 	H 	0.3636	0.1782	0.2602	0.087
Mof_C 	C 	0.3784	0.0832	0.2213	0.088
Mof_H 	H 	0.3523	0.055	0.2146	0.003
Mof_C 	C 	0.4673	0.4044	0.3101	0.114
Mof_C 	C 	0.4183	0.357	0.3381	0.116
Mof_C 	C 	0.4322	0.2758	0.2863	0.104
Mof_C 	C 	0.2748	0.5998	0.4289	0.094
Mof_H 	H 	0.2613	0.5657	0.4054	-0.089
Mof_C 	C 	0.2677	0.6909	0.4284	-0.149
Mof_H 	H 	0.249	0.72	0.4061	0.088
Mof_C 	C 	0.2895	0.7403	0.463	0.084
Mof_C 	C 	0.3157	0.6945	0.4948	-0.146
Mof_H 	H 	0.3316	0.7264	0.518	0.098
Mof_C 	C 	0.3178	0.6009	0.4918	0.094
Mof_H 	H 	0.334	0.5683	0.5146	-0.069
Mof_C 	C 	0.1797	0.1507	0.3834	0.135
Mof_H 	H 	0.1769	0.2154	0.3846	-0.008
Mof_C 	C 	0.1796	0.9757	0.8866	-0.038
Mof_H 	H 	0.1758	0.9114	0.888	0.041
Mof_C 	C 	0.2107	0.1097	0.4126	-0.224
Mof_H 	H 	0.2292	0.145	0.4328	0.149
Mof_C 	C 	0.2138	0.0165	0.4114	0.207
Mof_C 	C 	0.1877	0.9672	0.3814	-0.293
Mof_H 	H 	0.1896	0.9024	0.38	0.162
Mof_C 	C 	0.1588	0.015	0.3536	0.226
Mof_H 	H 	0.1408	0.981	0.3325	-0.051
Mof_C 	C 	0.3609	0.0257	0.6056	0.212
Mof_H 	H 	0.375	0.9923	0.6292	-0.066
Mof_C 	C 	0.3442	0.9775	0.5711	-0.283
Mof_H 	H 	0.3484	0.9133	0.57	0.15
Mof_C 	C 	0.3205	0.0241	0.5371	0.165
Mof_C 	C 	0.3172	0.1169	0.5397	-0.18
Mof_H 	H 	0.3016	0.1507	0.517	0.125
Mof_C 	C 	0.3371	0.1626	0.5761	0.089
Mof_H 	H 	0.3349	0.2274	0.5777	0.012
Mof_C 	C 	0.2834	0.8427	0.4655	0.104
Mof_C 	C 	0.2463	0.9697	0.4424	0.018
Mof_C 	C 	0.2973	0.9725	0.5006	0.026
Mof_C 	C 	0.4362	0.0459	0.714	0.106
Mof_H 	H 	0.4556	0.0708	0.7012	-0.025
Mof_C 	C 	0.4475	0.9742	0.7415	-0.165
Mof_H 	H 	0.4746	0.9515	0.7481	0.092
Mof_C 	C 	0.419	0.9363	0.7592	0.094
Mof_C 	C 	0.3809	0.973	0.7511	-0.186
Mof_H 	H 	0.3618	0.9507	0.7649	0.101
Mof_C 	C 	0.3703	0.043	0.7226	0.136
Mof_H 	H 	0.3429	0.0645	0.7154	-0.024
Mof_C 	C 	0.5361	0.5234	0.8282	0.077
Mof_H 	H 	0.5393	0.4684	0.8437	-0.002
Mof_C 	C 	0.5043	0.583	0.8288	-0.12
Mof_H 	H 	0.4861	0.5678	0.845	0.09
Mof_C 	C 	0.4985	0.6622	0.807	0.061
Mof_C 	C 	0.5249	0.6814	0.7827	-0.118
Mof_H 	H 	0.5221	0.7354	0.7665	0.077
Mof_C 	C 	0.5554	0.6181	0.7833	0.069
Mof_H 	H 	0.5732	0.6289	0.7661	-0.003
Mof_C 	C 	0.3307	0.7796	0.8905	0.132
Mof_H 	H 	0.3051	0.8092	0.8867	0.063
Mof_C 	C 	0.3534	0.793	0.8612	-0.133
Mof_H 	H 	0.342	0.8264	0.8368	0.094
Mof_C 	C 	0.3913	0.7582	0.868	0.078
Mof_C 	C 	0.403	0.6966	0.8993	-0.119
Mof_H 	H 	0.4264	0.6591	0.9022	0.092
Mof_C 	C 	0.3785	0.6915	0.927	0.092
Mof_H 	H 	0.3885	0.6577	0.9515	0.035
Mof_C 	C 	0.4285	0.8556	0.7878	0.093
Mof_C 	C 	0.4657	0.7298	0.81	0.112
Mof_C 	C 	0.4166	0.7744	0.8387	0.116
Mof_C 	C 	0.3235	0.5261	0.9957	0.073
Mof_H 	H 	0.3424	0.5562	0.0175	0.039
Mof_C 	C 	0.3186	0.4308	0.9961	-0.113
Mof_H 	H 	0.3348	0.3966	0.0183	0.087
Mof_C 	C 	0.2915	0.3859	0.9659	0.064
Mof_C 	C 	0.269	0.4384	0.9338	-0.116
Mof_H 	H 	0.2502	0.4094	0.9116	0.093
Mof_C 	C 	0.2737	0.5337	0.9334	0.091
Mof_H 	H 	0.2576	0.5694	0.9117	0.084
Mof_C 	C 	0.3414	0.9693	0.0787	-0.022
Mof_H 	H 	0.3398	0.9044	0.0803	0.032
Mof_C 	C 	0.3215	0.01	0.0427	0.01
Mof_H 	H 	0.3071	0.9744	0.0201	0.034
Mof_C 	C 	0.323	0.1043	0.0401	0.011
Mof_C 	C 	0.3457	0.1535	0.0737	-0.063
Mof_H 	H 	0.3478	0.2184	0.0727	0.086
Mof_C 	C 	0.3655	0.1044	0.1089	0.05
Mof_H 	H 	0.3814	0.1372	0.1318	0.028
Mof_C 	C 	0.1615	0.1152	0.8535	0.058
Mof_H 	H 	0.1453	0.1486	0.831	0.006
Mof_C 	C 	0.1909	0.1604	0.882	-0.077
Mof_H 	H 	0.1938	0.2248	0.8797	0.089
Mof_C 	C 	0.2164	0.1139	0.9142	0.011
Mof_C 	C 	0.2101	0.0172	0.9155	0.014
Mof_H 	H 	0.2272	0.9815	0.9365	0.035
Mof_C 	C 	0.2855	0.2859	0.9683	0.102
Mof_C 	C 	0.2998	0.1535	0.0034	0.124
Mof_C 	C 	0.2497	0.1582	0.9451	0.128
Mof_N 	N 	0.5598	0.5962	0.3046	-0.264
Mof_N 	N 	0.3441	0.3954	0.4203	-0.373
Mof_N 	N 	0.4053	0.051	0.2047	-0.249
Mof_N 	N 	0.4481	0.4162	0.3395	-0.135
Mof_N 	N 	0.4087	0.2844	0.3132	-0.131
Mof_N 	N 	0.4616	0.3342	0.283	-0.134
Mof_N 	N 	0.2991	0.5537	0.4595	-0.422
Mof_N 	N 	0.1537	0.1059	0.3537	-0.301
Mof_N 	N 	0.3591	0.1154	0.6089	-0.322
Mof_N 	N 	0.2524	0.8797	0.4369	-0.112
Mof_N 	N 	0.2685	0.0186	0.4749	-0.104
Mof_N 	N 	0.3066	0.8841	0.4975	-0.117
Mof_N 	N 	0.3975	0.0814	0.7049	-0.298
Mof_N 	N 	0.5613	0.5425	0.8065	-0.267
Mof_N 	N 	0.3437	0.7298	0.9211	-0.105
Mof_N 	N 	0.459	0.8004	0.7832	-0.139
Mof_N 	N 	0.4464	0.7146	0.8384	-0.13
Mof_N 	N 	0.4067	0.8458	0.8141	-0.135
Mof_N 	N 	0.3012	0.574	0.964	-0.153
Mof_N 	N 	0.3629	0.0132	0.1115	-0.223
Mof_N 	N 	0.1548	0.0246	0.8562	-0.225
Mof_N 	N 	0.3092	0.2424	0.001	-0.134
Mof_N 	N 	0.2697	0.1084	0.9761	-0.139
Mof_N 	N 	0.2555	0.2477	0.9391	-0.136
Mof_Zn	Zn	0.61083	0.67375	0.30874	1.184
Mof_Br	Br	0.63026	0.6445	0.24776	-0.292
Mof_Br	Br	0.60033	0.815	0.3374	-0.202
Mof_Zn	Zn	0.3064	0.4116	0.4584	-3.73
Mof_Br	Br	0.244	0.344	0.4261	-0.739
Mof_Br	Br	0.3426	0.3728	0.5249	-0.602
Mof_Zn	Zn	0.11127	0.95903	0.81112	1.185
Mof_Br	Br	0.09733	0.82059	0.8408	-0.482
Mof_Br	Br	0.13279	0.97483	0.75114	-0.483
Mof_Zn	Zn	0.37831	0.18587	0.66336	0.746
Mof_Br	Br	0.3177	0.24645	0.67478	0.155
Mof_Br	Br	0.43487	0.27516	0.66205	-0.582
Mof_Zn	Zn	0.31286	0.7166	0.9674	-3.398
Mof_Br	Br	0.25018	0.7906	0.9409	-0.027
Mof_Br	Br	0.3539	0.7504	0.03255	-0.145
Mof_Zn	Zn	0.3945	0.9474	0.164	0.576
Mof_Br	Br	0.3472	0.8499	0.1859	-0.099
Mof_Br	Br	0.4537	0.8891	0.1501	-0.307
Mof_Br	Br	0.6339	0.676	0.2515	-0.141
Mof_Br	Br	0.6008	0.8065	0.3462	-0.242
Mof_Zn	Zn	0.2969	0.413	0.4492	3.757
Mof_Br	Br	0.2337	0.3647	0.4068	0.28
Mof_Br	Br	0.3228	0.3602	0.5151	-0.531
Mof_Zn	Zn	0.3197	0.4157	0.4718	2.534
Mof_Br	Br	0.2596	0.3303	0.4502	-0.418
Mof_Br	Br	0.3631	0.3861	0.5362	0.302
Mof_Zn	Zn	0.3947	0.187	0.6617	0.752
Mof_Br	Br	0.3447	0.2736	0.6847	-0.703
Mof_Br	Br	0.4583	0.23	0.6488	-0.028
Mof_Zn	Zn	0.2958	0.7114	0.9439	-6.211
Mof_Br	Br	0.2384	0.7632	0.8947	0.186
Mof_Br	Br	0.3187	0.773	0.01	0.087
Mof_Zn	Zn	0.3022	0.7133	0.9542	9.352
Mof_Br	Br	0.2395	0.774	0.9179	-0.215
Mof_Br	Br	0.3321	0.7605	0.0205	-0.07
Mof_Zn	Zn	0.3883	0.937	0.1622	0.566
Mof_Br	Br	0.3323	0.8702	0.1772	-0.356
Mof_Br	Br	0.4525	0.882	0.1621	-0.126
Mof_C 	C 	0.0373	0.1041	0.3311	0.068
Mof_H 	H 	0.0429	0.1547	0.3494	-0.004
Mof_C 	C 	0.0063	0.0451	0.3345	-0.083
Mof_H 	H 	0.9906	0.0554	0.3536	0.079
Mof_C 	C 	0.9997	0.9702	0.3084	0.039
Mof_C 	C 	0.0212	0.9629	0.278	-0.124
Mof_H 	H 	0.0153	0.9143	0.2587	0.089
Mof_C 	C 	0.0508	0.0259	0.2764	0.088
Mof_H 	H 	0.0651	0.021	0.2558	0.008
Mof_C 	C 	0.8307	0.8477	0.3849	0.049
Mof_H 	H 	0.8037	0.824	0.3779	-0.043
Mof_C 	C 	0.8546	0.8336	0.3601	-0.116
Mof_H 	H 	0.8451	0.7954	0.3368	0.085
Mof_C 	C 	0.8917	0.8714	0.3667	0.057
Mof_C 	C 	0.9063	0.917	0.403	-0.109
Mof_H 	H 	0.9331	0.9413	0.4091	0.071
Mof_C 	C 	0.8838	0.928	0.4308	0.033
Mof_H 	H 	0.8949	0.9577	0.4563	-0.057
Mof_C 	C 	0.9437	0.5919	0.2131	0.051
Mof_H 	H 	0.9636	0.569	0.2004	0.009
Mof_C 	C 	0.9532	0.6644	0.2395	-0.095
Mof_H 	H 	0.9794	0.6922	0.2449	0.081
Mof_C 	C 	0.9237	0.6973	0.2585	0.048
Mof_C 	C 	0.8846	0.6566	0.2487	-0.114
Mof_H 	H 	0.8636	0.6782	0.2602	0.085
Mof_C 	C 	0.8784	0.5832	0.2213	0.087
Mof_H 	H 	0.8523	0.555	0.2146	-0.002
Mof_C 	C 	0.9673	0.9044	0.3101	0.116
Mof_C 	C 	0.9183	0.857	0.3381	0.116
Mof_C 	C 	0.9322	0.7758	0.2863	0.103
Mof_C 	C 	0.7748	0.0998	0.4289	0.095
Mof_H 	H 	0.7613	0.0657	0.4054	-0.083
Mof_C 	C 	0.7677	0.1909	0.4284	-0.146
Mof_H 	H 	0.749	0.22	0.4061	0.09
Mof_C 	C 	0.7895	0.2403	0.463	0.084
Mof_C 	C 	0.8157	0.1945	0.4948	-0.144
Mof_H 	H 	0.8316	0.2264	0.518	0.1
Mof_C 	C 	0.8178	0.1009	0.4918	0.095
Mof_H 	H 	0.834	0.0683	0.5146	-0.062
Mof_C 	C 	0.6797	0.6507	0.3834	0.091
Mof_H 	H 	0.6769	0.7154	0.3846	0.005
Mof_C 	C 	0.6796	0.4757	0.8866	0.064
Mof_H 	H 	0.6758	0.4114	0.888	0.011
Mof_C 	C 	0.7107	0.6097	0.4126	-0.149
Mof_H 	H 	0.7292	0.645	0.4328	0.123
Mof_C 	C 	0.7138	0.5165	0.4114	0.085
Mof_C 	C 	0.6877	0.4672	0.3814	-0.135
Mof_H 	H 	0.6896	0.4024	0.38	0.112
Mof_C 	C 	0.6588	0.515	0.3536	0.091
Mof_H 	H 	0.6408	0.481	0.3325	0.01
Mof_C 	C 	0.8609	0.5257	0.6056	0.078
Mof_H 	H 	0.875	0.4923	0.6292	-0.005
Mof_C 	C 	0.8442	0.4775	0.5711	-0.133
Mof_H 	H 	0.8484	0.4133	0.57	0.103
Mof_C 	C 	0.8205	0.5241	0.5371	0.052
Mof_C 	C 	0.8172	0.6169	0.5397	-0.113
Mof_H 	H 	0.8016	0.6507	0.517	0.102
Mof_C 	C 	0.8371	0.6626	0.5761	0.05
Mof_H 	H 	0.8349	0.7274	0.5777	0.024
Mof_C 	C 	0.7834	0.3427	0.4655	0.109
Mof_C 	C 	0.7463	0.4697	0.4424	0.087
Mof_C 	C 	0.7973	0.4725	0.5006	0.093
Mof_C 	C 	0.9362	0.5459	0.714	0.05
Mof_H 	H 	0.9556	0.5708	0.7012	-0.012
Mof_C 	C 	0.9475	0.4742	0.7415	-0.101
Mof_H 	H 	0.9746	0.4515	0.7481	0.077
Mof_C 	C 	0.919	0.4363	0.7592	0.055
Mof_C 	C 	0.8809	0.473	0.7511	-0.122
Mof_H 	H 	0.8618	0.4507	0.7649	0.085
Mof_C 	C 	0.8703	0.543	0.7226	0.079
Mof_H 	H 	0.8429	0.5645	0.7154	-0.012
Mof_C 	C 	0.0361	0.0234	0.8282	0.133
Mof_H 	H 	0.0393	0.9684	0.8437	-0.037
Mof_C 	C 	0.0043	0.083	0.8288	-0.149
Mof_H 	H 	0.9861	0.0678	0.845	0.104
Mof_C 	C 	0.9985	0.1622	0.807	0.077
Mof_C 	C 	0.0249	0.1814	0.7827	-0.128
Mof_H 	H 	0.0221	0.2354	0.7665	0.082
Mof_C 	C 	0.0554	0.1181	0.7833	0.078
Mof_H 	H 	0.0732	0.1289	0.7661	0
Mof_C 	C 	0.8307	0.2796	0.8905	0.134
Mof_H 	H 	0.8051	0.3092	0.8867	0.064
Mof_C 	C 	0.8534	0.293	0.8612	-0.133
Mof_H 	H 	0.842	0.3264	0.8368	0.096
Mof_C 	C 	0.8913	0.2582	0.868	0.08
Mof_C 	C 	0.903	0.1966	0.8993	-0.118
Mof_H 	H 	0.9264	0.1591	0.9022	0.094
Mof_C 	C 	0.8785	0.1915	0.927	0.094
Mof_H 	H 	0.8885	0.1577	0.9515	0.036
Mof_C 	C 	0.9285	0.3556	0.7878	0.107
Mof_C 	C 	0.9657	0.2298	0.81	0.108
Mof_C 	C 	0.9166	0.2744	0.8387	0.117
Mof_C 	C 	0.8235	0.0261	0.9957	0.126
Mof_H 	H 	0.8424	0.0562	0.0175	0.026
Mof_C 	C 	0.8186	0.9308	0.9961	-0.176
Mof_H 	H 	0.8348	0.8966	0.0183	0.102
Mof_C 	C 	0.7915	0.8859	0.9659	0.102
Mof_C 	C 	0.769	0.9384	0.9338	-0.179
Mof_H 	H 	0.7502	0.9094	0.9116	0.108
Mof_C 	C 	0.7737	0.0337	0.9334	0.144
Mof_H 	H 	0.7576	0.0694	0.9117	0.07
Mof_C 	C 	0.8414	0.4693	0.0787	0.086
Mof_H 	H 	0.8398	0.4044	0.0803	-0.001
Mof_C 	C 	0.8215	0.51	0.0427	-0.121
Mof_H 	H 	0.8071	0.4744	0.0201	0.092
Mof_C 	C 	0.823	0.6043	0.0401	0.064
Mof_C 	C 	0.8457	0.6535	0.0737	-0.101
Mof_H 	H 	0.8478	0.7184	0.0727	0.096
Mof_C 	C 	0.8655	0.6044	0.1089	0.069
Mof_H 	H 	0.8814	0.6372	0.1318	0.02
Mof_C 	C 	0.6615	0.6152	0.8535	0.078
Mof_H 	H 	0.6453	0.6486	0.831	-0.003
Mof_C 	C 	0.6909	0.6604	0.882	-0.113
Mof_H 	H 	0.6938	0.7248	0.8797	0.098
Mof_C 	C 	0.7164	0.6139	0.9142	0.057
Mof_C 	C 	0.7101	0.5172	0.9155	-0.107
Mof_H 	H 	0.7272	0.4815	0.9365	0.09
Mof_C 	C 	0.7855	0.7859	0.9683	0.087
Mof_C 	C 	0.7998	0.6535	0.0034	0.103
Mof_C 	C 	0.7497	0.6582	0.9451	0.109
Mof_N 	N 	0.0598	0.0962	0.3046	-0.265
Mof_N 	N 	0.8441	0.8954	0.4203	-0.375
Mof_N 	N 	0.9053	0.551	0.2047	-0.255
Mof_N 	N 	0.9481	0.9162	0.3395	-0.139
Mof_N 	N 	0.9087	0.7844	0.3132	-0.132
Mof_N 	N 	0.9616	0.8342	0.283	-0.135
Mof_N 	N 	0.7991	0.0537	0.4595	-0.414
Mof_N 	N 	0.6537	0.6059	0.3537	-0.271
Mof_N 	N 	0.8591	0.6154	0.6089	-0.293
Mof_N 	N 	0.7524	0.3797	0.4369	-0.123
Mof_N 	N 	0.7685	0.5186	0.4749	-0.142
Mof_N 	N 	0.8066	0.3841	0.4975	-0.127
Mof_N 	N 	0.8975	0.5814	0.7049	-0.284
Mof_N 	N 	0.0613	0.0425	0.8065	-0.271
Mof_N 	N 	0.8437	0.2298	0.9211	-0.105
Mof_N 	N 	0.959	0.3004	0.7832	-0.14
Mof_N 	N 	0.9464	0.2146	0.8384	-0.129
Mof_N 	N 	0.9067	0.3458	0.8141	-0.136
Mof_N 	N 	0.8012	0.074	0.964	-0.168
Mof_N 	N 	0.8629	0.5132	0.1115	-0.26
Mof_N 	N 	0.6548	0.5246	0.8562	-0.259
Mof_N 	N 	0.8092	0.7424	0.001	-0.13
Mof_N 	N 	0.7697	0.6084	0.9761	-0.138
Mof_N 	N 	0.7555	0.7477	0.9391	-0.132
Mof_Zn	Zn	0.11083	0.17375	0.30874	1.185
Mof_Br	Br	0.13026	0.1445	0.24776	-0.292
Mof_Br	Br	0.10033	0.315	0.3374	-0.198
Mof_Zn	Zn	0.8064	0.9116	0.4584	-3.719
Mof_Br	Br	0.744	0.844	0.4261	-0.748
Mof_Br	Br	0.8426	0.8728	0.5249	-0.609
Mof_Zn	Zn	0.61127	0.45903	0.81112	1.19
Mof_Br	Br	0.59733	0.32059	0.8408	-0.474
Mof_Br	Br	0.63279	0.47483	0.75114	-0.469
Mof_Zn	Zn	0.87831	0.68587	0.66336	0.746
Mof_Br	Br	0.8177	0.74645	0.67478	0.143
Mof_Br	Br	0.93487	0.77516	0.66205	-0.585
Mof_Zn	Zn	0.81286	0.2166	0.9674	-3.399
Mof_Br	Br	0.75018	0.2906	0.9409	-0.03
Mof_Br	Br	0.8539	0.2504	0.03255	-0.139
Mof_Zn	Zn	0.8945	0.4474	0.164	0.575
Mof_Br	Br	0.8472	0.3499	0.1859	-0.084
Mof_Br	Br	0.9537	0.3891	0.1501	-0.303
Mof_Br	Br	0.1339	0.176	0.2515	-0.134
Mof_Br	Br	0.1008	0.3065	0.3462	-0.239
Mof_Zn	Zn	0.7969	0.913	0.4492	3.745
Mof_Br	Br	0.7337	0.8647	0.4068	0.276
Mof_Br	Br	0.8228	0.8602	0.5151	-0.527
Mof_Zn	Zn	0.8197	0.9157	0.4718	2.526
Mof_Br	Br	0.7596	0.8303	0.4502	-0.412
Mof_Br	Br	0.8631	0.8861	0.5362	0.295
Mof_Zn	Zn	0.8947	0.687	0.6617	0.751
Mof_Br	Br	0.8447	0.7736	0.6847	-0.703
Mof_Br	Br	0.9583	0.73	0.6488	-0.033
Mof_Zn	Zn	0.7958	0.2114	0.9439	-6.213
Mof_Br	Br	0.7384	0.2632	0.8947	0.189
Mof_Br	Br	0.8187	0.273	0.01	0.084
Mof_Zn	Zn	0.8022	0.2133	0.9542	9.355
Mof_Br	Br	0.7395	0.274	0.9179	-0.212
Mof_Br	Br	0.8321	0.2605	0.0205	-0.067
Mof_Zn	Zn	0.8883	0.437	0.1622	0.574
Mof_Br	Br	0.8323	0.3702	0.1772	-0.356
Mof_Br	Br	0.9525	0.382	0.1621	-0.12
_end
