data_functionalizedCrystal
_audit_creation_method	'EQeq! by Chris Wilmer'
_symmetry_space_group_name_H-M	'P1'
_symmetry_Int_Tables_number	1
_symmetry_cell_setting	triclinic
loop_
_symmetry_equiv_pos_as_xyz
  x,y,z
_cell_length_a	22.6497
_cell_length_b	22.6497
_cell_length_c	7.451
_cell_angle_alpha	90
_cell_angle_beta	90
_cell_angle_gamma	120
loop_
_atom_site_label
_atom_site_type_symbol
_atom_site_fract_x
_atom_site_fract_y
_atom_site_fract_z
_atom_site_charge
Mof_C 	C 	0.7893	0.1509	0.5213	-0.033
Mof_H 	H 	0.7581	0.1387	0.4225	0.031
Mof_C 	C 	0.7833	0.1582	0.7804	-0.03
Mof_H 	H 	0.7477	0.1517	0.8619	0.036
Mof_C 	C 	0.45597	0.48423	0.85463	-0.043
Mof_H 	H 	0.42477	0.47203	0.75583	0.038
Mof_C 	C 	0.44997	0.49153	0.11373	-0.046
Mof_H 	H 	0.41437	0.48503	0.19523	0.038
Mof_C 	C 	0.12263	0.81757	0.18797	-0.034
Mof_H 	H 	0.09143	0.80537	0.08917	0.028
Mof_C 	C 	0.11663	0.82487	0.44707	-0.03
Mof_H 	H 	0.08103	0.81837	0.52857	0.03
Mof_C 	C 	0.8491	0.6384	0.5213	-0.03
Mof_H 	H 	0.8613	0.6194	0.4225	0.035
Mof_C 	C 	0.8418	0.6251	0.7804	-0.027
Mof_H 	H 	0.8483	0.596	0.8619	0.037
Mof_C 	C 	0.51577	0.97173	0.85463	0.02
Mof_H 	H 	0.52797	0.95273	0.75583	0.024
Mof_C 	C 	0.50847	0.95843	0.11373	0.019
Mof_H 	H 	0.51497	0.92933	0.19523	0.023
Mof_C 	C 	0.18243	0.30507	0.18797	-0.032
Mof_H 	H 	0.19463	0.28607	0.08917	0.031
Mof_C 	C 	0.17513	0.29177	0.44707	-0.029
Mof_H 	H 	0.18163	0.26267	0.52857	0.035
Mof_C 	C 	0.3616	0.2107	0.5213	-0.032
Mof_H 	H 	0.3806	0.2419	0.4225	0.032
Mof_C 	C 	0.3749	0.2167	0.7804	-0.028
Mof_H 	H 	0.404	0.2523	0.8619	0.036
Mof_C 	C 	0.02827	0.54403	0.85463	-0.098
Mof_H 	H 	0.04727	0.57523	0.75583	0.049
Mof_C 	C 	0.04157	0.55003	0.11373	-0.103
Mof_H 	H 	0.07067	0.58563	0.19523	0.051
Mof_C 	C 	0.69493	0.87737	0.18797	-0.031
Mof_H 	H 	0.71393	0.90857	0.08917	0.037
Mof_C 	C 	0.70823	0.88337	0.44707	-0.028
Mof_H 	H 	0.73733	0.91897	0.52857	0.041
Mof_C 	C 	0.1509	0.7893	0.4787	-0.034
Mof_H 	H 	0.1387	0.7581	0.5775	0.033
Mof_C 	C 	0.1582	0.7833	0.2196	-0.032
Mof_H 	H 	0.1517	0.7477	0.1381	0.031
Mof_C 	C 	0.81757	0.12263	0.81203	-0.033
Mof_H 	H 	0.80537	0.09143	0.91083	0.032
Mof_C 	C 	0.82487	0.11663	0.55293	-0.03
Mof_H 	H 	0.81837	0.08103	0.47143	0.028
Mof_C 	C 	0.48423	0.45597	0.14537	-0.022
Mof_H 	H 	0.47203	0.42477	0.24417	0.03
Mof_C 	C 	0.49153	0.44997	0.88627	-0.012
Mof_H 	H 	0.48503	0.41437	0.80477	0.03
Mof_C 	C 	0.6384	0.8491	0.4787	-0.03
Mof_H 	H 	0.6194	0.8613	0.5775	0.037
Mof_C 	C 	0.6251	0.8418	0.2196	-0.027
Mof_H 	H 	0.596	0.8483	0.1381	0.034
Mof_C 	C 	0.30507	0.18243	0.81203	-0.031
Mof_H 	H 	0.28607	0.19463	0.91083	0.036
Mof_C 	C 	0.29177	0.17513	0.55293	-0.029
Mof_H 	H 	0.26267	0.18163	0.47143	0.033
Mof_C 	C 	0.97173	0.51577	0.14537	0.034
Mof_H 	H 	0.95273	0.52797	0.24417	0.018
Mof_C 	C 	0.95843	0.50847	0.88627	0.045
Mof_H 	H 	0.92933	0.51497	0.80477	0.017
Mof_C 	C 	0.2107	0.3616	0.4787	-0.032
Mof_H 	H 	0.2419	0.3806	0.5775	0.034
Mof_C 	C 	0.2167	0.3749	0.2196	-0.029
Mof_H 	H 	0.2523	0.404	0.1381	0.032
Mof_C 	C 	0.87737	0.69493	0.81203	-0.031
Mof_H 	H 	0.90857	0.71393	0.91083	0.04
Mof_C 	C 	0.88337	0.70823	0.55293	-0.029
Mof_H 	H 	0.91897	0.73733	0.47143	0.039
Mof_C 	C 	0.54403	0.02827	0.14537	-0.085
Mof_H 	H 	0.57523	0.04727	0.24417	0.043
Mof_C 	C 	0.55003	0.04157	0.88627	-0.075
Mof_H 	H 	0.58563	0.07067	0.80477	0.045
Mof_C 	C 	0.2107	0.8491	0.4787	-0.03
Mof_H 	H 	0.2419	0.8613	0.5775	0.037
Mof_C 	C 	0.2167	0.8418	0.2196	-0.027
Mof_H 	H 	0.2523	0.8483	0.1381	0.034
Mof_C 	C 	0.87737	0.18243	0.81203	-0.031
Mof_H 	H 	0.90857	0.19463	0.91083	0.04
Mof_C 	C 	0.88337	0.17513	0.55293	-0.028
Mof_H 	H 	0.91897	0.18163	0.47143	0.039
Mof_C 	C 	0.54403	0.51577	0.14537	-0.022
Mof_H 	H 	0.57523	0.52797	0.24417	0.03
Mof_C 	C 	0.55003	0.50847	0.88627	-0.012
Mof_H 	H 	0.58563	0.51497	0.80477	0.03
Mof_C 	C 	0.1509	0.3616	0.4787	-0.034
Mof_H 	H 	0.1387	0.3806	0.5775	0.032
Mof_C 	C 	0.1582	0.3749	0.2196	-0.031
Mof_H 	H 	0.1517	0.404	0.1381	0.031
Mof_C 	C 	0.81757	0.69493	0.81203	-0.032
Mof_H 	H 	0.80537	0.71393	0.91083	0.036
Mof_C 	C 	0.82487	0.70823	0.55293	-0.03
Mof_H 	H 	0.81837	0.73733	0.47143	0.034
Mof_C 	C 	0.48423	0.02827	0.14537	-0.086
Mof_H 	H 	0.47203	0.04727	0.24417	0.043
Mof_C 	C 	0.49153	0.04157	0.88627	-0.076
Mof_H 	H 	0.48503	0.07067	0.80477	0.045
Mof_C 	C 	0.6384	0.7893	0.4787	-0.032
Mof_H 	H 	0.6194	0.7581	0.5775	0.035
Mof_C 	C 	0.6251	0.7833	0.2196	-0.03
Mof_H 	H 	0.596	0.7477	0.1381	0.033
Mof_C 	C 	0.30507	0.12263	0.81203	-0.033
Mof_H 	H 	0.28607	0.09143	0.91083	0.031
Mof_C 	C 	0.29177	0.11663	0.55293	-0.03
Mof_H 	H 	0.26267	0.08103	0.47143	0.028
Mof_C 	C 	0.97173	0.45597	0.14537	0.035
Mof_H 	H 	0.95273	0.42477	0.24417	0.018
Mof_C 	C 	0.95843	0.44997	0.88627	0.046
Mof_H 	H 	0.92933	0.41437	0.80477	0.017
Mof_C 	C 	0.8491	0.2107	0.5213	-0.03
Mof_H 	H 	0.8613	0.2419	0.4225	0.035
Mof_C 	C 	0.8418	0.2167	0.7804	-0.026
Mof_H 	H 	0.8483	0.2523	0.8619	0.037
Mof_C 	C 	0.51577	0.54403	0.85463	-0.043
Mof_H 	H 	0.52797	0.57523	0.75583	0.038
Mof_C 	C 	0.50847	0.55003	0.11373	-0.046
Mof_H 	H 	0.51497	0.58563	0.19523	0.038
Mof_C 	C 	0.18243	0.87737	0.18797	-0.031
Mof_H 	H 	0.19463	0.90857	0.08917	0.037
Mof_C 	C 	0.17513	0.88337	0.44707	-0.028
Mof_H 	H 	0.18163	0.91897	0.52857	0.041
Mof_C 	C 	0.3616	0.1509	0.5213	-0.034
Mof_H 	H 	0.3806	0.1387	0.4225	0.03
Mof_C 	C 	0.3749	0.1582	0.7804	-0.031
Mof_H 	H 	0.404	0.1517	0.8619	0.034
Mof_C 	C 	0.02827	0.48423	0.85463	-0.099
Mof_H 	H 	0.04727	0.47203	0.75583	0.05
Mof_C 	C 	0.04157	0.49153	0.11373	-0.104
Mof_H 	H 	0.07067	0.48503	0.19523	0.052
Mof_C 	C 	0.69493	0.81757	0.18797	-0.033
Mof_H 	H 	0.71393	0.80537	0.08917	0.032
Mof_C 	C 	0.70823	0.82487	0.44707	-0.03
Mof_H 	H 	0.73733	0.81837	0.52857	0.035
Mof_C 	C 	0.7893	0.6384	0.5213	-0.032
Mof_H 	H 	0.7581	0.6194	0.4225	0.033
Mof_C 	C 	0.7833	0.6251	0.7804	-0.029
Mof_H 	H 	0.7477	0.596	0.8619	0.036
Mof_C 	C 	0.45597	0.97173	0.85463	0.02
Mof_H 	H 	0.42477	0.95273	0.75583	0.024
Mof_C 	C 	0.44997	0.95843	0.11373	0.02
Mof_H 	H 	0.41437	0.92933	0.19523	0.023
Mof_C 	C 	0.12263	0.30507	0.18797	-0.033
Mof_H 	H 	0.09143	0.28607	0.08917	0.027
Mof_C 	C 	0.11663	0.29177	0.44707	-0.03
Mof_H 	H 	0.08103	0.26267	0.52857	0.03
Mof_Fe	Fe	0.66667	0.33333	0.33333	0.622
Mof_Fe	Fe	0.33333	0.66667	0.66667	0.625
Mof_Fe	Fe	-0	0	-0	0.539
Mof_Fe	Fe	0.66667	0.33333	0.83333	0.741
Mof_Fe	Fe	0.33333	0.66667	0.16667	0.738
Mof_Fe	Fe	-3.81286e-33	0	0.5	0.658
Mof_N 	N 	0.74372	0.25628	0.4635	-0.162
Mof_N 	N 	0.71097	0.28903	0.509	-0.101
Mof_N 	N 	0.70802	0.29198	0.6868	-0.125
Mof_N 	N 	0.73927	0.26073	0.763	-0.158
Mof_C 	C 	0.798	0.202	0.6424	-0.018
Mof_C 	C 	0.76095	0.23905	0.6185	0.12
Mof_N 	N 	0.41039	0.58961	0.79683	-0.161
Mof_N 	N 	0.37764	0.62236	0.84233	-0.097
Mof_N 	N 	0.37469	0.62531	0.02013	-0.128
Mof_N 	N 	0.40594	0.59406	0.09633	-0.161
Mof_C 	C 	0.46467	0.53533	0.97573	0.009
Mof_C 	C 	0.42762	0.57238	0.95183	0.119
Mof_N 	N 	0.07705	0.92295	0.13017	-0.162
Mof_N 	N 	0.0443	0.9557	0.17567	-0.091
Mof_N 	N 	0.04135	0.95865	0.35347	-0.112
Mof_N 	N 	0.0726	0.9274	0.42967	-0.158
Mof_C 	C 	0.13133	0.86867	0.30907	-0.018
Mof_C 	C 	0.09428	0.90572	0.28517	0.12
Mof_N 	N 	0.74372	0.48744	0.4635	-0.162
Mof_N 	N 	0.71097	0.42194	0.509	-0.1
Mof_N 	N 	0.70802	0.41604	0.6868	-0.125
Mof_N 	N 	0.73927	0.47854	0.763	-0.158
Mof_C 	C 	0.798	0.596	0.6424	-0.018
Mof_C 	C 	0.76095	0.5219	0.6185	0.121
Mof_N 	N 	0.41039	0.82077	0.79683	-0.168
Mof_N 	N 	0.37764	0.75527	0.84233	-0.097
Mof_N 	N 	0.37469	0.74937	0.02013	-0.128
Mof_N 	N 	0.40594	0.81187	0.09633	-0.167
Mof_C 	C 	0.46467	0.92933	0.97573	-0.079
Mof_C 	C 	0.42762	0.85523	0.95183	0.149
Mof_N 	N 	0.07705	0.15411	0.13017	-0.163
Mof_N 	N 	0.0443	0.08861	0.17567	-0.104
Mof_N 	N 	0.04135	0.08271	0.35347	-0.126
Mof_N 	N 	0.0726	0.14521	0.42967	-0.159
Mof_C 	C 	0.13133	0.26267	0.30907	-0.019
Mof_C 	C 	0.09428	0.18857	0.28517	0.115
Mof_N 	N 	0.51256	0.25628	0.4635	-0.162
Mof_N 	N 	0.57806	0.28903	0.509	-0.101
Mof_N 	N 	0.58396	0.29198	0.6868	-0.125
Mof_N 	N 	0.52146	0.26073	0.763	-0.158
Mof_C 	C 	0.404	0.202	0.6424	-0.017
Mof_C 	C 	0.4781	0.23905	0.6185	0.119
Mof_N 	N 	0.17923	0.58961	0.79683	-0.155
Mof_N 	N 	0.24473	0.62236	0.84233	-0.097
Mof_N 	N 	0.25063	0.62531	0.02013	-0.129
Mof_N 	N 	0.18813	0.59406	0.09633	-0.155
Mof_C 	C 	0.07067	0.53533	0.97573	0.085
Mof_C 	C 	0.14477	0.57238	0.95183	0.093
Mof_N 	N 	0.84589	0.92295	0.13017	-0.162
Mof_N 	N 	0.91139	0.9557	0.17567	-0.081
Mof_N 	N 	0.91729	0.95865	0.35347	-0.101
Mof_N 	N 	0.85479	0.9274	0.42967	-0.157
Mof_C 	C 	0.73733	0.86867	0.30907	-0.017
Mof_C 	C 	0.81143	0.90572	0.28517	0.124
Mof_N 	N 	0.25628	0.74372	0.5365	-0.163
Mof_N 	N 	0.28903	0.71097	0.491	-0.101
Mof_N 	N 	0.29198	0.70802	0.3132	-0.125
Mof_N 	N 	0.26073	0.73927	0.237	-0.158
Mof_C 	C 	0.202	0.798	0.3576	-0.018
Mof_C 	C 	0.23905	0.76095	0.3815	0.12
Mof_N 	N 	0.92295	0.07705	0.86983	-0.162
Mof_N 	N 	0.9557	0.0443	0.82433	-0.088
Mof_N 	N 	0.95865	0.04135	0.64653	-0.113
Mof_N 	N 	0.9274	0.0726	0.57033	-0.158
Mof_C 	C 	0.86867	0.13133	0.69093	-0.018
Mof_C 	C 	0.90572	0.09428	0.71483	0.121
Mof_N 	N 	0.58961	0.41039	0.20317	-0.163
Mof_N 	N 	0.62236	0.37764	0.15767	-0.104
Mof_N 	N 	0.62531	0.37469	0.97987	-0.121
Mof_N 	N 	0.59406	0.40594	0.90367	-0.155
Mof_C 	C 	0.53533	0.46467	0.02427	-0.045
Mof_C 	C 	0.57238	0.42762	0.04817	0.119
Mof_N 	N 	0.48744	0.74372	0.5365	-0.163
Mof_N 	N 	0.42194	0.71097	0.491	-0.1
Mof_N 	N 	0.41604	0.70802	0.3132	-0.125
Mof_N 	N 	0.47854	0.73927	0.237	-0.158
Mof_C 	C 	0.596	0.798	0.3576	-0.018
Mof_C 	C 	0.5219	0.76095	0.3815	0.121
Mof_N 	N 	0.15411	0.07705	0.86983	-0.163
Mof_N 	N 	0.08861	0.0443	0.82433	-0.1
Mof_N 	N 	0.08271	0.04135	0.64653	-0.126
Mof_N 	N 	0.14521	0.0726	0.57033	-0.159
Mof_C 	C 	0.26267	0.13133	0.69093	-0.018
Mof_C 	C 	0.18857	0.09428	0.71483	0.116
Mof_N 	N 	0.82077	0.41039	0.20317	-0.169
Mof_N 	N 	0.75527	0.37764	0.15767	-0.104
Mof_N 	N 	0.74937	0.37469	0.97987	-0.121
Mof_N 	N 	0.81187	0.40594	0.90367	-0.16
Mof_C 	C 	0.92933	0.46467	0.02427	-0.121
Mof_C 	C 	0.85523	0.42762	0.04817	0.146
Mof_N 	N 	0.25628	0.51256	0.5365	-0.163
Mof_N 	N 	0.28903	0.57806	0.491	-0.101
Mof_N 	N 	0.29198	0.58396	0.3132	-0.125
Mof_N 	N 	0.26073	0.52146	0.237	-0.158
Mof_C 	C 	0.202	0.404	0.3576	-0.017
Mof_C 	C 	0.23905	0.4781	0.3815	0.119
Mof_N 	N 	0.92295	0.84589	0.86983	-0.162
Mof_N 	N 	0.9557	0.91139	0.82433	-0.077
Mof_N 	N 	0.95865	0.91729	0.64653	-0.101
Mof_N 	N 	0.9274	0.85479	0.57033	-0.157
Mof_C 	C 	0.86867	0.73733	0.69093	-0.017
Mof_C 	C 	0.90572	0.81143	0.71483	0.125
Mof_N 	N 	0.58961	0.17923	0.20317	-0.157
Mof_N 	N 	0.62236	0.24473	0.15767	-0.105
Mof_N 	N 	0.62531	0.25063	0.97987	-0.121
Mof_N 	N 	0.59406	0.18813	0.90367	-0.149
Mof_C 	C 	0.53533	0.07067	0.02427	0.041
Mof_C 	C 	0.57238	0.14477	0.04817	0.089
Mof_H 	H 	0.08575	0.1715	0.0184	0.094
Mof_H 	H 	0.0781	0.1562	0.5471	0.102
Mof_H 	H 	0.75242	0.50483	0.35173	0.099
Mof_H 	H 	0.74477	0.48953	0.88043	0.106
Mof_H 	H 	0.41908	0.83817	0.68507	0.103
Mof_H 	H 	0.41143	0.82287	0.21377	0.107
Mof_H 	H 	0.8285	0.91425	0.0184	0.103
Mof_H 	H 	0.8438	0.9219	0.5471	0.111
Mof_H 	H 	0.49517	0.24758	0.35173	0.098
Mof_H 	H 	0.51047	0.25523	0.88043	0.105
Mof_H 	H 	0.16183	0.58092	0.68507	0.096
Mof_H 	H 	0.17713	0.58857	0.21377	0.1
Mof_H 	H 	0.08575	0.91425	0.0184	0.099
Mof_H 	H 	0.0781	0.9219	0.5471	0.107
Mof_H 	H 	0.75242	0.24758	0.35173	0.098
Mof_H 	H 	0.74477	0.25523	0.88043	0.106
Mof_H 	H 	0.41908	0.58092	0.68507	0.099
Mof_H 	H 	0.41143	0.58857	0.21377	0.103
Mof_H 	H 	0.1715	0.08575	0.9816	0.101
Mof_H 	H 	0.1562	0.0781	0.4529	0.1
Mof_H 	H 	0.83817	0.41908	0.31493	0.104
Mof_H 	H 	0.82287	0.41143	0.78623	0.107
Mof_H 	H 	0.50483	0.75242	0.64827	0.101
Mof_H 	H 	0.48953	0.74477	0.11957	0.102
Mof_H 	H 	0.91425	0.8285	0.9816	0.109
Mof_H 	H 	0.9219	0.8438	0.4529	0.11
Mof_H 	H 	0.58092	0.16183	0.31493	0.096
Mof_H 	H 	0.58857	0.17713	0.78623	0.1
Mof_H 	H 	0.24758	0.49517	0.64827	0.1
Mof_H 	H 	0.25523	0.51047	0.11957	0.102
Mof_H 	H 	0.91425	0.08575	0.9816	0.105
Mof_H 	H 	0.9219	0.0781	0.4529	0.105
Mof_H 	H 	0.58092	0.41908	0.31493	0.1
Mof_H 	H 	0.58857	0.41143	0.78623	0.104
Mof_H 	H 	0.24758	0.75242	0.64827	0.101
Mof_H 	H 	0.25523	0.74477	0.11957	0.102
_end
