data_functionalizedCrystal
_audit_creation_method	'EQeq! by Chris Wilmer'
_symmetry_space_group_name_H-M	'P1'
_symmetry_Int_Tables_number	1
_symmetry_cell_setting	triclinic
loop_
_symmetry_equiv_pos_as_xyz
  x,y,z
_cell_length_a	6.0617
_cell_length_b	23.528
_cell_length_c	13.3601
_cell_angle_alpha	90
_cell_angle_beta	112.658
_cell_angle_gamma	90
loop_
_atom_site_label
_atom_site_type_symbol
_atom_site_fract_x
_atom_site_fract_y
_atom_site_fract_z
_atom_site_charge
Mof_Lu	Lu	0.40019	0.67003	0.39033	2.492
Mof_O 	O 	0.4687	0.74969	0.309	-0.571
Mof_O 	O 	0.3628	0.82669	0.2047	-0.321
Mof_O 	O 	0.8116	0.83724	0.9312	-0.656
Mof_O 	O 	0.1643	0.79357	0.978	-0.638
Mof_O 	O 	0.5043	0.5622	0.1476	-0.383
Mof_O 	O 	0.4015	0.62686	0.2431	-0.662
Mof_O 	O 	0.1375	0.5048	0.2288	-0.305
Mof_O 	O 	0.7905	0.4716	0.1139	-0.373
Mof_N 	N 	0.0217	0.71171	0.2297	-0.233
Mof_N 	N 	0.6828	0.7563	0.04	-0.22
Mof_N 	N 	0.0689	0.6394	0.0058	-0.114
Mof_N 	N 	0.7198	0.5595	0.9853	-0.156
Mof_C 	C 	0.3261	0.7785	0.232	0.374
Mof_C 	C 	0.0812	0.752	0.1727	-0.009
Mof_C 	C 	0.9162	0.7701	0.0726	-0.126
Mof_C 	C 	0.9728	0.804	0.9885	0.522
Mof_C 	C 	0.6253	0.7175	0.0982	0.026
Mof_H 	H 	0.4665	0.7065	0.0772	0.011
Mof_C 	C 	0.7976	0.6931	0.1896	0.034
Mof_H 	H 	0.755	0.6631	0.2236	0.002
Mof_C 	C 	0.3587	0.5937	0.1634	0.471
Mof_C 	C 	0.1092	0.5965	0.0766	-0.06
Mof_C 	C 	0.9329	0.5564	0.0672	-0.056
Mof_C 	C 	0.9603	0.5078	0.1447	0.305
Mof_C 	C 	0.6773	0.601	0.9138	0.011
Mof_H 	H 	0.5296	0.6034	0.8562	0.048
Mof_C 	C 	0.8542	0.6411	0.9247	0.051
Mof_H 	H 	0.8216	0.6701	0.8737	0.035
Mof_Lu	Lu	0.59981	0.17003	0.10967	2.436
Mof_O 	O 	0.5313	0.24969	0.191	-0.569
Mof_O 	O 	0.6372	0.32669	0.2953	-0.317
Mof_O 	O 	0.1884	0.33724	0.5688	-0.651
Mof_O 	O 	0.8357	0.29357	0.522	-0.643
Mof_O 	O 	0.4957	0.0622	0.3524	-0.387
Mof_O 	O 	0.5985	0.12686	0.2569	-0.658
Mof_O 	O 	0.8625	0.0048	0.2712	-0.313
Mof_O 	O 	0.2095	0.9716	0.3861	-0.328
Mof_N 	N 	0.9783	0.21171	0.2703	-0.232
Mof_N 	N 	0.3172	0.2563	0.46	-0.211
Mof_N 	N 	0.9311	0.1394	0.4942	-0.089
Mof_N 	N 	0.2802	0.0595	0.5147	-0.189
Mof_C 	C 	0.6739	0.2785	0.268	0.377
Mof_C 	C 	0.9188	0.252	0.3273	-0.02
Mof_C 	C 	0.0838	0.2701	0.4274	-0.091
Mof_C 	C 	0.0272	0.304	0.5115	0.494
Mof_C 	C 	0.3747	0.2175	0.4018	0.029
Mof_H 	H 	0.5335	0.2065	0.4228	0.019
Mof_C 	C 	0.2024	0.1931	0.3104	0.039
Mof_H 	H 	0.245	0.1631	0.2764	0.002
Mof_C 	C 	0.6413	0.0937	0.3366	0.473
Mof_C 	C 	0.8908	0.0965	0.4234	-0.072
Mof_C 	C 	0.0671	0.0564	0.4328	-0.015
Mof_C 	C 	0.0397	0.0078	0.3553	0.262
Mof_C 	C 	0.3227	0.101	0.5862	0.023
Mof_H 	H 	0.4704	0.1034	0.6438	0.04
Mof_C 	C 	0.1458	0.1411	0.5753	0.008
Mof_H 	H 	0.1784	0.1701	0.6263	0.046
Mof_Lu	Lu	0.59981	0.32997	0.60967	2.494
Mof_O 	O 	0.5313	0.25031	0.691	-0.572
Mof_O 	O 	0.6372	0.17331	0.7953	-0.312
Mof_O 	O 	0.1884	0.16276	0.0688	-0.645
Mof_O 	O 	0.8357	0.20643	0.022	-0.64
Mof_O 	O 	0.4957	0.4378	0.8524	-0.373
Mof_O 	O 	0.5985	0.37314	0.7569	-0.663
Mof_O 	O 	0.8625	0.4952	0.7712	-0.305
Mof_O 	O 	0.2095	0.5284	0.8861	-0.349
Mof_N 	N 	0.9783	0.28829	0.7703	-0.233
Mof_N 	N 	0.3172	0.2437	0.96	-0.202
Mof_N 	N 	0.9311	0.3606	0.9942	-0.063
Mof_N 	N 	0.2802	0.4405	0.0147	-0.21
Mof_C 	C 	0.6739	0.2215	0.768	0.384
Mof_C 	C 	0.9188	0.248	0.8273	-0.03
Mof_C 	C 	0.0838	0.2299	0.9274	-0.052
Mof_C 	C 	0.0272	0.196	0.0115	0.452
Mof_C 	C 	0.3747	0.2825	0.9018	0.032
Mof_H 	H 	0.5335	0.2935	0.9228	0.025
Mof_C 	C 	0.2024	0.3069	0.8104	0.042
Mof_H 	H 	0.245	0.3369	0.7764	0.001
Mof_C 	C 	0.6413	0.4063	0.8366	0.479
Mof_C 	C 	0.8908	0.4035	0.9234	-0.076
Mof_C 	C 	0.0671	0.4436	0.9328	0.018
Mof_C 	C 	0.0397	0.4922	0.8553	0.295
Mof_C 	C 	0.3227	0.399	0.0862	0.04
Mof_H 	H 	0.4704	0.3966	0.1438	0.033
Mof_C 	C 	0.1458	0.3589	0.0753	-0.039
Mof_H 	H 	0.1784	0.3299	0.1263	0.058
Mof_Lu	Lu	0.40019	0.82997	0.89033	2.549
Mof_O 	O 	0.4687	0.75031	0.809	-0.573
Mof_O 	O 	0.3628	0.67331	0.7047	-0.315
Mof_O 	O 	0.8116	0.66276	0.4312	-0.65
Mof_O 	O 	0.1643	0.70643	0.478	-0.638
Mof_O 	O 	0.5043	0.9378	0.6476	-0.37
Mof_O 	O 	0.4015	0.87314	0.7431	-0.667
Mof_O 	O 	0.1375	0.9952	0.7288	-0.293
Mof_O 	O 	0.7905	0.0284	0.6139	-0.392
Mof_N 	N 	0.0217	0.78829	0.7297	-0.234
Mof_N 	N 	0.6828	0.7437	0.54	-0.211
Mof_N 	N 	0.0689	0.8606	0.5058	-0.088
Mof_N 	N 	0.7198	0.9405	0.4853	-0.175
Mof_C 	C 	0.3261	0.7215	0.732	0.38
Mof_C 	C 	0.0812	0.748	0.6727	-0.015
Mof_C 	C 	0.9162	0.7299	0.5726	-0.095
Mof_C 	C 	0.9728	0.696	0.4885	0.488
Mof_C 	C 	0.6253	0.7825	0.5982	0.03
Mof_H 	H 	0.4665	0.7935	0.5772	0.018
Mof_C 	C 	0.7976	0.8069	0.6896	0.035
Mof_H 	H 	0.755	0.8369	0.7236	0.002
Mof_C 	C 	0.3587	0.9063	0.6634	0.475
Mof_C 	C 	0.1092	0.9035	0.5766	-0.06
Mof_C 	C 	0.9329	0.9436	0.5672	-0.027
Mof_C 	C 	0.9603	0.9922	0.6447	0.333
Mof_C 	C 	0.6773	0.899	0.4138	0.027
Mof_H 	H 	0.5296	0.8966	0.3562	0.042
Mof_C 	C 	0.8542	0.8589	0.4247	0.005
Mof_H 	H 	0.8216	0.8299	0.3737	0.046
Mof_Cu	Cu	0.5	0.5	-0	0.911
Mof_Cu	Cu	0.5	3.58909e-33	0.5	0.911
_end
