# CIF file generated by openbabel 3.1.0, see https://openbabel.org
data_I
_chemical_name_common 'image0'
_cell_length_a 13.39
_cell_length_b 24.074
_cell_length_c 13.179
_cell_angle_alpha 90
_cell_angle_beta 90
_cell_angle_gamma 90
_space_group_name_H-M_alt 'P 1'
_space_group_name_Hall 'P 1'
loop_
    _symmetry_equiv_pos_as_xyz
    x,y,z
loop_
    _atom_site_label
    _atom_site_type_symbol
    _atom_site_fract_x
    _atom_site_fract_y
    _atom_site_fract_z
    _atom_site_occupancy
    O1       O        0.29860    0.11240    0.20860    1.000
    O2       O        0.43250    0.06120    0.21180    1.000
    C1       C        0.34130    0.06990    0.23150    1.000
    Sm1      Sm       0.44108    0.84298    0.61653    1.000
    O3       O        0.51300    0.73880    0.62590    1.000
    O4       O        0.35360    0.75740    0.61030    1.000
    C2       C        0.33550    0.55230    0.58450    1.000
    H1       H        0.31590    0.51580    0.57290    1.000
    C3       C        0.39710    0.66150    0.60980    1.000
    C4       C        0.26310    0.59330    0.59660    1.000
    C5       C        0.29860    0.64760    0.60430    1.000
    H2       H        0.25190    0.67620    0.60580    1.000
    O5       O        0.13130    0.53230    0.58800    1.000
    C6       C        0.15650    0.58160    0.59980    1.000
    C7       C        0.46900    0.61920    0.60310    1.000
    H3       H        0.53660    0.62770    0.60770    1.000
    C8       C        0.43920    0.56560    0.58970    1.000
    C9       C        0.42680    0.72300    0.62150    1.000
    C10      C        0.34060    0.90950    0.46730    1.000
    C11      C        0.33810    0.98890    0.34850    1.000
    H4       H        0.40730    0.99100    0.35330    1.000
    O6       O        0.09920    0.62210    0.61500    1.000
    N1       N        0.51520    0.52390    0.58500    1.000
    C12      C        0.28340    0.02730    0.28900    1.000
    C13      C        0.28430    0.94760    0.40020    1.000
    O7       O        0.30260    0.86360    0.49610    1.000
    O8       O        0.42890    0.92550    0.50050    1.000
    C14      C        0.17920    0.94340    0.39040    1.000
    H5       H        0.14510    0.91380    0.41980    1.000
    C15      C        0.17930    0.02680    0.28870    1.000
    H6       H        0.14370    0.05500    0.25670    1.000
    C16      C        0.12870    0.98280    0.33770    1.000
    N2       N        0.02410    0.97690    0.33630    1.000
    O9       O        0.79860    0.61240    0.70860    1.000
    O10      O        0.93250    0.56120    0.71180    1.000
    C17      C        0.84130    0.56990    0.73150    1.000
    Sm2      Sm       0.94108    0.34298    0.11653    1.000
    O11      O        0.01300    0.23880    0.12590    1.000
    O12      O        0.85360    0.25740    0.11030    1.000
    C18      C        0.83550    0.05230    0.08450    1.000
    H7       H        0.81590    0.01580    0.07290    1.000
    C19      C        0.89710    0.16150    0.10980    1.000
    C20      C        0.76310    0.09330    0.09660    1.000
    C21      C        0.79860    0.14760    0.10430    1.000
    H8       H        0.75190    0.17620    0.10580    1.000
    O13      O        0.63130    0.03230    0.08800    1.000
    C22      C        0.65650    0.08160    0.09980    1.000
    C23      C        0.96900    0.11920    0.10310    1.000
    H9       H        0.03660    0.12770    0.10770    1.000
    C24      C        0.93920    0.06560    0.08970    1.000
    C25      C        0.92680    0.22300    0.12150    1.000
    C26      C        0.84060    0.40950    0.96730    1.000
    C27      C        0.83810    0.48890    0.84850    1.000
    H10      H        0.90730    0.49100    0.85330    1.000
    O14      O        0.59920    0.12210    0.11500    1.000
    N3       N        0.01520    0.02390    0.08500    1.000
    C28      C        0.78340    0.52730    0.78900    1.000
    C29      C        0.78430    0.44760    0.90020    1.000
    O15      O        0.80260    0.36360    0.99610    1.000
    O16      O        0.92890    0.42550    0.00050    1.000
    C30      C        0.67920    0.44340    0.89040    1.000
    H11      H        0.64510    0.41380    0.91980    1.000
    C31      C        0.67930    0.52680    0.78870    1.000
    H12      H        0.64370    0.55500    0.75670    1.000
    C32      C        0.62870    0.48280    0.83770    1.000
    N4       N        0.52410    0.47690    0.83630    1.000
    O17      O        0.70140    0.88760    0.20860    1.000
    O18      O        0.56750    0.93880    0.21180    1.000
    C33      C        0.65870    0.93010    0.23150    1.000
    Sm3      Sm       0.55892    0.15702    0.61653    1.000
    O19      O        0.48700    0.26120    0.62590    1.000
    O20      O        0.64640    0.24260    0.61030    1.000
    C34      C        0.66450    0.44770    0.58450    1.000
    H13      H        0.68410    0.48420    0.57290    1.000
    C35      C        0.60290    0.33850    0.60980    1.000
    C36      C        0.73690    0.40670    0.59660    1.000
    C37      C        0.70140    0.35240    0.60430    1.000
    H14      H        0.74810    0.32380    0.60580    1.000
    O21      O        0.86870    0.46770    0.58800    1.000
    C38      C        0.84350    0.41840    0.59980    1.000
    C39      C        0.53100    0.38080    0.60310    1.000
    H15      H        0.46340    0.37230    0.60770    1.000
    C40      C        0.56080    0.43440    0.58970    1.000
    C41      C        0.57320    0.27700    0.62150    1.000
    C42      C        0.65940    0.09050    0.46730    1.000
    C43      C        0.66190    0.01110    0.34850    1.000
    H16      H        0.59270    0.00900    0.35330    1.000
    O22      O        0.90080    0.37790    0.61500    1.000
    N5       N        0.48480    0.47610    0.58500    1.000
    C44      C        0.71660    0.97270    0.28900    1.000
    C45      C        0.71570    0.05240    0.40020    1.000
    O23      O        0.69740    0.13640    0.49610    1.000
    O24      O        0.57110    0.07450    0.50050    1.000
    C46      C        0.82080    0.05660    0.39040    1.000
    H17      H        0.85490    0.08620    0.41980    1.000
    C47      C        0.82070    0.97320    0.28870    1.000
    H18      H        0.85630    0.94500    0.25670    1.000
    C48      C        0.87130    0.01720    0.33770    1.000
    N6       N        0.97590    0.02310    0.33630    1.000
    O25      O        0.20140    0.38760    0.70860    1.000
    O26      O        0.06750    0.43880    0.71180    1.000
    C49      C        0.15870    0.43010    0.73150    1.000
    Sm4      Sm       0.05892    0.65702    0.11653    1.000
    O27      O        0.98700    0.76120    0.12590    1.000
    O28      O        0.14640    0.74260    0.11030    1.000
    C50      C        0.16450    0.94770    0.08450    1.000
    H19      H        0.18410    0.98420    0.07290    1.000
    C51      C        0.10290    0.83850    0.10980    1.000
    C52      C        0.23690    0.90670    0.09660    1.000
    C53      C        0.20140    0.85240    0.10430    1.000
    H20      H        0.24810    0.82380    0.10580    1.000
    O29      O        0.36870    0.96770    0.08800    1.000
    C54      C        0.34350    0.91840    0.09980    1.000
    C55      C        0.03100    0.88080    0.10310    1.000
    H21      H        0.96340    0.87230    0.10770    1.000
    C56      C        0.06080    0.93440    0.08970    1.000
    C57      C        0.07320    0.77700    0.12150    1.000
    C58      C        0.15940    0.59050    0.96730    1.000
    C59      C        0.16190    0.51110    0.84850    1.000
    H22      H        0.09270    0.50900    0.85330    1.000
    O30      O        0.40080    0.87790    0.11500    1.000
    N7       N        0.98480    0.97610    0.08500    1.000
    C60      C        0.21660    0.47270    0.78900    1.000
    C61      C        0.21570    0.55240    0.90020    1.000
    O31      O        0.19740    0.63640    0.99610    1.000
    O32      O        0.07110    0.57450    0.00050    1.000
    C62      C        0.32080    0.55660    0.89040    1.000
    H23      H        0.35490    0.58620    0.91980    1.000
    C63      C        0.32070    0.47320    0.78870    1.000
    H24      H        0.35630    0.44500    0.75670    1.000
    C64      C        0.37130    0.51720    0.83770    1.000
    N8       N        0.47590    0.52310    0.83630    1.000
    O33      O        0.79860    0.38760    0.20860    1.000
    O34      O        0.93250    0.43880    0.21180    1.000
    C65      C        0.84130    0.43010    0.23150    1.000
    Sm5      Sm       0.94108    0.65702    0.61653    1.000
    O35      O        0.01300    0.76120    0.62590    1.000
    O36      O        0.85360    0.74260    0.61030    1.000
    C66      C        0.83550    0.94770    0.58450    1.000
    H25      H        0.81590    0.98420    0.57290    1.000
    C67      C        0.89710    0.83850    0.60980    1.000
    C68      C        0.76310    0.90670    0.59660    1.000
    C69      C        0.79860    0.85240    0.60430    1.000
    H26      H        0.75190    0.82380    0.60580    1.000
    O37      O        0.63130    0.96770    0.58800    1.000
    C70      C        0.65650    0.91840    0.59980    1.000
    C71      C        0.96900    0.88080    0.60310    1.000
    H27      H        0.03660    0.87230    0.60770    1.000
    C72      C        0.93920    0.93440    0.58970    1.000
    C73      C        0.92680    0.77700    0.62150    1.000
    C74      C        0.84060    0.59050    0.46730    1.000
    C75      C        0.83810    0.51110    0.34850    1.000
    H28      H        0.90730    0.50900    0.35330    1.000
    O38      O        0.59920    0.87790    0.61500    1.000
    N9       N        0.01520    0.97610    0.58500    1.000
    C76      C        0.78340    0.47270    0.28900    1.000
    C77      C        0.78430    0.55240    0.40020    1.000
    O39      O        0.80260    0.63640    0.49610    1.000
    O40      O        0.92890    0.57450    0.50050    1.000
    C78      C        0.67920    0.55660    0.39040    1.000
    H29      H        0.64510    0.58620    0.41980    1.000
    C79      C        0.67930    0.47320    0.28870    1.000
    H30      H        0.64370    0.44500    0.25670    1.000
    C80      C        0.62870    0.51720    0.33770    1.000
    N10      N        0.52410    0.52310    0.33630    1.000
    O41      O        0.29860    0.88760    0.70860    1.000
    O42      O        0.43250    0.93880    0.71180    1.000
    C81      C        0.34130    0.93010    0.73150    1.000
    Sm6      Sm       0.44108    0.15702    0.11653    1.000
    O43      O        0.51300    0.26120    0.12590    1.000
    O44      O        0.35360    0.24260    0.11030    1.000
    C82      C        0.33550    0.44770    0.08450    1.000
    H31      H        0.31590    0.48420    0.07290    1.000
    C83      C        0.39710    0.33850    0.10980    1.000
    C84      C        0.26310    0.40670    0.09660    1.000
    C85      C        0.29860    0.35240    0.10430    1.000
    H32      H        0.25190    0.32380    0.10580    1.000
    O45      O        0.13130    0.46770    0.08800    1.000
    C86      C        0.15650    0.41840    0.09980    1.000
    C87      C        0.46900    0.38080    0.10310    1.000
    H33      H        0.53660    0.37230    0.10770    1.000
    C88      C        0.43920    0.43440    0.08970    1.000
    C89      C        0.42680    0.27700    0.12150    1.000
    C90      C        0.34060    0.09050    0.96730    1.000
    C91      C        0.33810    0.01110    0.84850    1.000
    H34      H        0.40730    0.00900    0.85330    1.000
    O46      O        0.09920    0.37790    0.11500    1.000
    N11      N        0.51520    0.47610    0.08500    1.000
    C92      C        0.28340    0.97270    0.78900    1.000
    C93      C        0.28430    0.05240    0.90020    1.000
    O47      O        0.30260    0.13640    0.99610    1.000
    O48      O        0.42890    0.07450    0.00050    1.000
    C94      C        0.17920    0.05660    0.89040    1.000
    H35      H        0.14510    0.08620    0.91980    1.000
    C95      C        0.17930    0.97320    0.78870    1.000
    H36      H        0.14370    0.94500    0.75670    1.000
    C96      C        0.12870    0.01720    0.83770    1.000
    N12      N        0.02410    0.02310    0.83630    1.000
    O49      O        0.20140    0.61240    0.20860    1.000
    O50      O        0.06750    0.56120    0.21180    1.000
    C97      C        0.15870    0.56990    0.23150    1.000
    Sm7      Sm       0.05892    0.34298    0.61653    1.000
    O51      O        0.98700    0.23880    0.62590    1.000
    O52      O        0.14640    0.25740    0.61030    1.000
    C98      C        0.16450    0.05230    0.58450    1.000
    H37      H        0.18410    0.01580    0.57290    1.000
    C99      C        0.10290    0.16150    0.60980    1.000
    C100     C        0.23690    0.09330    0.59660    1.000
    C101     C        0.20140    0.14760    0.60430    1.000
    H38      H        0.24810    0.17620    0.60580    1.000
    O53      O        0.36870    0.03230    0.58800    1.000
    C102     C        0.34350    0.08160    0.59980    1.000
    C103     C        0.03100    0.11920    0.60310    1.000
    H39      H        0.96340    0.12770    0.60770    1.000
    C104     C        0.06080    0.06560    0.58970    1.000
    C105     C        0.07320    0.22300    0.62150    1.000
    C106     C        0.15940    0.40950    0.46730    1.000
    C107     C        0.16190    0.48890    0.34850    1.000
    H40      H        0.09270    0.49100    0.35330    1.000
    O54      O        0.40080    0.12210    0.61500    1.000
    N13      N        0.98480    0.02390    0.58500    1.000
    C108     C        0.21660    0.52730    0.28900    1.000
    C109     C        0.21570    0.44760    0.40020    1.000
    O55      O        0.19740    0.36360    0.49610    1.000
    O56      O        0.07110    0.42550    0.50050    1.000
    C110     C        0.32080    0.44340    0.39040    1.000
    H41      H        0.35490    0.41380    0.41980    1.000
    C111     C        0.32070    0.52680    0.28870    1.000
    H42      H        0.35630    0.55500    0.25670    1.000
    C112     C        0.37130    0.48280    0.33770    1.000
    N14      N        0.47590    0.47690    0.33630    1.000
    O57      O        0.70140    0.11240    0.70860    1.000
    O58      O        0.56750    0.06120    0.71180    1.000
    C113     C        0.65870    0.06990    0.73150    1.000
    Sm8      Sm       0.55892    0.84298    0.11653    1.000
    O59      O        0.48700    0.73880    0.12590    1.000
    O60      O        0.64640    0.75740    0.11030    1.000
    C114     C        0.66450    0.55230    0.08450    1.000
    H43      H        0.68410    0.51580    0.07290    1.000
    C115     C        0.60290    0.66150    0.10980    1.000
    C116     C        0.73690    0.59330    0.09660    1.000
    C117     C        0.70140    0.64760    0.10430    1.000
    H44      H        0.74810    0.67620    0.10580    1.000
    O61      O        0.86870    0.53230    0.08800    1.000
    C118     C        0.84350    0.58160    0.09980    1.000
    C119     C        0.53100    0.61920    0.10310    1.000
    H45      H        0.46340    0.62770    0.10770    1.000
    C120     C        0.56080    0.56560    0.08970    1.000
    C121     C        0.57320    0.72300    0.12150    1.000
    C122     C        0.65940    0.90950    0.96730    1.000
    C123     C        0.66190    0.98890    0.84850    1.000
    H46      H        0.59270    0.99100    0.85330    1.000
    O62      O        0.90080    0.62210    0.11500    1.000
    N15      N        0.48480    0.52390    0.08500    1.000
    C124     C        0.71660    0.02730    0.78900    1.000
    C125     C        0.71570    0.94760    0.90020    1.000
    O63      O        0.69740    0.86360    0.99610    1.000
    O64      O        0.57110    0.92550    0.00050    1.000
    C126     C        0.82080    0.94340    0.89040    1.000
    H47      H        0.85490    0.91380    0.91980    1.000
    C127     C        0.82070    0.02680    0.78870    1.000
    H48      H        0.85630    0.05500    0.75670    1.000
    C128     C        0.87130    0.98280    0.83770    1.000
    N16      N        0.97590    0.97690    0.83630    1.000
    Zn1      Zn       0.00000    0.50000    0.61790    1.000
    Zn2      Zn       0.50000    0.00000    0.11790    1.000
    Zn3      Zn       0.50000    0.00000    0.61790    1.000
    Zn4      Zn       0.00000    0.50000    0.11790    1.000
