data_functionalizedCrystal
_audit_creation_method	'EQeq! by Chris Wilmer'
_symmetry_space_group_name_H-M	'P1'
_symmetry_Int_Tables_number	1
_symmetry_cell_setting	triclinic
loop_
_symmetry_equiv_pos_as_xyz
  x,y,z
_cell_length_a	8.717
_cell_length_b	11.617
_cell_length_c	8.289
_cell_angle_alpha	90
_cell_angle_beta	90
_cell_angle_gamma	90
loop_
_atom_site_label
_atom_site_type_symbol
_atom_site_fract_x
_atom_site_fract_y
_atom_site_fract_z
_atom_site_charge
Mof_O 	O 	0.41277	0.31678	0.10538	-0.402
Mof_O 	O 	0.08376	0.17654	0.41138	-0.426
Mof_O 	O 	0.23734	0.40508	0.38366	-0.373
Mof_C 	C 	0.47011	0.28029	0.97767	0.501
Mof_H 	H 	0.425	0.213	0.938	-0.121
Mof_O 	O 	0.08723	0.68322	0.10538	-0.388
Mof_O 	O 	0.41624	0.82346	0.41138	-0.405
Mof_O 	O 	0.26266	0.59492	0.38366	-0.372
Mof_C 	C 	0.02989	0.71971	0.97767	0.478
Mof_H 	H 	0.075	0.787	0.938	-0.104
Mof_O 	O 	0.08723	0.81678	0.39462	-0.383
Mof_O 	O 	0.41624	0.67654	0.08862	-0.418
Mof_O 	O 	0.26266	0.90508	0.11634	-0.313
Mof_C 	C 	0.02989	0.78029	0.52233	0.493
Mof_H 	H 	0.075	0.713	0.562	-0.111
Mof_O 	O 	0.41277	0.18322	0.39462	-0.407
Mof_O 	O 	0.08376	0.32346	0.08862	-0.412
Mof_O 	O 	0.23734	0.09492	0.11634	-0.36
Mof_C 	C 	0.47011	0.21971	0.52233	0.502
Mof_H 	H 	0.425	0.287	0.562	-0.115
Mof_O 	O 	0.58723	0.68322	0.89462	-0.397
Mof_O 	O 	0.91624	0.82346	0.58862	-0.401
Mof_O 	O 	0.76266	0.59492	0.61634	-0.372
Mof_C 	C 	0.52989	0.71971	0.02233	0.499
Mof_H 	H 	0.575	0.787	0.062	-0.109
Mof_O 	O 	0.91277	0.31678	0.89462	-0.392
Mof_O 	O 	0.58376	0.17654	0.58862	-0.428
Mof_O 	O 	0.73734	0.40508	0.61634	-0.372
Mof_C 	C 	0.97011	0.28029	0.02233	0.482
Mof_H 	H 	0.925	0.213	0.062	-0.115
Mof_O 	O 	0.91277	0.18322	0.60538	-0.405
Mof_O 	O 	0.58376	0.32346	0.91138	-0.422
Mof_O 	O 	0.73734	0.09492	0.88366	-0.36
Mof_C 	C 	0.97011	0.21971	0.47767	0.497
Mof_H 	H 	0.925	0.287	0.438	-0.114
Mof_O 	O 	0.58723	0.81678	0.60538	-0.384
Mof_O 	O 	0.91624	0.67654	0.91138	-0.408
Mof_O 	O 	0.76266	0.90508	0.88366	-0.309
Mof_C 	C 	0.52989	0.78029	0.47767	0.499
Mof_H 	H 	0.575	0.713	0.438	-0.112
Mof_Zn	Zn	0.23547	0.25	0.25	1.255
Mof_Zn	Zn	0.26453	0.75	0.25	1.256
Mof_Zn	Zn	0.76453	0.75	0.75	1.256
Mof_Zn	Zn	0.73547	0.25	0.75	1.255
Mof_C 	C 	0.25	0.5	0.31394	0.397
Mof_H 	H 	0.25	0.5	0.19	-0.047
Mof_C 	C 	0.25	0	0.18606	0.313
Mof_H 	H 	0.25	1.87961e-33	0.31	-0.042
Mof_C 	C 	0.75	0.5	0.68606	0.397
Mof_H 	H 	0.75	0.5	0.81	-0.047
Mof_C 	C 	0.75	0	0.81394	0.308
Mof_H 	H 	0.75	3.75922e-33	0.69	-0.042
_end
