data_functionalizedCrystal
_audit_creation_method	'EQeq! by Chris Wilmer'
_symmetry_space_group_name_H-M	'P1'
_symmetry_Int_Tables_number	1
_symmetry_cell_setting	triclinic
loop_
_symmetry_equiv_pos_as_xyz
  x,y,z
_cell_length_a	15.1832
_cell_length_b	15.3308
_cell_length_c	24.7499
_cell_angle_alpha	90
_cell_angle_beta	90
_cell_angle_gamma	111.338
loop_
_atom_site_label
_atom_site_type_symbol
_atom_site_fract_x
_atom_site_fract_y
_atom_site_fract_z
_atom_site_charge
Mof_Co	Co	0.39763	0.60971	0.02056	1.123
Mof_Co	Co	0.39763	0.60971	0.47944	1.123
Mof_Co	Co	0.60237	0.39029	0.97944	1.123
Mof_Co	Co	0.60237	0.39029	0.52056	1.123
Mof_H 	H 	0.4752	0.2309	0.0423	-0.013
Mof_H 	H 	0.5395	0.6798	0.2935	0.078
Mof_H 	H 	0.7514	0.3106	0.4855	-0.022
Mof_H 	H 	0.7384	0.4436	0.79	0.079
Mof_H 	H 	0.468	0.3344	0.6144	-0.009
Mof_H 	H 	0.3742	0.7804	0.0842	-0.012
Mof_H 	H 	0.6258	0.2196	0.9158	-0.012
Mof_H 	H 	0.5886	0.0654	0.9271	0.073
Mof_H 	H 	0.9441	0.6042	0.5337	0.075
Mof_H 	H 	0.0559	0.3958	0.0337	0.075
Mof_H 	H 	0.6258	0.2196	0.5842	-0.012
Mof_H 	H 	0.5248	0.7691	0.9577	-0.013
Mof_H 	H 	0.5634	0.9251	0.5557	0.07
Mof_H 	H 	0.7833	0.5561	0.54	0
Mof_H 	H 	0.7384	0.4436	0.71	0.079
Mof_H 	H 	0.2486	0.6894	0.9855	-0.022
Mof_H 	H 	0.3742	0.7804	0.4158	-0.012
Mof_H 	H 	0.4114	0.9346	0.4271	0.073
Mof_H 	H 	0.4605	0.3202	0.7065	0.078
Mof_H 	H 	0.4752	0.2309	0.4577	-0.013
Mof_H 	H 	0.7358	0.4295	0.6174	-0.021
Mof_H 	H 	0.0865	0.6454	0.5283	0.072
Mof_H 	H 	0.7514	0.3106	0.0145	-0.022
Mof_H 	H 	0.9441	0.6042	0.9663	0.075
Mof_H 	H 	0.532	0.6656	0.1144	-0.009
Mof_H 	H 	0.2642	0.5705	0.1174	-0.021
Mof_H 	H 	0.9135	0.3546	0.0283	0.072
Mof_H 	H 	0.5634	0.9251	0.9443	0.07
Mof_H 	H 	0.2167	0.4439	0.46	0
Mof_H 	H 	0.5248	0.7691	0.5423	-0.013
Mof_H 	H 	0.5395	0.6798	0.2065	0.078
Mof_H 	H 	0.2167	0.4439	0.04	0
Mof_H 	H 	0.7358	0.4295	0.8826	-0.021
Mof_H 	H 	0.532	0.6656	0.3856	-0.009
Mof_H 	H 	0.9135	0.3546	0.4717	0.072
Mof_H 	H 	0.468	0.3344	0.8856	-0.009
Mof_H 	H 	0.2616	0.5564	0.29	0.079
Mof_H 	H 	0.5886	0.0654	0.5729	0.073
Mof_H 	H 	0.2616	0.5564	0.21	0.079
Mof_H 	H 	0.4605	0.3202	0.7935	0.078
Mof_H 	H 	0.0865	0.6454	0.9717	0.072
Mof_H 	H 	0.4366	0.0749	0.0557	0.07
Mof_H 	H 	0.4366	0.0749	0.4443	0.07
Mof_H 	H 	0.7833	0.5561	0.96	0
Mof_H 	H 	0.4114	0.9346	0.0729	0.073
Mof_H 	H 	0.2486	0.6894	0.5145	-0.022
Mof_H 	H 	0.0559	0.3958	0.4663	0.075
Mof_H 	H 	0.2642	0.5705	0.3826	-0.021
Mof_C 	C 	0.5238	0.8966	0.973	-0.127
Mof_C 	C 	0.5654	0.0977	0.5484	-0.137
Mof_C 	C 	0.5243	0.3549	0.8662	0.089
Mof_C 	C 	0.1904	0.4861	0.4727	0.077
Mof_C 	C 	0.4757	0.6451	0.3662	0.089
Mof_C 	C 	0.4533	0.4555	0.0018	0.207
Mof_C 	C 	0.4911	0.9513	0.006	0.051
Mof_C 	C 	0.889	0.3964	0.4869	-0.137
Mof_C 	C 	0.4997	0.1977	0.4809	0.063
Mof_C 	C 	0.4911	0.9513	0.494	0.051
Mof_C 	C 	0.4346	0.9023	0.0484	-0.137
Mof_C 	C 	0.3188	0.5835	0.192	-0.155
Mof_C 	C 	0.4123	0.8095	0.0551	0.078
Mof_C 	C 	0.4014	0.6206	0.2201	0.065
Mof_C 	C 	0.5467	0.5445	0.9982	0.207
Mof_C 	C 	0.0522	0.515	0.0024	0.056
Mof_C 	C 	0.6812	0.4165	0.808	-0.155
Mof_C 	C 	0.6812	0.4165	0.692	-0.155
Mof_C 	C 	0.889	0.3964	0.0131	-0.136
Mof_C 	C 	0.1904	0.4861	0.0273	0.077
Mof_C 	C 	0.481	0.6526	0.1898	-0.149
Mof_C 	C 	0.519	0.3474	0.8102	-0.149
Mof_C 	C 	0.6784	0.413	0.6356	0.103
Mof_C 	C 	0.5654	0.0977	0.9516	-0.137
Mof_C 	C 	0.8096	0.5139	0.5273	0.077
Mof_C 	C 	0.5089	0.0487	0.994	0.051
Mof_C 	C 	0.4123	0.8095	0.4449	0.079
Mof_C 	C 	0.7908	0.371	0.4947	0.072
Mof_C 	C 	0.0522	0.515	0.4976	0.056
Mof_C 	C 	0.2092	0.629	0.9947	0.072
Mof_C 	C 	0.9067	0.544	0.9772	-0.138
Mof_C 	C 	0.4762	0.1034	0.473	-0.127
Mof_C 	C 	0.4014	0.6206	0.2799	0.065
Mof_C 	C 	0.9067	0.544	0.5228	-0.138
Mof_C 	C 	0.6784	0.413	0.8644	0.103
Mof_C 	C 	0.4346	0.9023	0.4516	-0.137
Mof_C 	C 	0.2092	0.629	0.5053	0.072
Mof_C 	C 	0.5003	0.8023	0.9809	0.063
Mof_C 	C 	0.5003	0.8023	0.5191	0.063
Mof_C 	C 	0.7908	0.371	0.0053	0.072
Mof_C 	C 	0.4533	0.4555	0.4982	0.207
Mof_C 	C 	0.3188	0.5835	0.308	-0.155
Mof_C 	C 	0.3216	0.587	0.1356	0.103
Mof_C 	C 	0.4997	0.1977	0.0191	0.063
Mof_C 	C 	0.5877	0.1905	0.9449	0.078
Mof_C 	C 	0.111	0.6036	0.9869	-0.136
Mof_C 	C 	0.8096	0.5139	0.9727	0.077
Mof_C 	C 	0.5877	0.1905	0.5551	0.079
Mof_C 	C 	0.9478	0.485	0.5024	0.056
Mof_C 	C 	0.0933	0.456	0.0228	-0.138
Mof_C 	C 	0.3216	0.587	0.3644	0.103
Mof_C 	C 	0.5089	0.0487	0.506	0.051
Mof_C 	C 	0.0933	0.456	0.4772	-0.138
Mof_C 	C 	0.5986	0.3794	0.7201	0.065
Mof_C 	C 	0.5986	0.3794	0.7799	0.065
Mof_C 	C 	0.5243	0.3549	0.6338	0.089
Mof_C 	C 	0.4757	0.6451	0.1338	0.089
Mof_C 	C 	0.5467	0.5445	0.5018	0.207
Mof_C 	C 	0.4762	0.1034	0.027	-0.127
Mof_C 	C 	0.111	0.6036	0.5131	-0.137
Mof_C 	C 	0.519	0.3474	0.6898	-0.149
Mof_C 	C 	0.481	0.6526	0.3102	-0.149
Mof_C 	C 	0.9478	0.485	0.9976	0.056
Mof_C 	C 	0.5238	0.8966	0.527	-0.127
Mof_N 	N 	0.3966	0.611	0.1069	-0.253
Mof_N 	N 	0.5573	0.2437	0.9785	-0.25
Mof_N 	N 	0.5573	0.2437	0.5215	-0.25
Mof_N 	N 	0.4427	0.7563	0.4785	-0.25
Mof_N 	N 	0.752	0.4285	0.9856	-0.253
Mof_N 	N 	0.248	0.5715	0.0144	-0.253
Mof_N 	N 	0.6034	0.389	0.6069	-0.253
Mof_N 	N 	0.4427	0.7563	0.0215	-0.25
Mof_N 	N 	0.6034	0.389	0.8931	-0.253
Mof_N 	N 	0.752	0.4285	0.5144	-0.253
Mof_N 	N 	0.3966	0.611	0.3931	-0.253
Mof_N 	N 	0.248	0.5715	0.4856	-0.253
Mof_O 	O 	0.3801	0.4673	0.4838	-0.379
Mof_O 	O 	0.4613	0.3795	0.5113	-0.377
Mof_O 	O 	0.3801	0.4673	0.0162	-0.379
Mof_O 	O 	0.5387	0.6205	0.0113	-0.377
Mof_O 	O 	0.4613	0.3795	0.9887	-0.377
Mof_O 	O 	0.5387	0.6205	0.4887	-0.377
Mof_O 	O 	0.6199	0.5327	0.5162	-0.379
Mof_O 	O 	0.6199	0.5327	0.9838	-0.379
_end
