# CIF file generated by openbabel 3.1.0, see https://openbabel.org
data_I
_chemical_name_common 'image0'
_cell_length_a 7.5135
_cell_length_b 37.1568
_cell_length_c 11.1499
_cell_angle_alpha 90
_cell_angle_beta 98.647
_cell_angle_gamma 90
_space_group_name_H-M_alt 'P 1'
_space_group_name_Hall 'P 1'
loop_
    _symmetry_equiv_pos_as_xyz
    x,y,z
loop_
    _atom_site_label
    _atom_site_type_symbol
    _atom_site_fract_x
    _atom_site_fract_y
    _atom_site_fract_z
    _atom_site_occupancy
    O1       O        0.29430    0.15392    0.38520    1.000
    C1       C        0.36030    0.12410    0.35260    1.000
    H1       H        0.34840    0.10550    0.41310    1.000
    H2       H        0.48790    0.12750    0.34610    1.000
    H3       H        0.29500    0.11670    0.27370    1.000
    Mn1      Mn       0.06554    0.16588    0.47811    1.000
    C2       C        0.93180    0.02683    0.41410    1.000
    C3       C        0.90800    0.98992    0.38880    1.000
    H4       H        0.84550    0.98270    0.31220    1.000
    N1       N        0.67430    0.03395    0.12790    1.000
    C4       C        0.02710    0.03587    0.52780    1.000
    H5       H        0.04740    0.06050    0.54780    1.000
    N2       N        0.92420    0.11976    0.38280    1.000
    N3       N        0.94090    0.20219    0.33260    1.000
    N4       N        0.18760    0.13076    0.62960    1.000
    C5       C        0.75850    0.04473    0.21580    1.000
    N5       N        0.46820    0.04597    0.87020    1.000
    C6       C        0.43570    0.07517    0.84220    1.000
    C7       C        0.49360    0.13956    0.89670    1.000
    C8       C        0.58580    0.13107    0.01150    1.000
    H6       H        0.59400    0.10670    0.03700    1.000
    C9       C        0.65570    0.19399    0.05620    1.000
    C10      C        0.89130    0.09062    0.35250    1.000
    C11      C        0.66530    0.15754    0.08880    1.000
    H7       H        0.72800    0.15080    0.16600    1.000
    C12      C        0.85230    0.21237    0.24650    1.000
    C13      C        0.28560    0.12077    0.71190    1.000
    C14      C        0.56410    0.20236    0.94120    1.000
    H8       H        0.55640    0.22680    0.91570    1.000
    N6       N        0.70200    0.28715    0.07090    1.000
    C15      C        0.48460    0.17611    0.86390    1.000
    H9       H        0.42240    0.18290    0.78670    1.000
    C16      C        0.72420    0.25829    0.10570    1.000
    C17      C        0.86050    0.05448    0.32580    1.000
    C18      C        0.40570    0.11170    0.81470    1.000
    C19      C        0.74300    0.22192    0.13760    1.000
    O2       O        0.39060    0.08106    0.37950    1.000
    C20      C        0.41350    0.17180    0.33410    1.000
    H10      H        0.37910    0.19730    0.32730    1.000
    H11      H        0.41830    0.16200    0.25310    1.000
    H12      H        0.53220    0.16960    0.38390    1.000
    C21      C        0.46610    0.06500    0.47430    1.000
    H13      H        0.51270    0.07920    0.54270    1.000
    C22      C        0.41100    0.00640    0.38540    1.000
    H14      H        0.33140    0.02020    0.32440    1.000
    H15      H        0.34240    0.98700    0.41670    1.000
    H16      H        0.50960    0.99610    0.34820    1.000
    N7       N        0.48360    0.02980    0.48330    1.000
    C23      C        0.57140    0.01410    0.59500    1.000
    H17      H        0.59830    0.03300    0.65650    1.000
    H18      H        0.68370    0.00250    0.58110    1.000
    H19      H        0.49190    0.99610    0.62340    1.000
    O3       O        0.20570    0.65392    0.11480    1.000
    C24      C        0.13970    0.62410    0.14740    1.000
    H20      H        0.15160    0.60550    0.08690    1.000
    H21      H        0.01210    0.62750    0.15390    1.000
    H22      H        0.20500    0.61670    0.22630    1.000
    Mn2      Mn       0.43446    0.66588    0.02189    1.000
    C25      C        0.56820    0.52683    0.08590    1.000
    C26      C        0.59200    0.48992    0.11120    1.000
    H23      H        0.65450    0.48270    0.18780    1.000
    N8       N        0.82570    0.53395    0.37210    1.000
    C27      C        0.47290    0.53587    0.97220    1.000
    H24      H        0.45260    0.56050    0.95220    1.000
    N9       N        0.57580    0.61976    0.11720    1.000
    N10      N        0.55910    0.70219    0.16740    1.000
    N11      N        0.31240    0.63076    0.87040    1.000
    C28      C        0.74150    0.54473    0.28420    1.000
    N12      N        0.03180    0.54597    0.62980    1.000
    C29      C        0.06430    0.57517    0.65780    1.000
    C30      C        0.00640    0.63956    0.60330    1.000
    C31      C        0.91420    0.63107    0.48850    1.000
    H25      H        0.90600    0.60670    0.46300    1.000
    C32      C        0.84430    0.69399    0.44380    1.000
    C33      C        0.60870    0.59062    0.14750    1.000
    C34      C        0.83470    0.65754    0.41120    1.000
    H26      H        0.77200    0.65080    0.33400    1.000
    C35      C        0.64770    0.71237    0.25350    1.000
    C36      C        0.21440    0.62077    0.78810    1.000
    C37      C        0.93590    0.70236    0.55880    1.000
    H27      H        0.94360    0.72680    0.58430    1.000
    N13      N        0.79800    0.78715    0.42910    1.000
    C38      C        0.01540    0.67611    0.63610    1.000
    H28      H        0.07760    0.68290    0.71330    1.000
    C39      C        0.77580    0.75829    0.39430    1.000
    C40      C        0.63950    0.55448    0.17420    1.000
    C41      C        0.09430    0.61170    0.68530    1.000
    C42      C        0.75700    0.72192    0.36240    1.000
    O4       O        0.10940    0.58106    0.12050    1.000
    C43      C        0.08650    0.67180    0.16590    1.000
    H29      H        0.12090    0.69730    0.17270    1.000
    H30      H        0.08170    0.66200    0.24690    1.000
    H31      H        0.96780    0.66960    0.11610    1.000
    C44      C        0.03390    0.56500    0.02570    1.000
    H32      H        0.98730    0.57920    0.95730    1.000
    C45      C        0.08900    0.50640    0.11460    1.000
    H33      H        0.16860    0.52020    0.17560    1.000
    H34      H        0.15760    0.48700    0.08330    1.000
    H35      H        0.99040    0.49610    0.15180    1.000
    N14      N        0.01640    0.52980    0.01670    1.000
    C46      C        0.92860    0.51410    0.90500    1.000
    H36      H        0.90170    0.53300    0.84350    1.000
    H37      H        0.81630    0.50250    0.91890    1.000
    H38      H        0.00810    0.49610    0.87660    1.000
    O5       O        0.70570    0.84608    0.61480    1.000
    C47      C        0.63970    0.87590    0.64740    1.000
    H39      H        0.65160    0.89450    0.58690    1.000
    H40      H        0.51210    0.87250    0.65390    1.000
    H41      H        0.70500    0.88330    0.72630    1.000
    Mn3      Mn       0.93446    0.83412    0.52189    1.000
    C48      C        0.06820    0.97317    0.58590    1.000
    C49      C        0.09200    0.01008    0.61120    1.000
    H42      H        0.15450    0.01730    0.68780    1.000
    N15      N        0.32570    0.96605    0.87210    1.000
    C50      C        0.97290    0.96413    0.47220    1.000
    H43      H        0.95260    0.93950    0.45220    1.000
    N16      N        0.07580    0.88024    0.61720    1.000
    N17      N        0.05910    0.79781    0.66740    1.000
    N18      N        0.81240    0.86924    0.37040    1.000
    C51      C        0.24150    0.95527    0.78420    1.000
    N19      N        0.53180    0.95403    0.12980    1.000
    C52      C        0.56430    0.92483    0.15780    1.000
    C53      C        0.50640    0.86044    0.10330    1.000
    C54      C        0.41420    0.86893    0.98850    1.000
    H44      H        0.40600    0.89330    0.96300    1.000
    C55      C        0.34430    0.80601    0.94380    1.000
    C56      C        0.10870    0.90938    0.64750    1.000
    C57      C        0.33470    0.84246    0.91120    1.000
    H45      H        0.27200    0.84920    0.83400    1.000
    C58      C        0.14770    0.78763    0.75350    1.000
    C59      C        0.71440    0.87923    0.28810    1.000
    C60      C        0.43590    0.79764    0.05880    1.000
    H46      H        0.44360    0.77320    0.08430    1.000
    N20      N        0.29800    0.71285    0.92910    1.000
    C61      C        0.51540    0.82389    0.13610    1.000
    H47      H        0.57760    0.81710    0.21330    1.000
    C62      C        0.27580    0.74171    0.89430    1.000
    C63      C        0.13950    0.94552    0.67420    1.000
    C64      C        0.59430    0.88830    0.18530    1.000
    C65      C        0.25700    0.77808    0.86240    1.000
    O6       O        0.60940    0.91894    0.62050    1.000
    C66      C        0.58650    0.82820    0.66590    1.000
    H48      H        0.62090    0.80270    0.67270    1.000
    H49      H        0.58170    0.83800    0.74690    1.000
    H50      H        0.46780    0.83040    0.61610    1.000
    C67      C        0.53390    0.93500    0.52570    1.000
    H51      H        0.48730    0.92080    0.45730    1.000
    C68      C        0.58900    0.99360    0.61460    1.000
    H52      H        0.66860    0.97980    0.67560    1.000
    H53      H        0.65760    0.01300    0.58330    1.000
    H54      H        0.49040    0.00390    0.65180    1.000
    N21      N        0.51640    0.97020    0.51670    1.000
    C69      C        0.42860    0.98590    0.40500    1.000
    H55      H        0.40170    0.96700    0.34350    1.000
    H56      H        0.31630    0.99750    0.41890    1.000
    H57      H        0.50810    0.00390    0.37660    1.000
    O7       O        0.79430    0.34608    0.88520    1.000
    C70      C        0.86030    0.37590    0.85260    1.000
    H58      H        0.84840    0.39450    0.91310    1.000
    H59      H        0.98790    0.37250    0.84610    1.000
    H60      H        0.79500    0.38330    0.77370    1.000
    Mn4      Mn       0.56554    0.33412    0.97811    1.000
    C71      C        0.43180    0.47317    0.91410    1.000
    C72      C        0.40800    0.51008    0.88880    1.000
    H61      H        0.34550    0.51730    0.81220    1.000
    N22      N        0.17430    0.46605    0.62790    1.000
    C73      C        0.52710    0.46413    0.02780    1.000
    H62      H        0.54740    0.43950    0.04780    1.000
    N23      N        0.42420    0.38024    0.88280    1.000
    N24      N        0.44090    0.29781    0.83260    1.000
    N25      N        0.68760    0.36924    0.12960    1.000
    C74      C        0.25850    0.45527    0.71580    1.000
    N26      N        0.96820    0.45403    0.37020    1.000
    C75      C        0.93570    0.42483    0.34220    1.000
    C76      C        0.99360    0.36044    0.39670    1.000
    C77      C        0.08580    0.36893    0.51150    1.000
    H63      H        0.09400    0.39330    0.53700    1.000
    C78      C        0.15570    0.30601    0.55620    1.000
    C79      C        0.39130    0.40938    0.85250    1.000
    C80      C        0.16530    0.34246    0.58880    1.000
    H64      H        0.22800    0.34920    0.66600    1.000
    C81      C        0.35230    0.28763    0.74650    1.000
    C82      C        0.78560    0.37923    0.21190    1.000
    C83      C        0.06410    0.29764    0.44120    1.000
    H65      H        0.05640    0.27320    0.41570    1.000
    N27      N        0.20200    0.21285    0.57090    1.000
    C84      C        0.98460    0.32389    0.36390    1.000
    H66      H        0.92240    0.31710    0.28670    1.000
    C85      C        0.22420    0.24171    0.60570    1.000
    C86      C        0.36050    0.44552    0.82580    1.000
    C87      C        0.90570    0.38830    0.31470    1.000
    C88      C        0.24300    0.27808    0.63760    1.000
    O8       O        0.89060    0.41894    0.87950    1.000
    C89      C        0.91350    0.32820    0.83410    1.000
    H67      H        0.87910    0.30270    0.82730    1.000
    H68      H        0.91830    0.33800    0.75310    1.000
    H69      H        0.03220    0.33040    0.88390    1.000
    C90      C        0.96610    0.43500    0.97430    1.000
    H70      H        0.01270    0.42080    0.04270    1.000
    C91      C        0.91100    0.49360    0.88540    1.000
    H71      H        0.83140    0.47980    0.82440    1.000
    H72      H        0.84240    0.51300    0.91670    1.000
    H73      H        0.00960    0.50390    0.84820    1.000
    N28      N        0.98360    0.47020    0.98330    1.000
    C92      C        0.07140    0.48590    0.09500    1.000
    H74      H        0.09830    0.46700    0.15650    1.000
    H75      H        0.18370    0.49750    0.08110    1.000
    H76      H        0.99190    0.50390    0.12340    1.000
    Mn5      Mn       0.50000    0.00000    0.00000    1.000
    Mn6      Mn       0.00000    0.50000    0.50000    1.000
