# CIF file generated by openbabel 3.1.0, see https://openbabel.org
data_I
_chemical_name_common 'image0'
_cell_length_a 13.893
_cell_length_b 13.893
_cell_length_c 18.368
_cell_angle_alpha 90
_cell_angle_beta 90
_cell_angle_gamma 120
_space_group_name_H-M_alt 'P 1'
_space_group_name_Hall 'P 1'
loop_
    _symmetry_equiv_pos_as_xyz
    x,y,z
loop_
    _atom_site_label
    _atom_site_type_symbol
    _atom_site_fract_x
    _atom_site_fract_y
    _atom_site_fract_z
    _atom_site_occupancy
    O1       O        0.86100    0.34990    0.33470    1.000
    C1       C        0.97160    0.57130    0.46590    1.000
    O2       O        0.94400    0.64100    0.44220    1.000
    O3       O        0.65010    0.51110    0.33470    1.000
    C2       C        0.42870    0.40030    0.46590    1.000
    O4       O        0.35900    0.30300    0.44220    1.000
    O5       O        0.48890    0.13900    0.33470    1.000
    C3       C        0.59970    0.02840    0.46590    1.000
    O6       O        0.69700    0.05600    0.44220    1.000
    O7       O        0.13900    0.65010    0.83470    1.000
    C4       C        0.02840    0.42870    0.96590    1.000
    O8       O        0.05600    0.35900    0.94220    1.000
    O9       O        0.34990    0.48890    0.83470    1.000
    C5       C        0.57130    0.59970    0.96590    1.000
    O10      O        0.64100    0.69700    0.94220    1.000
    O11      O        0.51110    0.86100    0.83470    1.000
    C6       C        0.40030    0.97160    0.96590    1.000
    O12      O        0.30300    0.94400    0.94220    1.000
    O13      O        0.34990    0.86100    0.66530    1.000
    C7       C        0.57130    0.97160    0.53410    1.000
    O14      O        0.64100    0.94400    0.55780    1.000
    O15      O        0.51110    0.65010    0.66530    1.000
    C8       C        0.40030    0.42870    0.53410    1.000
    O16      O        0.30300    0.35900    0.55780    1.000
    O17      O        0.13900    0.48890    0.66530    1.000
    C9       C        0.02840    0.59970    0.53410    1.000
    O18      O        0.05600    0.69700    0.55780    1.000
    O19      O        0.65010    0.13900    0.16530    1.000
    C10      C        0.42870    0.02840    0.03410    1.000
    O20      O        0.35900    0.05600    0.05780    1.000
    O21      O        0.48890    0.34990    0.16530    1.000
    C11      C        0.59970    0.57130    0.03410    1.000
    O22      O        0.69700    0.64100    0.05780    1.000
    O23      O        0.86100    0.51110    0.16530    1.000
    C12      C        0.97160    0.40030    0.03410    1.000
    O24      O        0.94400    0.30300    0.05780    1.000
    O25      O        0.13900    0.65010    0.66530    1.000
    C13      C        0.02840    0.42870    0.53410    1.000
    O26      O        0.05600    0.35900    0.55780    1.000
    O27      O        0.34990    0.48890    0.66530    1.000
    C14      C        0.57130    0.59970    0.53410    1.000
    O28      O        0.64100    0.69700    0.55780    1.000
    O29      O        0.51110    0.86100    0.66530    1.000
    C15      C        0.40030    0.97160    0.53410    1.000
    O30      O        0.30300    0.94400    0.55780    1.000
    O31      O        0.86100    0.34990    0.16530    1.000
    C16      C        0.97160    0.57130    0.03410    1.000
    O32      O        0.94400    0.64100    0.05780    1.000
    O33      O        0.65010    0.51110    0.16530    1.000
    C17      C        0.42870    0.40030    0.03410    1.000
    O34      O        0.35900    0.30300    0.05780    1.000
    O35      O        0.48890    0.13900    0.16530    1.000
    C18      C        0.59970    0.02840    0.03410    1.000
    O36      O        0.69700    0.05600    0.05780    1.000
    O37      O        0.65010    0.13900    0.33470    1.000
    C19      C        0.42870    0.02840    0.46590    1.000
    O38      O        0.35900    0.05600    0.44220    1.000
    O39      O        0.48890    0.34990    0.33470    1.000
    C20      C        0.59970    0.57130    0.46590    1.000
    O40      O        0.69700    0.64100    0.44220    1.000
    O41      O        0.86100    0.51110    0.33470    1.000
    C21      C        0.97160    0.40030    0.46590    1.000
    O42      O        0.94400    0.30300    0.44220    1.000
    O43      O        0.34990    0.86100    0.83470    1.000
    C22      C        0.57130    0.97160    0.96590    1.000
    O44      O        0.64100    0.94400    0.94220    1.000
    O45      O        0.51110    0.65010    0.83470    1.000
    C23      C        0.40030    0.42870    0.96590    1.000
    O46      O        0.30300    0.35900    0.94220    1.000
    O47      O        0.13900    0.48890    0.83470    1.000
    C24      C        0.02840    0.59970    0.96590    1.000
    O48      O        0.05600    0.69700    0.94220    1.000
    In1      In       0.75152    0.24848    0.25000    1.000
    N1       N        0.84100    0.15900    0.25000    1.000
    In2      In       0.75152    0.50304    0.25000    1.000
    N2       N        0.84100    0.68200    0.25000    1.000
    In3      In       0.49696    0.24848    0.25000    1.000
    N3       N        0.31800    0.15900    0.25000    1.000
    In4      In       0.24848    0.75152    0.75000    1.000
    N4       N        0.15900    0.84100    0.75000    1.000
    In5      In       0.24848    0.49696    0.75000    1.000
    N5       N        0.15900    0.31800    0.75000    1.000
    In6      In       0.50304    0.75152    0.75000    1.000
    N6       N        0.68200    0.84100    0.75000    1.000
    O49      O        0.66667    0.33333    0.25000    1.000
    O50      O        0.33333    0.66667    0.75000    1.000
    C25      C        0.88540    0.44270    0.36160    1.000
    C26      C        0.94490    0.47245    0.43240    1.000
    C27      C        0.55730    0.44270    0.36160    1.000
    C28      C        0.52755    0.47245    0.43240    1.000
    C29      C        0.55730    0.11460    0.36160    1.000
    C30      C        0.52755    0.05510    0.43240    1.000
    C31      C        0.11460    0.55730    0.86160    1.000
    C32      C        0.05510    0.52755    0.93240    1.000
    C33      C        0.44270    0.55730    0.86160    1.000
    C34      C        0.47245    0.52755    0.93240    1.000
    C35      C        0.44270    0.88540    0.86160    1.000
    C36      C        0.47245    0.94490    0.93240    1.000
    C37      C        0.44270    0.88540    0.63840    1.000
    C38      C        0.47245    0.94490    0.56760    1.000
    C39      C        0.44270    0.55730    0.63840    1.000
    C40      C        0.47245    0.52755    0.56760    1.000
    C41      C        0.11460    0.55730    0.63840    1.000
    C42      C        0.05510    0.52755    0.56760    1.000
    C43      C        0.55730    0.11460    0.13840    1.000
    C44      C        0.52755    0.05510    0.06760    1.000
    C45      C        0.55730    0.44270    0.13840    1.000
    C46      C        0.52755    0.47245    0.06760    1.000
    C47      C        0.88540    0.44270    0.13840    1.000
    C48      C        0.94490    0.47245    0.06760    1.000
    C49      C        0.87370    0.12630    0.30330    1.000
    H1       H        0.86070    0.13930    0.35090    1.000
    N7       N        0.92760    0.07240    0.28840    1.000
    C50      C        0.87370    0.74740    0.30330    1.000
    H2       H        0.86070    0.72140    0.35090    1.000
    N8       N        0.92760    0.85520    0.28840    1.000
    C51      C        0.25260    0.12630    0.30330    1.000
    H3       H        0.27860    0.13930    0.35090    1.000
    N9       N        0.14480    0.07240    0.28840    1.000
    C52      C        0.12630    0.87370    0.80330    1.000
    H4       H        0.13930    0.86070    0.85090    1.000
    N10      N        0.07240    0.92760    0.78840    1.000
    C53      C        0.12630    0.25260    0.80330    1.000
    H5       H        0.13930    0.27860    0.85090    1.000
    N11      N        0.07240    0.14480    0.78840    1.000
    C54      C        0.74740    0.87370    0.80330    1.000
    H6       H        0.72140    0.86070    0.85090    1.000
    N12      N        0.85520    0.92760    0.78840    1.000
    C55      C        0.12630    0.87370    0.69670    1.000
    H7       H        0.13930    0.86070    0.64910    1.000
    N13      N        0.07240    0.92760    0.71160    1.000
    C56      C        0.74740    0.87370    0.69670    1.000
    H8       H        0.72140    0.86070    0.64910    1.000
    N14      N        0.85520    0.92760    0.71160    1.000
    C57      C        0.12630    0.25260    0.69670    1.000
    H9       H        0.13930    0.27860    0.64910    1.000
    N15      N        0.07240    0.14480    0.71160    1.000
    C58      C        0.87370    0.12630    0.19670    1.000
    H10      H        0.86070    0.13930    0.14910    1.000
    N16      N        0.92760    0.07240    0.21160    1.000
    C59      C        0.25260    0.12630    0.19670    1.000
    H11      H        0.27860    0.13930    0.14910    1.000
    N17      N        0.14480    0.07240    0.21160    1.000
    C60      C        0.87370    0.74740    0.19670    1.000
    H12      H        0.86070    0.72140    0.14910    1.000
    N18      N        0.92760    0.85520    0.21160    1.000
    Co1      Co       0.00000    0.00000    0.35323    1.000
    Co2      Co       0.00000    0.00000    0.85323    1.000
    Co3      Co       0.00000    0.00000    0.64677    1.000
    Co4      Co       0.00000    0.00000    0.14677    1.000
