data_functionalizedCrystal
_audit_creation_method	'EQeq! by Chris Wilmer'
_symmetry_space_group_name_H-M	'P1'
_symmetry_Int_Tables_number	1
_symmetry_cell_setting	triclinic
loop_
_symmetry_equiv_pos_as_xyz
  x,y,z
_cell_length_a	20.1399
_cell_length_b	12.6527
_cell_length_c	21.1473
_cell_angle_alpha	90
_cell_angle_beta	110.702
_cell_angle_gamma	90
loop_
_atom_site_label
_atom_site_type_symbol
_atom_site_fract_x
_atom_site_fract_y
_atom_site_fract_z
_atom_site_charge
Mof_O 	O 	0.9332	0.6784	0.7713	-1.134
Mof_O 	O 	0.579	0.076	0.7786	-1.293
Mof_O 	O 	0.5565	0.6613	0.7277	-1.231
Mof_O 	O 	0.9557	0.2539	0.8523	-1.015
Mof_O 	O 	0.5076	0.373	0.5677	-1.003
Mof_O 	O 	0.7179	0.1458	0.824	-0.706
Mof_O 	O 	0.8576	0.1115	0.8546	-0.629
Mof_O 	O 	0.8139	0.6821	0.9389	-0.946
Mof_O 	O 	0.7999	0.1023	0.9558	-1.003
Mof_O 	O 	0.8869	0.2613	0.9511	-0.659
Mof_O 	O 	0.6209	0.3697	0.9367	-1.055
Mof_O 	O 	0.854	0.4853	0.913	-0.637
Mof_O 	O 	0.8146	0.2999	0.8153	-0.972
Mof_O 	O 	0.7179	0.4508	0.8048	-0.941
Mof_O 	O 	0.7855	0.4424	0.7189	-0.889
Mof_O 	O 	0.6188	0.2887	0.8132	-1.058
Mof_O 	O 	0.9247	0.4815	0.825	-0.933
Mof_O 	O 	0.6914	0.6459	0.8236	-0.651
Mof_O 	O 	0.5597	0.2488	0.6838	-1.03
Mof_O 	O 	0.652	0.0971	0.6902	-0.672
Mof_O 	O 	0.7975	0.6328	0.6784	-0.885
Mof_O 	O 	0.6758	0.647	0.5636	-1.103
Mof_O 	O 	0.9363	0.0794	0.773	-1.12
Mof_O 	O 	0.7942	0.1339	0.7177	-0.546
Mof_O 	O 	0.8854	0.2841	0.7195	-0.937
Mof_O 	O 	0.5992	0.4951	0.8216	-0.968
Mof_O 	O 	0.7208	0.5091	0.9222	-0.578
Mof_O 	O 	0.7396	0.2993	0.9099	-0.874
Mof_O 	O 	0.6729	0.6018	0.6935	-0.643
Mof_O 	O 	0.6246	0.2387	0.593	-0.915
Mof_O 	O 	0.6476	0.4445	0.6079	-0.902
Mof_O 	O 	0.8973	0.4893	0.6919	-1.028
Mof_O 	O 	0.7719	0.4739	0.5912	-0.996
Mof_O 	O 	0.7617	0.2709	0.6191	-0.877
Mof_O 	O 	0.5833	0.4528	0.6956	-1.006
Mof_O 	O 	0.8164	0.6189	0.8095	-0.626
Mof_O 	O 	0.3668	0.3026	0.6128	-1.138
Mof_O 	O 	0.1737	0.3955	0.8175	-1.196
Mof_O 	O 	0.0335	0.5405	0.9624	-0.681
Mof_O 	O 	0.3121	0.1224	0.4807	-0.924
Mof_O 	O 	0.0659	0.4221	0.9078	-1.334
Mof_O 	O 	0.693	0.2943	0.7161	-0.924
Mof_Na	Na	0.4054	0.2465	0.521	1.443
Mof_Si	Si	0.7532	0.3703	0.7648	2.585
Mof_Y 	Y 	0.9549	0.39011	0.92668	1.477
Mof_Cs	Cs	0.1891	0.2384	0.4309	3.713
Mof_Cs	Cs	0.6727	0.1572	0.9894	4.688
Mof_Cs	Cs	0.4722	0.3685	0.7389	5.533
Mof_Cs	Cs	0.0271	0.3822	0.7682	5.501
Mof_W 	W 	0.58713	0.3489	0.6312	1.226
Mof_W 	W 	0.6239	0.57214	0.75383	1.383
Mof_W 	W 	0.66282	0.3925	0.87871	1.195
Mof_W 	W 	0.80792	0.19742	0.90072	1.328
Mof_W 	W 	0.78516	0.57701	0.88274	1.468
Mof_W 	W 	0.63032	0.1701	0.76023	1.324
Mof_W 	W 	0.83854	0.37361	0.64629	0.713
Mof_W 	W 	0.88856	0.18227	0.79023	1.414
Mof_W 	W 	0.87517	0.57169	0.76149	1.352
Mof_W 	W 	0.71559	0.56019	0.63005	1.211
Mof_W 	W 	0.71257	0.16357	0.64758	0.977
Mof_C 	C 	0.0759	0.5104	0.9336	0.679
Mof_C 	C 	0.131	0.5818	0.9289	-0.677
Mof_H 	H 	0.1126	0.6228	0.8882	0.027
Mof_H 	H 	0.1456	0.6281	0.9673	0.115
Mof_H 	H 	0.171	0.5412	0.9282	0.025
Mof_O 	O 	0.0668	0.1784	0.7287	-1.143
Mof_O 	O 	0.421	0.576	0.7214	-1.293
Mof_O 	O 	0.4435	0.1613	0.7723	-1.229
Mof_O 	O 	0.0443	0.7539	0.6477	-1.01
Mof_O 	O 	0.4924	0.873	0.9323	-1.001
Mof_O 	O 	0.2821	0.6458	0.676	-0.707
Mof_O 	O 	0.1424	0.6115	0.6454	-0.634
Mof_O 	O 	0.1861	0.1821	0.5611	-0.952
Mof_O 	O 	0.2001	0.6023	0.5442	-1.007
Mof_O 	O 	0.1131	0.7613	0.5489	-0.662
Mof_O 	O 	0.3791	0.8697	0.5633	-1.057
Mof_O 	O 	0.146	0.9853	0.587	-0.625
Mof_O 	O 	0.1854	0.7999	0.6847	-0.971
Mof_O 	O 	0.2821	0.9508	0.6952	-0.931
Mof_O 	O 	0.2145	0.9424	0.7811	-0.878
Mof_O 	O 	0.3812	0.7887	0.6868	-1.06
Mof_O 	O 	0.0753	0.9815	0.675	-0.906
Mof_O 	O 	0.3086	0.1459	0.6764	-0.647
Mof_O 	O 	0.4403	0.7488	0.8162	-1.03
Mof_O 	O 	0.348	0.5971	0.8098	-0.672
Mof_O 	O 	0.2025	0.1328	0.8216	-0.879
Mof_O 	O 	0.3242	0.147	0.9364	-1.101
Mof_O 	O 	0.0637	0.5794	0.727	-1.136
Mof_O 	O 	0.2058	0.6339	0.7823	-0.549
Mof_O 	O 	0.1146	0.7841	0.7805	-0.927
Mof_O 	O 	0.4008	0.9951	0.6784	-0.961
Mof_O 	O 	0.2792	0.0091	0.5778	-0.588
Mof_O 	O 	0.2604	0.7993	0.5901	-0.876
Mof_O 	O 	0.3271	0.1018	0.8065	-0.641
Mof_O 	O 	0.3754	0.7387	0.907	-0.91
Mof_O 	O 	0.3524	0.9445	0.8921	-0.887
Mof_O 	O 	0.1027	0.9893	0.8081	-0.998
Mof_O 	O 	0.2281	0.9739	0.9088	-0.975
Mof_O 	O 	0.2383	0.7709	0.8809	-0.873
Mof_O 	O 	0.4167	0.9528	0.8044	-0.998
Mof_O 	O 	0.1836	0.1189	0.6905	-0.624
Mof_O 	O 	0.6332	0.8026	0.8872	-1.138
Mof_O 	O 	0.8263	0.8955	0.6825	-1.195
Mof_O 	O 	0.9665	0.0405	0.5376	-0.692
Mof_O 	O 	0.6879	0.6224	0.0193	-0.918
Mof_O 	O 	0.9341	0.9221	0.5922	-1.357
Mof_O 	O 	0.307	0.7943	0.7839	-0.923
Mof_Na	Na	0.5946	0.7465	0.979	1.469
Mof_Si	Si	0.2468	0.8703	0.7352	2.582
Mof_Y 	Y 	0.0451	0.89011	0.57332	1.497
Mof_Cs	Cs	0.8109	0.7384	0.0691	3.654
Mof_Cs	Cs	0.3273	0.6572	0.5106	4.734
Mof_Cs	Cs	0.5278	0.8685	0.7611	5.534
Mof_Cs	Cs	0.9729	0.8822	0.7318	5.37
Mof_W 	W 	0.41287	0.8489	0.8688	1.225
Mof_W 	W 	0.3761	0.07214	0.74617	1.36
Mof_W 	W 	0.33718	0.8925	0.62129	1.202
Mof_W 	W 	0.19208	0.69742	0.59928	1.328
Mof_W 	W 	0.21484	0.07701	0.61726	1.441
Mof_W 	W 	0.36968	0.6701	0.73977	1.324
Mof_W 	W 	0.16146	0.87361	0.85371	0.724
Mof_W 	W 	0.11144	0.68227	0.70977	1.419
Mof_W 	W 	0.12483	0.07169	0.73851	1.304
Mof_W 	W 	0.28441	0.06019	0.86995	1.177
Mof_W 	W 	0.28743	0.66357	0.85242	0.978
Mof_C 	C 	0.9241	0.0104	0.5664	0.713
Mof_C 	C 	0.869	0.0818	0.5711	-0.709
Mof_H 	H 	0.8874	0.1228	0.6118	0.037
Mof_H 	H 	0.8544	0.1281	0.5327	0.121
Mof_H 	H 	0.829	0.0412	0.5718	0.037
Mof_O 	O 	0.0668	0.3216	0.2287	-1.135
Mof_O 	O 	0.421	0.924	0.2214	-1.294
Mof_O 	O 	0.4435	0.3387	0.2723	-1.232
Mof_O 	O 	0.0443	0.7461	0.1477	-1.016
Mof_O 	O 	0.4924	0.627	0.4323	-1.003
Mof_O 	O 	0.2821	0.8542	0.176	-0.706
Mof_O 	O 	0.1424	0.8885	0.1454	-0.629
Mof_O 	O 	0.1861	0.3179	0.0611	-0.946
Mof_O 	O 	0.2001	0.8977	0.0442	-1.003
Mof_O 	O 	0.1131	0.7387	0.0489	-0.659
Mof_O 	O 	0.3791	0.6303	0.0633	-1.055
Mof_O 	O 	0.146	0.5147	0.087	-0.637
Mof_O 	O 	0.1854	0.7001	0.1847	-0.972
Mof_O 	O 	0.2821	0.5492	0.1952	-0.941
Mof_O 	O 	0.2145	0.5576	0.2811	-0.889
Mof_O 	O 	0.3812	0.7113	0.1868	-1.058
Mof_O 	O 	0.0753	0.5185	0.175	-0.933
Mof_O 	O 	0.3086	0.3541	0.1764	-0.651
Mof_O 	O 	0.4403	0.7512	0.3162	-1.03
Mof_O 	O 	0.348	0.9029	0.3098	-0.672
Mof_O 	O 	0.2025	0.3672	0.3216	-0.885
Mof_O 	O 	0.3242	0.353	0.4364	-1.103
Mof_O 	O 	0.0637	0.9206	0.227	-1.12
Mof_O 	O 	0.2058	0.8661	0.2823	-0.546
Mof_O 	O 	0.1146	0.7159	0.2805	-0.937
Mof_O 	O 	0.4008	0.5049	0.1784	-0.968
Mof_O 	O 	0.2792	0.4909	0.0778	-0.578
Mof_O 	O 	0.2604	0.7007	0.0901	-0.874
Mof_O 	O 	0.3271	0.3982	0.3065	-0.643
Mof_O 	O 	0.3754	0.7613	0.407	-0.915
Mof_O 	O 	0.3524	0.5555	0.3921	-0.902
Mof_O 	O 	0.1027	0.5107	0.3081	-1.028
Mof_O 	O 	0.2281	0.5261	0.4088	-0.996
Mof_O 	O 	0.2383	0.7291	0.3809	-0.877
Mof_O 	O 	0.4167	0.5472	0.3044	-1.006
Mof_O 	O 	0.1836	0.3811	0.1905	-0.626
Mof_O 	O 	0.6332	0.6974	0.3872	-1.138
Mof_O 	O 	0.8263	0.6045	0.1825	-1.196
Mof_O 	O 	0.9665	0.4595	0.0376	-0.681
Mof_O 	O 	0.6879	0.8776	0.5193	-0.924
Mof_O 	O 	0.9341	0.5779	0.0922	-1.334
Mof_O 	O 	0.307	0.7057	0.2839	-0.924
Mof_Na	Na	0.5946	0.7535	0.479	1.443
Mof_Si	Si	0.2468	0.6297	0.2352	2.585
Mof_Y 	Y 	0.0451	0.60989	0.07332	1.477
Mof_Cs	Cs	0.8109	0.7616	0.5691	3.713
Mof_Cs	Cs	0.3273	0.8428	0.0106	4.688
Mof_Cs	Cs	0.5278	0.6315	0.2611	5.533
Mof_Cs	Cs	0.9729	0.6178	0.2318	5.501
Mof_W 	W 	0.41287	0.6511	0.3688	1.226
Mof_W 	W 	0.3761	0.42786	0.24617	1.383
Mof_W 	W 	0.33718	0.6075	0.12129	1.195
Mof_W 	W 	0.19208	0.80258	0.09928	1.328
Mof_W 	W 	0.21484	0.42299	0.11726	1.468
Mof_W 	W 	0.36968	0.8299	0.23977	1.324
Mof_W 	W 	0.16146	0.62639	0.35371	0.713
Mof_W 	W 	0.11144	0.81773	0.20977	1.414
Mof_W 	W 	0.12483	0.42831	0.23851	1.352
Mof_W 	W 	0.28441	0.43981	0.36995	1.211
Mof_W 	W 	0.28743	0.83643	0.35242	0.977
Mof_C 	C 	0.9241	0.4896	0.0664	0.679
Mof_C 	C 	0.869	0.4182	0.0711	-0.677
Mof_H 	H 	0.8874	0.3772	0.1118	0.027
Mof_H 	H 	0.8544	0.3719	0.0327	0.115
Mof_H 	H 	0.829	0.4588	0.0718	0.025
Mof_O 	O 	0.9332	0.8216	0.2713	-1.143
Mof_O 	O 	0.579	0.424	0.2786	-1.293
Mof_O 	O 	0.5565	0.8387	0.2277	-1.229
Mof_O 	O 	0.9557	0.2461	0.3523	-1.01
Mof_O 	O 	0.5076	0.127	0.0677	-1.001
Mof_O 	O 	0.7179	0.3542	0.324	-0.707
Mof_O 	O 	0.8576	0.3885	0.3546	-0.634
Mof_O 	O 	0.8139	0.8179	0.4389	-0.952
Mof_O 	O 	0.7999	0.3977	0.4558	-1.007
Mof_O 	O 	0.8869	0.2387	0.4511	-0.662
Mof_O 	O 	0.6209	0.1303	0.4367	-1.057
Mof_O 	O 	0.854	0.0147	0.413	-0.625
Mof_O 	O 	0.8146	0.2001	0.3153	-0.971
Mof_O 	O 	0.7179	0.0492	0.3048	-0.931
Mof_O 	O 	0.7855	0.0576	0.2189	-0.878
Mof_O 	O 	0.6188	0.2113	0.3132	-1.06
Mof_O 	O 	0.9247	0.0185	0.325	-0.906
Mof_O 	O 	0.6914	0.8541	0.3236	-0.647
Mof_O 	O 	0.5597	0.2512	0.1838	-1.03
Mof_O 	O 	0.652	0.4029	0.1902	-0.672
Mof_O 	O 	0.7975	0.8672	0.1784	-0.879
Mof_O 	O 	0.6758	0.853	0.0636	-1.101
Mof_O 	O 	0.9363	0.4206	0.273	-1.136
Mof_O 	O 	0.7942	0.3661	0.2177	-0.549
Mof_O 	O 	0.8854	0.2159	0.2195	-0.927
Mof_O 	O 	0.5992	0.0049	0.3216	-0.961
Mof_O 	O 	0.7208	0.9909	0.4222	-0.588
Mof_O 	O 	0.7396	0.2007	0.4099	-0.876
Mof_O 	O 	0.6729	0.8982	0.1935	-0.641
Mof_O 	O 	0.6246	0.2613	0.093	-0.91
Mof_O 	O 	0.6476	0.0555	0.1079	-0.887
Mof_O 	O 	0.8973	0.0107	0.1919	-0.998
Mof_O 	O 	0.7719	0.0261	0.0912	-0.975
Mof_O 	O 	0.7617	0.2291	0.1191	-0.873
Mof_O 	O 	0.5833	0.0472	0.1956	-0.998
Mof_O 	O 	0.8164	0.8811	0.3095	-0.624
Mof_O 	O 	0.3668	0.1974	0.1128	-1.138
Mof_O 	O 	0.1737	0.1045	0.3175	-1.195
Mof_O 	O 	0.0335	0.9595	0.4624	-0.692
Mof_O 	O 	0.3121	0.3776	0.9807	-0.918
Mof_O 	O 	0.0659	0.0779	0.4078	-1.357
Mof_O 	O 	0.693	0.2057	0.2161	-0.923
Mof_Na	Na	0.4054	0.2535	0.021	1.469
Mof_Si	Si	0.7532	0.1297	0.2648	2.582
Mof_Y 	Y 	0.9549	0.10989	0.42668	1.497
Mof_Cs	Cs	0.1891	0.2616	0.9309	3.654
Mof_Cs	Cs	0.6727	0.3428	0.4894	4.734
Mof_Cs	Cs	0.4722	0.1315	0.2389	5.534
Mof_Cs	Cs	0.0271	0.1178	0.2682	5.37
Mof_W 	W 	0.58713	0.1511	0.1312	1.225
Mof_W 	W 	0.6239	0.92786	0.25383	1.36
Mof_W 	W 	0.66282	0.1075	0.37871	1.202
Mof_W 	W 	0.80792	0.30258	0.40072	1.328
Mof_W 	W 	0.78516	0.92299	0.38274	1.441
Mof_W 	W 	0.63032	0.3299	0.26023	1.324
Mof_W 	W 	0.83854	0.12639	0.14629	0.724
Mof_W 	W 	0.88856	0.31773	0.29023	1.419
Mof_W 	W 	0.87517	0.92831	0.26149	1.304
Mof_W 	W 	0.71559	0.93981	0.13005	1.177
Mof_W 	W 	0.71257	0.33643	0.14758	0.978
Mof_C 	C 	0.0759	0.9896	0.4336	0.713
Mof_C 	C 	0.131	0.9182	0.4289	-0.709
Mof_H 	H 	0.1126	0.8772	0.3882	0.037
Mof_H 	H 	0.1456	0.8719	0.4673	0.121
Mof_H 	H 	0.171	0.9588	0.4282	0.037
_end
