data_functionalizedCrystal
_audit_creation_method	'EQeq! by Chris Wilmer'
_symmetry_space_group_name_H-M	'P1'
_symmetry_Int_Tables_number	1
_symmetry_cell_setting	triclinic
loop_
_symmetry_equiv_pos_as_xyz
  x,y,z
_cell_length_a	14.0022
_cell_length_b	14.0022
_cell_length_c	14.0022
_cell_angle_alpha	104.649
_cell_angle_beta	104.649
_cell_angle_gamma	119.618
loop_
_atom_site_label
_atom_site_type_symbol
_atom_site_fract_x
_atom_site_fract_y
_atom_site_fract_z
_atom_site_charge
Mof_Pr	Pr	0.9838	0.83755	0.54875	2.288
Mof_Pr	Pr	0.2888	0.43505	0.45125	2.545
Mof_Pr	Pr	0.68505	0.7338	0.64625	2.507
Mof_Pr	Pr	0.08755	0.0388	0.35375	2.532
Mof_H 	H 	0.6887	0.7402	0.4069	-0.048
Mof_H 	H 	0.3627	0.658	0.2231	0.084
Mof_H 	H 	0.6627	0.8825	0.1942	0.073
Mof_H 	H 	0.3699	0.0239	0.4382	-0.02
Mof_H 	H 	0.3333	0.2818	0.5931	-0.055
Mof_H 	H 	0.4349	0.1396	0.7769	0.071
Mof_H 	H 	0.6883	0.4685	0.8058	0.063
Mof_H 	H 	0.5857	0.9317	0.5618	0.053
Mof_H 	H 	0.5318	0.4387	0.4485	-0.056
Mof_H 	H 	0.3896	0.1127	0.2047	0.07
Mof_H 	H 	0.7185	0.4127	0.2802	0.059
Mof_H 	H 	0.1817	0.1199	0.846	0.059
Mof_H 	H 	0.9902	0.0833	0.5515	-0.013
Mof_H 	H 	0.908	0.1849	0.7953	0.119
Mof_H 	H 	0.1325	0.4383	0.7198	0.13
Mof_H 	H 	0.2739	0.3357	0.154	0.046
Mof_H 	H 	0.2308	0.7308	0.5	-0.017
Mof_H 	H 	0.9808	0.9808	-0	-0.06
Mof_C 	C 	0.6964	0.8215	0.3057	-0.156
Mof_C 	C 	0.6417	0.7482	0.3539	0.11
Mof_C 	C 	0.5166	0.687	0.323	-0.151
Mof_C 	C 	0.4464	0.699	0.2438	-0.05
Mof_C 	C 	0.5011	0.7723	0.1956	0.141
Mof_C 	C 	0.6261	0.8335	0.2264	-0.047
Mof_C 	C 	0.8291	0.8885	0.3358	0.478
Mof_C 	C 	0.455	0.6083	0.3723	0.433
Mof_C 	C 	0.28167	0.8739	0.46297	-0.22
Mof_C 	C 	0.38027	0.9725	0.46297	0.092
Mof_C 	C 	0.1599	0.8533	0.4224	0.593
Mof_C 	C 	0.5158	0.3907	0.6943	-0.166
Mof_C 	C 	0.3943	0.2878	0.6461	0.118
Mof_C 	C 	0.364	0.1936	0.677	-0.16
Mof_C 	C 	0.4552	0.2026	0.7562	-0.049
Mof_C 	C 	0.5767	0.3055	0.8044	0.134
Mof_C 	C 	0.6071	0.3997	0.7736	-0.045
Mof_C 	C 	0.5527	0.4933	0.6642	0.487
Mof_C 	C 	0.236	0.0827	0.6277	0.43
Mof_C 	C 	0.41093	0.8187	0.53703	-0.206
Mof_C 	C 	0.50953	0.9173	0.53703	-0.002
Mof_C 	C 	0.4309	0.7375	0.5776	0.6
Mof_C 	C 	0.6407	0.4464	0.3749	-0.169
Mof_C 	C 	0.5378	0.3917	0.3935	0.119
Mof_C 	C 	0.4436	0.2666	0.3296	-0.163
Mof_C 	C 	0.4526	0.1964	0.2474	-0.047
Mof_C 	C 	0.5555	0.2511	0.2288	0.131
Mof_C 	C 	0.6497	0.3761	0.2926	-0.045
Mof_C 	C 	0.7433	0.5791	0.4406	0.482
Mof_C 	C 	0.3327	0.205	0.3467	0.439
Mof_C 	C 	0.0687	0.03167	0.90777	-0.122
Mof_C 	C 	0.1673	0.13027	0.90777	-0.027
Mof_C 	C 	0.9875	0.9099	0.8066	0.406
Mof_C 	C 	0.0715	0.2658	0.6251	0.027
Mof_C 	C 	0.9982	0.1443	0.6065	-0.098
Mof_C 	C 	0.937	0.114	0.6704	-0.071
Mof_C 	C 	0.949	0.2052	0.7526	-0.258
Mof_C 	C 	0.0223	0.3267	0.7712	0.324
Mof_C 	C 	0.0835	0.3571	0.7074	-0.185
Mof_C 	C 	0.1385	0.3027	0.5594	0.426
Mof_C 	C 	0.8583	0.986	0.6533	0.415
Mof_C 	C 	0.1239	0.16093	0.09223	-0.208
Mof_C 	C 	0.2225	0.25953	0.09223	-0.001
Mof_C 	C 	0.1033	0.1809	0.1934	0.603
Mof_C 	C 	0.4945	0.9945	0.5	0.126
Mof_C 	C 	0.2968	0.7968	0.5	0.151
Mof_C 	C 	0.2445	0.2445	-0	0.11
Mof_C 	C 	0.0468	0.0468	-0	0.154
Mof_O 	O 	0.8929	0.8659	0.3898	-0.66
Mof_O 	O 	0.8757	0.9699	0.3046	-0.57
Mof_O 	O 	0.5163	0.6059	0.4534	-0.65
Mof_O 	O 	0.3378	0.5416	0.3322	-0.508
Mof_O 	O 	0.4357	0.7853	0.1194	-0.168
Mof_O 	O 	0.0806	0.7886	0.4444	-0.563
Mof_O 	O 	0.1484	0.9057	0.3677	-0.585
Mof_O 	O 	0.4761	0.5031	0.6102	-0.666
Mof_O 	O 	0.6653	0.5711	0.6954	-0.562
Mof_O 	O 	0.1525	0.0629	0.5466	-0.634
Mof_O 	O 	0.2094	0.0056	0.6678	-0.501
Mof_O 	O 	0.6659	0.3163	0.8806	-0.196
Mof_O 	O 	0.3442	0.6362	0.5556	-0.636
Mof_O 	O 	0.538	0.7807	0.6323	-0.632
Mof_O 	O 	0.7531	0.6429	0.527	-0.66
Mof_O 	O 	0.8211	0.6257	0.4058	-0.553
Mof_O 	O 	0.3129	0.2663	0.4104	-0.657
Mof_O 	O 	0.2556	0.0878	0.2962	-0.522
Mof_O 	O 	0.5663	0.1857	0.1504	-0.198
Mof_O 	O 	0.8862	0.8306	0.792	-0.595
Mof_O 	O 	0.0307	0.8984	0.7427	-0.453
Mof_O 	O 	0.1159	0.2261	0.473	-0.634
Mof_O 	O 	0.2199	0.4153	0.5942	-0.536
Mof_O 	O 	0.8559	0.9025	0.5896	-0.627
Mof_O 	O 	0.7916	0.9594	0.7038	-0.499
Mof_O 	O 	0.0353	0.4159	0.8496	-0.185
Mof_O 	O 	0.0386	0.0942	0.208	-0.629
Mof_O 	O 	0.1557	0.288	0.2573	-0.631
Mof_O 	O 	0.5886	0.0886	0.5	-0.222
Mof_O 	O 	0.3386	0.3386	-0	-0.181
_end
