data_functionalizedCrystal
_audit_creation_method	'EQeq! by Chris Wilmer'
_symmetry_space_group_name_H-M	'P1'
_symmetry_Int_Tables_number	1
_symmetry_cell_setting	triclinic
loop_
_symmetry_equiv_pos_as_xyz
  x,y,z
_cell_length_a	26.124
_cell_length_b	26.124
_cell_length_c	26.124
_cell_angle_alpha	90
_cell_angle_beta	90
_cell_angle_gamma	90
loop_
_atom_site_label
_atom_site_type_symbol
_atom_site_fract_x
_atom_site_fract_y
_atom_site_fract_z
_atom_site_charge
Mof_C 	C 	0.0033	0.3675	0.0536	-0.475
Mof_H 	H 	0.0323	0.3826	0.0712	0.169
Mof_H 	H 	0.9725	0.3849	0.0648	0.238
Mof_C 	C 	0.0096	0.3733	0.9973	0.528
Mof_O 	O 	0.0144	0.4173	0.9769	-0.299
Mof_O 	O 	0.0089	0.3338	0.9699	-0.406
Mof_C 	C 	0.0033	0.8675	0.5536	-0.341
Mof_H 	H 	0.0323	0.8826	0.5712	0.141
Mof_H 	H 	0.9725	0.8849	0.5648	0.21
Mof_C 	C 	0.0096	0.8733	0.4973	0.421
Mof_O 	O 	0.0144	0.9173	0.4769	-0.286
Mof_O 	O 	0.0089	0.8338	0.4699	-0.43
Mof_C 	C 	0.5033	0.3675	0.5536	-0.207
Mof_H 	H 	0.5323	0.3826	0.5712	0.105
Mof_H 	H 	0.4725	0.3849	0.5648	0.111
Mof_C 	C 	0.5096	0.3733	0.4973	0.396
Mof_O 	O 	0.5144	0.4173	0.4769	-0.289
Mof_O 	O 	0.5089	0.3338	0.4699	-0.421
Mof_C 	C 	0.5033	0.8675	0.0536	-0.326
Mof_H 	H 	0.5323	0.8826	0.0712	0.137
Mof_H 	H 	0.4725	0.8849	0.0648	0.143
Mof_C 	C 	0.5096	0.8733	0.9973	0.487
Mof_O 	O 	0.5144	0.9173	0.9769	-0.239
Mof_O 	O 	0.5089	0.8338	0.9699	-0.387
Mof_C 	C 	0.2467	0.3825	0.5536	-0.206
Mof_H 	H 	0.2177	0.3674	0.5712	0.105
Mof_H 	H 	0.2775	0.3651	0.5648	0.112
Mof_C 	C 	0.2404	0.3767	0.4973	0.397
Mof_O 	O 	0.2356	0.3327	0.4769	-0.288
Mof_O 	O 	0.2411	0.4162	0.4699	-0.42
Mof_C 	C 	0.2467	0.8825	0.0536	-0.318
Mof_H 	H 	0.2177	0.8674	0.0712	0.133
Mof_H 	H 	0.2775	0.8651	0.0648	0.139
Mof_C 	C 	0.2404	0.8767	0.9973	0.482
Mof_O 	O 	0.2356	0.8327	0.9769	-0.263
Mof_O 	O 	0.2411	0.9162	0.9699	-0.344
Mof_C 	C 	0.7467	0.3825	0.0536	-0.33
Mof_H 	H 	0.7177	0.3674	0.0712	0.135
Mof_H 	H 	0.7775	0.3651	0.0648	0.141
Mof_C 	C 	0.7404	0.3767	0.9973	0.495
Mof_O 	O 	0.7356	0.3327	0.9769	-0.269
Mof_O 	O 	0.7411	0.4162	0.9699	-0.391
Mof_C 	C 	0.7467	0.8825	0.5536	-0.198
Mof_H 	H 	0.7177	0.8674	0.5712	0.104
Mof_H 	H 	0.7775	0.8651	0.5648	0.113
Mof_C 	C 	0.7404	0.8767	0.4973	0.387
Mof_O 	O 	0.7356	0.8327	0.4769	-0.282
Mof_O 	O 	0.7411	0.9162	0.4699	-0.372
Mof_C 	C 	0.7467	0.8675	0.1964	-0.205
Mof_H 	H 	0.7177	0.8826	0.1788	0.109
Mof_H 	H 	0.7775	0.8849	0.1852	0.118
Mof_C 	C 	0.7404	0.8733	0.2527	0.393
Mof_O 	O 	0.7356	0.9173	0.2731	-0.256
Mof_O 	O 	0.7411	0.8338	0.2801	-0.414
Mof_C 	C 	0.7467	0.3675	0.6964	-0.207
Mof_H 	H 	0.7177	0.3826	0.6788	0.106
Mof_H 	H 	0.7775	0.3849	0.6852	0.113
Mof_C 	C 	0.7404	0.3733	0.7527	0.398
Mof_O 	O 	0.7356	0.4173	0.7731	-0.286
Mof_O 	O 	0.7411	0.3338	0.7801	-0.417
Mof_C 	C 	0.2467	0.8675	0.6964	-0.204
Mof_H 	H 	0.2177	0.8826	0.6788	0.108
Mof_H 	H 	0.2775	0.8849	0.6852	0.117
Mof_C 	C 	0.2404	0.8733	0.7527	0.392
Mof_O 	O 	0.2356	0.9173	0.7731	-0.255
Mof_O 	O 	0.2411	0.8338	0.7801	-0.413
Mof_C 	C 	0.2467	0.3675	0.1964	-0.205
Mof_H 	H 	0.2177	0.3826	0.1788	0.105
Mof_H 	H 	0.2775	0.3849	0.1852	0.111
Mof_C 	C 	0.2404	0.3733	0.2527	0.397
Mof_O 	O 	0.2356	0.4173	0.2731	-0.288
Mof_O 	O 	0.2411	0.3338	0.2801	-0.42
Mof_C 	C 	0.5033	0.8825	0.6964	-0.197
Mof_H 	H 	0.5323	0.8674	0.6788	0.104
Mof_H 	H 	0.4725	0.8651	0.6852	0.111
Mof_C 	C 	0.5096	0.8767	0.7527	0.386
Mof_O 	O 	0.5144	0.8327	0.7731	-0.281
Mof_O 	O 	0.5089	0.9162	0.7801	-0.371
Mof_C 	C 	0.5033	0.3825	0.1964	-0.206
Mof_H 	H 	0.5323	0.3674	0.1788	0.106
Mof_H 	H 	0.4725	0.3651	0.1852	0.112
Mof_C 	C 	0.5096	0.3767	0.2527	0.397
Mof_O 	O 	0.5144	0.3327	0.2731	-0.288
Mof_O 	O 	0.5089	0.4162	0.2801	-0.42
Mof_C 	C 	0.0033	0.8825	0.1964	-0.336
Mof_H 	H 	0.0323	0.8674	0.1788	0.138
Mof_H 	H 	0.9725	0.8651	0.1852	0.207
Mof_C 	C 	0.0096	0.8767	0.2527	0.417
Mof_O 	O 	0.0144	0.8327	0.2731	-0.311
Mof_O 	O 	0.0089	0.9162	0.2801	-0.385
Mof_C 	C 	0.0033	0.3825	0.6964	-0.345
Mof_H 	H 	0.0323	0.3674	0.6788	0.14
Mof_H 	H 	0.9725	0.3651	0.6852	0.209
Mof_C 	C 	0.0096	0.3767	0.7527	0.428
Mof_O 	O 	0.0144	0.3327	0.7731	-0.315
Mof_O 	O 	0.0089	0.4162	0.7801	-0.432
Mof_C 	C 	0.0536	0.0033	0.3675	-0.474
Mof_H 	H 	0.0712	0.0323	0.3826	0.17
Mof_H 	H 	0.0648	0.9725	0.3849	0.239
Mof_C 	C 	0.9973	0.0096	0.3733	0.529
Mof_O 	O 	0.9769	0.0144	0.4173	-0.298
Mof_O 	O 	0.9699	0.0089	0.3338	-0.405
Mof_C 	C 	0.0536	0.5033	0.8675	-0.325
Mof_H 	H 	0.0712	0.5323	0.8826	0.138
Mof_H 	H 	0.0648	0.4725	0.8849	0.144
Mof_C 	C 	0.9973	0.5096	0.8733	0.488
Mof_O 	O 	0.9769	0.5144	0.9173	-0.239
Mof_O 	O 	0.9699	0.5089	0.8338	-0.387
Mof_C 	C 	0.5536	0.0033	0.8675	-0.34
Mof_H 	H 	0.5712	0.0323	0.8826	0.142
Mof_H 	H 	0.5648	0.9725	0.8849	0.211
Mof_C 	C 	0.4973	0.0096	0.8733	0.422
Mof_O 	O 	0.4769	0.0144	0.9173	-0.285
Mof_O 	O 	0.4699	0.0089	0.8338	-0.429
Mof_C 	C 	0.5536	0.5033	0.3675	-0.206
Mof_H 	H 	0.5712	0.5323	0.3826	0.106
Mof_H 	H 	0.5648	0.4725	0.3849	0.112
Mof_C 	C 	0.4973	0.5096	0.3733	0.397
Mof_O 	O 	0.4769	0.5144	0.4173	-0.288
Mof_O 	O 	0.4699	0.5089	0.3338	-0.42
Mof_C 	C 	0.5536	0.2467	0.3825	-0.206
Mof_H 	H 	0.5712	0.2177	0.3674	0.105
Mof_H 	H 	0.5648	0.2775	0.3651	0.112
Mof_C 	C 	0.4973	0.2404	0.3767	0.397
Mof_O 	O 	0.4769	0.2356	0.3327	-0.288
Mof_O 	O 	0.4699	0.2411	0.4162	-0.42
Mof_C 	C 	0.5536	0.7467	0.8825	-0.198
Mof_H 	H 	0.5712	0.7177	0.8674	0.104
Mof_H 	H 	0.5648	0.7775	0.8651	0.113
Mof_C 	C 	0.4973	0.7404	0.8767	0.387
Mof_O 	O 	0.4769	0.7356	0.8327	-0.282
Mof_O 	O 	0.4699	0.7411	0.9162	-0.372
Mof_C 	C 	0.0536	0.2467	0.8825	-0.318
Mof_H 	H 	0.0712	0.2177	0.8674	0.133
Mof_H 	H 	0.0648	0.2775	0.8651	0.139
Mof_C 	C 	0.9973	0.2404	0.8767	0.482
Mof_O 	O 	0.9769	0.2356	0.8327	-0.263
Mof_O 	O 	0.9699	0.2411	0.9162	-0.344
Mof_C 	C 	0.0536	0.7467	0.3825	-0.33
Mof_H 	H 	0.0712	0.7177	0.3674	0.135
Mof_H 	H 	0.0648	0.7775	0.3651	0.141
Mof_C 	C 	0.9973	0.7404	0.3767	0.495
Mof_O 	O 	0.9769	0.7356	0.3327	-0.269
Mof_O 	O 	0.9699	0.7411	0.4162	-0.391
Mof_C 	C 	0.1964	0.7467	0.8675	-0.205
Mof_H 	H 	0.1788	0.7177	0.8826	0.109
Mof_H 	H 	0.1852	0.7775	0.8849	0.118
Mof_C 	C 	0.2527	0.7404	0.8733	0.393
Mof_O 	O 	0.2731	0.7356	0.9173	-0.256
Mof_O 	O 	0.2801	0.7411	0.8338	-0.414
Mof_C 	C 	0.1964	0.2467	0.3675	-0.205
Mof_H 	H 	0.1788	0.2177	0.3826	0.105
Mof_H 	H 	0.1852	0.2775	0.3849	0.111
Mof_C 	C 	0.2527	0.2404	0.3733	0.397
Mof_O 	O 	0.2731	0.2356	0.4173	-0.288
Mof_O 	O 	0.2801	0.2411	0.3338	-0.42
Mof_C 	C 	0.6964	0.7467	0.3675	-0.207
Mof_H 	H 	0.6788	0.7177	0.3826	0.106
Mof_H 	H 	0.6852	0.7775	0.3849	0.113
Mof_C 	C 	0.7527	0.7404	0.3733	0.398
Mof_O 	O 	0.7731	0.7356	0.4173	-0.286
Mof_O 	O 	0.7801	0.7411	0.3338	-0.417
Mof_C 	C 	0.6964	0.2467	0.8675	-0.204
Mof_H 	H 	0.6788	0.2177	0.8826	0.108
Mof_H 	H 	0.6852	0.2775	0.8849	0.117
Mof_C 	C 	0.7527	0.2404	0.8733	0.392
Mof_O 	O 	0.7731	0.2356	0.9173	-0.255
Mof_O 	O 	0.7801	0.2411	0.8338	-0.413
Mof_C 	C 	0.6964	0.5033	0.8825	-0.197
Mof_H 	H 	0.6788	0.5323	0.8674	0.104
Mof_H 	H 	0.6852	0.4725	0.8651	0.111
Mof_C 	C 	0.7527	0.5096	0.8767	0.386
Mof_O 	O 	0.7731	0.5144	0.8327	-0.281
Mof_O 	O 	0.7801	0.5089	0.9162	-0.371
Mof_C 	C 	0.6964	0.0033	0.3825	-0.345
Mof_H 	H 	0.6788	0.0323	0.3674	0.14
Mof_H 	H 	0.6852	0.9725	0.3651	0.209
Mof_C 	C 	0.7527	0.0096	0.3767	0.428
Mof_O 	O 	0.7731	0.0144	0.3327	-0.315
Mof_O 	O 	0.7801	0.0089	0.4162	-0.432
Mof_C 	C 	0.1964	0.5033	0.3825	-0.206
Mof_H 	H 	0.1788	0.5323	0.3674	0.106
Mof_H 	H 	0.1852	0.4725	0.3651	0.112
Mof_C 	C 	0.2527	0.5096	0.3767	0.397
Mof_O 	O 	0.2731	0.5144	0.3327	-0.288
Mof_O 	O 	0.2801	0.5089	0.4162	-0.42
Mof_C 	C 	0.1964	0.0033	0.8825	-0.336
Mof_H 	H 	0.1788	0.0323	0.8674	0.138
Mof_H 	H 	0.1852	0.9725	0.8651	0.207
Mof_C 	C 	0.2527	0.0096	0.8767	0.417
Mof_O 	O 	0.2731	0.0144	0.8327	-0.311
Mof_O 	O 	0.2801	0.0089	0.9162	-0.385
Mof_C 	C 	0.3675	0.0536	0.0033	-0.474
Mof_H 	H 	0.3826	0.0712	0.0323	0.17
Mof_H 	H 	0.3849	0.0648	0.9725	0.239
Mof_C 	C 	0.3733	0.9973	0.0096	0.529
Mof_O 	O 	0.4173	0.9769	0.0144	-0.298
Mof_O 	O 	0.3338	0.9699	0.0089	-0.405
Mof_C 	C 	0.3675	0.5536	0.5033	-0.206
Mof_H 	H 	0.3826	0.5712	0.5323	0.106
Mof_H 	H 	0.3849	0.5648	0.4725	0.112
Mof_C 	C 	0.3733	0.4973	0.5096	0.397
Mof_O 	O 	0.4173	0.4769	0.5144	-0.288
Mof_O 	O 	0.3338	0.4699	0.5089	-0.42
Mof_C 	C 	0.8675	0.0536	0.5033	-0.325
Mof_H 	H 	0.8826	0.0712	0.5323	0.138
Mof_H 	H 	0.8849	0.0648	0.4725	0.144
Mof_C 	C 	0.8733	0.9973	0.5096	0.488
Mof_O 	O 	0.9173	0.9769	0.5144	-0.239
Mof_O 	O 	0.8338	0.9699	0.5089	-0.387
Mof_C 	C 	0.8675	0.5536	0.0033	-0.34
Mof_H 	H 	0.8826	0.5712	0.0323	0.142
Mof_H 	H 	0.8849	0.5648	0.9725	0.211
Mof_C 	C 	0.8733	0.4973	0.0096	0.422
Mof_O 	O 	0.9173	0.4769	0.0144	-0.285
Mof_O 	O 	0.8338	0.4699	0.0089	-0.429
Mof_C 	C 	0.3825	0.5536	0.2467	-0.206
Mof_H 	H 	0.3674	0.5712	0.2177	0.105
Mof_H 	H 	0.3651	0.5648	0.2775	0.112
Mof_C 	C 	0.3767	0.4973	0.2404	0.397
Mof_O 	O 	0.3327	0.4769	0.2356	-0.288
Mof_O 	O 	0.4162	0.4699	0.2411	-0.42
Mof_C 	C 	0.3825	0.0536	0.7467	-0.33
Mof_H 	H 	0.3674	0.0712	0.7177	0.135
Mof_H 	H 	0.3651	0.0648	0.7775	0.141
Mof_C 	C 	0.3767	0.9973	0.7404	0.495
Mof_O 	O 	0.3327	0.9769	0.7356	-0.269
Mof_O 	O 	0.4162	0.9699	0.7411	-0.391
Mof_C 	C 	0.8825	0.5536	0.7467	-0.198
Mof_H 	H 	0.8674	0.5712	0.7177	0.104
Mof_H 	H 	0.8651	0.5648	0.7775	0.113
Mof_C 	C 	0.8767	0.4973	0.7404	0.387
Mof_O 	O 	0.8327	0.4769	0.7356	-0.282
Mof_O 	O 	0.9162	0.4699	0.7411	-0.372
Mof_C 	C 	0.8825	0.0536	0.2467	-0.318
Mof_H 	H 	0.8674	0.0712	0.2177	0.133
Mof_H 	H 	0.8651	0.0648	0.2775	0.139
Mof_C 	C 	0.8767	0.9973	0.2404	0.482
Mof_O 	O 	0.8327	0.9769	0.2356	-0.263
Mof_O 	O 	0.9162	0.9699	0.2411	-0.344
Mof_C 	C 	0.8675	0.1964	0.7467	-0.205
Mof_H 	H 	0.8826	0.1788	0.7177	0.109
Mof_H 	H 	0.8849	0.1852	0.7775	0.118
Mof_C 	C 	0.8733	0.2527	0.7404	0.393
Mof_O 	O 	0.9173	0.2731	0.7356	-0.256
Mof_O 	O 	0.8338	0.2801	0.7411	-0.414
Mof_C 	C 	0.8675	0.6964	0.2467	-0.204
Mof_H 	H 	0.8826	0.6788	0.2177	0.108
Mof_H 	H 	0.8849	0.6852	0.2775	0.117
Mof_C 	C 	0.8733	0.7527	0.2404	0.392
Mof_O 	O 	0.9173	0.7731	0.2356	-0.255
Mof_O 	O 	0.8338	0.7801	0.2411	-0.413
Mof_C 	C 	0.3675	0.1964	0.2467	-0.205
Mof_H 	H 	0.3826	0.1788	0.2177	0.105
Mof_H 	H 	0.3849	0.1852	0.2775	0.111
Mof_C 	C 	0.3733	0.2527	0.2404	0.397
Mof_O 	O 	0.4173	0.2731	0.2356	-0.288
Mof_O 	O 	0.3338	0.2801	0.2411	-0.42
Mof_C 	C 	0.3675	0.6964	0.7467	-0.207
Mof_H 	H 	0.3826	0.6788	0.7177	0.106
Mof_H 	H 	0.3849	0.6852	0.7775	0.113
Mof_C 	C 	0.3733	0.7527	0.7404	0.398
Mof_O 	O 	0.4173	0.7731	0.7356	-0.286
Mof_O 	O 	0.3338	0.7801	0.7411	-0.417
Mof_C 	C 	0.8825	0.6964	0.5033	-0.197
Mof_H 	H 	0.8674	0.6788	0.5323	0.104
Mof_H 	H 	0.8651	0.6852	0.4725	0.111
Mof_C 	C 	0.8767	0.7527	0.5096	0.386
Mof_O 	O 	0.8327	0.7731	0.5144	-0.281
Mof_O 	O 	0.9162	0.7801	0.5089	-0.371
Mof_C 	C 	0.8825	0.1964	0.0033	-0.336
Mof_H 	H 	0.8674	0.1788	0.0323	0.138
Mof_H 	H 	0.8651	0.1852	0.9725	0.207
Mof_C 	C 	0.8767	0.2527	0.0096	0.417
Mof_O 	O 	0.8327	0.2731	0.0144	-0.311
Mof_O 	O 	0.9162	0.2801	0.0089	-0.385
Mof_C 	C 	0.3825	0.6964	0.0033	-0.345
Mof_H 	H 	0.3674	0.6788	0.0323	0.14
Mof_H 	H 	0.3651	0.6852	0.9725	0.209
Mof_C 	C 	0.3767	0.7527	0.0096	0.428
Mof_O 	O 	0.3327	0.7731	0.0144	-0.315
Mof_O 	O 	0.4162	0.7801	0.0089	-0.432
Mof_C 	C 	0.3825	0.1964	0.5033	-0.206
Mof_H 	H 	0.3674	0.1788	0.5323	0.106
Mof_H 	H 	0.3651	0.1852	0.4725	0.112
Mof_C 	C 	0.3767	0.2527	0.5096	0.397
Mof_O 	O 	0.3327	0.2731	0.5144	-0.288
Mof_O 	O 	0.4162	0.2801	0.5089	-0.42
Mof_C 	C 	0.1175	0.2533	0.9464	-0.103
Mof_H 	H 	0.1326	0.2823	0.9288	0.088
Mof_H 	H 	0.1349	0.2225	0.9352	0.093
Mof_C 	C 	0.1233	0.2596	0.0027	0.29
Mof_O 	O 	0.1673	0.2644	0.0231	-0.283
Mof_O 	O 	0.0838	0.2589	0.0301	-0.396
Mof_C 	C 	0.1175	0.7533	0.4464	-0.224
Mof_H 	H 	0.1326	0.7823	0.4288	0.112
Mof_H 	H 	0.1349	0.7225	0.4352	0.116
Mof_C 	C 	0.1233	0.7596	0.5027	0.4
Mof_O 	O 	0.1673	0.7644	0.5231	-0.29
Mof_O 	O 	0.0838	0.7589	0.5301	-0.414
Mof_C 	C 	0.6175	0.2533	0.4464	-0.206
Mof_H 	H 	0.6326	0.2823	0.4288	0.106
Mof_H 	H 	0.6349	0.2225	0.4352	0.111
Mof_C 	C 	0.6233	0.2596	0.5027	0.397
Mof_O 	O 	0.6673	0.2644	0.5231	-0.289
Mof_O 	O 	0.5838	0.2589	0.5301	-0.421
Mof_C 	C 	0.6175	0.7533	0.9464	-0.093
Mof_H 	H 	0.6326	0.7823	0.9288	0.085
Mof_H 	H 	0.6349	0.7225	0.9352	0.09
Mof_C 	C 	0.6233	0.7596	0.0027	0.293
Mof_O 	O 	0.6673	0.7644	0.0231	-0.281
Mof_O 	O 	0.5838	0.7589	0.0301	-0.402
Mof_C 	C 	0.1325	0.4967	0.4464	-0.206
Mof_H 	H 	0.1174	0.4677	0.4288	0.105
Mof_H 	H 	0.1151	0.5275	0.4352	0.111
Mof_C 	C 	0.1267	0.4904	0.5027	0.397
Mof_O 	O 	0.0827	0.4856	0.5231	-0.296
Mof_O 	O 	0.1662	0.4911	0.5301	-0.422
Mof_C 	C 	0.1325	0.9967	0.9464	0.204
Mof_H 	H 	0.1174	0.9677	0.9288	0.011
Mof_H 	H 	0.1151	0.0275	0.9352	-0.043
Mof_C 	C 	0.1267	0.9904	0.0027	0.205
Mof_O 	O 	0.0827	0.9856	0.0231	-0.221
Mof_O 	O 	0.1662	0.9911	0.0301	-0.322
Mof_C 	C 	0.6325	0.4967	0.9464	-0.09
Mof_H 	H 	0.6174	0.4677	0.9288	0.083
Mof_H 	H 	0.6151	0.5275	0.9352	0.089
Mof_C 	C 	0.6267	0.4904	0.0027	0.291
Mof_O 	O 	0.5827	0.4856	0.0231	-0.281
Mof_O 	O 	0.6662	0.4911	0.0301	-0.402
Mof_C 	C 	0.6325	0.9967	0.4464	0.095
Mof_H 	H 	0.6174	0.9677	0.4288	0.033
Mof_H 	H 	0.6151	0.0275	0.4352	-0.024
Mof_C 	C 	0.6267	0.9904	0.5027	0.308
Mof_O 	O 	0.5827	0.9856	0.5231	-0.221
Mof_O 	O 	0.6662	0.9911	0.5301	-0.339
Mof_C 	C 	0.6175	0.9967	0.8036	0.087
Mof_H 	H 	0.6326	0.9677	0.8212	0.036
Mof_H 	H 	0.6349	0.0275	0.8148	-0.019
Mof_C 	C 	0.6233	0.9904	0.7473	0.311
Mof_O 	O 	0.6673	0.9856	0.7269	-0.222
Mof_O 	O 	0.5838	0.9911	0.7199	-0.339
Mof_C 	C 	0.6175	0.4967	0.3036	-0.206
Mof_H 	H 	0.6326	0.4677	0.3212	0.106
Mof_H 	H 	0.6349	0.5275	0.3148	0.112
Mof_C 	C 	0.6233	0.4904	0.2473	0.397
Mof_O 	O 	0.6673	0.4856	0.2269	-0.289
Mof_O 	O 	0.5838	0.4911	0.2199	-0.421
Mof_C 	C 	0.1175	0.9967	0.3036	0.085
Mof_H 	H 	0.1326	0.9677	0.3212	0.036
Mof_H 	H 	0.1349	0.0275	0.3148	-0.022
Mof_C 	C 	0.1233	0.9904	0.2473	0.309
Mof_O 	O 	0.1673	0.9856	0.2269	-0.222
Mof_O 	O 	0.0838	0.9911	0.2199	-0.331
Mof_C 	C 	0.1175	0.4967	0.8036	-0.224
Mof_H 	H 	0.1326	0.4677	0.8212	0.113
Mof_H 	H 	0.1349	0.5275	0.8148	0.118
Mof_C 	C 	0.1233	0.4904	0.7473	0.4
Mof_O 	O 	0.1673	0.4856	0.7269	-0.29
Mof_O 	O 	0.0838	0.4911	0.7199	-0.414
Mof_C 	C 	0.6325	0.7533	0.3036	-0.207
Mof_H 	H 	0.6174	0.7823	0.3212	0.107
Mof_H 	H 	0.6151	0.7225	0.3148	0.112
Mof_C 	C 	0.6267	0.7596	0.2473	0.398
Mof_O 	O 	0.5827	0.7644	0.2269	-0.289
Mof_O 	O 	0.6662	0.7589	0.2199	-0.421
Mof_C 	C 	0.6325	0.2533	0.8036	-0.208
Mof_H 	H 	0.6174	0.2823	0.8212	0.108
Mof_H 	H 	0.6151	0.2225	0.8148	0.113
Mof_C 	C 	0.6267	0.2596	0.7473	0.397
Mof_O 	O 	0.5827	0.2644	0.7269	-0.289
Mof_O 	O 	0.6662	0.2589	0.7199	-0.421
Mof_C 	C 	0.1325	0.7533	0.8036	-0.209
Mof_H 	H 	0.1174	0.7823	0.8212	0.108
Mof_H 	H 	0.1151	0.7225	0.8148	0.113
Mof_C 	C 	0.1267	0.7596	0.7473	0.398
Mof_O 	O 	0.0827	0.7644	0.7269	-0.296
Mof_O 	O 	0.1662	0.7589	0.7199	-0.422
Mof_C 	C 	0.1325	0.2533	0.3036	-0.206
Mof_H 	H 	0.1174	0.2823	0.3212	0.105
Mof_H 	H 	0.1151	0.2225	0.3148	0.11
Mof_C 	C 	0.1267	0.2596	0.2473	0.397
Mof_O 	O 	0.0827	0.2644	0.2269	-0.298
Mof_O 	O 	0.1662	0.2589	0.2199	-0.424
Mof_C 	C 	0.7533	0.3036	0.6325	-0.207
Mof_H 	H 	0.7823	0.3212	0.6174	0.107
Mof_H 	H 	0.7225	0.3148	0.6151	0.112
Mof_C 	C 	0.7596	0.2473	0.6267	0.398
Mof_O 	O 	0.7644	0.2269	0.5827	-0.289
Mof_O 	O 	0.7589	0.2199	0.6662	-0.421
Mof_C 	C 	0.7533	0.8036	0.1325	-0.209
Mof_H 	H 	0.7823	0.8212	0.1174	0.108
Mof_H 	H 	0.7225	0.8148	0.1151	0.113
Mof_C 	C 	0.7596	0.7473	0.1267	0.398
Mof_O 	O 	0.7644	0.7269	0.0827	-0.296
Mof_O 	O 	0.7589	0.7199	0.1662	-0.422
Mof_C 	C 	0.2533	0.3036	0.1325	-0.206
Mof_H 	H 	0.2823	0.3212	0.1174	0.105
Mof_H 	H 	0.2225	0.3148	0.1151	0.11
Mof_C 	C 	0.2596	0.2473	0.1267	0.397
Mof_O 	O 	0.2644	0.2269	0.0827	-0.298
Mof_O 	O 	0.2589	0.2199	0.1662	-0.424
Mof_C 	C 	0.2533	0.8036	0.6325	-0.208
Mof_H 	H 	0.2823	0.8212	0.6174	0.108
Mof_H 	H 	0.2225	0.8148	0.6151	0.113
Mof_C 	C 	0.2596	0.7473	0.6267	0.397
Mof_O 	O 	0.2644	0.7269	0.5827	-0.289
Mof_O 	O 	0.2589	0.7199	0.6662	-0.421
Mof_C 	C 	0.9967	0.8036	0.6175	0.087
Mof_H 	H 	0.9677	0.8212	0.6326	0.036
Mof_H 	H 	0.0275	0.8148	0.6349	-0.019
Mof_C 	C 	0.9904	0.7473	0.6233	0.311
Mof_O 	O 	0.9856	0.7269	0.6673	-0.222
Mof_O 	O 	0.9911	0.7199	0.5838	-0.339
Mof_C 	C 	0.9967	0.3036	0.1175	0.085
Mof_H 	H 	0.9677	0.3212	0.1326	0.036
Mof_H 	H 	0.0275	0.3148	0.1349	-0.022
Mof_C 	C 	0.9904	0.2473	0.1233	0.309
Mof_O 	O 	0.9856	0.2269	0.1673	-0.222
Mof_O 	O 	0.9911	0.2199	0.0838	-0.331
Mof_C 	C 	0.4967	0.8036	0.1175	-0.224
Mof_H 	H 	0.4677	0.8212	0.1326	0.113
Mof_H 	H 	0.5275	0.8148	0.1349	0.118
Mof_C 	C 	0.4904	0.7473	0.1233	0.4
Mof_O 	O 	0.4856	0.7269	0.1673	-0.29
Mof_O 	O 	0.4911	0.7199	0.0838	-0.414
Mof_C 	C 	0.4967	0.3036	0.6175	-0.206
Mof_H 	H 	0.4677	0.3212	0.6326	0.106
Mof_H 	H 	0.5275	0.3148	0.6349	0.112
Mof_C 	C 	0.4904	0.2473	0.6233	0.397
Mof_O 	O 	0.4856	0.2269	0.6673	-0.289
Mof_O 	O 	0.4911	0.2199	0.5838	-0.421
Mof_C 	C 	0.4967	0.4464	0.1325	-0.206
Mof_H 	H 	0.4677	0.4288	0.1174	0.105
Mof_H 	H 	0.5275	0.4352	0.1151	0.111
Mof_C 	C 	0.4904	0.5027	0.1267	0.397
Mof_O 	O 	0.4856	0.5231	0.0827	-0.296
Mof_O 	O 	0.4911	0.5301	0.1662	-0.422
Mof_C 	C 	0.4967	0.9464	0.6325	-0.09
Mof_H 	H 	0.4677	0.9288	0.6174	0.083
Mof_H 	H 	0.5275	0.9352	0.6151	0.089
Mof_C 	C 	0.4904	0.0027	0.6267	0.291
Mof_O 	O 	0.4856	0.0231	0.5827	-0.281
Mof_O 	O 	0.4911	0.0301	0.6662	-0.402
Mof_C 	C 	0.9967	0.4464	0.6325	0.095
Mof_H 	H 	0.9677	0.4288	0.6174	0.033
Mof_H 	H 	0.0275	0.4352	0.6151	-0.024
Mof_C 	C 	0.9904	0.5027	0.6267	0.308
Mof_O 	O 	0.9856	0.5231	0.5827	-0.221
Mof_O 	O 	0.9911	0.5301	0.6662	-0.339
Mof_C 	C 	0.9967	0.9464	0.1325	0.204
Mof_H 	H 	0.9677	0.9288	0.1174	0.011
Mof_H 	H 	0.0275	0.9352	0.1151	-0.043
Mof_C 	C 	0.9904	0.0027	0.1267	0.205
Mof_O 	O 	0.9856	0.0231	0.0827	-0.221
Mof_O 	O 	0.9911	0.0301	0.1662	-0.322
Mof_C 	C 	0.2533	0.9464	0.1175	-0.103
Mof_H 	H 	0.2823	0.9288	0.1326	0.088
Mof_H 	H 	0.2225	0.9352	0.1349	0.093
Mof_C 	C 	0.2596	0.0027	0.1233	0.29
Mof_O 	O 	0.2644	0.0231	0.1673	-0.283
Mof_O 	O 	0.2589	0.0301	0.0838	-0.396
Mof_C 	C 	0.2533	0.4464	0.6175	-0.206
Mof_H 	H 	0.2823	0.4288	0.6326	0.106
Mof_H 	H 	0.2225	0.4352	0.6349	0.111
Mof_C 	C 	0.2596	0.5027	0.6233	0.397
Mof_O 	O 	0.2644	0.5231	0.6673	-0.289
Mof_O 	O 	0.2589	0.5301	0.5838	-0.421
Mof_C 	C 	0.7533	0.9464	0.6175	-0.093
Mof_H 	H 	0.7823	0.9288	0.6326	0.085
Mof_H 	H 	0.7225	0.9352	0.6349	0.09
Mof_C 	C 	0.7596	0.0027	0.6233	0.293
Mof_O 	O 	0.7644	0.0231	0.6673	-0.281
Mof_O 	O 	0.7589	0.0301	0.5838	-0.402
Mof_C 	C 	0.7533	0.4464	0.1175	-0.224
Mof_H 	H 	0.7823	0.4288	0.1326	0.112
Mof_H 	H 	0.7225	0.4352	0.1349	0.116
Mof_C 	C 	0.7596	0.5027	0.1233	0.4
Mof_O 	O 	0.7644	0.5231	0.1673	-0.29
Mof_O 	O 	0.7589	0.5301	0.0838	-0.414
Mof_C 	C 	0.8036	0.6175	0.9967	0.087
Mof_H 	H 	0.8212	0.6326	0.9677	0.036
Mof_H 	H 	0.8148	0.6349	0.0275	-0.019
Mof_C 	C 	0.7473	0.6233	0.9904	0.311
Mof_O 	O 	0.7269	0.6673	0.9856	-0.222
Mof_O 	O 	0.7199	0.5838	0.9911	-0.339
Mof_C 	C 	0.8036	0.1175	0.4967	-0.224
Mof_H 	H 	0.8212	0.1326	0.4677	0.113
Mof_H 	H 	0.8148	0.1349	0.5275	0.118
Mof_C 	C 	0.7473	0.1233	0.4904	0.4
Mof_O 	O 	0.7269	0.1673	0.4856	-0.29
Mof_O 	O 	0.7199	0.0838	0.4911	-0.414
Mof_C 	C 	0.3036	0.6175	0.4967	-0.206
Mof_H 	H 	0.3212	0.6326	0.4677	0.106
Mof_H 	H 	0.3148	0.6349	0.5275	0.112
Mof_C 	C 	0.2473	0.6233	0.4904	0.397
Mof_O 	O 	0.2269	0.6673	0.4856	-0.289
Mof_O 	O 	0.2199	0.5838	0.4911	-0.421
Mof_C 	C 	0.3036	0.1175	0.9967	0.085
Mof_H 	H 	0.3212	0.1326	0.9677	0.036
Mof_H 	H 	0.3148	0.1349	0.0275	-0.022
Mof_C 	C 	0.2473	0.1233	0.9904	0.309
Mof_O 	O 	0.2269	0.1673	0.9856	-0.222
Mof_O 	O 	0.2199	0.0838	0.9911	-0.331
Mof_C 	C 	0.3036	0.6325	0.7533	-0.207
Mof_H 	H 	0.3212	0.6174	0.7823	0.107
Mof_H 	H 	0.3148	0.6151	0.7225	0.112
Mof_C 	C 	0.2473	0.6267	0.7596	0.398
Mof_O 	O 	0.2269	0.5827	0.7644	-0.289
Mof_O 	O 	0.2199	0.6662	0.7589	-0.421
Mof_C 	C 	0.3036	0.1325	0.2533	-0.206
Mof_H 	H 	0.3212	0.1174	0.2823	0.105
Mof_H 	H 	0.3148	0.1151	0.2225	0.11
Mof_C 	C 	0.2473	0.1267	0.2596	0.397
Mof_O 	O 	0.2269	0.0827	0.2644	-0.298
Mof_O 	O 	0.2199	0.1662	0.2589	-0.424
Mof_C 	C 	0.8036	0.6325	0.2533	-0.208
Mof_H 	H 	0.8212	0.6174	0.2823	0.108
Mof_H 	H 	0.8148	0.6151	0.2225	0.113
Mof_C 	C 	0.7473	0.6267	0.2596	0.397
Mof_O 	O 	0.7269	0.5827	0.2644	-0.289
Mof_O 	O 	0.7199	0.6662	0.2589	-0.421
Mof_C 	C 	0.8036	0.1325	0.7533	-0.209
Mof_H 	H 	0.8212	0.1174	0.7823	0.108
Mof_H 	H 	0.8148	0.1151	0.7225	0.113
Mof_C 	C 	0.7473	0.1267	0.7596	0.398
Mof_O 	O 	0.7269	0.0827	0.7644	-0.296
Mof_O 	O 	0.7199	0.1662	0.7589	-0.422
Mof_C 	C 	0.9464	0.1175	0.2533	-0.103
Mof_H 	H 	0.9288	0.1326	0.2823	0.088
Mof_H 	H 	0.9352	0.1349	0.2225	0.093
Mof_C 	C 	0.0027	0.1233	0.2596	0.29
Mof_O 	O 	0.0231	0.1673	0.2644	-0.283
Mof_O 	O 	0.0301	0.0838	0.2589	-0.396
Mof_C 	C 	0.9464	0.6175	0.7533	-0.093
Mof_H 	H 	0.9288	0.6326	0.7823	0.085
Mof_H 	H 	0.9352	0.6349	0.7225	0.09
Mof_C 	C 	0.0027	0.6233	0.7596	0.293
Mof_O 	O 	0.0231	0.6673	0.7644	-0.281
Mof_O 	O 	0.0301	0.5838	0.7589	-0.402
Mof_C 	C 	0.4464	0.1175	0.7533	-0.224
Mof_H 	H 	0.4288	0.1326	0.7823	0.112
Mof_H 	H 	0.4352	0.1349	0.7225	0.116
Mof_C 	C 	0.5027	0.1233	0.7596	0.4
Mof_O 	O 	0.5231	0.1673	0.7644	-0.29
Mof_O 	O 	0.5301	0.0838	0.7589	-0.414
Mof_C 	C 	0.4464	0.6175	0.2533	-0.206
Mof_H 	H 	0.4288	0.6326	0.2823	0.106
Mof_H 	H 	0.4352	0.6349	0.2225	0.111
Mof_C 	C 	0.5027	0.6233	0.2596	0.397
Mof_O 	O 	0.5231	0.6673	0.2644	-0.289
Mof_O 	O 	0.5301	0.5838	0.2589	-0.421
Mof_C 	C 	0.4464	0.1325	0.4967	-0.206
Mof_H 	H 	0.4288	0.1174	0.4677	0.105
Mof_H 	H 	0.4352	0.1151	0.5275	0.111
Mof_C 	C 	0.5027	0.1267	0.4904	0.397
Mof_O 	O 	0.5231	0.0827	0.4856	-0.296
Mof_O 	O 	0.5301	0.1662	0.4911	-0.422
Mof_C 	C 	0.4464	0.6325	0.9967	0.095
Mof_H 	H 	0.4288	0.6174	0.9677	0.033
Mof_H 	H 	0.4352	0.6151	0.0275	-0.024
Mof_C 	C 	0.5027	0.6267	0.9904	0.308
Mof_O 	O 	0.5231	0.5827	0.9856	-0.221
Mof_O 	O 	0.5301	0.6662	0.9911	-0.339
Mof_C 	C 	0.9464	0.1325	0.9967	0.204
Mof_H 	H 	0.9288	0.1174	0.9677	0.011
Mof_H 	H 	0.9352	0.1151	0.0275	-0.043
Mof_C 	C 	0.0027	0.1267	0.9904	0.205
Mof_O 	O 	0.0231	0.0827	0.9856	-0.221
Mof_O 	O 	0.0301	0.1662	0.9911	-0.322
Mof_C 	C 	0.9464	0.6325	0.4967	-0.09
Mof_H 	H 	0.9288	0.6174	0.4677	0.083
Mof_H 	H 	0.9352	0.6151	0.5275	0.089
Mof_C 	C 	0.0027	0.6267	0.4904	0.291
Mof_O 	O 	0.0231	0.5827	0.4856	-0.281
Mof_O 	O 	0.0301	0.6662	0.4911	-0.402
Mof_C 	C 	0.9967	0.6325	0.9464	0.196
Mof_H 	H 	0.9677	0.6174	0.9288	0.014
Mof_H 	H 	0.0275	0.6151	0.9352	-0.04
Mof_C 	C 	0.9904	0.6267	0.0027	0.208
Mof_O 	O 	0.9856	0.5827	0.0231	-0.214
Mof_O 	O 	0.9911	0.6662	0.0301	-0.321
Mof_C 	C 	0.9967	0.1325	0.4464	0.101
Mof_H 	H 	0.9677	0.1174	0.4288	0.03
Mof_H 	H 	0.0275	0.1151	0.4352	-0.027
Mof_C 	C 	0.9904	0.1267	0.5027	0.307
Mof_O 	O 	0.9856	0.0827	0.5231	-0.227
Mof_O 	O 	0.9911	0.1662	0.5301	-0.339
Mof_C 	C 	0.4967	0.6325	0.4464	-0.206
Mof_H 	H 	0.4677	0.6174	0.4288	0.106
Mof_H 	H 	0.5275	0.6151	0.4352	0.112
Mof_C 	C 	0.4904	0.6267	0.5027	0.397
Mof_O 	O 	0.4856	0.5827	0.5231	-0.288
Mof_O 	O 	0.4911	0.6662	0.5301	-0.42
Mof_C 	C 	0.4967	0.1325	0.9464	-0.088
Mof_H 	H 	0.4677	0.1174	0.9288	0.082
Mof_H 	H 	0.5275	0.1151	0.9352	0.088
Mof_C 	C 	0.4904	0.1267	0.0027	0.289
Mof_O 	O 	0.4856	0.0827	0.0231	-0.289
Mof_O 	O 	0.4911	0.1662	0.0301	-0.404
Mof_C 	C 	0.7533	0.6175	0.4464	-0.207
Mof_H 	H 	0.7823	0.6326	0.4288	0.107
Mof_H 	H 	0.7225	0.6349	0.4352	0.112
Mof_C 	C 	0.7596	0.6233	0.5027	0.398
Mof_O 	O 	0.7644	0.6673	0.5231	-0.288
Mof_O 	O 	0.7589	0.5838	0.5301	-0.42
Mof_C 	C 	0.7533	0.1175	0.9464	-0.107
Mof_H 	H 	0.7823	0.1326	0.9288	0.09
Mof_H 	H 	0.7225	0.1349	0.9352	0.094
Mof_C 	C 	0.7596	0.1233	0.0027	0.294
Mof_O 	O 	0.7644	0.1673	0.0231	-0.283
Mof_O 	O 	0.7589	0.0838	0.0301	-0.396
Mof_C 	C 	0.2533	0.6175	0.9464	-0.089
Mof_H 	H 	0.2823	0.6326	0.9288	0.083
Mof_H 	H 	0.2225	0.6349	0.9352	0.088
Mof_C 	C 	0.2596	0.6233	0.0027	0.289
Mof_O 	O 	0.2644	0.6673	0.0231	-0.282
Mof_O 	O 	0.2589	0.5838	0.0301	-0.402
Mof_C 	C 	0.2533	0.1175	0.4464	-0.223
Mof_H 	H 	0.2823	0.1326	0.4288	0.111
Mof_H 	H 	0.2225	0.1349	0.4352	0.116
Mof_C 	C 	0.2596	0.1233	0.5027	0.399
Mof_O 	O 	0.2644	0.1673	0.5231	-0.291
Mof_O 	O 	0.2589	0.0838	0.5301	-0.414
Mof_C 	C 	0.2533	0.1325	0.8036	-0.207
Mof_H 	H 	0.2823	0.1174	0.8212	0.107
Mof_H 	H 	0.2225	0.1151	0.8148	0.112
Mof_C 	C 	0.2596	0.1267	0.7473	0.397
Mof_O 	O 	0.2644	0.0827	0.7269	-0.297
Mof_O 	O 	0.2589	0.1662	0.7199	-0.423
Mof_C 	C 	0.2533	0.6325	0.3036	-0.206
Mof_H 	H 	0.2823	0.6174	0.3212	0.106
Mof_H 	H 	0.2225	0.6151	0.3148	0.111
Mof_C 	C 	0.2596	0.6267	0.2473	0.397
Mof_O 	O 	0.2644	0.5827	0.2269	-0.29
Mof_O 	O 	0.2589	0.6662	0.2199	-0.422
Mof_C 	C 	0.7533	0.1325	0.3036	-0.207
Mof_H 	H 	0.7823	0.1174	0.3212	0.106
Mof_H 	H 	0.7225	0.1151	0.3148	0.111
Mof_C 	C 	0.7596	0.1267	0.2473	0.398
Mof_O 	O 	0.7644	0.0827	0.2269	-0.297
Mof_O 	O 	0.7589	0.1662	0.2199	-0.423
Mof_C 	C 	0.7533	0.6325	0.8036	-0.209
Mof_H 	H 	0.7823	0.6174	0.8212	0.109
Mof_H 	H 	0.7225	0.6151	0.8148	0.113
Mof_C 	C 	0.7596	0.6267	0.7473	0.398
Mof_O 	O 	0.7644	0.5827	0.7269	-0.289
Mof_O 	O 	0.7589	0.6662	0.7199	-0.42
Mof_C 	C 	0.4967	0.1175	0.3036	-0.223
Mof_H 	H 	0.4677	0.1326	0.3212	0.111
Mof_H 	H 	0.5275	0.1349	0.3148	0.116
Mof_C 	C 	0.4904	0.1233	0.2473	0.4
Mof_O 	O 	0.4856	0.1673	0.2269	-0.291
Mof_O 	O 	0.4911	0.0838	0.2199	-0.415
Mof_C 	C 	0.4967	0.6175	0.8036	-0.208
Mof_H 	H 	0.4677	0.6326	0.8212	0.108
Mof_H 	H 	0.5275	0.6349	0.8148	0.113
Mof_C 	C 	0.4904	0.6233	0.7473	0.398
Mof_O 	O 	0.4856	0.6673	0.7269	-0.289
Mof_O 	O 	0.4911	0.5838	0.7199	-0.42
Mof_C 	C 	0.9967	0.1175	0.8036	0.076
Mof_H 	H 	0.9677	0.1326	0.8212	0.04
Mof_H 	H 	0.0275	0.1349	0.8148	-0.017
Mof_C 	C 	0.9904	0.1233	0.7473	0.312
Mof_O 	O 	0.9856	0.1673	0.7269	-0.223
Mof_O 	O 	0.9911	0.0838	0.7199	-0.333
Mof_C 	C 	0.9967	0.6175	0.3036	0.097
Mof_H 	H 	0.9677	0.6326	0.3212	0.032
Mof_H 	H 	0.0275	0.6349	0.3148	-0.024
Mof_C 	C 	0.9904	0.6233	0.2473	0.308
Mof_O 	O 	0.9856	0.6673	0.2269	-0.221
Mof_O 	O 	0.9911	0.5838	0.2199	-0.338
Mof_C 	C 	0.9464	0.9967	0.6325	0.196
Mof_H 	H 	0.9288	0.9677	0.6174	0.014
Mof_H 	H 	0.9352	0.0275	0.6151	-0.04
Mof_C 	C 	0.0027	0.9904	0.6267	0.208
Mof_O 	O 	0.0231	0.9856	0.5827	-0.214
Mof_O 	O 	0.0301	0.9911	0.6662	-0.321
Mof_C 	C 	0.9464	0.4967	0.1325	-0.088
Mof_H 	H 	0.9288	0.4677	0.1174	0.082
Mof_H 	H 	0.9352	0.5275	0.1151	0.088
Mof_C 	C 	0.0027	0.4904	0.1267	0.289
Mof_O 	O 	0.0231	0.4856	0.0827	-0.289
Mof_O 	O 	0.0301	0.4911	0.1662	-0.404
Mof_C 	C 	0.4464	0.9967	0.1325	0.101
Mof_H 	H 	0.4288	0.9677	0.1174	0.03
Mof_H 	H 	0.4352	0.0275	0.1151	-0.027
Mof_C 	C 	0.5027	0.9904	0.1267	0.307
Mof_O 	O 	0.5231	0.9856	0.0827	-0.227
Mof_O 	O 	0.5301	0.9911	0.1662	-0.339
Mof_C 	C 	0.4464	0.4967	0.6325	-0.206
Mof_H 	H 	0.4288	0.4677	0.6174	0.106
Mof_H 	H 	0.4352	0.5275	0.6151	0.112
Mof_C 	C 	0.5027	0.4904	0.6267	0.397
Mof_O 	O 	0.5231	0.4856	0.5827	-0.288
Mof_O 	O 	0.5301	0.4911	0.6662	-0.42
Mof_C 	C 	0.4464	0.7533	0.6175	-0.207
Mof_H 	H 	0.4288	0.7823	0.6326	0.107
Mof_H 	H 	0.4352	0.7225	0.6349	0.112
Mof_C 	C 	0.5027	0.7596	0.6233	0.398
Mof_O 	O 	0.5231	0.7644	0.6673	-0.288
Mof_O 	O 	0.5301	0.7589	0.5838	-0.42
Mof_C 	C 	0.4464	0.2533	0.1175	-0.223
Mof_H 	H 	0.4288	0.2823	0.1326	0.111
Mof_H 	H 	0.4352	0.2225	0.1349	0.116
Mof_C 	C 	0.5027	0.2596	0.1233	0.399
Mof_O 	O 	0.5231	0.2644	0.1673	-0.291
Mof_O 	O 	0.5301	0.2589	0.0838	-0.414
Mof_C 	C 	0.9464	0.7533	0.1175	-0.107
Mof_H 	H 	0.9288	0.7823	0.1326	0.09
Mof_H 	H 	0.9352	0.7225	0.1349	0.094
Mof_C 	C 	0.0027	0.7596	0.1233	0.294
Mof_O 	O 	0.0231	0.7644	0.1673	-0.283
Mof_O 	O 	0.0301	0.7589	0.0838	-0.396
Mof_C 	C 	0.9464	0.2533	0.6175	-0.089
Mof_H 	H 	0.9288	0.2823	0.6326	0.083
Mof_H 	H 	0.9352	0.2225	0.6349	0.088
Mof_C 	C 	0.0027	0.2596	0.6233	0.289
Mof_O 	O 	0.0231	0.2644	0.6673	-0.282
Mof_O 	O 	0.0301	0.2589	0.5838	-0.402
Mof_C 	C 	0.8036	0.2533	0.1325	-0.207
Mof_H 	H 	0.8212	0.2823	0.1174	0.107
Mof_H 	H 	0.8148	0.2225	0.1151	0.112
Mof_C 	C 	0.7473	0.2596	0.1267	0.397
Mof_O 	O 	0.7269	0.2644	0.0827	-0.297
Mof_O 	O 	0.7199	0.2589	0.1662	-0.423
Mof_C 	C 	0.8036	0.7533	0.6325	-0.209
Mof_H 	H 	0.8212	0.7823	0.6174	0.109
Mof_H 	H 	0.8148	0.7225	0.6151	0.113
Mof_C 	C 	0.7473	0.7596	0.6267	0.398
Mof_O 	O 	0.7269	0.7644	0.5827	-0.289
Mof_O 	O 	0.7199	0.7589	0.6662	-0.42
Mof_C 	C 	0.3036	0.2533	0.6325	-0.206
Mof_H 	H 	0.3212	0.2823	0.6174	0.106
Mof_H 	H 	0.3148	0.2225	0.6151	0.111
Mof_C 	C 	0.2473	0.2596	0.6267	0.397
Mof_O 	O 	0.2269	0.2644	0.5827	-0.29
Mof_O 	O 	0.2199	0.2589	0.6662	-0.422
Mof_C 	C 	0.3036	0.7533	0.1325	-0.207
Mof_H 	H 	0.3212	0.7823	0.1174	0.106
Mof_H 	H 	0.3148	0.7225	0.1151	0.111
Mof_C 	C 	0.2473	0.7596	0.1267	0.398
Mof_O 	O 	0.2269	0.7644	0.0827	-0.297
Mof_O 	O 	0.2199	0.7589	0.1662	-0.423
Mof_C 	C 	0.3036	0.4967	0.1175	-0.223
Mof_H 	H 	0.3212	0.4677	0.1326	0.111
Mof_H 	H 	0.3148	0.5275	0.1349	0.116
Mof_C 	C 	0.2473	0.4904	0.1233	0.4
Mof_O 	O 	0.2269	0.4856	0.1673	-0.291
Mof_O 	O 	0.2199	0.4911	0.0838	-0.415
Mof_C 	C 	0.3036	0.9967	0.6175	0.097
Mof_H 	H 	0.3212	0.9677	0.6326	0.032
Mof_H 	H 	0.3148	0.0275	0.6349	-0.024
Mof_C 	C 	0.2473	0.9904	0.6233	0.308
Mof_O 	O 	0.2269	0.9856	0.6673	-0.221
Mof_O 	O 	0.2199	0.9911	0.5838	-0.338
Mof_C 	C 	0.8036	0.4967	0.6175	-0.208
Mof_H 	H 	0.8212	0.4677	0.6326	0.108
Mof_H 	H 	0.8148	0.5275	0.6349	0.113
Mof_C 	C 	0.7473	0.4904	0.6233	0.398
Mof_O 	O 	0.7269	0.4856	0.6673	-0.289
Mof_O 	O 	0.7199	0.4911	0.5838	-0.42
Mof_C 	C 	0.8036	0.9967	0.1175	0.076
Mof_H 	H 	0.8212	0.9677	0.1326	0.04
Mof_H 	H 	0.8148	0.0275	0.1349	-0.017
Mof_C 	C 	0.7473	0.9904	0.1233	0.312
Mof_O 	O 	0.7269	0.9856	0.1673	-0.223
Mof_O 	O 	0.7199	0.9911	0.0838	-0.333
Mof_C 	C 	0.6325	0.9464	0.9967	0.196
Mof_H 	H 	0.6174	0.9288	0.9677	0.014
Mof_H 	H 	0.6151	0.9352	0.0275	-0.04
Mof_C 	C 	0.6267	0.0027	0.9904	0.208
Mof_O 	O 	0.5827	0.0231	0.9856	-0.214
Mof_O 	O 	0.6662	0.0301	0.9911	-0.321
Mof_C 	C 	0.6325	0.4464	0.4967	-0.206
Mof_H 	H 	0.6174	0.4288	0.4677	0.106
Mof_H 	H 	0.6151	0.4352	0.5275	0.112
Mof_C 	C 	0.6267	0.5027	0.4904	0.397
Mof_O 	O 	0.5827	0.5231	0.4856	-0.288
Mof_O 	O 	0.6662	0.5301	0.4911	-0.42
Mof_C 	C 	0.1325	0.9464	0.4967	-0.088
Mof_H 	H 	0.1174	0.9288	0.4677	0.082
Mof_H 	H 	0.1151	0.9352	0.5275	0.088
Mof_C 	C 	0.1267	0.0027	0.4904	0.289
Mof_O 	O 	0.0827	0.0231	0.4856	-0.289
Mof_O 	O 	0.1662	0.0301	0.4911	-0.404
Mof_C 	C 	0.1325	0.4464	0.9967	0.101
Mof_H 	H 	0.1174	0.4288	0.9677	0.03
Mof_H 	H 	0.1151	0.4352	0.0275	-0.027
Mof_C 	C 	0.1267	0.5027	0.9904	0.307
Mof_O 	O 	0.0827	0.5231	0.9856	-0.227
Mof_O 	O 	0.1662	0.5301	0.9911	-0.339
Mof_C 	C 	0.6175	0.4464	0.7533	-0.207
Mof_H 	H 	0.6326	0.4288	0.7823	0.107
Mof_H 	H 	0.6349	0.4352	0.7225	0.112
Mof_C 	C 	0.6233	0.5027	0.7596	0.398
Mof_O 	O 	0.6673	0.5231	0.7644	-0.288
Mof_O 	O 	0.5838	0.5301	0.7589	-0.42
Mof_C 	C 	0.6175	0.9464	0.2533	-0.089
Mof_H 	H 	0.6326	0.9288	0.2823	0.083
Mof_H 	H 	0.6349	0.9352	0.2225	0.088
Mof_C 	C 	0.6233	0.0027	0.2596	0.289
Mof_O 	O 	0.6673	0.0231	0.2644	-0.282
Mof_O 	O 	0.5838	0.0301	0.2589	-0.402
Mof_C 	C 	0.1175	0.4464	0.2533	-0.223
Mof_H 	H 	0.1326	0.4288	0.2823	0.111
Mof_H 	H 	0.1349	0.4352	0.2225	0.116
Mof_C 	C 	0.1233	0.5027	0.2596	0.399
Mof_O 	O 	0.1673	0.5231	0.2644	-0.291
Mof_O 	O 	0.0838	0.5301	0.2589	-0.414
Mof_C 	C 	0.1175	0.9464	0.7533	-0.107
Mof_H 	H 	0.1326	0.9288	0.7823	0.09
Mof_H 	H 	0.1349	0.9352	0.7225	0.094
Mof_C 	C 	0.1233	0.0027	0.7596	0.294
Mof_O 	O 	0.1673	0.0231	0.7644	-0.283
Mof_O 	O 	0.0838	0.0301	0.7589	-0.396
Mof_C 	C 	0.1325	0.8036	0.2533	-0.207
Mof_H 	H 	0.1174	0.8212	0.2823	0.107
Mof_H 	H 	0.1151	0.8148	0.2225	0.112
Mof_C 	C 	0.1267	0.7473	0.2596	0.397
Mof_O 	O 	0.0827	0.7269	0.2644	-0.297
Mof_O 	O 	0.1662	0.7199	0.2589	-0.423
Mof_C 	C 	0.1325	0.3036	0.7533	-0.207
Mof_H 	H 	0.1174	0.3212	0.7823	0.106
Mof_H 	H 	0.1151	0.3148	0.7225	0.111
Mof_C 	C 	0.1267	0.2473	0.7596	0.398
Mof_O 	O 	0.0827	0.2269	0.7644	-0.297
Mof_O 	O 	0.1662	0.2199	0.7589	-0.423
Mof_C 	C 	0.6325	0.8036	0.7533	-0.209
Mof_H 	H 	0.6174	0.8212	0.7823	0.109
Mof_H 	H 	0.6151	0.8148	0.7225	0.113
Mof_C 	C 	0.6267	0.7473	0.7596	0.398
Mof_O 	O 	0.5827	0.7269	0.7644	-0.289
Mof_O 	O 	0.6662	0.7199	0.7589	-0.42
Mof_C 	C 	0.6325	0.3036	0.2533	-0.206
Mof_H 	H 	0.6174	0.3212	0.2823	0.106
Mof_H 	H 	0.6151	0.3148	0.2225	0.111
Mof_C 	C 	0.6267	0.2473	0.2596	0.397
Mof_O 	O 	0.5827	0.2269	0.2644	-0.29
Mof_O 	O 	0.6662	0.2199	0.2589	-0.422
Mof_C 	C 	0.1175	0.3036	0.4967	-0.223
Mof_H 	H 	0.1326	0.3212	0.4677	0.111
Mof_H 	H 	0.1349	0.3148	0.5275	0.116
Mof_C 	C 	0.1233	0.2473	0.4904	0.4
Mof_O 	O 	0.1673	0.2269	0.4856	-0.291
Mof_O 	O 	0.0838	0.2199	0.4911	-0.415
Mof_C 	C 	0.1175	0.8036	0.9967	0.076
Mof_H 	H 	0.1326	0.8212	0.9677	0.04
Mof_H 	H 	0.1349	0.8148	0.0275	-0.017
Mof_C 	C 	0.1233	0.7473	0.9904	0.312
Mof_O 	O 	0.1673	0.7269	0.9856	-0.223
Mof_O 	O 	0.0838	0.7199	0.9911	-0.333
Mof_C 	C 	0.6175	0.3036	0.9967	0.097
Mof_H 	H 	0.6326	0.3212	0.9677	0.032
Mof_H 	H 	0.6349	0.3148	0.0275	-0.024
Mof_C 	C 	0.6233	0.2473	0.9904	0.308
Mof_O 	O 	0.6673	0.2269	0.9856	-0.221
Mof_O 	O 	0.5838	0.2199	0.9911	-0.338
Mof_C 	C 	0.6175	0.8036	0.4967	-0.208
Mof_H 	H 	0.6326	0.8212	0.4677	0.108
Mof_H 	H 	0.6349	0.8148	0.5275	0.113
Mof_C 	C 	0.6233	0.7473	0.4904	0.398
Mof_O 	O 	0.6673	0.7269	0.4856	-0.289
Mof_O 	O 	0.5838	0.7199	0.4911	-0.42
Mof_C 	C 	0.8825	0.7467	0.0536	-0.317
Mof_H 	H 	0.8674	0.7177	0.0712	0.133
Mof_H 	H 	0.8651	0.7775	0.0648	0.14
Mof_C 	C 	0.8767	0.7404	0.9973	0.481
Mof_O 	O 	0.8327	0.7356	0.9769	-0.263
Mof_O 	O 	0.9162	0.7411	0.9699	-0.345
Mof_C 	C 	0.8825	0.2467	0.5536	-0.196
Mof_H 	H 	0.8674	0.2177	0.5712	0.104
Mof_H 	H 	0.8651	0.2775	0.5648	0.111
Mof_C 	C 	0.8767	0.2404	0.4973	0.386
Mof_O 	O 	0.8327	0.2356	0.4769	-0.282
Mof_O 	O 	0.9162	0.2411	0.4699	-0.372
Mof_C 	C 	0.3825	0.7467	0.5536	-0.207
Mof_H 	H 	0.3674	0.7177	0.5712	0.106
Mof_H 	H 	0.3651	0.7775	0.5648	0.113
Mof_C 	C 	0.3767	0.7404	0.4973	0.398
Mof_O 	O 	0.3327	0.7356	0.4769	-0.288
Mof_O 	O 	0.4162	0.7411	0.4699	-0.419
Mof_C 	C 	0.3825	0.2467	0.0536	-0.331
Mof_H 	H 	0.3674	0.2177	0.0712	0.135
Mof_H 	H 	0.3651	0.2775	0.0648	0.141
Mof_C 	C 	0.3767	0.2404	0.9973	0.497
Mof_O 	O 	0.3327	0.2356	0.9769	-0.269
Mof_O 	O 	0.4162	0.2411	0.9699	-0.391
Mof_C 	C 	0.8675	0.5033	0.5536	-0.204
Mof_H 	H 	0.8826	0.5323	0.5712	0.109
Mof_H 	H 	0.8849	0.4725	0.5648	0.116
Mof_C 	C 	0.8733	0.5096	0.4973	0.392
Mof_O 	O 	0.9173	0.5144	0.4769	-0.257
Mof_O 	O 	0.8338	0.5089	0.4699	-0.415
Mof_C 	C 	0.8675	0.0033	0.0536	-0.463
Mof_H 	H 	0.8826	0.0323	0.0712	0.171
Mof_H 	H 	0.8849	0.9725	0.0648	0.24
Mof_C 	C 	0.8733	0.0096	0.9973	0.52
Mof_O 	O 	0.9173	0.0144	0.9769	-0.267
Mof_O 	O 	0.8338	0.0089	0.9699	-0.4
Mof_C 	C 	0.3675	0.5033	0.0536	-0.331
Mof_H 	H 	0.3826	0.5323	0.0712	0.136
Mof_H 	H 	0.3849	0.4725	0.0648	0.14
Mof_C 	C 	0.3733	0.5096	0.9973	0.496
Mof_O 	O 	0.4173	0.5144	0.9769	-0.27
Mof_O 	O 	0.3338	0.5089	0.9699	-0.391
Mof_C 	C 	0.3675	0.0033	0.5536	-0.347
Mof_H 	H 	0.3826	0.0323	0.5712	0.14
Mof_H 	H 	0.3849	0.9725	0.5648	0.209
Mof_C 	C 	0.3733	0.0096	0.4973	0.428
Mof_O 	O 	0.4173	0.0144	0.4769	-0.317
Mof_O 	O 	0.3338	0.0089	0.4699	-0.434
Mof_C 	C 	0.3825	0.0033	0.1964	-0.348
Mof_H 	H 	0.3674	0.0323	0.1788	0.14
Mof_H 	H 	0.3651	0.9725	0.1852	0.21
Mof_C 	C 	0.3767	0.0096	0.2527	0.429
Mof_O 	O 	0.3327	0.0144	0.2731	-0.317
Mof_O 	O 	0.4162	0.0089	0.2801	-0.434
Mof_C 	C 	0.3825	0.5033	0.6964	-0.206
Mof_H 	H 	0.3674	0.5323	0.6788	0.106
Mof_H 	H 	0.3651	0.4725	0.6852	0.112
Mof_C 	C 	0.3767	0.5096	0.7527	0.397
Mof_O 	O 	0.3327	0.5144	0.7731	-0.286
Mof_O 	O 	0.4162	0.5089	0.7801	-0.418
Mof_C 	C 	0.8825	0.0033	0.6964	-0.333
Mof_H 	H 	0.8674	0.0323	0.6788	0.137
Mof_H 	H 	0.8651	0.9725	0.6852	0.206
Mof_C 	C 	0.8767	0.0096	0.7527	0.416
Mof_O 	O 	0.8327	0.0144	0.7731	-0.309
Mof_O 	O 	0.9162	0.0089	0.7801	-0.384
Mof_C 	C 	0.8825	0.5033	0.1964	-0.196
Mof_H 	H 	0.8674	0.5323	0.1788	0.104
Mof_H 	H 	0.8651	0.4725	0.1852	0.111
Mof_C 	C 	0.8767	0.5096	0.2527	0.386
Mof_O 	O 	0.8327	0.5144	0.2731	-0.282
Mof_O 	O 	0.9162	0.5089	0.2801	-0.372
Mof_C 	C 	0.3675	0.2467	0.6964	-0.206
Mof_H 	H 	0.3826	0.2177	0.6788	0.105
Mof_H 	H 	0.3849	0.2775	0.6852	0.112
Mof_C 	C 	0.3733	0.2404	0.7527	0.397
Mof_O 	O 	0.4173	0.2356	0.7731	-0.287
Mof_O 	O 	0.3338	0.2411	0.7801	-0.418
Mof_C 	C 	0.3675	0.7467	0.1964	-0.207
Mof_H 	H 	0.3826	0.7177	0.1788	0.106
Mof_H 	H 	0.3849	0.7775	0.1852	0.113
Mof_C 	C 	0.3733	0.7404	0.2527	0.398
Mof_O 	O 	0.4173	0.7356	0.2731	-0.287
Mof_O 	O 	0.3338	0.7411	0.2801	-0.419
Mof_C 	C 	0.8675	0.2467	0.1964	-0.203
Mof_H 	H 	0.8826	0.2177	0.1788	0.108
Mof_H 	H 	0.8849	0.2775	0.1852	0.116
Mof_C 	C 	0.8733	0.2404	0.2527	0.392
Mof_O 	O 	0.9173	0.2356	0.2731	-0.256
Mof_O 	O 	0.8338	0.2411	0.2801	-0.415
Mof_C 	C 	0.8675	0.7467	0.6964	-0.205
Mof_H 	H 	0.8826	0.7177	0.6788	0.109
Mof_H 	H 	0.8849	0.7775	0.6852	0.118
Mof_C 	C 	0.8733	0.7404	0.7527	0.393
Mof_O 	O 	0.9173	0.7356	0.7731	-0.255
Mof_O 	O 	0.8338	0.7411	0.7801	-0.412
Mof_C 	C 	0.2467	0.6964	0.3675	-0.206
Mof_H 	H 	0.2177	0.6788	0.3826	0.105
Mof_H 	H 	0.2775	0.6852	0.3849	0.112
Mof_C 	C 	0.2404	0.7527	0.3733	0.397
Mof_O 	O 	0.2356	0.7731	0.4173	-0.287
Mof_O 	O 	0.2411	0.7801	0.3338	-0.418
Mof_C 	C 	0.2467	0.1964	0.8675	-0.203
Mof_H 	H 	0.2177	0.1788	0.8826	0.108
Mof_H 	H 	0.2775	0.1852	0.8849	0.116
Mof_C 	C 	0.2404	0.2527	0.8733	0.392
Mof_O 	O 	0.2356	0.2731	0.9173	-0.256
Mof_O 	O 	0.2411	0.2801	0.8338	-0.415
Mof_C 	C 	0.7467	0.6964	0.8675	-0.205
Mof_H 	H 	0.7177	0.6788	0.8826	0.109
Mof_H 	H 	0.7775	0.6852	0.8849	0.118
Mof_C 	C 	0.7404	0.7527	0.8733	0.393
Mof_O 	O 	0.7356	0.7731	0.9173	-0.255
Mof_O 	O 	0.7411	0.7801	0.8338	-0.412
Mof_C 	C 	0.7467	0.1964	0.3675	-0.207
Mof_H 	H 	0.7177	0.1788	0.3826	0.106
Mof_H 	H 	0.7775	0.1852	0.3849	0.113
Mof_C 	C 	0.7404	0.2527	0.3733	0.398
Mof_O 	O 	0.7356	0.2731	0.4173	-0.287
Mof_O 	O 	0.7411	0.2801	0.3338	-0.419
Mof_C 	C 	0.0033	0.1964	0.3825	-0.348
Mof_H 	H 	0.0323	0.1788	0.3674	0.14
Mof_H 	H 	0.9725	0.1852	0.3651	0.21
Mof_C 	C 	0.0096	0.2527	0.3767	0.429
Mof_O 	O 	0.0144	0.2731	0.3327	-0.317
Mof_O 	O 	0.0089	0.2801	0.4162	-0.434
Mof_C 	C 	0.0033	0.6964	0.8825	-0.333
Mof_H 	H 	0.0323	0.6788	0.8674	0.137
Mof_H 	H 	0.9725	0.6852	0.8651	0.206
Mof_C 	C 	0.0096	0.7527	0.8767	0.416
Mof_O 	O 	0.0144	0.7731	0.8327	-0.309
Mof_O 	O 	0.0089	0.7801	0.9162	-0.384
Mof_C 	C 	0.5033	0.1964	0.8825	-0.196
Mof_H 	H 	0.5323	0.1788	0.8674	0.104
Mof_H 	H 	0.4725	0.1852	0.8651	0.111
Mof_C 	C 	0.5096	0.2527	0.8767	0.386
Mof_O 	O 	0.5144	0.2731	0.8327	-0.282
Mof_O 	O 	0.5089	0.2801	0.9162	-0.372
Mof_C 	C 	0.5033	0.6964	0.3825	-0.206
Mof_H 	H 	0.5323	0.6788	0.3674	0.106
Mof_H 	H 	0.4725	0.6852	0.3651	0.112
Mof_C 	C 	0.5096	0.7527	0.3767	0.397
Mof_O 	O 	0.5144	0.7731	0.3327	-0.286
Mof_O 	O 	0.5089	0.7801	0.4162	-0.418
Mof_C 	C 	0.5033	0.5536	0.8675	-0.204
Mof_H 	H 	0.5323	0.5712	0.8826	0.109
Mof_H 	H 	0.4725	0.5648	0.8849	0.116
Mof_C 	C 	0.5096	0.4973	0.8733	0.392
Mof_O 	O 	0.5144	0.4769	0.9173	-0.257
Mof_O 	O 	0.5089	0.4699	0.8338	-0.415
Mof_C 	C 	0.5033	0.0536	0.3675	-0.331
Mof_H 	H 	0.5323	0.0712	0.3826	0.136
Mof_H 	H 	0.4725	0.0648	0.3849	0.14
Mof_C 	C 	0.5096	0.9973	0.3733	0.496
Mof_O 	O 	0.5144	0.9769	0.4173	-0.27
Mof_O 	O 	0.5089	0.9699	0.3338	-0.391
Mof_C 	C 	0.0033	0.5536	0.3675	-0.347
Mof_H 	H 	0.0323	0.5712	0.3826	0.14
Mof_H 	H 	0.9725	0.5648	0.3849	0.209
Mof_C 	C 	0.0096	0.4973	0.3733	0.428
Mof_O 	O 	0.0144	0.4769	0.4173	-0.317
Mof_O 	O 	0.0089	0.4699	0.3338	-0.434
Mof_C 	C 	0.0033	0.0536	0.8675	-0.463
Mof_H 	H 	0.0323	0.0712	0.8826	0.171
Mof_H 	H 	0.9725	0.0648	0.8849	0.24
Mof_C 	C 	0.0096	0.9973	0.8733	0.52
Mof_O 	O 	0.0144	0.9769	0.9173	-0.267
Mof_O 	O 	0.0089	0.9699	0.8338	-0.4
Mof_C 	C 	0.7467	0.0536	0.8825	-0.317
Mof_H 	H 	0.7177	0.0712	0.8674	0.133
Mof_H 	H 	0.7775	0.0648	0.8651	0.14
Mof_C 	C 	0.7404	0.9973	0.8767	0.481
Mof_O 	O 	0.7356	0.9769	0.8327	-0.263
Mof_O 	O 	0.7411	0.9699	0.9162	-0.345
Mof_C 	C 	0.7467	0.5536	0.3825	-0.207
Mof_H 	H 	0.7177	0.5712	0.3674	0.106
Mof_H 	H 	0.7775	0.5648	0.3651	0.113
Mof_C 	C 	0.7404	0.4973	0.3767	0.398
Mof_O 	O 	0.7356	0.4769	0.3327	-0.288
Mof_O 	O 	0.7411	0.4699	0.4162	-0.419
Mof_C 	C 	0.2467	0.0536	0.3825	-0.331
Mof_H 	H 	0.2177	0.0712	0.3674	0.135
Mof_H 	H 	0.2775	0.0648	0.3651	0.141
Mof_C 	C 	0.2404	0.9973	0.3767	0.497
Mof_O 	O 	0.2356	0.9769	0.3327	-0.269
Mof_O 	O 	0.2411	0.9699	0.4162	-0.391
Mof_C 	C 	0.2467	0.5536	0.8825	-0.196
Mof_H 	H 	0.2177	0.5712	0.8674	0.104
Mof_H 	H 	0.2775	0.5648	0.8651	0.111
Mof_C 	C 	0.2404	0.4973	0.8767	0.386
Mof_O 	O 	0.2356	0.4769	0.8327	-0.282
Mof_O 	O 	0.2411	0.4699	0.9162	-0.372
Mof_C 	C 	0.1964	0.3825	0.0033	-0.348
Mof_H 	H 	0.1788	0.3674	0.0323	0.14
Mof_H 	H 	0.1852	0.3651	0.9725	0.21
Mof_C 	C 	0.2527	0.3767	0.0096	0.429
Mof_O 	O 	0.2731	0.3327	0.0144	-0.317
Mof_O 	O 	0.2801	0.4162	0.0089	-0.434
Mof_C 	C 	0.1964	0.8825	0.5033	-0.196
Mof_H 	H 	0.1788	0.8674	0.5323	0.104
Mof_H 	H 	0.1852	0.8651	0.4725	0.111
Mof_C 	C 	0.2527	0.8767	0.5096	0.386
Mof_O 	O 	0.2731	0.8327	0.5144	-0.282
Mof_O 	O 	0.2801	0.9162	0.5089	-0.372
Mof_C 	C 	0.6964	0.3825	0.5033	-0.206
Mof_H 	H 	0.6788	0.3674	0.5323	0.106
Mof_H 	H 	0.6852	0.3651	0.4725	0.112
Mof_C 	C 	0.7527	0.3767	0.5096	0.397
Mof_O 	O 	0.7731	0.3327	0.5144	-0.286
Mof_O 	O 	0.7801	0.4162	0.5089	-0.418
Mof_C 	C 	0.6964	0.8825	0.0033	-0.333
Mof_H 	H 	0.6788	0.8674	0.0323	0.137
Mof_H 	H 	0.6852	0.8651	0.9725	0.206
Mof_C 	C 	0.7527	0.8767	0.0096	0.416
Mof_O 	O 	0.7731	0.8327	0.0144	-0.309
Mof_O 	O 	0.7801	0.9162	0.0089	-0.384
Mof_C 	C 	0.6964	0.3675	0.2467	-0.206
Mof_H 	H 	0.6788	0.3826	0.2177	0.105
Mof_H 	H 	0.6852	0.3849	0.2775	0.112
Mof_C 	C 	0.7527	0.3733	0.2404	0.397
Mof_O 	O 	0.7731	0.4173	0.2356	-0.287
Mof_O 	O 	0.7801	0.3338	0.2411	-0.418
Mof_C 	C 	0.6964	0.8675	0.7467	-0.205
Mof_H 	H 	0.6788	0.8826	0.7177	0.109
Mof_H 	H 	0.6852	0.8849	0.7775	0.118
Mof_C 	C 	0.7527	0.8733	0.7404	0.393
Mof_O 	O 	0.7731	0.9173	0.7356	-0.255
Mof_O 	O 	0.7801	0.8338	0.7411	-0.412
Mof_C 	C 	0.1964	0.3675	0.7467	-0.207
Mof_H 	H 	0.1788	0.3826	0.7177	0.106
Mof_H 	H 	0.1852	0.3849	0.7775	0.113
Mof_C 	C 	0.2527	0.3733	0.7404	0.398
Mof_O 	O 	0.2731	0.4173	0.7356	-0.287
Mof_O 	O 	0.2801	0.3338	0.7411	-0.419
Mof_C 	C 	0.1964	0.8675	0.2467	-0.203
Mof_H 	H 	0.1788	0.8826	0.2177	0.108
Mof_H 	H 	0.1852	0.8849	0.2775	0.116
Mof_C 	C 	0.2527	0.8733	0.2404	0.392
Mof_O 	O 	0.2731	0.9173	0.2356	-0.256
Mof_O 	O 	0.2801	0.8338	0.2411	-0.415
Mof_C 	C 	0.0536	0.8825	0.7467	-0.317
Mof_H 	H 	0.0712	0.8674	0.7177	0.133
Mof_H 	H 	0.0648	0.8651	0.7775	0.14
Mof_C 	C 	0.9973	0.8767	0.7404	0.481
Mof_O 	O 	0.9769	0.8327	0.7356	-0.263
Mof_O 	O 	0.9699	0.9162	0.7411	-0.345
Mof_C 	C 	0.0536	0.3825	0.2467	-0.331
Mof_H 	H 	0.0712	0.3674	0.2177	0.135
Mof_H 	H 	0.0648	0.3651	0.2775	0.141
Mof_C 	C 	0.9973	0.3767	0.2404	0.497
Mof_O 	O 	0.9769	0.3327	0.2356	-0.269
Mof_O 	O 	0.9699	0.4162	0.2411	-0.391
Mof_C 	C 	0.5536	0.8825	0.2467	-0.196
Mof_H 	H 	0.5712	0.8674	0.2177	0.104
Mof_H 	H 	0.5648	0.8651	0.2775	0.111
Mof_C 	C 	0.4973	0.8767	0.2404	0.386
Mof_O 	O 	0.4769	0.8327	0.2356	-0.282
Mof_O 	O 	0.4699	0.9162	0.2411	-0.372
Mof_C 	C 	0.5536	0.3825	0.7467	-0.207
Mof_H 	H 	0.5712	0.3674	0.7177	0.106
Mof_H 	H 	0.5648	0.3651	0.7775	0.113
Mof_C 	C 	0.4973	0.3767	0.7404	0.398
Mof_O 	O 	0.4769	0.3327	0.7356	-0.288
Mof_O 	O 	0.4699	0.4162	0.7411	-0.419
Mof_C 	C 	0.5536	0.8675	0.5033	-0.204
Mof_H 	H 	0.5712	0.8826	0.5323	0.109
Mof_H 	H 	0.5648	0.8849	0.4725	0.116
Mof_C 	C 	0.4973	0.8733	0.5096	0.392
Mof_O 	O 	0.4769	0.9173	0.5144	-0.257
Mof_O 	O 	0.4699	0.8338	0.5089	-0.415
Mof_C 	C 	0.5536	0.3675	0.0033	-0.347
Mof_H 	H 	0.5712	0.3826	0.0323	0.14
Mof_H 	H 	0.5648	0.3849	0.9725	0.209
Mof_C 	C 	0.4973	0.3733	0.0096	0.428
Mof_O 	O 	0.4769	0.4173	0.0144	-0.317
Mof_O 	O 	0.4699	0.3338	0.0089	-0.434
Mof_C 	C 	0.0536	0.8675	0.0033	-0.463
Mof_H 	H 	0.0712	0.8826	0.0323	0.171
Mof_H 	H 	0.0648	0.8849	0.9725	0.24
Mof_C 	C 	0.9973	0.8733	0.0096	0.52
Mof_O 	O 	0.9769	0.9173	0.0144	-0.267
Mof_O 	O 	0.9699	0.8338	0.0089	-0.4
Mof_C 	C 	0.0536	0.3675	0.5033	-0.331
Mof_H 	H 	0.0712	0.3826	0.5323	0.136
Mof_H 	H 	0.0648	0.3849	0.4725	0.14
Mof_C 	C 	0.9973	0.3733	0.5096	0.496
Mof_O 	O 	0.9769	0.4173	0.5144	-0.27
Mof_O 	O 	0.9699	0.3338	0.5089	-0.391
Mof_Tm	Tm	2.83179e-33	0.25	-0	1.614
Mof_Tm	Tm	0.25	0.5	0.5	1.977
Mof_Tm	Tm	0.75	0.75	0.25	1.977
Mof_Tm	Tm	0.5	-5.66358e-33	0.75	1.8
Mof_Tm	Tm	3.76914e-33	0	0.25	1.614
Mof_Tm	Tm	8.47563e-33	0.5	0.75	1.8
Mof_Tm	Tm	0.5	0.25	0.5	1.977
Mof_Tm	Tm	0.5	0.75	-0	1.8
Mof_Tm	Tm	0.25	0.75	0.75	1.977
Mof_Tm	Tm	0.25	0.25	0.25	1.976
Mof_Tm	Tm	0.75	0.5	-0	1.8
Mof_Tm	Tm	0.75	0	0.5	1.8
Mof_Tm	Tm	0.25	0	-0	1.614
Mof_Tm	Tm	0.5	0.5	0.25	1.977
Mof_Tm	Tm	0.75	0.25	0.75	1.977
Mof_Tm	Tm	1.32019e-32	0.75	0.5	1.8
Mof_Tm	Tm	5.66358e-33	0.75	-0	1.622
Mof_Tm	Tm	0.75	0.5	0.5	1.977
Mof_Tm	Tm	0.25	0.25	0.75	1.977
Mof_Tm	Tm	0.5	0	0.25	1.796
Mof_Tm	Tm	8.47563e-33	-5.66358e-33	0.75	1.622
Mof_Tm	Tm	1.22645e-32	0.5	0.25	1.796
Mof_Tm	Tm	0.5	0.75	0.5	1.977
Mof_Tm	Tm	0.5	0.25	-0	1.796
Mof_Tm	Tm	0.75	0.25	0.25	1.977
Mof_Tm	Tm	0.75	0.75	0.75	1.978
Mof_Tm	Tm	0.25	0.5	-0	1.796
Mof_Tm	Tm	0.25	0	0.5	1.796
Mof_Tm	Tm	0.75	0	-0	1.622
Mof_Tm	Tm	0.5	0.5	0.75	1.977
Mof_Tm	Tm	0.25	0.75	0.25	1.977
Mof_Tm	Tm	1.32019e-32	0.25	0.5	1.796
Mof_Cd	Cd	5.66358e-33	0.5	-0	0.362
Mof_Cd	Cd	0.25	0.25	0.5	0.519
Mof_Cd	Cd	0.75	0	0.25	0.441
Mof_Cd	Cd	0.5	0.75	0.75	0.519
Mof_Cd	Cd	7.53828e-33	0	0.5	0.362
Mof_Cd	Cd	0.5	0.25	0.25	0.519
Mof_Cd	Cd	0.25	0.75	-0	0.441
Mof_Cd	Cd	0.75	0.5	0.75	0.519
Mof_Cd	Cd	0.5	0	-0	0.362
Mof_Cd	Cd	0.5	0.5	0.5	0.519
Mof_Cd	Cd	0.25	0.5	0.25	0.519
Mof_Cd	Cd	2.81205e-33	0.25	0.75	0.441
Mof_Cd	Cd	0.75	0.75	0.5	0.519
Mof_Cd	Cd	0.25	0.25	-0	0.439
Mof_Cd	Cd	1.32019e-32	0.5	0.5	0.441
Mof_Cd	Cd	-0	0	-0	0.283
Mof_Cd	Cd	0.75	-5.66358e-33	0.75	0.443
Mof_Cd	Cd	0.5	0.75	0.25	0.519
Mof_Cd	Cd	0.75	0.25	0.5	0.519
Mof_Cd	Cd	1.41392e-32	0.75	0.75	0.443
Mof_Cd	Cd	0.5	0.5	-0	0.441
Mof_Cd	Cd	0.25	0	0.25	0.439
Mof_Cd	Cd	0.75	0.75	-0	0.443
Mof_Cd	Cd	0.25	0.5	0.75	0.519
Mof_Cd	Cd	6.60093e-33	0.25	0.25	0.439
Mof_Cd	Cd	0.5	0	0.5	0.441
Mof_Cd	Cd	0.25	-5.66358e-33	0.75	0.441
Mof_Cd	Cd	0.75	0.25	-0	0.441
Mof_Cd	Cd	6.60093e-33	0.75	0.25	0.441
Mof_Cd	Cd	0.5	0.25	0.75	0.519
Mof_Cd	Cd	0.25	0.75	0.5	0.519
Mof_Cd	Cd	0.75	0.5	0.25	0.519
Mof_O 	O 	9.53159e-34	0.3154	0.0654	-0.274
Mof_O 	O 	0.5	0.3154	0.5654	-0.233
Mof_O 	O 	0.25	0.4346	0.5654	-0.233
Mof_O 	O 	0.75	0.4346	0.0654	-0.203
Mof_O 	O 	0.75	0.8154	0.1846	-0.232
Mof_O 	O 	0.75	0.3154	0.6846	-0.232
Mof_O 	O 	0.25	0.8154	0.6846	-0.233
Mof_O 	O 	0.5	0.9346	0.6846	-0.223
Mof_O 	O 	-7.23757e-34	0.9346	0.1846	-0.289
Mof_O 	O 	0.0654	2.83179e-33	0.3154	-0.274
Mof_O 	O 	0.0654	0.5	0.8154	-0.204
Mof_O 	O 	0.5654	0.25	0.4346	-0.233
Mof_O 	O 	0.5654	0.75	0.9346	-0.222
Mof_O 	O 	0.1846	0.75	0.8154	-0.232
Mof_O 	O 	0.1846	0.25	0.3154	-0.234
Mof_O 	O 	0.6846	0.75	0.3154	-0.232
Mof_O 	O 	0.6846	0.5	0.9346	-0.223
Mof_O 	O 	0.6846	0	0.4346	-0.302
Mof_O 	O 	0.1846	0	0.9346	-0.289
Mof_O 	O 	0.3154	0.0654	-0	-0.274
Mof_O 	O 	0.3154	0.5654	0.5	-0.233
Mof_O 	O 	0.4346	0.5654	0.25	-0.233
Mof_O 	O 	0.4346	0.0654	0.75	-0.203
Mof_O 	O 	0.8154	0.1846	0.75	-0.232
Mof_O 	O 	0.8154	0.6846	0.25	-0.233
Mof_O 	O 	0.3154	0.6846	0.75	-0.232
Mof_O 	O 	0.9346	0.6846	0.5	-0.223
Mof_O 	O 	0.9346	0.1846	-0	-0.289
Mof_O 	O 	0.0654	0.25	0.9346	-0.193
Mof_O 	O 	0.0654	0.75	0.4346	-0.203
Mof_O 	O 	0.1846	0.5	0.4346	-0.233
Mof_O 	O 	0.5654	-5.66358e-33	0.8154	-0.3
Mof_O 	O 	0.5654	0.5	0.3154	-0.233
Mof_O 	O 	0.6846	0.25	0.8154	-0.233
Mof_O 	O 	0.25	0.3154	0.1846	-0.234
Mof_O 	O 	-3.54367e-33	0.8154	0.5654	-0.3
Mof_O 	O 	0.5	0.8154	0.0654	-0.204
Mof_O 	O 	0.5	0.4346	0.1846	-0.233
Mof_O 	O 	2.56684e-33	0.4346	0.6846	-0.302
Mof_O 	O 	0.25	0.9346	0.0654	-0.193
Mof_O 	O 	0.75	0.9346	0.5654	-0.222
Mof_O 	O 	0.8154	0.5654	-0	-0.3
Mof_O 	O 	0.8154	0.0654	0.5	-0.204
Mof_O 	O 	0.3154	0.1846	0.25	-0.234
Mof_O 	O 	0.9346	0.0654	0.25	-0.193
Mof_O 	O 	0.9346	0.5654	0.75	-0.222
Mof_O 	O 	0.4346	0.1846	0.5	-0.233
Mof_O 	O 	0.4346	0.6846	-0	-0.302
Mof_O 	O 	3.50419e-33	0.6846	0.9346	-0.288
Mof_O 	O 	0.5	0.6846	0.4346	-0.233
Mof_O 	O 	0.75	0.5654	0.4346	-0.232
Mof_O 	O 	0.75	0.0654	0.9346	-0.193
Mof_O 	O 	0.25	0.5654	0.9346	-0.223
Mof_O 	O 	0.25	0.1846	0.8154	-0.233
Mof_O 	O 	0.75	0.1846	0.3154	-0.233
Mof_O 	O 	0.5	0.0654	0.3154	-0.203
Mof_O 	O 	3.05726e-33	0.0654	0.8154	-0.272
Mof_O 	O 	1.18256e-33	0.5654	0.3154	-0.302
Mof_O 	O 	0.9346	0	0.6846	-0.288
Mof_O 	O 	0.9346	0.5	0.1846	-0.223
Mof_O 	O 	0.4346	0.75	0.5654	-0.232
Mof_O 	O 	0.4346	0.25	0.0654	-0.204
Mof_O 	O 	0.9346	0.75	0.0654	-0.193
Mof_O 	O 	0.8154	0.25	0.1846	-0.233
Mof_O 	O 	0.8154	0.75	0.6846	-0.232
Mof_O 	O 	0.3154	0.5	0.0654	-0.203
Mof_O 	O 	0.3154	0	0.5654	-0.302
Mof_O 	O 	0.6846	0.9346	-0	-0.288
Mof_O 	O 	0.6846	0.4346	0.5	-0.233
Mof_O 	O 	0.5654	0.4346	0.75	-0.232
Mof_O 	O 	0.5654	0.9346	0.25	-0.223
Mof_O 	O 	0.0654	0.9346	0.75	-0.193
Mof_O 	O 	0.1846	0.8154	0.25	-0.233
Mof_O 	O 	0.1846	0.3154	0.75	-0.233
Mof_O 	O 	0.0654	0.3154	0.5	-0.203
Mof_O 	O 	0.0654	0.8154	-0	-0.272
Mof_O 	O 	0.5654	0.3154	-0	-0.302
Mof_O 	O 	0.9346	0.25	0.5654	-0.223
Mof_O 	O 	0.8154	0.5	0.5654	-0.232
Mof_O 	O 	0.8154	0	0.0654	-0.272
Mof_O 	O 	0.4346	-1.4159e-33	0.1846	-0.303
Mof_O 	O 	0.4346	0.5	0.6846	-0.233
Mof_O 	O 	0.3154	0.25	0.6846	-0.233
Mof_O 	O 	0.3154	0.75	0.1846	-0.233
Mof_O 	O 	0.25	0.6846	0.3154	-0.233
Mof_O 	O 	0.75	0.6846	0.8154	-0.232
Mof_O 	O 	7.29307e-33	0.1846	0.4346	-0.303
Mof_O 	O 	0.5	0.1846	0.9346	-0.223
Mof_O 	O 	0.5	0.5654	0.8154	-0.232
Mof_O 	O 	0.25	0.0654	0.4346	-0.204
Mof_O 	O 	0.1846	0.4346	-0	-0.303
Mof_O 	O 	0.1846	0.9346	0.5	-0.223
Mof_O 	O 	0.6846	0.3154	0.25	-0.233
Mof_O 	O 	0.6846	0.8154	0.75	-0.232
Mof_O 	O 	0.0654	0.4346	0.25	-0.204
Mof_O 	O 	0.5654	0.8154	0.5	-0.232
_end
