# CIF file generated by openbabel 3.1.0, see https://openbabel.org
data_I
_chemical_name_common 'image0'
_cell_length_a 14.4201
_cell_length_b 19.6832
_cell_length_c 24.3937
_cell_angle_alpha 90
_cell_angle_beta 95.632
_cell_angle_gamma 90
_space_group_name_H-M_alt 'P 1'
_space_group_name_Hall 'P 1'
loop_
    _symmetry_equiv_pos_as_xyz
    x,y,z
loop_
    _atom_site_label
    _atom_site_type_symbol
    _atom_site_fract_x
    _atom_site_fract_y
    _atom_site_fract_z
    _atom_site_occupancy
    C1       C        0.15840    0.67400    0.20170    1.000
    H1       H        0.16420    0.66100    0.16380    1.000
    H2       H        0.20000    0.64550    0.22540    1.000
    C2       C        0.18680    0.74790    0.20990    1.000
    H3       H        0.25120    0.75300    0.20210    1.000
    H4       H        0.18310    0.76010    0.24810    1.000
    C3       C        0.12620    0.79620    0.17320    1.000
    H5       H        0.06210    0.79190    0.18170    1.000
    H6       H        0.12870    0.78320    0.13500    1.000
    C4       C        0.15650    0.87020    0.18040    1.000
    C5       C        0.23310    0.88700    0.21940    1.000
    H7       H        0.26740    0.85300    0.23840    1.000
    C6       C        0.25530    0.95300    0.22850    1.000
    H8       H        0.30520    0.96270    0.25450    1.000
    C7       C        0.13960    0.99020    0.16770    1.000
    H9       H        0.10570    0.02520    0.14970    1.000
    C8       C        0.11260    0.92270    0.15620    1.000
    H10      H        0.06160    0.91470    0.13060    1.000
    N1       N        0.21080    0.00540    0.20280    1.000
    C9       C        0.14010    0.67170    0.17940    1.000
    H11      H        0.18890    0.63940    0.19100    1.000
    H12      H        0.11890    0.66250    0.14110    1.000
    C10      C        0.17880    0.74370    0.18480    1.000
    H13      H        0.24310    0.74180    0.17640    1.000
    H14      H        0.18000    0.75640    0.22330    1.000
    C11      C        0.13200    0.80240    0.15080    1.000
    H15      H        0.06510    0.79610    0.14670    1.000
    H16      H        0.15370    0.80300    0.11440    1.000
    C12      C        0.20340    0.91010    0.14230    1.000
    H17      H        0.21690    0.89160    0.10890    1.000
    C13      C        0.22750    0.97460    0.15550    1.000
    H18      H        0.25770    0.99960    0.13020    1.000
    C14      C        0.16840    0.96910    0.23710    1.000
    H19      H        0.15550    0.98840    0.27030    1.000
    C15      C        0.14110    0.90140    0.22580    1.000
    H20      H        0.11070    0.87790    0.25190    1.000
    C16      C        0.76880    0.22020    0.08050    1.000
    H21      H        0.80460    0.17930    0.07530    1.000
    H22      H        0.81170    0.25770    0.08810    1.000
    C17      C        0.70180    0.23500    0.02860    1.000
    H23      H        0.66230    0.19580    0.01970    1.000
    H24      H        0.66210    0.27330    0.03540    1.000
    C18      C        0.75890    0.25100    0.98070    1.000
    H25      H        0.79260    0.21120    0.97020    1.000
    H26      H        0.80300    0.28740    0.99030    1.000
    C19      C        0.22430    0.75130    0.40580    1.000
    H27      H        0.20500    0.79250    0.38600    1.000
    H28      H        0.16910    0.72440    0.41000    1.000
    C20      C        0.27210    0.76980    0.46280    1.000
    H29      H        0.32040    0.80130    0.45440    1.000
    H30      H        0.22590    0.79740    0.47870    1.000
    C21      C        0.31690    0.73130    0.51130    1.000
    H31      H        0.38100    0.72110    0.50550    1.000
    H32      H        0.28440    0.68860    0.51470    1.000
    C22      C        0.34620    0.14990    0.57880    1.000
    H33      H        0.29660    0.12280    0.59080    1.000
    H34      H        0.32060    0.18480    0.55430    1.000
    H35      H        0.38050    0.17040    0.61030    1.000
    C23      C        0.44580    0.04780    0.58990    1.000
    H36      H        0.48070    0.06780    0.62140    1.000
    H37      H        0.48480    0.01650    0.57250    1.000
    H38      H        0.39290    0.02410    0.60140    1.000
    C24      C        0.49420    0.14530    0.53500    1.000
    H39      H        0.53050    0.15830    0.56850    1.000
    H40      H        0.47300    0.18520    0.51500    1.000
    H41      H        0.53190    0.11860    0.51290    1.000
    C25      C        0.61640    0.57820    0.89830    1.000
    H42      H        0.61900    0.52950    0.89950    1.000
    H43      H        0.67670    0.59590    0.89260    1.000
    H44      H        0.57180    0.59240    0.86870    1.000
    C26      C        0.48230    0.58840    0.95360    1.000
    H45      H        0.44620    0.61370    0.92540    1.000
    H46      H        0.46390    0.60090    0.98900    1.000
    H47      H        0.47170    0.54070    0.94760    1.000
    C27      C        0.59560    0.68190    0.95350    1.000
    H48      H        0.65930    0.69470    0.96340    1.000
    H49      H        0.55750    0.69930    0.98040    1.000
    H50      H        0.57490    0.70040    0.91800    1.000
    Co1      Co       0.49573    0.14072    0.27004    1.000
    Co2      Co       0.25169    0.10819    0.22647    1.000
    O1       O        0.43410    0.23279    0.25781    1.000
    O2       O        0.28210    0.20820    0.24375    1.000
    O3       O        0.52390    0.47740    0.27130    1.000
    O4       O        0.42970    0.55027    0.22445    1.000
    O5       O        0.12670    0.91660    0.42211    1.000
    O6       O        0.13590    0.93630    0.51160    1.000
    H51      H        0.10720    0.96920    0.52170    1.000
    O7       O        0.28550    0.06910    0.30322    1.000
    O8       O        0.42420    0.11030    0.33622    1.000
    O9       O        0.39480    0.09349    0.20874    1.000
    H52      H        0.38690    0.10430    0.17580    1.000
    H53      H        0.41390    0.05410    0.21320    1.000
    N2       N        0.88610    0.63030    0.25000    1.000
    N3       N        0.58630    0.17140    0.20570    1.000
    N4       N        0.58680    0.31660    0.83760    1.000
    C28      C        0.34940    0.24860    0.24670    1.000
    C29      C        0.32740    0.32240    0.23710    1.000
    C30      C        0.23610    0.34190    0.22140    1.000
    H54      H        0.19020    0.30870    0.21570    1.000
    C31      C        0.21180    0.40980    0.21390    1.000
    C32      C        0.28250    0.45730    0.22060    1.000
    H55      H        0.26800    0.50290    0.21460    1.000
    C33      C        0.37440    0.43930    0.23610    1.000
    C34      C        0.39740    0.37140    0.24520    1.000
    H56      H        0.45850    0.35880    0.25650    1.000
    C35      C        0.44870    0.49250    0.24440    1.000
    C36      C        0.11140    0.43380    0.20030    1.000
    C37      C        0.10250    0.47120    0.14520    1.000
    H57      H        0.14270    0.51020    0.14770    1.000
    H58      H        0.03920    0.48550    0.13650    1.000
    H59      H        0.12010    0.44130    0.11690    1.000
    C38      C        0.08510    0.48080    0.24580    1.000
    H60      H        0.09040    0.45670    0.28020    1.000
    H61      H        0.02210    0.49610    0.23740    1.000
    H62      H        0.12630    0.51920    0.24850    1.000
    C39      C        0.04200    0.37240    0.19690    1.000
    H63      H        0.05850    0.34100    0.16940    1.000
    H64      H        0.97980    0.38870    0.18730    1.000
    H65      H        0.04520    0.35000    0.23200    1.000
    C40      C        0.34830    0.08170    0.34100    1.000
    C41      C        0.32770    0.06090    0.39830    1.000
    C42      C        0.25660    0.01470    0.40530    1.000
    H66      H        0.22330    0.99500    0.37480    1.000
    C43      C        0.23560    0.99810    0.45800    1.000
    C44      C        0.28560    0.02770    0.50360    1.000
    H67      H        0.27000    0.01700    0.53870    1.000
    C45      C        0.35790    0.07290    0.49800    1.000
    C46      C        0.37790    0.08810    0.44450    1.000
    H68      H        0.42690    0.11750    0.43970    1.000
    C47      C        0.16140    0.94770    0.46460    1.000
    C48      C        0.41210    0.10430    0.54850    1.000
    C49      C        0.90640    0.62340    0.19840    1.000
    H69      H        0.86040    0.60610    0.17280    1.000
    C50      C        0.99040    0.64020    0.18030    1.000
    H70      H        0.99890    0.63550    0.14320    1.000
    C51      C        0.05890    0.66280    0.21470    1.000
    C52      C        0.04040    0.67110    0.26930    1.000
    H71      H        0.08670    0.68700    0.29540    1.000
    C53      C        0.95300    0.65580    0.28460    1.000
    H72      H        0.94090    0.66390    0.32080    1.000
    C54      C        0.60100    0.23520    0.19320    1.000
    H73      H        0.56920    0.26870    0.21070    1.000
    C55      C        0.66130    0.25510    0.15550    1.000
    H74      H        0.66880    0.30130    0.14930    1.000
    C56      C        0.70930    0.21090    0.12750    1.000
    C57      C        0.69430    0.14750    0.14060    1.000
    H75      H        0.72630    0.11350    0.12380    1.000
    C58      C        0.63260    0.12830    0.17870    1.000
    H76      H        0.62420    0.08220    0.18500    1.000
    C59      C        0.68520    0.27290    0.93430    1.000
    C60      C        0.62570    0.22820    0.90200    1.000
    H77      H        0.61830    0.18330    0.91270    1.000
    C61      C        0.57930    0.25280    0.85460    1.000
    H78      H        0.54050    0.22350    0.83310    1.000
    C62      C        0.63980    0.35770    0.87070    1.000
    H79      H        0.64500    0.40280    0.86020    1.000
    C63      C        0.68660    0.33750    0.91860    1.000
    H80      H        0.72010    0.36920    0.94080    1.000
    C64      C        0.84160    0.17400    0.29830    1.000
    H81      H        0.83580    0.16100    0.33620    1.000
    H82      H        0.80000    0.14550    0.27460    1.000
    C65      C        0.81320    0.24790    0.29010    1.000
    H83      H        0.74880    0.25300    0.29790    1.000
    H84      H        0.81690    0.26010    0.25190    1.000
    C66      C        0.87380    0.29620    0.32680    1.000
    H85      H        0.93790    0.29190    0.31830    1.000
    H86      H        0.87130    0.28320    0.36500    1.000
    C67      C        0.84350    0.37020    0.31960    1.000
    C68      C        0.76690    0.38700    0.28060    1.000
    H87      H        0.73260    0.35300    0.26160    1.000
    C69      C        0.74470    0.45300    0.27150    1.000
    H88      H        0.69480    0.46270    0.24550    1.000
    C70      C        0.86040    0.49020    0.33230    1.000
    H89      H        0.89430    0.52520    0.35030    1.000
    C71      C        0.88740    0.42270    0.34380    1.000
    H90      H        0.93840    0.41470    0.36940    1.000
    N5       N        0.78920    0.50540    0.29720    1.000
    C72      C        0.85990    0.17170    0.32060    1.000
    H91      H        0.81110    0.13940    0.30900    1.000
    H92      H        0.88110    0.16250    0.35890    1.000
    C73      C        0.82120    0.24370    0.31520    1.000
    H93      H        0.75690    0.24180    0.32360    1.000
    H94      H        0.82000    0.25640    0.27670    1.000
    C74      C        0.86800    0.30240    0.34920    1.000
    H95      H        0.93490    0.29610    0.35330    1.000
    H96      H        0.84630    0.30300    0.38560    1.000
    C75      C        0.79660    0.41010    0.35770    1.000
    H97      H        0.78310    0.39160    0.39110    1.000
    C76      C        0.77250    0.47460    0.34450    1.000
    H98      H        0.74230    0.49960    0.36980    1.000
    C77      C        0.83160    0.46910    0.26290    1.000
    H99      H        0.84450    0.48840    0.22970    1.000
    C78      C        0.85890    0.40140    0.27420    1.000
    H100     H        0.88930    0.37790    0.24810    1.000
    C79      C        0.23120    0.72020    0.41950    1.000
    H101     H        0.19540    0.67930    0.42470    1.000
    H102     H        0.18830    0.75770    0.41190    1.000
    C80      C        0.29820    0.73500    0.47140    1.000
    H103     H        0.33770    0.69580    0.48030    1.000
    H104     H        0.33790    0.77330    0.46460    1.000
    C81      C        0.24110    0.75100    0.51930    1.000
    H105     H        0.20740    0.71120    0.52980    1.000
    H106     H        0.19700    0.78740    0.50970    1.000
    C82      C        0.77570    0.25130    0.09420    1.000
    H107     H        0.79500    0.29250    0.11400    1.000
    H108     H        0.83090    0.22440    0.09000    1.000
    C83      C        0.72790    0.26980    0.03720    1.000
    H109     H        0.67960    0.30130    0.04560    1.000
    H110     H        0.77410    0.29740    0.02130    1.000
    C84      C        0.68310    0.23130    0.98870    1.000
    H111     H        0.61900    0.22110    0.99450    1.000
    H112     H        0.71560    0.18860    0.98530    1.000
    C85      C        0.65380    0.64990    0.92120    1.000
    H113     H        0.70340    0.62280    0.90920    1.000
    H114     H        0.67940    0.68480    0.94570    1.000
    H115     H        0.61950    0.67040    0.88970    1.000
    C86      C        0.55420    0.54780    0.91010    1.000
    H116     H        0.51930    0.56780    0.87860    1.000
    H117     H        0.51520    0.51650    0.92750    1.000
    H118     H        0.60710    0.52410    0.89860    1.000
    C87      C        0.50580    0.64530    0.96500    1.000
    H119     H        0.46950    0.65830    0.93150    1.000
    H120     H        0.52700    0.68520    0.98500    1.000
    H121     H        0.46810    0.61860    0.98710    1.000
    C88      C        0.38360    0.07820    0.60170    1.000
    H122     H        0.38100    0.02950    0.60050    1.000
    H123     H        0.32330    0.09590    0.60740    1.000
    H124     H        0.42820    0.09240    0.63130    1.000
    C89      C        0.51770    0.08840    0.54640    1.000
    H125     H        0.55380    0.11370    0.57460    1.000
    H126     H        0.53610    0.10090    0.51100    1.000
    H127     H        0.52830    0.04070    0.55240    1.000
    C90      C        0.40440    0.18190    0.54650    1.000
    H128     H        0.34070    0.19470    0.53660    1.000
    H129     H        0.44250    0.19930    0.51960    1.000
    H130     H        0.42510    0.20040    0.58200    1.000
    Co3      Co       0.50427    0.64072    0.22996    1.000
    Co4      Co       0.74831    0.60819    0.27353    1.000
    O10      O        0.56590    0.73279    0.24219    1.000
    O11      O        0.71790    0.70820    0.25625    1.000
    O12      O        0.47610    0.97740    0.22870    1.000
    O13      O        0.57030    0.05027    0.27555    1.000
    O14      O        0.87330    0.41660    0.07789    1.000
    O15      O        0.86410    0.43630    0.98840    1.000
    H131     H        0.89280    0.46920    0.97830    1.000
    O16      O        0.71450    0.56910    0.19678    1.000
    O17      O        0.57580    0.61030    0.16378    1.000
    O18      O        0.60520    0.59349    0.29126    1.000
    H132     H        0.61310    0.60430    0.32420    1.000
    H133     H        0.58610    0.55410    0.28680    1.000
    N6       N        0.11390    0.13030    0.25000    1.000
    N7       N        0.41370    0.67140    0.29430    1.000
    N8       N        0.41320    0.81660    0.66240    1.000
    C91      C        0.65060    0.74860    0.25330    1.000
    C92      C        0.67260    0.82240    0.26290    1.000
    C93      C        0.76390    0.84190    0.27860    1.000
    H134     H        0.80980    0.80870    0.28430    1.000
    C94      C        0.78820    0.90980    0.28610    1.000
    C95      C        0.71750    0.95730    0.27940    1.000
    H135     H        0.73200    0.00290    0.28540    1.000
    C96      C        0.62560    0.93930    0.26390    1.000
    C97      C        0.60260    0.87140    0.25480    1.000
    H136     H        0.54150    0.85880    0.24350    1.000
    C98      C        0.55130    0.99250    0.25560    1.000
    C99      C        0.88860    0.93380    0.29970    1.000
    C100     C        0.89750    0.97120    0.35480    1.000
    H137     H        0.85730    0.01020    0.35230    1.000
    H138     H        0.96080    0.98550    0.36350    1.000
    H139     H        0.87990    0.94130    0.38310    1.000
    C101     C        0.91490    0.98080    0.25420    1.000
    H140     H        0.90960    0.95670    0.21980    1.000
    H141     H        0.97790    0.99610    0.26260    1.000
    H142     H        0.87370    0.01920    0.25150    1.000
    C102     C        0.95800    0.87240    0.30310    1.000
    H143     H        0.94150    0.84100    0.33060    1.000
    H144     H        0.02020    0.88870    0.31270    1.000
    H145     H        0.95480    0.85000    0.26800    1.000
    C103     C        0.65170    0.58170    0.15900    1.000
    C104     C        0.67230    0.56090    0.10170    1.000
    C105     C        0.74340    0.51470    0.09470    1.000
    H146     H        0.77670    0.49500    0.12520    1.000
    C106     C        0.76440    0.49810    0.04200    1.000
    C107     C        0.71440    0.52770    0.99640    1.000
    H147     H        0.73000    0.51700    0.96130    1.000
    C108     C        0.64210    0.57290    0.00200    1.000
    C109     C        0.62210    0.58810    0.05550    1.000
    H148     H        0.57310    0.61750    0.06030    1.000
    C110     C        0.83860    0.44770    0.03540    1.000
    C111     C        0.58790    0.60430    0.95150    1.000
    C112     C        0.09360    0.12340    0.30160    1.000
    H149     H        0.13960    0.10610    0.32720    1.000
    C113     C        0.00960    0.14020    0.31970    1.000
    H150     H        0.00110    0.13550    0.35680    1.000
    C114     C        0.94110    0.16280    0.28530    1.000
    C115     C        0.95960    0.17110    0.23070    1.000
    H151     H        0.91330    0.18700    0.20460    1.000
    C116     C        0.04700    0.15580    0.21540    1.000
    H152     H        0.05910    0.16390    0.17920    1.000
    C117     C        0.39900    0.73520    0.30680    1.000
    H153     H        0.43080    0.76870    0.28930    1.000
    C118     C        0.33870    0.75510    0.34450    1.000
    H154     H        0.33120    0.80130    0.35070    1.000
    C119     C        0.29070    0.71090    0.37250    1.000
    C120     C        0.30570    0.64750    0.35940    1.000
    H155     H        0.27370    0.61350    0.37620    1.000
    C121     C        0.36740    0.62830    0.32130    1.000
    H156     H        0.37580    0.58220    0.31500    1.000
    C122     C        0.31480    0.77290    0.56570    1.000
    C123     C        0.37430    0.72820    0.59800    1.000
    H157     H        0.38170    0.68330    0.58730    1.000
    C124     C        0.42070    0.75280    0.64540    1.000
    H158     H        0.45950    0.72350    0.66690    1.000
    C125     C        0.36020    0.85770    0.62930    1.000
    H159     H        0.35500    0.90280    0.63980    1.000
    C126     C        0.31340    0.83750    0.58140    1.000
    H160     H        0.27990    0.86920    0.55920    1.000
    C127     C        0.84160    0.32600    0.79830    1.000
    H161     H        0.83580    0.33900    0.83620    1.000
    H162     H        0.80000    0.35450    0.77460    1.000
    C128     C        0.81320    0.25210    0.79010    1.000
    H163     H        0.74880    0.24700    0.79790    1.000
    H164     H        0.81690    0.23990    0.75190    1.000
    C129     C        0.87380    0.20380    0.82680    1.000
    H165     H        0.93790    0.20810    0.81830    1.000
    H166     H        0.87130    0.21680    0.86500    1.000
    C130     C        0.84350    0.12980    0.81960    1.000
    C131     C        0.76690    0.11300    0.78060    1.000
    H167     H        0.73260    0.14700    0.76160    1.000
    C132     C        0.74470    0.04700    0.77150    1.000
    H168     H        0.69480    0.03730    0.74550    1.000
    C133     C        0.86040    0.00980    0.83230    1.000
    H169     H        0.89430    0.97480    0.85030    1.000
    C134     C        0.88740    0.07730    0.84380    1.000
    H170     H        0.93840    0.08530    0.86940    1.000
    N9       N        0.78920    0.99460    0.79720    1.000
    C135     C        0.85990    0.32830    0.82060    1.000
    H171     H        0.81110    0.36060    0.80900    1.000
    H172     H        0.88110    0.33750    0.85890    1.000
    C136     C        0.82120    0.25630    0.81520    1.000
    H173     H        0.75690    0.25820    0.82360    1.000
    H174     H        0.82000    0.24360    0.77670    1.000
    C137     C        0.86800    0.19760    0.84920    1.000
    H175     H        0.93490    0.20390    0.85330    1.000
    H176     H        0.84630    0.19700    0.88560    1.000
    C138     C        0.79660    0.08990    0.85770    1.000
    H177     H        0.78310    0.10840    0.89110    1.000
    C139     C        0.77250    0.02540    0.84450    1.000
    H178     H        0.74230    0.00040    0.86980    1.000
    C140     C        0.83160    0.03090    0.76290    1.000
    H179     H        0.84450    0.01160    0.72970    1.000
    C141     C        0.85890    0.09860    0.77420    1.000
    H180     H        0.88930    0.12210    0.74810    1.000
    C142     C        0.23120    0.77980    0.91950    1.000
    H181     H        0.19540    0.82070    0.92470    1.000
    H182     H        0.18830    0.74230    0.91190    1.000
    C143     C        0.29820    0.76500    0.97140    1.000
    H183     H        0.33770    0.80420    0.98030    1.000
    H184     H        0.33790    0.72670    0.96460    1.000
    C144     C        0.24110    0.74900    0.01930    1.000
    H185     H        0.20740    0.78880    0.02980    1.000
    H186     H        0.19700    0.71260    0.00970    1.000
    C145     C        0.77570    0.24870    0.59420    1.000
    H187     H        0.79500    0.20750    0.61400    1.000
    H188     H        0.83090    0.27560    0.59000    1.000
    C146     C        0.72790    0.23020    0.53720    1.000
    H189     H        0.67960    0.19870    0.54560    1.000
    H190     H        0.77410    0.20260    0.52130    1.000
    C147     C        0.68310    0.26870    0.48870    1.000
    H191     H        0.61900    0.27890    0.49450    1.000
    H192     H        0.71560    0.31140    0.48530    1.000
    C148     C        0.65380    0.85010    0.42120    1.000
    H193     H        0.70340    0.87720    0.40920    1.000
    H194     H        0.67940    0.81520    0.44570    1.000
    H195     H        0.61950    0.82960    0.38970    1.000
    C149     C        0.55420    0.95220    0.41010    1.000
    H196     H        0.51930    0.93220    0.37860    1.000
    H197     H        0.51520    0.98350    0.42750    1.000
    H198     H        0.60710    0.97590    0.39860    1.000
    C150     C        0.50580    0.85470    0.46500    1.000
    H199     H        0.46950    0.84170    0.43150    1.000
    H200     H        0.52700    0.81480    0.48500    1.000
    H201     H        0.46810    0.88140    0.48710    1.000
    C151     C        0.38360    0.42180    0.10170    1.000
    H202     H        0.38100    0.47050    0.10050    1.000
    H203     H        0.32330    0.40410    0.10740    1.000
    H204     H        0.42820    0.40760    0.13130    1.000
    C152     C        0.51770    0.41160    0.04640    1.000
    H205     H        0.55380    0.38630    0.07460    1.000
    H206     H        0.53610    0.39910    0.01100    1.000
    H207     H        0.52830    0.45930    0.05240    1.000
    C153     C        0.40440    0.31810    0.04650    1.000
    H208     H        0.34070    0.30530    0.03660    1.000
    H209     H        0.44250    0.30070    0.01960    1.000
    H210     H        0.42510    0.29960    0.08200    1.000
    Co5      Co       0.50427    0.85928    0.72996    1.000
    Co6      Co       0.74831    0.89181    0.77353    1.000
    O19      O        0.56590    0.76721    0.74219    1.000
    O20      O        0.71790    0.79180    0.75625    1.000
    O21      O        0.47610    0.52260    0.72870    1.000
    O22      O        0.57030    0.44973    0.77555    1.000
    O23      O        0.87330    0.08340    0.57789    1.000
    O24      O        0.86410    0.06370    0.48840    1.000
    H211     H        0.89280    0.03080    0.47830    1.000
    O25      O        0.71450    0.93090    0.69678    1.000
    O26      O        0.57580    0.88970    0.66378    1.000
    O27      O        0.60520    0.90651    0.79126    1.000
    H212     H        0.61310    0.89570    0.82420    1.000
    H213     H        0.58610    0.94590    0.78680    1.000
    N10      N        0.11390    0.36970    0.75000    1.000
    N11      N        0.41370    0.82860    0.79430    1.000
    N12      N        0.41320    0.68340    0.16240    1.000
    C154     C        0.65060    0.75140    0.75330    1.000
    C155     C        0.67260    0.67760    0.76290    1.000
    C156     C        0.76390    0.65810    0.77860    1.000
    H214     H        0.80980    0.69130    0.78430    1.000
    C157     C        0.78820    0.59020    0.78610    1.000
    C158     C        0.71750    0.54270    0.77940    1.000
    H215     H        0.73200    0.49710    0.78540    1.000
    C159     C        0.62560    0.56070    0.76390    1.000
    C160     C        0.60260    0.62860    0.75480    1.000
    H216     H        0.54150    0.64120    0.74350    1.000
    C161     C        0.55130    0.50750    0.75560    1.000
    C162     C        0.88860    0.56620    0.79970    1.000
    C163     C        0.89750    0.52880    0.85480    1.000
    H217     H        0.85730    0.48980    0.85230    1.000
    H218     H        0.96080    0.51450    0.86350    1.000
    H219     H        0.87990    0.55870    0.88310    1.000
    C164     C        0.91490    0.51920    0.75420    1.000
    H220     H        0.90960    0.54330    0.71980    1.000
    H221     H        0.97790    0.50390    0.76260    1.000
    H222     H        0.87370    0.48080    0.75150    1.000
    C165     C        0.95800    0.62760    0.80310    1.000
    H223     H        0.94150    0.65900    0.83060    1.000
    H224     H        0.02020    0.61130    0.81270    1.000
    H225     H        0.95480    0.65000    0.76800    1.000
    C166     C        0.65170    0.91830    0.65900    1.000
    C167     C        0.67230    0.93910    0.60170    1.000
    C168     C        0.74340    0.98530    0.59470    1.000
    H226     H        0.77670    0.00500    0.62520    1.000
    C169     C        0.76440    0.00190    0.54200    1.000
    C170     C        0.71440    0.97230    0.49640    1.000
    H227     H        0.73000    0.98300    0.46130    1.000
    C171     C        0.64210    0.92710    0.50200    1.000
    C172     C        0.62210    0.91190    0.55550    1.000
    H228     H        0.57310    0.88250    0.56030    1.000
    C173     C        0.83860    0.05230    0.53540    1.000
    C174     C        0.58790    0.89570    0.45150    1.000
    C175     C        0.09360    0.37660    0.80160    1.000
    H229     H        0.13960    0.39390    0.82720    1.000
    C176     C        0.00960    0.35980    0.81970    1.000
    H230     H        0.00110    0.36450    0.85680    1.000
    C177     C        0.94110    0.33720    0.78530    1.000
    C178     C        0.95960    0.32890    0.73070    1.000
    H231     H        0.91330    0.31300    0.70460    1.000
    C179     C        0.04700    0.34420    0.71540    1.000
    H232     H        0.05910    0.33610    0.67920    1.000
    C180     C        0.39900    0.76480    0.80680    1.000
    H233     H        0.43080    0.73130    0.78930    1.000
    C181     C        0.33870    0.74490    0.84450    1.000
    H234     H        0.33120    0.69870    0.85070    1.000
    C182     C        0.29070    0.78910    0.87250    1.000
    C183     C        0.30570    0.85250    0.85940    1.000
    H235     H        0.27370    0.88650    0.87620    1.000
    C184     C        0.36740    0.87170    0.82130    1.000
    H236     H        0.37580    0.91780    0.81500    1.000
    C185     C        0.31480    0.72710    0.06570    1.000
    C186     C        0.37430    0.77180    0.09800    1.000
    H237     H        0.38170    0.81670    0.08730    1.000
    C187     C        0.42070    0.74720    0.14540    1.000
    H238     H        0.45950    0.77650    0.16690    1.000
    C188     C        0.36020    0.64230    0.12930    1.000
    H239     H        0.35500    0.59720    0.13980    1.000
    C189     C        0.31340    0.66250    0.08140    1.000
    H240     H        0.27990    0.63080    0.05920    1.000
    C190     C        0.15840    0.82600    0.70170    1.000
    H241     H        0.16420    0.83900    0.66380    1.000
    H242     H        0.20000    0.85450    0.72540    1.000
    C191     C        0.18680    0.75210    0.70990    1.000
    H243     H        0.25120    0.74700    0.70210    1.000
    H244     H        0.18310    0.73990    0.74810    1.000
    C192     C        0.12620    0.70380    0.67320    1.000
    H245     H        0.06210    0.70810    0.68170    1.000
    H246     H        0.12870    0.71680    0.63500    1.000
    C193     C        0.15650    0.62980    0.68040    1.000
    C194     C        0.23310    0.61300    0.71940    1.000
    H247     H        0.26740    0.64700    0.73840    1.000
    C195     C        0.25530    0.54700    0.72850    1.000
    H248     H        0.30520    0.53730    0.75450    1.000
    C196     C        0.13960    0.50980    0.66770    1.000
    H249     H        0.10570    0.47480    0.64970    1.000
    C197     C        0.11260    0.57730    0.65620    1.000
    H250     H        0.06160    0.58530    0.63060    1.000
    N13      N        0.21080    0.49460    0.70280    1.000
    C198     C        0.14010    0.82830    0.67940    1.000
    H251     H        0.18890    0.86060    0.69100    1.000
    H252     H        0.11890    0.83750    0.64110    1.000
    C199     C        0.17880    0.75630    0.68480    1.000
    H253     H        0.24310    0.75820    0.67640    1.000
    H254     H        0.18000    0.74360    0.72330    1.000
    C200     C        0.13200    0.69760    0.65080    1.000
    H255     H        0.06510    0.70390    0.64670    1.000
    H256     H        0.15370    0.69700    0.61440    1.000
    C201     C        0.20340    0.58990    0.64230    1.000
    H257     H        0.21690    0.60840    0.60890    1.000
    C202     C        0.22750    0.52540    0.65550    1.000
    H258     H        0.25770    0.50040    0.63020    1.000
    C203     C        0.16840    0.53090    0.73710    1.000
    H259     H        0.15550    0.51160    0.77030    1.000
    C204     C        0.14110    0.59860    0.72580    1.000
    H260     H        0.11070    0.62210    0.75190    1.000
    C205     C        0.76880    0.27980    0.58050    1.000
    H261     H        0.80460    0.32070    0.57530    1.000
    H262     H        0.81170    0.24230    0.58810    1.000
    C206     C        0.70180    0.26500    0.52860    1.000
    H263     H        0.66230    0.30420    0.51970    1.000
    H264     H        0.66210    0.22670    0.53540    1.000
    C207     C        0.75890    0.24900    0.48070    1.000
    H265     H        0.79260    0.28880    0.47020    1.000
    H266     H        0.80300    0.21260    0.49030    1.000
    C208     C        0.22430    0.74870    0.90580    1.000
    H267     H        0.20500    0.70750    0.88600    1.000
    H268     H        0.16910    0.77560    0.91000    1.000
    C209     C        0.27210    0.73020    0.96280    1.000
    H269     H        0.32040    0.69870    0.95440    1.000
    H270     H        0.22590    0.70260    0.97870    1.000
    C210     C        0.31690    0.76870    0.01130    1.000
    H271     H        0.38100    0.77890    0.00550    1.000
    H272     H        0.28440    0.81140    0.01470    1.000
    C211     C        0.34620    0.35010    0.07880    1.000
    H273     H        0.29660    0.37720    0.09080    1.000
    H274     H        0.32060    0.31520    0.05430    1.000
    H275     H        0.38050    0.32960    0.11030    1.000
    C212     C        0.44580    0.45220    0.08990    1.000
    H276     H        0.48070    0.43220    0.12140    1.000
    H277     H        0.48480    0.48350    0.07250    1.000
    H278     H        0.39290    0.47590    0.10140    1.000
    C213     C        0.49420    0.35470    0.03500    1.000
    H279     H        0.53050    0.34170    0.06850    1.000
    H280     H        0.47300    0.31480    0.01500    1.000
    H281     H        0.53190    0.38140    0.01290    1.000
    C214     C        0.61640    0.92180    0.39830    1.000
    H282     H        0.61900    0.97050    0.39950    1.000
    H283     H        0.67670    0.90410    0.39260    1.000
    H284     H        0.57180    0.90760    0.36870    1.000
    C215     C        0.48230    0.91160    0.45360    1.000
    H285     H        0.44620    0.88630    0.42540    1.000
    H286     H        0.46390    0.89910    0.48900    1.000
    H287     H        0.47170    0.95930    0.44760    1.000
    C216     C        0.59560    0.81810    0.45350    1.000
    H288     H        0.65930    0.80530    0.46340    1.000
    H289     H        0.55750    0.80070    0.48040    1.000
    H290     H        0.57490    0.79960    0.41800    1.000
    Co7      Co       0.49573    0.35928    0.77004    1.000
    Co8      Co       0.25169    0.39181    0.72647    1.000
    O28      O        0.43410    0.26721    0.75781    1.000
    O29      O        0.28210    0.29180    0.74375    1.000
    O30      O        0.52390    0.02260    0.77130    1.000
    O31      O        0.42970    0.94973    0.72445    1.000
    O32      O        0.12670    0.58340    0.92211    1.000
    O33      O        0.13590    0.56370    0.01160    1.000
    H291     H        0.10720    0.53080    0.02170    1.000
    O34      O        0.28550    0.43090    0.80322    1.000
    O35      O        0.42420    0.38970    0.83622    1.000
    O36      O        0.39480    0.40651    0.70874    1.000
    H292     H        0.38690    0.39570    0.67580    1.000
    H293     H        0.41390    0.44590    0.71320    1.000
    N14      N        0.88610    0.86970    0.75000    1.000
    N15      N        0.58630    0.32860    0.70570    1.000
    N16      N        0.58680    0.18340    0.33760    1.000
    C217     C        0.34940    0.25140    0.74670    1.000
    C218     C        0.32740    0.17760    0.73710    1.000
    C219     C        0.23610    0.15810    0.72140    1.000
    H294     H        0.19020    0.19130    0.71570    1.000
    C220     C        0.21180    0.09020    0.71390    1.000
    C221     C        0.28250    0.04270    0.72060    1.000
    H295     H        0.26800    0.99710    0.71460    1.000
    C222     C        0.37440    0.06070    0.73610    1.000
    C223     C        0.39740    0.12860    0.74520    1.000
    H296     H        0.45850    0.14120    0.75650    1.000
    C224     C        0.44870    0.00750    0.74440    1.000
    C225     C        0.11140    0.06620    0.70030    1.000
    C226     C        0.10250    0.02880    0.64520    1.000
    H297     H        0.14270    0.98980    0.64770    1.000
    H298     H        0.03920    0.01450    0.63650    1.000
    H299     H        0.12010    0.05870    0.61690    1.000
    C227     C        0.08510    0.01920    0.74580    1.000
    H300     H        0.09040    0.04330    0.78020    1.000
    H301     H        0.02210    0.00390    0.73740    1.000
    H302     H        0.12630    0.98080    0.74850    1.000
    C228     C        0.04200    0.12760    0.69690    1.000
    H303     H        0.05850    0.15900    0.66940    1.000
    H304     H        0.97980    0.11130    0.68730    1.000
    H305     H        0.04520    0.15000    0.73200    1.000
    C229     C        0.34830    0.41830    0.84100    1.000
    C230     C        0.32770    0.43910    0.89830    1.000
    C231     C        0.25660    0.48530    0.90530    1.000
    H306     H        0.22330    0.50500    0.87480    1.000
    C232     C        0.23560    0.50190    0.95800    1.000
    C233     C        0.28560    0.47230    0.00360    1.000
    H307     H        0.27000    0.48300    0.03870    1.000
    C234     C        0.35790    0.42710    0.99800    1.000
    C235     C        0.37790    0.41190    0.94450    1.000
    H308     H        0.42690    0.38250    0.93970    1.000
    C236     C        0.16140    0.55230    0.96460    1.000
    C237     C        0.41210    0.39570    0.04850    1.000
    C238     C        0.90640    0.87660    0.69840    1.000
    H309     H        0.86040    0.89390    0.67280    1.000
    C239     C        0.99040    0.85980    0.68030    1.000
    H310     H        0.99890    0.86450    0.64320    1.000
    C240     C        0.05890    0.83720    0.71470    1.000
    C241     C        0.04040    0.82890    0.76930    1.000
    H311     H        0.08670    0.81300    0.79540    1.000
    C242     C        0.95300    0.84420    0.78460    1.000
    H312     H        0.94090    0.83610    0.82080    1.000
    C243     C        0.60100    0.26480    0.69320    1.000
    H313     H        0.56920    0.23130    0.71070    1.000
    C244     C        0.66130    0.24490    0.65550    1.000
    H314     H        0.66880    0.19870    0.64930    1.000
    C245     C        0.70930    0.28910    0.62750    1.000
    C246     C        0.69430    0.35250    0.64060    1.000
    H315     H        0.72630    0.38650    0.62380    1.000
    C247     C        0.63260    0.37170    0.67870    1.000
    H316     H        0.62420    0.41780    0.68500    1.000
    C248     C        0.68520    0.22710    0.43430    1.000
    C249     C        0.62570    0.27180    0.40200    1.000
    H317     H        0.61830    0.31670    0.41270    1.000
    C250     C        0.57930    0.24720    0.35460    1.000
    H318     H        0.54050    0.27650    0.33310    1.000
    C251     C        0.63980    0.14230    0.37070    1.000
    H319     H        0.64500    0.09720    0.36020    1.000
    C252     C        0.68660    0.16250    0.41860    1.000
    H320     H        0.72010    0.13080    0.44080    1.000
