data_functionalizedCrystal
_audit_creation_method	'EQeq! by Chris Wilmer'
_symmetry_space_group_name_H-M	'P1'
_symmetry_Int_Tables_number	1
_symmetry_cell_setting	triclinic
loop_
_symmetry_equiv_pos_as_xyz
  x,y,z
_cell_length_a	14.6222
_cell_length_b	14.6222
_cell_length_c	14.6222
_cell_angle_alpha	93.4019
_cell_angle_beta	118.056
_cell_angle_gamma	118.056
loop_
_atom_site_label
_atom_site_type_symbol
_atom_site_fract_x
_atom_site_fract_y
_atom_site_fract_z
_atom_site_charge
Mof_C 	C 	0.37528	0.90516	0.92376	-0.129
Mof_C 	C 	0.69542	0.9981	0.69352	0.383
Mof_C 	C 	0.01752	0.60285	0.00483	-0.005
Mof_C 	C 	0.52634	0.45422	0.43546	0.043
Mof_C 	C 	0.62658	0.54934	0.08288	-0.007
Mof_C 	C 	0.01864	0.47016	0.09486	-0.004
Mof_C 	C 	0.40198	0.41468	0.39716	-0.166
Mof_C 	C 	0.01878	0.56457	0.09091	-0.101
Mof_C 	C 	0.98248	0.99519	0.39717	-0.096
Mof_C 	C 	0.6247	0.07621	0.09487	0.065
Mof_C 	C 	0.70152	0.00087	0.01219	0.593
Mof_C 	C 	0.9814	0.90516	0.52988	0.047
Mof_C 	C 	0.52632	0.07208	0.09092	-0.018
Mof_C 	C 	0.29848	0.9878	0.99916	0.281
Mof_C 	C 	0.30458	0.30646	0.00188	0.533
Mof_C 	C 	0.59802	0.60285	0.58533	-0.089
Mof_C 	C 	0.01132	0.70067	0.99917	0.303
Mof_C 	C 	0.69544	0.69734	0.0019	0.486
Mof_C 	C 	0.98126	0.90912	0.43546	0.071
Mof_C 	C 	0.59804	0.9952	0.01272	-0.107
Mof_C 	C 	0.47366	0.56457	0.54579	-0.022
Mof_C 	C 	0.37342	0.4563	0.92274	-0.048
Mof_C 	C 	0.46646	0.54934	0.92276	-0.089
Mof_C 	C 	0.98866	0.98781	0.68933	0.453
Mof_C 	C 	0.01752	0.41468	0.0127	-0.177
Mof_C 	C 	0.0186	0.54849	0.92377	-0.168
Mof_C 	C 	0.40198	0.98729	0.00483	0.04
Mof_C 	C 	0.53356	0.0772	0.45062	0.063
Mof_C 	C 	0.46646	0.91706	0.54364	-0.03
Mof_C 	C 	0.01876	0.45422	0.92788	-0.058
Mof_C 	C 	0.6247	0.54847	0.52987	-0.001
Mof_C 	C 	0.98134	0.07622	0.45152	0.088
Mof_C 	C 	0.59454	0.59724	0.0027	-0.01
Mof_C 	C 	0.53356	0.4563	0.08288	0.032
Mof_C 	C 	0.47366	0.90912	0.92786	-0.037
Mof_C 	C 	0.62658	0.0772	0.54364	0.025
Mof_C 	C 	0.29852	0.31069	0.29935	0.528
Mof_C 	C 	0.30458	0.9981	0.30268	0.443
Mof_C 	C 	0.98246	0.98729	0.58531	-0.057
Mof_C 	C 	0.40548	0.40817	0.00269	-0.086
Mof_C 	C 	0.40548	0.99727	0.40273	-0.171
Mof_C 	C 	0.37342	0.91706	0.4506	0.009
Mof_C 	C 	0.01134	0.31069	0.01217	0.575
Mof_C 	C 	0.59454	0.99727	0.59179	-0.096
Mof_C 	C 	0.3753	0.47016	0.45152	0.019
Mof_C 	C 	0.98868	0.00087	0.29935	0.534
Mof_C 	C 	0.98116	0.07208	0.54576	0.068
Mof_C 	C 	0.7015	0.70067	0.68935	0.47
Mof_H 	H 	0.18606	0.08871	0.90265	0.223
Mof_H 	H 	0.0186	0.40906	0.86576	-0.064
Mof_H 	H 	0.72574	0.13984	0.58018	0.114
Mof_H 	H 	0.98174	0.14166	0.41928	0.135
Mof_H 	H 	0.72238	0.14166	0.15992	0.101
Mof_H 	H 	0.55966	0.13984	0.4141	0.061
Mof_H 	H 	0.18608	0.09736	0.28342	0.227
Mof_H 	H 	0.01858	0.60956	0.15284	-0.04
Mof_H 	H 	0.44034	0.85443	0.58015	0.013
Mof_H 	H 	0.45676	0.84722	0.86574	0.011
Mof_H 	H 	0.54328	0.40904	0.39044	0.06
Mof_H 	H 	0.0182	0.43748	0.15988	-0.065
Mof_H 	H 	0.45672	0.60956	0.59098	0.019
Mof_H 	H 	0.72572	0.58583	0.14547	0.12
Mof_H 	H 	0.81394	0.71662	0.90268	0.356
Mof_H 	H 	0.27762	0.84015	0.85831	-0.009
Mof_H 	H 	0.44036	0.58583	0.86011	0.021
Mof_H 	H 	0.98148	0.84722	0.39046	0.138
Mof_H 	H 	0.55966	0.41976	0.14548	0.067
Mof_H 	H 	0.54324	0.13419	0.15287	0.083
Mof_H 	H 	0.2776	0.43748	0.41928	-0.034
Mof_H 	H 	0.7224	0.58073	0.56255	0.113
Mof_H 	H 	0.01818	0.58073	0.85833	-0.038
Mof_H 	H 	0.98132	0.13419	0.59095	0.142
Mof_H 	H 	0.98184	0.84015	0.56253	0.141
Mof_H 	H 	0.81394	0.09736	0.91128	0.358
Mof_H 	H 	0.27428	0.85443	0.41409	-0.04
Mof_H 	H 	0.27428	0.41976	0.8601	-0.032
Mof_O 	O 	0.8671	0.06977	0.93685	-0.987
Mof_O 	O 	0.00656	0.73385	0.91917	-0.85
Mof_O 	O 	0.66776	0.9242	0.93266	-0.789
Mof_O 	O 	0.99344	0.08087	0.26617	-0.421
Mof_O 	O 	0.6592	0.73585	0.92565	-0.666
Mof_O 	O 	0.18982	0.26644	0.92562	-0.79
Mof_O 	O 	0.1853	0.27272	0.26614	-0.78
Mof_O 	O 	0.1329	0.06314	0.93024	-1.366
Mof_O 	O 	0.99154	0.9242	0.25644	-0.481
Mof_O 	O 	0.6592	0.92336	0.73356	-0.605
Mof_O 	O 	0.00658	0.27272	0.08742	-0.872
Mof_O 	O 	0.1898	0.92336	0.26416	-0.735
Mof_O 	O 	0.18528	0.91256	0.91916	-0.758
Mof_O 	O 	0.34082	0.07437	0.26417	-0.579
Mof_O 	O 	0.09758	0.14895	0.05137	-1.498
Mof_O 	O 	0.00842	0.74354	0.07582	-0.82
Mof_O 	O 	0.8147	0.08087	0.08743	-0.523
Mof_O 	O 	0.66772	0.74354	0.73512	-0.697
Mof_O 	O 	0.13292	0.06977	0.20267	-1.342
Mof_O 	O 	0.8671	0.79736	0.93026	-1.006
Mof_O 	O 	0.81468	0.73385	0.72729	-0.507
Mof_O 	O 	0.33224	0.06734	0.07582	-0.579
Mof_O 	O 	0.9934	0.91256	0.72728	-0.413
Mof_O 	O 	0.99152	0.06734	0.7351	-0.433
Mof_O 	O 	0.33228	0.26492	0.25644	-0.699
Mof_O 	O 	0.34082	0.26644	0.07662	-0.612
Mof_O 	O 	0.00848	0.26492	0.93264	-0.97
Mof_O 	O 	0.09758	0.94864	0.04622	-1.512
Mof_O 	O 	0.8102	0.73585	0.07665	-0.466
Mof_O 	O 	0.8102	0.07437	0.73355	-0.43
Mof_O 	O 	0.90242	0.94864	0.85106	-1.2
Mof_O 	O 	0.90242	0.9538	0.05138	-1.15
Mof_Zr	Zr	2.5027e-17	0.11844	0.88156	3.138
Mof_Zr	Zr	1.75189e-16	0.87559	0.87559	3.13
Mof_Zr	Zr	-6.25675e-18	0.12443	0.12443	3.142
Mof_Zr	Zr	-3.12837e-18	0.88158	0.11844	3.139
Mof_Zr	Zr	0.23688	0.11844	0.11844	3.218
Mof_Zr	Zr	0.76314	0.88158	0.88158	3.208
_end
