data_functionalizedCrystal
_audit_creation_method	'EQeq! by Chris Wilmer'
_symmetry_space_group_name_H-M	'P1'
_symmetry_Int_Tables_number	1
_symmetry_cell_setting	triclinic
loop_
_symmetry_equiv_pos_as_xyz
  x,y,z
_cell_length_a	7.2452
_cell_length_b	13.9706
_cell_length_c	16.3779
_cell_angle_alpha	73.531
_cell_angle_beta	83.678
_cell_angle_gamma	89.998
loop_
_atom_site_label
_atom_site_type_symbol
_atom_site_fract_x
_atom_site_fract_y
_atom_site_fract_z
_atom_site_charge
Mof_Pt	Pt	0.49309	0.23753	0.03257	0.089
Mof_N 	N 	0.0223	0.0943	0.8816	-0.156
Mof_N 	N 	0.1813	0.0837	0.0281	-0.206
Mof_N 	N 	0.8116	0.3952	0.0199	-0.187
Mof_N 	N 	0.1934	0.403	0.0081	-0.205
Mof_N 	N 	0.9925	0.4804	0.1259	-0.178
Mof_N 	N 	0.799	0.0794	0.0317	-0.187
Mof_C 	C 	0.045	0.0605	0.8124	0.03
Mof_H 	H 	0.0544	0.9921	0.8206	0.038
Mof_C 	C 	0.0552	0.1229	0.7292	-0.127
Mof_H 	H 	0.0738	0.0968	0.6827	0.067
Mof_C 	C 	0.0369	0.2257	0.7164	0.086
Mof_C 	C 	0.0172	0.2622	0.7871	-0.115
Mof_H 	H 	0.0081	0.3304	0.7801	0.075
Mof_C 	C 	0.0114	0.1957	0.8685	0.011
Mof_H 	H 	0.9997	0.2206	0.9158	0.086
Mof_C 	C 	0.0334	0.2899	0.6307	-0.065
Mof_C 	C 	0.0239	0.3361	0.557	0.023
Mof_C 	C 	0.2953	0.139	0.0334	0.009
Mof_C 	C 	0.6939	0.3368	0.0266	0.022
Mof_C 	C 	0.3041	0.3427	0.0183	0.013
Mof_C 	C 	0.6842	0.1348	0.0376	0.021
Mof_C 	C 	0.1507	0.4846	0.1623	0.067
Mof_H 	H 	0.2618	0.5011	0.1265	-0.011
Mof_C 	C 	0.1564	0.4658	0.2498	-0.215
Mof_H 	H 	0.2678	0.4718	0.2716	0.095
Mof_C 	C 	0.9921	0.4377	0.3044	0.135
Mof_C 	C 	0.8273	0.4332	0.2686	-0.177
Mof_H 	H 	0.7152	0.4155	0.3035	0.091
Mof_C 	C 	0.833	0.4554	0.1796	0.102
Mof_H 	H 	0.7224	0.4531	0.1562	-0.013
Mof_C 	C 	0.9964	0.4101	0.3962	0.004
Mof_C 	C 	0.0111	0.3792	0.4714	-0.065
Mof_Pt	Pt	0.50691	0.76247	0.96743	0.148
Mof_N 	N 	0.9777	0.9057	0.1184	-0.213
Mof_N 	N 	0.8187	0.9163	0.9719	-0.137
Mof_N 	N 	0.1884	0.6048	0.9801	-0.165
Mof_N 	N 	0.8066	0.597	0.9919	-0.15
Mof_N 	N 	0.0075	0.5196	0.8741	-0.199
Mof_N 	N 	0.201	0.9206	0.9683	-0.151
Mof_C 	C 	0.955	0.9395	0.1876	0.182
Mof_H 	H 	0.9456	0.0079	0.1794	-0.041
Mof_C 	C 	0.9448	0.8771	0.2708	-0.227
Mof_H 	H 	0.9262	0.9032	0.3173	0.123
Mof_C 	C 	0.9631	0.7743	0.2836	0.163
Mof_C 	C 	0.9828	0.7378	0.2129	-0.245
Mof_H 	H 	0.9919	0.6696	0.2199	0.126
Mof_C 	C 	0.9886	0.8043	0.1315	0.196
Mof_H 	H 	0.0003	0.7794	0.0842	-0.09
Mof_C 	C 	0.9666	0.7101	0.3693	-0.057
Mof_C 	C 	0.9761	0.6639	0.443	-0.001
Mof_C 	C 	0.7047	0.861	0.9666	0.061
Mof_C 	C 	0.3061	0.6632	0.9734	0.047
Mof_C 	C 	0.6959	0.6573	0.9817	0.056
Mof_C 	C 	0.3158	0.8652	0.9624	0.053
Mof_C 	C 	0.8493	0.5154	0.8377	0.127
Mof_H 	H 	0.7382	0.4989	0.8735	0.006
Mof_C 	C 	0.8436	0.5342	0.7502	-0.142
Mof_H 	H 	0.7322	0.5282	0.7284	0.092
Mof_C 	C 	0.0079	0.5623	0.6956	0.102
Mof_C 	C 	0.1727	0.5668	0.7314	-0.172
Mof_H 	H 	0.2848	0.5845	0.6965	0.094
Mof_C 	C 	0.167	0.5446	0.8204	0.095
Mof_H 	H 	0.2776	0.5469	0.8438	0.007
Mof_C 	C 	0.0036	0.5899	0.6038	-0.12
Mof_C 	C 	0.9889	0.6208	0.5286	0.079
Mof_Fe	Fe	-0	0.5	-0	0.617
Mof_Fe	Fe	-0	0	-0	0.579
_end
