data_functionalizedCrystal
_audit_creation_method	'EQeq! by Chris Wilmer'
_symmetry_space_group_name_H-M	'P1'
_symmetry_Int_Tables_number	1
_symmetry_cell_setting	triclinic
loop_
_symmetry_equiv_pos_as_xyz
  x,y,z
_cell_length_a	7.3179
_cell_length_b	7.3179
_cell_length_c	24.419
_cell_angle_alpha	90
_cell_angle_beta	90
_cell_angle_gamma	120
loop_
_atom_site_label
_atom_site_type_symbol
_atom_site_fract_x
_atom_site_fract_y
_atom_site_fract_z
_atom_site_charge
Mof_O 	O 	0.3384	0.4508	0.13215	-0.354
Mof_O 	O 	0.922	0.2975	0.965	-0.304
Mof_O 	O 	0.1405	0.4183	0.034	-0.353
Mof_C 	C 	0.0328	0.4313	0.9989	0.433
Mof_H 	H 	0.0334	0.5585	0.9971	-0.084
Mof_O 	O 	0.5492	0.8876	0.46548	-0.317
Mof_O 	O 	0.7025	0.6245	0.29833	-0.327
Mof_O 	O 	0.5817	0.7222	0.36733	-0.336
Mof_C 	C 	0.5687	0.6015	0.33223	0.464
Mof_H 	H 	0.4415	0.4749	0.33043	-0.092
Mof_O 	O 	0.1124	0.6616	0.79882	-0.339
Mof_O 	O 	0.3755	0.078	0.63167	-0.359
Mof_O 	O 	0.2778	0.8595	0.70067	-0.354
Mof_C 	C 	0.3985	0.9672	0.66557	0.496
Mof_H 	H 	0.5251	0.9666	0.66377	-0.093
Mof_O 	O 	0.6616	0.5492	0.63215	-0.342
Mof_O 	O 	0.078	0.7025	0.465	-0.352
Mof_O 	O 	0.8595	0.5817	0.534	-0.346
Mof_C 	C 	0.9672	0.5687	0.4989	0.495
Mof_H 	H 	0.9666	0.4415	0.4971	-0.095
Mof_O 	O 	0.4508	0.1124	0.96548	-0.33
Mof_O 	O 	0.2975	0.3755	0.79833	-0.341
Mof_O 	O 	0.4183	0.2778	0.86733	-0.351
Mof_C 	C 	0.4313	0.3985	0.83223	0.465
Mof_H 	H 	0.5585	0.5251	0.83043	-0.087
Mof_O 	O 	0.8876	0.3384	0.29882	-0.325
Mof_O 	O 	0.6245	0.922	0.13167	-0.298
Mof_O 	O 	0.7222	0.1405	0.20067	-0.331
Mof_C 	C 	0.6015	0.0328	0.16557	0.411
Mof_H 	H 	0.4749	0.0334	0.16377	-0.082
Mof_O 	O 	0.4508	0.3384	0.20118	-0.355
Mof_O 	O 	0.2975	0.922	0.36833	-0.304
Mof_O 	O 	0.4183	0.1405	0.29933	-0.339
Mof_C 	C 	0.4313	0.0328	0.33443	0.411
Mof_H 	H 	0.5585	0.0334	0.33623	-0.08
Mof_O 	O 	0.8876	0.5492	0.86785	-0.316
Mof_O 	O 	0.6245	0.7025	0.035	-0.323
Mof_O 	O 	0.7222	0.5817	0.966	-0.32
Mof_C 	C 	0.6015	0.5687	0.0011	0.439
Mof_H 	H 	0.4749	0.4415	0.0029	-0.087
Mof_O 	O 	0.6616	0.1124	0.53452	-0.339
Mof_O 	O 	0.078	0.3755	0.70167	-0.36
Mof_O 	O 	0.8595	0.2778	0.63267	-0.354
Mof_C 	C 	0.9672	0.3985	0.66777	0.498
Mof_H 	H 	0.9666	0.5251	0.66957	-0.094
Mof_O 	O 	0.5492	0.6616	0.70118	-0.342
Mof_O 	O 	0.7025	0.078	0.86833	-0.349
Mof_O 	O 	0.5817	0.8595	0.79933	-0.345
Mof_C 	C 	0.5687	0.9672	0.83443	0.493
Mof_H 	H 	0.4415	0.9666	0.83623	-0.095
Mof_O 	O 	0.1124	0.4508	0.36785	-0.345
Mof_O 	O 	0.3755	0.2975	0.535	-0.342
Mof_O 	O 	0.2778	0.4183	0.466	-0.352
Mof_C 	C 	0.3985	0.4313	0.5011	0.465
Mof_H 	H 	0.5251	0.5585	0.5029	-0.088
Mof_O 	O 	0.3384	0.8876	0.03452	-0.322
Mof_O 	O 	0.922	0.6245	0.20167	-0.298
Mof_O 	O 	0.1405	0.7222	0.13267	-0.332
Mof_C 	C 	0.0328	0.6015	0.16777	0.412
Mof_H 	H 	0.0334	0.4749	0.16957	-0.082
Mof_Cu	Cu	0.3648	0.6824	0.08333	0.956
Mof_Cu	Cu	0.3176	0.6824	0.41667	0.957
Mof_Cu	Cu	0.3176	0.6352	0.75	0.957
Mof_Cu	Cu	0.6352	0.3176	0.58333	0.958
Mof_Cu	Cu	0.6824	0.3176	0.91667	0.957
Mof_Cu	Cu	0.6824	0.3648	0.25	0.956
Mof_C 	C 	0.473	0.473	0.16667	0.431
Mof_H 	H 	0.6001	0.6001	0.16667	-0.078
Mof_C 	C 	0.527	0	0.5	0.386
Mof_H 	H 	0.3999	0	0.5	-0.075
Mof_C 	C 	1.08146e-17	0.527	0.83333	0.384
Mof_H 	H 	3.59115e-17	0.3999	0.83333	-0.075
Mof_C 	C 	0.527	0.527	0.66667	0.428
Mof_H 	H 	0.3999	0.3999	0.66667	-0.082
Mof_C 	C 	0.473	0	-0	0.366
Mof_H 	H 	0.6001	0	-0	-0.07
Mof_C 	C 	1.43654e-17	0.473	0.33333	0.39
Mof_H 	H 	-3.58282e-17	0.6001	0.33333	-0.073
_end
