data_functionalizedCrystal
_audit_creation_method	'EQeq! by Chris Wilmer'
_symmetry_space_group_name_H-M	'P1'
_symmetry_Int_Tables_number	1
_symmetry_cell_setting	triclinic
loop_
_symmetry_equiv_pos_as_xyz
  x,y,z
_cell_length_a	15.8983
_cell_length_b	15.8983
_cell_length_c	21.6675
_cell_angle_alpha	90
_cell_angle_beta	90
_cell_angle_gamma	90
loop_
_atom_site_label
_atom_site_type_symbol
_atom_site_fract_x
_atom_site_fract_y
_atom_site_fract_z
_atom_site_charge
Mof_C 	C 	0.7425	0.5383	0.287	0.076
Mof_H 	H 	0.7372	0.5082	0.3235	0.007
Mof_C 	C 	0.8082	0.5958	0.2821	-0.137
Mof_H 	H 	0.8451	0.6033	0.315	0.076
Mof_C 	C 	0.8186	0.6418	0.2282	0.066
Mof_C 	C 	0.7619	0.624	0.1802	-0.134
Mof_H 	H 	0.7673	0.651	0.1423	0.073
Mof_C 	C 	0.6983	0.5662	0.1895	0.077
Mof_H 	H 	0.6612	0.556	0.1572	0.011
Mof_C 	C 	0.8836	0.7085	0.2222	0.023
Mof_C 	C 	0.954	0.71	0.2601	-0.087
Mof_H 	H 	0.9613	0.668	0.2896	0.059
Mof_C 	C 	0.0139	0.7737	0.2546	0.01
Mof_H 	H 	0.0613	0.7736	0.2799	0.022
Mof_C 	C 	0.003	0.8367	0.2119	-0.089
Mof_H 	H 	0.0433	0.8787	0.2081	0.065
Mof_C 	C 	0.9327	0.8381	0.17473	0.027
Mof_C 	C 	0.8739	0.773	0.1791	-0.091
Mof_H 	H 	0.8276	0.7727	0.1529	0.066
Mof_C 	C 	0.9235	0.9073	0.13003	0.088
Mof_C 	C 	0.8719	0.0026	0.06773	0.091
Mof_C 	C 	0.8096	0.0577	0.03761	0.002
Mof_C 	C 	0.7788	0.0422	0.978	-0.058
Mof_H 	H 	0.7973	0.9958	0.9557	0.059
Mof_C 	C 	0.7207	0.0968	0.953	-0.015
Mof_H 	H 	0.7015	0.0879	0.913	0.034
Mof_C 	C 	0.6904	0.1648	0.9864	-0.062
Mof_H 	H 	0.6503	0.2	0.9689	0.055
Mof_C 	C 	0.7192	0.1807	0.04579	0.002
Mof_C 	C 	0.7798	0.1259	0.0704	-0.072
Mof_H 	H 	0.8004	0.1358	0.1099	0.053
Mof_C 	C 	0.6885	0.2531	0.0828	0.072
Mof_C 	C 	0.615	0.2979	0.0683	-0.14
Mof_H 	H 	0.5858	0.2863	0.0321	0.077
Mof_C 	C 	0.5864	0.3595	0.1085	0.078
Mof_H 	H 	0.5376	0.3883	0.098	0.011
Mof_C 	C 	0.6983	0.3415	0.1731	0.073
Mof_H 	H 	0.7282	0.3575	0.208	0.005
Mof_C 	C 	0.7313	0.2797	0.1359	-0.141
Mof_H 	H 	0.7826	0.2552	0.146	0.076
Mof_N 	N 	0.6868	0.5241	0.2423	-0.151
Mof_N 	N 	0.9876	0.9467	0.10489	-0.102
Mof_N 	N 	0.9548	0.0076	0.06595	-0.116
Mof_N 	N 	0.85036	0.9401	0.10774	-0.111
Mof_N 	N 	0.7685	0.917	0.1257	-0.242
Mof_H 	H 	0.7434	0.8884	0.0951	0.126
Mof_H 	H 	0.759	0.9662	0.1412	0.141
Mof_N 	N 	0.6242	0.3801	0.16108	-0.152
Mof_C 	C 	0.2575	0.4617	0.787	0.077
Mof_H 	H 	0.2628	0.4918	0.8235	0.007
Mof_C 	C 	0.1918	0.4042	0.7821	-0.137
Mof_H 	H 	0.1549	0.3967	0.815	0.076
Mof_C 	C 	0.1814	0.3582	0.7282	0.066
Mof_C 	C 	0.2381	0.376	0.6802	-0.135
Mof_H 	H 	0.2327	0.349	0.6423	0.074
Mof_C 	C 	0.3017	0.4338	0.6895	0.077
Mof_H 	H 	0.3388	0.444	0.6572	0.011
Mof_C 	C 	0.1164	0.2915	0.7222	0.023
Mof_C 	C 	0.046	0.29	0.7601	-0.086
Mof_H 	H 	0.0387	0.332	0.7896	0.059
Mof_C 	C 	0.9861	0.2263	0.7546	0.009
Mof_H 	H 	0.9387	0.2264	0.7799	0.022
Mof_C 	C 	0.997	0.1633	0.7119	-0.09
Mof_H 	H 	0.9567	0.1213	0.7081	0.065
Mof_C 	C 	0.0673	0.1619	0.67473	0.028
Mof_C 	C 	0.1261	0.227	0.6791	-0.091
Mof_H 	H 	0.1724	0.2273	0.6529	0.067
Mof_C 	C 	0.0765	0.0927	0.63003	0.088
Mof_C 	C 	0.1281	0.9974	0.56773	0.087
Mof_C 	C 	0.1904	0.9423	0.53761	0.023
Mof_C 	C 	0.2212	0.9578	0.478	-0.085
Mof_H 	H 	0.2027	0.0042	0.4557	0.067
Mof_C 	C 	0.2793	0.9032	0.453	0.009
Mof_H 	H 	0.2985	0.9121	0.413	0.026
Mof_C 	C 	0.3096	0.8352	0.4864	-0.09
Mof_H 	H 	0.3497	0.8	0.4689	0.063
Mof_C 	C 	0.2808	0.8193	0.54579	0.024
Mof_C 	C 	0.2202	0.8741	0.5704	-0.089
Mof_H 	H 	0.1996	0.8642	0.6099	0.059
Mof_C 	C 	0.3115	0.7469	0.5828	0.064
Mof_C 	C 	0.385	0.7021	0.5683	-0.134
Mof_H 	H 	0.4142	0.7137	0.5321	0.077
Mof_C 	C 	0.4136	0.6405	0.6085	0.076
Mof_H 	H 	0.4624	0.6117	0.598	0.012
Mof_C 	C 	0.3017	0.6585	0.6731	0.07
Mof_H 	H 	0.2718	0.6425	0.708	0.006
Mof_C 	C 	0.2687	0.7203	0.6359	-0.135
Mof_H 	H 	0.2174	0.7448	0.646	0.074
Mof_N 	N 	0.3132	0.4759	0.7423	-0.151
Mof_N 	N 	0.0124	0.0533	0.60489	-0.102
Mof_N 	N 	0.0452	0.9924	0.56595	-0.114
Mof_N 	N 	0.14964	0.0599	0.60774	-0.111
Mof_N 	N 	0.2315	0.083	0.6257	-0.243
Mof_H 	H 	0.2566	0.1116	0.5951	0.127
Mof_H 	H 	0.241	0.0338	0.6412	0.141
Mof_N 	N 	0.3758	0.6199	0.66108	-0.151
Mof_C 	C 	0.9617	0.2425	0.037	0.073
Mof_H 	H 	0.9918	0.2372	0.0735	0.008
Mof_C 	C 	0.9042	0.3082	0.0321	-0.145
Mof_H 	H 	0.8967	0.3451	0.065	0.078
Mof_C 	C 	0.8582	0.3186	0.9782	0.074
Mof_C 	C 	0.876	0.2619	0.9302	-0.137
Mof_H 	H 	0.849	0.2673	0.8923	0.075
Mof_C 	C 	0.9338	0.1983	0.9395	0.08
Mof_H 	H 	0.944	0.1612	0.9072	0.011
Mof_C 	C 	0.7915	0.3836	0.9722	0.026
Mof_C 	C 	0.79	0.454	0.0101	-0.089
Mof_H 	H 	0.832	0.4613	0.0396	0.058
Mof_C 	C 	0.7263	0.5139	0.0046	-0.002
Mof_H 	H 	0.7264	0.5613	0.0299	0.025
Mof_C 	C 	0.6633	0.503	0.9619	-0.078
Mof_H 	H 	0.6213	0.5433	0.9581	0.062
Mof_C 	C 	0.6619	0.4327	0.92473	0.025
Mof_C 	C 	0.727	0.3739	0.9291	-0.089
Mof_H 	H 	0.7273	0.3276	0.9029	0.066
Mof_C 	C 	0.5927	0.4235	0.88003	0.09
Mof_C 	C 	0.4974	0.3719	0.81773	0.085
Mof_C 	C 	0.4423	0.3096	0.78761	0.025
Mof_C 	C 	0.4578	0.2788	0.728	-0.089
Mof_H 	H 	0.5042	0.2973	0.7057	0.069
Mof_C 	C 	0.4032	0.2207	0.703	0.011
Mof_H 	H 	0.4121	0.2015	0.663	0.025
Mof_C 	C 	0.3352	0.1904	0.7364	-0.092
Mof_H 	H 	0.3	0.1503	0.7189	0.064
Mof_C 	C 	0.3193	0.2192	0.79579	0.026
Mof_C 	C 	0.3741	0.2798	0.8204	-0.091
Mof_H 	H 	0.3642	0.3004	0.8599	0.06
Mof_C 	C 	0.2469	0.1885	0.8328	0.063
Mof_C 	C 	0.2021	0.115	0.8183	-0.134
Mof_H 	H 	0.2137	0.0858	0.7821	0.077
Mof_C 	C 	0.1405	0.0864	0.8585	0.076
Mof_H 	H 	0.1117	0.0376	0.848	0.013
Mof_C 	C 	0.1585	0.1983	0.9231	0.07
Mof_H 	H 	0.1425	0.2282	0.958	0.009
Mof_C 	C 	0.2203	0.2313	0.8859	-0.134
Mof_H 	H 	0.2448	0.2826	0.896	0.074
Mof_N 	N 	0.9759	0.1868	0.9923	-0.147
Mof_N 	N 	0.5533	0.4876	0.85489	-0.101
Mof_N 	N 	0.4924	0.4548	0.81595	-0.114
Mof_N 	N 	0.5599	0.35036	0.85774	-0.11
Mof_N 	N 	0.583	0.2685	0.8757	-0.242
Mof_H 	H 	0.6116	0.2434	0.8451	0.128
Mof_H 	H 	0.5338	0.259	0.8912	0.142
Mof_N 	N 	0.1199	0.1242	0.91108	-0.15
Mof_C 	C 	0.0383	0.7575	0.537	0.077
Mof_H 	H 	0.0082	0.7628	0.5735	0.007
Mof_C 	C 	0.0958	0.6918	0.5321	-0.137
Mof_H 	H 	0.1033	0.6549	0.565	0.076
Mof_C 	C 	0.1418	0.6814	0.4782	0.066
Mof_C 	C 	0.124	0.7381	0.4302	-0.134
Mof_H 	H 	0.151	0.7327	0.3923	0.074
Mof_C 	C 	0.0662	0.8017	0.4395	0.077
Mof_H 	H 	0.056	0.8388	0.4072	0.012
Mof_C 	C 	0.2085	0.6164	0.4722	0.023
Mof_C 	C 	0.21	0.546	0.5101	-0.086
Mof_H 	H 	0.168	0.5387	0.5396	0.058
Mof_C 	C 	0.2737	0.4861	0.5046	0.01
Mof_H 	H 	0.2736	0.4387	0.5299	0.022
Mof_C 	C 	0.3367	0.497	0.4619	-0.091
Mof_H 	H 	0.3787	0.4567	0.4581	0.065
Mof_C 	C 	0.3381	0.5673	0.42473	0.029
Mof_C 	C 	0.273	0.6261	0.4291	-0.092
Mof_H 	H 	0.2727	0.6724	0.4029	0.067
Mof_C 	C 	0.4073	0.5765	0.38003	0.088
Mof_C 	C 	0.5026	0.6281	0.31773	0.085
Mof_C 	C 	0.5577	0.6904	0.28761	0.025
Mof_C 	C 	0.5422	0.7212	0.228	-0.089
Mof_H 	H 	0.4958	0.7027	0.2057	0.069
Mof_C 	C 	0.5968	0.7793	0.203	0.011
Mof_H 	H 	0.5879	0.7985	0.163	0.024
Mof_C 	C 	0.6648	0.8096	0.2364	-0.092
Mof_H 	H 	0.7	0.8497	0.2189	0.064
Mof_C 	C 	0.6807	0.7808	0.29579	0.025
Mof_C 	C 	0.6259	0.7202	0.3204	-0.091
Mof_H 	H 	0.6358	0.6996	0.3599	0.06
Mof_C 	C 	0.7531	0.8115	0.3328	0.063
Mof_C 	C 	0.7979	0.885	0.3183	-0.134
Mof_H 	H 	0.7863	0.9142	0.2821	0.077
Mof_C 	C 	0.8595	0.9136	0.3585	0.076
Mof_H 	H 	0.8883	0.9624	0.348	0.012
Mof_C 	C 	0.8415	0.8017	0.4231	0.07
Mof_H 	H 	0.8575	0.7718	0.458	0.006
Mof_C 	C 	0.7797	0.7687	0.3859	-0.135
Mof_H 	H 	0.7552	0.7174	0.396	0.073
Mof_N 	N 	0.0241	0.8132	0.4923	-0.151
Mof_N 	N 	0.4467	0.5124	0.35489	-0.101
Mof_N 	N 	0.5076	0.5452	0.31595	-0.114
Mof_N 	N 	0.4401	0.64964	0.35774	-0.11
Mof_N 	N 	0.417	0.7315	0.3757	-0.243
Mof_H 	H 	0.3884	0.7566	0.3451	0.127
Mof_H 	H 	0.4662	0.741	0.3912	0.141
Mof_N 	N 	0.8801	0.8758	0.41108	-0.151
Mof_C 	C 	0.7575	0.0383	0.463	0.077
Mof_H 	H 	0.7628	0.0082	0.4265	0.007
Mof_C 	C 	0.6918	0.0958	0.4679	-0.137
Mof_H 	H 	0.6549	0.1033	0.435	0.076
Mof_C 	C 	0.6814	0.1418	0.5218	0.066
Mof_C 	C 	0.7381	0.124	0.5698	-0.134
Mof_H 	H 	0.7327	0.151	0.6077	0.074
Mof_C 	C 	0.8017	0.0662	0.5605	0.077
Mof_H 	H 	0.8388	0.056	0.5928	0.012
Mof_C 	C 	0.6164	0.2085	0.5278	0.023
Mof_C 	C 	0.546	0.21	0.4899	-0.086
Mof_H 	H 	0.5387	0.168	0.4604	0.058
Mof_C 	C 	0.4861	0.2737	0.4954	0.009
Mof_H 	H 	0.4387	0.2736	0.4701	0.022
Mof_C 	C 	0.497	0.3367	0.5381	-0.091
Mof_H 	H 	0.4567	0.3787	0.5419	0.065
Mof_C 	C 	0.5673	0.3381	0.57527	0.029
Mof_C 	C 	0.6261	0.273	0.5709	-0.092
Mof_H 	H 	0.6724	0.2727	0.5971	0.067
Mof_C 	C 	0.5765	0.4073	0.61997	0.088
Mof_C 	C 	0.6281	0.5026	0.68227	0.085
Mof_C 	C 	0.6904	0.5577	0.71239	0.025
Mof_C 	C 	0.7212	0.5422	0.772	-0.089
Mof_H 	H 	0.7027	0.4958	0.7943	0.069
Mof_C 	C 	0.7793	0.5968	0.797	0.011
Mof_H 	H 	0.7985	0.5879	0.837	0.026
Mof_C 	C 	0.8096	0.6648	0.7636	-0.091
Mof_H 	H 	0.8497	0.7	0.7811	0.064
Mof_C 	C 	0.7808	0.6807	0.70421	0.025
Mof_C 	C 	0.7202	0.6259	0.6796	-0.09
Mof_H 	H 	0.6996	0.6358	0.6401	0.06
Mof_C 	C 	0.8115	0.7531	0.6672	0.063
Mof_C 	C 	0.885	0.7979	0.6817	-0.134
Mof_H 	H 	0.9142	0.7863	0.7179	0.077
Mof_C 	C 	0.9136	0.8595	0.6415	0.076
Mof_H 	H 	0.9624	0.8883	0.652	0.012
Mof_C 	C 	0.8017	0.8415	0.5769	0.07
Mof_H 	H 	0.7718	0.8575	0.542	0.006
Mof_C 	C 	0.7687	0.7797	0.6141	-0.135
Mof_H 	H 	0.7174	0.7552	0.604	0.073
Mof_N 	N 	0.8132	0.0241	0.5077	-0.151
Mof_N 	N 	0.5124	0.4467	0.64511	-0.101
Mof_N 	N 	0.5452	0.5076	0.68405	-0.114
Mof_N 	N 	0.64964	0.4401	0.64226	-0.11
Mof_N 	N 	0.7315	0.417	0.6243	-0.243
Mof_H 	H 	0.7566	0.3884	0.6549	0.127
Mof_H 	H 	0.741	0.4662	0.6088	0.141
Mof_N 	N 	0.8758	0.8801	0.58892	-0.151
Mof_C 	C 	0.2425	0.9617	0.963	0.08
Mof_H 	H 	0.2372	0.9918	0.9265	0.007
Mof_C 	C 	0.3082	0.9042	0.9679	-0.129
Mof_H 	H 	0.3451	0.8967	0.935	0.074
Mof_C 	C 	0.3186	0.8582	0.0218	0.059
Mof_C 	C 	0.2619	0.876	0.0698	-0.132
Mof_H 	H 	0.2673	0.849	0.1077	0.073
Mof_C 	C 	0.1983	0.9338	0.0605	0.075
Mof_H 	H 	0.1612	0.944	0.0928	0.013
Mof_C 	C 	0.3836	0.7915	0.0278	0.021
Mof_C 	C 	0.454	0.79	0.9899	-0.084
Mof_H 	H 	0.4613	0.832	0.9604	0.059
Mof_C 	C 	0.5139	0.7263	0.9954	0.021
Mof_H 	H 	0.5613	0.7264	0.9701	0.02
Mof_C 	C 	0.503	0.6633	0.0381	-0.104
Mof_H 	H 	0.5433	0.6213	0.0419	0.068
Mof_C 	C 	0.4327	0.6619	0.07527	0.032
Mof_C 	C 	0.3739	0.727	0.0709	-0.095
Mof_H 	H 	0.3276	0.7273	0.0971	0.067
Mof_C 	C 	0.4235	0.5927	0.11997	0.086
Mof_C 	C 	0.3719	0.4974	0.18227	0.085
Mof_C 	C 	0.3096	0.4423	0.21239	0.025
Mof_C 	C 	0.2788	0.4578	0.272	-0.089
Mof_H 	H 	0.2973	0.5042	0.2943	0.069
Mof_C 	C 	0.2207	0.4032	0.297	0.011
Mof_H 	H 	0.2015	0.4121	0.337	0.025
Mof_C 	C 	0.1904	0.3352	0.2636	-0.091
Mof_H 	H 	0.1503	0.3	0.2811	0.064
Mof_C 	C 	0.2192	0.3193	0.20421	0.025
Mof_C 	C 	0.2798	0.3741	0.1796	-0.09
Mof_H 	H 	0.3004	0.3642	0.1401	0.059
Mof_C 	C 	0.1885	0.2469	0.1672	0.063
Mof_C 	C 	0.115	0.2021	0.1817	-0.134
Mof_H 	H 	0.0858	0.2137	0.2179	0.077
Mof_C 	C 	0.0864	0.1405	0.1415	0.076
Mof_H 	H 	0.0376	0.1117	0.152	0.012
Mof_C 	C 	0.1983	0.1585	0.0769	0.07
Mof_H 	H 	0.2282	0.1425	0.042	0.005
Mof_C 	C 	0.2313	0.2203	0.1141	-0.136
Mof_H 	H 	0.2826	0.2448	0.104	0.073
Mof_N 	N 	0.1868	0.9759	0.0077	-0.153
Mof_N 	N 	0.4876	0.5533	0.14511	-0.101
Mof_N 	N 	0.4548	0.4924	0.18405	-0.114
Mof_N 	N 	0.35036	0.5599	0.14226	-0.11
Mof_N 	N 	0.2685	0.583	0.1243	-0.243
Mof_H 	H 	0.2434	0.6116	0.1549	0.127
Mof_H 	H 	0.259	0.5338	0.1088	0.14
Mof_N 	N 	0.1242	0.1199	0.08892	-0.152
Mof_C 	C 	0.5383	0.7425	0.713	0.077
Mof_H 	H 	0.5082	0.7372	0.6765	0.007
Mof_C 	C 	0.5958	0.8082	0.7179	-0.137
Mof_H 	H 	0.6033	0.8451	0.685	0.076
Mof_C 	C 	0.6418	0.8186	0.7718	0.066
Mof_C 	C 	0.624	0.7619	0.8198	-0.135
Mof_H 	H 	0.651	0.7673	0.8577	0.074
Mof_C 	C 	0.5662	0.6983	0.8105	0.077
Mof_H 	H 	0.556	0.6612	0.8428	0.012
Mof_C 	C 	0.7085	0.8836	0.7778	0.023
Mof_C 	C 	0.71	0.954	0.7399	-0.087
Mof_H 	H 	0.668	0.9613	0.7104	0.059
Mof_C 	C 	0.7737	0.0139	0.7454	0.01
Mof_H 	H 	0.7736	0.0613	0.7201	0.022
Mof_C 	C 	0.8367	0.003	0.7881	-0.09
Mof_H 	H 	0.8787	0.0433	0.7919	0.065
Mof_C 	C 	0.8381	0.9327	0.82527	0.027
Mof_C 	C 	0.773	0.8739	0.8209	-0.091
Mof_H 	H 	0.7727	0.8276	0.8471	0.067
Mof_C 	C 	0.9073	0.9235	0.86997	0.089
Mof_C 	C 	0.0026	0.8719	0.93227	0.083
Mof_C 	C 	0.0577	0.8096	0.96239	0.041
Mof_C 	C 	0.0422	0.7788	0.022	-0.108
Mof_H 	H 	0.9958	0.7973	0.0443	0.074
Mof_C 	C 	0.0968	0.7207	0.047	0.028
Mof_H 	H 	0.0879	0.7015	0.087	0.019
Mof_C 	C 	0.1648	0.6904	0.0136	-0.113
Mof_H 	H 	0.2	0.6503	0.0311	0.07
Mof_C 	C 	0.1807	0.7192	0.95421	0.043
Mof_C 	C 	0.1259	0.7798	0.9296	-0.104
Mof_H 	H 	0.1358	0.8004	0.8901	0.064
Mof_C 	C 	0.2531	0.6885	0.9172	0.057
Mof_C 	C 	0.2979	0.615	0.9317	-0.129
Mof_H 	H 	0.2863	0.5858	0.9679	0.077
Mof_C 	C 	0.3595	0.5864	0.8915	0.074
Mof_H 	H 	0.3883	0.5376	0.902	0.014
Mof_C 	C 	0.3415	0.6983	0.8269	0.068
Mof_H 	H 	0.3575	0.7282	0.792	0.007
Mof_C 	C 	0.2797	0.7313	0.8641	-0.13
Mof_H 	H 	0.2552	0.7826	0.854	0.072
Mof_N 	N 	0.5241	0.6868	0.7577	-0.151
Mof_N 	N 	0.9467	0.9876	0.89511	-0.102
Mof_N 	N 	0.0076	0.9548	0.93405	-0.111
Mof_N 	N 	0.9401	0.85036	0.89226	-0.11
Mof_N 	N 	0.917	0.7685	0.8743	-0.243
Mof_H 	H 	0.8884	0.7434	0.9049	0.128
Mof_H 	H 	0.9662	0.759	0.8588	0.141
Mof_N 	N 	0.3801	0.6242	0.83892	-0.15
Mof_C 	C 	0.4617	0.2575	0.213	0.076
Mof_H 	H 	0.4918	0.2628	0.1765	0.007
Mof_C 	C 	0.4042	0.1918	0.2179	-0.137
Mof_H 	H 	0.3967	0.1549	0.185	0.076
Mof_C 	C 	0.3582	0.1814	0.2718	0.066
Mof_C 	C 	0.376	0.2381	0.3198	-0.134
Mof_H 	H 	0.349	0.2327	0.3577	0.074
Mof_C 	C 	0.4338	0.3017	0.3105	0.077
Mof_H 	H 	0.444	0.3388	0.3428	0.012
Mof_C 	C 	0.2915	0.1164	0.2778	0.023
Mof_C 	C 	0.29	0.046	0.2399	-0.088
Mof_H 	H 	0.332	0.0387	0.2104	0.058
Mof_C 	C 	0.2263	0.9861	0.2454	0.011
Mof_H 	H 	0.2264	0.9387	0.2201	0.022
Mof_C 	C 	0.1633	0.997	0.2881	-0.089
Mof_H 	H 	0.1213	0.9567	0.2919	0.065
Mof_C 	C 	0.1619	0.0673	0.32527	0.027
Mof_C 	C 	0.227	0.1261	0.3209	-0.091
Mof_H 	H 	0.2273	0.1724	0.3471	0.066
Mof_C 	C 	0.0927	0.0765	0.36997	0.088
Mof_C 	C 	0.9974	0.1281	0.43227	0.086
Mof_C 	C 	0.9423	0.1904	0.46239	0.024
Mof_C 	C 	0.9578	0.2212	0.522	-0.088
Mof_H 	H 	0.0042	0.2027	0.5443	0.068
Mof_C 	C 	0.9032	0.2793	0.547	0.01
Mof_H 	H 	0.9121	0.2985	0.587	0.025
Mof_C 	C 	0.8352	0.3096	0.5136	-0.091
Mof_H 	H 	0.8	0.3497	0.5311	0.064
Mof_C 	C 	0.8193	0.2808	0.45421	0.025
Mof_C 	C 	0.8741	0.2202	0.4296	-0.09
Mof_H 	H 	0.8642	0.1996	0.3901	0.06
Mof_C 	C 	0.7469	0.3115	0.4172	0.063
Mof_C 	C 	0.7021	0.385	0.4317	-0.134
Mof_H 	H 	0.7137	0.4142	0.4679	0.077
Mof_C 	C 	0.6405	0.4136	0.3915	0.076
Mof_H 	H 	0.6117	0.4624	0.402	0.012
Mof_C 	C 	0.6585	0.3017	0.3269	0.07
Mof_H 	H 	0.6425	0.2718	0.292	0.006
Mof_C 	C 	0.7203	0.2687	0.3641	-0.135
Mof_H 	H 	0.7448	0.2174	0.354	0.073
Mof_N 	N 	0.4759	0.3132	0.2577	-0.151
Mof_N 	N 	0.0533	0.0124	0.39511	-0.102
Mof_N 	N 	0.9924	0.0452	0.43405	-0.114
Mof_N 	N 	0.0599	0.14964	0.39226	-0.11
Mof_N 	N 	0.083	0.2315	0.3743	-0.243
Mof_H 	H 	0.1116	0.2566	0.4049	0.127
Mof_H 	H 	0.0338	0.241	0.3588	0.141
Mof_N 	N 	0.6199	0.3758	0.33892	-0.151
Mof_Cd	Cd	0.05877	0.05877	-0	0.373
Mof_Cd	Cd	0.94123	0.94123	0.5	0.38
Mof_Cd	Cd	0.44123	0.55877	0.75	0.381
Mof_Cd	Cd	0.55877	0.44123	0.25	0.381
_end
