data_functionalizedCrystal
_audit_creation_method	'EQeq! by Chris Wilmer'
_symmetry_space_group_name_H-M	'P1'
_symmetry_Int_Tables_number	1
_symmetry_cell_setting	triclinic
loop_
_symmetry_equiv_pos_as_xyz
  x,y,z
_cell_length_a	7.6839
_cell_length_b	7.7555
_cell_length_c	13.0195
_cell_angle_alpha	90
_cell_angle_beta	90
_cell_angle_gamma	90
loop_
_atom_site_label
_atom_site_type_symbol
_atom_site_fract_x
_atom_site_fract_y
_atom_site_fract_z
_atom_site_charge
Mof_Co	Co	0.55048	0.49456	0.08481	1.212
Mof_C 	C 	0.4259	0.226	0.2384	0.435
Mof_H 	H 	0.5335	0.1752	0.2262	-0.092
Mof_C 	C 	0.2931	0.7696	0.0262	0.469
Mof_H 	H 	0.3559	0.7744	0.9652	-0.101
Mof_C 	C 	0.3135	0.2682	0.9645	0.436
Mof_H 	H 	0.2463	0.2771	0.0237	-0.095
Mof_O 	O 	0.3929	0.3633	0.19142	-0.369
Mof_O 	O 	0.3271	0.1521	0.29978	-0.358
Mof_O 	O 	0.341	0.6646	0.09035	-0.396
Mof_O 	O 	0.1678	0.8711	0.03503	-0.385
Mof_O 	O 	0.4514	0.3518	0.9622	-0.374
Mof_O 	O 	0.2566	0.1724	0.89391	-0.377
Mof_Co	Co	0.94952	0.50544	0.58481	1.211
Mof_C 	C 	0.0741	0.774	0.7384	0.444
Mof_H 	H 	0.9665	0.8248	0.7262	-0.099
Mof_C 	C 	0.2069	0.2304	0.5262	0.475
Mof_H 	H 	0.1441	0.2256	0.4652	-0.104
Mof_C 	C 	0.1865	0.7318	0.4645	0.441
Mof_H 	H 	0.2537	0.7229	0.5237	-0.098
Mof_O 	O 	0.1071	0.6367	0.69142	-0.371
Mof_O 	O 	0.1729	0.8479	0.79978	-0.36
Mof_O 	O 	0.159	0.3354	0.59035	-0.397
Mof_O 	O 	0.3322	0.1289	0.53503	-0.387
Mof_O 	O 	0.0486	0.6482	0.4622	-0.374
Mof_O 	O 	0.2434	0.8276	0.39391	-0.377
Mof_Co	Co	0.44952	0.99456	0.41519	1.211
Mof_C 	C 	0.5741	0.726	0.2616	0.435
Mof_H 	H 	0.4665	0.6752	0.2738	-0.093
Mof_C 	C 	0.7069	0.2696	0.4738	0.475
Mof_H 	H 	0.6441	0.2744	0.5348	-0.104
Mof_C 	C 	0.6865	0.7682	0.5355	0.441
Mof_H 	H 	0.7537	0.7771	0.4763	-0.1
Mof_O 	O 	0.6071	0.8633	0.30858	-0.372
Mof_O 	O 	0.6729	0.6521	0.20022	-0.361
Mof_O 	O 	0.659	0.1646	0.40965	-0.396
Mof_O 	O 	0.8322	0.3711	0.46497	-0.388
Mof_O 	O 	0.5486	0.8518	0.5378	-0.376
Mof_O 	O 	0.7434	0.6724	0.60609	-0.378
Mof_Co	Co	0.05048	0.00544	0.91519	1.21
Mof_C 	C 	0.9259	0.274	0.7616	0.437
Mof_H 	H 	0.0335	0.3248	0.7738	-0.094
Mof_C 	C 	0.7931	0.7304	0.9738	0.488
Mof_H 	H 	0.8559	0.7256	0.0348	-0.114
Mof_C 	C 	0.8135	0.2318	0.0355	0.439
Mof_H 	H 	0.7463	0.2229	0.9763	-0.097
Mof_O 	O 	0.8929	0.1367	0.80858	-0.368
Mof_O 	O 	0.8271	0.3479	0.70022	-0.36
Mof_O 	O 	0.841	0.8354	0.90965	-0.402
Mof_O 	O 	0.6678	0.6289	0.96497	-0.391
Mof_O 	O 	0.9514	0.1482	0.0378	-0.374
Mof_O 	O 	0.7566	0.3276	0.10609	-0.377
_end
