# CIF file generated by openbabel 3.1.0, see https://openbabel.org
data_I
_chemical_name_common 'image0'
_cell_length_a 9.753
_cell_length_b 12.751
_cell_length_c 14.174
_cell_angle_alpha 90
_cell_angle_beta 109.41
_cell_angle_gamma 90
_space_group_name_H-M_alt 'P 1'
_space_group_name_Hall 'P 1'
loop_
    _symmetry_equiv_pos_as_xyz
    x,y,z
loop_
    _atom_site_label
    _atom_site_type_symbol
    _atom_site_fract_x
    _atom_site_fract_y
    _atom_site_fract_z
    _atom_site_occupancy
    Mn1      Mn       0.55674    0.72422    0.14858    1.000
    O1       O        0.67160    0.58520    0.11730    1.000
    O2       O        0.80340    0.72820    0.14800    1.000
    O3       O        0.35080    0.69210    0.18520    1.000
    O4       O        0.37680    0.56750    0.08610    1.000
    O5       O        0.13110    0.23330    0.12010    1.000
    O6       O        0.90300    0.23950    0.11450    1.000
    C1       C        0.91960    0.56790    0.12900    1.000
    C2       C        0.05020    0.61690    0.13580    1.000
    C3       C        0.16880    0.55730    0.13500    1.000
    C4       C        0.15780    0.44850    0.12890    1.000
    C5       C        0.03000    0.39950    0.12540    1.000
    C6       C        0.90940    0.46030    0.12490    1.000
    C7       C        0.79270    0.63140    0.13070    1.000
    C8       C        0.30720    0.60810    0.13560    1.000
    C9       C        0.01430    0.28410    0.11920    1.000
    O7       O        0.45100    0.88240    0.31120    1.000
    O8       O        0.51340    0.21940    0.00070    1.000
    O9       O        0.52940    0.36670    0.08880    1.000
    C10      C        0.51230    0.09920    0.16800    1.000
    C11      C        0.51110    0.20840    0.16800    1.000
    C12      C        0.51970    0.26970    0.07950    1.000
    H1       H        0.12790    0.15500    0.12340    1.000
    H2       H        0.05840    0.69500    0.14130    1.000
    H3       H        0.24280    0.40570    0.12710    1.000
    H4       H        0.81620    0.42530    0.12170    1.000
    H5       H        0.52180    0.05990    0.10940    1.000
    Mn2      Mn       0.44326    0.72422    0.35142    1.000
    O10      O        0.32840    0.58520    0.38270    1.000
    O11      O        0.19660    0.72820    0.35200    1.000
    O12      O        0.64920    0.69210    0.31480    1.000
    O13      O        0.62320    0.56750    0.41390    1.000
    O14      O        0.86890    0.23330    0.37990    1.000
    O15      O        0.09700    0.23950    0.38550    1.000
    C13      C        0.08040    0.56790    0.37100    1.000
    C14      C        0.94980    0.61690    0.36420    1.000
    C15      C        0.83120    0.55730    0.36500    1.000
    C16      C        0.84220    0.44850    0.37110    1.000
    C17      C        0.97000    0.39950    0.37460    1.000
    C18      C        0.09060    0.46030    0.37510    1.000
    C19      C        0.20730    0.63140    0.36930    1.000
    C20      C        0.69280    0.60810    0.36440    1.000
    C21      C        0.98570    0.28410    0.38080    1.000
    O16      O        0.54900    0.88240    0.18880    1.000
    O17      O        0.48660    0.21940    0.49930    1.000
    O18      O        0.47060    0.36670    0.41120    1.000
    C22      C        0.48770    0.09920    0.33200    1.000
    C23      C        0.48890    0.20840    0.33200    1.000
    C24      C        0.48030    0.26970    0.42050    1.000
    H6       H        0.87210    0.15500    0.37660    1.000
    H7       H        0.94160    0.69500    0.35870    1.000
    H8       H        0.75720    0.40570    0.37290    1.000
    H9       H        0.18380    0.42530    0.37830    1.000
    H10      H        0.47820    0.05990    0.39060    1.000
    Mn3      Mn       0.44326    0.27578    0.85142    1.000
    O19      O        0.32840    0.41480    0.88270    1.000
    O20      O        0.19660    0.27180    0.85200    1.000
    O21      O        0.64920    0.30790    0.81480    1.000
    O22      O        0.62320    0.43250    0.91390    1.000
    O23      O        0.86890    0.76670    0.87990    1.000
    O24      O        0.09700    0.76050    0.88550    1.000
    C25      C        0.08040    0.43210    0.87100    1.000
    C26      C        0.94980    0.38310    0.86420    1.000
    C27      C        0.83120    0.44270    0.86500    1.000
    C28      C        0.84220    0.55150    0.87110    1.000
    C29      C        0.97000    0.60050    0.87460    1.000
    C30      C        0.09060    0.53970    0.87510    1.000
    C31      C        0.20730    0.36860    0.86930    1.000
    C32      C        0.69280    0.39190    0.86440    1.000
    C33      C        0.98570    0.71590    0.88080    1.000
    O25      O        0.54900    0.11760    0.68880    1.000
    O26      O        0.48660    0.78060    0.99930    1.000
    O27      O        0.47060    0.63330    0.91120    1.000
    C34      C        0.48770    0.90080    0.83200    1.000
    C35      C        0.48890    0.79160    0.83200    1.000
    C36      C        0.48030    0.73030    0.92050    1.000
    H11      H        0.87210    0.84500    0.87660    1.000
    H12      H        0.94160    0.30500    0.85870    1.000
    H13      H        0.75720    0.59430    0.87290    1.000
    H14      H        0.18380    0.57470    0.87830    1.000
    H15      H        0.47820    0.94010    0.89060    1.000
    Mn4      Mn       0.55674    0.27578    0.64858    1.000
    O28      O        0.67160    0.41480    0.61730    1.000
    O29      O        0.80340    0.27180    0.64800    1.000
    O30      O        0.35080    0.30790    0.68520    1.000
    O31      O        0.37680    0.43250    0.58610    1.000
    O32      O        0.13110    0.76670    0.62010    1.000
    O33      O        0.90300    0.76050    0.61450    1.000
    C37      C        0.91960    0.43210    0.62900    1.000
    C38      C        0.05020    0.38310    0.63580    1.000
    C39      C        0.16880    0.44270    0.63500    1.000
    C40      C        0.15780    0.55150    0.62890    1.000
    C41      C        0.03000    0.60050    0.62540    1.000
    C42      C        0.90940    0.53970    0.62490    1.000
    C43      C        0.79270    0.36860    0.63070    1.000
    C44      C        0.30720    0.39190    0.63560    1.000
    C45      C        0.01430    0.71590    0.61920    1.000
    O34      O        0.45100    0.11760    0.81120    1.000
    O35      O        0.51340    0.78060    0.50070    1.000
    O36      O        0.52940    0.63330    0.58880    1.000
    C46      C        0.51230    0.90080    0.66800    1.000
    C47      C        0.51110    0.79160    0.66800    1.000
    C48      C        0.51970    0.73030    0.57950    1.000
    H16      H        0.12790    0.84500    0.62340    1.000
    H17      H        0.05840    0.30500    0.64130    1.000
    H18      H        0.24280    0.59430    0.62710    1.000
    H19      H        0.81620    0.57470    0.62170    1.000
    H20      H        0.52180    0.94010    0.60940    1.000
    Mn5      Mn       0.50000    0.50000    0.00000    1.000
    Mn6      Mn       0.50000    0.50000    0.50000    1.000
    C49      C        0.50000    0.04510    0.25000    1.000
    C50      C        0.50000    0.26170    0.25000    1.000
    C51      C        0.50000    0.92780    0.25000    1.000
    H21      H        0.50000    0.34020    0.25000    1.000
    C52      C        0.50000    0.95490    0.75000    1.000
    C53      C        0.50000    0.73830    0.75000    1.000
    C54      C        0.50000    0.07220    0.75000    1.000
    H22      H        0.50000    0.65980    0.75000    1.000
