data_functionalizedCrystal
_audit_creation_method	'EQeq! by Chris Wilmer'
_symmetry_space_group_name_H-M	'P1'
_symmetry_Int_Tables_number	1
_symmetry_cell_setting	triclinic
loop_
_symmetry_equiv_pos_as_xyz
  x,y,z
_cell_length_a	15.325
_cell_length_b	16.472
_cell_length_c	17.072
_cell_angle_alpha	70.144
_cell_angle_beta	64.567
_cell_angle_gamma	67.516
loop_
_atom_site_label
_atom_site_type_symbol
_atom_site_fract_x
_atom_site_fract_y
_atom_site_fract_z
_atom_site_charge
Mof_Cu	Cu	0.43081	0.31558	0.12237	0.84
Mof_Cu	Cu	0.14128	0.12045	0.3333	0.835
Mof_Cu	Cu	0.87295	0.06977	0.68996	0.841
Mof_Cu	Cu	0.78916	0.0821	0.91655	0.845
Mof_Cu	Cu	0.64414	0.30704	0.93371	0.879
Mof_Cu	Cu	0.56919	0.68442	0.87763	0.852
Mof_Cu	Cu	0.85872	0.87955	0.6667	0.853
Mof_Cu	Cu	0.12705	0.93023	0.31004	0.868
Mof_Cu	Cu	0.21084	0.9179	0.08345	0.836
Mof_Cu	Cu	0.35586	0.69296	0.06629	0.838
Mof_Cu	Cu	0.5	0.5	-0	0.823
Mof_Cu	Cu	-0	0	-0	0.766
Mof_Cu	Cu	-0	0	0.5	0.804
Mof_H 	H 	0.9976	0.0736	0.3488	0.157
Mof_H 	H 	0.5842	0.3577	0.0699	0.094
Mof_H 	H 	0.4036	0.2272	0.3355	-0.005
Mof_H 	H 	0.2795	0.1362	0.4236	-0.011
Mof_H 	H 	0.0715	0.278	0.4509	0.026
Mof_H 	H 	0.9469	0.262	0.6032	-0.004
Mof_H 	H 	0.2645	0.1848	0.1221	-0.009
Mof_H 	H 	0.7029	0.9043	0.9848	0.035
Mof_H 	H 	0.1651	0.9823	0.8084	0.069
Mof_H 	H 	0.1162	0.0209	0.6765	-0.018
Mof_H 	H 	0.8107	0.3221	0.0161	0.009
Mof_H 	H 	0.9475	0.185	0.0518	-0.012
Mof_H 	H 	0.7166	0.2693	0.6309	-0.003
Mof_H 	H 	0.6249	0.373	0.7348	0.003
Mof_H 	H 	0.5985	0.0014	0.0739	-0.027
Mof_H 	H 	0.4493	0.0999	0.1617	0.011
Mof_H 	H 	0.2379	0.4243	0.2774	0.008
Mof_H 	H 	0.2022	0.5896	0.249	0.001
Mof_H 	H 	0.0024	0.9264	0.6512	0.076
Mof_H 	H 	0.4158	0.6423	0.9301	0.105
Mof_H 	H 	0.5964	0.7728	0.6645	0.005
Mof_H 	H 	0.7205	0.8638	0.5764	0.006
Mof_H 	H 	0.9285	0.722	0.5491	-0.014
Mof_H 	H 	0.0531	0.738	0.3968	0.038
Mof_H 	H 	0.7355	0.8152	0.8779	0.009
Mof_H 	H 	0.2971	0.0957	0.0152	-0.031
Mof_H 	H 	0.8349	0.0177	0.1916	-0.069
Mof_H 	H 	0.8838	0.9791	0.3235	0.015
Mof_H 	H 	0.1893	0.6779	0.9839	-0.012
Mof_H 	H 	0.0525	0.815	0.9482	0.009
Mof_H 	H 	0.2834	0.7307	0.3691	-0.002
Mof_H 	H 	0.3751	0.627	0.2652	-0.002
Mof_H 	H 	0.4015	0.9986	0.9261	0.035
Mof_H 	H 	0.5507	0.9001	0.8383	0.023
Mof_H 	H 	0.7621	0.5757	0.7226	0.02
Mof_H 	H 	0.7978	0.4104	0.751	0.017
Mof_C 	C 	0.3583	0.2189	0.3165	-0.012
Mof_C 	C 	0.2903	0.17	0.3644	-0.001
Mof_C 	C 	0.0422	0.2295	0.4814	-0.09
Mof_C 	C 	0.974	0.2211	0.565	0.09
Mof_C 	C 	0.2496	0.1296	0.1359	-0.01
Mof_C 	C 	0.7333	0.9194	0.9222	0.007
Mof_C 	C 	0.0985	0.0008	0.8079	-0.098
Mof_C 	C 	0.0713	0.0223	0.7357	-0.012
Mof_C 	C 	0.8259	0.2634	0.0076	-0.07
Mof_C 	C 	0.9021	0.188	0.026	0.018
Mof_C 	C 	0.7169	0.2572	0.6893	-0
Mof_C 	C 	0.6666	0.3135	0.7458	-0.004
Mof_C 	C 	0.5844	0.0647	0.0643	-0.004
Mof_C 	C 	0.5028	0.1181	0.1118	-0.019
Mof_C 	C 	0.2734	0.4609	0.2266	-0.012
Mof_C 	C 	0.2551	0.5514	0.2113	0.005
Mof_C 	C 	0.6417	0.7811	0.6835	-0.004
Mof_C 	C 	0.7097	0.83	0.6356	0.007
Mof_C 	C 	0.9578	0.7705	0.5186	0.115
Mof_C 	C 	0.026	0.7789	0.435	-0.112
Mof_C 	C 	0.7504	0.8704	0.8641	0.014
Mof_C 	C 	0.2667	0.0806	0.0778	-0.017
Mof_C 	C 	0.9015	0.9992	0.1921	0.093
Mof_C 	C 	0.9287	0.9777	0.2643	0.029
Mof_C 	C 	0.1741	0.7366	0.9924	0.062
Mof_C 	C 	0.0979	0.812	0.974	-0.016
Mof_C 	C 	0.2831	0.7428	0.3107	-0.001
Mof_C 	C 	0.3334	0.6865	0.2542	-0.008
Mof_C 	C 	0.4156	0.9353	0.9357	0.012
Mof_C 	C 	0.4972	0.8819	0.8882	0.003
Mof_C 	C 	0.7266	0.5391	0.7734	0.001
Mof_C 	C 	0.7449	0.4486	0.7887	0.014
Mof_N 	N 	0.2422	0.1792	0.3119	-0.204
Mof_N 	N 	0.2803	0.2289	0.2323	-0.099
Mof_N 	N 	0.3473	0.2529	0.2361	-0.191
Mof_N 	N 	0.952	0.1423	0.5833	-0.189
Mof_N 	N 	0.0045	0.1068	0.5113	-0.24
Mof_N 	N 	0.0614	0.1595	0.4493	-0.195
Mof_N 	N 	0.2077	0.0838	0.2156	-0.205
Mof_N 	N 	0.8015	0.9881	0.7934	-0.151
Mof_N 	N 	0.7666	0.9926	0.8761	-0.162
Mof_N 	N 	0.9726	0.0453	0.7614	-0.155
Mof_N 	N 	0.9382	0.0382	0.8483	-0.156
Mof_N 	N 	0.0153	0.0105	0.8767	-0.21
Mof_N 	N 	0.8997	0.1213	0.001	-0.223
Mof_N 	N 	0.8257	0.1503	0.97	-0.146
Mof_N 	N 	0.7783	0.2355	0.9751	-0.131
Mof_N 	N 	0.7684	0.1795	0.731	-0.201
Mof_N 	N 	0.7474	0.1902	0.8109	-0.151
Mof_N 	N 	0.6871	0.2686	0.8221	-0.191
Mof_N 	N 	0.6438	0.115	0.0001	-0.218
Mof_N 	N 	0.5944	0.1989	0.0099	-0.186
Mof_N 	N 	0.51	0.2036	0.076	-0.201
Mof_N 	N 	0.3502	0.4337	0.1571	-0.206
Mof_N 	N 	0.3798	0.505	0.1013	-0.211
Mof_N 	N 	0.3224	0.5779	0.1357	-0.206
Mof_N 	N 	0.7578	0.8208	0.6881	-0.196
Mof_N 	N 	0.7197	0.7711	0.7677	-0.087
Mof_N 	N 	0.6527	0.7471	0.7639	-0.187
Mof_N 	N 	0.048	0.8577	0.4167	-0.2
Mof_N 	N 	0.9955	0.8932	0.4887	-0.159
Mof_N 	N 	0.9386	0.8405	0.5507	-0.21
Mof_N 	N 	0.7923	0.9162	0.7844	-0.192
Mof_N 	N 	0.1985	0.0119	0.2066	-0.189
Mof_N 	N 	0.2334	0.0074	0.1239	-0.217
Mof_N 	N 	0.0274	0.9547	0.2386	-0.196
Mof_N 	N 	0.0618	0.9618	0.1517	-0.193
Mof_N 	N 	0.9847	0.9895	0.1233	-0.176
Mof_N 	N 	0.1003	0.8787	0.999	-0.154
Mof_N 	N 	0.1743	0.8497	0.03	-0.207
Mof_N 	N 	0.2217	0.7645	0.0249	-0.215
Mof_N 	N 	0.2316	0.8205	0.269	-0.193
Mof_N 	N 	0.2526	0.8098	0.1891	-0.154
Mof_N 	N 	0.3129	0.7314	0.1779	-0.202
Mof_N 	N 	0.3562	0.885	0.9999	-0.162
Mof_N 	N 	0.4056	0.8011	0.9901	-0.148
Mof_N 	N 	0.49	0.7964	0.924	-0.192
Mof_N 	N 	0.6498	0.5663	0.8429	-0.198
Mof_N 	N 	0.6202	0.495	0.8987	-0.185
Mof_N 	N 	0.6776	0.4221	0.8643	-0.19
Mof_O 	O 	0.0562	0.0379	0.3692	-0.718
Mof_O 	O 	0.5429	0.3679	0.0335	-0.674
Mof_O 	O 	0.9438	0.9621	0.6308	-0.569
Mof_O 	O 	0.4571	0.6321	0.9665	-0.621
_end
