data_functionalizedCrystal
_audit_creation_method	'EQeq! by Chris Wilmer'
_symmetry_space_group_name_H-M	'P1'
_symmetry_Int_Tables_number	1
_symmetry_cell_setting	triclinic
loop_
_symmetry_equiv_pos_as_xyz
  x,y,z
_cell_length_a	9.8743
_cell_length_b	17.7315
_cell_length_c	17.7315
_cell_angle_alpha	63.3644
_cell_angle_beta	79.3024
_cell_angle_gamma	100.698
loop_
_atom_site_label
_atom_site_type_symbol
_atom_site_fract_x
_atom_site_fract_y
_atom_site_fract_z
_atom_site_charge
Mof_Ag	Ag	0.20545	0.24217	0.42517	0.499
Mof_Ag	Ag	0.63062	0.42517	0.33266	0.498
Mof_Ag	Ag	0.96328	0.33266	0.24217	0.497
Mof_Ag	Ag	0.79455	0.75783	0.57483	0.499
Mof_Ag	Ag	0.36938	0.57483	0.66734	0.498
Mof_Ag	Ag	0.03672	0.66734	0.75783	0.497
Mof_H 	H 	0.1152	0.1703	0.1803	0.069
Mof_H 	H 	0.9581	0.1733	0.2205	0.045
Mof_H 	H 	0.8698	0.0169	0.3035	0.041
Mof_H 	H 	0.9391	0.0462	0.2017	0.025
Mof_H 	H 	0.1514	0.0152	0.2289	0.054
Mof_H 	H 	0.0156	0.9287	0.2957	0.047
Mof_H 	H 	0.1751	0.9559	0.3724	0.013
Mof_H 	H 	0.0186	0.9603	0.411	0.026
Mof_H 	H 	0.1945	0.0823	0.392	0.066
Mof_H 	H 	0.267	0.112	0.2903	0.067
Mof_H 	H 	0.9815	0.1092	0.3628	-0.008
Mof_H 	H 	0.381	0.3369	0.2083	0.042
Mof_H 	H 	0.3336	0.2579	0.1887	0.065
Mof_H 	H 	0.593	0.4191	0.9881	0.037
Mof_H 	H 	0.5422	0.3693	0.0943	0.02
Mof_H 	H 	0.2781	0.4899	0.9683	0.04
Mof_H 	H 	0.4264	0.4943	0.9085	0.022
Mof_H 	H 	0.2955	0.1803	0.6494	0.072
Mof_H 	H 	0.1786	0.2205	0.6062	0.049
Mof_H 	H 	0.1733	0.3035	0.6796	0.041
Mof_H 	H 	0.1408	0.2017	0.7521	0.025
Mof_H 	H 	0.3803	0.2289	0.7559	0.054
Mof_H 	H 	0.3113	0.2957	0.7756	0.048
Mof_H 	H 	0.5475	0.3724	0.6717	0.012
Mof_H 	H 	0.4296	0.411	0.6287	0.026
Mof_H 	H 	0.5865	0.392	0.5257	0.067
Mof_H 	H 	0.5573	0.2903	0.5977	0.067
Mof_H 	H 	0.3443	0.3628	0.528	-0.008
Mof_H 	H 	0.5893	0.2083	0.4548	0.042
Mof_H 	H 	0.5223	0.1887	0.5534	0.065
Mof_H 	H 	0.5811	0.9881	0.5928	0.037
Mof_H 	H 	0.6365	0.0943	0.5364	0.02
Mof_H 	H 	0.2464	0.9683	0.5418	0.04
Mof_H 	H 	0.3349	0.9085	0.5972	0.022
Mof_H 	H 	0.9449	0.6494	0.1703	0.072
Mof_H 	H 	0.7848	0.6062	0.1733	0.049
Mof_H 	H 	0.8529	0.6796	0.0169	0.04
Mof_H 	H 	0.8929	0.7521	0.0462	0.024
Mof_H 	H 	0.1362	0.7559	0.0152	0.056
Mof_H 	H 	0.0869	0.7756	0.9287	0.049
Mof_H 	H 	0.2192	0.6717	0.9559	0.012
Mof_H 	H 	0.0583	0.6287	0.9603	0.026
Mof_H 	H 	0.1122	0.5257	0.0823	0.067
Mof_H 	H 	0.155	0.5977	0.112	0.067
Mof_H 	H 	0.8723	0.528	0.1092	-0.007
Mof_H 	H 	0.0441	0.4548	0.3369	0.043
Mof_H 	H 	0.0757	0.5534	0.2579	0.066
Mof_H 	H 	0.1739	0.5928	0.4191	0.037
Mof_H 	H 	0.1729	0.5364	0.3693	0.02
Mof_H 	H 	0.7882	0.5418	0.4899	0.04
Mof_H 	H 	0.9321	0.5972	0.4943	0.023
Mof_H 	H 	0.8848	0.8297	0.8197	0.07
Mof_H 	H 	0.0419	0.8267	0.7795	0.046
Mof_H 	H 	0.1302	0.9831	0.6965	0.042
Mof_H 	H 	0.0609	0.9538	0.7983	0.026
Mof_H 	H 	0.8486	0.9848	0.7711	0.054
Mof_H 	H 	0.9844	0.0713	0.7043	0.047
Mof_H 	H 	0.8249	0.0441	0.6276	0.013
Mof_H 	H 	0.9814	0.0397	0.589	0.026
Mof_H 	H 	0.8055	0.9177	0.608	0.066
Mof_H 	H 	0.733	0.888	0.7097	0.067
Mof_H 	H 	0.0185	0.8908	0.6372	-0.008
Mof_H 	H 	0.619	0.6631	0.7917	0.042
Mof_H 	H 	0.6664	0.7421	0.8113	0.065
Mof_H 	H 	0.407	0.5809	0.0119	0.037
Mof_H 	H 	0.4578	0.6307	0.9057	0.02
Mof_H 	H 	0.7219	0.5101	0.0317	0.04
Mof_H 	H 	0.5736	0.5057	0.0915	0.022
Mof_H 	H 	0.7045	0.8197	0.3506	0.072
Mof_H 	H 	0.8214	0.7795	0.3938	0.049
Mof_H 	H 	0.8267	0.6965	0.3204	0.041
Mof_H 	H 	0.8592	0.7983	0.2479	0.025
Mof_H 	H 	0.6197	0.7711	0.2441	0.054
Mof_H 	H 	0.6887	0.7043	0.2244	0.048
Mof_H 	H 	0.4525	0.6276	0.3283	0.012
Mof_H 	H 	0.5704	0.589	0.3713	0.026
Mof_H 	H 	0.4135	0.608	0.4743	0.067
Mof_H 	H 	0.4427	0.7097	0.4023	0.067
Mof_H 	H 	0.6557	0.6372	0.472	-0.008
Mof_H 	H 	0.4107	0.7917	0.5452	0.042
Mof_H 	H 	0.4777	0.8113	0.4466	0.065
Mof_H 	H 	0.4189	0.0119	0.4072	0.037
Mof_H 	H 	0.3635	0.9057	0.4636	0.02
Mof_H 	H 	0.7536	0.0317	0.4582	0.04
Mof_H 	H 	0.6651	0.0915	0.4028	0.022
Mof_H 	H 	0.0551	0.3506	0.8297	0.072
Mof_H 	H 	0.2152	0.3938	0.8267	0.049
Mof_H 	H 	0.1471	0.3204	0.9831	0.04
Mof_H 	H 	0.1071	0.2479	0.9538	0.024
Mof_H 	H 	0.8638	0.2441	0.9848	0.056
Mof_H 	H 	0.9131	0.2244	0.0713	0.049
Mof_H 	H 	0.7808	0.3283	0.0441	0.012
Mof_H 	H 	0.9417	0.3713	0.0397	0.026
Mof_H 	H 	0.8878	0.4743	0.9177	0.067
Mof_H 	H 	0.845	0.4023	0.888	0.067
Mof_H 	H 	0.1277	0.472	0.8908	-0.007
Mof_H 	H 	0.9559	0.5452	0.6631	0.043
Mof_H 	H 	0.9243	0.4466	0.7421	0.066
Mof_H 	H 	0.8261	0.4072	0.5809	0.037
Mof_H 	H 	0.8271	0.4636	0.6307	0.02
Mof_H 	H 	0.2118	0.4582	0.5101	0.04
Mof_H 	H 	0.0679	0.4028	0.5057	0.023
Mof_C 	C 	0.02887	0.14001	0.2335	-0.153
Mof_C 	C 	0.96161	0.04488	0.25435	-0.041
Mof_C 	C 	0.0632	0.99039	0.27999	-0.122
Mof_C 	C 	0.10562	0.99002	0.35846	-0.023
Mof_C 	C 	0.17407	0.08415	0.33874	-0.171
Mof_C 	C 	0.07227	0.13919	0.31158	0.066
Mof_C 	C 	0.30179	0.30398	0.19731	-0.172
Mof_C 	C 	0.27483	0.36747	0.11308	0.221
Mof_C 	C 	0.54166	0.42133	0.04025	-0.044
Mof_C 	C 	0.38106	0.49413	0.96335	-0.039
Mof_C 	C 	0.26237	0.2335	0.62649	-0.159
Mof_C 	C 	0.21596	0.25435	0.70077	-0.036
Mof_C 	C 	0.34319	0.27999	0.72962	-0.124
Mof_C 	C 	0.46408	0.35846	0.65152	-0.021
Mof_C 	C 	0.51281	0.33874	0.57711	-0.173
Mof_C 	C 	0.38385	0.31158	0.54923	0.067
Mof_C 	C 	0.4991	0.19731	0.49871	-0.172
Mof_C 	C 	0.38791	0.11308	0.51945	0.221
Mof_C 	C 	0.58191	0.04025	0.53842	-0.044
Mof_C 	C 	0.34441	0.96335	0.54252	-0.039
Mof_C 	C 	0.88886	0.62649	0.14001	-0.159
Mof_C 	C 	0.91673	0.70077	0.04488	-0.035
Mof_C 	C 	0.07281	0.72962	0.99039	-0.127
Mof_C 	C 	0.1156	0.65152	0.99002	-0.022
Mof_C 	C 	0.08992	0.57711	0.08415	-0.171
Mof_C 	C 	0.93308	0.54923	0.13919	0.066
Mof_C 	C 	0.99781	0.49871	0.30398	-0.173
Mof_C 	C 	0.90736	0.51945	0.36747	0.221
Mof_C 	C 	0.12033	0.53842	0.42133	-0.043
Mof_C 	C 	0.88693	0.54252	0.49413	-0.039
Mof_C 	C 	0.97113	0.85999	0.7665	-0.153
Mof_C 	C 	0.03839	0.95512	0.74565	-0.041
Mof_C 	C 	0.9368	0.00961	0.72001	-0.122
Mof_C 	C 	0.89438	0.00998	0.64154	-0.023
Mof_C 	C 	0.82593	0.91585	0.66126	-0.171
Mof_C 	C 	0.92773	0.86081	0.68842	0.066
Mof_C 	C 	0.69821	0.69602	0.80269	-0.172
Mof_C 	C 	0.72517	0.63253	0.88692	0.221
Mof_C 	C 	0.45834	0.57867	0.95975	-0.044
Mof_C 	C 	0.61894	0.50587	0.03665	-0.039
Mof_C 	C 	0.73763	0.7665	0.37351	-0.159
Mof_C 	C 	0.78404	0.74565	0.29923	-0.036
Mof_C 	C 	0.65681	0.72001	0.27038	-0.124
Mof_C 	C 	0.53592	0.64154	0.34848	-0.021
Mof_C 	C 	0.48719	0.66126	0.42289	-0.173
Mof_C 	C 	0.61615	0.68842	0.45077	0.067
Mof_C 	C 	0.5009	0.80269	0.50129	-0.172
Mof_C 	C 	0.61209	0.88692	0.48055	0.221
Mof_C 	C 	0.41809	0.95975	0.46158	-0.044
Mof_C 	C 	0.65559	0.03665	0.45748	-0.039
Mof_C 	C 	0.11114	0.37351	0.85999	-0.159
Mof_C 	C 	0.08327	0.29923	0.95512	-0.035
Mof_C 	C 	0.92719	0.27038	0.00961	-0.127
Mof_C 	C 	0.8844	0.34848	0.00998	-0.022
Mof_C 	C 	0.91008	0.42289	0.91585	-0.171
Mof_C 	C 	0.06692	0.45077	0.86081	0.066
Mof_C 	C 	0.00219	0.50129	0.69602	-0.173
Mof_C 	C 	0.09264	0.48055	0.63253	0.221
Mof_C 	C 	0.87967	0.46158	0.57867	-0.043
Mof_C 	C 	0.11307	0.45748	0.50587	-0.039
Mof_S 	S 	0.14257	0.25116	0.29338	-0.246
Mof_S 	S 	0.43595	0.29338	0.45546	-0.247
Mof_S 	S 	0.89141	0.45546	0.25116	-0.247
Mof_S 	S 	0.85743	0.74884	0.70662	-0.246
Mof_S 	S 	0.56405	0.70662	0.54454	-0.247
Mof_S 	S 	0.10859	0.54454	0.74884	-0.247
Mof_N 	N 	0.39173	0.41802	0.04111	-0.141
Mof_N 	N 	0.43284	0.04111	0.54087	-0.141
Mof_N 	N 	0.97371	0.54087	0.41802	-0.141
Mof_N 	N 	0.60827	0.58198	0.95889	-0.141
Mof_N 	N 	0.56716	0.95889	0.45913	-0.141
Mof_N 	N 	0.02629	0.45913	0.58198	-0.141
Mof_O 	O 	0.15269	0.37264	0.10979	-0.309
Mof_O 	O 	0.26248	0.10979	0.51757	-0.309
Mof_O 	O 	0.78005	0.51757	0.37264	-0.309
Mof_O 	O 	0.84731	0.62736	0.89021	-0.309
Mof_O 	O 	0.73752	0.89021	0.48243	-0.309
Mof_O 	O 	0.21995	0.48243	0.62736	-0.309
_end
