data_functionalizedCrystal
_audit_creation_method	'EQeq! by Chris Wilmer'
_symmetry_space_group_name_H-M	'P1'
_symmetry_Int_Tables_number	1
_symmetry_cell_setting	triclinic
loop_
_symmetry_equiv_pos_as_xyz
  x,y,z
_cell_length_a	15.571
_cell_length_b	23.296
_cell_length_c	32.328
_cell_angle_alpha	90
_cell_angle_beta	90
_cell_angle_gamma	90
loop_
_atom_site_label
_atom_site_type_symbol
_atom_site_fract_x
_atom_site_fract_y
_atom_site_fract_z
_atom_site_charge
Mof_Ni	Ni	0.13802	0.76046	0.91389	1.131
Mof_N 	N 	0.1071	0.8361	0.88268	-0.235
Mof_N 	N 	0.272	0.986	0.69652	-0.239
Mof_O 	O 	0.1928	0.80504	0.96158	-0.408
Mof_O 	O 	0.3295	0.81665	0.94229	-0.398
Mof_O 	O 	0.0785	0.9314	0.07709	-0.322
Mof_O 	O 	0.1777	0.96482	0.11977	-0.422
Mof_H 	H 	0.27	0.776	0.8652	0.603
Mof_C 	C 	0.0294	0.8437	0.8658	0.125
Mof_H 	H 	0.9881	0.8146	0.8694	-0.029
Mof_C 	C 	0.0068	0.8912	0.8436	-0.154
Mof_H 	H 	0.9511	0.8942	0.8326	0.069
Mof_C 	C 	0.0653	0.9347	0.83726	0.122
Mof_C 	C 	0.1461	0.9282	0.8545	-0.168
Mof_H 	H 	0.1881	0.9568	0.8512	0.087
Mof_C 	C 	0.1644	0.8782	0.8768	0.092
Mof_H 	H 	0.2195	0.874	0.8883	-0.001
Mof_C 	C 	0.0455	0.9869	0.8109	-0.132
Mof_H 	H 	0.0888	0.0172	0.8158	0.09
Mof_C 	C 	0.0348	0.9764	0.76322	-0.032
Mof_H 	H 	0.0074	0.9386	0.7586	0.044
Mof_C 	C 	0.1144	0.9804	0.7379	0.058
Mof_C 	C 	0.1402	0.029	0.7169	-0.119
Mof_H 	H 	0.1046	0.0616	0.7165	0.079
Mof_C 	C 	0.2181	0.03	0.6967	0.108
Mof_H 	H 	0.2337	0.0634	0.6823	0.006
Mof_C 	C 	0.2475	0.9389	0.7162	0.087
Mof_H 	H 	0.2848	0.9072	0.7161	0.003
Mof_C 	C 	0.1708	0.9337	0.7365	-0.146
Mof_H 	H 	0.1561	0.899	0.7495	0.087
Mof_C 	C 	0.2805	0.8674	0.0009	-0.126
Mof_C 	C 	0.3626	0.8867	0.0106	0.062
Mof_H 	H 	0.4095	0.8735	0.9949	0.017
Mof_C 	C 	0.3768	0.9244	0.042	-0.124
Mof_H 	H 	0.432	0.9397	0.0463	0.066
Mof_C 	C 	0.3091	0.94	0.0677	0.049
Mof_H 	H 	0.3195	0.9634	0.0908	0.021
Mof_C 	C 	0.2264	0.9212	0.0595	-0.124
Mof_C 	C 	0.2121	0.8856	0.0256	0.062
Mof_H 	H 	0.156	0.8737	0.0193	0.038
Mof_C 	C 	0.2669	0.826	0.9661	0.373
Mof_C 	C 	0.1552	0.9401	0.0875	0.364
Mof_Ni	Ni	0.13802	0.26046	0.41389	1.13
Mof_N 	N 	0.1071	0.3361	0.38268	-0.231
Mof_N 	N 	0.272	0.486	0.19652	-0.229
Mof_O 	O 	0.1928	0.30504	0.46158	-0.408
Mof_O 	O 	0.3295	0.31665	0.44229	-0.398
Mof_O 	O 	0.0785	0.4314	0.57709	-0.322
Mof_O 	O 	0.1777	0.46482	0.61977	-0.413
Mof_H 	H 	0.27	0.276	0.3652	0.603
Mof_C 	C 	0.0294	0.3437	0.3658	0.114
Mof_H 	H 	0.9881	0.3146	0.3694	-0.025
Mof_C 	C 	0.0068	0.3912	0.3436	-0.129
Mof_H 	H 	0.9511	0.3942	0.3326	0.06
Mof_C 	C 	0.0653	0.4347	0.33726	0.087
Mof_C 	C 	0.1461	0.4282	0.3545	-0.143
Mof_H 	H 	0.1881	0.4568	0.3512	0.085
Mof_C 	C 	0.1644	0.3782	0.3768	0.082
Mof_H 	H 	0.2195	0.374	0.3883	0.004
Mof_C 	C 	0.0455	0.4869	0.3109	-0.037
Mof_H 	H 	0.0888	0.5172	0.3158	0.045
Mof_C 	C 	0.0348	0.4764	0.26322	-0.062
Mof_H 	H 	0.0074	0.4386	0.2586	0.055
Mof_C 	C 	0.1144	0.4804	0.2379	0.111
Mof_C 	C 	0.1402	0.529	0.2169	-0.166
Mof_H 	H 	0.1046	0.5616	0.2165	0.092
Mof_C 	C 	0.2181	0.53	0.1967	0.1
Mof_H 	H 	0.2337	0.5634	0.1823	0.006
Mof_C 	C 	0.2475	0.4389	0.2162	0.105
Mof_H 	H 	0.2848	0.4072	0.2161	-0.002
Mof_C 	C 	0.1708	0.4337	0.2365	-0.169
Mof_H 	H 	0.1561	0.399	0.2495	0.096
Mof_C 	C 	0.2805	0.3674	0.5009	-0.125
Mof_C 	C 	0.3626	0.3867	0.5106	0.052
Mof_H 	H 	0.4095	0.3735	0.4949	0.026
Mof_C 	C 	0.3768	0.4244	0.542	-0.114
Mof_H 	H 	0.432	0.4397	0.5463	0.068
Mof_C 	C 	0.3091	0.44	0.5677	0.045
Mof_H 	H 	0.3195	0.4634	0.5908	0.027
Mof_C 	C 	0.2264	0.4212	0.5595	-0.118
Mof_C 	C 	0.2121	0.3856	0.5256	0.06
Mof_H 	H 	0.156	0.3737	0.5193	0.038
Mof_C 	C 	0.2669	0.326	0.4661	0.376
Mof_C 	C 	0.1552	0.4401	0.5875	0.362
Mof_Ni	Ni	0.63802	0.76046	0.41389	1.129
Mof_N 	N 	0.6071	0.8361	0.38268	-0.235
Mof_N 	N 	0.772	0.986	0.19652	-0.239
Mof_O 	O 	0.6928	0.80504	0.46158	-0.411
Mof_O 	O 	0.8295	0.81665	0.44229	-0.402
Mof_O 	O 	0.5785	0.9314	0.57709	-0.334
Mof_O 	O 	0.6777	0.96482	0.61977	-0.425
Mof_H 	H 	0.77	0.776	0.3652	0.602
Mof_C 	C 	0.5294	0.8437	0.3658	0.106
Mof_H 	H 	0.4881	0.8146	0.3694	-0.009
Mof_C 	C 	0.5068	0.8912	0.3436	-0.189
Mof_H 	H 	0.4511	0.8942	0.3326	0.093
Mof_C 	C 	0.5653	0.9347	0.33726	0.139
Mof_C 	C 	0.6461	0.9282	0.3545	-0.178
Mof_H 	H 	0.6881	0.9568	0.3512	0.089
Mof_C 	C 	0.6644	0.8782	0.3768	0.097
Mof_H 	H 	0.7195	0.874	0.3883	-0.003
Mof_C 	C 	0.5455	0.9869	0.3109	-0.16
Mof_H 	H 	0.5888	0.0172	0.3158	0.094
Mof_C 	C 	0.5348	0.9764	0.26322	-0.039
Mof_H 	H 	0.5074	0.9386	0.2586	0.039
Mof_C 	C 	0.6144	0.9804	0.2379	0.056
Mof_C 	C 	0.6402	0.029	0.2169	-0.12
Mof_H 	H 	0.6046	0.0616	0.2165	0.074
Mof_C 	C 	0.7181	0.03	0.1967	0.106
Mof_H 	H 	0.7337	0.0634	0.1823	0.005
Mof_C 	C 	0.7475	0.9389	0.2162	0.086
Mof_H 	H 	0.7848	0.9072	0.2161	0.003
Mof_C 	C 	0.6708	0.9337	0.2365	-0.145
Mof_H 	H 	0.6561	0.899	0.2495	0.086
Mof_C 	C 	0.7805	0.8674	0.5009	-0.131
Mof_C 	C 	0.8626	0.8867	0.5106	0.053
Mof_H 	H 	0.9095	0.8735	0.4949	0.018
Mof_C 	C 	0.8768	0.9244	0.542	-0.122
Mof_H 	H 	0.932	0.9397	0.5463	0.059
Mof_C 	C 	0.8091	0.94	0.5677	0.047
Mof_H 	H 	0.8195	0.9634	0.5908	0.019
Mof_C 	C 	0.7264	0.9212	0.5595	-0.127
Mof_C 	C 	0.7121	0.8856	0.5256	0.062
Mof_H 	H 	0.656	0.8737	0.5193	0.034
Mof_C 	C 	0.7669	0.826	0.4661	0.377
Mof_C 	C 	0.6552	0.9401	0.5875	0.365
Mof_Ni	Ni	0.63802	0.26046	0.91389	1.129
Mof_N 	N 	0.6071	0.3361	0.88268	-0.231
Mof_N 	N 	0.772	0.486	0.69652	-0.229
Mof_O 	O 	0.6928	0.30504	0.96158	-0.411
Mof_O 	O 	0.8295	0.31665	0.94229	-0.401
Mof_O 	O 	0.5785	0.4314	0.07709	-0.331
Mof_O 	O 	0.6777	0.46482	0.11977	-0.415
Mof_H 	H 	0.77	0.276	0.8652	0.602
Mof_C 	C 	0.5294	0.3437	0.8658	0.095
Mof_H 	H 	0.4881	0.3146	0.8694	-0.005
Mof_C 	C 	0.5068	0.3912	0.8436	-0.165
Mof_H 	H 	0.4511	0.3942	0.8326	0.085
Mof_C 	C 	0.5653	0.4347	0.83726	0.104
Mof_C 	C 	0.6461	0.4282	0.8545	-0.154
Mof_H 	H 	0.6881	0.4568	0.8512	0.087
Mof_C 	C 	0.6644	0.3782	0.8768	0.086
Mof_H 	H 	0.7195	0.374	0.8883	0.001
Mof_C 	C 	0.5455	0.4869	0.8109	-0.064
Mof_H 	H 	0.5888	0.5172	0.8158	0.049
Mof_C 	C 	0.5348	0.4764	0.76322	-0.069
Mof_H 	H 	0.5074	0.4386	0.7586	0.05
Mof_C 	C 	0.6144	0.4804	0.7379	0.108
Mof_C 	C 	0.6402	0.529	0.7169	-0.167
Mof_H 	H 	0.6046	0.5616	0.7165	0.086
Mof_C 	C 	0.7181	0.53	0.6967	0.098
Mof_H 	H 	0.7337	0.5634	0.6823	0.005
Mof_C 	C 	0.7475	0.4389	0.7162	0.103
Mof_H 	H 	0.7848	0.4072	0.7161	-0.002
Mof_C 	C 	0.6708	0.4337	0.7365	-0.169
Mof_H 	H 	0.6561	0.399	0.7495	0.094
Mof_C 	C 	0.7805	0.3674	0.0009	-0.128
Mof_C 	C 	0.8626	0.3867	0.0106	0.063
Mof_H 	H 	0.9095	0.3735	0.9949	0.014
Mof_C 	C 	0.8768	0.4244	0.042	-0.124
Mof_H 	H 	0.932	0.4397	0.0463	0.066
Mof_C 	C 	0.8091	0.44	0.0677	0.05
Mof_H 	H 	0.8195	0.4634	0.0908	0.024
Mof_C 	C 	0.7264	0.4212	0.0595	-0.123
Mof_C 	C 	0.7121	0.3856	0.0256	0.062
Mof_H 	H 	0.656	0.3737	0.0193	0.036
Mof_C 	C 	0.7669	0.326	0.9661	0.373
Mof_C 	C 	0.6552	0.4401	0.0875	0.364
Mof_Ni	Ni	0.86198	0.23954	0.91389	1.128
Mof_N 	N 	0.8929	0.1639	0.88268	-0.226
Mof_N 	N 	0.728	0.014	0.69652	-0.218
Mof_O 	O 	0.8072	0.19496	0.96158	-0.411
Mof_O 	O 	0.6705	0.18335	0.94229	-0.398
Mof_O 	O 	0.9215	0.0686	0.07709	-0.328
Mof_O 	O 	0.8223	0.03518	0.11977	-0.405
Mof_H 	H 	0.73	0.224	0.8652	0.602
Mof_C 	C 	0.9706	0.1563	0.8658	0.065
Mof_H 	H 	0.0119	0.1854	0.8694	0.019
Mof_C 	C 	0.9932	0.1088	0.8436	-0.177
Mof_H 	H 	0.0489	0.1058	0.8326	0.102
Mof_C 	C 	0.9347	0.0653	0.83726	0.088
Mof_C 	C 	0.8539	0.0718	0.8545	-0.141
Mof_H 	H 	0.8119	0.0432	0.8512	0.09
Mof_C 	C 	0.8356	0.1218	0.8768	0.082
Mof_H 	H 	0.7805	0.126	0.8883	0.005
Mof_C 	C 	0.9545	0.0131	0.8109	0.002
Mof_H 	H 	0.9112	0.9828	0.8158	0.011
Mof_C 	C 	0.9652	0.0236	0.76322	-0.105
Mof_H 	H 	0.9926	0.0614	0.7586	0.055
Mof_C 	C 	0.8856	0.0196	0.7379	0.157
Mof_C 	C 	0.8598	0.971	0.7169	-0.211
Mof_H 	H 	0.8954	0.9384	0.7165	0.094
Mof_C 	C 	0.7819	0.97	0.6967	0.088
Mof_H 	H 	0.7663	0.9366	0.6823	0.005
Mof_C 	C 	0.7525	0.0611	0.7162	0.119
Mof_H 	H 	0.7152	0.0928	0.7161	-0.006
Mof_C 	C 	0.8292	0.0663	0.7365	-0.191
Mof_H 	H 	0.8439	0.101	0.7495	0.101
Mof_C 	C 	0.7195	0.1326	0.0009	-0.125
Mof_C 	C 	0.6374	0.1133	0.0106	0.065
Mof_H 	H 	0.5905	0.1265	0.9949	0.02
Mof_C 	C 	0.6232	0.0756	0.042	-0.12
Mof_H 	H 	0.568	0.0603	0.0463	0.076
Mof_C 	C 	0.6909	0.06	0.0677	0.051
Mof_H 	H 	0.6805	0.0366	0.0908	0.031
Mof_C 	C 	0.7736	0.0788	0.0595	-0.12
Mof_C 	C 	0.7879	0.1144	0.0256	0.062
Mof_H 	H 	0.844	0.1263	0.0193	0.036
Mof_C 	C 	0.7331	0.174	0.9661	0.373
Mof_C 	C 	0.8448	0.0599	0.0875	0.363
Mof_Ni	Ni	0.86198	0.73954	0.41389	1.129
Mof_N 	N 	0.8929	0.6639	0.38268	-0.23
Mof_N 	N 	0.728	0.514	0.19652	-0.228
Mof_O 	O 	0.8072	0.69496	0.46158	-0.411
Mof_O 	O 	0.6705	0.68335	0.44229	-0.399
Mof_O 	O 	0.9215	0.5686	0.57709	-0.336
Mof_O 	O 	0.8223	0.53518	0.61977	-0.416
Mof_H 	H 	0.73	0.724	0.3652	0.602
Mof_C 	C 	0.9706	0.6563	0.3658	0.077
Mof_H 	H 	0.0119	0.6854	0.3694	0.015
Mof_C 	C 	0.9932	0.6088	0.3436	-0.201
Mof_H 	H 	0.0489	0.6058	0.3326	0.11
Mof_C 	C 	0.9347	0.5653	0.33726	0.122
Mof_C 	C 	0.8539	0.5718	0.3545	-0.165
Mof_H 	H 	0.8119	0.5432	0.3512	0.091
Mof_C 	C 	0.8356	0.6218	0.3768	0.092
Mof_H 	H 	0.7805	0.626	0.3883	0
Mof_C 	C 	0.9545	0.5131	0.3109	-0.092
Mof_H 	H 	0.9112	0.4828	0.3158	0.055
Mof_C 	C 	0.9652	0.5236	0.26322	-0.075
Mof_H 	H 	0.9926	0.5614	0.2586	0.044
Mof_C 	C 	0.8856	0.5196	0.2379	0.106
Mof_C 	C 	0.8598	0.471	0.2169	-0.166
Mof_H 	H 	0.8954	0.4384	0.2165	0.081
Mof_C 	C 	0.7819	0.47	0.1967	0.097
Mof_H 	H 	0.7663	0.4366	0.1823	0.004
Mof_C 	C 	0.7525	0.5611	0.2162	0.102
Mof_H 	H 	0.7152	0.5928	0.2161	-0.002
Mof_C 	C 	0.8292	0.5663	0.2365	-0.168
Mof_H 	H 	0.8439	0.601	0.2495	0.093
Mof_C 	C 	0.7195	0.6326	0.5009	-0.128
Mof_C 	C 	0.6374	0.6133	0.5106	0.054
Mof_H 	H 	0.5905	0.6265	0.4949	0.025
Mof_C 	C 	0.6232	0.5756	0.542	-0.118
Mof_H 	H 	0.568	0.5603	0.5463	0.069
Mof_C 	C 	0.6909	0.56	0.5677	0.048
Mof_H 	H 	0.6805	0.5366	0.5908	0.026
Mof_C 	C 	0.7736	0.5788	0.5595	-0.124
Mof_C 	C 	0.7879	0.6144	0.5256	0.062
Mof_H 	H 	0.844	0.6263	0.5193	0.033
Mof_C 	C 	0.7331	0.674	0.4661	0.377
Mof_C 	C 	0.8448	0.5599	0.5875	0.364
Mof_Ni	Ni	0.36198	0.23954	0.41389	1.129
Mof_N 	N 	0.3929	0.1639	0.38268	-0.226
Mof_N 	N 	0.228	0.014	0.19652	-0.218
Mof_O 	O 	0.3072	0.19496	0.46158	-0.409
Mof_O 	O 	0.1705	0.18335	0.44229	-0.395
Mof_O 	O 	0.4215	0.0686	0.57709	-0.323
Mof_O 	O 	0.3223	0.03518	0.61977	-0.402
Mof_H 	H 	0.23	0.224	0.3652	0.603
Mof_C 	C 	0.4706	0.1563	0.3658	0.084
Mof_H 	H 	0.5119	0.1854	0.3694	-0.001
Mof_C 	C 	0.4932	0.1088	0.3436	-0.14
Mof_H 	H 	0.5489	0.1058	0.3326	0.077
Mof_C 	C 	0.4347	0.0653	0.33726	0.07
Mof_C 	C 	0.3539	0.0718	0.3545	-0.13
Mof_H 	H 	0.3119	0.0432	0.3512	0.088
Mof_C 	C 	0.3356	0.1218	0.3768	0.077
Mof_H 	H 	0.2805	0.126	0.3883	0.008
Mof_C 	C 	0.4545	0.0131	0.3109	0.031
Mof_H 	H 	0.4112	0.9828	0.3158	0.005
Mof_C 	C 	0.4652	0.0236	0.26322	-0.099
Mof_H 	H 	0.4926	0.0614	0.2586	0.061
Mof_C 	C 	0.3856	0.0196	0.2379	0.161
Mof_C 	C 	0.3598	0.971	0.2169	-0.213
Mof_H 	H 	0.3954	0.9384	0.2165	0.099
Mof_C 	C 	0.2819	0.97	0.1967	0.09
Mof_H 	H 	0.2663	0.9366	0.1823	0.006
Mof_C 	C 	0.2525	0.0611	0.2162	0.121
Mof_H 	H 	0.2152	0.0928	0.2161	-0.006
Mof_C 	C 	0.3292	0.0663	0.2365	-0.192
Mof_H 	H 	0.3439	0.101	0.2495	0.103
Mof_C 	C 	0.2195	0.1326	0.5009	-0.122
Mof_C 	C 	0.1374	0.1133	0.5106	0.053
Mof_H 	H 	0.0905	0.1265	0.4949	0.032
Mof_C 	C 	0.1232	0.0756	0.542	-0.11
Mof_H 	H 	0.068	0.0603	0.5463	0.077
Mof_C 	C 	0.1909	0.06	0.5677	0.047
Mof_H 	H 	0.1805	0.0366	0.5908	0.035
Mof_C 	C 	0.2736	0.0788	0.5595	-0.115
Mof_C 	C 	0.2879	0.1144	0.5256	0.06
Mof_H 	H 	0.344	0.1263	0.5193	0.038
Mof_C 	C 	0.2331	0.174	0.4661	0.376
Mof_C 	C 	0.3448	0.0599	0.5875	0.361
Mof_Ni	Ni	0.36198	0.73954	0.91389	1.129
Mof_N 	N 	0.3929	0.6639	0.88268	-0.231
Mof_N 	N 	0.228	0.514	0.69652	-0.229
Mof_O 	O 	0.3072	0.69496	0.96158	-0.41
Mof_O 	O 	0.1705	0.68335	0.94229	-0.396
Mof_O 	O 	0.4215	0.5686	0.07709	-0.331
Mof_O 	O 	0.3223	0.53518	0.11977	-0.414
Mof_H 	H 	0.23	0.724	0.8652	0.603
Mof_C 	C 	0.4706	0.6563	0.8658	0.095
Mof_H 	H 	0.5119	0.6854	0.8694	-0.005
Mof_C 	C 	0.4932	0.6088	0.8436	-0.165
Mof_H 	H 	0.5489	0.6058	0.8326	0.085
Mof_C 	C 	0.4347	0.5653	0.83726	0.105
Mof_C 	C 	0.3539	0.5718	0.8545	-0.154
Mof_H 	H 	0.3119	0.5432	0.8512	0.089
Mof_C 	C 	0.3356	0.6218	0.8768	0.087
Mof_H 	H 	0.2805	0.626	0.8883	0.002
Mof_C 	C 	0.4545	0.5131	0.8109	-0.065
Mof_H 	H 	0.4112	0.4828	0.8158	0.05
Mof_C 	C 	0.4652	0.5236	0.76322	-0.068
Mof_H 	H 	0.4926	0.5614	0.7586	0.05
Mof_C 	C 	0.3856	0.5196	0.7379	0.108
Mof_C 	C 	0.3598	0.471	0.7169	-0.166
Mof_H 	H 	0.3954	0.4384	0.7165	0.087
Mof_C 	C 	0.2819	0.47	0.6967	0.098
Mof_H 	H 	0.2663	0.4366	0.6823	0.006
Mof_C 	C 	0.2525	0.5611	0.7162	0.103
Mof_H 	H 	0.2152	0.5928	0.7161	-0.001
Mof_C 	C 	0.3292	0.5663	0.7365	-0.168
Mof_H 	H 	0.3439	0.601	0.7495	0.094
Mof_C 	C 	0.2195	0.6326	0.0009	-0.124
Mof_C 	C 	0.1374	0.6133	0.0106	0.065
Mof_H 	H 	0.0905	0.6265	0.9949	0.023
Mof_C 	C 	0.1232	0.5756	0.042	-0.12
Mof_H 	H 	0.068	0.5603	0.0463	0.076
Mof_C 	C 	0.1909	0.56	0.0677	0.052
Mof_H 	H 	0.1805	0.5366	0.0908	0.027
Mof_C 	C 	0.2736	0.5788	0.0595	-0.122
Mof_C 	C 	0.2879	0.6144	0.0256	0.062
Mof_H 	H 	0.344	0.6263	0.0193	0.037
Mof_C 	C 	0.2331	0.674	0.9661	0.373
Mof_C 	C 	0.3448	0.5599	0.0875	0.364
Mof_Ni	Ni	0.38802	0.48954	0.16389	1.129
Mof_N 	N 	0.3571	0.4139	0.13268	-0.231
Mof_N 	N 	0.522	0.264	0.94652	-0.228
Mof_O 	O 	0.4428	0.44496	0.21158	-0.41
Mof_O 	O 	0.5795	0.43335	0.19229	-0.399
Mof_O 	O 	0.3285	0.3186	0.32709	-0.331
Mof_O 	O 	0.4277	0.28518	0.36977	-0.414
Mof_H 	H 	0.52	0.474	0.1152	0.603
Mof_C 	C 	0.2794	0.4063	0.1158	0.097
Mof_H 	H 	0.2381	0.4354	0.1194	-0.004
Mof_C 	C 	0.2568	0.3588	0.0936	-0.166
Mof_H 	H 	0.2011	0.3558	0.0826	0.088
Mof_C 	C 	0.3153	0.3153	0.08726	0.108
Mof_C 	C 	0.3961	0.3218	0.1045	-0.156
Mof_H 	H 	0.4381	0.2932	0.1012	0.09
Mof_C 	C 	0.4144	0.3718	0.1268	0.088
Mof_H 	H 	0.4695	0.376	0.1383	0.002
Mof_C 	C 	0.2955	0.2631	0.0609	-0.069
Mof_H 	H 	0.3388	0.2328	0.0658	0.052
Mof_C 	C 	0.2848	0.2736	0.01322	-0.057
Mof_H 	H 	0.2574	0.3114	0.0086	0.049
Mof_C 	C 	0.3644	0.2696	0.9879	0.099
Mof_C 	C 	0.3902	0.221	0.9669	-0.161
Mof_H 	H 	0.3546	0.1884	0.9665	0.085
Mof_C 	C 	0.4681	0.22	0.9467	0.095
Mof_H 	H 	0.4837	0.1866	0.9323	0.007
Mof_C 	C 	0.4975	0.3111	0.9662	0.1
Mof_H 	H 	0.5348	0.3428	0.9661	-0.001
Mof_C 	C 	0.4208	0.3163	0.9865	-0.164
Mof_H 	H 	0.4061	0.351	0.9995	0.091
Mof_C 	C 	0.5305	0.3826	0.2509	-0.127
Mof_C 	C 	0.6126	0.3633	0.2606	0.053
Mof_H 	H 	0.6595	0.3765	0.2449	0.025
Mof_C 	C 	0.6268	0.3256	0.292	-0.116
Mof_H 	H 	0.682	0.3103	0.2963	0.067
Mof_C 	C 	0.5591	0.31	0.3177	0.047
Mof_H 	H 	0.5695	0.2866	0.3408	0.027
Mof_C 	C 	0.4764	0.3288	0.3095	-0.121
Mof_C 	C 	0.4621	0.3644	0.2756	0.061
Mof_H 	H 	0.406	0.3763	0.2693	0.036
Mof_C 	C 	0.5169	0.424	0.2161	0.376
Mof_C 	C 	0.4052	0.3099	0.3375	0.363
Mof_Ni	Ni	0.38802	0.98954	0.66389	1.117
Mof_N 	N 	0.3571	0.9139	0.63268	-0.234
Mof_N 	N 	0.522	0.764	0.44652	-0.228
Mof_O 	O 	0.4428	0.94496	0.71158	-0.417
Mof_O 	O 	0.5795	0.93335	0.69229	-0.408
Mof_O 	O 	0.3285	0.8186	0.82709	-0.332
Mof_O 	O 	0.4277	0.78518	0.86977	-0.415
Mof_H 	H 	0.52	0.974	0.6152	0.555
Mof_C 	C 	0.2794	0.9063	0.6158	0.096
Mof_H 	H 	0.2381	0.9354	0.6194	-0.011
Mof_C 	C 	0.2568	0.8588	0.5936	-0.168
Mof_H 	H 	0.2011	0.8558	0.5826	0.086
Mof_C 	C 	0.3153	0.8153	0.58726	0.107
Mof_C 	C 	0.3961	0.8218	0.6045	-0.156
Mof_H 	H 	0.4381	0.7932	0.6012	0.089
Mof_C 	C 	0.4144	0.8718	0.6268	0.087
Mof_H 	H 	0.4695	0.876	0.6383	0.001
Mof_C 	C 	0.2955	0.7631	0.5609	-0.068
Mof_H 	H 	0.3388	0.7328	0.5658	0.051
Mof_C 	C 	0.2848	0.7736	0.51322	-0.062
Mof_H 	H 	0.2574	0.8114	0.5086	0.047
Mof_C 	C 	0.3644	0.7696	0.4879	0.104
Mof_C 	C 	0.3902	0.721	0.4669	-0.164
Mof_H 	H 	0.3546	0.6884	0.4665	0.086
Mof_C 	C 	0.4681	0.72	0.4467	0.097
Mof_H 	H 	0.4837	0.6866	0.4323	0.006
Mof_C 	C 	0.4975	0.8111	0.4662	0.102
Mof_H 	H 	0.5348	0.8428	0.4661	-0.003
Mof_C 	C 	0.4208	0.8163	0.4865	-0.166
Mof_H 	H 	0.4061	0.851	0.4995	0.091
Mof_C 	C 	0.5305	0.8826	0.7509	-0.13
Mof_C 	C 	0.6126	0.8633	0.7606	0.053
Mof_H 	H 	0.6595	0.8765	0.7449	0.023
Mof_C 	C 	0.6268	0.8256	0.792	-0.118
Mof_H 	H 	0.682	0.8103	0.7963	0.067
Mof_C 	C 	0.5591	0.81	0.8177	0.047
Mof_H 	H 	0.5695	0.7866	0.8408	0.026
Mof_C 	C 	0.4764	0.8288	0.8095	-0.123
Mof_C 	C 	0.4621	0.8644	0.7756	0.061
Mof_H 	H 	0.406	0.8763	0.7693	0.034
Mof_C 	C 	0.5169	0.924	0.7161	0.376
Mof_C 	C 	0.4052	0.8099	0.8375	0.363
Mof_Ni	Ni	0.88802	0.48954	0.66389	1.126
Mof_N 	N 	0.8571	0.4139	0.63268	-0.233
Mof_N 	N 	0.022	0.264	0.44652	-0.192
Mof_O 	O 	0.9428	0.44496	0.71158	-0.429
Mof_O 	O 	0.0795	0.43335	0.69229	-0.401
Mof_O 	O 	0.8285	0.3186	0.82709	-0.334
Mof_O 	O 	0.9277	0.28518	0.86977	-0.424
Mof_H 	H 	0.02	0.474	0.6152	0.585
Mof_C 	C 	0.7794	0.4063	0.6158	0.095
Mof_H 	H 	0.7381	0.4354	0.6194	-0.005
Mof_C 	C 	0.7568	0.3588	0.5936	-0.167
Mof_H 	H 	0.7011	0.3558	0.5826	0.086
Mof_C 	C 	0.8153	0.3153	0.58726	0.106
Mof_C 	C 	0.8961	0.3218	0.6045	-0.157
Mof_H 	H 	0.9381	0.2932	0.6012	0.085
Mof_C 	C 	0.9144	0.3718	0.6268	0.087
Mof_H 	H 	0.9695	0.376	0.6383	-0.005
Mof_C 	C 	0.7955	0.2631	0.5609	-0.07
Mof_H 	H 	0.8388	0.2328	0.5658	0.05
Mof_C 	C 	0.7848	0.2736	0.51322	-0.054
Mof_H 	H 	0.7574	0.3114	0.5086	0.045
Mof_C 	C 	0.8644	0.2696	0.4879	0.077
Mof_C 	C 	0.8902	0.221	0.4669	-0.135
Mof_H 	H 	0.8546	0.1884	0.4665	0.076
Mof_C 	C 	0.9681	0.22	0.4467	0.059
Mof_H 	H 	0.9837	0.1866	0.4323	0.012
Mof_C 	C 	0.9975	0.3111	0.4662	0.02
Mof_H 	H 	0.0348	0.3428	0.4661	0.039
Mof_C 	C 	0.9208	0.3163	0.4865	-0.119
Mof_H 	H 	0.9061	0.351	0.4995	0.074
Mof_C 	C 	0.0305	0.3826	0.7509	-0.114
Mof_C 	C 	0.1126	0.3633	0.7606	0.061
Mof_H 	H 	0.1595	0.3765	0.7449	0.024
Mof_C 	C 	0.1268	0.3256	0.792	-0.13
Mof_H 	H 	0.182	0.3103	0.7963	0.074
Mof_C 	C 	0.0591	0.31	0.8177	0.083
Mof_H 	H 	0.0695	0.2866	0.8408	0.019
Mof_C 	C 	0.9764	0.3288	0.8095	-0.147
Mof_C 	C 	0.9621	0.3644	0.7756	0.047
Mof_H 	H 	0.906	0.3763	0.7693	0.038
Mof_C 	C 	0.0169	0.424	0.7161	0.398
Mof_C 	C 	0.9052	0.3099	0.8375	0.37
Mof_Ni	Ni	0.88802	0.98954	0.16389	1.114
Mof_N 	N 	0.8571	0.9139	0.13268	-0.236
Mof_N 	N 	0.022	0.764	0.94652	-0.193
Mof_O 	O 	0.9428	0.94496	0.21158	-0.436
Mof_O 	O 	0.0795	0.93335	0.19229	-0.41
Mof_O 	O 	0.8285	0.8186	0.32709	-0.335
Mof_O 	O 	0.9277	0.78518	0.36977	-0.424
Mof_H 	H 	0.02	0.974	0.1152	0.537
Mof_C 	C 	0.7794	0.9063	0.1158	0.096
Mof_H 	H 	0.7381	0.9354	0.1194	-0.012
Mof_C 	C 	0.7568	0.8588	0.0936	-0.169
Mof_H 	H 	0.7011	0.8558	0.0826	0.085
Mof_C 	C 	0.8153	0.8153	0.08726	0.107
Mof_C 	C 	0.8961	0.8218	0.1045	-0.158
Mof_H 	H 	0.9381	0.7932	0.1012	0.086
Mof_C 	C 	0.9144	0.8718	0.1268	0.087
Mof_H 	H 	0.9695	0.876	0.1383	-0.005
Mof_C 	C 	0.7955	0.7631	0.0609	-0.071
Mof_H 	H 	0.8388	0.7328	0.0658	0.051
Mof_C 	C 	0.7848	0.7736	0.01322	-0.05
Mof_H 	H 	0.7574	0.8114	0.0086	0.044
Mof_C 	C 	0.8644	0.7696	0.9879	0.071
Mof_C 	C 	0.8902	0.721	0.9669	-0.133
Mof_H 	H 	0.8546	0.6884	0.9665	0.072
Mof_C 	C 	0.9681	0.72	0.9467	0.058
Mof_H 	H 	0.9837	0.6866	0.9323	0.011
Mof_C 	C 	0.9975	0.8111	0.9662	0.021
Mof_H 	H 	0.0348	0.8428	0.9661	0.036
Mof_C 	C 	0.9208	0.8163	0.9865	-0.118
Mof_H 	H 	0.9061	0.851	0.9995	0.07
Mof_C 	C 	0.0305	0.8826	0.2509	-0.117
Mof_C 	C 	0.1126	0.8633	0.2606	0.06
Mof_H 	H 	0.1595	0.8765	0.2449	0.022
Mof_C 	C 	0.1268	0.8256	0.292	-0.131
Mof_H 	H 	0.182	0.8103	0.2963	0.074
Mof_C 	C 	0.0591	0.81	0.3177	0.082
Mof_H 	H 	0.0695	0.7866	0.3408	0.019
Mof_C 	C 	0.9764	0.8288	0.3095	-0.148
Mof_C 	C 	0.9621	0.8644	0.2756	0.047
Mof_H 	H 	0.906	0.8763	0.2693	0.036
Mof_C 	C 	0.0169	0.924	0.2161	0.397
Mof_C 	C 	0.9052	0.8099	0.3375	0.369
Mof_Ni	Ni	0.11198	0.01046	0.16389	1.137
Mof_N 	N 	0.1429	0.0861	0.13268	-0.228
Mof_N 	N 	0.978	0.236	0.94652	-0.265
Mof_O 	O 	0.0572	0.05504	0.21158	-0.387
Mof_O 	O 	0.9205	0.06665	0.19229	-0.392
Mof_O 	O 	0.1715	0.1814	0.32709	-0.328
Mof_O 	O 	0.0723	0.21482	0.36977	-0.405
Mof_H 	H 	0.98	0.026	0.1152	0.538
Mof_C 	C 	0.2206	0.0937	0.1158	0.096
Mof_H 	H 	0.2619	0.0646	0.1194	0.002
Mof_C 	C 	0.2432	0.1412	0.0936	-0.162
Mof_H 	H 	0.2989	0.1442	0.0826	0.087
Mof_C 	C 	0.1847	0.1847	0.08726	0.104
Mof_C 	C 	0.1039	0.1782	0.1045	-0.151
Mof_H 	H 	0.0619	0.2068	0.1012	0.092
Mof_C 	C 	0.0856	0.1282	0.1268	0.089
Mof_H 	H 	0.0305	0.124	0.1383	0.009
Mof_C 	C 	0.2045	0.2369	0.0609	-0.059
Mof_H 	H 	0.1612	0.2672	0.0658	0.05
Mof_C 	C 	0.2152	0.2264	0.01322	-0.079
Mof_H 	H 	0.2426	0.1886	0.0086	0.056
Mof_C 	C 	0.1356	0.2304	0.9879	0.134
Mof_C 	C 	0.1098	0.279	0.9669	-0.194
Mof_H 	H 	0.1454	0.3116	0.9665	0.096
Mof_C 	C 	0.0319	0.28	0.9467	0.136
Mof_H 	H 	0.0163	0.3134	0.9323	0
Mof_C 	C 	0.0025	0.1889	0.9662	0.183
Mof_H 	H 	0.9652	0.1572	0.9661	-0.04
Mof_C 	C 	0.0792	0.1837	0.9865	-0.215
Mof_H 	H 	0.0939	0.149	0.9995	0.115
Mof_C 	C 	0.9695	0.1174	0.2509	-0.137
Mof_C 	C 	0.8874	0.1367	0.2606	0.046
Mof_H 	H 	0.8405	0.1235	0.2449	0.029
Mof_C 	C 	0.8732	0.1744	0.292	-0.1
Mof_H 	H 	0.818	0.1897	0.2963	0.062
Mof_C 	C 	0.9409	0.19	0.3177	0.01
Mof_H 	H 	0.9305	0.2134	0.3408	0.035
Mof_C 	C 	0.0236	0.1712	0.3095	-0.093
Mof_C 	C 	0.0379	0.1356	0.2756	0.076
Mof_H 	H 	0.094	0.1237	0.2693	0.035
Mof_C 	C 	0.9831	0.076	0.2161	0.354
Mof_C 	C 	0.0948	0.1901	0.3375	0.357
Mof_Ni	Ni	0.11198	0.51046	0.66389	1.129
Mof_N 	N 	0.1429	0.5861	0.63268	-0.23
Mof_N 	N 	0.978	0.736	0.44652	-0.265
Mof_O 	O 	0.0572	0.55504	0.71158	-0.393
Mof_O 	O 	0.9205	0.56665	0.69229	-0.398
Mof_O 	O 	0.1715	0.6814	0.82709	-0.329
Mof_O 	O 	0.0723	0.71482	0.86977	-0.405
Mof_H 	H 	0.98	0.526	0.6152	0.564
Mof_C 	C 	0.2206	0.5937	0.6158	0.095
Mof_H 	H 	0.2619	0.5646	0.6194	-0.005
Mof_C 	C 	0.2432	0.6412	0.5936	-0.163
Mof_H 	H 	0.2989	0.6442	0.5826	0.084
Mof_C 	C 	0.1847	0.6847	0.58726	0.103
Mof_C 	C 	0.1039	0.6782	0.6045	-0.151
Mof_H 	H 	0.0619	0.7068	0.6012	0.091
Mof_C 	C 	0.0856	0.6282	0.6268	0.087
Mof_H 	H 	0.0305	0.624	0.6383	0.009
Mof_C 	C 	0.2045	0.7369	0.5609	-0.058
Mof_H 	H 	0.1612	0.7672	0.5658	0.049
Mof_C 	C 	0.2152	0.7264	0.51322	-0.083
Mof_H 	H 	0.2426	0.6886	0.5086	0.054
Mof_C 	C 	0.1356	0.7304	0.4879	0.139
Mof_C 	C 	0.1098	0.779	0.4669	-0.196
Mof_H 	H 	0.1454	0.8116	0.4665	0.097
Mof_C 	C 	0.0319	0.78	0.4467	0.137
Mof_H 	H 	0.0163	0.8134	0.4323	-0.002
Mof_C 	C 	0.0025	0.6889	0.4662	0.184
Mof_H 	H 	0.9652	0.6572	0.4661	-0.041
Mof_C 	C 	0.0792	0.6837	0.4865	-0.217
Mof_H 	H 	0.0939	0.649	0.4995	0.115
Mof_C 	C 	0.9695	0.6174	0.7509	-0.14
Mof_C 	C 	0.8874	0.6367	0.7606	0.046
Mof_H 	H 	0.8405	0.6235	0.7449	0.027
Mof_C 	C 	0.8732	0.6744	0.792	-0.103
Mof_H 	H 	0.818	0.6897	0.7963	0.062
Mof_C 	C 	0.9409	0.69	0.8177	0.011
Mof_H 	H 	0.9305	0.7134	0.8408	0.034
Mof_C 	C 	0.0236	0.6712	0.8095	-0.096
Mof_C 	C 	0.0379	0.6356	0.7756	0.076
Mof_H 	H 	0.094	0.6237	0.7693	0.033
Mof_C 	C 	0.9831	0.576	0.7161	0.354
Mof_C 	C 	0.0948	0.6901	0.8375	0.357
Mof_Ni	Ni	0.61198	0.01046	0.66389	1.137
Mof_N 	N 	0.6429	0.0861	0.63268	-0.229
Mof_N 	N 	0.478	0.236	0.44652	-0.229
Mof_O 	O 	0.5572	0.05504	0.71158	-0.405
Mof_O 	O 	0.4205	0.06665	0.69229	-0.392
Mof_O 	O 	0.6715	0.1814	0.82709	-0.331
Mof_O 	O 	0.5723	0.21482	0.86977	-0.414
Mof_H 	H 	0.48	0.026	0.6152	0.578
Mof_C 	C 	0.7206	0.0937	0.6158	0.095
Mof_H 	H 	0.7619	0.0646	0.6194	0.001
Mof_C 	C 	0.7432	0.1412	0.5936	-0.162
Mof_H 	H 	0.7989	0.1442	0.5826	0.084
Mof_C 	C 	0.6847	0.1847	0.58726	0.102
Mof_C 	C 	0.6039	0.1782	0.6045	-0.153
Mof_H 	H 	0.5619	0.2068	0.6012	0.088
Mof_C 	C 	0.5856	0.1282	0.6268	0.087
Mof_H 	H 	0.5305	0.124	0.6383	0.002
Mof_C 	C 	0.7045	0.2369	0.5609	-0.06
Mof_H 	H 	0.6612	0.2672	0.5658	0.049
Mof_C 	C 	0.7152	0.2264	0.51322	-0.076
Mof_H 	H 	0.7426	0.1886	0.5086	0.053
Mof_C 	C 	0.6356	0.2304	0.4879	0.113
Mof_C 	C 	0.6098	0.279	0.4669	-0.169
Mof_H 	H 	0.6454	0.3116	0.4665	0.087
Mof_C 	C 	0.5319	0.28	0.4467	0.1
Mof_H 	H 	0.5163	0.3134	0.4323	0.005
Mof_C 	C 	0.5025	0.1889	0.4662	0.105
Mof_H 	H 	0.4652	0.1572	0.4661	-0
Mof_C 	C 	0.5792	0.1837	0.4865	-0.171
Mof_H 	H 	0.5939	0.149	0.4995	0.098
Mof_C 	C 	0.4695	0.1174	0.7509	-0.124
Mof_C 	C 	0.3874	0.1367	0.7606	0.053
Mof_H 	H 	0.3405	0.1235	0.7449	0.028
Mof_C 	C 	0.3732	0.1744	0.792	-0.114
Mof_H 	H 	0.318	0.1897	0.7963	0.069
Mof_C 	C 	0.4409	0.19	0.8177	0.047
Mof_H 	H 	0.4305	0.2134	0.8408	0.027
Mof_C 	C 	0.5236	0.1712	0.8095	-0.12
Mof_C 	C 	0.5379	0.1356	0.7756	0.061
Mof_H 	H 	0.594	0.1237	0.7693	0.037
Mof_C 	C 	0.4831	0.076	0.7161	0.377
Mof_C 	C 	0.5948	0.1901	0.8375	0.364
Mof_Ni	Ni	0.61198	0.51046	0.16389	1.129
Mof_N 	N 	0.6429	0.5861	0.13268	-0.231
Mof_N 	N 	0.478	0.736	0.94652	-0.228
Mof_O 	O 	0.5572	0.55504	0.21158	-0.41
Mof_O 	O 	0.4205	0.56665	0.19229	-0.398
Mof_O 	O 	0.6715	0.6814	0.32709	-0.332
Mof_O 	O 	0.5723	0.71482	0.36977	-0.414
Mof_H 	H 	0.48	0.526	0.1152	0.603
Mof_C 	C 	0.7206	0.5937	0.1158	0.094
Mof_H 	H 	0.7619	0.5646	0.1194	-0.006
Mof_C 	C 	0.7432	0.6412	0.0936	-0.164
Mof_H 	H 	0.7989	0.6442	0.0826	0.083
Mof_C 	C 	0.6847	0.6847	0.08726	0.103
Mof_C 	C 	0.6039	0.6782	0.1045	-0.153
Mof_H 	H 	0.5619	0.7068	0.1012	0.088
Mof_C 	C 	0.5856	0.6282	0.1268	0.086
Mof_H 	H 	0.5305	0.624	0.1383	0.002
Mof_C 	C 	0.7045	0.7369	0.0609	-0.062
Mof_H 	H 	0.6612	0.7672	0.0658	0.049
Mof_C 	C 	0.7152	0.7264	0.01322	-0.071
Mof_H 	H 	0.7426	0.6886	0.0086	0.052
Mof_C 	C 	0.6356	0.7304	0.9879	0.104
Mof_C 	C 	0.6098	0.779	0.9669	-0.165
Mof_H 	H 	0.6454	0.8116	0.9665	0.083
Mof_C 	C 	0.5319	0.78	0.9467	0.097
Mof_H 	H 	0.5163	0.8134	0.9323	0.004
Mof_C 	C 	0.5025	0.6889	0.9662	0.102
Mof_H 	H 	0.4652	0.6572	0.9661	-0.002
Mof_C 	C 	0.5792	0.6837	0.9865	-0.167
Mof_H 	H 	0.5939	0.649	0.9995	0.092
Mof_C 	C 	0.4695	0.6174	0.2509	-0.127
Mof_C 	C 	0.3874	0.6367	0.2606	0.053
Mof_H 	H 	0.3405	0.6235	0.2449	0.026
Mof_C 	C 	0.3732	0.6744	0.292	-0.116
Mof_H 	H 	0.318	0.6897	0.2963	0.069
Mof_C 	C 	0.4409	0.69	0.3177	0.047
Mof_H 	H 	0.4305	0.7134	0.3408	0.027
Mof_C 	C 	0.5236	0.6712	0.3095	-0.121
Mof_C 	C 	0.5379	0.6356	0.2756	0.061
Mof_H 	H 	0.594	0.6237	0.2693	0.035
Mof_C 	C 	0.4831	0.576	0.2161	0.376
Mof_C 	C 	0.5948	0.6901	0.3375	0.364
Mof_O 	O 	0.25	0.75	0.878	-1.35
Mof_O 	O 	0.25	0.25	0.378	-1.35
Mof_O 	O 	0.75	0.25	0.878	-1.35
Mof_O 	O 	0.75	0.75	0.378	-1.35
Mof_O 	O 	0.5	0.5	0.128	-1.35
Mof_O 	O 	0.5	-8.61061e-33	0.628	-1.274
Mof_O 	O 	9.96401e-34	0	0.128	-1.214
Mof_O 	O 	4.88859e-33	0.5	0.628	-1.291
_end
