data_functionalizedCrystal
_audit_creation_method	'EQeq! by Chris Wilmer'
_symmetry_space_group_name_H-M	'P1'
_symmetry_Int_Tables_number	1
_symmetry_cell_setting	triclinic
loop_
_symmetry_equiv_pos_as_xyz
  x,y,z
_cell_length_a	6.026
_cell_length_b	7.45
_cell_length_c	13.287
_cell_angle_alpha	102.74
_cell_angle_beta	101.46
_cell_angle_gamma	90.72
loop_
_atom_site_label
_atom_site_type_symbol
_atom_site_fract_x
_atom_site_fract_y
_atom_site_fract_z
_atom_site_charge
Mof_Gd	Gd	0.50009	0.50994	0.50002	1.783
Mof_Gd	Gd	0.46433	0.87269	0.14001	1.525
Mof_H 	H 	0.8362	0.7939	0.8632	0.039
Mof_H 	H 	0.1268	0.7272	0.7635	0.021
Mof_H 	H 	0.9964	0.3741	0.2556	-0.006
Mof_H 	H 	0.0144	0.4143	0.0909	0.031
Mof_H 	H 	0.9272	0.0918	0.5502	0.077
Mof_H 	H 	0.9619	0.9389	0.3847	-0.097
Mof_H 	H 	0.7874	0.6191	0.9517	0.238
Mof_H 	H 	0.2478	0.469	0.7419	0.234
Mof_H 	H 	0.284	0.66	0.333	0.269
Mof_H 	H 	0.32	0.465	0.073	0.247
Mof_H 	H 	0.59	0.165	0.561	0.264
Mof_H 	H 	0.7	0.168	0.317	0.285
Mof_C 	C 	0.708	0.612	0.7234	0.299
Mof_C 	C 	0.8625	0.6663	0.8313	-0.029
Mof_C 	C 	0.1104	0.6596	0.8173	0.095
Mof_C 	C 	0.2684	0.7554	0.9211	0.267
Mof_C 	C 	0.3251	0.3026	0.2494	0.374
Mof_C 	C 	0.1368	0.4394	0.2532	0.074
Mof_C 	C 	0.1001	0.5103	0.1488	0.054
Mof_C 	C 	0.9711	0.6882	0.1564	0.25
Mof_C 	C 	0.9879	0.3177	0.4905	0.355
Mof_C 	C 	0.8502	0.146	0.4927	-0.065
Mof_C 	C 	0.8201	0.0013	0.3866	0.26
Mof_C 	C 	0.6342	0.8596	0.3869	0.229
Mof_O 	O 	0.5598	0.4774	0.6985	-0.339
Mof_O 	O 	0.7313	0.7089	0.6603	-0.413
Mof_O 	O 	0.8324	0.5563	0.9016	-0.297
Mof_O 	O 	0.1566	0.4741	0.7806	-0.295
Mof_O 	O 	0.437	0.6739	0.9598	-0.297
Mof_O 	O 	0.2259	0.91	0.9688	-0.307
Mof_O 	O 	0.3001	0.1656	0.1747	-0.381
Mof_O 	O 	0.4933	0.3415	0.3268	-0.441
Mof_O 	O 	0.1965	0.5863	0.3461	-0.459
Mof_O 	O 	0.3154	0.5464	0.1263	-0.474
Mof_O 	O 	0.0778	0.8299	0.1503	-0.374
Mof_O 	O 	0.7663	0.6771	0.1621	-0.417
Mof_O 	O 	0.8894	0.4613	0.4926	-0.439
Mof_O 	O 	0.1942	0.2988	0.4891	-0.387
Mof_O 	O 	0.6321	0.2026	0.5116	-0.456
Mof_O 	O 	0.7632	0.0727	0.296	-0.487
Mof_O 	O 	0.4614	0.8339	0.3123	-0.4
Mof_O 	O 	0.6633	0.7722	0.4611	-0.41
_end
