data_functionalizedCrystal
_audit_creation_method	'EQeq! by Chris Wilmer'
_symmetry_space_group_name_H-M	'P1'
_symmetry_Int_Tables_number	1
_symmetry_cell_setting	triclinic
loop_
_symmetry_equiv_pos_as_xyz
  x,y,z
_cell_length_a	9.1283
_cell_length_b	9.6603
_cell_length_c	11.5482
_cell_angle_alpha	106.829
_cell_angle_beta	93.772
_cell_angle_gamma	108.027
loop_
_atom_site_label
_atom_site_type_symbol
_atom_site_fract_x
_atom_site_fract_y
_atom_site_fract_z
_atom_site_charge
Mof_Gd	Gd	0.27849	0.52876	0.99084	1.656
Mof_O 	O 	0.1309	0.6814	0.0433	-0.511
Mof_O 	O 	0.4228	0.3898	0.0513	-0.519
Mof_O 	O 	0.119	0.4861	0.7894	-0.373
Mof_O 	O 	0.9112	0.7314	0.0795	-0.435
Mof_O 	O 	0.304	0.383	0.7854	-0.392
Mof_O 	O 	0.5729	0.2562	0.0806	-0.405
Mof_C 	C 	0.011	0.335	0.5344	0.082
Mof_H 	H 	0.968	0.40968	0.57615	0.01
Mof_C 	C 	0.96	0.259	0.4107	-0.184
Mof_H 	H 	0.88496	0.28414	0.3676	0.096
Mof_N 	N 	0.092	0.0564	0.1472	-0.041
Mof_C 	C 	0.4445	0.2754	0.077	0.36
Mof_N 	N 	0.1902	0.1907	0.1457	-0.078
Mof_C 	C 	0.0535	0.7717	0.0737	0.429
Mof_C 	C 	0.122	0.304	0.5984	-0.138
Mof_C 	C 	0.3118	0.1548	0.0996	-0.046
Mof_C 	C 	0.2864	0.0008	0.0696	0.012
Mof_H 	H 	0.35348	0.94819	0.03456	0.036
Mof_C 	C 	0.1468	0.9389	0.0999	-0.075
Mof_C 	C 	0.9589	0.0611	0.2121	-0.173
Mof_H 	H 	0.88919	0.95471	0.1998	0.102
Mof_H 	H 	0.89797	0.11304	0.17746	0.092
Mof_C 	C 	0.0151	0.1467	0.3485	0.149
Mof_C 	C 	0.1895	0.3996	0.7308	0.33
Mof_C 	C 	0.182	0.1942	0.5354	0.079
Mof_H 	H 	0.26231	0.17426	0.5776	0.01
Mof_C 	C 	0.128	0.114	0.4124	-0.168
Mof_H 	H 	0.16655	0.03569	0.37113	0.093
Mof_Gd	Gd	0.72151	0.47124	0.00916	1.657
Mof_O 	O 	0.8691	0.3186	0.9567	-0.51
Mof_O 	O 	0.5772	0.6102	0.9487	-0.518
Mof_O 	O 	0.881	0.5139	0.2106	-0.372
Mof_O 	O 	0.0888	0.2686	0.9205	-0.435
Mof_O 	O 	0.696	0.617	0.2146	-0.392
Mof_O 	O 	0.4271	0.7438	0.9194	-0.405
Mof_C 	C 	0.989	0.665	0.4656	0.082
Mof_H 	H 	0.032	0.59032	0.42385	0.01
Mof_C 	C 	0.04	0.741	0.5893	-0.184
Mof_H 	H 	0.11504	0.71586	0.6324	0.096
Mof_N 	N 	0.908	0.9436	0.8528	-0.041
Mof_C 	C 	0.5555	0.7246	0.923	0.36
Mof_N 	N 	0.8098	0.8093	0.8543	-0.078
Mof_C 	C 	0.9465	0.2283	0.9263	0.429
Mof_C 	C 	0.878	0.696	0.4016	-0.138
Mof_C 	C 	0.6882	0.8452	0.9004	-0.046
Mof_C 	C 	0.7136	0.9992	0.9304	0.012
Mof_H 	H 	0.64652	0.05181	0.96544	0.036
Mof_C 	C 	0.8532	0.0611	0.9001	-0.075
Mof_C 	C 	0.0411	0.9389	0.7879	-0.173
Mof_H 	H 	0.11081	0.04529	0.8002	0.102
Mof_H 	H 	0.10203	0.88696	0.82254	0.092
Mof_C 	C 	0.9849	0.8533	0.6515	0.149
Mof_C 	C 	0.8105	0.6004	0.2692	0.33
Mof_C 	C 	0.818	0.8058	0.4646	0.079
Mof_H 	H 	0.73769	0.82574	0.4224	0.01
Mof_C 	C 	0.872	0.886	0.5876	-0.168
Mof_H 	H 	0.83345	0.96431	0.62887	0.093
_end
