data_functionalizedCrystal
_audit_creation_method	'EQeq! by Chris Wilmer'
_symmetry_space_group_name_H-M	'P1'
_symmetry_Int_Tables_number	1
_symmetry_cell_setting	triclinic
loop_
_symmetry_equiv_pos_as_xyz
  x,y,z
_cell_length_a	36.3783
_cell_length_b	14.6755
_cell_length_c	31.2278
_cell_angle_alpha	90
_cell_angle_beta	103.184
_cell_angle_gamma	90
loop_
_atom_site_label
_atom_site_type_symbol
_atom_site_fract_x
_atom_site_fract_y
_atom_site_fract_z
_atom_site_charge
Mof_Zn	Zn	0.07217	0.38512	0.85481	1.166
Mof_Zn	Zn	0.3813	0.39852	0.1747	1.163
Mof_Zn	Zn	0.57414	0.12331	0.35084	1.15
Mof_Zn	Zn	0.67276	0.65024	0.0302	1.151
Mof_Zn	Zn	0.67667	0.35093	0.53488	1.156
Mof_Zn	Zn	0.38091	0.60332	0.6727	1.165
Mof_I 	I 	0.01331	0.36555	0.88424	-0.437
Mof_I 	I 	0.10494	0.26354	0.82067	-0.381
Mof_I 	I 	0.35803	0.39461	0.24522	-0.376
Mof_I 	I 	0.39749	0.25692	0.13697	-0.4
Mof_I 	I 	0.36295	0.61105	0.74596	-0.394
Mof_I 	I 	0.39912	0.73991	0.63175	-0.378
Mof_N 	N 	0.112	0.4469	0.9041	-0.272
Mof_C 	C 	0.144	0.4082	0.9252	0.072
Mof_H 	H 	0.149	0.3473	0.918	-0.013
Mof_C 	C 	0.1699	0.4522	0.9568	-0.129
Mof_H 	H 	0.1921	0.4215	0.9717	0.074
Mof_C 	C 	0.1636	0.542	0.9673	0.058
Mof_C 	C 	0.1291	0.581	0.9476	-0.117
Mof_H 	H 	0.1222	0.6393	0.9564	0.098
Mof_C 	C 	0.1052	0.5326	0.9149	0.071
Mof_H 	H 	0.0828	0.5615	0.8993	-0.002
Mof_N 	N 	0.3406	0.4687	0.1295	-0.273
Mof_C 	C 	0.3343	0.5545	0.1368	0.079
Mof_H 	H 	0.3509	0.5845	0.1604	-0.001
Mof_C 	C 	0.3046	0.6032	0.1119	-0.12
Mof_H 	H 	0.3011	0.6656	0.1181	0.085
Mof_C 	C 	0.2801	0.5595	0.0777	0.046
Mof_C 	C 	0.2876	0.4697	0.0691	-0.124
Mof_H 	H 	0.2721	0.4384	0.0449	0.089
Mof_C 	C 	0.3176	0.4265	0.0959	0.065
Mof_H 	H 	0.3223	0.3643	0.0904	-0.002
Mof_N 	N 	0.1867	0.0123	0.0379	-0.299
Mof_C 	C 	0.2211	0.9802	0.0565	0.121
Mof_H 	H 	0.2402	0.0218	0.0702	-0.039
Mof_C 	C 	0.2298	0.8887	0.0564	-0.151
Mof_H 	H 	0.2547	0.8679	0.0691	0.086
Mof_C 	C 	0.2019	0.8278	0.0376	0.067
Mof_C 	C 	0.1663	0.8606	0.0181	-0.142
Mof_H 	H 	0.147	0.8205	0.0034	0.088
Mof_C 	C 	0.1595	0.9521	0.0204	0.085
Mof_H 	H 	0.1346	0.9739	0.0092	-0.022
Mof_C 	C 	0.1919	0.5954	0.9998	0.094
Mof_N 	N 	0.2233	0.5541	0.0212	-0.141
Mof_C 	C 	0.2464	0.6059	0.0512	0.093
Mof_N 	N 	0.2406	0.6933	0.0583	-0.144
Mof_C 	C 	0.2094	0.729	0.0338	0.092
Mof_N 	N 	0.1834	0.6834	0.0052	-0.137
Mof_N 	N 	0.4258	0.4892	0.1817	-0.278
Mof_C 	C 	0.4411	0.5299	0.219	0.086
Mof_H 	H 	0.4311	0.519	0.2441	-0.01
Mof_C 	C 	0.4713	0.5877	0.2227	-0.133
Mof_H 	H 	0.4819	0.6164	0.25	0.083
Mof_C 	C 	0.486	0.6039	0.1874	0.059
Mof_C 	C 	0.4695	0.565	0.1468	-0.136
Mof_H 	H 	0.4788	0.5761	0.1212	0.088
Mof_C 	C 	0.4391	0.5098	0.1464	0.08
Mof_H 	H 	0.4264	0.4843	0.1191	-0.023
Mof_N 	N 	0.5648	0.0166	0.3059	-0.304
Mof_C 	C 	0.5341	0.9647	0.2985	0.102
Mof_H 	H 	0.5144	0.9799	0.3127	-0.011
Mof_C 	C 	0.5295	0.8897	0.2712	-0.144
Mof_H 	H 	0.5073	0.8534	0.2672	0.082
Mof_C 	C 	0.5573	0.8686	0.25	0.07
Mof_C 	C 	0.5904	0.9207	0.2579	-0.157
Mof_H 	H 	0.6107	0.9064	0.2446	0.088
Mof_C 	C 	0.5919	0.9938	0.286	0.134
Mof_H 	H 	0.614	0.0305	0.2914	-0.051
Mof_N 	N 	0.6403	0.6701	0.0759	-0.283
Mof_C 	C 	0.6537	0.7097	0.1137	0.119
Mof_H 	H 	0.6794	0.7282	0.121	-0.009
Mof_C 	C 	0.6312	0.7253	0.1436	-0.104
Mof_H 	H 	0.6417	0.7539	0.1709	0.08
Mof_C 	C 	0.5943	0.6998	0.1336	0.058
Mof_C 	C 	0.58	0.6606	0.0931	-0.111
Mof_H 	H 	0.5544	0.6422	0.0845	0.081
Mof_C 	C 	0.6041	0.6489	0.0654	0.09
Mof_H 	H 	0.594	0.624	0.0371	0.027
Mof_C 	C 	0.5195	0.6665	0.19	0.089
Mof_N 	N 	0.5247	0.731	0.2207	-0.146
Mof_C 	C 	0.5527	0.7887	0.2194	0.089
Mof_N 	N 	0.5758	0.7833	0.1926	-0.132
Mof_C 	C 	0.5697	0.7129	0.1642	0.099
Mof_N 	N 	0.5405	0.6546	0.1604	-0.142
Mof_N 	N 	0.6149	0.058	0.3982	-0.286
Mof_C 	C 	0.6033	0.9812	0.4152	0.092
Mof_H 	H 	0.5775	0.9634	0.4079	-0.011
Mof_C 	C 	0.63	0.9294	0.4436	-0.136
Mof_H 	H 	0.6235	0.8696	0.4511	0.1
Mof_C 	C 	0.665	0.9613	0.4611	0.092
Mof_C 	C 	0.6754	0.0432	0.4458	-0.163
Mof_H 	H 	0.7	0.0672	0.4569	0.084
Mof_C 	C 	0.6492	0.0901	0.4138	0.086
Mof_H 	H 	0.6562	0.1466	0.4031	-0.021
Mof_N 	N 	0.6868	0.4903	0.5359	-0.274
Mof_C 	C 	0.6627	0.5469	0.5095	0.069
Mof_H 	H 	0.6404	0.5219	0.4915	-0.016
Mof_C 	C 	0.6687	0.6381	0.5074	-0.123
Mof_H 	H 	0.6506	0.6755	0.4885	0.084
Mof_C 	C 	0.7011	0.6759	0.5328	0.055
Mof_C 	C 	0.7266	0.6189	0.5602	-0.121
Mof_H 	H 	0.7493	0.6426	0.5781	0.075
Mof_C 	C 	0.7183	0.5277	0.5609	0.065
Mof_H 	H 	0.7357	0.489	0.58	-0.013
Mof_N 	N 	0.8386	0.0358	0.6301	-0.285
Mof_C 	C 	0.8148	0.0797	0.5962	0.068
Mof_H 	H 	0.819	0.1423	0.5913	-0.004
Mof_C 	C 	0.7851	0.0368	0.5693	-0.146
Mof_H 	H 	0.7688	0.0699	0.5465	0.091
Mof_C 	C 	0.7785	0.9441	0.5751	0.067
Mof_C 	C 	0.8031	0.8987	0.6086	-0.13
Mof_H 	H 	0.8001	0.8353	0.6131	0.085
Mof_C 	C 	0.8324	0.9471	0.6356	0.088
Mof_H 	H 	0.8487	0.9157	0.6591	-0.006
Mof_C 	C 	0.6918	0.908	0.4947	0.095
Mof_N 	N 	0.6829	0.8222	0.5004	-0.134
Mof_C 	C 	0.7088	0.7742	0.5291	0.101
Mof_N 	N 	0.7402	0.8098	0.5542	-0.138
Mof_C 	C 	0.7462	0.8998	0.547	0.079
Mof_N 	N 	0.7231	0.9499	0.5163	-0.134
Mof_N 	N 	0.644	0.3302	0.5801	-0.278
Mof_C 	C 	0.6532	0.2768	0.6157	0.075
Mof_H 	H 	0.6774	0.2492	0.6219	-0.017
Mof_C 	C 	0.6303	0.2593	0.6436	-0.117
Mof_H 	H 	0.6381	0.2192	0.6679	0.083
Mof_C 	C 	0.5949	0.3018	0.6356	0.058
Mof_C 	C 	0.5852	0.3592	0.5985	-0.112
Mof_H 	H 	0.5618	0.3908	0.5923	0.081
Mof_C 	C 	0.6098	0.369	0.5715	0.066
Mof_H 	H 	0.6023	0.4048	0.5456	-0.02
Mof_N 	N 	0.4255	0.5151	0.679	-0.269
Mof_C 	C 	0.4415	0.4768	0.7176	0.062
Mof_H 	H 	0.4316	0.4898	0.7426	-0.013
Mof_C 	C 	0.4723	0.4186	0.7222	-0.112
Mof_H 	H 	0.4829	0.3912	0.7498	0.065
Mof_C 	C 	0.4876	0.4006	0.6861	0.037
Mof_C 	C 	0.4695	0.436	0.6467	-0.111
Mof_H 	H 	0.4781	0.4202	0.6211	0.077
Mof_C 	C 	0.4391	0.4945	0.6428	0.053
Mof_H 	H 	0.4277	0.5204	0.6151	-0.008
Mof_N 	N 	0.5633	0.9928	0.8095	-0.238
Mof_C 	C 	0.5899	0.0097	0.7878	0.007
Mof_H 	H 	0.6114	0.9711	0.7924	0.018
Mof_C 	C 	0.5873	0.0818	0.7584	-0.08
Mof_H 	H 	0.6066	0.092	0.743	0.064
Mof_C 	C 	0.5561	0.1387	0.752	0.024
Mof_C 	C 	0.5283	0.1196	0.7746	-0.094
Mof_H 	H 	0.5062	0.1562	0.7703	0.054
Mof_C 	C 	0.5331	0.0462	0.8034	0.039
Mof_H 	H 	0.5142	0.0339	0.8192	-0.008
Mof_C 	C 	0.5691	0.2886	0.6647	0.111
Mof_N 	N 	0.5408	0.3483	0.6608	-0.135
Mof_C 	C 	0.5194	0.3374	0.6896	0.095
Mof_N 	N 	0.5244	0.2753	0.7216	-0.154
Mof_C 	C 	0.5524	0.216	0.7207	0.095
Mof_N 	N 	0.576	0.2196	0.6934	-0.134
Mof_I 	I 	0.51459	0.1379	0.38278	-0.451
Mof_I 	I 	0.60222	0.24813	0.31525	0.009
Mof_I 	I 	0.7309	0.7441	0.0499	-0.01
Mof_I 	I 	0.62499	0.65997	0.95546	-0.272
Mof_I 	I 	0.7421	0.277	0.56101	-0.21
Mof_I 	I 	0.63035	0.3172	0.46136	-0.186
Mof_I 	I 	0.5279	0.1462	0.3835	0.075
Mof_I 	I 	0.612	0.2485	0.3056	-0.354
Mof_I 	I 	0.7423	0.7418	0.0579	-0.294
Mof_I 	I 	0.6333	0.667	0.9574	-0.095
Mof_I 	I 	0.7374	0.2691	0.561	-0.135
Mof_I 	I 	0.6334	0.3196	0.4598	-0.175
Mof_Zn	Zn	0.57217	0.88512	0.85481	1.167
Mof_Zn	Zn	0.8813	0.89852	0.1747	1.165
Mof_Zn	Zn	0.07414	0.62331	0.35084	1.152
Mof_Zn	Zn	0.17276	0.15024	0.0302	1.151
Mof_Zn	Zn	0.17667	0.85093	0.53488	1.158
Mof_Zn	Zn	0.88091	0.10332	0.6727	1.165
Mof_I 	I 	0.51331	0.86555	0.88424	-0.428
Mof_I 	I 	0.60494	0.76354	0.82067	-0.376
Mof_I 	I 	0.85803	0.89461	0.24522	-0.36
Mof_I 	I 	0.89749	0.75692	0.13697	-0.397
Mof_I 	I 	0.86295	0.11105	0.74596	-0.402
Mof_I 	I 	0.89912	0.23991	0.63175	-0.383
Mof_N 	N 	0.612	0.9469	0.9041	-0.255
Mof_C 	C 	0.644	0.9082	0.9252	0.048
Mof_H 	H 	0.649	0.8473	0.918	-0.01
Mof_C 	C 	0.6699	0.9522	0.9568	-0.094
Mof_H 	H 	0.6921	0.9215	0.9717	0.06
Mof_C 	C 	0.6636	0.042	0.9673	0.018
Mof_C 	C 	0.6291	0.081	0.9476	-0.077
Mof_H 	H 	0.6222	0.1393	0.9564	0.086
Mof_C 	C 	0.6052	0.0326	0.9149	0.037
Mof_H 	H 	0.5828	0.0615	0.8993	0.005
Mof_N 	N 	0.8406	0.9687	0.1295	-0.256
Mof_C 	C 	0.8343	0.0545	0.1368	0.045
Mof_H 	H 	0.8509	0.0845	0.1604	0.007
Mof_C 	C 	0.8046	0.1032	0.1119	-0.092
Mof_H 	H 	0.8011	0.1656	0.1181	0.077
Mof_C 	C 	0.7801	0.0595	0.0777	0.007
Mof_C 	C 	0.7876	0.9697	0.0691	-0.079
Mof_H 	H 	0.7721	0.9384	0.0449	0.081
Mof_C 	C 	0.8176	0.9265	0.0959	0.049
Mof_H 	H 	0.8223	0.8643	0.0904	0.006
Mof_N 	N 	0.6867	0.5123	0.0379	-0.272
Mof_C 	C 	0.7211	0.4802	0.0565	0.061
Mof_H 	H 	0.7402	0.5218	0.0702	-0.008
Mof_C 	C 	0.7298	0.3887	0.0564	-0.114
Mof_H 	H 	0.7547	0.3679	0.0691	0.073
Mof_C 	C 	0.7019	0.3278	0.0376	0.045
Mof_C 	C 	0.6663	0.3606	0.0181	-0.115
Mof_H 	H 	0.647	0.3205	0.0034	0.078
Mof_C 	C 	0.6595	0.4521	0.0204	0.056
Mof_H 	H 	0.6346	0.4739	0.0092	-0.017
Mof_C 	C 	0.6919	0.0954	0.9998	0.122
Mof_N 	N 	0.7233	0.0541	0.0212	-0.144
Mof_C 	C 	0.7464	0.1059	0.0512	0.128
Mof_N 	N 	0.7406	0.1933	0.0583	-0.138
Mof_C 	C 	0.7094	0.229	0.0338	0.124
Mof_N 	N 	0.6834	0.1834	0.0052	-0.135
Mof_N 	N 	0.9258	0.9892	0.1817	-0.251
Mof_C 	C 	0.9411	0.0299	0.219	0.056
Mof_H 	H 	0.9311	0.019	0.2441	-0.007
Mof_C 	C 	0.9713	0.0877	0.2227	-0.111
Mof_H 	H 	0.9819	0.1164	0.25	0.073
Mof_C 	C 	0.986	0.1039	0.1874	0.036
Mof_C 	C 	0.9695	0.065	0.1468	-0.103
Mof_H 	H 	0.9788	0.0761	0.1212	0.074
Mof_C 	C 	0.9391	0.0098	0.1464	0.021
Mof_H 	H 	0.9264	0.9843	0.1191	0.006
Mof_N 	N 	0.0648	0.5166	0.3059	-0.277
Mof_C 	C 	0.0341	0.4647	0.2985	0.075
Mof_H 	H 	0.0144	0.4799	0.3127	-0.009
Mof_C 	C 	0.0295	0.3897	0.2712	-0.127
Mof_H 	H 	0.0073	0.3534	0.2672	0.075
Mof_C 	C 	0.0573	0.3686	0.25	0.056
Mof_C 	C 	0.0904	0.4207	0.2579	-0.131
Mof_H 	H 	0.1107	0.4064	0.2446	0.09
Mof_C 	C 	0.0919	0.4938	0.286	0.078
Mof_H 	H 	0.114	0.5305	0.2914	-0.021
Mof_N 	N 	0.1403	0.1701	0.0759	-0.285
Mof_C 	C 	0.1537	0.2097	0.1137	0.074
Mof_H 	H 	0.1794	0.2282	0.121	-0.023
Mof_C 	C 	0.1312	0.2253	0.1436	-0.118
Mof_H 	H 	0.1417	0.2539	0.1709	0.119
Mof_C 	C 	0.0943	0.1998	0.1336	0.054
Mof_C 	C 	0.08	0.1606	0.0931	-0.123
Mof_H 	H 	0.0544	0.1422	0.0845	0.082
Mof_C 	C 	0.1041	0.1489	0.0654	0.069
Mof_H 	H 	0.094	0.124	0.0371	0.031
Mof_C 	C 	0.0195	0.1665	0.19	0.094
Mof_N 	N 	0.0247	0.231	0.2207	-0.148
Mof_C 	C 	0.0527	0.2887	0.2194	0.093
Mof_N 	N 	0.0758	0.2833	0.1926	-0.122
Mof_C 	C 	0.0697	0.2129	0.1642	0.099
Mof_N 	N 	0.0405	0.1546	0.1604	-0.145
Mof_N 	N 	0.1149	0.558	0.3982	-0.271
Mof_C 	C 	0.1033	0.4812	0.4152	0.061
Mof_H 	H 	0.0775	0.4634	0.4079	-0.006
Mof_C 	C 	0.13	0.4294	0.4436	-0.111
Mof_H 	H 	0.1235	0.3696	0.4511	0.09
Mof_C 	C 	0.165	0.4613	0.4611	0.056
Mof_C 	C 	0.1754	0.5432	0.4458	-0.124
Mof_H 	H 	0.2	0.5672	0.4569	0.075
Mof_C 	C 	0.1492	0.5901	0.4138	0.071
Mof_H 	H 	0.1562	0.6466	0.4031	-0.015
Mof_N 	N 	0.1868	0.9903	0.5359	-0.248
Mof_C 	C 	0.1627	0.0469	0.5095	0.041
Mof_H 	H 	0.1404	0.0219	0.4915	-0.013
Mof_C 	C 	0.1687	0.1381	0.5074	-0.102
Mof_H 	H 	0.1506	0.1755	0.4885	0.076
Mof_C 	C 	0.2011	0.1759	0.5328	0.035
Mof_C 	C 	0.2266	0.1189	0.5602	-0.088
Mof_H 	H 	0.2493	0.1426	0.5781	0.063
Mof_C 	C 	0.2183	0.0277	0.5609	0.008
Mof_H 	H 	0.2357	0.989	0.58	0.017
Mof_N 	N 	0.3386	0.5358	0.6301	-0.27
Mof_C 	C 	0.3148	0.5797	0.5962	0.054
Mof_H 	H 	0.319	0.6423	0.5913	0.002
Mof_C 	C 	0.2851	0.5368	0.5693	-0.11
Mof_H 	H 	0.2688	0.5699	0.5465	0.083
Mof_C 	C 	0.2785	0.4441	0.5751	0.035
Mof_C 	C 	0.3031	0.3987	0.6086	-0.109
Mof_H 	H 	0.3001	0.3353	0.6131	0.078
Mof_C 	C 	0.3324	0.4471	0.6356	0.059
Mof_H 	H 	0.3487	0.4157	0.6591	0.001
Mof_C 	C 	0.1918	0.408	0.4947	0.103
Mof_N 	N 	0.1829	0.3222	0.5004	-0.137
Mof_C 	C 	0.2088	0.2742	0.5291	0.107
Mof_N 	N 	0.2402	0.3098	0.5542	-0.141
Mof_C 	C 	0.2462	0.3998	0.547	0.086
Mof_N 	N 	0.2231	0.4499	0.5163	-0.142
Mof_N 	N 	0.144	0.8302	0.5801	-0.277
Mof_C 	C 	0.1532	0.7768	0.6157	0.077
Mof_H 	H 	0.1774	0.7492	0.6219	-0.014
Mof_C 	C 	0.1303	0.7593	0.6436	-0.116
Mof_H 	H 	0.1381	0.7192	0.6679	0.085
Mof_C 	C 	0.0949	0.8018	0.6356	0.059
Mof_C 	C 	0.0852	0.8592	0.5985	-0.111
Mof_H 	H 	0.0618	0.8908	0.5923	0.083
Mof_C 	C 	0.1098	0.869	0.5715	0.067
Mof_H 	H 	0.1023	0.9048	0.5456	-0.017
Mof_N 	N 	0.9255	0.0151	0.679	-0.294
Mof_C 	C 	0.9415	0.9768	0.7176	0.089
Mof_H 	H 	0.9316	0.9898	0.7426	-0.017
Mof_C 	C 	0.9723	0.9186	0.7222	-0.131
Mof_H 	H 	0.9829	0.8912	0.7498	0.072
Mof_C 	C 	0.9876	0.9006	0.6861	0.058
Mof_C 	C 	0.9695	0.936	0.6467	-0.143
Mof_H 	H 	0.9781	0.9202	0.6211	0.09
Mof_C 	C 	0.9391	0.9945	0.6428	0.109
Mof_H 	H 	0.9277	0.0204	0.6151	-0.037
Mof_N 	N 	0.0633	0.4928	0.8095	-0.266
Mof_C 	C 	0.0899	0.5097	0.7878	0.069
Mof_H 	H 	0.1114	0.4711	0.7924	-0.013
Mof_C 	C 	0.0873	0.5818	0.7584	-0.113
Mof_H 	H 	0.1066	0.592	0.743	0.079
Mof_C 	C 	0.0561	0.6387	0.752	0.046
Mof_C 	C 	0.0283	0.6196	0.7746	-0.114
Mof_H 	H 	0.0062	0.6562	0.7703	0.063
Mof_C 	C 	0.0331	0.5462	0.8034	0.069
Mof_H 	H 	0.0142	0.5339	0.8192	-0.011
Mof_C 	C 	0.0691	0.7886	0.6647	0.112
Mof_N 	N 	0.0408	0.8483	0.6608	-0.133
Mof_C 	C 	0.0194	0.8374	0.6896	0.09
Mof_N 	N 	0.0244	0.7753	0.7216	-0.151
Mof_C 	C 	0.0524	0.716	0.7207	0.09
Mof_N 	N 	0.076	0.7196	0.6934	-0.132
Mof_I 	I 	0.01459	0.6379	0.38278	-0.448
Mof_I 	I 	0.10222	0.74813	0.31525	0.012
Mof_I 	I 	0.2309	0.2441	0.0499	-0.019
Mof_I 	I 	0.12499	0.15997	0.95546	-0.262
Mof_I 	I 	0.2421	0.777	0.56101	-0.207
Mof_I 	I 	0.13035	0.8172	0.46136	-0.184
Mof_I 	I 	0.0279	0.6462	0.3835	0.081
Mof_I 	I 	0.112	0.7485	0.3056	-0.354
Mof_I 	I 	0.2423	0.2418	0.0579	-0.322
Mof_I 	I 	0.1333	0.167	0.9574	-0.094
Mof_I 	I 	0.2374	0.7691	0.561	-0.133
Mof_I 	I 	0.1334	0.8196	0.4598	-0.172
Mof_Zn	Zn	0.92783	0.38512	0.14519	1.167
Mof_Zn	Zn	0.6187	0.39852	0.8253	1.164
Mof_Zn	Zn	0.42586	0.12331	0.64916	1.151
Mof_Zn	Zn	0.32724	0.65024	0.9698	1.152
Mof_Zn	Zn	0.32333	0.35093	0.46512	1.157
Mof_Zn	Zn	0.61909	0.60332	0.3273	1.166
Mof_I 	I 	0.98669	0.36555	0.11576	-0.438
Mof_I 	I 	0.89506	0.26354	0.17933	-0.38
Mof_I 	I 	0.64197	0.39461	0.75478	-0.375
Mof_I 	I 	0.60251	0.25692	0.86303	-0.4
Mof_I 	I 	0.63705	0.61105	0.25404	-0.394
Mof_I 	I 	0.60088	0.73991	0.36825	-0.378
Mof_N 	N 	0.888	0.4469	0.0959	-0.272
Mof_C 	C 	0.856	0.4082	0.0748	0.072
Mof_H 	H 	0.851	0.3473	0.082	-0.013
Mof_C 	C 	0.8301	0.4522	0.0432	-0.129
Mof_H 	H 	0.8079	0.4215	0.0283	0.074
Mof_C 	C 	0.8364	0.542	0.0327	0.058
Mof_C 	C 	0.8709	0.581	0.0524	-0.117
Mof_H 	H 	0.8778	0.6393	0.0436	0.098
Mof_C 	C 	0.8948	0.5326	0.0851	0.071
Mof_H 	H 	0.9172	0.5615	0.1007	-0.002
Mof_N 	N 	0.6594	0.4687	0.8705	-0.273
Mof_C 	C 	0.6657	0.5545	0.8632	0.079
Mof_H 	H 	0.6491	0.5845	0.8396	-0.001
Mof_C 	C 	0.6954	0.6032	0.8881	-0.12
Mof_H 	H 	0.6989	0.6656	0.8819	0.085
Mof_C 	C 	0.7199	0.5595	0.9223	0.046
Mof_C 	C 	0.7124	0.4697	0.9309	-0.124
Mof_H 	H 	0.7279	0.4384	0.9551	0.089
Mof_C 	C 	0.6824	0.4265	0.9041	0.065
Mof_H 	H 	0.6777	0.3643	0.9096	-0.002
Mof_N 	N 	0.8133	0.0123	0.9621	-0.299
Mof_C 	C 	0.7789	0.9802	0.9435	0.121
Mof_H 	H 	0.7598	0.0218	0.9298	-0.039
Mof_C 	C 	0.7702	0.8887	0.9436	-0.151
Mof_H 	H 	0.7453	0.8679	0.9309	0.086
Mof_C 	C 	0.7981	0.8278	0.9624	0.067
Mof_C 	C 	0.8337	0.8606	0.9819	-0.142
Mof_H 	H 	0.853	0.8205	0.9966	0.088
Mof_C 	C 	0.8405	0.9521	0.9796	0.085
Mof_H 	H 	0.8654	0.9739	0.9908	-0.022
Mof_C 	C 	0.8081	0.5954	0.0002	0.094
Mof_N 	N 	0.7767	0.5541	0.9788	-0.141
Mof_C 	C 	0.7536	0.6059	0.9488	0.093
Mof_N 	N 	0.7594	0.6933	0.9417	-0.144
Mof_C 	C 	0.7906	0.729	0.9662	0.092
Mof_N 	N 	0.8166	0.6834	0.9948	-0.137
Mof_N 	N 	0.5742	0.4892	0.8183	-0.278
Mof_C 	C 	0.5589	0.5299	0.781	0.086
Mof_H 	H 	0.5689	0.519	0.7559	-0.01
Mof_C 	C 	0.5287	0.5877	0.7773	-0.133
Mof_H 	H 	0.5181	0.6164	0.75	0.083
Mof_C 	C 	0.514	0.6039	0.8126	0.059
Mof_C 	C 	0.5305	0.565	0.8532	-0.136
Mof_H 	H 	0.5212	0.5761	0.8788	0.088
Mof_C 	C 	0.5609	0.5098	0.8536	0.08
Mof_H 	H 	0.5736	0.4843	0.8809	-0.023
Mof_N 	N 	0.4352	0.0166	0.6941	-0.304
Mof_C 	C 	0.4659	0.9647	0.7015	0.102
Mof_H 	H 	0.4856	0.9799	0.6873	-0.011
Mof_C 	C 	0.4705	0.8897	0.7288	-0.144
Mof_H 	H 	0.4927	0.8534	0.7328	0.082
Mof_C 	C 	0.4427	0.8686	0.75	0.07
Mof_C 	C 	0.4096	0.9207	0.7421	-0.157
Mof_H 	H 	0.3893	0.9064	0.7554	0.088
Mof_C 	C 	0.4081	0.9938	0.714	0.134
Mof_H 	H 	0.386	0.0305	0.7086	-0.051
Mof_N 	N 	0.3597	0.6701	0.9241	-0.283
Mof_C 	C 	0.3463	0.7097	0.8863	0.119
Mof_H 	H 	0.3206	0.7282	0.879	-0.009
Mof_C 	C 	0.3688	0.7253	0.8564	-0.104
Mof_H 	H 	0.3583	0.7539	0.8291	0.08
Mof_C 	C 	0.4057	0.6998	0.8664	0.058
Mof_C 	C 	0.42	0.6606	0.9069	-0.111
Mof_H 	H 	0.4456	0.6422	0.9155	0.081
Mof_C 	C 	0.3959	0.6489	0.9346	0.09
Mof_H 	H 	0.406	0.624	0.9629	0.027
Mof_C 	C 	0.4805	0.6665	0.81	0.089
Mof_N 	N 	0.4753	0.731	0.7793	-0.146
Mof_C 	C 	0.4473	0.7887	0.7806	0.089
Mof_N 	N 	0.4242	0.7833	0.8074	-0.132
Mof_C 	C 	0.4303	0.7129	0.8358	0.099
Mof_N 	N 	0.4595	0.6546	0.8396	-0.142
Mof_N 	N 	0.3851	0.058	0.6018	-0.286
Mof_C 	C 	0.3967	0.9812	0.5848	0.092
Mof_H 	H 	0.4225	0.9634	0.5921	-0.011
Mof_C 	C 	0.37	0.9294	0.5564	-0.136
Mof_H 	H 	0.3765	0.8696	0.5489	0.1
Mof_C 	C 	0.335	0.9613	0.5389	0.092
Mof_C 	C 	0.3246	0.0432	0.5542	-0.163
Mof_H 	H 	0.3	0.0672	0.5431	0.084
Mof_C 	C 	0.3508	0.0901	0.5862	0.086
Mof_H 	H 	0.3438	0.1466	0.5969	-0.021
Mof_N 	N 	0.3132	0.4903	0.4641	-0.274
Mof_C 	C 	0.3373	0.5469	0.4905	0.069
Mof_H 	H 	0.3596	0.5219	0.5085	-0.016
Mof_C 	C 	0.3313	0.6381	0.4926	-0.123
Mof_H 	H 	0.3494	0.6755	0.5115	0.084
Mof_C 	C 	0.2989	0.6759	0.4672	0.055
Mof_C 	C 	0.2734	0.6189	0.4398	-0.121
Mof_H 	H 	0.2507	0.6426	0.4219	0.075
Mof_C 	C 	0.2817	0.5277	0.4391	0.065
Mof_H 	H 	0.2643	0.489	0.42	-0.013
Mof_N 	N 	0.1614	0.0358	0.3699	-0.285
Mof_C 	C 	0.1852	0.0797	0.4038	0.068
Mof_H 	H 	0.181	0.1423	0.4087	-0.004
Mof_C 	C 	0.2149	0.0368	0.4307	-0.146
Mof_H 	H 	0.2312	0.0699	0.4535	0.091
Mof_C 	C 	0.2215	0.9441	0.4249	0.067
Mof_C 	C 	0.1969	0.8987	0.3914	-0.13
Mof_H 	H 	0.1999	0.8353	0.3869	0.085
Mof_C 	C 	0.1676	0.9471	0.3644	0.088
Mof_H 	H 	0.1513	0.9157	0.3409	-0.006
Mof_C 	C 	0.3082	0.908	0.5053	0.095
Mof_N 	N 	0.3171	0.8222	0.4996	-0.134
Mof_C 	C 	0.2912	0.7742	0.4709	0.101
Mof_N 	N 	0.2598	0.8098	0.4458	-0.138
Mof_C 	C 	0.2538	0.8998	0.453	0.079
Mof_N 	N 	0.2769	0.9499	0.4837	-0.134
Mof_N 	N 	0.356	0.3302	0.4199	-0.278
Mof_C 	C 	0.3468	0.2768	0.3843	0.075
Mof_H 	H 	0.3226	0.2492	0.3781	-0.017
Mof_C 	C 	0.3697	0.2593	0.3564	-0.117
Mof_H 	H 	0.3619	0.2192	0.3321	0.083
Mof_C 	C 	0.4051	0.3018	0.3644	0.058
Mof_C 	C 	0.4148	0.3592	0.4015	-0.112
Mof_H 	H 	0.4382	0.3908	0.4077	0.081
Mof_C 	C 	0.3902	0.369	0.4285	0.066
Mof_H 	H 	0.3977	0.4048	0.4544	-0.02
Mof_N 	N 	0.5745	0.5151	0.321	-0.269
Mof_C 	C 	0.5585	0.4768	0.2824	0.062
Mof_H 	H 	0.5684	0.4898	0.2574	-0.013
Mof_C 	C 	0.5277	0.4186	0.2778	-0.112
Mof_H 	H 	0.5171	0.3912	0.2502	0.065
Mof_C 	C 	0.5124	0.4006	0.3139	0.037
Mof_C 	C 	0.5305	0.436	0.3533	-0.111
Mof_H 	H 	0.5219	0.4202	0.3789	0.077
Mof_C 	C 	0.5609	0.4945	0.3572	0.053
Mof_H 	H 	0.5723	0.5204	0.3849	-0.008
Mof_N 	N 	0.4367	0.9928	0.1905	-0.238
Mof_C 	C 	0.4101	0.0097	0.2122	0.007
Mof_H 	H 	0.3886	0.9711	0.2076	0.018
Mof_C 	C 	0.4127	0.0818	0.2416	-0.08
Mof_H 	H 	0.3934	0.092	0.257	0.064
Mof_C 	C 	0.4439	0.1387	0.248	0.024
Mof_C 	C 	0.4717	0.1196	0.2254	-0.094
Mof_H 	H 	0.4938	0.1562	0.2297	0.055
Mof_C 	C 	0.4669	0.0462	0.1966	0.039
Mof_H 	H 	0.4858	0.0339	0.1808	-0.008
Mof_C 	C 	0.4309	0.2886	0.3353	0.111
Mof_N 	N 	0.4592	0.3483	0.3392	-0.135
Mof_C 	C 	0.4806	0.3374	0.3104	0.095
Mof_N 	N 	0.4756	0.2753	0.2784	-0.154
Mof_C 	C 	0.4476	0.216	0.2793	0.095
Mof_N 	N 	0.424	0.2196	0.3066	-0.134
Mof_I 	I 	0.48541	0.1379	0.61722	-0.451
Mof_I 	I 	0.39778	0.24813	0.68475	0.009
Mof_I 	I 	0.2691	0.7441	0.9501	-0.01
Mof_I 	I 	0.37501	0.65997	0.04454	-0.272
Mof_I 	I 	0.2579	0.277	0.43899	-0.21
Mof_I 	I 	0.36965	0.3172	0.53864	-0.186
Mof_I 	I 	0.4721	0.1462	0.6165	0.075
Mof_I 	I 	0.388	0.2485	0.6944	-0.354
Mof_I 	I 	0.2577	0.7418	0.9421	-0.294
Mof_I 	I 	0.3667	0.667	0.0426	-0.095
Mof_I 	I 	0.2626	0.2691	0.439	-0.135
Mof_I 	I 	0.3666	0.3196	0.5402	-0.175
Mof_Zn	Zn	0.42783	0.88512	0.14519	1.167
Mof_Zn	Zn	0.1187	0.89852	0.8253	1.165
Mof_Zn	Zn	0.92586	0.62331	0.64916	1.152
Mof_Zn	Zn	0.82724	0.15024	0.9698	1.151
Mof_Zn	Zn	0.82333	0.85093	0.46512	1.158
Mof_Zn	Zn	0.11909	0.10332	0.3273	1.165
Mof_I 	I 	0.48669	0.86555	0.11576	-0.428
Mof_I 	I 	0.39506	0.76354	0.17933	-0.376
Mof_I 	I 	0.14197	0.89461	0.75478	-0.36
Mof_I 	I 	0.10251	0.75692	0.86303	-0.397
Mof_I 	I 	0.13705	0.11105	0.25404	-0.402
Mof_I 	I 	0.10088	0.23991	0.36825	-0.383
Mof_N 	N 	0.388	0.9469	0.0959	-0.255
Mof_C 	C 	0.356	0.9082	0.0748	0.048
Mof_H 	H 	0.351	0.8473	0.082	-0.01
Mof_C 	C 	0.3301	0.9522	0.0432	-0.094
Mof_H 	H 	0.3079	0.9215	0.0283	0.06
Mof_C 	C 	0.3364	0.042	0.0327	0.018
Mof_C 	C 	0.3709	0.081	0.0524	-0.077
Mof_H 	H 	0.3778	0.1393	0.0436	0.086
Mof_C 	C 	0.3948	0.0326	0.0851	0.037
Mof_H 	H 	0.4172	0.0615	0.1007	0.005
Mof_N 	N 	0.1594	0.9687	0.8705	-0.256
Mof_C 	C 	0.1657	0.0545	0.8632	0.045
Mof_H 	H 	0.1491	0.0845	0.8396	0.007
Mof_C 	C 	0.1954	0.1032	0.8881	-0.092
Mof_H 	H 	0.1989	0.1656	0.8819	0.077
Mof_C 	C 	0.2199	0.0595	0.9223	0.007
Mof_C 	C 	0.2124	0.9697	0.9309	-0.079
Mof_H 	H 	0.2279	0.9384	0.9551	0.081
Mof_C 	C 	0.1824	0.9265	0.9041	0.049
Mof_H 	H 	0.1777	0.8643	0.9096	0.006
Mof_N 	N 	0.3133	0.5123	0.9621	-0.272
Mof_C 	C 	0.2789	0.4802	0.9435	0.061
Mof_H 	H 	0.2598	0.5218	0.9298	-0.008
Mof_C 	C 	0.2702	0.3887	0.9436	-0.114
Mof_H 	H 	0.2453	0.3679	0.9309	0.073
Mof_C 	C 	0.2981	0.3278	0.9624	0.045
Mof_C 	C 	0.3337	0.3606	0.9819	-0.115
Mof_H 	H 	0.353	0.3205	0.9966	0.078
Mof_C 	C 	0.3405	0.4521	0.9796	0.056
Mof_H 	H 	0.3654	0.4739	0.9908	-0.017
Mof_C 	C 	0.3081	0.0954	0.0002	0.122
Mof_N 	N 	0.2767	0.0541	0.9788	-0.144
Mof_C 	C 	0.2536	0.1059	0.9488	0.128
Mof_N 	N 	0.2594	0.1933	0.9417	-0.138
Mof_C 	C 	0.2906	0.229	0.9662	0.124
Mof_N 	N 	0.3166	0.1834	0.9948	-0.135
Mof_N 	N 	0.0742	0.9892	0.8183	-0.251
Mof_C 	C 	0.0589	0.0299	0.781	0.056
Mof_H 	H 	0.0689	0.019	0.7559	-0.007
Mof_C 	C 	0.0287	0.0877	0.7773	-0.111
Mof_H 	H 	0.0181	0.1164	0.75	0.073
Mof_C 	C 	0.014	0.1039	0.8126	0.037
Mof_C 	C 	0.0305	0.065	0.8532	-0.103
Mof_H 	H 	0.0212	0.0761	0.8788	0.074
Mof_C 	C 	0.0609	0.0098	0.8536	0.021
Mof_H 	H 	0.0736	0.9843	0.8809	0.006
Mof_N 	N 	0.9352	0.5166	0.6941	-0.277
Mof_C 	C 	0.9659	0.4647	0.7015	0.075
Mof_H 	H 	0.9856	0.4799	0.6873	-0.009
Mof_C 	C 	0.9705	0.3897	0.7288	-0.127
Mof_H 	H 	0.9927	0.3534	0.7328	0.075
Mof_C 	C 	0.9427	0.3686	0.75	0.056
Mof_C 	C 	0.9096	0.4207	0.7421	-0.131
Mof_H 	H 	0.8893	0.4064	0.7554	0.09
Mof_C 	C 	0.9081	0.4938	0.714	0.078
Mof_H 	H 	0.886	0.5305	0.7086	-0.021
Mof_N 	N 	0.8597	0.1701	0.9241	-0.285
Mof_C 	C 	0.8463	0.2097	0.8863	0.074
Mof_H 	H 	0.8206	0.2282	0.879	-0.023
Mof_C 	C 	0.8688	0.2253	0.8564	-0.118
Mof_H 	H 	0.8583	0.2539	0.8291	0.119
Mof_C 	C 	0.9057	0.1998	0.8664	0.054
Mof_C 	C 	0.92	0.1606	0.9069	-0.123
Mof_H 	H 	0.9456	0.1422	0.9155	0.081
Mof_C 	C 	0.8959	0.1489	0.9346	0.069
Mof_H 	H 	0.906	0.124	0.9629	0.031
Mof_C 	C 	0.9805	0.1665	0.81	0.093
Mof_N 	N 	0.9753	0.231	0.7793	-0.148
Mof_C 	C 	0.9473	0.2887	0.7806	0.093
Mof_N 	N 	0.9242	0.2833	0.8074	-0.122
Mof_C 	C 	0.9303	0.2129	0.8358	0.099
Mof_N 	N 	0.9595	0.1546	0.8396	-0.145
Mof_N 	N 	0.8851	0.558	0.6018	-0.271
Mof_C 	C 	0.8967	0.4812	0.5848	0.061
Mof_H 	H 	0.9225	0.4634	0.5921	-0.006
Mof_C 	C 	0.87	0.4294	0.5564	-0.111
Mof_H 	H 	0.8765	0.3696	0.5489	0.09
Mof_C 	C 	0.835	0.4613	0.5389	0.056
Mof_C 	C 	0.8246	0.5432	0.5542	-0.124
Mof_H 	H 	0.8	0.5672	0.5431	0.075
Mof_C 	C 	0.8508	0.5901	0.5862	0.071
Mof_H 	H 	0.8438	0.6466	0.5969	-0.015
Mof_N 	N 	0.8132	0.9903	0.4641	-0.248
Mof_C 	C 	0.8373	0.0469	0.4905	0.041
Mof_H 	H 	0.8596	0.0219	0.5085	-0.013
Mof_C 	C 	0.8313	0.1381	0.4926	-0.102
Mof_H 	H 	0.8494	0.1755	0.5115	0.076
Mof_C 	C 	0.7989	0.1759	0.4672	0.035
Mof_C 	C 	0.7734	0.1189	0.4398	-0.088
Mof_H 	H 	0.7507	0.1426	0.4219	0.063
Mof_C 	C 	0.7817	0.0277	0.4391	0.008
Mof_H 	H 	0.7643	0.989	0.42	0.017
Mof_N 	N 	0.6614	0.5358	0.3699	-0.27
Mof_C 	C 	0.6852	0.5797	0.4038	0.054
Mof_H 	H 	0.681	0.6423	0.4087	0.002
Mof_C 	C 	0.7149	0.5368	0.4307	-0.11
Mof_H 	H 	0.7312	0.5699	0.4535	0.083
Mof_C 	C 	0.7215	0.4441	0.4249	0.035
Mof_C 	C 	0.6969	0.3987	0.3914	-0.109
Mof_H 	H 	0.6999	0.3353	0.3869	0.078
Mof_C 	C 	0.6676	0.4471	0.3644	0.059
Mof_H 	H 	0.6513	0.4157	0.3409	0.001
Mof_C 	C 	0.8082	0.408	0.5053	0.103
Mof_N 	N 	0.8171	0.3222	0.4996	-0.137
Mof_C 	C 	0.7912	0.2742	0.4709	0.107
Mof_N 	N 	0.7598	0.3098	0.4458	-0.141
Mof_C 	C 	0.7538	0.3998	0.453	0.086
Mof_N 	N 	0.7769	0.4499	0.4837	-0.142
Mof_N 	N 	0.856	0.8302	0.4199	-0.277
Mof_C 	C 	0.8468	0.7768	0.3843	0.077
Mof_H 	H 	0.8226	0.7492	0.3781	-0.014
Mof_C 	C 	0.8697	0.7593	0.3564	-0.116
Mof_H 	H 	0.8619	0.7192	0.3321	0.085
Mof_C 	C 	0.9051	0.8018	0.3644	0.059
Mof_C 	C 	0.9148	0.8592	0.4015	-0.111
Mof_H 	H 	0.9382	0.8908	0.4077	0.083
Mof_C 	C 	0.8902	0.869	0.4285	0.067
Mof_H 	H 	0.8977	0.9048	0.4544	-0.017
Mof_N 	N 	0.0745	0.0151	0.321	-0.295
Mof_C 	C 	0.0585	0.9768	0.2824	0.09
Mof_H 	H 	0.0684	0.9898	0.2574	-0.017
Mof_C 	C 	0.0277	0.9186	0.2778	-0.131
Mof_H 	H 	0.0171	0.8912	0.2502	0.073
Mof_C 	C 	0.0124	0.9006	0.3139	0.059
Mof_C 	C 	0.0305	0.936	0.3533	-0.143
Mof_H 	H 	0.0219	0.9202	0.3789	0.09
Mof_C 	C 	0.0609	0.9945	0.3572	0.109
Mof_H 	H 	0.0723	0.0204	0.3849	-0.037
Mof_N 	N 	0.9367	0.4928	0.1905	-0.266
Mof_C 	C 	0.9101	0.5097	0.2122	0.068
Mof_H 	H 	0.8886	0.4711	0.2076	-0.013
Mof_C 	C 	0.9127	0.5818	0.2416	-0.113
Mof_H 	H 	0.8934	0.592	0.257	0.079
Mof_C 	C 	0.9439	0.6387	0.248	0.045
Mof_C 	C 	0.9717	0.6196	0.2254	-0.114
Mof_H 	H 	0.9938	0.6562	0.2297	0.063
Mof_C 	C 	0.9669	0.5462	0.1966	0.069
Mof_H 	H 	0.9858	0.5339	0.1808	-0.011
Mof_C 	C 	0.9309	0.7886	0.3353	0.112
Mof_N 	N 	0.9592	0.8483	0.3392	-0.133
Mof_C 	C 	0.9806	0.8374	0.3104	0.089
Mof_N 	N 	0.9756	0.7753	0.2784	-0.151
Mof_C 	C 	0.9476	0.716	0.2793	0.09
Mof_N 	N 	0.924	0.7196	0.3066	-0.132
Mof_I 	I 	0.98541	0.6379	0.61722	-0.448
Mof_I 	I 	0.89778	0.74813	0.68475	0.012
Mof_I 	I 	0.7691	0.2441	0.9501	-0.019
Mof_I 	I 	0.87501	0.15997	0.04454	-0.262
Mof_I 	I 	0.7579	0.777	0.43899	-0.207
Mof_I 	I 	0.86965	0.8172	0.53864	-0.184
Mof_I 	I 	0.9721	0.6462	0.6165	0.08
Mof_I 	I 	0.888	0.7485	0.6944	-0.354
Mof_I 	I 	0.7577	0.2418	0.9421	-0.322
Mof_I 	I 	0.8667	0.167	0.0426	-0.094
Mof_I 	I 	0.7626	0.7691	0.439	-0.133
Mof_I 	I 	0.8666	0.8196	0.5402	-0.172
Mof_C 	C 	0.146	0.484	0.1408	5.099
Mof_H 	H 	0.1495	0.4251	0.1575	-1.401
Mof_C 	C 	0.1295	0.556	0.1687	0.11
Mof_H 	H 	0.1409	0.5446	0.2005	-0.004
Mof_C 	C 	0.0876	0.535	0.1603	0.304
Mof_H 	H 	0.0842	0.4707	0.1679	0.018
Mof_H 	H 	0.076	0.5738	0.1796	-0.068
Mof_C 	C 	0.0681	0.551	0.1136	-0.208
Mof_H 	H 	0.068	0.6174	0.1071	0.121
Mof_H 	H 	0.0415	0.5307	0.1086	0.109
Mof_C 	C 	0.0881	0.4999	0.0835	0.281
Mof_C 	C 	0.1245	0.4656	0.0971	-1.494
Mof_C 	C 	0.1393	0.4097	0.0692	-0.421
Mof_H 	H 	0.1642	0.3862	0.0785	0.137
Mof_C 	C 	0.1176	0.3881	0.0278	-0.307
Mof_H 	H 	0.1277	0.3498	0.0087	0.11
Mof_C 	C 	0.0812	0.422	0.0142	-0.032
Mof_H 	H 	0.0664	0.4076	0.9859	0.03
Mof_C 	C 	0.0664	0.478	0.0421	-0.228
Mof_C 	C 	0.1854	0.518	0.1369	-0.606
Mof_O 	O 	0.1957	0.555	0.1159	-0.819
Mof_O 	O 	0.2069	0.481	0.1735	0.8
Mof_C 	C 	0.249	0.499	0.185	-0.644
Mof_H 	H 	0.2607	0.4678	0.212	0.125
Mof_H 	H 	0.26	0.4765	0.1607	0.169
Mof_H 	H 	0.2536	0.5648	0.1882	-0.516
Mof_O 	O 	0.1386	0.64	0.159	0.367
Mof_H 	H 	0.1518	0.6381	0.1405	-0.127
Mof_O 	O 	0.0307	0.523	0.03	-0.08
Mof_C 	C 	0.9919	0.496	0.016	-1.06
Mof_H 	H 	0.9759	0.5507	0.0107	0.431
Mof_H 	H 	0.9885	0.4616	0.9882	0.547
Mof_H 	H 	0.9849	0.4582	0.0383	0.283
Mof_C 	C 	0.1341	0.552	0.1191	-0.721
Mof_H 	H 	0.129	0.503	0.1394	-2.47
Mof_C 	C 	0.1244	0.647	0.1376	0.319
Mof_H 	H 	0.0975	0.6443	0.14	-0.051
Mof_C 	C 	0.1261	0.714	0.1017	-0.398
Mof_H 	H 	0.1184	0.774	0.1111	0.123
Mof_H 	H 	0.1529	0.7191	0.1001	0.126
Mof_C 	C 	0.1038	0.697	0.0566	0.268
Mof_H 	H 	0.1176	0.722	0.0352	-0.046
Mof_H 	H 	0.0794	0.7301	0.0523	-0.046
Mof_C 	C 	0.0962	0.597	0.0475	-0.455
Mof_C 	C 	0.1142	0.5286	0.0753	0.828
Mof_C 	C 	0.1121	0.4387	0.0609	0.514
Mof_H 	H 	0.1245	0.3919	0.0799	0.368
Mof_C 	C 	0.0921	0.4173	0.0186	-0.001
Mof_H 	H 	0.0906	0.3559	0.0088	0.086
Mof_C 	C 	0.074	0.486	0.9908	-0.148
Mof_H 	H 	0.0603	0.4712	0.962	0.05
Mof_C 	C 	0.0761	0.576	0.0053	0.24
Mof_C 	C 	0.1768	0.552	0.1209	0.958
Mof_O 	O 	0.1931	0.576	0.1021	0.283
Mof_O 	O 	0.1916	0.501	0.1567	-1.108
Mof_C 	C 	0.2342	0.505	0.174	-0.212
Mof_H 	H 	0.2416	0.4655	0.1995	0.211
Mof_H 	H 	0.2465	0.484	0.1507	0.131
Mof_H 	H 	0.2419	0.5678	0.1818	0.8
Mof_O 	O 	0.1453	0.66	0.1781	-0.848
Mof_H 	H 	0.1595	0.7052	0.1782	0.365
Mof_O 	O 	0.059	0.653	0.9802	-0.166
Mof_C 	C 	0.038	0.728	0.993	0.009
Mof_H 	H 	0.0302	0.7698	0.9679	0.418
Mof_H 	H 	0.0154	0.7039	0.0012	0.053
Mof_H 	H 	0.0536	0.7604	0.0177	0.079
Mof_C 	C 	-1.75095e-18	0.824	0.0606	-0.066
Mof_C 	C 	0.956	0.807	0.048	-0.351
Mof_H 	H 	0.9456	0.8052	0.0746	0.151
Mof_C 	C 	0.9352	0.873	0.016	0.259
Mof_H 	H 	0.9094	0.8811	0.0205	-0.064
Mof_H 	H 	0.9331	0.8502	0.9855	0.018
Mof_C 	C 	0.956	0.965	0.021	-0.141
Mof_H 	H 	0.9404	0.0123	0.0024	0.092
Mof_H 	H 	0.9611	0.9857	0.0521	0.094
Mof_C 	C 	0.992	0.947	0.006	-0.026
Mof_C 	C 	0.0103	0.867	0.0187	0.087
Mof_C 	C 	0.039	0.835	0.004	-0.174
Mof_H 	H 	0.0516	0.7795	0.0142	-0.012
Mof_C 	C 	0.05	0.887	0.971	-0.119
Mof_H 	H 	0.0652	0.8613	0.9525	0.067
Mof_C 	C 	0.039	0.978	0.966	-0.002
Mof_H 	H 	0.0536	0.0204	0.9536	0.002
Mof_C 	C 	0.007	0.01	0.98	0.091
Mof_C 	C 	0.02	0.838	0.1109	0.352
Mof_O 	O 	0.031	0.827	0.152	0.224
Mof_O 	O 	0.049	0.9	0.122	-0.918
Mof_C 	C 	0.088	0.914	0.14	-0.712
Mof_H 	H 	0.0943	0.9792	0.1395	0.204
Mof_H 	H 	0.0947	0.8922	0.1706	0.278
Mof_H 	H 	0.1032	0.8803	0.1229	0.251
Mof_O 	O 	0.971	0.719	0.041	-0.391
Mof_O 	O 	0.01	0.104	0.993	-0.027
Mof_C 	C 	0.003	0.2	0.992	0.557
Mof_H 	H 	0.0182	0.2277	0.0189	3.594
Mof_H 	H 	0.0109	0.2264	0.9664	-0.319
Mof_H 	H 	0.9764	0.2124	0.9897	-3.966
Mof_C 	C 	0.0195	0.84	0.162	-0.339
Mof_H 	H 	0.0168	0.8211	0.1918	0.129
Mof_H 	H 	0.9971	0.877	0.1484	0.108
Mof_C 	C 	0.056	0.898	0.1664	-0.397
Mof_H 	H 	0.0564	0.9284	0.1382	0.925
Mof_H 	H 	0.058	0.9449	0.1895	0.121
Mof_C 	C 	0.0883	0.83	0.179	0.008
Mof_H 	H 	0.11	0.8571	0.1995	-0.029
Mof_H 	H 	0.0968	0.8104	0.1519	0.045
Mof_C 	C 	0.073	0.748	0.1995	-0.187
Mof_H 	H 	0.0607	0.7701	0.2225	0.092
Mof_H 	H 	0.0948	0.7093	0.2141	0.112
Mof_C 	C 	0.045	0.687	0.168	0.097
Mof_H 	H 	0.0278	0.6547	0.183	-0.005
Mof_H 	H 	0.0582	0.6418	0.153	0.006
Mof_C 	C 	0.023	0.756	0.134	-0.347
Mof_H 	H 	0.0367	0.7707	0.1108	0.102
Mof_H 	H 	0.9974	0.7321	0.1194	0.146
Mof_C 	C 	0.854	0.484	0.8592	5.096
Mof_H 	H 	0.8505	0.4251	0.8425	-1.4
Mof_C 	C 	0.8705	0.556	0.8313	0.109
Mof_H 	H 	0.8591	0.5446	0.7995	-0.004
Mof_C 	C 	0.9124	0.535	0.8397	0.303
Mof_H 	H 	0.9158	0.4707	0.8321	0.018
Mof_H 	H 	0.924	0.5738	0.8204	-0.068
Mof_C 	C 	0.9319	0.551	0.8864	-0.208
Mof_H 	H 	0.932	0.6174	0.8929	0.121
Mof_H 	H 	0.9585	0.5307	0.8914	0.109
Mof_C 	C 	0.9119	0.4999	0.9165	0.281
Mof_C 	C 	0.8755	0.4656	0.9029	-1.494
Mof_C 	C 	0.8607	0.4097	0.9308	-0.417
Mof_H 	H 	0.8358	0.3862	0.9215	0.136
Mof_C 	C 	0.8824	0.3881	0.9722	-0.309
Mof_H 	H 	0.8723	0.3498	0.9913	0.11
Mof_C 	C 	0.9188	0.422	0.9858	-0.03
Mof_H 	H 	0.9336	0.4076	0.0141	0.03
Mof_C 	C 	0.9336	0.478	0.9579	-0.227
Mof_C 	C 	0.8146	0.518	0.8631	-0.606
Mof_O 	O 	0.8043	0.555	0.8841	-0.819
Mof_O 	O 	0.7931	0.481	0.8265	0.8
Mof_C 	C 	0.751	0.499	0.815	-0.644
Mof_H 	H 	0.7393	0.4678	0.788	0.125
Mof_H 	H 	0.74	0.4765	0.8393	0.169
Mof_H 	H 	0.7464	0.5648	0.8118	-0.516
Mof_O 	O 	0.8614	0.64	0.841	0.367
Mof_H 	H 	0.8482	0.6381	0.8595	-0.127
Mof_O 	O 	0.9693	0.523	0.97	-0.081
Mof_C 	C 	0.0081	0.496	0.984	-1.051
Mof_H 	H 	0.0241	0.5507	0.9893	0.428
Mof_H 	H 	0.0115	0.4616	0.0118	0.548
Mof_H 	H 	0.0151	0.4582	0.9617	0.28
Mof_C 	C 	0.8659	0.552	0.8809	-0.721
Mof_H 	H 	0.871	0.503	0.8606	-2.468
Mof_C 	C 	0.8756	0.647	0.8624	0.319
Mof_H 	H 	0.9025	0.6443	0.86	-0.051
Mof_C 	C 	0.8739	0.714	0.8983	-0.398
Mof_H 	H 	0.8816	0.774	0.8889	0.123
Mof_H 	H 	0.8471	0.7191	0.8999	0.127
Mof_C 	C 	0.8962	0.697	0.9434	0.268
Mof_H 	H 	0.8824	0.722	0.9648	-0.046
Mof_H 	H 	0.9206	0.7301	0.9477	-0.046
Mof_C 	C 	0.9038	0.597	0.9525	-0.455
Mof_C 	C 	0.8858	0.5286	0.9247	0.828
Mof_C 	C 	0.8879	0.4387	0.9391	0.513
Mof_H 	H 	0.8755	0.3919	0.9201	0.367
Mof_C 	C 	0.9079	0.4173	0.9814	-0.001
Mof_H 	H 	0.9094	0.3559	0.9912	0.086
Mof_C 	C 	0.926	0.486	0.0092	-0.148
Mof_H 	H 	0.9397	0.4712	0.038	0.051
Mof_C 	C 	0.9239	0.576	0.9947	0.24
Mof_C 	C 	0.8232	0.552	0.8791	0.958
Mof_O 	O 	0.8069	0.576	0.8979	0.282
Mof_O 	O 	0.8084	0.501	0.8433	-1.107
Mof_C 	C 	0.7658	0.505	0.826	-0.212
Mof_H 	H 	0.7584	0.4655	0.8005	0.211
Mof_H 	H 	0.7535	0.484	0.8493	0.131
Mof_H 	H 	0.7581	0.5678	0.8182	0.8
Mof_O 	O 	0.8547	0.66	0.8219	-0.847
Mof_H 	H 	0.8405	0.7052	0.8218	0.365
Mof_O 	O 	0.941	0.653	0.0198	-0.166
Mof_C 	C 	0.962	0.728	0.007	0.01
Mof_H 	H 	0.9698	0.7698	0.0321	0.417
Mof_H 	H 	0.9846	0.7039	0.9988	0.052
Mof_H 	H 	0.9464	0.7604	0.9823	0.079
Mof_C 	C 	3.71311e-33	0.824	0.9394	-0.065
Mof_C 	C 	0.044	0.807	0.952	-0.352
Mof_H 	H 	0.0544	0.8052	0.9254	0.152
Mof_C 	C 	0.0648	0.873	0.984	0.26
Mof_H 	H 	0.0906	0.8811	0.9795	-0.064
Mof_H 	H 	0.0669	0.8502	0.0145	0.018
Mof_C 	C 	0.044	0.965	0.979	-0.14
Mof_H 	H 	0.0596	0.0123	0.9976	0.092
Mof_H 	H 	0.0389	0.9857	0.9479	0.093
Mof_C 	C 	0.008	0.947	0.994	-0.032
Mof_C 	C 	0.9897	0.867	0.9813	0.085
Mof_C 	C 	0.961	0.835	0.996	-0.174
Mof_H 	H 	0.9484	0.7795	0.9858	-0.013
Mof_C 	C 	0.95	0.887	0.029	-0.119
Mof_H 	H 	0.9348	0.8613	0.0475	0.067
Mof_C 	C 	0.961	0.978	0.034	-0.003
Mof_H 	H 	0.9464	0.0204	0.0464	0.002
Mof_C 	C 	0.993	0.01	0.02	0.088
Mof_C 	C 	0.98	0.838	0.8891	0.351
Mof_O 	O 	0.969	0.827	0.848	0.223
Mof_O 	O 	0.951	0.9	0.878	-0.918
Mof_C 	C 	0.912	0.914	0.86	-0.712
Mof_H 	H 	0.9057	0.9792	0.8605	0.204
Mof_H 	H 	0.9053	0.8922	0.8294	0.277
Mof_H 	H 	0.8968	0.8803	0.8771	0.251
Mof_O 	O 	0.029	0.719	0.959	-0.391
Mof_O 	O 	0.99	0.104	0.007	-0.027
Mof_C 	C 	0.997	0.2	0.008	0.558
Mof_H 	H 	0.9818	0.2277	0.9811	3.596
Mof_H 	H 	0.9891	0.2264	0.0336	-0.319
Mof_H 	H 	0.0236	0.2124	0.0103	-3.964
Mof_C 	C 	0.9805	0.84	0.838	-0.337
Mof_H 	H 	0.9832	0.8211	0.8082	0.128
Mof_H 	H 	0.0029	0.877	0.8516	0.108
Mof_C 	C 	0.944	0.898	0.8336	-0.398
Mof_H 	H 	0.9436	0.9284	0.8618	0.925
Mof_H 	H 	0.942	0.9449	0.8105	0.121
Mof_C 	C 	0.9117	0.83	0.821	0.009
Mof_H 	H 	0.89	0.8571	0.8005	-0.029
Mof_H 	H 	0.9032	0.8104	0.8481	0.045
Mof_C 	C 	0.927	0.748	0.8005	-0.188
Mof_H 	H 	0.9393	0.7701	0.7775	0.093
Mof_H 	H 	0.9052	0.7093	0.7859	0.112
Mof_C 	C 	0.955	0.687	0.832	0.098
Mof_H 	H 	0.9722	0.6547	0.817	-0.005
Mof_H 	H 	0.9418	0.6418	0.847	0.005
Mof_C 	C 	0.977	0.756	0.866	-0.348
Mof_H 	H 	0.9633	0.7707	0.8892	0.102
Mof_H 	H 	0.0026	0.7321	0.8806	0.147
Mof_C 	C 	0.646	0.984	0.1408	-1.251
Mof_H 	H 	0.6495	0.9251	0.1575	0.426
Mof_C 	C 	0.6295	0.056	0.1687	-0.173
Mof_H 	H 	0.6409	0.0446	0.2005	0.114
Mof_C 	C 	0.5876	0.035	0.1603	0.017
Mof_H 	H 	0.5842	0.9707	0.1679	0.027
Mof_H 	H 	0.576	0.0738	0.1796	0.022
Mof_C 	C 	0.5681	0.051	0.1136	-0.543
Mof_H 	H 	0.568	0.1174	0.1071	0.194
Mof_H 	H 	0.5415	0.0307	0.1086	0.2
Mof_C 	C 	0.5881	0.9999	0.0835	0.652
Mof_C 	C 	0.6245	0.9656	0.0971	-0.175
Mof_C 	C 	0.6393	0.9097	0.0692	4.009
Mof_H 	H 	0.6642	0.8862	0.0785	-1.289
Mof_C 	C 	0.6176	0.8881	0.0278	-2.002
Mof_H 	H 	0.6277	0.8498	0.0087	0.665
Mof_C 	C 	0.5812	0.922	0.0142	1.258
Mof_H 	H 	0.5664	0.9076	0.9859	-0.364
Mof_C 	C 	0.5664	0.978	0.0421	-0.379
Mof_C 	C 	0.6854	0.018	0.1369	-0.042
Mof_O 	O 	0.6957	0.055	0.1159	0.575
Mof_O 	O 	0.7069	0.981	0.1735	0.021
Mof_C 	C 	0.749	0.999	0.185	-0.417
Mof_H 	H 	0.7607	0.9678	0.212	0.047
Mof_H 	H 	0.76	0.9765	0.1607	0.132
Mof_H 	H 	0.7536	0.0648	0.1882	-0.431
Mof_O 	O 	0.6386	0.14	0.159	0.059
Mof_H 	H 	0.6518	0.1381	0.1405	0.037
Mof_O 	O 	0.5307	0.023	0.03	-0.093
Mof_C 	C 	0.4919	0.996	0.016	-0.796
Mof_H 	H 	0.4759	0.0507	0.0107	0.344
Mof_H 	H 	0.4885	0.9616	0.9882	0.427
Mof_H 	H 	0.4849	0.9582	0.0383	0.218
Mof_C 	C 	0.6341	0.052	0.1191	-0.046
Mof_H 	H 	0.629	0.003	0.1394	0.815
Mof_C 	C 	0.6244	0.147	0.1376	0.129
Mof_H 	H 	0.5975	0.1443	0.14	0.001
Mof_C 	C 	0.6261	0.214	0.1017	-0.236
Mof_H 	H 	0.6184	0.274	0.1111	0.08
Mof_H 	H 	0.6529	0.2191	0.1001	0.116
Mof_C 	C 	0.6038	0.197	0.0566	0.007
Mof_H 	H 	0.6176	0.222	0.0352	0.036
Mof_H 	H 	0.5794	0.2301	0.0523	0.021
Mof_C 	C 	0.5962	0.097	0.0475	-0.081
Mof_C 	C 	0.6142	0.0286	0.0753	-0.208
Mof_C 	C 	0.6121	0.9387	0.0609	-0.716
Mof_H 	H 	0.6245	0.8919	0.0799	-1.497
Mof_C 	C 	0.5921	0.9173	0.0186	0.252
Mof_H 	H 	0.5906	0.8559	0.0088	0.101
Mof_C 	C 	0.574	0.986	0.9908	-0.831
Mof_H 	H 	0.5603	0.9712	0.962	0.356
Mof_C 	C 	0.5761	0.076	0.0053	0.374
Mof_C 	C 	0.6768	0.052	0.1209	0.457
Mof_O 	O 	0.6931	0.076	0.1021	-0.962
Mof_O 	O 	0.6916	0.001	0.1567	-0.185
Mof_C 	C 	0.7342	0.005	0.174	-0.141
Mof_H 	H 	0.7416	0.9655	0.1995	0.26
Mof_H 	H 	0.7465	0.984	0.1507	0.081
Mof_H 	H 	0.7419	0.0678	0.1818	0.618
Mof_O 	O 	0.6453	0.16	0.1781	-0.437
Mof_H 	H 	0.6595	0.2052	0.1782	0.232
Mof_O 	O 	0.559	0.153	0.9802	-0.202
Mof_C 	C 	0.538	0.228	0.993	0.025
Mof_H 	H 	0.5302	0.2698	0.9679	0.41
Mof_H 	H 	0.5154	0.2039	0.0012	0.044
Mof_H 	H 	0.5536	0.2604	0.0177	0.085
Mof_C 	C 	0.5	0.324	0.0606	-0.069
Mof_C 	C 	0.456	0.307	0.048	-0.349
Mof_H 	H 	0.4456	0.3052	0.0746	0.152
Mof_C 	C 	0.4352	0.373	0.016	0.277
Mof_H 	H 	0.4094	0.3811	0.0205	-0.07
Mof_H 	H 	0.4331	0.3502	0.9855	0.01
Mof_C 	C 	0.456	0.465	0.021	-0.16
Mof_H 	H 	0.4404	0.5123	0.0024	0.104
Mof_H 	H 	0.4611	0.4857	0.0521	0.086
Mof_C 	C 	0.492	0.447	0.006	-0.054
Mof_C 	C 	0.5103	0.367	0.0187	0.093
Mof_C 	C 	0.539	0.335	0.004	-0.166
Mof_H 	H 	0.5516	0.2795	0.0142	-0.034
Mof_C 	C 	0.55	0.387	0.971	-0.124
Mof_H 	H 	0.5652	0.3613	0.9525	0.064
Mof_C 	C 	0.539	0.478	0.966	-0.012
Mof_H 	H 	0.5536	0.5204	0.9536	0.018
Mof_C 	C 	0.507	0.51	0.98	0.126
Mof_C 	C 	0.52	0.338	0.1109	0.349
Mof_O 	O 	0.531	0.327	0.152	0.22
Mof_O 	O 	0.549	0.4	0.122	-0.914
Mof_C 	C 	0.588	0.414	0.14	-0.717
Mof_H 	H 	0.5943	0.4792	0.1395	0.2
Mof_H 	H 	0.5947	0.3922	0.1706	0.283
Mof_H 	H 	0.6032	0.3803	0.1229	0.254
Mof_O 	O 	0.471	0.219	0.041	-0.387
Mof_O 	O 	0.51	0.604	0.993	-0.035
Mof_C 	C 	0.503	0.7	0.992	0.542
Mof_H 	H 	0.5182	0.7277	0.0189	3.516
Mof_H 	H 	0.5109	0.7264	0.9664	-0.306
Mof_H 	H 	0.4764	0.7124	0.9897	-3.869
Mof_C 	C 	0.5195	0.34	0.162	-0.345
Mof_H 	H 	0.5168	0.3211	0.1918	0.131
Mof_H 	H 	0.4971	0.377	0.1484	0.108
Mof_C 	C 	0.556	0.398	0.1664	-0.38
Mof_H 	H 	0.5564	0.4284	0.1382	0.915
Mof_H 	H 	0.558	0.4449	0.1895	0.112
Mof_C 	C 	0.5883	0.33	0.179	-0.019
Mof_H 	H 	0.61	0.3571	0.1995	-0.023
Mof_H 	H 	0.5968	0.3104	0.1519	0.056
Mof_C 	C 	0.573	0.248	0.1995	-0.16
Mof_H 	H 	0.5607	0.2701	0.2225	0.084
Mof_H 	H 	0.5948	0.2093	0.2141	0.098
Mof_C 	C 	0.545	0.187	0.168	0.062
Mof_H 	H 	0.5278	0.1547	0.183	0.004
Mof_H 	H 	0.5582	0.1418	0.153	0.015
Mof_C 	C 	0.523	0.256	0.134	-0.326
Mof_H 	H 	0.5367	0.2707	0.1108	0.093
Mof_H 	H 	0.4974	0.2321	0.1194	0.139
Mof_C 	C 	0.354	0.984	0.8592	-1.252
Mof_H 	H 	0.3505	0.9251	0.8425	0.426
Mof_C 	C 	0.3705	0.056	0.8313	-0.173
Mof_H 	H 	0.3591	0.0446	0.7995	0.114
Mof_C 	C 	0.4124	0.035	0.8397	0.017
Mof_H 	H 	0.4158	0.9707	0.8321	0.027
Mof_H 	H 	0.424	0.0738	0.8204	0.022
Mof_C 	C 	0.4319	0.051	0.8864	-0.543
Mof_H 	H 	0.432	0.1174	0.8929	0.194
Mof_H 	H 	0.4585	0.0307	0.8914	0.2
Mof_C 	C 	0.4119	0.9999	0.9165	0.652
Mof_C 	C 	0.3755	0.9656	0.9029	-0.174
Mof_C 	C 	0.3607	0.9097	0.9308	4.01
Mof_H 	H 	0.3358	0.8862	0.9215	-1.289
Mof_C 	C 	0.3824	0.8881	0.9722	-2.002
Mof_H 	H 	0.3723	0.8498	0.9913	0.665
Mof_C 	C 	0.4188	0.922	0.9858	1.258
Mof_H 	H 	0.4336	0.9076	0.0141	-0.364
Mof_C 	C 	0.4336	0.978	0.9579	-0.379
Mof_C 	C 	0.3146	0.018	0.8631	-0.041
Mof_O 	O 	0.3043	0.055	0.8841	0.576
Mof_O 	O 	0.2931	0.981	0.8265	0.021
Mof_C 	C 	0.251	0.999	0.815	-0.417
Mof_H 	H 	0.2393	0.9678	0.788	0.047
Mof_H 	H 	0.24	0.9765	0.8393	0.132
Mof_H 	H 	0.2464	0.0648	0.8118	-0.431
Mof_O 	O 	0.3614	0.14	0.841	0.059
Mof_H 	H 	0.3482	0.1381	0.8595	0.037
Mof_O 	O 	0.4693	0.023	0.97	-0.094
Mof_C 	C 	0.5081	0.996	0.984	-0.796
Mof_H 	H 	0.5241	0.0507	0.9893	0.343
Mof_H 	H 	0.5115	0.9616	0.0118	0.427
Mof_H 	H 	0.5151	0.9582	0.9617	0.218
Mof_C 	C 	0.3659	0.052	0.8809	-0.046
Mof_H 	H 	0.371	0.003	0.8606	0.816
Mof_C 	C 	0.3756	0.147	0.8624	0.129
Mof_H 	H 	0.4025	0.1443	0.86	0.001
Mof_C 	C 	0.3739	0.214	0.8983	-0.236
Mof_H 	H 	0.3816	0.274	0.8889	0.08
Mof_H 	H 	0.3471	0.2191	0.8999	0.116
Mof_C 	C 	0.3962	0.197	0.9434	0.007
Mof_H 	H 	0.3824	0.222	0.9648	0.036
Mof_H 	H 	0.4206	0.2301	0.9477	0.021
Mof_C 	C 	0.4038	0.097	0.9525	-0.081
Mof_C 	C 	0.3858	0.0286	0.9247	-0.208
Mof_C 	C 	0.3879	0.9387	0.9391	-0.716
Mof_H 	H 	0.3755	0.8919	0.9201	-1.497
Mof_C 	C 	0.4079	0.9173	0.9814	0.252
Mof_H 	H 	0.4094	0.8559	0.9912	0.101
Mof_C 	C 	0.426	0.986	0.0092	-0.831
Mof_H 	H 	0.4397	0.9712	0.038	0.356
Mof_C 	C 	0.4239	0.076	0.9947	0.374
Mof_C 	C 	0.3232	0.052	0.8791	0.457
Mof_O 	O 	0.3069	0.076	0.8979	-0.962
Mof_O 	O 	0.3084	0.001	0.8433	-0.184
Mof_C 	C 	0.2658	0.005	0.826	-0.141
Mof_H 	H 	0.2584	0.9655	0.8005	0.26
Mof_H 	H 	0.2535	0.984	0.8493	0.081
Mof_H 	H 	0.2581	0.0678	0.8182	0.618
Mof_O 	O 	0.3547	0.16	0.8219	-0.437
Mof_H 	H 	0.3405	0.2052	0.8218	0.232
Mof_O 	O 	0.441	0.153	0.0198	-0.202
Mof_C 	C 	0.462	0.228	0.007	0.025
Mof_H 	H 	0.4698	0.2698	0.0321	0.41
Mof_H 	H 	0.4846	0.2039	0.9988	0.045
Mof_H 	H 	0.4464	0.2604	0.9823	0.085
Mof_C 	C 	0.5	0.324	0.9394	-0.069
Mof_C 	C 	0.544	0.307	0.952	-0.349
Mof_H 	H 	0.5544	0.3052	0.9254	0.152
Mof_C 	C 	0.5648	0.373	0.984	0.277
Mof_H 	H 	0.5906	0.3811	0.9795	-0.07
Mof_H 	H 	0.5669	0.3502	0.0145	0.01
Mof_C 	C 	0.544	0.465	0.979	-0.16
Mof_H 	H 	0.5596	0.5123	0.9976	0.104
Mof_H 	H 	0.5389	0.4857	0.9479	0.086
Mof_C 	C 	0.508	0.447	0.994	-0.054
Mof_C 	C 	0.4897	0.367	0.9813	0.093
Mof_C 	C 	0.461	0.335	0.996	-0.166
Mof_H 	H 	0.4484	0.2795	0.9858	-0.034
Mof_C 	C 	0.45	0.387	0.029	-0.124
Mof_H 	H 	0.4348	0.3613	0.0475	0.064
Mof_C 	C 	0.461	0.478	0.034	-0.012
Mof_H 	H 	0.4464	0.5204	0.0464	0.018
Mof_C 	C 	0.493	0.51	0.02	0.126
Mof_C 	C 	0.48	0.338	0.8891	0.349
Mof_O 	O 	0.469	0.327	0.848	0.22
Mof_O 	O 	0.451	0.4	0.878	-0.914
Mof_C 	C 	0.412	0.414	0.86	-0.717
Mof_H 	H 	0.4057	0.4792	0.8605	0.2
Mof_H 	H 	0.4053	0.3922	0.8294	0.283
Mof_H 	H 	0.3968	0.3803	0.8771	0.254
Mof_O 	O 	0.529	0.219	0.959	-0.387
Mof_O 	O 	0.49	0.604	0.007	-0.035
Mof_C 	C 	0.497	0.7	0.008	0.542
Mof_H 	H 	0.4818	0.7277	0.9811	3.516
Mof_H 	H 	0.4891	0.7264	0.0336	-0.306
Mof_H 	H 	0.5236	0.7124	0.0103	-3.869
Mof_C 	C 	0.4805	0.34	0.838	-0.345
Mof_H 	H 	0.4832	0.3211	0.8082	0.131
Mof_H 	H 	0.5029	0.377	0.8516	0.108
Mof_C 	C 	0.444	0.398	0.8336	-0.38
Mof_H 	H 	0.4436	0.4284	0.8618	0.915
Mof_H 	H 	0.442	0.4449	0.8105	0.112
Mof_C 	C 	0.4117	0.33	0.821	-0.019
Mof_H 	H 	0.39	0.3571	0.8005	-0.023
Mof_H 	H 	0.4032	0.3104	0.8481	0.056
Mof_C 	C 	0.427	0.248	0.8005	-0.16
Mof_H 	H 	0.4393	0.2701	0.7775	0.084
Mof_H 	H 	0.4052	0.2093	0.7859	0.098
Mof_C 	C 	0.455	0.187	0.832	0.062
Mof_H 	H 	0.4722	0.1547	0.817	0.004
Mof_H 	H 	0.4418	0.1418	0.847	0.015
Mof_C 	C 	0.477	0.256	0.866	-0.326
Mof_H 	H 	0.4633	0.2707	0.8892	0.093
Mof_H 	H 	0.5026	0.2321	0.8806	0.139
_end
