data_functionalizedCrystal
_audit_creation_method	'EQeq! by Chris Wilmer'
_symmetry_space_group_name_H-M	'P1'
_symmetry_Int_Tables_number	1
_symmetry_cell_setting	triclinic
loop_
_symmetry_equiv_pos_as_xyz
  x,y,z
_cell_length_a	10.9249
_cell_length_b	12.6148
_cell_length_c	29.957
_cell_angle_alpha	90.7705
_cell_angle_beta	90
_cell_angle_gamma	90
loop_
_atom_site_label
_atom_site_type_symbol
_atom_site_fract_x
_atom_site_fract_y
_atom_site_fract_z
_atom_site_charge
Mof_Cu	Cu	0.08781	0.00368	0.3184	0.881
Mof_Cu	Cu	0.58781	0.49632	0.1816	0.893
Mof_Cu	Cu	0.91219	0.99632	0.6816	0.902
Mof_Cu	Cu	0.41219	0.50368	0.8184	0.893
Mof_Cu	Cu	0.5	0.5	0.5	0.859
Mof_Cu	Cu	-0	0	-0	0.836
Mof_H 	H 	0.184	0.86	0.3934	0.067
Mof_H 	H 	0.3645	0.6163	0.3331	0.115
Mof_H 	H 	0.2254	0.8611	0.2628	0.062
Mof_H 	H 	0.4523	0.5971	0.4027	0.004
Mof_H 	H 	0.2527	0.6322	0.5117	0.023
Mof_H 	H 	0.1549	0.7406	0.4534	0.056
Mof_H 	H 	0.4899	0.5986	0.2709	0.009
Mof_H 	H 	0.3549	0.6325	0.1502	0.034
Mof_H 	H 	0.2278	0.7381	0.2014	0.042
Mof_H 	H 	0.2611	0.1103	0.2621	0.064
Mof_H 	H 	0.4775	0.3065	0.3351	0.134
Mof_H 	H 	0.2365	0.1077	0.3938	0.063
Mof_H 	H 	0.4734	0.4061	0.2695	0.011
Mof_H 	H 	0.504	0.2583	0.1526	0.035
Mof_H 	H 	0.4128	0.1313	0.2044	0.049
Mof_H 	H 	0.4453	0.4061	0.4015	0.008
Mof_H 	H 	0.4304	0.2574	0.5163	0.025
Mof_H 	H 	0.3646	0.1299	0.4582	0.04
Mof_H 	H 	0.684	0.64	0.1066	0.064
Mof_H 	H 	0.8645	0.8837	0.1669	0.123
Mof_H 	H 	0.7254	0.6389	0.2372	0.063
Mof_H 	H 	0.9523	0.9029	0.0973	0.013
Mof_H 	H 	0.7527	0.8678	0.9883	0.046
Mof_H 	H 	0.6549	0.7594	0.0466	0.052
Mof_H 	H 	0.9899	0.9014	0.2291	0.018
Mof_H 	H 	0.8549	0.8675	0.3498	0.043
Mof_H 	H 	0.7278	0.7619	0.2986	0.045
Mof_H 	H 	0.7611	0.3897	0.2379	0.071
Mof_H 	H 	0.9775	0.1935	0.1649	0.14
Mof_H 	H 	0.7365	0.3923	0.1062	0.065
Mof_H 	H 	0.9734	0.0939	0.2305	0.007
Mof_H 	H 	0.004	0.2417	0.3474	0.003
Mof_H 	H 	0.9128	0.3687	0.2956	0.066
Mof_H 	H 	0.9453	0.0939	0.0985	0.009
Mof_H 	H 	0.9304	0.2426	0.9837	0.049
Mof_H 	H 	0.8646	0.3701	0.0418	0.039
Mof_H 	H 	0.816	0.14	0.6066	0.061
Mof_H 	H 	0.6355	0.3837	0.6669	0.116
Mof_H 	H 	0.7746	0.1389	0.7372	0.062
Mof_H 	H 	0.5477	0.4029	0.5973	0.003
Mof_H 	H 	0.7473	0.3678	0.4883	0.027
Mof_H 	H 	0.8451	0.2594	0.5466	0.06
Mof_H 	H 	0.5101	0.4014	0.7291	0.009
Mof_H 	H 	0.6451	0.3675	0.8498	0.037
Mof_H 	H 	0.7722	0.2619	0.7986	0.047
Mof_H 	H 	0.7389	0.8897	0.7379	0.075
Mof_H 	H 	0.5225	0.6935	0.6649	0.134
Mof_H 	H 	0.7635	0.8923	0.6062	0.066
Mof_H 	H 	0.5266	0.5939	0.7305	0.012
Mof_H 	H 	0.496	0.7417	0.8474	0.039
Mof_H 	H 	0.5872	0.8687	0.7956	0.057
Mof_H 	H 	0.5547	0.5939	0.5985	0.008
Mof_H 	H 	0.5696	0.7426	0.4837	0.029
Mof_H 	H 	0.6354	0.8701	0.5418	0.047
Mof_H 	H 	0.316	0.36	0.8934	0.063
Mof_H 	H 	0.1355	0.1163	0.8331	0.109
Mof_H 	H 	0.2746	0.3611	0.7628	0.061
Mof_H 	H 	0.0477	0.0971	0.9027	-0.004
Mof_H 	H 	0.2473	0.1322	0.0117	0
Mof_H 	H 	0.3451	0.2406	0.9534	0.064
Mof_H 	H 	0.0101	0.0986	0.7709	-0.001
Mof_H 	H 	0.1451	0.1325	0.6502	0.028
Mof_H 	H 	0.2722	0.2381	0.7014	0.043
Mof_H 	H 	0.2389	0.6103	0.7621	0.07
Mof_H 	H 	0.0225	0.8065	0.8351	0.13
Mof_H 	H 	0.2635	0.6077	0.8938	0.065
Mof_H 	H 	0.0266	0.9061	0.7695	0.016
Mof_H 	H 	0.996	0.7583	0.6526	0.062
Mof_H 	H 	0.0872	0.6313	0.7044	0.043
Mof_H 	H 	0.0547	0.9061	0.9015	0.01
Mof_H 	H 	0.0696	0.7574	0.0163	0.007
Mof_H 	H 	0.1354	0.6299	0.9582	0.048
Mof_C 	C 	0.2137	0.82645	0.36695	-0.047
Mof_C 	C 	0.278	0.73168	0.37008	0.124
Mof_C 	C 	0.3219	0.68181	0.33181	-0.171
Mof_C 	C 	0.3009	0.73186	0.29166	0.126
Mof_C 	C 	0.2372	0.82708	0.29058	-0.055
Mof_C 	C 	0.3901	0.61939	0.42289	0.1
Mof_C 	C 	0.281	0.63912	0.48192	0.012
Mof_C 	C 	0.2266	0.69844	0.45024	0.003
Mof_C 	C 	0.4404	0.62082	0.24672	0.104
Mof_C 	C 	0.3667	0.63922	0.18152	0.014
Mof_C 	C 	0.2973	0.6971	0.2092	0.013
Mof_C 	C 	0.2866	0.13713	0.29033	-0.066
Mof_C 	C 	0.3748	0.21479	0.29239	0.137
Mof_C 	C 	0.4152	0.25406	0.33326	-0.182
Mof_C 	C 	0.3614	0.21391	0.37111	0.132
Mof_C 	C 	0.2722	0.13543	0.36753	-0.055
Mof_C 	C 	0.4686	0.35364	0.24644	0.107
Mof_C 	C 	0.4848	0.27223	0.18303	0.016
Mof_C 	C 	0.4357	0.20241	0.21111	0.015
Mof_C 	C 	0.4332	0.35305	0.42325	0.104
Mof_C 	C 	0.4246	0.27164	0.48534	0.004
Mof_C 	C 	0.389	0.20128	0.45378	0.014
Mof_C 	C 	0.7137	0.67355	0.13305	-0.048
Mof_C 	C 	0.778	0.76832	0.12992	0.128
Mof_C 	C 	0.8219	0.81819	0.16819	-0.173
Mof_C 	C 	0.8009	0.76814	0.20834	0.131
Mof_C 	C 	0.7372	0.67292	0.20942	-0.055
Mof_C 	C 	0.8901	0.88061	0.07711	0.102
Mof_C 	C 	0.781	0.86088	0.01808	-0.01
Mof_C 	C 	0.7266	0.80156	0.04976	0.016
Mof_C 	C 	0.9404	0.87918	0.25328	0.107
Mof_C 	C 	0.8667	0.86078	0.31848	0.018
Mof_C 	C 	0.7973	0.8029	0.2908	0.016
Mof_C 	C 	0.7866	0.36287	0.20967	-0.065
Mof_C 	C 	0.8748	0.28521	0.20761	0.142
Mof_C 	C 	0.9152	0.24594	0.16674	-0.184
Mof_C 	C 	0.8614	0.28609	0.12889	0.137
Mof_C 	C 	0.7722	0.36457	0.13247	-0.054
Mof_C 	C 	0.9686	0.14636	0.25356	0.128
Mof_C 	C 	0.9848	0.22777	0.31697	0.082
Mof_C 	C 	0.9357	0.29759	0.28889	-0.012
Mof_C 	C 	0.9332	0.14695	0.07675	0.105
Mof_C 	C 	0.9246	0.22836	0.01466	-0.022
Mof_C 	C 	0.889	0.29872	0.04622	0.029
Mof_C 	C 	0.7863	0.17355	0.63305	-0.046
Mof_C 	C 	0.722	0.26832	0.62992	0.124
Mof_C 	C 	0.6781	0.31819	0.66819	-0.171
Mof_C 	C 	0.6991	0.26814	0.70834	0.127
Mof_C 	C 	0.7628	0.17292	0.70942	-0.054
Mof_C 	C 	0.6099	0.38061	0.57711	0.099
Mof_C 	C 	0.719	0.36088	0.51808	0.013
Mof_C 	C 	0.7734	0.30156	0.54976	0.003
Mof_C 	C 	0.5596	0.37918	0.75328	0.105
Mof_C 	C 	0.6333	0.36078	0.81848	0.016
Mof_C 	C 	0.7027	0.3029	0.7908	0.014
Mof_C 	C 	0.7134	0.86287	0.70967	-0.063
Mof_C 	C 	0.6252	0.78521	0.70761	0.142
Mof_C 	C 	0.5848	0.74594	0.66674	-0.181
Mof_C 	C 	0.6386	0.78609	0.62889	0.135
Mof_C 	C 	0.7278	0.86457	0.63247	-0.052
Mof_C 	C 	0.5314	0.64636	0.75356	0.109
Mof_C 	C 	0.5152	0.72777	0.81697	0.019
Mof_C 	C 	0.5643	0.79759	0.78889	0.018
Mof_C 	C 	0.5668	0.64695	0.57675	0.105
Mof_C 	C 	0.5754	0.72836	0.51466	0.007
Mof_C 	C 	0.611	0.79872	0.54622	0.015
Mof_C 	C 	0.2863	0.32645	0.86695	-0.046
Mof_C 	C 	0.222	0.23168	0.87008	0.12
Mof_C 	C 	0.1781	0.18181	0.83181	-0.169
Mof_C 	C 	0.1991	0.23186	0.79166	0.122
Mof_C 	C 	0.2628	0.32708	0.79058	-0.055
Mof_C 	C 	0.1099	0.11939	0.92289	0.096
Mof_C 	C 	0.219	0.13912	0.98192	0.04
Mof_C 	C 	0.2734	0.19844	0.95024	-0.013
Mof_C 	C 	0.0596	0.12082	0.74672	0.101
Mof_C 	C 	0.1333	0.13922	0.68152	0.012
Mof_C 	C 	0.2027	0.1971	0.7092	0.01
Mof_C 	C 	0.2134	0.63713	0.79033	-0.064
Mof_C 	C 	0.1252	0.71479	0.79239	0.138
Mof_C 	C 	0.0848	0.75406	0.83326	-0.18
Mof_C 	C 	0.1386	0.71391	0.87111	0.132
Mof_C 	C 	0.2278	0.63543	0.86753	-0.053
Mof_C 	C 	0.0314	0.85364	0.74644	0.095
Mof_C 	C 	0.0152	0.77223	0.68303	-0.029
Mof_C 	C 	0.0643	0.70241	0.71111	0.036
Mof_C 	C 	0.0668	0.85305	0.92325	0.105
Mof_C 	C 	0.0754	0.77164	0.98534	0.033
Mof_C 	C 	0.111	0.70128	0.95378	0.001
Mof_S 	S 	0.0002	0.0091	0.4339	0.366
Mof_S 	S 	0.5002	0.4909	0.0661	0.398
Mof_S 	S 	0.9998	0.9909	0.5661	0.427
Mof_S 	S 	0.4998	0.5091	0.9339	0.409
Mof_N 	N 	0.1928	0.87149	0.32739	-0.167
Mof_N 	N 	0.2974	0.6849	0.4124	-0.137
Mof_N 	N 	0.3831	0.59052	0.46462	-0.226
Mof_N 	N 	0.3454	0.6861	0.2509	-0.141
Mof_N 	N 	0.4572	0.59112	0.20512	-0.218
Mof_N 	N 	0.2361	0.09845	0.32755	-0.173
Mof_N 	N 	0.4251	0.25425	0.25185	-0.138
Mof_N 	N 	0.5032	0.36761	0.20501	-0.214
Mof_N 	N 	0.3949	0.25322	0.41382	-0.141
Mof_N 	N 	0.4512	0.36745	0.46595	-0.226
Mof_N 	N 	0.6928	0.62851	0.17261	-0.17
Mof_N 	N 	0.7974	0.8151	0.0876	-0.138
Mof_N 	N 	0.8831	0.90948	0.03538	-0.214
Mof_N 	N 	0.8454	0.8139	0.2491	-0.14
Mof_N 	N 	0.9572	0.90888	0.29488	-0.208
Mof_N 	N 	0.7361	0.40155	0.17245	-0.169
Mof_N 	N 	0.9251	0.24575	0.24815	-0.135
Mof_N 	N 	0.0032	0.13239	0.29499	-0.244
Mof_N 	N 	0.8949	0.24678	0.08618	-0.142
Mof_N 	N 	0.9512	0.13255	0.03405	-0.219
Mof_N 	N 	0.8072	0.12851	0.67261	-0.172
Mof_N 	N 	0.7026	0.3151	0.5876	-0.137
Mof_N 	N 	0.6169	0.40948	0.53538	-0.226
Mof_N 	N 	0.6546	0.3139	0.7491	-0.14
Mof_N 	N 	0.5428	0.40888	0.79488	-0.218
Mof_N 	N 	0.7639	0.90155	0.67245	-0.167
Mof_N 	N 	0.5749	0.74575	0.74815	-0.137
Mof_N 	N 	0.4968	0.63239	0.79499	-0.213
Mof_N 	N 	0.6051	0.74678	0.58618	-0.14
Mof_N 	N 	0.5488	0.63255	0.53405	-0.225
Mof_N 	N 	0.3072	0.37149	0.82739	-0.172
Mof_N 	N 	0.2026	0.1849	0.9124	-0.136
Mof_N 	N 	0.1169	0.09052	0.96462	-0.232
Mof_N 	N 	0.1546	0.1861	0.7509	-0.141
Mof_N 	N 	0.0428	0.09112	0.70512	-0.229
Mof_N 	N 	0.2639	0.59845	0.82755	-0.17
Mof_N 	N 	0.0749	0.75425	0.75185	-0.139
Mof_N 	N 	0.9968	0.86761	0.70501	-0.192
Mof_N 	N 	0.1051	0.75322	0.91382	-0.138
Mof_N 	N 	0.0488	0.86745	0.96595	-0.223
Mof_O 	O 	0.0189	0.01699	0.38649	-0.357
Mof_O 	O 	0.0995	0.09	0.4612	-0.191
Mof_O 	O 	0.0348	0.9093	0.4546	-0.209
Mof_O 	O 	0.5189	0.48301	0.11351	-0.352
Mof_O 	O 	0.5995	0.41	0.0388	-0.19
Mof_O 	O 	0.5348	0.5907	0.0454	-0.226
Mof_O 	O 	0.9811	0.98301	0.61351	-0.348
Mof_O 	O 	0.9005	0.91	0.5388	-0.181
Mof_O 	O 	0.9652	0.0907	0.5454	-0.23
Mof_O 	O 	0.4811	0.51699	0.88649	-0.352
Mof_O 	O 	0.4005	0.59	0.9612	-0.182
Mof_O 	O 	0.4652	0.4093	0.9546	-0.223
Mof_S 	S 	0.6672	0.47971	0.32811	0.692
Mof_O 	O 	0.5303	0.49062	0.33922	-0.286
Mof_O 	O 	0.6901	0.51252	0.28482	-0.341
Mof_O 	O 	0.6722	0.3644	0.3249	-0.283
Mof_O 	O 	0.75	0.5255	0.3595	-0.293
Mof_S 	S 	0.1672	0.02029	0.17189	0.627
Mof_O 	O 	0.0303	0.00938	0.16078	-0.301
Mof_O 	O 	0.1901	0.98748	0.21518	-0.311
Mof_O 	O 	0.1722	0.1356	0.1751	-0.281
Mof_O 	O 	0.25	0.9745	0.1405	-0.268
Mof_S 	S 	0.3328	0.52029	0.67189	0.693
Mof_O 	O 	0.4697	0.50938	0.66078	-0.286
Mof_O 	O 	0.3099	0.48748	0.71518	-0.343
Mof_O 	O 	0.3278	0.6356	0.6751	-0.284
Mof_O 	O 	0.25	0.4745	0.6405	-0.3
Mof_S 	S 	0.8328	0.97971	0.82811	0.73
Mof_O 	O 	0.9697	0.99062	0.83922	-0.273
Mof_O 	O 	0.8099	0.01252	0.78482	-0.357
Mof_O 	O 	0.8278	0.8644	0.8249	-0.283
Mof_O 	O 	0.75	0.0255	0.8595	-0.311
_end
