data_functionalizedCrystal
_audit_creation_method	'EQeq! by Chris Wilmer'
_symmetry_space_group_name_H-M	'P1'
_symmetry_Int_Tables_number	1
_symmetry_cell_setting	triclinic
loop_
_symmetry_equiv_pos_as_xyz
  x,y,z
_cell_length_a	14.8228
_cell_length_b	14.8228
_cell_length_c	11.7919
_cell_angle_alpha	90
_cell_angle_beta	90
_cell_angle_gamma	90
loop_
_atom_site_label
_atom_site_type_symbol
_atom_site_fract_x
_atom_site_fract_y
_atom_site_fract_z
_atom_site_charge
Mof_O 	O 	0.60387	0.28645	0.7539	-1.396
Mof_O 	O 	0.62488	0.37919	0.60604	-1.288
Mof_C 	C 	0.58992	0.35603	0.69874	1.037
Mof_C 	C 	0.53881	0.42876	0.76206	-0.358
Mof_C 	C 	0.53767	0.42905	0.88125	0.058
Mof_H 	H 	0.57318	0.38162	0.90735	0.027
Mof_O 	O 	0.10387	0.78645	0.2539	-1.37
Mof_O 	O 	0.12488	0.87919	0.10604	-1.191
Mof_C 	C 	0.08992	0.85603	0.19874	1.005
Mof_C 	C 	0.03881	0.92876	0.26206	-0.423
Mof_C 	C 	0.03767	0.92905	0.38125	0.267
Mof_H 	H 	0.07318	0.88162	0.40735	-0.087
Mof_O 	O 	0.89613	0.21355	0.2539	-1.372
Mof_O 	O 	0.87512	0.12081	0.10604	-1.201
Mof_C 	C 	0.91008	0.14397	0.19874	1.006
Mof_C 	C 	0.96119	0.07124	0.26206	-0.444
Mof_C 	C 	0.96233	0.07095	0.38125	0.238
Mof_H 	H 	0.92682	0.11838	0.40735	-0.081
Mof_O 	O 	0.39613	0.71355	0.7539	-1.393
Mof_O 	O 	0.37512	0.62081	0.60604	-1.289
Mof_C 	C 	0.41008	0.64397	0.69874	1.038
Mof_C 	C 	0.46119	0.57124	0.76206	-0.357
Mof_C 	C 	0.46233	0.57095	0.88125	0.06
Mof_H 	H 	0.42682	0.61838	0.90735	0.028
Mof_O 	O 	0.71355	0.10387	0.0039	-1.506
Mof_O 	O 	0.62081	0.12488	0.85604	-1.393
Mof_C 	C 	0.64397	0.08992	0.94874	1.547
Mof_C 	C 	0.57124	0.03881	0.01206	-1.232
Mof_C 	C 	0.57095	0.03767	0.13125	0.766
Mof_H 	H 	0.61838	0.07318	0.15735	-0.264
Mof_O 	O 	0.21355	0.60387	0.5039	-1.417
Mof_O 	O 	0.12081	0.62488	0.35604	-1.299
Mof_C 	C 	0.14397	0.58992	0.44874	1.098
Mof_C 	C 	0.07124	0.53881	0.51206	-0.559
Mof_C 	C 	0.07095	0.53767	0.63125	0.412
Mof_H 	H 	0.11838	0.57318	0.65735	-0.141
Mof_O 	O 	0.78645	0.39613	0.5039	-1.415
Mof_O 	O 	0.87919	0.37512	0.35604	-1.298
Mof_C 	C 	0.85603	0.41008	0.44874	1.097
Mof_C 	C 	0.92876	0.46119	0.51206	-0.554
Mof_C 	C 	0.92905	0.46233	0.63125	0.419
Mof_H 	H 	0.88162	0.42682	0.65735	-0.143
Mof_O 	O 	0.28645	0.89613	0.0039	-1.506
Mof_O 	O 	0.37919	0.87512	0.85604	-1.385
Mof_C 	C 	0.35603	0.91008	0.94874	1.56
Mof_C 	C 	0.42876	0.96119	0.01206	-1.215
Mof_C 	C 	0.42905	0.96233	0.13125	0.804
Mof_H 	H 	0.38162	0.92682	0.15735	-0.271
Mof_O 	O 	0.89613	0.28645	0.9961	-0.992
Mof_O 	O 	0.87512	0.37919	0.14396	-1.134
Mof_C 	C 	0.91008	0.35603	0.05126	0.44
Mof_C 	C 	0.96119	0.42876	0.98794	0.413
Mof_C 	C 	0.96233	0.42905	0.86875	-0.372
Mof_H 	H 	0.92682	0.38162	0.84265	0.135
Mof_O 	O 	0.39613	0.78645	0.4961	-1.401
Mof_O 	O 	0.37512	0.87919	0.64396	-1.277
Mof_C 	C 	0.41008	0.85603	0.55126	1.035
Mof_C 	C 	0.46119	0.92876	0.48794	-0.339
Mof_C 	C 	0.46233	0.92905	0.36875	0.108
Mof_H 	H 	0.42682	0.88162	0.34265	-0.03
Mof_O 	O 	0.60387	0.21355	0.4961	-1.404
Mof_O 	O 	0.62488	0.12081	0.64396	-1.288
Mof_C 	C 	0.58992	0.14397	0.55126	1.036
Mof_C 	C 	0.53881	0.07124	0.48794	-0.367
Mof_C 	C 	0.53767	0.07095	0.36875	0.073
Mof_H 	H 	0.57318	0.11838	0.34265	-0.023
Mof_O 	O 	0.10387	0.71355	0.9961	-0.989
Mof_O 	O 	0.12488	0.62081	0.14396	-1.136
Mof_C 	C 	0.08992	0.64397	0.05126	0.441
Mof_C 	C 	0.03881	0.57124	0.98794	0.408
Mof_C 	C 	0.03767	0.57095	0.86875	-0.378
Mof_H 	H 	0.07318	0.61838	0.84265	0.137
Mof_O 	O 	0.78645	0.10387	0.7461	-1.385
Mof_O 	O 	0.87919	0.12488	0.89396	-1.11
Mof_C 	C 	0.85603	0.08992	0.80126	1.005
Mof_C 	C 	0.92876	0.03881	0.73794	-0.394
Mof_C 	C 	0.92905	0.03767	0.61875	0.207
Mof_H 	H 	0.88162	0.07318	0.59265	-0.071
Mof_O 	O 	0.28645	0.60387	0.2461	-1.413
Mof_O 	O 	0.37919	0.62488	0.39396	-1.307
Mof_C 	C 	0.35603	0.58992	0.30126	1.098
Mof_C 	C 	0.42876	0.53881	0.23794	-0.564
Mof_C 	C 	0.42905	0.53767	0.11875	0.397
Mof_H 	H 	0.38162	0.57318	0.09265	-0.173
Mof_O 	O 	0.71355	0.39613	0.2461	-1.411
Mof_O 	O 	0.62081	0.37512	0.39396	-1.307
Mof_C 	C 	0.64397	0.41008	0.30126	1.098
Mof_C 	C 	0.57124	0.46119	0.23794	-0.564
Mof_C 	C 	0.57095	0.46233	0.11875	0.398
Mof_H 	H 	0.61838	0.42682	0.09265	-0.172
Mof_O 	O 	0.21355	0.89613	0.7461	-1.379
Mof_O 	O 	0.12081	0.87512	0.89396	-1.099
Mof_C 	C 	0.14397	0.91008	0.80126	1.005
Mof_C 	C 	0.07124	0.96119	0.73794	-0.37
Mof_C 	C 	0.07095	0.96233	0.61875	0.239
Mof_H 	H 	0.11838	0.92682	0.59265	-0.076
Mof_Al	Al	0.69415	0.30585	0.5	5.447
Mof_Al	Al	0.19415	0.80585	-0	4.644
Mof_Al	Al	0.80585	0.19415	-0	4.652
Mof_Al	Al	0.30585	0.69415	0.5	5.452
Mof_Al	Al	0.69415	0.19415	0.75	5.49
Mof_Al	Al	0.19415	0.69415	0.25	5.319
Mof_Al	Al	0.80585	0.30585	0.25	5.316
Mof_Al	Al	0.30585	0.80585	0.75	5.495
Mof_O 	O 	0.75552	0.25	0.625	-2.431
Mof_H 	H 	0.81486	0.25	0.625	0.724
Mof_O 	O 	0.25552	0.75	0.125	-2.255
Mof_H 	H 	0.31486	0.75	0.125	0.666
Mof_O 	O 	0.74448	0.25	0.125	-2.256
Mof_H 	H 	0.68514	0.25	0.125	0.665
Mof_O 	O 	0.24448	0.75	0.625	-2.433
Mof_H 	H 	0.18514	0.75	0.625	0.726
Mof_O 	O 	0.75	0.25552	0.875	-2.237
Mof_H 	H 	0.75	0.31486	0.875	0.693
Mof_O 	O 	0.25	0.75552	0.375	-2.398
Mof_H 	H 	0.25	0.81486	0.375	0.72
Mof_O 	O 	0.75	0.24448	0.375	-2.397
Mof_H 	H 	0.75	0.18514	0.375	0.716
Mof_O 	O 	0.25	0.74448	0.875	-2.236
Mof_H 	H 	0.25	0.68514	0.875	0.692
Mof_C 	C 	0.5	0.5	0.70562	0.313
Mof_C 	C 	0.5	0.5	0.93719	0.166
Mof_H 	H 	0.5	0.5	0.629	-0.054
Mof_C 	C 	1.83122e-33	3.65374e-33	0.20562	0.336
Mof_C 	C 	1.30402e-33	2.43583e-33	0.43719	-0.207
Mof_H 	H 	3.84773e-34	0	0.129	-0.106
Mof_C 	C 	0.5	0	0.95562	1.377
Mof_C 	C 	0.5	0	0.18719	-0.656
Mof_H 	H 	0.5	4.87165e-33	0.879	-0.424
Mof_C 	C 	6.23065e-33	0.5	0.45562	0.501
Mof_C 	C 	1.1793e-32	0.5	0.68719	-0.432
Mof_H 	H 	3.56628e-33	0.5	0.379	-0.138
Mof_C 	C 	4.39507e-33	0.5	0.04438	-0.707
Mof_C 	C 	7.29605e-33	0.5	0.81281	0.361
Mof_H 	H 	2.79674e-33	0.5	0.121	0.288
Mof_C 	C 	0.5	4.87165e-33	0.54438	0.262
Mof_C 	C 	0.5	0	0.31281	0.04
Mof_H 	H 	0.5	4.87165e-33	0.621	-0.036
Mof_C 	C 	7.24108e-33	0	0.79438	0.284
Mof_C 	C 	1.67872e-33	0	0.56281	-0.176
Mof_H 	H 	2.59797e-33	4.87165e-33	0.871	-0.031
Mof_C 	C 	0.5	0.5	0.29438	0.503
Mof_C 	C 	0.5	0.5	0.06281	-0.48
Mof_H 	H 	0.5	0.5	0.371	-0.125
_end
