data_functionalizedCrystal
_audit_creation_method	'EQeq! by Chris Wilmer'
_symmetry_space_group_name_H-M	'P1'
_symmetry_Int_Tables_number	1
_symmetry_cell_setting	triclinic
loop_
_symmetry_equiv_pos_as_xyz
  x,y,z
_cell_length_a	11.3805
_cell_length_b	9.8406
_cell_length_c	14.5057
_cell_angle_alpha	90
_cell_angle_beta	91.429
_cell_angle_gamma	90
loop_
_atom_site_label
_atom_site_type_symbol
_atom_site_fract_x
_atom_site_fract_y
_atom_site_fract_z
_atom_site_charge
Mof_Mg	Mg	0.25647	0.41905	0.63437	1.478
Mof_Mg	Mg	0.23929	0.60922	0.8106	1.481
Mof_O 	O 	0.13109	0.50375	0.71982	-0.594
Mof_O 	O 	0.9631	0.50172	0.63788	-0.329
Mof_O 	O 	0.15722	0.24187	0.61046	-0.708
Mof_O 	O 	0.01837	0.29229	0.50396	-0.573
Mof_O 	O 	0.39986	0.34726	0.56333	-0.673
Mof_O 	O 	0.39008	0.12511	0.59708	-0.564
Mof_O 	O 	0.30748	0.29732	0.74687	-0.668
Mof_O 	O 	0.31286	0.44012	0.86741	-0.479
Mof_O 	O 	0.18277	0.52389	0.52466	-0.682
Mof_O 	O 	0.34981	0.60195	0.46589	-0.525
Mof_O 	O 	0.34829	0.57942	0.69661	-0.671
Mof_O 	O 	0.51428	0.61049	0.61969	-0.494
Mof_C 	C 	0.02053	0.51646	0.71069	0.222
Mof_H 	H 	0.9792	0.5387	0.7631	0.065
Mof_C 	C 	0.07663	0.21114	0.55138	0.612
Mof_H 	H 	0.0602	0.1193	0.5432	-0.212
Mof_C 	C 	0.43339	0.22355	0.55705	0.58
Mof_H 	H 	0.4961	0.206	0.5189	-0.154
Mof_C 	C 	0.32876	0.32743	0.83125	0.563
Mof_H 	H 	0.3589	0.2588	0.869	-0.106
Mof_C 	C 	0.24174	0.59788	0.4697	0.588
Mof_H 	H 	0.1993	0.6534	0.4291	-0.141
Mof_C 	C 	0.44822	0.63435	0.68384	0.588
Mof_H 	H 	0.4736	0.6985	0.727	-0.125
Mof_Mg	Mg	0.24353	0.91905	0.86563	1.491
Mof_Mg	Mg	0.26071	0.10922	0.6894	1.475
Mof_O 	O 	0.36891	0.00375	0.78018	-0.743
Mof_O 	O 	0.5369	0.00172	0.86212	-0.541
Mof_O 	O 	0.34278	0.74187	0.88954	-0.622
Mof_O 	O 	0.48163	0.79229	0.99604	-0.388
Mof_O 	O 	0.10014	0.84726	0.93667	-0.577
Mof_O 	O 	0.10992	0.62511	0.90292	-0.499
Mof_O 	O 	0.19252	0.79732	0.75313	-0.64
Mof_O 	O 	0.18714	0.94012	0.63259	-0.427
Mof_O 	O 	0.31723	0.02389	0.97534	-0.55
Mof_O 	O 	0.15019	0.10195	0.03411	-0.599
Mof_O 	O 	0.15171	0.07942	0.80339	-0.679
Mof_O 	O 	0.98572	0.11049	0.88031	-0.373
Mof_C 	C 	0.47947	0.01646	0.78931	0.609
Mof_H 	H 	0.5208	0.0387	0.7369	-0.166
Mof_C 	C 	0.42337	0.71114	0.94862	0.558
Mof_H 	H 	0.4398	0.6193	0.9568	-0.084
Mof_C 	C 	0.06661	0.72355	0.94295	0.538
Mof_H 	H 	0.0039	0.706	0.9811	-0.099
Mof_C 	C 	0.17124	0.82743	0.66875	0.56
Mof_H 	H 	0.1411	0.7588	0.631	-0.145
Mof_C 	C 	0.25826	0.09788	0.0303	0.318
Mof_H 	H 	0.3007	0.1534	0.0709	-0.105
Mof_C 	C 	0.05178	0.13435	0.81616	0.422
Mof_H 	H 	0.0264	0.1985	0.773	-0.126
Mof_Mg	Mg	0.74353	0.58095	0.36563	1.479
Mof_Mg	Mg	0.76071	0.39078	0.1894	1.482
Mof_O 	O 	0.86891	0.49625	0.28018	-0.768
Mof_O 	O 	0.0369	0.49828	0.36212	-0.693
Mof_O 	O 	0.84278	0.75813	0.38954	-0.637
Mof_O 	O 	0.98163	0.70771	0.49604	-0.435
Mof_O 	O 	0.60014	0.65274	0.43667	-0.654
Mof_O 	O 	0.60992	0.87489	0.40292	-0.461
Mof_O 	O 	0.69252	0.70268	0.25313	-0.674
Mof_O 	O 	0.68714	0.55988	0.13259	-0.538
Mof_O 	O 	0.81723	0.47611	0.47534	-0.647
Mof_O 	O 	0.65019	0.39805	0.53411	-0.522
Mof_O 	O 	0.65171	0.42058	0.30339	-0.678
Mof_O 	O 	0.48572	0.38951	0.38031	-0.531
Mof_C 	C 	0.97947	0.48354	0.28931	0.976
Mof_H 	H 	0.0208	0.4613	0.2369	-0.348
Mof_C 	C 	0.92337	0.78886	0.44862	0.557
Mof_H 	H 	0.9398	0.8807	0.4568	-0.056
Mof_C 	C 	0.56661	0.77645	0.44295	0.546
Mof_H 	H 	0.5039	0.794	0.4811	-0.098
Mof_C 	C 	0.67124	0.67257	0.16875	0.583
Mof_H 	H 	0.6411	0.7412	0.131	-0.176
Mof_C 	C 	0.75826	0.40212	0.5303	0.573
Mof_H 	H 	0.8007	0.3466	0.5709	-0.122
Mof_C 	C 	0.55178	0.36565	0.31616	0.596
Mof_H 	H 	0.5264	0.3015	0.273	-0.185
Mof_Mg	Mg	0.75647	0.08095	0.13437	1.463
Mof_Mg	Mg	0.73929	0.89078	0.3106	1.486
Mof_O 	O 	0.63109	0.99625	0.21982	-0.612
Mof_O 	O 	0.4631	0.99828	0.13788	-0.461
Mof_O 	O 	0.65722	0.25813	0.11046	-0.728
Mof_O 	O 	0.51837	0.20771	0.00396	-0.627
Mof_O 	O 	0.89986	0.15274	0.06333	-0.748
Mof_O 	O 	0.89008	0.37489	0.09708	-0.525
Mof_O 	O 	0.80748	0.20268	0.24687	-0.706
Mof_O 	O 	0.81286	0.05988	0.36741	-0.595
Mof_O 	O 	0.68277	0.97611	0.02466	-0.732
Mof_O 	O 	0.84981	0.89805	0.96589	-0.435
Mof_O 	O 	0.84829	0.92058	0.19661	-0.657
Mof_O 	O 	0.01428	0.88951	0.11969	-0.613
Mof_C 	C 	0.52053	0.98354	0.21069	0.582
Mof_H 	H 	0.4792	0.9613	0.2631	-0.111
Mof_C 	C 	0.57663	0.28886	0.05138	0.611
Mof_H 	H 	0.5602	0.3807	0.0432	-0.182
Mof_C 	C 	0.93339	0.27645	0.05705	0.586
Mof_H 	H 	0.9961	0.294	0.0189	-0.153
Mof_C 	C 	0.82876	0.17257	0.33125	0.587
Mof_H 	H 	0.8589	0.2412	0.369	-0.141
Mof_C 	C 	0.74174	0.90212	0.9697	0.782
Mof_H 	H 	0.6993	0.8466	0.9291	-0.145
Mof_C 	C 	0.94822	0.86565	0.18384	0.738
Mof_H 	H 	0.9736	0.8015	0.227	-0.174
Mof_Mg	Mg	2.4491e-33	0.5	0.5	1.474
Mof_Mg	Mg	0.5	0	-0	1.452
Mof_Mg	Mg	0.5	0.5	0.5	1.483
Mof_Mg	Mg	-0	0	-0	1.445
_end
