data_functionalizedCrystal
_audit_creation_method	'EQeq! by Chris Wilmer'
_symmetry_space_group_name_H-M	'P1'
_symmetry_Int_Tables_number	1
_symmetry_cell_setting	triclinic
loop_
_symmetry_equiv_pos_as_xyz
  x,y,z
_cell_length_a	28.6626
_cell_length_b	10.6905
_cell_length_c	28.2321
_cell_angle_alpha	90
_cell_angle_beta	111.522
_cell_angle_gamma	90
loop_
_atom_site_label
_atom_site_type_symbol
_atom_site_fract_x
_atom_site_fract_y
_atom_site_fract_z
_atom_site_charge
Mof_Zn	Zn	0.10915	0.22393	0.48011	1.19
Mof_O 	O 	0.15929	0.2122	0.55316	-0.45
Mof_N 	N 	0.27907	0.3738	0.80858	-0.133
Mof_N 	N 	0.14711	0.6647	0.94628	-0.287
Mof_C 	C 	0.19971	0.5396	0.895	0.083
Mof_C 	C 	0.22714	0.48	0.8655	0.035
Mof_C 	C 	0.30255	0.3977	0.85838	0.079
Mof_O 	O 	0.10797	0.3715	0.54225	-0.349
Mof_C 	C 	0.23025	0.4037	0.78658	0.079
Mof_C 	C 	0.27821	0.4498	0.88801	-0.118
Mof_H 	H 	0.2956	0.4645	0.9225	0.066
Mof_C 	C 	0.35681	0.3681	0.87985	0.027
Mof_C 	C 	0.20703	0.3771	0.73111	0.026
Mof_O 	O 	0.54234	0.3489	0.97732	-0.44
Mof_C 	C 	0.20321	0.4543	0.81363	-0.126
Mof_H 	H 	0.1692	0.4711	0.7974	0.07
Mof_C 	C 	0.14293	0.3019	0.57033	0.312
Mof_C 	C 	0.16487	0.3291	0.62664	-0.083
Mof_C 	C 	0.44062	0.4066	0.94103	0.01
Mof_H 	H 	0.462	0.4496	0.9693	0.05
Mof_C 	C 	0.38926	0.4331	0.92172	-0.081
Mof_H 	H 	0.3767	0.4947	0.937	0.05
Mof_C 	C 	0.45948	0.3168	0.91812	-0.089
Mof_O 	O 	0.53319	0.2167	0.9172	-0.386
Mof_C 	C 	0.37605	0.2763	0.85731	-0.087
Mof_H 	H 	0.3548	0.232	0.8294	0.068
Mof_C 	C 	0.20576	0.2612	0.65752	0.013
Mof_H 	H 	0.2192	0.1989	0.6434	0.044
Mof_C 	C 	0.16541	0.4436	0.70025	-0.087
Mof_H 	H 	0.1509	0.5036	0.7144	0.058
Mof_C 	C 	0.1452	0.4204	0.64778	0.014
Mof_H 	H 	0.1181	0.4675	0.6271	0.044
Mof_C 	C 	0.22687	0.2849	0.70924	-0.083
Mof_H 	H 	0.2545	0.2388	0.7295	0.069
Mof_C 	C 	0.42688	0.2509	0.8766	0.02
Mof_H 	H 	0.4395	0.1887	0.8615	0.037
Mof_C 	C 	0.51501	0.291	0.9382	0.336
Mof_C 	C 	0.22217	0.5965	0.9388	-0.177
Mof_H 	H 	0.257	0.5997	0.9529	0.085
Mof_C 	C 	0.19347	0.6527	0.9642	0.12
Mof_H 	H 	0.2105	0.6831	0.9969	-0.037
Mof_C 	C 	0.12359	0.5892	0.9066	0.081
Mof_H 	H 	0.0889	0.582	0.8959	0.001
Mof_C 	C 	0.14758	0.5222	0.8809	-0.153
Mof_H 	H 	0.1301	0.467	0.855	0.082
Mof_Zn	Zn	0.60915	0.72393	0.48011	1.191
Mof_O 	O 	0.65929	0.7122	0.55316	-0.449
Mof_N 	N 	0.77907	0.8738	0.80858	-0.132
Mof_N 	N 	0.64711	0.1647	0.94628	-0.285
Mof_C 	C 	0.69971	0.0396	0.895	0.084
Mof_C 	C 	0.72714	0.98	0.8655	0.036
Mof_C 	C 	0.80255	0.8977	0.85838	0.08
Mof_O 	O 	0.60797	0.8715	0.54225	-0.348
Mof_C 	C 	0.73025	0.9037	0.78658	0.079
Mof_C 	C 	0.77821	0.9498	0.88801	-0.117
Mof_H 	H 	0.7956	0.9645	0.9225	0.067
Mof_C 	C 	0.85681	0.8681	0.87985	0.028
Mof_C 	C 	0.70703	0.8771	0.73111	0.027
Mof_O 	O 	0.04234	0.8489	0.97732	-0.439
Mof_C 	C 	0.70321	0.9543	0.81363	-0.125
Mof_H 	H 	0.6692	0.9711	0.7974	0.071
Mof_C 	C 	0.64293	0.8019	0.57033	0.313
Mof_C 	C 	0.66487	0.8291	0.62664	-0.082
Mof_C 	C 	0.94062	0.9066	0.94103	0.01
Mof_H 	H 	0.962	0.9496	0.9693	0.051
Mof_C 	C 	0.88926	0.9331	0.92172	-0.081
Mof_H 	H 	0.8767	0.9947	0.937	0.05
Mof_C 	C 	0.95948	0.8168	0.91812	-0.088
Mof_O 	O 	0.03319	0.7167	0.9172	-0.386
Mof_C 	C 	0.87605	0.7763	0.85731	-0.087
Mof_H 	H 	0.8548	0.732	0.8294	0.068
Mof_C 	C 	0.70576	0.7612	0.65752	0.014
Mof_H 	H 	0.7192	0.6989	0.6434	0.044
Mof_C 	C 	0.66541	0.9436	0.70025	-0.087
Mof_H 	H 	0.6509	0.0036	0.7144	0.058
Mof_C 	C 	0.6452	0.9204	0.64778	0.014
Mof_H 	H 	0.6181	0.9675	0.6271	0.044
Mof_C 	C 	0.72687	0.7849	0.70924	-0.083
Mof_H 	H 	0.7545	0.7388	0.7295	0.069
Mof_C 	C 	0.92688	0.7509	0.8766	0.02
Mof_H 	H 	0.9395	0.6887	0.8615	0.037
Mof_C 	C 	0.01501	0.791	0.9382	0.335
Mof_C 	C 	0.72217	0.0965	0.9388	-0.177
Mof_H 	H 	0.757	0.0997	0.9529	0.085
Mof_C 	C 	0.69347	0.1527	0.9642	0.12
Mof_H 	H 	0.7105	0.1831	0.9969	-0.036
Mof_C 	C 	0.62359	0.0892	0.9066	0.081
Mof_H 	H 	0.5889	0.082	0.8959	0.002
Mof_C 	C 	0.64758	0.0222	0.8809	-0.153
Mof_H 	H 	0.6301	0.967	0.855	0.082
Mof_Zn	Zn	0.10915	0.77607	0.98011	1.191
Mof_O 	O 	0.15929	0.7878	0.05316	-0.449
Mof_N 	N 	0.27907	0.6262	0.30858	-0.132
Mof_N 	N 	0.14711	0.3353	0.44628	-0.286
Mof_C 	C 	0.19971	0.4604	0.395	0.084
Mof_C 	C 	0.22714	0.52	0.3655	0.036
Mof_C 	C 	0.30255	0.6023	0.35838	0.08
Mof_O 	O 	0.10797	0.6285	0.04225	-0.347
Mof_C 	C 	0.23025	0.5963	0.28658	0.08
Mof_C 	C 	0.27821	0.5502	0.38801	-0.117
Mof_H 	H 	0.2956	0.5355	0.4225	0.067
Mof_C 	C 	0.35681	0.6319	0.37985	0.028
Mof_C 	C 	0.20703	0.6229	0.23111	0.027
Mof_O 	O 	0.54234	0.6511	0.47732	-0.439
Mof_C 	C 	0.20321	0.5457	0.31363	-0.125
Mof_H 	H 	0.1692	0.5289	0.2974	0.071
Mof_C 	C 	0.14293	0.6981	0.07033	0.313
Mof_C 	C 	0.16487	0.6709	0.12664	-0.082
Mof_C 	C 	0.44062	0.5934	0.44103	0.01
Mof_H 	H 	0.462	0.5504	0.4693	0.05
Mof_C 	C 	0.38926	0.5669	0.42172	-0.081
Mof_H 	H 	0.3767	0.5053	0.437	0.05
Mof_C 	C 	0.45948	0.6832	0.41812	-0.089
Mof_O 	O 	0.53319	0.7833	0.4172	-0.386
Mof_C 	C 	0.37605	0.7237	0.35731	-0.087
Mof_H 	H 	0.3548	0.768	0.3294	0.068
Mof_C 	C 	0.20576	0.7388	0.15752	0.013
Mof_H 	H 	0.2192	0.8011	0.1434	0.044
Mof_C 	C 	0.16541	0.5564	0.20025	-0.087
Mof_H 	H 	0.1509	0.4964	0.2144	0.058
Mof_C 	C 	0.1452	0.5796	0.14778	0.014
Mof_H 	H 	0.1181	0.5325	0.1271	0.044
Mof_C 	C 	0.22687	0.7151	0.20924	-0.083
Mof_H 	H 	0.2545	0.7612	0.2295	0.069
Mof_C 	C 	0.42688	0.7491	0.3766	0.02
Mof_H 	H 	0.4395	0.8113	0.3615	0.037
Mof_C 	C 	0.51501	0.709	0.4382	0.336
Mof_C 	C 	0.22217	0.4035	0.4388	-0.177
Mof_H 	H 	0.257	0.4003	0.4529	0.085
Mof_C 	C 	0.19347	0.3473	0.4642	0.12
Mof_H 	H 	0.2105	0.3169	0.4969	-0.037
Mof_C 	C 	0.12359	0.4108	0.4066	0.081
Mof_H 	H 	0.0889	0.418	0.3959	0.001
Mof_C 	C 	0.14758	0.4778	0.3809	-0.153
Mof_H 	H 	0.1301	0.533	0.355	0.082
Mof_Zn	Zn	0.60915	0.27607	0.98011	1.191
Mof_O 	O 	0.65929	0.2878	0.05316	-0.449
Mof_N 	N 	0.77907	0.1262	0.30858	-0.132
Mof_N 	N 	0.64711	0.8353	0.44628	-0.286
Mof_C 	C 	0.69971	0.9604	0.395	0.084
Mof_C 	C 	0.72714	0.02	0.3655	0.036
Mof_C 	C 	0.80255	0.1023	0.35838	0.08
Mof_O 	O 	0.60797	0.1285	0.04225	-0.348
Mof_C 	C 	0.73025	0.0963	0.28658	0.079
Mof_C 	C 	0.77821	0.0502	0.38801	-0.117
Mof_H 	H 	0.7956	0.0355	0.4225	0.067
Mof_C 	C 	0.85681	0.1319	0.37985	0.028
Mof_C 	C 	0.70703	0.1229	0.23111	0.027
Mof_O 	O 	0.04234	0.1511	0.47732	-0.439
Mof_C 	C 	0.70321	0.0457	0.31363	-0.125
Mof_H 	H 	0.6692	0.0289	0.2974	0.071
Mof_C 	C 	0.64293	0.1981	0.07033	0.313
Mof_C 	C 	0.66487	0.1709	0.12664	-0.082
Mof_C 	C 	0.94062	0.0934	0.44103	0.01
Mof_H 	H 	0.962	0.0504	0.4693	0.05
Mof_C 	C 	0.88926	0.0669	0.42172	-0.081
Mof_H 	H 	0.8767	0.0053	0.437	0.05
Mof_C 	C 	0.95948	0.1832	0.41812	-0.089
Mof_O 	O 	0.03319	0.2833	0.4172	-0.386
Mof_C 	C 	0.87605	0.2237	0.35731	-0.087
Mof_H 	H 	0.8548	0.268	0.3294	0.068
Mof_C 	C 	0.70576	0.2388	0.15752	0.014
Mof_H 	H 	0.7192	0.3011	0.1434	0.044
Mof_C 	C 	0.66541	0.0564	0.20025	-0.087
Mof_H 	H 	0.6509	0.9964	0.2144	0.058
Mof_C 	C 	0.6452	0.0796	0.14778	0.014
Mof_H 	H 	0.6181	0.0325	0.1271	0.044
Mof_C 	C 	0.72687	0.2151	0.20924	-0.083
Mof_H 	H 	0.7545	0.2612	0.2295	0.069
Mof_C 	C 	0.92688	0.2491	0.3766	0.02
Mof_H 	H 	0.9395	0.3113	0.3615	0.037
Mof_C 	C 	0.01501	0.209	0.4382	0.336
Mof_C 	C 	0.72217	0.9035	0.4388	-0.177
Mof_H 	H 	0.757	0.9003	0.4529	0.085
Mof_C 	C 	0.69347	0.8473	0.4642	0.12
Mof_H 	H 	0.7105	0.8169	0.4969	-0.037
Mof_C 	C 	0.62359	0.9108	0.4066	0.081
Mof_H 	H 	0.5889	0.918	0.3959	0.001
Mof_C 	C 	0.64758	0.9778	0.3809	-0.153
Mof_H 	H 	0.6301	0.033	0.355	0.082
Mof_Zn	Zn	0.89085	0.22393	0.01989	1.191
Mof_O 	O 	0.84071	0.2122	0.94684	-0.449
Mof_N 	N 	0.72093	0.3738	0.69142	-0.132
Mof_N 	N 	0.85289	0.6647	0.55372	-0.286
Mof_C 	C 	0.80029	0.5396	0.605	0.084
Mof_C 	C 	0.77286	0.48	0.6345	0.036
Mof_C 	C 	0.69745	0.3977	0.64162	0.08
Mof_O 	O 	0.89203	0.3715	0.95775	-0.347
Mof_C 	C 	0.76975	0.4037	0.71342	0.08
Mof_C 	C 	0.72179	0.4498	0.61199	-0.117
Mof_H 	H 	0.7044	0.4645	0.5775	0.067
Mof_C 	C 	0.64319	0.3681	0.62015	0.028
Mof_C 	C 	0.79297	0.3771	0.76889	0.027
Mof_O 	O 	0.45766	0.3489	0.52268	-0.439
Mof_C 	C 	0.79679	0.4543	0.68637	-0.125
Mof_H 	H 	0.8308	0.4711	0.7026	0.071
Mof_C 	C 	0.85707	0.3019	0.92967	0.313
Mof_C 	C 	0.83513	0.3291	0.87336	-0.082
Mof_C 	C 	0.55938	0.4066	0.55897	0.01
Mof_H 	H 	0.538	0.4496	0.5307	0.05
Mof_C 	C 	0.61074	0.4331	0.57828	-0.081
Mof_H 	H 	0.6233	0.4947	0.563	0.05
Mof_C 	C 	0.54052	0.3168	0.58188	-0.089
Mof_O 	O 	0.46681	0.2167	0.5828	-0.386
Mof_C 	C 	0.62395	0.2763	0.64269	-0.087
Mof_H 	H 	0.6452	0.232	0.6706	0.068
Mof_C 	C 	0.79424	0.2612	0.84248	0.013
Mof_H 	H 	0.7808	0.1989	0.8566	0.044
Mof_C 	C 	0.83459	0.4436	0.79975	-0.087
Mof_H 	H 	0.8491	0.5036	0.7856	0.058
Mof_C 	C 	0.8548	0.4204	0.85222	0.014
Mof_H 	H 	0.8819	0.4675	0.8729	0.044
Mof_C 	C 	0.77313	0.2849	0.79076	-0.083
Mof_H 	H 	0.7455	0.2388	0.7705	0.069
Mof_C 	C 	0.57312	0.2509	0.6234	0.02
Mof_H 	H 	0.5605	0.1887	0.6385	0.037
Mof_C 	C 	0.48499	0.291	0.5618	0.336
Mof_C 	C 	0.77783	0.5965	0.5612	-0.177
Mof_H 	H 	0.743	0.5997	0.5471	0.085
Mof_C 	C 	0.80653	0.6527	0.5358	0.12
Mof_H 	H 	0.7895	0.6831	0.5031	-0.037
Mof_C 	C 	0.87641	0.5892	0.5934	0.081
Mof_H 	H 	0.9111	0.582	0.6041	0.001
Mof_C 	C 	0.85242	0.5222	0.6191	-0.153
Mof_H 	H 	0.8699	0.467	0.645	0.082
Mof_Zn	Zn	0.39085	0.72393	0.01989	1.191
Mof_O 	O 	0.34071	0.7122	0.94684	-0.449
Mof_N 	N 	0.22093	0.8738	0.69142	-0.132
Mof_N 	N 	0.35289	0.1647	0.55372	-0.286
Mof_C 	C 	0.30029	0.0396	0.605	0.084
Mof_C 	C 	0.27286	0.98	0.6345	0.036
Mof_C 	C 	0.19745	0.8977	0.64162	0.08
Mof_O 	O 	0.39203	0.8715	0.95775	-0.348
Mof_C 	C 	0.26975	0.9037	0.71342	0.079
Mof_C 	C 	0.22179	0.9498	0.61199	-0.117
Mof_H 	H 	0.2044	0.9645	0.5775	0.067
Mof_C 	C 	0.14319	0.8681	0.62015	0.028
Mof_C 	C 	0.29297	0.8771	0.76889	0.027
Mof_O 	O 	0.95766	0.8489	0.52268	-0.439
Mof_C 	C 	0.29679	0.9543	0.68637	-0.125
Mof_H 	H 	0.3308	0.9711	0.7026	0.071
Mof_C 	C 	0.35707	0.8019	0.92967	0.313
Mof_C 	C 	0.33513	0.8291	0.87336	-0.082
Mof_C 	C 	0.05938	0.9066	0.55897	0.01
Mof_H 	H 	0.038	0.9496	0.5307	0.05
Mof_C 	C 	0.11074	0.9331	0.57828	-0.081
Mof_H 	H 	0.1233	0.9947	0.563	0.05
Mof_C 	C 	0.04052	0.8168	0.58188	-0.089
Mof_O 	O 	0.96681	0.7167	0.5828	-0.386
Mof_C 	C 	0.12395	0.7763	0.64269	-0.087
Mof_H 	H 	0.1452	0.732	0.6706	0.068
Mof_C 	C 	0.29424	0.7612	0.84248	0.014
Mof_H 	H 	0.2808	0.6989	0.8566	0.044
Mof_C 	C 	0.33459	0.9436	0.79975	-0.087
Mof_H 	H 	0.3491	0.0036	0.7856	0.058
Mof_C 	C 	0.3548	0.9204	0.85222	0.014
Mof_H 	H 	0.3819	0.9675	0.8729	0.044
Mof_C 	C 	0.27313	0.7849	0.79076	-0.083
Mof_H 	H 	0.2455	0.7388	0.7705	0.069
Mof_C 	C 	0.07312	0.7509	0.6234	0.02
Mof_H 	H 	0.0605	0.6887	0.6385	0.037
Mof_C 	C 	0.98499	0.791	0.5618	0.336
Mof_C 	C 	0.27783	0.0965	0.5612	-0.177
Mof_H 	H 	0.243	0.0997	0.5471	0.085
Mof_C 	C 	0.30653	0.1527	0.5358	0.12
Mof_H 	H 	0.2895	0.1831	0.5031	-0.037
Mof_C 	C 	0.37641	0.0892	0.5934	0.081
Mof_H 	H 	0.4111	0.082	0.6041	0.001
Mof_C 	C 	0.35242	0.0222	0.6191	-0.153
Mof_H 	H 	0.3699	0.967	0.645	0.082
Mof_Zn	Zn	0.89085	0.77607	0.51989	1.191
Mof_O 	O 	0.84071	0.7878	0.44684	-0.449
Mof_N 	N 	0.72093	0.6262	0.19142	-0.132
Mof_N 	N 	0.85289	0.3353	0.05372	-0.286
Mof_C 	C 	0.80029	0.4604	0.105	0.084
Mof_C 	C 	0.77286	0.52	0.1345	0.036
Mof_C 	C 	0.69745	0.6023	0.14162	0.08
Mof_O 	O 	0.89203	0.6285	0.45775	-0.348
Mof_C 	C 	0.76975	0.5963	0.21342	0.08
Mof_C 	C 	0.72179	0.5502	0.11199	-0.117
Mof_H 	H 	0.7044	0.5355	0.0775	0.067
Mof_C 	C 	0.64319	0.6319	0.12015	0.028
Mof_C 	C 	0.79297	0.6229	0.26889	0.027
Mof_O 	O 	0.45766	0.6511	0.02268	-0.439
Mof_C 	C 	0.79679	0.5457	0.18637	-0.125
Mof_H 	H 	0.8308	0.5289	0.2026	0.071
Mof_C 	C 	0.85707	0.6981	0.42967	0.313
Mof_C 	C 	0.83513	0.6709	0.37336	-0.082
Mof_C 	C 	0.55938	0.5934	0.05897	0.01
Mof_H 	H 	0.538	0.5504	0.0307	0.05
Mof_C 	C 	0.61074	0.5669	0.07828	-0.081
Mof_H 	H 	0.6233	0.5053	0.063	0.05
Mof_C 	C 	0.54052	0.6832	0.08188	-0.089
Mof_O 	O 	0.46681	0.7833	0.0828	-0.386
Mof_C 	C 	0.62395	0.7237	0.14269	-0.087
Mof_H 	H 	0.6452	0.768	0.1706	0.068
Mof_C 	C 	0.79424	0.7388	0.34248	0.013
Mof_H 	H 	0.7808	0.8011	0.3566	0.044
Mof_C 	C 	0.83459	0.5564	0.29975	-0.087
Mof_H 	H 	0.8491	0.4964	0.2856	0.058
Mof_C 	C 	0.8548	0.5796	0.35222	0.014
Mof_H 	H 	0.8819	0.5325	0.3729	0.044
Mof_C 	C 	0.77313	0.7151	0.29076	-0.083
Mof_H 	H 	0.7455	0.7612	0.2705	0.069
Mof_C 	C 	0.57312	0.7491	0.1234	0.02
Mof_H 	H 	0.5605	0.8113	0.1385	0.037
Mof_C 	C 	0.48499	0.709	0.0618	0.336
Mof_C 	C 	0.77783	0.4035	0.0612	-0.177
Mof_H 	H 	0.743	0.4003	0.0471	0.085
Mof_C 	C 	0.80653	0.3473	0.0358	0.12
Mof_H 	H 	0.7895	0.3169	0.0031	-0.037
Mof_C 	C 	0.87641	0.4108	0.0934	0.081
Mof_H 	H 	0.9111	0.418	0.1041	0.001
Mof_C 	C 	0.85242	0.4778	0.1191	-0.153
Mof_H 	H 	0.8699	0.533	0.145	0.082
Mof_Zn	Zn	0.39085	0.27607	0.51989	1.191
Mof_O 	O 	0.34071	0.2878	0.44684	-0.449
Mof_N 	N 	0.22093	0.1262	0.19142	-0.132
Mof_N 	N 	0.35289	0.8353	0.05372	-0.285
Mof_C 	C 	0.30029	0.9604	0.105	0.084
Mof_C 	C 	0.27286	0.02	0.1345	0.036
Mof_C 	C 	0.19745	0.1023	0.14162	0.08
Mof_O 	O 	0.39203	0.1285	0.45775	-0.348
Mof_C 	C 	0.26975	0.0963	0.21342	0.079
Mof_C 	C 	0.22179	0.0502	0.11199	-0.117
Mof_H 	H 	0.2044	0.0355	0.0775	0.067
Mof_C 	C 	0.14319	0.1319	0.12015	0.028
Mof_C 	C 	0.29297	0.1229	0.26889	0.027
Mof_O 	O 	0.95766	0.1511	0.02268	-0.439
Mof_C 	C 	0.29679	0.0457	0.18637	-0.125
Mof_H 	H 	0.3308	0.0289	0.2026	0.071
Mof_C 	C 	0.35707	0.1981	0.42967	0.313
Mof_C 	C 	0.33513	0.1709	0.37336	-0.082
Mof_C 	C 	0.05938	0.0934	0.05897	0.01
Mof_H 	H 	0.038	0.0504	0.0307	0.051
Mof_C 	C 	0.11074	0.0669	0.07828	-0.081
Mof_H 	H 	0.1233	0.0053	0.063	0.05
Mof_C 	C 	0.04052	0.1832	0.08188	-0.088
Mof_O 	O 	0.96681	0.2833	0.0828	-0.386
Mof_C 	C 	0.12395	0.2237	0.14269	-0.087
Mof_H 	H 	0.1452	0.268	0.1706	0.068
Mof_C 	C 	0.29424	0.2388	0.34248	0.014
Mof_H 	H 	0.2808	0.3011	0.3566	0.044
Mof_C 	C 	0.33459	0.0564	0.29975	-0.087
Mof_H 	H 	0.3491	0.9964	0.2856	0.058
Mof_C 	C 	0.3548	0.0796	0.35222	0.014
Mof_H 	H 	0.3819	0.0325	0.3729	0.044
Mof_C 	C 	0.27313	0.2151	0.29076	-0.083
Mof_H 	H 	0.2455	0.2612	0.2705	0.069
Mof_C 	C 	0.07312	0.2491	0.1234	0.02
Mof_H 	H 	0.0605	0.3113	0.1385	0.037
Mof_C 	C 	0.98499	0.209	0.0618	0.335
Mof_C 	C 	0.27783	0.9035	0.0612	-0.177
Mof_H 	H 	0.243	0.9003	0.0471	0.085
Mof_C 	C 	0.30653	0.8473	0.0358	0.12
Mof_H 	H 	0.2895	0.8169	0.0031	-0.036
Mof_C 	C 	0.37641	0.9108	0.0934	0.081
Mof_H 	H 	0.4111	0.918	0.1041	0.002
Mof_C 	C 	0.35242	0.9778	0.1191	-0.153
Mof_H 	H 	0.3699	0.033	0.145	0.082
_end
