data_functionalizedCrystal
_audit_creation_method	'EQeq! by Chris Wilmer'
_symmetry_space_group_name_H-M	'P1'
_symmetry_Int_Tables_number	1
_symmetry_cell_setting	triclinic
loop_
_symmetry_equiv_pos_as_xyz
  x,y,z
_cell_length_a	16.7531
_cell_length_b	16.7531
_cell_length_c	10.8111
_cell_angle_alpha	90
_cell_angle_beta	90
_cell_angle_gamma	120
loop_
_atom_site_label
_atom_site_type_symbol
_atom_site_fract_x
_atom_site_fract_y
_atom_site_fract_z
_atom_site_charge
Mof_C 	C 	0.0349	0.3657	0.3406	0.401
Mof_C 	C 	0.1022	0.4687	0.3215	-0.135
Mof_H 	H 	0.0914	0.4869	0.2409	0.074
Mof_H 	H 	0.0905	0.5034	0.3835	0.084
Mof_C 	C 	0.2577	0.578	0.3263	0.453
Mof_C 	C 	0.2445	0.6519	0.3259	-0.497
Mof_H 	H 	0.1849	0.6425	0.3254	0.21
Mof_C 	C 	0.8431	0.1156	0.068	-0.201
Mof_H 	H 	0.8341	0.0641	0.112	0.091
Mof_C 	C 	0.8686	0.2641	0.0645	-0.186
Mof_H 	H 	0.8775	0.3172	0.104	0.085
Mof_C 	C 	0.8579	0.1886	0.1312	0.352
Mof_O 	O 	0.94994	0.34219	0.3425	-0.396
Mof_O 	O 	0.06509	0.31579	0.3508	-0.467
Mof_O 	O 	0.1903	0.48978	0.3291	-0.329
Mof_Cu	Cu	0.85044	0.20332	0.31982	0.959
Mof_H 	H 	0.8608	0.1896	0.2107	-0.395
Mof_H 	H 	0.8278	0.1616	0.453	0.258
Mof_H 	H 	0.9192	0.2241	0.4804	0.187
Mof_N 	N 	0.8114	0.6693	0.1312	-0.077
Mof_C 	C 	0.6343	0.6692	0.3406	0.4
Mof_C 	C 	0.5313	0.6335	0.3215	-0.137
Mof_H 	H 	0.5131	0.6045	0.2409	0.075
Mof_H 	H 	0.4966	0.5871	0.3835	0.085
Mof_C 	C 	0.422	0.6797	0.3263	0.453
Mof_C 	C 	0.3481	0.5926	0.3259	-0.496
Mof_H 	H 	0.3575	0.5424	0.3254	0.211
Mof_C 	C 	0.8844	0.7275	0.068	-0.018
Mof_H 	H 	0.9359	0.77	0.112	0.025
Mof_C 	C 	0.7359	0.6045	0.0645	-0.028
Mof_H 	H 	0.6828	0.5603	0.104	0.031
Mof_O 	O 	0.65781	0.60775	0.3425	-0.394
Mof_O 	O 	0.68421	0.7493	0.3508	-0.467
Mof_O 	O 	0.51022	0.70052	0.3291	-0.329
Mof_Cu	Cu	0.79668	0.64712	0.31982	0.935
Mof_H 	H 	0.8104	0.6712	0.2107	-0.19
Mof_H 	H 	0.8384	0.6662	0.453	0.259
Mof_H 	H 	0.7759	0.6951	0.4804	0.187
Mof_N 	N 	0.3307	0.1421	0.1312	-0.077
Mof_C 	C 	0.3308	0.9651	0.3406	0.398
Mof_C 	C 	0.3665	0.8978	0.3215	-0.136
Mof_H 	H 	0.3955	0.9086	0.2409	0.074
Mof_H 	H 	0.4129	0.9095	0.3835	0.084
Mof_C 	C 	0.3203	0.7423	0.3263	0.452
Mof_C 	C 	0.4074	0.7555	0.3259	-0.496
Mof_H 	H 	0.4576	0.8151	0.3254	0.211
Mof_C 	C 	0.2725	0.1569	0.068	-0.018
Mof_H 	H 	0.23	0.1659	0.112	0.028
Mof_C 	C 	0.3955	0.1314	0.0645	-0.028
Mof_H 	H 	0.4397	0.1225	0.104	0.031
Mof_O 	O 	0.39225	0.05006	0.3425	-0.394
Mof_O 	O 	0.2507	0.93491	0.3508	-0.467
Mof_O 	O 	0.29948	0.8097	0.3291	-0.332
Mof_Cu	Cu	0.35288	0.14956	0.31982	0.935
Mof_H 	H 	0.3288	0.1392	0.2107	-0.19
Mof_H 	H 	0.3338	0.1722	0.453	0.259
Mof_H 	H 	0.3049	0.0808	0.4804	0.187
Mof_C 	C 	0.9651	0.6343	0.3406	0.4
Mof_C 	C 	0.8978	0.5313	0.3215	-0.136
Mof_H 	H 	0.9086	0.5131	0.2409	0.074
Mof_H 	H 	0.9095	0.4966	0.3835	0.084
Mof_C 	C 	0.7423	0.422	0.3263	0.453
Mof_C 	C 	0.7555	0.3481	0.3259	-0.497
Mof_H 	H 	0.8151	0.3575	0.3254	0.21
Mof_C 	C 	0.1569	0.8844	0.068	-0.201
Mof_H 	H 	0.1659	0.9359	0.112	0.091
Mof_C 	C 	0.1314	0.7359	0.0645	-0.186
Mof_H 	H 	0.1225	0.6828	0.104	0.085
Mof_C 	C 	0.1421	0.8114	0.1312	0.352
Mof_O 	O 	0.05006	0.65781	0.3425	-0.396
Mof_O 	O 	0.93491	0.68421	0.3508	-0.467
Mof_O 	O 	0.8097	0.51022	0.3291	-0.329
Mof_Cu	Cu	0.14956	0.79668	0.31982	0.959
Mof_H 	H 	0.1392	0.8104	0.2107	-0.395
Mof_H 	H 	0.1722	0.8384	0.453	0.258
Mof_H 	H 	0.0808	0.7759	0.4804	0.187
Mof_N 	N 	0.1886	0.3307	0.1312	-0.077
Mof_C 	C 	0.3657	0.3308	0.3406	0.4
Mof_C 	C 	0.4687	0.3665	0.3215	-0.137
Mof_H 	H 	0.4869	0.3955	0.2409	0.075
Mof_H 	H 	0.5034	0.4129	0.3835	0.085
Mof_C 	C 	0.578	0.3203	0.3263	0.453
Mof_C 	C 	0.6519	0.4074	0.3259	-0.496
Mof_H 	H 	0.6425	0.4576	0.3254	0.211
Mof_C 	C 	0.1156	0.2725	0.068	-0.018
Mof_H 	H 	0.0641	0.23	0.112	0.025
Mof_C 	C 	0.2641	0.3955	0.0645	-0.028
Mof_H 	H 	0.3172	0.4397	0.104	0.031
Mof_O 	O 	0.34219	0.39225	0.3425	-0.394
Mof_O 	O 	0.31579	0.2507	0.3508	-0.467
Mof_O 	O 	0.48978	0.29948	0.3291	-0.329
Mof_Cu	Cu	0.20332	0.35288	0.31982	0.935
Mof_H 	H 	0.1896	0.3288	0.2107	-0.19
Mof_H 	H 	0.1616	0.3338	0.453	0.259
Mof_H 	H 	0.2241	0.3049	0.4804	0.187
Mof_N 	N 	0.6693	0.8579	0.1312	-0.077
Mof_C 	C 	0.6692	0.0349	0.3406	0.398
Mof_C 	C 	0.6335	0.1022	0.3215	-0.136
Mof_H 	H 	0.6045	0.0914	0.2409	0.074
Mof_H 	H 	0.5871	0.0905	0.3835	0.084
Mof_C 	C 	0.6797	0.2577	0.3263	0.452
Mof_C 	C 	0.5926	0.2445	0.3259	-0.496
Mof_H 	H 	0.5424	0.1849	0.3254	0.211
Mof_C 	C 	0.7275	0.8431	0.068	-0.018
Mof_H 	H 	0.77	0.8341	0.112	0.028
Mof_C 	C 	0.6045	0.8686	0.0645	-0.028
Mof_H 	H 	0.5603	0.8775	0.104	0.031
Mof_O 	O 	0.60775	0.94994	0.3425	-0.394
Mof_O 	O 	0.7493	0.06509	0.3508	-0.467
Mof_O 	O 	0.70052	0.1903	0.3291	-0.332
Mof_Cu	Cu	0.64712	0.85044	0.31982	0.935
Mof_H 	H 	0.6712	0.8608	0.2107	-0.19
Mof_H 	H 	0.6662	0.8278	0.453	0.259
Mof_H 	H 	0.6951	0.9192	0.4804	0.187
Mof_C 	C 	0.9651	0.6343	0.6594	0.4
Mof_C 	C 	0.8978	0.5313	0.6785	-0.136
Mof_H 	H 	0.9086	0.5131	0.7591	0.074
Mof_H 	H 	0.9095	0.4966	0.6165	0.084
Mof_C 	C 	0.7423	0.422	0.6737	0.453
Mof_C 	C 	0.7555	0.3481	0.6741	-0.497
Mof_H 	H 	0.8151	0.3575	0.6746	0.21
Mof_C 	C 	0.1569	0.8844	0.932	-0.201
Mof_H 	H 	0.1659	0.9359	0.888	0.091
Mof_C 	C 	0.1314	0.7359	0.9355	-0.186
Mof_H 	H 	0.1225	0.6828	0.896	0.085
Mof_C 	C 	0.1421	0.8114	0.8688	0.352
Mof_O 	O 	0.05006	0.65781	0.6575	-0.396
Mof_O 	O 	0.93491	0.68421	0.6492	-0.467
Mof_O 	O 	0.8097	0.51022	0.6709	-0.329
Mof_Cu	Cu	0.14956	0.79668	0.68018	0.959
Mof_H 	H 	0.1392	0.8104	0.7893	-0.395
Mof_H 	H 	0.1722	0.8384	0.547	0.258
Mof_H 	H 	0.0808	0.7759	0.5196	0.187
Mof_N 	N 	0.1886	0.3307	0.8688	-0.077
Mof_C 	C 	0.3657	0.3308	0.6594	0.4
Mof_C 	C 	0.4687	0.3665	0.6785	-0.137
Mof_H 	H 	0.4869	0.3955	0.7591	0.075
Mof_H 	H 	0.5034	0.4129	0.6165	0.085
Mof_C 	C 	0.578	0.3203	0.6737	0.453
Mof_C 	C 	0.6519	0.4074	0.6741	-0.496
Mof_H 	H 	0.6425	0.4576	0.6746	0.211
Mof_C 	C 	0.1156	0.2725	0.932	-0.018
Mof_H 	H 	0.0641	0.23	0.888	0.025
Mof_C 	C 	0.2641	0.3955	0.9355	-0.028
Mof_H 	H 	0.3172	0.4397	0.896	0.031
Mof_O 	O 	0.34219	0.39225	0.6575	-0.394
Mof_O 	O 	0.31579	0.2507	0.6492	-0.467
Mof_O 	O 	0.48978	0.29948	0.6709	-0.329
Mof_Cu	Cu	0.20332	0.35288	0.68018	0.935
Mof_H 	H 	0.1896	0.3288	0.7893	-0.19
Mof_H 	H 	0.1616	0.3338	0.547	0.259
Mof_H 	H 	0.2241	0.3049	0.5196	0.187
Mof_N 	N 	0.6693	0.8579	0.8688	-0.077
Mof_C 	C 	0.6692	0.0349	0.6594	0.398
Mof_C 	C 	0.6335	0.1022	0.6785	-0.136
Mof_H 	H 	0.6045	0.0914	0.7591	0.074
Mof_H 	H 	0.5871	0.0905	0.6165	0.084
Mof_C 	C 	0.6797	0.2577	0.6737	0.452
Mof_C 	C 	0.5926	0.2445	0.6741	-0.496
Mof_H 	H 	0.5424	0.1849	0.6746	0.211
Mof_C 	C 	0.7275	0.8431	0.932	-0.018
Mof_H 	H 	0.77	0.8341	0.888	0.028
Mof_C 	C 	0.6045	0.8686	0.9355	-0.028
Mof_H 	H 	0.5603	0.8775	0.896	0.031
Mof_O 	O 	0.60775	0.94994	0.6575	-0.394
Mof_O 	O 	0.7493	0.06509	0.6492	-0.467
Mof_O 	O 	0.70052	0.1903	0.6709	-0.332
Mof_Cu	Cu	0.64712	0.85044	0.68018	0.935
Mof_H 	H 	0.6712	0.8608	0.7893	-0.19
Mof_H 	H 	0.6662	0.8278	0.547	0.259
Mof_H 	H 	0.6951	0.9192	0.5196	0.187
Mof_C 	C 	0.0349	0.3657	0.6594	0.4
Mof_C 	C 	0.1022	0.4687	0.6785	-0.136
Mof_H 	H 	0.0914	0.4869	0.7591	0.074
Mof_H 	H 	0.0905	0.5034	0.6165	0.084
Mof_C 	C 	0.2577	0.578	0.6737	0.453
Mof_C 	C 	0.2445	0.6519	0.6741	-0.497
Mof_H 	H 	0.1849	0.6425	0.6746	0.21
Mof_C 	C 	0.8431	0.1156	0.932	-0.201
Mof_H 	H 	0.8341	0.0641	0.888	0.091
Mof_C 	C 	0.8686	0.2641	0.9355	-0.186
Mof_H 	H 	0.8775	0.3172	0.896	0.085
Mof_C 	C 	0.8579	0.1886	0.8688	0.352
Mof_O 	O 	0.94994	0.34219	0.6575	-0.396
Mof_O 	O 	0.06509	0.31579	0.6492	-0.467
Mof_O 	O 	0.1903	0.48978	0.6709	-0.329
Mof_Cu	Cu	0.85044	0.20332	0.68018	0.959
Mof_H 	H 	0.8608	0.1896	0.7893	-0.395
Mof_H 	H 	0.8278	0.1616	0.547	0.258
Mof_H 	H 	0.9192	0.2241	0.5196	0.187
Mof_N 	N 	0.8114	0.6693	0.8688	-0.077
Mof_C 	C 	0.6343	0.6692	0.6594	0.4
Mof_C 	C 	0.5313	0.6335	0.6785	-0.137
Mof_H 	H 	0.5131	0.6045	0.7591	0.075
Mof_H 	H 	0.4966	0.5871	0.6165	0.085
Mof_C 	C 	0.422	0.6797	0.6737	0.453
Mof_C 	C 	0.3481	0.5926	0.6741	-0.496
Mof_H 	H 	0.3575	0.5424	0.6746	0.211
Mof_C 	C 	0.8844	0.7275	0.932	-0.018
Mof_H 	H 	0.9359	0.77	0.888	0.025
Mof_C 	C 	0.7359	0.6045	0.9355	-0.028
Mof_H 	H 	0.6828	0.5603	0.896	0.031
Mof_O 	O 	0.65781	0.60775	0.6575	-0.394
Mof_O 	O 	0.68421	0.7493	0.6492	-0.467
Mof_O 	O 	0.51022	0.70052	0.6709	-0.329
Mof_Cu	Cu	0.79668	0.64712	0.68018	0.935
Mof_H 	H 	0.8104	0.6712	0.7893	-0.19
Mof_H 	H 	0.8384	0.6662	0.547	0.259
Mof_H 	H 	0.7759	0.6951	0.5196	0.187
Mof_N 	N 	0.3307	0.1421	0.8688	-0.077
Mof_C 	C 	0.3308	0.9651	0.6594	0.398
Mof_C 	C 	0.3665	0.8978	0.6785	-0.136
Mof_H 	H 	0.3955	0.9086	0.7591	0.074
Mof_H 	H 	0.4129	0.9095	0.6165	0.084
Mof_C 	C 	0.3203	0.7423	0.6737	0.452
Mof_C 	C 	0.4074	0.7555	0.6741	-0.496
Mof_H 	H 	0.4576	0.8151	0.6746	0.211
Mof_C 	C 	0.2725	0.1569	0.932	-0.018
Mof_H 	H 	0.23	0.1659	0.888	0.028
Mof_C 	C 	0.3955	0.1314	0.9355	-0.028
Mof_H 	H 	0.4397	0.1225	0.896	0.031
Mof_O 	O 	0.39225	0.05006	0.6575	-0.394
Mof_O 	O 	0.2507	0.93491	0.6492	-0.467
Mof_O 	O 	0.29948	0.8097	0.6709	-0.332
Mof_Cu	Cu	0.35288	0.14956	0.68018	0.935
Mof_H 	H 	0.3288	0.1392	0.7893	-0.19
Mof_H 	H 	0.3338	0.1722	0.547	0.259
Mof_H 	H 	0.3049	0.0808	0.5196	0.187
Mof_O 	O 	0.8635	0.2058	0.5	-1.063
Mof_O 	O 	0.7942	0.6577	0.5	-1.061
Mof_O 	O 	0.3423	0.1365	0.5	-1.061
Mof_O 	O 	0.1365	0.7942	0.5	-1.063
Mof_O 	O 	0.2058	0.3423	0.5	-1.061
Mof_O 	O 	0.6577	0.8635	0.5	-1.061
_end
