# CIF file generated by openbabel 3.1.0, see https://openbabel.org
data_I
_chemical_name_common 'GUSJOU_clean'
_cell_length_a 12.311
_cell_length_b 14.049
_cell_length_c 14.181
_cell_angle_alpha 116.92
_cell_angle_beta 111.72
_cell_angle_gamma 91.66
_space_group_name_H-M_alt 'P 1'
_space_group_name_Hall 'P 1'
loop_
    _symmetry_equiv_pos_as_xyz
    x,y,z
loop_
    _atom_site_label
    _atom_site_type_symbol
    _atom_site_fract_x
    _atom_site_fract_y
    _atom_site_fract_z
    _atom_site_occupancy
    Mn1      Mn       0.81153    0.65264    0.20934    1.000
    Mn2      Mn       0.18847    0.34736    0.79066    1.000
    Mn3      Mn       0.50000    0.50000    0.00000    1.000
    Mn4      Mn       0.00000    0.50000    0.00000    1.000
    Ge1      Ge       0.63462    0.11129    0.86785    1.000
    Ge2      Ge       0.34025    0.96623    0.65362    1.000
    Ge3      Ge       0.51889    0.85337    0.81001    1.000
    Ge4      Ge       0.58922    0.88394    0.60497    1.000
    Ge5      Ge       0.36538    0.88871    0.13215    1.000
    Ge6      Ge       0.65975    0.03377    0.34638    1.000
    Ge7      Ge       0.48111    0.14663    0.18999    1.000
    Ge8      Ge       0.41078    0.11606    0.39503    1.000
    H1       H        0.80700    0.25920    0.02870    1.000
    H2       H        0.68980    0.29000    0.04160    1.000
    H3       H        0.64530    0.31770    0.87250    1.000
    H4       H        0.78050    0.31720    0.89640    1.000
    H5       H        0.20480    0.08220    0.62050    1.000
    H6       H        0.13880    0.99180    0.62920    1.000
    H7       H        0.05850    0.98330    0.44080    1.000
    H8       H        0.16950    0.93850    0.42590    1.000
    H9       H        0.49080    0.68470    0.81660    1.000
    H10      H        0.46050    0.77660    0.91220    1.000
    H11      H        0.69820    0.77000    0.93760    1.000
    H12      H        0.66460    0.85560    0.03420    1.000
    H13      H        0.72340    0.80630    0.51690    1.000
    H14      H        0.65840    0.87580    0.46270    1.000
    H15      H        0.55250    0.66240    0.39800    1.000
    H16      H        0.48300    0.73210    0.34690    1.000
    H17      H        0.19300    0.74080    0.97130    1.000
    H18      H        0.31020    0.71000    0.95840    1.000
    H19      H        0.35470    0.68230    0.12750    1.000
    H20      H        0.21950    0.68280    0.10360    1.000
    H21      H        0.79520    0.91780    0.37950    1.000
    H22      H        0.86120    0.00820    0.37080    1.000
    H23      H        0.94150    0.01670    0.55920    1.000
    H24      H        0.83050    0.06150    0.57410    1.000
    H25      H        0.50920    0.31530    0.18340    1.000
    H26      H        0.53950    0.22340    0.08780    1.000
    H27      H        0.30180    0.23000    0.06240    1.000
    H28      H        0.33540    0.14440    0.96580    1.000
    H29      H        0.27660    0.19370    0.48310    1.000
    H30      H        0.34160    0.12420    0.53730    1.000
    H31      H        0.44750    0.33760    0.60200    1.000
    H32      H        0.51700    0.26790    0.65310    1.000
    C1       C        0.72480    0.25980    0.98620    1.000
    C2       C        0.72520    0.33310    0.93260    1.000
    C3       C        0.76270    0.45190    0.02570    1.000
    C4       C        0.18810    0.00430    0.59420    1.000
    C5       C        0.11540    0.94220    0.46210    1.000
    C6       C        0.04680    0.82610    0.41260    1.000
    C7       C        0.51740    0.76120    0.87790    1.000
    C8       C        0.64080    0.78000    0.97120    1.000
    C9       C        0.64800    0.70470    0.02270    1.000
    C10      C        0.64610    0.82170    0.48480    1.000
    C11      C        0.56140    0.71740    0.37620    1.000
    C12      C        0.60100    0.66950    0.27710    1.000
    C13      C        0.27520    0.74020    0.01380    1.000
    C14      C        0.27480    0.66690    0.06740    1.000
    C15      C        0.23730    0.54810    0.97430    1.000
    C16      C        0.81190    0.99570    0.40580    1.000
    C17      C        0.88460    0.05780    0.53790    1.000
    C18      C        0.95320    0.17390    0.58740    1.000
    C19      C        0.48260    0.23880    0.12210    1.000
    C20      C        0.35920    0.22000    0.02880    1.000
    C21      C        0.35200    0.29530    0.97730    1.000
    C22      C        0.35390    0.17830    0.51520    1.000
    C23      C        0.43860    0.28260    0.62380    1.000
    C24      C        0.39900    0.33050    0.72290    1.000
    S1       S        0.45370    0.13159    0.79060    1.000
    S2       S        0.71380    0.04783    0.74055    1.000
    S3       S        0.64188    0.01496    0.95649    1.000
    S4       S        0.40045    0.89018    0.51251    1.000
    S5       S        0.32875    0.85878    0.72673    1.000
    S6       S        0.59538    0.77435    0.68078    1.000
    S7       S        0.54630    0.86841    0.20940    1.000
    S8       S        0.28620    0.95217    0.25945    1.000
    S9       S        0.35812    0.98504    0.04351    1.000
    S10      S        0.59955    0.10982    0.48749    1.000
    S11      S        0.67125    0.14122    0.27327    1.000
    S12      S        0.40462    0.22565    0.31922    1.000
    O1       O        0.69130    0.48860    0.07130    1.000
    O2       O        0.86160    0.51410    0.06180    1.000
    O3       O        0.96830    0.78040    0.30860    1.000
    O4       O        0.07360    0.78180    0.47420    1.000
    O5       O        0.75100    0.72060    0.10060    1.000
    O6       O        0.55550    0.63700    0.98690    1.000
    O7       O        0.71040    0.70550    0.30480    1.000
    O8       O        0.52460    0.59870    0.17940    1.000
    O9       O        0.30870    0.51140    0.92870    1.000
    O10      O        0.13840    0.48590    0.93820    1.000
    O11      O        0.03170    0.21960    0.69140    1.000
    O12      O        0.92640    0.21820    0.52580    1.000
    O13      O        0.24900    0.27940    0.89940    1.000
    O14      O        0.44450    0.36300    0.01310    1.000
    O15      O        0.28960    0.29450    0.69520    1.000
    O16      O        0.47540    0.40130    0.82060    1.000
