data_functionalizedCrystal
_audit_creation_method	'EQeq! by Chris Wilmer'
_symmetry_space_group_name_H-M	'P1'
_symmetry_Int_Tables_number	1
_symmetry_cell_setting	triclinic
loop_
_symmetry_equiv_pos_as_xyz
  x,y,z
_cell_length_a	10.4867
_cell_length_b	23.026
_cell_length_c	24.55
_cell_angle_alpha	90
_cell_angle_beta	98.796
_cell_angle_gamma	90
loop_
_atom_site_label
_atom_site_type_symbol
_atom_site_fract_x
_atom_site_fract_y
_atom_site_fract_z
_atom_site_charge
Mof_Eu	Eu	0.66523	0.49612	0.7573	1.968
Mof_Eu	Eu	0.83477	0.99612	0.2427	1.971
Mof_Eu	Eu	0.33477	0.50388	0.2427	1.968
Mof_Eu	Eu	0.16523	0.00388	0.7573	1.971
Mof_Ba	Ba	0.23413	0.74929	0.97006	1.862
Mof_Ba	Ba	0.44405	0.21209	0.4986	2.068
Mof_Ba	Ba	0.73413	0.75071	0.97006	1.86
Mof_Ba	Ba	0.55595	0.78791	0.5014	2.068
Mof_Ba	Ba	0.76587	0.25071	0.02994	1.862
Mof_Ba	Ba	0.05595	0.71209	0.5014	2.066
Mof_Ba	Ba	0.94405	0.28791	0.4986	2.066
Mof_Ba	Ba	0.26587	0.24929	0.02994	1.86
Mof_H 	H 	0.6894	0.7461	0.7846	0.06
Mof_H 	H 	0.4812	0.9036	0.7771	0.028
Mof_H 	H 	0.2025	0.9489	0.9931	0.054
Mof_H 	H 	0.3765	0.5356	0.843	0.042
Mof_H 	H 	0.7501	0.1701	0.693	0.04
Mof_H 	H 	0.3602	0.4009	0.5571	0.063
Mof_H 	H 	0.6398	0.5991	0.4429	0.063
Mof_H 	H 	0.8602	0.0991	0.5571	0.063
Mof_H 	H 	0.0826	0.7693	0.673	0.065
Mof_H 	H 	0.7643	0.4316	0.9854	0.064
Mof_H 	H 	0.0188	0.4036	0.2229	0.028
Mof_H 	H 	0.0404	0.6753	0.8338	0.049
Mof_H 	H 	0.8358	0.0883	0.7446	0.023
Mof_H 	H 	0.2499	0.8299	0.307	0.04
Mof_H 	H 	0.8567	0.1224	0.449	0.038
Mof_H 	H 	0.8765	0.9644	0.843	0.042
Mof_H 	H 	0.1535	0.0957	0.0835	0.048
Mof_H 	H 	0.2527	0.4378	0.3809	0.061
Mof_H 	H 	0.7668	0.3441	0.3325	0.049
Mof_H 	H 	0.2643	0.0684	0.9854	0.066
Mof_H 	H 	0.5826	0.7307	0.673	0.065
Mof_H 	H 	0.7332	0.8441	0.6675	0.05
Mof_H 	H 	0.1398	0.9009	0.4429	0.063
Mof_H 	H 	0.2332	0.6559	0.6675	0.049
Mof_H 	H 	0.1433	0.8776	0.551	0.038
Mof_H 	H 	0.6642	0.5883	0.2554	0.023
Mof_H 	H 	0.8106	0.2461	0.2154	0.06
Mof_H 	H 	0.403	0.9198	0.0783	0.042
Mof_H 	H 	0.1235	0.0356	0.157	0.042
Mof_H 	H 	0.3358	0.4117	0.7446	0.023
Mof_H 	H 	0.097	0.4198	0.9217	0.039
Mof_H 	H 	0.8215	0.9734	0.5479	0.053
Mof_H 	H 	0.6235	0.4644	0.157	0.042
Mof_H 	H 	0.4596	0.1753	0.1662	0.049
Mof_H 	H 	0.512	0.0176	0.8515	0.017
Mof_H 	H 	0.7357	0.9316	0.0146	0.066
Mof_H 	H 	0.3465	0.5957	0.9165	0.048
Mof_H 	H 	0.7473	0.5622	0.6191	0.061
Mof_H 	H 	0.1785	0.0266	0.4521	0.053
Mof_H 	H 	0.7975	0.0511	0.0069	0.054
Mof_H 	H 	0.7499	0.6701	0.307	0.04
Mof_H 	H 	0.1642	0.9117	0.2554	0.023
Mof_H 	H 	0.674	0.4144	0.27	0.048
Mof_H 	H 	0.6785	0.4734	0.4521	0.052
Mof_H 	H 	0.4174	0.2693	0.327	0.065
Mof_H 	H 	0.488	0.9824	0.1485	0.017
Mof_H 	H 	0.012	0.4824	0.8515	0.019
Mof_H 	H 	0.2357	0.5684	0.0146	0.064
Mof_H 	H 	0.597	0.0802	0.9217	0.042
Mof_H 	H 	0.7025	0.5511	0.9931	0.055
Mof_H 	H 	0.326	0.5856	0.73	0.048
Mof_H 	H 	0.2975	0.4489	0.0069	0.055
Mof_H 	H 	0.9812	0.5964	0.7771	0.028
Mof_H 	H 	0.2501	0.3299	0.693	0.04
Mof_H 	H 	0.1894	0.7539	0.7846	0.06
Mof_H 	H 	0.6433	0.6224	0.551	0.037
Mof_H 	H 	0.826	0.9144	0.73	0.048
Mof_H 	H 	0.903	0.5802	0.0783	0.039
Mof_H 	H 	0.2668	0.1559	0.3325	0.05
Mof_H 	H 	0.8465	0.9043	0.9165	0.048
Mof_H 	H 	0.7527	0.0622	0.3809	0.061
Mof_H 	H 	0.988	0.5176	0.1485	0.019
Mof_H 	H 	0.5188	0.0964	0.2229	0.028
Mof_H 	H 	0.3567	0.3776	0.449	0.037
Mof_H 	H 	0.5404	0.8247	0.8338	0.049
Mof_H 	H 	0.174	0.0856	0.27	0.048
Mof_H 	H 	0.9596	0.3247	0.1662	0.049
Mof_H 	H 	0.9174	0.2307	0.327	0.065
Mof_H 	H 	0.6535	0.4043	0.0835	0.048
Mof_H 	H 	0.3215	0.5266	0.5479	0.052
Mof_H 	H 	0.2473	0.9378	0.6191	0.061
Mof_H 	H 	0.3106	0.2539	0.2154	0.06
Mof_C 	C 	0.8647	0.0486	0.0375	-0.029
Mof_C 	C 	0.0912	0.0341	0.4369	-0.029
Mof_C 	C 	0.9695	0.0014	0.6035	0.055
Mof_C 	C 	0.7487	0.715	0.7841	-0.048
Mof_C 	C 	0.4426	0.539	0.8739	0.031
Mof_C 	C 	0.2136	0.8339	0.7526	0.073
Mof_C 	C 	0.7513	0.215	0.2159	-0.048
Mof_C 	C 	0.5126	0.0648	0.9205	-0.037
Mof_C 	C 	0.5232	0.5794	0.9628	-0.096
Mof_C 	C 	0.3776	0.6158	0.7185	0.026
Mof_C 	C 	0.0305	0.9986	0.3965	0.055
Mof_C 	C 	0.2864	0.3339	0.2474	0.073
Mof_C 	C 	0.2978	0.3581	0.621	-0.069
Mof_C 	C 	0.029	0.7982	0.6853	-0.035
Mof_C 	C 	0.8163	0.4426	0.9586	-0.047
Mof_C 	C 	0.8702	0.7183	0.8149	-0.074
Mof_C 	C 	0.5912	0.4659	0.4369	-0.027
Mof_C 	C 	0.8776	0.8842	0.7185	0.027
Mof_C 	C 	0.5983	0.5909	0.5643	-0.001
Mof_C 	C 	0.4073	0.4482	0.6264	0.058
Mof_C 	C 	0.6582	0.5913	0.2935	-0.004
Mof_C 	C 	0.7295	0.9811	0.0822	0.057
Mof_C 	C 	0.0927	0.9482	0.3736	0.058
Mof_C 	C 	0.4379	0.0801	0.9607	-0.075
Mof_C 	C 	0.4017	0.4091	0.4357	-0.001
Mof_C 	C 	0.5621	0.9199	0.0393	-0.075
Mof_C 	C 	0.9247	0.9253	0.9174	-0.016
Mof_C 	C 	0.2295	0.5189	0.0822	0.054
Mof_C 	C 	0.4626	0.0276	0.8794	0.004
Mof_C 	C 	0.6439	0.5975	0.4045	-0.052
Mof_C 	C 	0.0574	0.039	0.1261	0.03
Mof_C 	C 	0.1439	0.9025	0.4045	-0.051
Mof_C 	C 	0.9209	0.6266	0.7801	0.035
Mof_C 	C 	0.9379	0.4199	0.9607	-0.08
Mof_C 	C 	0.5753	0.4253	0.0826	-0.015
Mof_C 	C 	0.3702	0.7817	0.8149	-0.074
Mof_C 	C 	0.0983	0.9091	0.5643	-0.002
Mof_C 	C 	0.6224	0.3842	0.2815	0.026
Mof_C 	C 	0.0232	0.9206	0.9628	-0.096
Mof_C 	C 	0.6298	0.2183	0.1851	-0.074
Mof_C 	C 	0.8979	0.7994	0.665	-0.083
Mof_C 	C 	0.0621	0.5801	0.0393	-0.08
Mof_C 	C 	0.9191	0.1611	0.2768	0.061
Mof_C 	C 	0.9073	0.0518	0.6264	0.058
Mof_C 	C 	0.79	0.1396	0.6758	-0.04
Mof_C 	C 	0.3561	0.4025	0.5955	-0.052
Mof_C 	C 	0.3979	0.7006	0.665	-0.084
Mof_C 	C 	0.0126	0.4352	0.9205	-0.031
Mof_C 	C 	0.4247	0.5747	0.9174	-0.015
Mof_C 	C 	0.7978	0.1419	0.621	-0.069
Mof_C 	C 	0.5305	0.5014	0.3965	0.054
Mof_C 	C 	0.3647	0.4514	0.0375	-0.029
Mof_C 	C 	0.6837	0.9426	0.0414	-0.05
Mof_C 	C 	0.6772	0.3426	0.3186	-0.017
Mof_C 	C 	0.9722	0.9188	0.5438	-0.087
Mof_C 	C 	0.71	0.6396	0.3242	-0.04
Mof_C 	C 	0.4695	0.4986	0.6035	0.054
Mof_C 	C 	0.3418	0.4087	0.7065	-0.004
Mof_C 	C 	0.0434	0.3265	0.1873	-0.029
Mof_C 	C 	0.2022	0.8581	0.379	-0.069
Mof_C 	C 	0.3228	0.6574	0.6814	-0.017
Mof_C 	C 	0.9017	0.0909	0.4357	-0.002
Mof_C 	C 	0.5278	0.4188	0.4562	-0.088
Mof_C 	C 	0.9626	0.4724	0.8794	-0.001
Mof_C 	C 	0.7022	0.6419	0.379	-0.069
Mof_C 	C 	0.1509	0.9858	0.9182	0.061
Mof_C 	C 	0.1298	0.2817	0.1851	-0.074
Mof_C 	C 	0.1582	0.9087	0.2935	-0.004
Mof_C 	C 	0.1597	0.9451	0.6043	0.005
Mof_C 	C 	0.0753	0.0747	0.0826	-0.016
Mof_C 	C 	0.4768	0.4206	0.0372	-0.096
Mof_C 	C 	0.1021	0.2006	0.335	-0.083
Mof_C 	C 	0.529	0.7018	0.6853	-0.033
Mof_C 	C 	0.9566	0.6735	0.8127	-0.029
Mof_C 	C 	0.5927	0.5518	0.3736	0.058
Mof_C 	C 	0.4191	0.3389	0.2768	0.06
Mof_C 	C 	0.4209	0.8734	0.7801	0.035
Mof_C 	C 	0.6021	0.2994	0.335	-0.084
Mof_C 	C 	0.2705	0.0189	0.9178	0.057
Mof_C 	C 	0.471	0.2982	0.3147	-0.033
Mof_C 	C 	0.4566	0.8265	0.8127	-0.03
Mof_C 	C 	0.4722	0.5812	0.5438	-0.088
Mof_C 	C 	0.4088	0.5341	0.5631	-0.027
Mof_C 	C 	0.9088	0.9659	0.5631	-0.029
Mof_C 	C 	0.5791	0.1266	0.2199	0.035
Mof_C 	C 	0.5574	0.461	0.1261	0.031
Mof_C 	C 	0.5374	0.9724	0.1206	0.004
Mof_C 	C 	0.7136	0.6661	0.7526	0.073
Mof_C 	C 	0.971	0.2018	0.3147	-0.035
Mof_C 	C 	0.4874	0.9352	0.0795	-0.037
Mof_C 	C 	0.8403	0.0549	0.3957	0.005
Mof_C 	C 	0.8491	0.0142	0.0818	0.061
Mof_C 	C 	0.29	0.3604	0.6758	-0.04
Mof_C 	C 	0.0809	0.8389	0.7232	0.061
Mof_C 	C 	0.5809	0.6611	0.7232	0.06
Mof_C 	C 	0.2487	0.785	0.7841	-0.048
Mof_C 	C 	0.2513	0.285	0.2159	-0.048
Mof_C 	C 	0.1772	0.1574	0.3186	-0.018
Mof_C 	C 	0.3491	0.4858	0.0818	0.063
Mof_C 	C 	0.1353	0.9514	0.9625	-0.029
Mof_C 	C 	0.3163	0.0574	0.9586	-0.05
Mof_C 	C 	0.7705	0.4811	0.9178	0.054
Mof_C 	C 	0.8418	0.0913	0.7065	-0.004
Mof_C 	C 	0.1224	0.1158	0.2815	0.027
Mof_C 	C 	0.0791	0.3734	0.2199	0.035
Mof_C 	C 	0.0278	0.0812	0.4562	-0.087
Mof_C 	C 	0.9426	0.961	0.8739	0.03
Mof_C 	C 	0.0374	0.5276	0.1206	-0.001
Mof_C 	C 	0.7864	0.1661	0.2474	0.073
Mof_C 	C 	0.5434	0.1735	0.1873	-0.03
Mof_C 	C 	0.8228	0.8426	0.6814	-0.018
Mof_C 	C 	0.3403	0.4451	0.3957	0.005
Mof_C 	C 	0.9874	0.5648	0.0795	-0.031
Mof_C 	C 	0.6597	0.5549	0.6043	0.005
Mof_C 	C 	0.6509	0.5142	0.9182	0.063
Mof_C 	C 	0.21	0.8604	0.3242	-0.04
Mof_C 	C 	0.6353	0.5486	0.9625	-0.029
Mof_C 	C 	0.9768	0.0794	0.0372	-0.096
Mof_C 	C 	0.1837	0.5574	0.0414	-0.047
Mof_C 	C 	0.8561	0.0975	0.5955	-0.051
Mof_S 	S 	0.3861	0.62769	0.49248	0.616
Mof_S 	S 	0.2437	0.29434	0.58283	0.517
Mof_S 	S 	0.4878	0.37289	0.98062	0.611
Mof_S 	S 	0.1668	0.2578	0.38017	0.644
Mof_S 	S 	0.2563	0.79434	0.41717	0.518
Mof_S 	S 	0.1139	0.12769	0.50752	0.615
Mof_S 	S 	0.5003	0.12812	0.01585	0.559
Mof_S 	S 	0.0003	0.37188	0.01585	0.561
Mof_S 	S 	0.4045	0.72081	0.86	0.524
Mof_S 	S 	0.5122	0.62711	0.01938	0.611
Mof_S 	S 	0.8861	0.87231	0.49248	0.615
Mof_S 	S 	0.0955	0.22081	0.14	0.524
Mof_S 	S 	0.7437	0.20566	0.58283	0.518
Mof_S 	S 	0.5955	0.27919	0.14	0.524
Mof_S 	S 	0.8332	0.7422	0.61983	0.644
Mof_S 	S 	0.9045	0.77919	0.86	0.524
Mof_S 	S 	0.4997	0.87188	0.98415	0.559
Mof_S 	S 	0.7563	0.70566	0.41717	0.517
Mof_S 	S 	0.6139	0.37231	0.50752	0.616
Mof_S 	S 	0.3332	0.7578	0.61983	0.644
Mof_S 	S 	0.0122	0.87289	0.01938	0.609
Mof_S 	S 	0.6668	0.2422	0.38017	0.644
Mof_S 	S 	0.9997	0.62812	0.98415	0.561
Mof_S 	S 	0.9878	0.12711	0.98062	0.609
Mof_N 	N 	0.4945	0.3815	0.2617	-0.049
Mof_N 	N 	0.599	0.5095	0.6229	-0.042
Mof_N 	N 	0.5055	0.6185	0.7383	-0.049
Mof_N 	N 	0.7992	0.6229	0.7518	-0.052
Mof_N 	N 	0.2992	0.8771	0.7518	-0.052
Mof_N 	N 	0.3428	0.0048	0.8782	-0.065
Mof_N 	N 	0.5996	0.5493	0.3191	-0.065
Mof_N 	N 	0.7008	0.1229	0.2482	-0.052
Mof_N 	N 	0.6572	0.9952	0.1218	-0.065
Mof_N 	N 	0.9473	0.0092	0.125	-0.041
Mof_N 	N 	0.9945	0.1185	0.2617	-0.049
Mof_N 	N 	0.4473	0.4908	0.125	-0.041
Mof_N 	N 	0.0996	0.9507	0.3191	-0.065
Mof_N 	N 	0.0527	0.9908	0.875	-0.041
Mof_N 	N 	0.901	0.0095	0.3771	-0.042
Mof_N 	N 	0.0055	0.8815	0.7383	-0.049
Mof_N 	N 	0.2008	0.3771	0.2482	-0.052
Mof_N 	N 	0.9004	0.0493	0.6809	-0.065
Mof_N 	N 	0.1572	0.5048	0.1218	-0.065
Mof_N 	N 	0.5527	0.5092	0.875	-0.041
Mof_N 	N 	0.8428	0.4952	0.8782	-0.065
Mof_N 	N 	0.401	0.4905	0.3771	-0.042
Mof_N 	N 	0.4004	0.4507	0.6809	-0.065
Mof_N 	N 	0.099	0.9905	0.6229	-0.042
Mof_O 	O 	0.3768	0.3361	0.9775	-0.481
Mof_O 	O 	0.5084	0.1237	0.4186	-0.104
Mof_O 	O 	0.4352	0.5279	0.1646	-0.343
Mof_O 	O 	0.4916	0.8763	0.5814	-0.104
Mof_O 	O 	0.551	0.5044	0.2884	-0.329
Mof_O 	O 	0.2315	0.424	0.2787	-0.329
Mof_O 	O 	0.5244	0.319	0.1691	-0.274
Mof_O 	O 	0.7978	0.2589	0.4	-0.445
Mof_O 	O 	0.0934	0.4073	0.0507	-0.287
Mof_O 	O 	0.1288	0.2766	0.6042	-0.383
Mof_O 	O 	0.9836	0.0891	0.9332	-0.287
Mof_O 	O 	0.3446	0.8094	0.6529	-0.288
Mof_O 	O 	0.8446	0.6906	0.6529	-0.288
Mof_O 	O 	0.413	0.7582	0.5772	-0.468
Mof_O 	O 	0.1472	0.0913	0.5558	-0.293
Mof_O 	O 	0.5934	0.0927	0.0507	-0.287
Mof_O 	O 	0.2748	0.6473	0.5157	-0.463
Mof_O 	O 	0.0234	0.1728	0.5152	-0.439
Mof_O 	O 	0.2978	0.2411	0.4	-0.445
Mof_O 	O 	0.717	0.1883	0.5255	-0.443
Mof_O 	O 	0.6605	0.4746	0.6611	-0.343
Mof_O 	O 	0.2252	0.1473	0.4843	-0.463
Mof_O 	O 	0.6232	0.6639	0.0225	-0.481
Mof_O 	O 	0.1605	0.0254	0.6611	-0.342
Mof_O 	O 	0.4766	0.6728	0.4848	-0.439
Mof_O 	O 	0.449	0.4956	0.7116	-0.329
Mof_O 	O 	0.7206	0.3009	0.1311	-0.395
Mof_O 	O 	0.087	0.2582	0.4228	-0.467
Mof_O 	O 	0.6096	0.8552	0.9592	-0.427
Mof_O 	O 	0.3395	0.5254	0.3389	-0.343
Mof_O 	O 	0.0648	0.0279	0.8354	-0.342
Mof_O 	O 	0.7991	0.5326	0.8383	-0.323
Mof_O 	O 	0.1096	0.6448	0.9592	-0.426
Mof_O 	O 	0.2991	0.9674	0.8383	-0.324
Mof_O 	O 	0.8768	0.1639	0.9775	-0.481
Mof_O 	O 	0.8472	0.247	0.5931	-0.412
Mof_O 	O 	0.89	0.843	0.0062	-0.461
Mof_O 	O 	0.487	0.1045	0.4522	-0.221
Mof_O 	O 	0.8904	0.3552	0.0408	-0.426
Mof_O 	O 	0.8528	0.9087	0.4442	-0.293
Mof_O 	O 	0.0225	0.2439	0.0896	-0.481
Mof_O 	O 	0.051	0.9956	0.2884	-0.329
Mof_O 	O 	0.9766	0.8272	0.4848	-0.439
Mof_O 	O 	0.5164	0.5891	0.0668	-0.287
Mof_O 	O 	0.9916	0.6237	0.5814	-0.103
Mof_O 	O 	0.1554	0.3094	0.3471	-0.288
Mof_O 	O 	0.4775	0.7439	0.9104	-0.481
Mof_O 	O 	0.61	0.343	0.9938	-0.463
Mof_O 	O 	0.8395	0.9746	0.3389	-0.342
Mof_O 	O 	0.2009	0.4674	0.1617	-0.323
Mof_O 	O 	0.3472	0.253	0.5931	-0.412
Mof_O 	O 	0.6472	0.4087	0.5558	-0.294
Mof_O 	O 	0.4066	0.9073	0.9493	-0.287
Mof_O 	O 	0.7794	0.8009	0.8689	-0.395
Mof_O 	O 	0.6288	0.2234	0.6042	-0.383
Mof_O 	O 	0.11	0.157	0.9938	-0.461
Mof_O 	O 	0.7685	0.576	0.7213	-0.329
Mof_O 	O 	0.9756	0.819	0.8309	-0.274
Mof_O 	O 	0.7252	0.3527	0.4843	-0.463
Mof_O 	O 	0.2206	0.1991	0.1311	-0.395
Mof_O 	O 	0.987	0.3955	0.4522	-0.222
Mof_O 	O 	0.2794	0.6991	0.8689	-0.395
Mof_O 	O 	0.9352	0.9721	0.1646	-0.342
Mof_O 	O 	0.9066	0.5927	0.9493	-0.287
Mof_O 	O 	0.217	0.3117	0.5255	-0.443
Mof_O 	O 	0.8712	0.7234	0.3958	-0.383
Mof_O 	O 	0.5588	0.176	0.9904	-0.473
Mof_O 	O 	0.4427	0.4186	0.2227	-0.3
Mof_O 	O 	0.7315	0.076	0.2787	-0.33
Mof_O 	O 	0.949	0.0044	0.7116	-0.329
Mof_O 	O 	0.1232	0.8361	0.0225	-0.481
Mof_O 	O 	0.1528	0.753	0.4069	-0.412
Mof_O 	O 	0.9427	0.0814	0.2227	-0.301
Mof_O 	O 	0.0244	0.181	0.1691	-0.274
Mof_O 	O 	0.9412	0.676	0.0096	-0.472
Mof_O 	O 	0.587	0.2418	0.4228	-0.468
Mof_O 	O 	0.0164	0.9109	0.0668	-0.287
Mof_O 	O 	0.783	0.6883	0.4745	-0.443
Mof_O 	O 	0.6554	0.1906	0.3471	-0.288
Mof_O 	O 	0.6528	0.747	0.4069	-0.412
Mof_O 	O 	0.0573	0.9186	0.7773	-0.301
Mof_O 	O 	0.3528	0.5913	0.4442	-0.294
Mof_O 	O 	0.9775	0.7561	0.9104	-0.481
Mof_O 	O 	0.4836	0.4109	0.9332	-0.287
Mof_O 	O 	0.7748	0.8527	0.5157	-0.463
Mof_O 	O 	0.013	0.6045	0.5478	-0.222
Mof_O 	O 	0.3712	0.7766	0.3958	-0.383
Mof_O 	O 	0.5648	0.4721	0.8354	-0.343
Mof_O 	O 	0.7009	0.0326	0.1617	-0.324
Mof_O 	O 	0.5234	0.3272	0.5152	-0.439
Mof_O 	O 	0.3904	0.1448	0.0408	-0.427
Mof_O 	O 	0.2022	0.7411	0.6	-0.445
Mof_O 	O 	0.2685	0.924	0.7213	-0.33
Mof_O 	O 	0.283	0.8117	0.4745	-0.443
Mof_O 	O 	0.4756	0.681	0.8309	-0.274
Mof_O 	O 	0.39	0.657	0.0062	-0.463
Mof_O 	O 	0.5225	0.2561	0.0896	-0.481
Mof_O 	O 	0.4412	0.824	0.0096	-0.473
Mof_O 	O 	0.513	0.8955	0.5478	-0.221
Mof_O 	O 	0.0588	0.324	0.9904	-0.472
Mof_O 	O 	0.0084	0.3763	0.4186	-0.103
Mof_O 	O 	0.7022	0.7589	0.6	-0.445
Mof_O 	O 	0.913	0.7418	0.5772	-0.467
Mof_O 	O 	0.5573	0.5814	0.7773	-0.3
_end
