# CIF file generated by openbabel 3.1.0, see https://openbabel.org
data_I
_chemical_name_common 'image0'
_cell_length_a 43.39
_cell_length_b 13.602
_cell_length_c 8.773
_cell_angle_alpha 90
_cell_angle_beta 90
_cell_angle_gamma 90
_space_group_name_H-M_alt 'P 1'
_space_group_name_Hall 'P 1'
loop_
    _symmetry_equiv_pos_as_xyz
    x,y,z
loop_
    _atom_site_label
    _atom_site_type_symbol
    _atom_site_fract_x
    _atom_site_fract_y
    _atom_site_fract_z
    _atom_site_occupancy
    N1       N        0.03100    0.27500    0.44200    1.000
    N2       N        0.09860    0.37500    0.43900    1.000
    N3       N        0.15910    0.88200    0.56000    1.000
    N4       N        0.22700    0.79400    0.55800    1.000
    C1       C        0.01500    0.28000    0.54300    1.000
    C2       C        0.10760    0.41700    0.53900    1.000
    C3       C        0.14450    0.90100    0.45700    1.000
    C4       C        0.24150    0.77200    0.45700    1.000
    C5       C        0.07600    0.66100    0.89500    1.000
    N5       N        0.46900    0.77500    0.55800    1.000
    N6       N        0.40140    0.87500    0.56100    1.000
    N7       N        0.34090    0.38200    0.44000    1.000
    N8       N        0.27300    0.29400    0.44200    1.000
    C6       C        0.48500    0.78000    0.45700    1.000
    C7       C        0.39240    0.91700    0.46100    1.000
    C8       C        0.35550    0.40100    0.54300    1.000
    C9       C        0.25850    0.27200    0.54300    1.000
    C10      C        0.42400    0.16100    0.10500    1.000
    N9       N        0.96900    0.72500    0.94200    1.000
    N10      N        0.90140    0.62500    0.93900    1.000
    N11      N        0.84090    0.11800    0.06000    1.000
    N12      N        0.77300    0.20600    0.05800    1.000
    C11      C        0.98500    0.72000    0.04300    1.000
    C12      C        0.89240    0.58300    0.03900    1.000
    C13      C        0.85550    0.09900    0.95700    1.000
    C14      C        0.75850    0.22800    0.95700    1.000
    C15      C        0.92400    0.33900    0.39500    1.000
    N13      N        0.53100    0.22500    0.05800    1.000
    N14      N        0.59860    0.12500    0.06100    1.000
    N15      N        0.65910    0.61800    0.94000    1.000
    N16      N        0.72700    0.70600    0.94200    1.000
    C16      C        0.51500    0.22000    0.95700    1.000
    C17      C        0.60760    0.08300    0.96100    1.000
    C18      C        0.64450    0.59900    0.04300    1.000
    C19      C        0.74150    0.72800    0.04300    1.000
    C20      C        0.57600    0.83900    0.60500    1.000
    N17      N        0.96900    0.72500    0.55800    1.000
    N18      N        0.90140    0.62500    0.56100    1.000
    N19      N        0.84090    0.11800    0.44000    1.000
    N20      N        0.77300    0.20600    0.44200    1.000
    C21      C        0.98500    0.72000    0.45700    1.000
    C22      C        0.89240    0.58300    0.46100    1.000
    C23      C        0.85550    0.09900    0.54300    1.000
    C24      C        0.75850    0.22800    0.54300    1.000
    C25      C        0.92400    0.33900    0.10500    1.000
    N21      N        0.53100    0.22500    0.44200    1.000
    N22      N        0.59860    0.12500    0.43900    1.000
    N23      N        0.65910    0.61800    0.56000    1.000
    N24      N        0.72700    0.70600    0.55800    1.000
    C26      C        0.51500    0.22000    0.54300    1.000
    C27      C        0.60760    0.08300    0.53900    1.000
    C28      C        0.64450    0.59900    0.45700    1.000
    C29      C        0.74150    0.72800    0.45700    1.000
    C30      C        0.57600    0.83900    0.89500    1.000
    N25      N        0.03100    0.27500    0.05800    1.000
    N26      N        0.09860    0.37500    0.06100    1.000
    N27      N        0.15910    0.88200    0.94000    1.000
    N28      N        0.22700    0.79400    0.94200    1.000
    C31      C        0.01500    0.28000    0.95700    1.000
    C32      C        0.10760    0.41700    0.96100    1.000
    C33      C        0.14450    0.90100    0.04300    1.000
    C34      C        0.24150    0.77200    0.04300    1.000
    C35      C        0.07600    0.66100    0.60500    1.000
    N29      N        0.46900    0.77500    0.94200    1.000
    N30      N        0.40140    0.87500    0.93900    1.000
    N31      N        0.34090    0.38200    0.06000    1.000
    N32      N        0.27300    0.29400    0.05800    1.000
    C36      C        0.48500    0.78000    0.04300    1.000
    C37      C        0.39240    0.91700    0.03900    1.000
    C38      C        0.35550    0.40100    0.95700    1.000
    C39      C        0.25850    0.27200    0.95700    1.000
    C40      C        0.42400    0.16100    0.39500    1.000
    Cd1      Cd       0.06455    0.31460    0.25000    1.000
    Cd2      Cd       0.01291    0.69480    0.25000    1.000
    Cd3      Cd       0.11654    0.93470    0.25000    1.000
    N33      N        0.08730    0.15800    0.25000    1.000
    N34      N        0.04500    0.47100    0.25000    1.000
    C41      C        0.09720    0.08200    0.25000    1.000
    C42      C        0.03350    0.54500    0.25000    1.000
    C43      C        0.05480    0.79100    0.25000    1.000
    C44      C        0.07620    0.83200    0.25000    1.000
    Cd4      Cd       0.43545    0.81460    0.75000    1.000
    Cd5      Cd       0.48709    0.19480    0.75000    1.000
    Cd6      Cd       0.38346    0.43470    0.75000    1.000
    N35      N        0.41270    0.65800    0.75000    1.000
    N36      N        0.45500    0.97100    0.75000    1.000
    C45      C        0.40280    0.58200    0.75000    1.000
    C46      C        0.46650    0.04500    0.75000    1.000
    C47      C        0.44520    0.29100    0.75000    1.000
    C48      C        0.42380    0.33200    0.75000    1.000
    Cd7      Cd       0.93545    0.68540    0.75000    1.000
    Cd8      Cd       0.98709    0.30520    0.75000    1.000
    Cd9      Cd       0.88346    0.06530    0.75000    1.000
    N37      N        0.91270    0.84200    0.75000    1.000
    N38      N        0.95500    0.52900    0.75000    1.000
    C49      C        0.90280    0.91800    0.75000    1.000
    C50      C        0.96650    0.45500    0.75000    1.000
    C51      C        0.94520    0.20900    0.75000    1.000
    C52      C        0.92380    0.16800    0.75000    1.000
    Cd10     Cd       0.56455    0.18540    0.25000    1.000
    Cd11     Cd       0.51291    0.80520    0.25000    1.000
    Cd12     Cd       0.61654    0.56530    0.25000    1.000
    N39      N        0.58730    0.34200    0.25000    1.000
    N40      N        0.54500    0.02900    0.25000    1.000
    C53      C        0.59720    0.41800    0.25000    1.000
    C54      C        0.53350    0.95500    0.25000    1.000
    C55      C        0.55480    0.70900    0.25000    1.000
    C56      C        0.57620    0.66800    0.25000    1.000
    Cd13     Cd       0.19273    0.83630    0.75000    1.000
    Cd14     Cd       0.23129    0.23800    0.75000    1.000
    Cd15     Cd       0.11966    0.49670    0.75000    1.000
    N41      N        0.16820    0.68100    0.75000    1.000
    N42      N        0.21170    0.00000    0.75000    1.000
    N43      N        0.16680    0.36000    0.75000    1.000
    C57      C        0.15350    0.61600    0.75000    1.000
    C58      C        0.22000    0.07900    0.75000    1.000
    C59      C        0.18530    0.31900    0.75000    1.000
    N44      N        0.07520    0.59900    0.75000    1.000
    C60      C        0.04950    0.53800    0.75000    1.000
    Cd16     Cd       0.30727    0.33630    0.25000    1.000
    Cd17     Cd       0.26871    0.73800    0.25000    1.000
    Cd18     Cd       0.38034    0.99670    0.25000    1.000
    N45      N        0.33180    0.18100    0.25000    1.000
    N46      N        0.28830    0.50000    0.25000    1.000
    N47      N        0.33320    0.86000    0.25000    1.000
    C61      C        0.34650    0.11600    0.25000    1.000
    C62      C        0.28000    0.57900    0.25000    1.000
    C63      C        0.31470    0.81900    0.25000    1.000
    N48      N        0.42480    0.09900    0.25000    1.000
    C64      C        0.45050    0.03800    0.25000    1.000
    Cd19     Cd       0.80727    0.16370    0.25000    1.000
    Cd20     Cd       0.76871    0.76200    0.25000    1.000
    Cd21     Cd       0.88034    0.50330    0.25000    1.000
    N49      N        0.83180    0.31900    0.25000    1.000
    N50      N        0.78830    0.00000    0.25000    1.000
    N51      N        0.83320    0.64000    0.25000    1.000
    C65      C        0.84650    0.38400    0.25000    1.000
    C66      C        0.78000    0.92100    0.25000    1.000
    C67      C        0.81470    0.68100    0.25000    1.000
    N52      N        0.92480    0.40100    0.25000    1.000
    C68      C        0.95050    0.46200    0.25000    1.000
    Cd22     Cd       0.69273    0.66370    0.75000    1.000
    Cd23     Cd       0.73129    0.26200    0.75000    1.000
    Cd24     Cd       0.61966    0.00330    0.75000    1.000
    N53      N        0.66820    0.81900    0.75000    1.000
    N54      N        0.71170    0.50000    0.75000    1.000
    N55      N        0.66680    0.14000    0.75000    1.000
    C69      C        0.65350    0.88400    0.75000    1.000
    C70      C        0.72000    0.42100    0.75000    1.000
    C71      C        0.68530    0.18100    0.75000    1.000
    N56      N        0.57520    0.90100    0.75000    1.000
    C72      C        0.54950    0.96200    0.75000    1.000
