data_functionalizedCrystal
_audit_creation_method	'EQeq! by Chris Wilmer'
_symmetry_space_group_name_H-M	'P1'
_symmetry_Int_Tables_number	1
_symmetry_cell_setting	triclinic
loop_
_symmetry_equiv_pos_as_xyz
  x,y,z
_cell_length_a	9.832
_cell_length_b	21.3218
_cell_length_c	13.7949
_cell_angle_alpha	90
_cell_angle_beta	105.602
_cell_angle_gamma	90
loop_
_atom_site_label
_atom_site_type_symbol
_atom_site_fract_x
_atom_site_fract_y
_atom_site_fract_z
_atom_site_charge
Mof_Nd	Nd	0.26124	0.01561	0.51486	2.311
Mof_O 	O 	0.1236	0.1025	0.5452	-0.599
Mof_O 	O 	0.9018	0.06996	0.5147	-0.609
Mof_O 	O 	0.8515	0.39497	0.9391	-0.547
Mof_O 	O 	0.0607	0.438	0.9481	-0.654
Mof_O 	O 	0.089	0.0292	0.3415	-0.454
Mof_O 	O 	0.2872	0.9802	0.3465	-0.468
Mof_C 	C 	0.9729	0.1576	0.6226	-0.17
Mof_C 	C 	0.841	0.1613	0.6455	0.069
Mof_H 	H 	0.7674	0.1329	0.6152	-0.003
Mof_C 	C 	0.8204	0.2049	0.7101	-0.114
Mof_H 	H 	0.7329	0.2054	0.727	0.06
Mof_C 	C 	0.9232	0.2498	0.7539	0.015
Mof_C 	C 	0.9009	0.2986	0.8185	0.016
Mof_H 	H 	0.8131	0.3005	0.8349	0.036
Mof_C 	C 	0.0006	0.3422	0.8574	-0.185
Mof_C 	C 	0.1309	0.3395	0.8336	0.074
Mof_H 	H 	0.2016	0.3699	0.8604	-0.028
Mof_C 	C 	0.1562	0.2931	0.772	-0.124
Mof_H 	H 	0.2449	0.2918	0.7569	0.062
Mof_C 	C 	0.0539	0.2471	0.7305	0.012
Mof_C 	C 	0.0751	0.1994	0.6656	0.002
Mof_H 	H 	0.1642	0.1964	0.6514	0.025
Mof_C 	C 	0.0016	0.106	0.5559	0.515
Mof_C 	C 	0.969	0.3958	0.9199	0.513
Mof_C 	C 	0.1719	0.9568	0.0334	-0.085
Mof_H 	H 	0.2305	0.9342	0.001	0.048
Mof_C 	C 	0.2116	0.963	0.135	0.005
Mof_H 	H 	0.2982	0.9453	0.173	0.017
Mof_C 	C 	0.1246	0.9956	0.1845	-0.074
Mof_C 	C 	0.0015	0.021	0.1315	-0.045
Mof_H 	H 	0.9442	0.0426	0.1661	0.042
Mof_C 	C 	0.9561	0.0162	0.0252	0.016
Mof_C 	C 	0.1691	0.002	0.297	0.321
Mof_Nd	Nd	0.23876	0.51561	0.98514	2.315
Mof_O 	O 	0.3764	0.6025	0.9548	-0.602
Mof_O 	O 	0.5982	0.56996	0.9853	-0.614
Mof_O 	O 	0.6485	0.89497	0.5609	-0.546
Mof_O 	O 	0.4393	0.938	0.5519	-0.647
Mof_O 	O 	0.411	0.5292	0.1585	-0.454
Mof_O 	O 	0.2128	0.4802	0.1535	-0.471
Mof_C 	C 	0.5271	0.6576	0.8774	-0.183
Mof_C 	C 	0.659	0.6613	0.8545	0.077
Mof_H 	H 	0.7326	0.6329	0.8848	-0.005
Mof_C 	C 	0.6796	0.7049	0.7899	-0.122
Mof_H 	H 	0.7671	0.7054	0.773	0.062
Mof_C 	C 	0.5768	0.7498	0.7461	0.021
Mof_C 	C 	0.5991	0.7986	0.6815	0.002
Mof_H 	H 	0.6869	0.8005	0.6651	0.04
Mof_C 	C 	0.4994	0.8422	0.6426	-0.169
Mof_C 	C 	0.3691	0.8395	0.6664	0.065
Mof_H 	H 	0.2984	0.8699	0.6396	-0.025
Mof_C 	C 	0.3438	0.7931	0.728	-0.116
Mof_H 	H 	0.2551	0.7918	0.7431	0.059
Mof_C 	C 	0.4461	0.7471	0.7695	0.007
Mof_C 	C 	0.4249	0.6994	0.8344	0.014
Mof_H 	H 	0.3358	0.6964	0.8486	0.021
Mof_C 	C 	0.4984	0.606	0.9441	0.527
Mof_C 	C 	0.531	0.8958	0.5801	0.5
Mof_C 	C 	0.3281	0.4568	0.4666	-0.092
Mof_H 	H 	0.2695	0.4342	0.499	0.048
Mof_C 	C 	0.2884	0.463	0.365	0.012
Mof_H 	H 	0.2018	0.4453	0.327	0.015
Mof_C 	C 	0.3754	0.4956	0.3155	-0.085
Mof_C 	C 	0.4985	0.521	0.3685	-0.036
Mof_H 	H 	0.5558	0.5426	0.3339	0.039
Mof_C 	C 	0.5439	0.5162	0.4748	0.016
Mof_C 	C 	0.3309	0.502	0.203	0.328
Mof_Nd	Nd	0.73876	0.98438	0.48514	2.312
Mof_O 	O 	0.8764	0.8975	0.4548	-0.6
Mof_O 	O 	0.0982	0.93004	0.4853	-0.61
Mof_O 	O 	0.1485	0.60503	0.0609	-0.547
Mof_O 	O 	0.9393	0.562	0.0519	-0.654
Mof_O 	O 	0.911	0.9708	0.6585	-0.454
Mof_O 	O 	0.7128	0.0198	0.6535	-0.468
Mof_C 	C 	0.0271	0.8424	0.3774	-0.17
Mof_C 	C 	0.159	0.8387	0.3545	0.069
Mof_H 	H 	0.2326	0.8671	0.3848	-0.003
Mof_C 	C 	0.1796	0.7951	0.2899	-0.114
Mof_H 	H 	0.2671	0.7946	0.273	0.06
Mof_C 	C 	0.0768	0.7502	0.2461	0.015
Mof_C 	C 	0.0991	0.7014	0.1815	0.016
Mof_H 	H 	0.1869	0.6995	0.1651	0.036
Mof_C 	C 	0.9994	0.6578	0.1426	-0.185
Mof_C 	C 	0.8691	0.6605	0.1664	0.074
Mof_H 	H 	0.7984	0.6301	0.1396	-0.028
Mof_C 	C 	0.8438	0.7069	0.228	-0.124
Mof_H 	H 	0.7551	0.7082	0.2431	0.062
Mof_C 	C 	0.9461	0.7529	0.2695	0.012
Mof_C 	C 	0.9249	0.8006	0.3344	0.002
Mof_H 	H 	0.8358	0.8036	0.3486	0.025
Mof_C 	C 	0.9984	0.894	0.4441	0.515
Mof_C 	C 	0.031	0.6042	0.0801	0.512
Mof_C 	C 	0.8281	0.0432	0.9666	-0.085
Mof_H 	H 	0.7695	0.0658	0.999	0.048
Mof_C 	C 	0.7884	0.037	0.865	0.005
Mof_H 	H 	0.7018	0.0547	0.827	0.017
Mof_C 	C 	0.8754	0.0044	0.8155	-0.074
Mof_C 	C 	0.9985	0.979	0.8685	-0.045
Mof_H 	H 	0.0558	0.9574	0.8339	0.042
Mof_C 	C 	0.0439	0.9838	0.9748	0.016
Mof_C 	C 	0.8309	0.998	0.703	0.321
Mof_Nd	Nd	0.76124	0.48438	0.01486	2.315
Mof_O 	O 	0.6236	0.3975	0.0452	-0.602
Mof_O 	O 	0.4018	0.43004	0.0147	-0.614
Mof_O 	O 	0.3515	0.10503	0.4391	-0.546
Mof_O 	O 	0.5607	0.062	0.4481	-0.647
Mof_O 	O 	0.589	0.4708	0.8415	-0.454
Mof_O 	O 	0.7872	0.5198	0.8465	-0.471
Mof_C 	C 	0.4729	0.3424	0.1226	-0.183
Mof_C 	C 	0.341	0.3387	0.1455	0.077
Mof_H 	H 	0.2674	0.3671	0.1152	-0.005
Mof_C 	C 	0.3204	0.2951	0.2101	-0.122
Mof_H 	H 	0.2329	0.2946	0.227	0.062
Mof_C 	C 	0.4232	0.2502	0.2539	0.021
Mof_C 	C 	0.4009	0.2014	0.3185	0.002
Mof_H 	H 	0.3131	0.1995	0.3349	0.04
Mof_C 	C 	0.5006	0.1578	0.3574	-0.169
Mof_C 	C 	0.6309	0.1605	0.3336	0.065
Mof_H 	H 	0.7016	0.1301	0.3604	-0.025
Mof_C 	C 	0.6562	0.2069	0.272	-0.116
Mof_H 	H 	0.7449	0.2082	0.2569	0.059
Mof_C 	C 	0.5539	0.2529	0.2305	0.007
Mof_C 	C 	0.5751	0.3006	0.1656	0.014
Mof_H 	H 	0.6642	0.3036	0.1514	0.021
Mof_C 	C 	0.5016	0.394	0.0559	0.527
Mof_C 	C 	0.469	0.1042	0.4199	0.5
Mof_C 	C 	0.6719	0.5432	0.5334	-0.092
Mof_H 	H 	0.7305	0.5658	0.501	0.048
Mof_C 	C 	0.7116	0.537	0.635	0.012
Mof_H 	H 	0.7982	0.5547	0.673	0.015
Mof_C 	C 	0.6246	0.5044	0.6845	-0.085
Mof_C 	C 	0.5015	0.479	0.6315	-0.036
Mof_H 	H 	0.4442	0.4574	0.6661	0.039
Mof_C 	C 	0.4561	0.4838	0.5252	0.016
Mof_C 	C 	0.6691	0.498	0.797	0.328
_end
