# CIF file generated by openbabel 3.1.0, see https://openbabel.org
data_I
_chemical_name_common 'FIQZEM_clean'
_cell_length_a 6.718
_cell_length_b 13.507
_cell_length_c 15.229
_cell_angle_alpha 90
_cell_angle_beta 90
_cell_angle_gamma 90
_space_group_name_H-M_alt 'P 1'
_space_group_name_Hall 'P 1'
loop_
    _symmetry_equiv_pos_as_xyz
    x,y,z
loop_
    _atom_site_label
    _atom_site_type_symbol
    _atom_site_fract_x
    _atom_site_fract_y
    _atom_site_fract_z
    _atom_site_occupancy
    Cd1      Cd       0.63223    0.19377    0.46847    1.000
    Cd2      Cd       0.13223    0.30623    0.53153    1.000
    Cd3      Cd       0.86777    0.80623    0.96847    1.000
    Cd4      Cd       0.36777    0.69377    0.03153    1.000
    H1       H        0.37140    0.18620    0.04870    1.000
    H2       H        0.84310    0.23820    0.20720    1.000
    H3       H        0.15690    0.73820    0.29280    1.000
    H4       H        0.34200    0.83920    0.75310    1.000
    H5       H        0.65800    0.33920    0.74690    1.000
    H6       H        0.85950    0.19260    0.06220    1.000
    H7       H        0.87140    0.31380    0.95130    1.000
    H8       H        0.34310    0.26180    0.79280    1.000
    H9       H        0.12860    0.81380    0.54870    1.000
    H10      H        0.13080    0.97920    0.51310    1.000
    H11      H        0.64050    0.80740    0.56220    1.000
    H12      H        0.63170    0.45910    0.85760    1.000
    H13      H        0.62860    0.68620    0.45130    1.000
    H14      H        0.36830    0.95910    0.64240    1.000
    H15      H        0.86920    0.47920    0.98690    1.000
    H16      H        0.14050    0.69260    0.43780    1.000
    H17      H        0.15800    0.16080    0.25310    1.000
    H18      H        0.63080    0.52080    0.48690    1.000
    H19      H        0.13170    0.04090    0.14240    1.000
    H20      H        0.84200    0.66080    0.24690    1.000
    H21      H        0.65690    0.76180    0.70720    1.000
    H22      H        0.35950    0.30740    0.93780    1.000
    H23      H        0.36920    0.02080    0.01310    1.000
    H24      H        0.86830    0.54090    0.35760    1.000
    C1       C        0.85930    0.26080    0.07750    1.000
    C2       C        0.63350    0.56880    0.53250    1.000
    C3       C        0.85200    0.28800    0.16340    1.000
    C4       C        0.35660    0.93510    0.85490    1.000
    C5       C        0.35780    0.07890    0.72160    1.000
    C6       C        0.64260    0.61040    0.68960    1.000
    C7       C        0.86650    0.43120    0.03250    1.000
    C8       C        0.14420    0.85090    0.14350    1.000
    C9       C        0.13350    0.93120    0.46750    1.000
    C10      C        0.63740    0.53660    0.62160    1.000
    C11      C        0.85780    0.42110    0.27840    1.000
    C12      C        0.86030    0.52060    0.29800    1.000
    C13      C        0.64420    0.64910    0.85650    1.000
    C14      C        0.85960    0.64640    0.07760    1.000
    C15      C        0.85740    0.38960    0.18960    1.000
    C16      C        0.14800    0.78800    0.33660    1.000
    C17      C        0.13350    0.83330    0.48880    1.000
    C18      C        0.64040    0.35360    0.57760    1.000
    C19      C        0.64340    0.43510    0.64510    1.000
    C20      C        0.14040    0.14640    0.42240    1.000
    C21      C        0.35200    0.21200    0.83660    1.000
    C22      C        0.13740    0.96340    0.37840    1.000
    C23      C        0.64070    0.73920    0.57750    1.000
    C24      C        0.36650    0.16670    0.98880    1.000
    C25      C        0.36030    0.97940    0.70200    1.000
    C26      C        0.85150    0.59270    0.23170    1.000
    C27      C        0.14070    0.76080    0.42250    1.000
    C28      C        0.35740    0.11040    0.81040    1.000
    C29      C        0.86260    0.46340    0.12160    1.000
    C30      C        0.85580    0.35090    0.35650    1.000
    C31      C        0.64220    0.57890    0.77840    1.000
    C32      C        0.14220    0.92110    0.22160    1.000
    C33      C        0.35580    0.14910    0.64350    1.000
    C34      C        0.14260    0.88960    0.31040    1.000
    C35      C        0.63350    0.66670    0.51120    1.000
    C36      C        0.14850    0.09270    0.26830    1.000
    C37      C        0.35150    0.90730    0.76830    1.000
    C38      C        0.35930    0.23920    0.92250    1.000
    C39      C        0.86650    0.33330    0.01120    1.000
    C40      C        0.64800    0.71200    0.66340    1.000
    C41      C        0.36260    0.03660    0.87840    1.000
    C42      C        0.85660    0.56490    0.14510    1.000
    C43      C        0.63970    0.47940    0.79800    1.000
    C44      C        0.35960    0.85360    0.92240    1.000
    C45      C        0.64850    0.40730    0.73170    1.000
    C46      C        0.36650    0.06880    0.96750    1.000
    C47      C        0.14340    0.06490    0.35490    1.000
    C48      C        0.13970    0.02060    0.20200    1.000
    O1       O        0.72810    0.71380    0.08460    1.000
    O2       O        0.00830    0.14780    0.48110    1.000
    O3       O        0.24840    0.77380    0.14920    1.000
    O4       O        0.95290    0.37880    0.42320    1.000
    O5       O        0.25160    0.22620    0.64920    1.000
    O6       O        0.04710    0.87880    0.07680    1.000
    O7       O        0.27190    0.21380    0.41540    1.000
    O8       O        0.49170    0.85220    0.98110    1.000
    O9       O        0.74840    0.72620    0.85080    1.000
    O10      O        0.22810    0.78620    0.91540    1.000
    O11      O        0.77190    0.28620    0.58460    1.000
    O12      O        0.75160    0.27380    0.35080    1.000
    O13      O        0.99170    0.64780    0.01890    1.000
    O14      O        0.45290    0.12120    0.57680    1.000
    O15      O        0.50830    0.35220    0.51890    1.000
    O16      O        0.54710    0.62120    0.92320    1.000
