data_functionalizedCrystal
_audit_creation_method	'EQeq! by Chris Wilmer'
_symmetry_space_group_name_H-M	'P1'
_symmetry_Int_Tables_number	1
_symmetry_cell_setting	triclinic
loop_
_symmetry_equiv_pos_as_xyz
  x,y,z
_cell_length_a	20.1308
_cell_length_b	27.4099
_cell_length_c	45.3338
_cell_angle_alpha	90
_cell_angle_beta	90
_cell_angle_gamma	90
loop_
_atom_site_label
_atom_site_type_symbol
_atom_site_fract_x
_atom_site_fract_y
_atom_site_fract_z
_atom_site_charge
Mof_Zn	Zn	0.68636	0.24903	0.59019	1.15
Mof_Zn	Zn	0.72898	0.12898	0.58401	1.228
Mof_Zn	Zn	0.74038	0.18639	0.64721	1.218
Mof_Zn	Zn	0.02536	0.68	0.65081	1.188
Mof_Zn	Zn	0.45918	0.78752	0.58484	1.224
Mof_Zn	Zn	0.57608	0.86658	0.58703	1.192
Mof_Zn	Zn	0.09078	0.75094	0.91483	1.147
Mof_Zn	Zn	0.56842	0.87187	0.91703	1.228
Mof_Zn	Zn	0.54395	0.8115	0.85599	1.22
Mof_Zn	Zn	0.25258	0.32384	0.85081	1.198
Mof_Zn	Zn	0.32725	0.31417	0.91749	1.225
Mof_Zn	Zn	0.67061	0.18858	0.91528	1.189
Mof_Zn	Zn	0.18636	0.75097	0.40981	1.151
Mof_Zn	Zn	0.22898	0.87102	0.41599	1.229
Mof_Zn	Zn	0.24038	0.81361	0.35279	1.219
Mof_Zn	Zn	0.52536	0.32	0.34919	1.189
Mof_Zn	Zn	0.95918	0.21248	0.41516	1.225
Mof_Zn	Zn	0.07608	0.13342	0.41297	1.192
Mof_Zn	Zn	0.59078	0.24906	0.08517	1.148
Mof_Zn	Zn	0.06842	0.12813	0.08297	1.229
Mof_Zn	Zn	0.04395	0.1885	0.14401	1.221
Mof_Zn	Zn	0.75258	0.67616	0.14919	1.199
Mof_Zn	Zn	0.82725	0.68583	0.08251	1.226
Mof_Zn	Zn	0.17061	0.81142	0.08472	1.189
Mof_Zn	Zn	0.68636	0.74903	0.40981	1.151
Mof_Zn	Zn	0.72898	0.62898	0.41599	1.229
Mof_Zn	Zn	0.74038	0.68639	0.35279	1.219
Mof_Zn	Zn	0.02536	0.18	0.34919	1.189
Mof_Zn	Zn	0.45918	0.28752	0.41516	1.225
Mof_Zn	Zn	0.57608	0.36658	0.41297	1.193
Mof_Zn	Zn	0.09078	0.25094	0.08517	1.148
Mof_Zn	Zn	0.56842	0.37187	0.08297	1.229
Mof_Zn	Zn	0.54395	0.3115	0.14401	1.221
Mof_Zn	Zn	0.25258	0.82384	0.14919	1.199
Mof_Zn	Zn	0.32725	0.81417	0.08251	1.226
Mof_Zn	Zn	0.67061	0.68858	0.08472	1.189
Mof_Zn	Zn	0.18636	0.25097	0.59019	1.151
Mof_Zn	Zn	0.22898	0.37102	0.58401	1.229
Mof_Zn	Zn	0.24038	0.31361	0.64721	1.219
Mof_Zn	Zn	0.52536	0.82	0.65081	1.189
Mof_Zn	Zn	0.95918	0.71248	0.58484	1.226
Mof_Zn	Zn	0.07608	0.63342	0.58703	1.192
Mof_Zn	Zn	0.59078	0.74906	0.91483	1.148
Mof_Zn	Zn	0.06842	0.62813	0.91703	1.229
Mof_Zn	Zn	0.04395	0.6885	0.85599	1.221
Mof_Zn	Zn	0.75258	0.17616	0.85081	1.199
Mof_Zn	Zn	0.82725	0.18583	0.91749	1.226
Mof_Zn	Zn	0.17061	0.31142	0.91528	1.189
Mof_H 	H 	0.7876	0.1993	0.5998	0.289
Mof_H 	H 	0.3826	0.7852	0.7987	0.059
Mof_H 	H 	0.2895	0.7628	0.8756	0.041
Mof_H 	H 	0.1906	0.7445	0.7996	0.057
Mof_H 	H 	0.1789	0.7489	0.7021	0.053
Mof_H 	H 	0.2663	0.7569	0.6231	0.046
Mof_H 	H 	0.3751	0.7744	0.6963	0.038
Mof_H 	H 	0.6973	0.0617	0.6999	0.05
Mof_H 	H 	0.6573	0.0006	0.6217	0.038
Mof_H 	H 	0.6177	0.9284	0.6966	0.038
Mof_H 	H 	0.6035	0.9259	0.7988	0.057
Mof_H 	H 	0.6527	0.9927	0.8743	0.051
Mof_H 	H 	0.7007	0.0541	0.7972	0.059
Mof_H 	H 	0.589	0.2337	0.7049	0.059
Mof_H 	H 	0.4908	0.2537	0.6284	0.044
Mof_H 	H 	0.4018	0.2817	0.7058	0.061
Mof_H 	H 	0.4141	0.2937	0.8059	0.027
Mof_H 	H 	0.5084	0.2627	0.8812	0.033
Mof_H 	H 	0.5906	0.2272	0.8046	0.035
Mof_H 	H 	0.3114	0.1605	0.9524	0.043
Mof_H 	H 	0.1801	0.2355	0.0008	0.025
Mof_H 	H 	0.236	0.1011	0.0261	0.052
Mof_H 	H 	0.3113	0.9784	0.0253	0.062
Mof_H 	H 	0.4303	0.8671	0.005	0.057
Mof_H 	H 	0.4246	0.9841	0.952	0.063
Mof_H 	H 	0.5677	0.7866	0.6038	0.323
Mof_H 	H 	0.4841	0.9638	0.5308	0.053
Mof_H 	H 	0.3649	0.8528	0.5092	0.049
Mof_H 	H 	0.3689	0.9732	0.4588	0.061
Mof_H 	H 	0.4692	0.1458	0.4593	0.058
Mof_H 	H 	0.5923	0.2319	0.5051	0.036
Mof_H 	H 	0.5615	0.0943	0.5309	0.053
Mof_H 	H 	0.9981	0.6937	0.9038	0.291
Mof_H 	H 	0.2479	0.3681	0.898	0.326
Mof_H 	H 	0.2876	0.8007	0.4002	0.289
Mof_H 	H 	0.8826	0.2148	0.2013	0.059
Mof_H 	H 	0.7895	0.2372	0.1244	0.041
Mof_H 	H 	0.6906	0.2555	0.2004	0.057
Mof_H 	H 	0.6789	0.2511	0.2979	0.053
Mof_H 	H 	0.7663	0.2431	0.3769	0.046
Mof_H 	H 	0.8751	0.2256	0.3037	0.038
Mof_H 	H 	0.1973	0.9383	0.3001	0.05
Mof_H 	H 	0.1573	0.9994	0.3783	0.038
Mof_H 	H 	0.1177	0.0716	0.3034	0.038
Mof_H 	H 	0.1035	0.0741	0.2012	0.057
Mof_H 	H 	0.1527	0.0073	0.1257	0.05
Mof_H 	H 	0.2007	0.9459	0.2028	0.059
Mof_H 	H 	0.089	0.7663	0.2951	0.06
Mof_H 	H 	0.9908	0.7463	0.3716	0.044
Mof_H 	H 	0.9018	0.7183	0.2942	0.062
Mof_H 	H 	0.9141	0.7063	0.1941	0.026
Mof_H 	H 	0.0084	0.7373	0.1188	0.033
Mof_H 	H 	0.0906	0.7728	0.1954	0.034
Mof_H 	H 	0.8114	0.8395	0.0476	0.044
Mof_H 	H 	0.6801	0.7645	0.9992	0.025
Mof_H 	H 	0.736	0.8989	0.9739	0.052
Mof_H 	H 	0.8113	0.0216	0.9747	0.062
Mof_H 	H 	0.9303	0.1329	0.995	0.057
Mof_H 	H 	0.9246	0.0159	0.048	0.063
Mof_H 	H 	0.0677	0.2134	0.3962	0.323
Mof_H 	H 	0.9841	0.0362	0.4692	0.054
Mof_H 	H 	0.8649	0.1472	0.4908	0.049
Mof_H 	H 	0.8689	0.0268	0.5412	0.061
Mof_H 	H 	0.9692	0.8542	0.5407	0.056
Mof_H 	H 	0.0923	0.7681	0.4949	0.035
Mof_H 	H 	0.0615	0.9057	0.4691	0.051
Mof_H 	H 	0.4981	0.3063	0.0962	0.289
Mof_H 	H 	0.7479	0.6319	0.102	0.326
Mof_H 	H 	0.7876	0.6993	0.4002	0.289
Mof_H 	H 	0.3826	0.2852	0.2013	0.059
Mof_H 	H 	0.2895	0.2628	0.1244	0.041
Mof_H 	H 	0.1906	0.2445	0.2004	0.057
Mof_H 	H 	0.1789	0.2489	0.2979	0.053
Mof_H 	H 	0.2663	0.2569	0.3769	0.046
Mof_H 	H 	0.3751	0.2744	0.3037	0.038
Mof_H 	H 	0.6973	0.5617	0.3001	0.05
Mof_H 	H 	0.6573	0.5006	0.3783	0.038
Mof_H 	H 	0.6177	0.4284	0.3034	0.038
Mof_H 	H 	0.6035	0.4259	0.2012	0.057
Mof_H 	H 	0.6527	0.4927	0.1257	0.051
Mof_H 	H 	0.7007	0.5541	0.2028	0.059
Mof_H 	H 	0.589	0.7337	0.2951	0.059
Mof_H 	H 	0.4908	0.7537	0.3716	0.044
Mof_H 	H 	0.4018	0.7817	0.2942	0.061
Mof_H 	H 	0.4141	0.7937	0.1941	0.027
Mof_H 	H 	0.5084	0.7627	0.1188	0.033
Mof_H 	H 	0.5906	0.7272	0.1954	0.035
Mof_H 	H 	0.3114	0.6605	0.0476	0.043
Mof_H 	H 	0.1801	0.7355	0.9992	0.025
Mof_H 	H 	0.236	0.6011	0.9739	0.052
Mof_H 	H 	0.3113	0.4784	0.9747	0.062
Mof_H 	H 	0.4303	0.3671	0.995	0.057
Mof_H 	H 	0.4246	0.4841	0.048	0.063
Mof_H 	H 	0.5677	0.2866	0.3962	0.323
Mof_H 	H 	0.4841	0.4638	0.4692	0.053
Mof_H 	H 	0.3649	0.3528	0.4908	0.049
Mof_H 	H 	0.3689	0.4732	0.5412	0.061
Mof_H 	H 	0.4692	0.6458	0.5407	0.058
Mof_H 	H 	0.5923	0.7319	0.4949	0.036
Mof_H 	H 	0.5615	0.5943	0.4691	0.053
Mof_H 	H 	0.9981	0.1937	0.0962	0.291
Mof_H 	H 	0.2479	0.8681	0.102	0.326
Mof_H 	H 	0.2876	0.3007	0.5998	0.289
Mof_H 	H 	0.8826	0.7148	0.7987	0.059
Mof_H 	H 	0.7895	0.7372	0.8756	0.041
Mof_H 	H 	0.6906	0.7555	0.7996	0.057
Mof_H 	H 	0.6789	0.7511	0.7021	0.053
Mof_H 	H 	0.7663	0.7431	0.6231	0.046
Mof_H 	H 	0.8751	0.7256	0.6963	0.039
Mof_H 	H 	0.1973	0.4383	0.6999	0.05
Mof_H 	H 	0.1573	0.4994	0.6217	0.038
Mof_H 	H 	0.1177	0.5716	0.6966	0.038
Mof_H 	H 	0.1035	0.5741	0.7988	0.057
Mof_H 	H 	0.1527	0.5073	0.8743	0.05
Mof_H 	H 	0.2007	0.4459	0.7972	0.059
Mof_H 	H 	0.089	0.2663	0.7049	0.06
Mof_H 	H 	0.9908	0.2463	0.6284	0.044
Mof_H 	H 	0.9018	0.2183	0.7058	0.062
Mof_H 	H 	0.9141	0.2063	0.8059	0.026
Mof_H 	H 	0.0084	0.2373	0.8812	0.033
Mof_H 	H 	0.0906	0.2728	0.8046	0.034
Mof_H 	H 	0.8114	0.3395	0.9524	0.044
Mof_H 	H 	0.6801	0.2645	0.0008	0.025
Mof_H 	H 	0.736	0.3989	0.0261	0.052
Mof_H 	H 	0.8113	0.5216	0.0253	0.062
Mof_H 	H 	0.9303	0.6329	0.005	0.057
Mof_H 	H 	0.9246	0.5159	0.952	0.063
Mof_H 	H 	0.0677	0.7134	0.6038	0.323
Mof_H 	H 	0.9841	0.5362	0.5308	0.054
Mof_H 	H 	0.8649	0.6472	0.5092	0.049
Mof_H 	H 	0.8689	0.5268	0.4588	0.061
Mof_H 	H 	0.9692	0.3542	0.4593	0.056
Mof_H 	H 	0.0923	0.2681	0.5051	0.035
Mof_H 	H 	0.0615	0.4057	0.5309	0.051
Mof_H 	H 	0.4981	0.8063	0.9038	0.289
Mof_H 	H 	0.7479	0.1319	0.898	0.326
Mof_C 	C 	0.2865	0.7647	0.79387	0.016
Mof_C 	C 	0.3446	0.7767	0.80911	-0.038
Mof_C 	C 	0.3459	0.7759	0.83934	-0.076
Mof_C 	C 	0.2887	0.7632	0.8551	0.011
Mof_C 	C 	0.2307	0.751	0.84009	-0.091
Mof_C 	C 	0.2295	0.7522	0.80964	-0.032
Mof_C 	C 	0.408	0.7893	0.85568	0.322
Mof_C 	C 	0.1695	0.7347	0.85619	0.359
Mof_C 	C 	0.2768	0.7629	0.70469	0.008
Mof_C 	C 	0.2166	0.7538	0.69065	-0.025
Mof_C 	C 	0.211	0.7518	0.6605	-0.087
Mof_C 	C 	0.2687	0.7582	0.64352	0.023
Mof_C 	C 	0.329	0.7663	0.657	-0.096
Mof_C 	C 	0.3341	0.7688	0.68746	-0.026
Mof_C 	C 	0.1457	0.7403	0.64594	0.354
Mof_C 	C 	0.3907	0.7711	0.63879	0.343
Mof_C 	C 	0.2837	0.7672	0.7619	-0.022
Mof_C 	C 	0.2811	0.7647	0.73584	-0.017
Mof_C 	C 	0.6555	0.995	0.70334	-0.003
Mof_C 	C 	0.6804	0.0359	0.68897	-0.008
Mof_C 	C 	0.6802	0.0384	0.65878	-0.112
Mof_C 	C 	0.6566	0.999	0.64223	0.051
Mof_C 	C 	0.6326	0.958	0.65592	-0.122
Mof_C 	C 	0.633	0.9562	0.68705	-0.01
Mof_C 	C 	0.7048	0.0828	0.64292	0.398
Mof_C 	C 	0.6091	0.9142	0.63912	0.402
Mof_C 	C 	0.6517	0.9906	0.7926	0.02
Mof_C 	C 	0.6233	0.9519	0.80856	-0.032
Mof_C 	C 	0.6253	0.9531	0.83923	-0.087
Mof_C 	C 	0.6529	0.9922	0.85378	0.019
Mof_C 	C 	0.6803	0.0302	0.83876	-0.074
Mof_C 	C 	0.6807	0.0289	0.80772	-0.037
Mof_C 	C 	0.5944	0.9106	0.85657	0.403
Mof_C 	C 	0.71	0.074	0.85469	0.344
Mof_C 	C 	0.6532	0.9929	0.73457	-0.011
Mof_C 	C 	0.6511	0.9904	0.76115	-0.023
Mof_C 	C 	0.4957	0.2581	0.71045	0.025
Mof_C 	C 	0.551	0.2433	0.69483	-0.043
Mof_C 	C 	0.5502	0.2426	0.66404	-0.084
Mof_C 	C 	0.4919	0.2551	0.64886	0.002
Mof_C 	C 	0.4356	0.2694	0.66451	-0.068
Mof_C 	C 	0.4388	0.2713	0.69523	-0.048
Mof_C 	C 	0.6118	0.2261	0.64733	0.362
Mof_C 	C 	0.373	0.2837	0.64855	0.312
Mof_C 	C 	0.5012	0.262	0.79983	-0.02
Mof_C 	C 	0.4508	0.2813	0.8158	0.008
Mof_C 	C 	0.4516	0.2832	0.84655	-0.142
Mof_C 	C 	0.5061	0.262	0.86072	0.065
Mof_C 	C 	0.556	0.2404	0.84517	-0.131
Mof_C 	C 	0.5554	0.2408	0.8151	0.005
Mof_C 	C 	0.3975	0.3049	0.86336	0.396
Mof_C 	C 	0.612	0.2165	0.86146	0.39
Mof_C 	C 	0.4973	0.26	0.74155	-0.033
Mof_C 	C 	0.499	0.2601	0.76822	-0.007
Mof_C 	C 	0.2797	0.1229	0.98758	-0.004
Mof_C 	C 	0.2832	0.162	0.96857	-0.016
Mof_C 	C 	0.2464	0.2028	0.97305	-0.099
Mof_C 	C 	0.2053	0.2075	0.99791	0.04
Mof_C 	C 	0.2032	0.169	0.01834	-0.114
Mof_C 	C 	0.2388	0.127	0.01294	-0.009
Mof_C 	C 	0.2481	0.2457	0.95094	0.382
Mof_C 	C 	0.1602	0.1734	0.04525	0.417
Mof_C 	C 	0.3645	0.9901	0.98811	0.025
Mof_C 	C 	0.3424	0.9643	0.01271	-0.045
Mof_C 	C 	0.3665	0.9179	0.01866	-0.076
Mof_C 	C 	0.4127	0.8976	0.00051	-0.001
Mof_C 	C 	0.4338	0.922	0.97532	-0.055
Mof_C 	C 	0.4103	0.9679	0.96886	-0.052
Mof_C 	C 	0.3391	0.8899	0.04424	0.351
Mof_C 	C 	0.4827	0.8969	0.95539	0.291
Mof_C 	C 	0.314	0.0778	0.98358	-0.013
Mof_C 	C 	0.3388	0.0387	0.98342	-0.03
Mof_C 	C 	0.4283	0.9777	0.4941	0.016
Mof_C 	C 	0.4525	0.9504	0.51825	-0.033
Mof_C 	C 	0.429	0.9037	0.52321	-0.091
Mof_C 	C 	0.3824	0.8834	0.50492	0.017
Mof_C 	C 	0.3614	0.9084	0.48	-0.073
Mof_C 	C 	0.3841	0.956	0.47516	-0.041
Mof_C 	C 	0.4579	0.8764	0.54928	0.387
Mof_C 	C 	0.3125	0.8852	0.45953	0.32
Mof_C 	C 	0.5097	0.1122	0.49494	0.007
Mof_C 	C 	0.498	0.1505	0.47509	-0.03
Mof_C 	C 	0.5284	0.1949	0.47872	-0.079
Mof_C 	C 	0.5715	0.2019	0.50256	0.027
Mof_C 	C 	0.5832	0.1645	0.52234	-0.104
Mof_C 	C 	0.5527	0.1198	0.51793	-0.019
Mof_C 	C 	0.5152	0.2366	0.45821	0.325
Mof_C 	C 	0.6295	0.1726	0.54808	0.412
Mof_C 	C 	0.4539	0.0258	0.4906	-0.024
Mof_C 	C 	0.4774	0.0654	0.49144	-0.017
Mof_C 	C 	0.7865	0.2353	0.20613	0.016
Mof_C 	C 	0.8446	0.2233	0.19089	-0.038
Mof_C 	C 	0.8459	0.2241	0.16066	-0.076
Mof_C 	C 	0.7887	0.2368	0.1449	0.011
Mof_C 	C 	0.7307	0.249	0.15991	-0.091
Mof_C 	C 	0.7295	0.2478	0.19036	-0.032
Mof_C 	C 	0.908	0.2107	0.14432	0.321
Mof_C 	C 	0.6695	0.2653	0.14381	0.359
Mof_C 	C 	0.7768	0.2371	0.29531	0.008
Mof_C 	C 	0.7166	0.2462	0.30935	-0.025
Mof_C 	C 	0.711	0.2482	0.3395	-0.087
Mof_C 	C 	0.7687	0.2418	0.35648	0.022
Mof_C 	C 	0.829	0.2337	0.343	-0.096
Mof_C 	C 	0.8341	0.2312	0.31254	-0.026
Mof_C 	C 	0.6457	0.2597	0.35406	0.354
Mof_C 	C 	0.8907	0.2289	0.36121	0.343
Mof_C 	C 	0.7837	0.2328	0.2381	-0.021
Mof_C 	C 	0.7811	0.2353	0.26416	-0.017
Mof_C 	C 	0.1555	0.005	0.29666	-0.003
Mof_C 	C 	0.1804	0.9641	0.31103	-0.008
Mof_C 	C 	0.1802	0.9616	0.34122	-0.112
Mof_C 	C 	0.1566	0.001	0.35777	0.051
Mof_C 	C 	0.1326	0.042	0.34408	-0.122
Mof_C 	C 	0.133	0.0438	0.31295	-0.009
Mof_C 	C 	0.2048	0.9172	0.35708	0.398
Mof_C 	C 	0.1091	0.0858	0.36088	0.402
Mof_C 	C 	0.1517	0.0094	0.2074	0.02
Mof_C 	C 	0.1233	0.0481	0.19144	-0.032
Mof_C 	C 	0.1253	0.0469	0.16077	-0.087
Mof_C 	C 	0.1529	0.0078	0.14622	0.019
Mof_C 	C 	0.1803	0.9698	0.16124	-0.074
Mof_C 	C 	0.1807	0.9711	0.19228	-0.037
Mof_C 	C 	0.0944	0.0894	0.14343	0.403
Mof_C 	C 	0.21	0.926	0.14531	0.345
Mof_C 	C 	0.1532	0.0071	0.26543	-0.011
Mof_C 	C 	0.1511	0.0096	0.23885	-0.024
Mof_C 	C 	0.9957	0.7419	0.28955	0.029
Mof_C 	C 	0.051	0.7567	0.30517	-0.045
Mof_C 	C 	0.0502	0.7574	0.33596	-0.085
Mof_C 	C 	0.9919	0.7449	0.35114	0.003
Mof_C 	C 	0.9356	0.7306	0.33549	-0.068
Mof_C 	C 	0.9388	0.7287	0.30477	-0.049
Mof_C 	C 	0.1118	0.7739	0.35267	0.362
Mof_C 	C 	0.873	0.7163	0.35145	0.312
Mof_C 	C 	0.0012	0.738	0.20017	-0.025
Mof_C 	C 	0.9508	0.7187	0.1842	0.012
Mof_C 	C 	0.9516	0.7168	0.15345	-0.142
Mof_C 	C 	0.0061	0.738	0.13928	0.064
Mof_C 	C 	0.056	0.7596	0.15483	-0.132
Mof_C 	C 	0.0554	0.7592	0.1849	0.007
Mof_C 	C 	0.8975	0.6951	0.13664	0.397
Mof_C 	C 	0.112	0.7835	0.13854	0.39
Mof_C 	C 	0.9973	0.74	0.25845	-0.035
Mof_C 	C 	0.999	0.7399	0.23178	-0.003
Mof_C 	C 	0.7797	0.8771	0.01242	-0.004
Mof_C 	C 	0.7832	0.838	0.03143	-0.016
Mof_C 	C 	0.7464	0.7972	0.02695	-0.099
Mof_C 	C 	0.7053	0.7925	0.00209	0.04
Mof_C 	C 	0.7032	0.831	0.98166	-0.114
Mof_C 	C 	0.7388	0.873	0.98706	-0.009
Mof_C 	C 	0.7481	0.7543	0.04906	0.382
Mof_C 	C 	0.6602	0.8266	0.95475	0.417
Mof_C 	C 	0.8645	0.0099	0.01189	0.024
Mof_C 	C 	0.8424	0.0357	0.98729	-0.044
Mof_C 	C 	0.8665	0.0821	0.98134	-0.076
Mof_C 	C 	0.9127	0.1024	0.99949	0
Mof_C 	C 	0.9338	0.078	0.02468	-0.057
Mof_C 	C 	0.9103	0.0321	0.03114	-0.051
Mof_C 	C 	0.8391	0.1101	0.95576	0.351
Mof_C 	C 	0.9827	0.1031	0.04461	0.295
Mof_C 	C 	0.814	0.9222	0.01642	-0.013
Mof_C 	C 	0.8388	0.9613	0.01658	-0.029
Mof_C 	C 	0.9283	0.0223	0.5059	0.018
Mof_C 	C 	0.9525	0.0496	0.48175	-0.033
Mof_C 	C 	0.929	0.0963	0.47679	-0.091
Mof_C 	C 	0.8824	0.1166	0.49508	0.017
Mof_C 	C 	0.8614	0.0916	0.52	-0.072
Mof_C 	C 	0.8841	0.044	0.52484	-0.042
Mof_C 	C 	0.9579	0.1236	0.45072	0.388
Mof_C 	C 	0.8125	0.1148	0.54047	0.32
Mof_C 	C 	0.0097	0.8878	0.50506	0
Mof_C 	C 	0.998	0.8495	0.52491	-0.022
Mof_C 	C 	0.0284	0.8051	0.52128	-0.083
Mof_C 	C 	0.0715	0.7981	0.49744	0.031
Mof_C 	C 	0.0832	0.8355	0.47766	-0.107
Mof_C 	C 	0.0527	0.8802	0.48207	-0.014
Mof_C 	C 	0.0152	0.7634	0.54179	0.325
Mof_C 	C 	0.1295	0.8274	0.45192	0.413
Mof_C 	C 	0.9539	0.9742	0.5094	-0.026
Mof_C 	C 	0.9774	0.9346	0.50856	-0.013
Mof_C 	C 	0.2865	0.2647	0.20613	0.016
Mof_C 	C 	0.3446	0.2767	0.19089	-0.038
Mof_C 	C 	0.3459	0.2759	0.16066	-0.076
Mof_C 	C 	0.2887	0.2632	0.1449	0.011
Mof_C 	C 	0.2307	0.251	0.15991	-0.091
Mof_C 	C 	0.2295	0.2522	0.19036	-0.032
Mof_C 	C 	0.408	0.2893	0.14432	0.322
Mof_C 	C 	0.1695	0.2347	0.14381	0.359
Mof_C 	C 	0.2768	0.2629	0.29531	0.008
Mof_C 	C 	0.2166	0.2538	0.30935	-0.025
Mof_C 	C 	0.211	0.2518	0.3395	-0.087
Mof_C 	C 	0.2687	0.2582	0.35648	0.023
Mof_C 	C 	0.329	0.2663	0.343	-0.096
Mof_C 	C 	0.3341	0.2688	0.31254	-0.026
Mof_C 	C 	0.1457	0.2403	0.35406	0.354
Mof_C 	C 	0.3907	0.2711	0.36121	0.343
Mof_C 	C 	0.2837	0.2672	0.2381	-0.022
Mof_C 	C 	0.2811	0.2647	0.26416	-0.017
Mof_C 	C 	0.6555	0.495	0.29666	-0.003
Mof_C 	C 	0.6804	0.5359	0.31103	-0.008
Mof_C 	C 	0.6802	0.5384	0.34122	-0.112
Mof_C 	C 	0.6566	0.499	0.35777	0.051
Mof_C 	C 	0.6326	0.458	0.34408	-0.122
Mof_C 	C 	0.633	0.4562	0.31295	-0.01
Mof_C 	C 	0.7048	0.5828	0.35708	0.398
Mof_C 	C 	0.6091	0.4142	0.36088	0.402
Mof_C 	C 	0.6517	0.4906	0.2074	0.02
Mof_C 	C 	0.6233	0.4519	0.19144	-0.032
Mof_C 	C 	0.6253	0.4531	0.16077	-0.086
Mof_C 	C 	0.6529	0.4922	0.14622	0.019
Mof_C 	C 	0.6803	0.5302	0.16124	-0.074
Mof_C 	C 	0.6807	0.5289	0.19228	-0.037
Mof_C 	C 	0.5944	0.4106	0.14343	0.403
Mof_C 	C 	0.71	0.574	0.14531	0.344
Mof_C 	C 	0.6532	0.4929	0.26543	-0.011
Mof_C 	C 	0.6511	0.4904	0.23885	-0.023
Mof_C 	C 	0.4957	0.7581	0.28955	0.025
Mof_C 	C 	0.551	0.7433	0.30517	-0.043
Mof_C 	C 	0.5502	0.7426	0.33596	-0.084
Mof_C 	C 	0.4919	0.7551	0.35114	0.002
Mof_C 	C 	0.4356	0.7694	0.33549	-0.068
Mof_C 	C 	0.4388	0.7713	0.30477	-0.048
Mof_C 	C 	0.6118	0.7261	0.35267	0.362
Mof_C 	C 	0.373	0.7837	0.35145	0.312
Mof_C 	C 	0.5012	0.762	0.20017	-0.02
Mof_C 	C 	0.4508	0.7813	0.1842	0.008
Mof_C 	C 	0.4516	0.7832	0.15345	-0.142
Mof_C 	C 	0.5061	0.762	0.13928	0.065
Mof_C 	C 	0.556	0.7404	0.15483	-0.131
Mof_C 	C 	0.5554	0.7408	0.1849	0.005
Mof_C 	C 	0.3975	0.8049	0.13664	0.396
Mof_C 	C 	0.612	0.7165	0.13854	0.39
Mof_C 	C 	0.4973	0.76	0.25845	-0.033
Mof_C 	C 	0.499	0.7601	0.23178	-0.007
Mof_C 	C 	0.2797	0.6229	0.01242	-0.004
Mof_C 	C 	0.2832	0.662	0.03143	-0.016
Mof_C 	C 	0.2464	0.7028	0.02695	-0.099
Mof_C 	C 	0.2053	0.7075	0.00209	0.04
Mof_C 	C 	0.2032	0.669	0.98166	-0.114
Mof_C 	C 	0.2388	0.627	0.98706	-0.009
Mof_C 	C 	0.2481	0.7457	0.04906	0.382
Mof_C 	C 	0.1602	0.6734	0.95475	0.417
Mof_C 	C 	0.3645	0.4901	0.01189	0.025
Mof_C 	C 	0.3424	0.4643	0.98729	-0.045
Mof_C 	C 	0.3665	0.4179	0.98134	-0.076
Mof_C 	C 	0.4127	0.3976	0.99949	-0.001
Mof_C 	C 	0.4338	0.422	0.02468	-0.055
Mof_C 	C 	0.4103	0.4679	0.03114	-0.052
Mof_C 	C 	0.3391	0.3899	0.95576	0.351
Mof_C 	C 	0.4827	0.3969	0.04461	0.291
Mof_C 	C 	0.314	0.5778	0.01642	-0.013
Mof_C 	C 	0.3388	0.5387	0.01658	-0.03
Mof_C 	C 	0.4283	0.4777	0.5059	0.017
Mof_C 	C 	0.4525	0.4504	0.48175	-0.033
Mof_C 	C 	0.429	0.4037	0.47679	-0.091
Mof_C 	C 	0.3824	0.3834	0.49508	0.017
Mof_C 	C 	0.3614	0.4084	0.52	-0.073
Mof_C 	C 	0.3841	0.456	0.52484	-0.041
Mof_C 	C 	0.4579	0.3764	0.45072	0.387
Mof_C 	C 	0.3125	0.3852	0.54047	0.32
Mof_C 	C 	0.5097	0.6122	0.50506	0.007
Mof_C 	C 	0.498	0.6505	0.52491	-0.03
Mof_C 	C 	0.5284	0.6949	0.52128	-0.079
Mof_C 	C 	0.5715	0.7019	0.49744	0.027
Mof_C 	C 	0.5832	0.6645	0.47766	-0.104
Mof_C 	C 	0.5527	0.6198	0.48207	-0.019
Mof_C 	C 	0.5152	0.7366	0.54179	0.325
Mof_C 	C 	0.6295	0.6726	0.45192	0.412
Mof_C 	C 	0.4539	0.5258	0.5094	-0.024
Mof_C 	C 	0.4774	0.5654	0.50856	-0.017
Mof_C 	C 	0.7865	0.7353	0.79387	0.016
Mof_C 	C 	0.8446	0.7233	0.80911	-0.038
Mof_C 	C 	0.8459	0.7241	0.83934	-0.076
Mof_C 	C 	0.7887	0.7368	0.8551	0.011
Mof_C 	C 	0.7307	0.749	0.84009	-0.091
Mof_C 	C 	0.7295	0.7478	0.80964	-0.032
Mof_C 	C 	0.908	0.7107	0.85568	0.321
Mof_C 	C 	0.6695	0.7653	0.85619	0.359
Mof_C 	C 	0.7768	0.7371	0.70469	0.008
Mof_C 	C 	0.7166	0.7462	0.69065	-0.025
Mof_C 	C 	0.711	0.7482	0.6605	-0.087
Mof_C 	C 	0.7687	0.7418	0.64352	0.022
Mof_C 	C 	0.829	0.7337	0.657	-0.095
Mof_C 	C 	0.8341	0.7312	0.68746	-0.026
Mof_C 	C 	0.6457	0.7597	0.64594	0.354
Mof_C 	C 	0.8907	0.7289	0.63879	0.343
Mof_C 	C 	0.7837	0.7328	0.7619	-0.021
Mof_C 	C 	0.7811	0.7353	0.73584	-0.017
Mof_C 	C 	0.1555	0.505	0.70334	-0.003
Mof_C 	C 	0.1804	0.4641	0.68897	-0.008
Mof_C 	C 	0.1802	0.4616	0.65878	-0.112
Mof_C 	C 	0.1566	0.501	0.64223	0.051
Mof_C 	C 	0.1326	0.542	0.65592	-0.122
Mof_C 	C 	0.133	0.5438	0.68705	-0.01
Mof_C 	C 	0.2048	0.4172	0.64292	0.398
Mof_C 	C 	0.1091	0.5858	0.63912	0.402
Mof_C 	C 	0.1517	0.5094	0.7926	0.02
Mof_C 	C 	0.1233	0.5481	0.80856	-0.032
Mof_C 	C 	0.1253	0.5469	0.83923	-0.087
Mof_C 	C 	0.1529	0.5078	0.85378	0.019
Mof_C 	C 	0.1803	0.4698	0.83876	-0.074
Mof_C 	C 	0.1807	0.4711	0.80772	-0.037
Mof_C 	C 	0.0944	0.5894	0.85657	0.403
Mof_C 	C 	0.21	0.426	0.85469	0.345
Mof_C 	C 	0.1532	0.5071	0.73457	-0.011
Mof_C 	C 	0.1511	0.5096	0.76115	-0.024
Mof_C 	C 	0.9957	0.2419	0.71045	0.028
Mof_C 	C 	0.051	0.2567	0.69483	-0.045
Mof_C 	C 	0.0502	0.2574	0.66404	-0.085
Mof_C 	C 	0.9919	0.2449	0.64886	0.003
Mof_C 	C 	0.9356	0.2306	0.66451	-0.068
Mof_C 	C 	0.9388	0.2287	0.69523	-0.049
Mof_C 	C 	0.1118	0.2739	0.64733	0.362
Mof_C 	C 	0.873	0.2163	0.64855	0.312
Mof_C 	C 	0.0012	0.238	0.79983	-0.024
Mof_C 	C 	0.9508	0.2187	0.8158	0.011
Mof_C 	C 	0.9516	0.2168	0.84655	-0.142
Mof_C 	C 	0.0061	0.238	0.86072	0.064
Mof_C 	C 	0.056	0.2596	0.84517	-0.132
Mof_C 	C 	0.0554	0.2592	0.8151	0.007
Mof_C 	C 	0.8975	0.1951	0.86336	0.397
Mof_C 	C 	0.112	0.2835	0.86146	0.39
Mof_C 	C 	0.9973	0.24	0.74155	-0.034
Mof_C 	C 	0.999	0.2399	0.76822	-0.003
Mof_C 	C 	0.7797	0.3771	0.98758	-0.004
Mof_C 	C 	0.7832	0.338	0.96857	-0.016
Mof_C 	C 	0.7464	0.2972	0.97305	-0.099
Mof_C 	C 	0.7053	0.2925	0.99791	0.04
Mof_C 	C 	0.7032	0.331	0.01834	-0.114
Mof_C 	C 	0.7388	0.373	0.01294	-0.009
Mof_C 	C 	0.7481	0.2543	0.95094	0.382
Mof_C 	C 	0.6602	0.3266	0.04525	0.417
Mof_C 	C 	0.8645	0.5099	0.98811	0.024
Mof_C 	C 	0.8424	0.5357	0.01271	-0.045
Mof_C 	C 	0.8665	0.5821	0.01866	-0.076
Mof_C 	C 	0.9127	0.6024	0.00051	0
Mof_C 	C 	0.9338	0.578	0.97532	-0.056
Mof_C 	C 	0.9103	0.5321	0.96886	-0.051
Mof_C 	C 	0.8391	0.6101	0.04424	0.351
Mof_C 	C 	0.9827	0.6031	0.95539	0.295
Mof_C 	C 	0.814	0.4222	0.98358	-0.013
Mof_C 	C 	0.8388	0.4613	0.98342	-0.029
Mof_C 	C 	0.9283	0.5223	0.4941	0.018
Mof_C 	C 	0.9525	0.5496	0.51825	-0.034
Mof_C 	C 	0.929	0.5963	0.52321	-0.091
Mof_C 	C 	0.8824	0.6166	0.50492	0.017
Mof_C 	C 	0.8614	0.5916	0.48	-0.072
Mof_C 	C 	0.8841	0.544	0.47516	-0.042
Mof_C 	C 	0.9579	0.6236	0.54928	0.388
Mof_C 	C 	0.8125	0.6148	0.45953	0.32
Mof_C 	C 	0.0097	0.3878	0.49494	0.001
Mof_C 	C 	0.998	0.3495	0.47509	-0.023
Mof_C 	C 	0.0284	0.3051	0.47872	-0.083
Mof_C 	C 	0.0715	0.2981	0.50256	0.03
Mof_C 	C 	0.0832	0.3355	0.52234	-0.107
Mof_C 	C 	0.0527	0.3802	0.51793	-0.015
Mof_C 	C 	0.0152	0.2634	0.45821	0.325
Mof_C 	C 	0.1295	0.3274	0.54808	0.413
Mof_C 	C 	0.9539	0.4742	0.4906	-0.026
Mof_C 	C 	0.9774	0.4346	0.49144	-0.013
Mof_O 	O 	0.4079	0.7931	0.88244	-0.353
Mof_O 	O 	0.4597	0.79531	0.8386	-0.467
Mof_O 	O 	0.17008	0.73576	0.88394	-0.483
Mof_O 	O 	0.1208	0.72222	0.84026	-0.496
Mof_O 	O 	0.143	0.743	0.61821	-0.342
Mof_O 	O 	0.0994	0.72732	0.66225	-0.448
Mof_O 	O 	0.3839	0.7756	0.61104	-0.471
Mof_O 	O 	0.4465	0.7713	0.65236	-0.478
Mof_O 	O 	0.74773	0.19146	0.60382	-0.936
Mof_O 	O 	0.7018	0.0829	0.61553	-0.487
Mof_O 	O 	0.7273	0.11702	0.6588	-0.477
Mof_O 	O 	0.6034	0.9205	0.61151	-0.518
Mof_O 	O 	0.5968	0.8769	0.65269	-0.509
Mof_O 	O 	0.6028	0.91217	0.8837	-0.484
Mof_O 	O 	0.5665	0.87821	0.84218	-0.488
Mof_O 	O 	0.7119	0.0725	0.88171	-0.334
Mof_O 	O 	0.7334	0.10728	0.83809	-0.442
Mof_O 	O 	0.6109	0.2281	0.62023	-0.502
Mof_O 	O 	0.6605	0.2133	0.66379	-0.499
Mof_O 	O 	0.374	0.2853	0.62096	-0.346
Mof_O 	O 	0.3231	0.29347	0.6651	-0.468
Mof_O 	O 	0.3984	0.2974	0.89095	-0.494
Mof_O 	O 	0.3544	0.329	0.85021	-0.498
Mof_O 	O 	0.6112	0.2218	0.88943	-0.524
Mof_O 	O 	0.6549	0.1946	0.8466	-0.509
Mof_O 	O 	0.1947	0.27005	0.94856	-0.524
Mof_O 	O 	0.3003	0.25204	0.93701	-0.5
Mof_O 	O 	0.1398	0.21426	0.05191	-0.52
Mof_O 	O 	0.1489	0.13417	0.05913	-0.475
Mof_O 	O 	0.3648	0.85005	0.05025	-0.474
Mof_O 	O 	0.2921	0.9074	0.058	-0.345
Mof_O 	O 	0.5034	0.8551	0.96134	-0.359
Mof_O 	O 	0.5033	0.92023	0.93277	-0.423
Mof_O 	O 	0.53906	0.80919	0.60565	-0.96
Mof_O 	O 	0.426	0.83945	0.55823	-0.481
Mof_O 	O 	0.5122	0.89195	0.55919	-0.524
Mof_O 	O 	0.2922	0.8437	0.46447	-0.344
Mof_O 	O 	0.2963	0.9091	0.43648	-0.447
Mof_O 	O 	0.5473	0.27452	0.46009	-0.363
Mof_O 	O 	0.4692	0.22908	0.43892	-0.446
Mof_O 	O 	0.6461	0.21424	0.55421	-0.518
Mof_O 	O 	0.6464	0.13375	0.56176	-0.479
Mof_O 	O 	0.03868	0.68986	0.89917	-0.94
Mof_O 	O 	0.2491	0.33731	0.89588	-0.959
Mof_O 	O 	0.9079	0.2069	0.11756	-0.352
Mof_O 	O 	0.9597	0.20469	0.1614	-0.467
Mof_O 	O 	0.67008	0.26424	0.11606	-0.483
Mof_O 	O 	0.6208	0.27778	0.15974	-0.496
Mof_O 	O 	0.643	0.257	0.38179	-0.342
Mof_O 	O 	0.5994	0.27268	0.33775	-0.447
Mof_O 	O 	0.8839	0.2244	0.38896	-0.471
Mof_O 	O 	0.9465	0.2287	0.34764	-0.477
Mof_O 	O 	0.24773	0.80854	0.39618	-0.936
Mof_O 	O 	0.2018	0.9171	0.38447	-0.487
Mof_O 	O 	0.2273	0.88298	0.3412	-0.477
Mof_O 	O 	0.1034	0.0795	0.38849	-0.518
Mof_O 	O 	0.0968	0.1231	0.34731	-0.509
Mof_O 	O 	0.1028	0.08783	0.1163	-0.484
Mof_O 	O 	0.0665	0.12179	0.15782	-0.488
Mof_O 	O 	0.2119	0.9275	0.11829	-0.334
Mof_O 	O 	0.2334	0.89272	0.16191	-0.442
Mof_O 	O 	0.1109	0.7719	0.37977	-0.502
Mof_O 	O 	0.1605	0.7867	0.33621	-0.499
Mof_O 	O 	0.874	0.7147	0.37904	-0.345
Mof_O 	O 	0.8231	0.70653	0.3349	-0.468
Mof_O 	O 	0.8984	0.7026	0.10905	-0.493
Mof_O 	O 	0.8544	0.671	0.14979	-0.497
Mof_O 	O 	0.1112	0.7782	0.11057	-0.524
Mof_O 	O 	0.1549	0.8054	0.1534	-0.509
Mof_O 	O 	0.6947	0.72995	0.05144	-0.524
Mof_O 	O 	0.8003	0.74796	0.06299	-0.499
Mof_O 	O 	0.6398	0.78574	0.94809	-0.52
Mof_O 	O 	0.6489	0.86583	0.94087	-0.475
Mof_O 	O 	0.8648	0.14995	0.94975	-0.474
Mof_O 	O 	0.7921	0.0926	0.942	-0.345
Mof_O 	O 	0.0034	0.1449	0.03866	-0.361
Mof_O 	O 	0.0033	0.07977	0.06723	-0.425
Mof_O 	O 	0.03906	0.19081	0.39435	-0.961
Mof_O 	O 	0.926	0.16055	0.44177	-0.481
Mof_O 	O 	0.0122	0.10805	0.44081	-0.525
Mof_O 	O 	0.7922	0.1563	0.53553	-0.344
Mof_O 	O 	0.7963	0.0909	0.56352	-0.446
Mof_O 	O 	0.0473	0.72548	0.53991	-0.363
Mof_O 	O 	0.9692	0.77092	0.56108	-0.445
Mof_O 	O 	0.1461	0.78576	0.44579	-0.519
Mof_O 	O 	0.1464	0.86625	0.43824	-0.479
Mof_O 	O 	0.53868	0.31014	0.10083	-0.938
Mof_O 	O 	0.7491	0.66269	0.10412	-0.959
Mof_O 	O 	0.4079	0.2931	0.11756	-0.353
Mof_O 	O 	0.4597	0.29531	0.1614	-0.467
Mof_O 	O 	0.17008	0.23576	0.11606	-0.483
Mof_O 	O 	0.1208	0.22222	0.15974	-0.496
Mof_O 	O 	0.143	0.243	0.38179	-0.342
Mof_O 	O 	0.0994	0.22732	0.33775	-0.448
Mof_O 	O 	0.3839	0.2756	0.38896	-0.471
Mof_O 	O 	0.4465	0.2713	0.34764	-0.478
Mof_O 	O 	0.74773	0.69146	0.39618	-0.936
Mof_O 	O 	0.7018	0.5829	0.38447	-0.487
Mof_O 	O 	0.7273	0.61702	0.3412	-0.477
Mof_O 	O 	0.6034	0.4205	0.38849	-0.518
Mof_O 	O 	0.5968	0.3769	0.34731	-0.509
Mof_O 	O 	0.6028	0.41217	0.1163	-0.484
Mof_O 	O 	0.5665	0.37821	0.15782	-0.488
Mof_O 	O 	0.7119	0.5725	0.11829	-0.334
Mof_O 	O 	0.7334	0.60728	0.16191	-0.442
Mof_O 	O 	0.6109	0.7281	0.37977	-0.502
Mof_O 	O 	0.6605	0.7133	0.33621	-0.499
Mof_O 	O 	0.374	0.7853	0.37904	-0.346
Mof_O 	O 	0.3231	0.79347	0.3349	-0.468
Mof_O 	O 	0.3984	0.7974	0.10905	-0.494
Mof_O 	O 	0.3544	0.829	0.14979	-0.498
Mof_O 	O 	0.6112	0.7218	0.11057	-0.524
Mof_O 	O 	0.6549	0.6946	0.1534	-0.509
Mof_O 	O 	0.1947	0.77005	0.05144	-0.524
Mof_O 	O 	0.3003	0.75204	0.06299	-0.5
Mof_O 	O 	0.1398	0.71426	0.94809	-0.52
Mof_O 	O 	0.1489	0.63417	0.94087	-0.475
Mof_O 	O 	0.3648	0.35005	0.94975	-0.474
Mof_O 	O 	0.2921	0.4074	0.942	-0.345
Mof_O 	O 	0.5034	0.3551	0.03866	-0.359
Mof_O 	O 	0.5033	0.42023	0.06723	-0.423
Mof_O 	O 	0.53906	0.30919	0.39435	-0.96
Mof_O 	O 	0.426	0.33945	0.44177	-0.481
Mof_O 	O 	0.5122	0.39195	0.44081	-0.524
Mof_O 	O 	0.2922	0.3437	0.53553	-0.344
Mof_O 	O 	0.2963	0.4091	0.56352	-0.447
Mof_O 	O 	0.5473	0.77452	0.53991	-0.363
Mof_O 	O 	0.4692	0.72908	0.56108	-0.446
Mof_O 	O 	0.6461	0.71424	0.44579	-0.518
Mof_O 	O 	0.6464	0.63375	0.43824	-0.479
Mof_O 	O 	0.03868	0.18986	0.10083	-0.94
Mof_O 	O 	0.2491	0.83731	0.10412	-0.959
Mof_O 	O 	0.9079	0.7069	0.88244	-0.352
Mof_O 	O 	0.9597	0.70469	0.8386	-0.467
Mof_O 	O 	0.67008	0.76424	0.88394	-0.483
Mof_O 	O 	0.6208	0.77778	0.84026	-0.496
Mof_O 	O 	0.643	0.757	0.61821	-0.342
Mof_O 	O 	0.5994	0.77268	0.66225	-0.447
Mof_O 	O 	0.8839	0.7244	0.61104	-0.471
Mof_O 	O 	0.9465	0.7287	0.65236	-0.477
Mof_O 	O 	0.24773	0.30854	0.60382	-0.936
Mof_O 	O 	0.2018	0.4171	0.61553	-0.487
Mof_O 	O 	0.2273	0.38298	0.6588	-0.477
Mof_O 	O 	0.1034	0.5795	0.61151	-0.518
Mof_O 	O 	0.0968	0.6231	0.65269	-0.509
Mof_O 	O 	0.1028	0.58783	0.8837	-0.484
Mof_O 	O 	0.0665	0.62179	0.84218	-0.489
Mof_O 	O 	0.2119	0.4275	0.88171	-0.334
Mof_O 	O 	0.2334	0.39272	0.83809	-0.442
Mof_O 	O 	0.1109	0.2719	0.62023	-0.502
Mof_O 	O 	0.1605	0.2867	0.66379	-0.499
Mof_O 	O 	0.874	0.2147	0.62096	-0.345
Mof_O 	O 	0.8231	0.20653	0.6651	-0.468
Mof_O 	O 	0.8984	0.2026	0.89095	-0.493
Mof_O 	O 	0.8544	0.171	0.85021	-0.497
Mof_O 	O 	0.1112	0.2782	0.88943	-0.524
Mof_O 	O 	0.1549	0.3054	0.8466	-0.509
Mof_O 	O 	0.6947	0.22995	0.94856	-0.524
Mof_O 	O 	0.8003	0.24796	0.93701	-0.499
Mof_O 	O 	0.6398	0.28574	0.05191	-0.52
Mof_O 	O 	0.6489	0.36583	0.05913	-0.475
Mof_O 	O 	0.8648	0.64995	0.05025	-0.474
Mof_O 	O 	0.7921	0.5926	0.058	-0.345
Mof_O 	O 	0.0034	0.6449	0.96134	-0.362
Mof_O 	O 	0.0033	0.57977	0.93277	-0.425
Mof_O 	O 	0.03906	0.69081	0.60565	-0.961
Mof_O 	O 	0.926	0.66055	0.55823	-0.481
Mof_O 	O 	0.0122	0.60805	0.55919	-0.525
Mof_O 	O 	0.7922	0.6563	0.46447	-0.344
Mof_O 	O 	0.7963	0.5909	0.43648	-0.446
Mof_O 	O 	0.0473	0.22548	0.46009	-0.363
Mof_O 	O 	0.9692	0.27092	0.43892	-0.445
Mof_O 	O 	0.1461	0.28576	0.55421	-0.519
Mof_O 	O 	0.1464	0.36625	0.56176	-0.479
Mof_O 	O 	0.53868	0.81014	0.89917	-0.938
Mof_O 	O 	0.7491	0.16269	0.89588	-0.959
_end
