# CIF file generated by openbabel 3.1.0, see https://openbabel.org
data_I
_chemical_name_common 'image0'
_cell_length_a 17.3867
_cell_length_b 17.3867
_cell_length_c 11.3455
_cell_angle_alpha 90
_cell_angle_beta 90
_cell_angle_gamma 120
_space_group_name_H-M_alt 'P 1'
_space_group_name_Hall 'P 1'
loop_
    _symmetry_equiv_pos_as_xyz
    x,y,z
loop_
    _atom_site_label
    _atom_site_type_symbol
    _atom_site_fract_x
    _atom_site_fract_y
    _atom_site_fract_z
    _atom_site_occupancy
    O1       O        0.51950    0.31490    0.36790    1.000
    O2       O        0.54240    0.24440    0.22970    1.000
    C1       C        0.48520    0.26470    0.27450    1.000
    C2       C        0.39920    0.23610    0.23610    1.000
    C3       C        0.33780    0.24500    0.30440    1.000
    H1       H        0.35370    0.27080    0.37880    1.000
    C4       C        0.25260    0.21540    0.26160    1.000
    C5       C        0.22880    0.17690    0.15050    1.000
    C6       C        0.29030    0.16800    0.08220    1.000
    H2       H        0.27440    0.14220    0.00780    1.000
    C7       C        0.37550    0.19760    0.12500    1.000
    H3       H        0.41660    0.19160    0.07920    1.000
    O3       O        0.14040    0.14620    0.11580    1.000
    P1       P        0.09100    0.09100    0.00450    1.000
    H4       H        0.21150    0.22140    0.30730    1.000
    N1       N        0.09100    0.00000    0.99550    1.000
    C8       C        0.50200    0.23010    0.26550    1.000
    C9       C        0.40330    0.16520    0.21730    1.000
    C10      C        0.34210    0.09650    0.28810    1.000
    C11      C        0.25660    0.04010    0.24690    1.000
    C12      C        0.23230    0.05240    0.13480    1.000
    C13      C        0.29340    0.12100    0.06400    1.000
    C14      C        0.37890    0.17740    0.10520    1.000
    H5       H        0.35840    0.08830    0.36310    1.000
    H6       H        0.21570    0.99420    0.29430    1.000
    H7       H        0.27710    0.12930    0.98900    1.000
    H8       H        0.41980    0.22340    0.05780    1.000
    O4       O        0.52210    0.20910    0.35310    1.000
    O5       O        0.54540    0.28770    0.19980    1.000
    O6       O        0.14430    0.99210    0.10070    1.000
    O7       O        0.68510    0.20460    0.36790    1.000
    O8       O        0.75560    0.29800    0.22970    1.000
    C15      C        0.73530    0.22050    0.27450    1.000
    C16      C        0.76390    0.16310    0.23610    1.000
    C17      C        0.75500    0.09280    0.30440    1.000
    H9       H        0.72920    0.08290    0.37880    1.000
    C18      C        0.78460    0.03720    0.26160    1.000
    C19      C        0.82310    0.05190    0.15050    1.000
    C20      C        0.83200    0.12230    0.08220    1.000
    H10      H        0.85780    0.13220    0.00780    1.000
    C21      C        0.80240    0.17790    0.12500    1.000
    H11      H        0.80840    0.22500    0.07920    1.000
    O9       O        0.85380    0.99420    0.11580    1.000
    P2       P        0.90900    0.00000    0.00450    1.000
    H12      H        0.77860    0.99010    0.30730    1.000
    N2       N        0.00000    0.09100    0.99550    1.000
    C22      C        0.76990    0.27190    0.26550    1.000
    C23      C        0.83480    0.23810    0.21730    1.000
    C24      C        0.90350    0.24560    0.28810    1.000
    C25      C        0.95990    0.21650    0.24690    1.000
    C26      C        0.94760    0.17990    0.13480    1.000
    C27      C        0.87900    0.17240    0.06400    1.000
    C28      C        0.82260    0.20150    0.10520    1.000
    H13      H        0.91170    0.27010    0.36310    1.000
    H14      H        0.00580    0.22150    0.29430    1.000
    H15      H        0.87070    0.14780    0.98900    1.000
    H16      H        0.77660    0.19640    0.05780    1.000
    O10      O        0.79090    0.31300    0.35310    1.000
    O11      O        0.71230    0.25770    0.19980    1.000
    O12      O        0.00790    0.15220    0.10070    1.000
    O13      O        0.79540    0.48050    0.36790    1.000
    O14      O        0.70200    0.45760    0.22970    1.000
    C29      C        0.77950    0.51480    0.27450    1.000
    C30      C        0.83690    0.60080    0.23610    1.000
    C31      C        0.90720    0.66220    0.30440    1.000
    H17      H        0.91710    0.64630    0.37880    1.000
    C32      C        0.96280    0.74740    0.26160    1.000
    C33      C        0.94810    0.77120    0.15050    1.000
    C34      C        0.87770    0.70970    0.08220    1.000
    H18      H        0.86780    0.72560    0.00780    1.000
    C35      C        0.82210    0.62450    0.12500    1.000
    H19      H        0.77500    0.58340    0.07920    1.000
    O15      O        0.00580    0.85960    0.11580    1.000
    P3       P        0.00000    0.90900    0.00450    1.000
    H20      H        0.00990    0.78850    0.30730    1.000
    N3       N        0.90900    0.90900    0.99550    1.000
    C36      C        0.72810    0.49800    0.26550    1.000
    C37      C        0.76190    0.59670    0.21730    1.000
    C38      C        0.75440    0.65790    0.28810    1.000
    C39      C        0.78350    0.74340    0.24690    1.000
    C40      C        0.82010    0.76770    0.13480    1.000
    C41      C        0.82760    0.70660    0.06400    1.000
    C42      C        0.79850    0.62110    0.10520    1.000
    H21      H        0.72990    0.64160    0.36310    1.000
    H22      H        0.77850    0.78430    0.29430    1.000
    H23      H        0.85220    0.72290    0.98900    1.000
    H24      H        0.80360    0.58020    0.05780    1.000
    O16      O        0.68700    0.47790    0.35310    1.000
    O17      O        0.74230    0.45460    0.19980    1.000
    O18      O        0.84780    0.85570    0.10070    1.000
    O19      O        0.31490    0.51950    0.13210    1.000
    O20      O        0.24440    0.54240    0.27030    1.000
    C43      C        0.26470    0.48520    0.22550    1.000
    C44      C        0.23610    0.39920    0.26390    1.000
    C45      C        0.24500    0.33780    0.19560    1.000
    H25      H        0.27080    0.35370    0.12120    1.000
    C46      C        0.21540    0.25260    0.23840    1.000
    C47      C        0.17690    0.22880    0.34950    1.000
    C48      C        0.16800    0.29030    0.41780    1.000
    H26      H        0.14220    0.27440    0.49220    1.000
    C49      C        0.19760    0.37550    0.37500    1.000
    H27      H        0.19160    0.41660    0.42080    1.000
    O21      O        0.14620    0.14040    0.38420    1.000
    P4       P        0.09100    0.09100    0.49550    1.000
    H28      H        0.22140    0.21150    0.19270    1.000
    N4       N        0.00000    0.09100    0.50450    1.000
    C50      C        0.23010    0.50200    0.23450    1.000
    C51      C        0.16520    0.40330    0.28270    1.000
    C52      C        0.09650    0.34210    0.21190    1.000
    C53      C        0.04010    0.25660    0.25310    1.000
    C54      C        0.05240    0.23230    0.36520    1.000
    C55      C        0.12100    0.29340    0.43600    1.000
    C56      C        0.17740    0.37890    0.39480    1.000
    H29      H        0.08830    0.35840    0.13690    1.000
    H30      H        0.99420    0.21570    0.20570    1.000
    H31      H        0.12930    0.27710    0.51100    1.000
    H32      H        0.22340    0.41980    0.44220    1.000
    O22      O        0.20910    0.52210    0.14690    1.000
    O23      O        0.28770    0.54540    0.30020    1.000
    O24      O        0.99210    0.14430    0.39930    1.000
    O25      O        0.20460    0.68510    0.13210    1.000
    O26      O        0.29800    0.75560    0.27030    1.000
    C57      C        0.22050    0.73530    0.22550    1.000
    C58      C        0.16310    0.76390    0.26390    1.000
    C59      C        0.09280    0.75500    0.19560    1.000
    H33      H        0.08290    0.72920    0.12120    1.000
    C60      C        0.03720    0.78460    0.23840    1.000
    C61      C        0.05190    0.82310    0.34950    1.000
    C62      C        0.12230    0.83200    0.41780    1.000
    H34      H        0.13220    0.85780    0.49220    1.000
    C63      C        0.17790    0.80240    0.37500    1.000
    H35      H        0.22500    0.80840    0.42080    1.000
    O27      O        0.99420    0.85380    0.38420    1.000
    P5       P        0.00000    0.90900    0.49550    1.000
    H36      H        0.99010    0.77860    0.19270    1.000
    N5       N        0.09100    0.00000    0.50450    1.000
    C64      C        0.27190    0.76990    0.23450    1.000
    C65      C        0.23810    0.83480    0.28270    1.000
    C66      C        0.24560    0.90350    0.21190    1.000
    C67      C        0.21650    0.95990    0.25310    1.000
    C68      C        0.17990    0.94760    0.36520    1.000
    C69      C        0.17240    0.87900    0.43600    1.000
    C70      C        0.20150    0.82260    0.39480    1.000
    H37      H        0.27010    0.91170    0.13690    1.000
    H38      H        0.22150    0.00580    0.20570    1.000
    H39      H        0.14780    0.87070    0.51100    1.000
    H40      H        0.19640    0.77660    0.44220    1.000
    O28      O        0.31300    0.79090    0.14690    1.000
    O29      O        0.25770    0.71230    0.30020    1.000
    O30      O        0.15220    0.00790    0.39930    1.000
    O31      O        0.48050    0.79540    0.13210    1.000
    O32      O        0.45760    0.70200    0.27030    1.000
    C71      C        0.51480    0.77950    0.22550    1.000
    C72      C        0.60080    0.83690    0.26390    1.000
    C73      C        0.66220    0.90720    0.19560    1.000
    H41      H        0.64630    0.91710    0.12120    1.000
    C74      C        0.74740    0.96280    0.23840    1.000
    C75      C        0.77120    0.94810    0.34950    1.000
    C76      C        0.70970    0.87770    0.41780    1.000
    H42      H        0.72560    0.86780    0.49220    1.000
    C77      C        0.62450    0.82210    0.37500    1.000
    H43      H        0.58340    0.77500    0.42080    1.000
    O33      O        0.85960    0.00580    0.38420    1.000
    P6       P        0.90900    0.00000    0.49550    1.000
    H44      H        0.78850    0.00990    0.19270    1.000
    N6       N        0.90900    0.90900    0.50450    1.000
    C78      C        0.49800    0.72810    0.23450    1.000
    C79      C        0.59670    0.76190    0.28270    1.000
    C80      C        0.65790    0.75440    0.21190    1.000
    C81      C        0.74340    0.78350    0.25310    1.000
    C82      C        0.76770    0.82010    0.36520    1.000
    C83      C        0.70660    0.82760    0.43600    1.000
    C84      C        0.62110    0.79850    0.39480    1.000
    H45      H        0.64160    0.72990    0.13690    1.000
    H46      H        0.78430    0.77850    0.20570    1.000
    H47      H        0.72290    0.85220    0.51100    1.000
    H48      H        0.58020    0.80360    0.44220    1.000
    O34      O        0.47790    0.68700    0.14690    1.000
    O35      O        0.45460    0.74230    0.30020    1.000
    O36      O        0.85570    0.84780    0.39930    1.000
    O37      O        0.48050    0.68510    0.63210    1.000
    O38      O        0.45760    0.75560    0.77030    1.000
    C85      C        0.51480    0.73530    0.72550    1.000
    C86      C        0.60080    0.76390    0.76390    1.000
    C87      C        0.66220    0.75500    0.69560    1.000
    H49      H        0.64630    0.72920    0.62120    1.000
    C88      C        0.74740    0.78460    0.73840    1.000
    C89      C        0.77120    0.82310    0.84950    1.000
    C90      C        0.70970    0.83200    0.91780    1.000
    H50      H        0.72560    0.85780    0.99220    1.000
    C91      C        0.62450    0.80240    0.87500    1.000
    H51      H        0.58340    0.80840    0.92080    1.000
    O39      O        0.85960    0.85380    0.88420    1.000
    H52      H        0.78850    0.77860    0.69270    1.000
    C92      C        0.49800    0.76990    0.73450    1.000
    C93      C        0.59670    0.83480    0.78270    1.000
    C94      C        0.65790    0.90350    0.71190    1.000
    C95      C        0.74340    0.95990    0.75310    1.000
    C96      C        0.76770    0.94760    0.86520    1.000
    C97      C        0.70660    0.87900    0.93600    1.000
    C98      C        0.62110    0.82260    0.89480    1.000
    H53      H        0.64160    0.91170    0.63690    1.000
    H54      H        0.78430    0.00580    0.70570    1.000
    H55      H        0.72290    0.87070    0.01100    1.000
    H56      H        0.58020    0.77660    0.94220    1.000
    O40      O        0.47790    0.79090    0.64690    1.000
    O41      O        0.45460    0.71230    0.80020    1.000
    O42      O        0.85570    0.00790    0.89930    1.000
    O43      O        0.31490    0.79540    0.63210    1.000
    O44      O        0.24440    0.70200    0.77030    1.000
    C99      C        0.26470    0.77950    0.72550    1.000
    C100     C        0.23610    0.83690    0.76390    1.000
    C101     C        0.24500    0.90720    0.69560    1.000
    H57      H        0.27080    0.91710    0.62120    1.000
    C102     C        0.21540    0.96280    0.73840    1.000
    C103     C        0.17690    0.94810    0.84950    1.000
    C104     C        0.16800    0.87770    0.91780    1.000
    H58      H        0.14220    0.86780    0.99220    1.000
    C105     C        0.19760    0.82210    0.87500    1.000
    H59      H        0.19160    0.77500    0.92080    1.000
    O45      O        0.14620    0.00580    0.88420    1.000
    H60      H        0.22140    0.00990    0.69270    1.000
    C106     C        0.23010    0.72810    0.73450    1.000
    C107     C        0.16520    0.76190    0.78270    1.000
    C108     C        0.09650    0.75440    0.71190    1.000
    C109     C        0.04010    0.78350    0.75310    1.000
    C110     C        0.05240    0.82010    0.86520    1.000
    C111     C        0.12100    0.82760    0.93600    1.000
    C112     C        0.17740    0.79850    0.89480    1.000
    H61      H        0.08830    0.72990    0.63690    1.000
    H62      H        0.99420    0.77850    0.70570    1.000
    H63      H        0.12930    0.85220    0.01100    1.000
    H64      H        0.22340    0.80360    0.94220    1.000
    O46      O        0.20910    0.68700    0.64690    1.000
    O47      O        0.28770    0.74230    0.80020    1.000
    O48      O        0.99210    0.84780    0.89930    1.000
    O49      O        0.20460    0.51950    0.63210    1.000
    O50      O        0.29800    0.54240    0.77030    1.000
    C113     C        0.22050    0.48520    0.72550    1.000
    C114     C        0.16310    0.39920    0.76390    1.000
    C115     C        0.09280    0.33780    0.69560    1.000
    H65      H        0.08290    0.35370    0.62120    1.000
    C116     C        0.03720    0.25260    0.73840    1.000
    C117     C        0.05190    0.22880    0.84950    1.000
    C118     C        0.12230    0.29030    0.91780    1.000
    H66      H        0.13220    0.27440    0.99220    1.000
    C119     C        0.17790    0.37550    0.87500    1.000
    H67      H        0.22500    0.41660    0.92080    1.000
    O51      O        0.99420    0.14040    0.88420    1.000
    H68      H        0.99010    0.21150    0.69270    1.000
    C120     C        0.27190    0.50200    0.73450    1.000
    C121     C        0.23810    0.40330    0.78270    1.000
    C122     C        0.24560    0.34210    0.71190    1.000
    C123     C        0.21650    0.25660    0.75310    1.000
    C124     C        0.17990    0.23230    0.86520    1.000
    C125     C        0.17240    0.29340    0.93600    1.000
    C126     C        0.20150    0.37890    0.89480    1.000
    H69      H        0.27010    0.35840    0.63690    1.000
    H70      H        0.22150    0.21570    0.70570    1.000
    H71      H        0.14780    0.27710    0.01100    1.000
    H72      H        0.19640    0.41980    0.94220    1.000
    O52      O        0.31300    0.52210    0.64690    1.000
    O53      O        0.25770    0.54540    0.80020    1.000
    O54      O        0.15220    0.14430    0.89930    1.000
    O55      O        0.68510    0.48050    0.86790    1.000
    O56      O        0.75560    0.45760    0.72970    1.000
    C127     C        0.73530    0.51480    0.77450    1.000
    C128     C        0.76390    0.60080    0.73610    1.000
    C129     C        0.75500    0.66220    0.80440    1.000
    H73      H        0.72920    0.64630    0.87880    1.000
    C130     C        0.78460    0.74740    0.76160    1.000
    C131     C        0.82310    0.77120    0.65050    1.000
    C132     C        0.83200    0.70970    0.58220    1.000
    H74      H        0.85780    0.72560    0.50780    1.000
    C133     C        0.80240    0.62450    0.62500    1.000
    H75      H        0.80840    0.58340    0.57920    1.000
    O57      O        0.85380    0.85960    0.61580    1.000
    H76      H        0.77860    0.78850    0.80730    1.000
    C134     C        0.76990    0.49800    0.76550    1.000
    C135     C        0.83480    0.59670    0.71730    1.000
    C136     C        0.90350    0.65790    0.78810    1.000
    C137     C        0.95990    0.74340    0.74690    1.000
    C138     C        0.94760    0.76770    0.63480    1.000
    C139     C        0.87900    0.70660    0.56400    1.000
    C140     C        0.82260    0.62110    0.60520    1.000
    H77      H        0.91170    0.64160    0.86310    1.000
    H78      H        0.00580    0.78430    0.79430    1.000
    H79      H        0.87070    0.72290    0.48900    1.000
    H80      H        0.77660    0.58020    0.55780    1.000
    O58      O        0.79090    0.47790    0.85310    1.000
    O59      O        0.71230    0.45460    0.69980    1.000
    O60      O        0.00790    0.85570    0.60070    1.000
    O61      O        0.79540    0.31490    0.86790    1.000
    O62      O        0.70200    0.24440    0.72970    1.000
    C141     C        0.77950    0.26470    0.77450    1.000
    C142     C        0.83690    0.23610    0.73610    1.000
    C143     C        0.90720    0.24500    0.80440    1.000
    H81      H        0.91710    0.27080    0.87880    1.000
    C144     C        0.96280    0.21540    0.76160    1.000
    C145     C        0.94810    0.17690    0.65050    1.000
    C146     C        0.87770    0.16800    0.58220    1.000
    H82      H        0.86780    0.14220    0.50780    1.000
    C147     C        0.82210    0.19760    0.62500    1.000
    H83      H        0.77500    0.19160    0.57920    1.000
    O63      O        0.00580    0.14620    0.61580    1.000
    H84      H        0.00990    0.22140    0.80730    1.000
    C148     C        0.72810    0.23010    0.76550    1.000
    C149     C        0.76190    0.16520    0.71730    1.000
    C150     C        0.75440    0.09650    0.78810    1.000
    C151     C        0.78350    0.04010    0.74690    1.000
    C152     C        0.82010    0.05240    0.63480    1.000
    C153     C        0.82760    0.12100    0.56400    1.000
    C154     C        0.79850    0.17740    0.60520    1.000
    H85      H        0.72990    0.08830    0.86310    1.000
    H86      H        0.77850    0.99420    0.79430    1.000
    H87      H        0.85220    0.12930    0.48900    1.000
    H88      H        0.80360    0.22340    0.55780    1.000
    O64      O        0.68700    0.20910    0.85310    1.000
    O65      O        0.74230    0.28770    0.69980    1.000
    O66      O        0.84780    0.99210    0.60070    1.000
    O67      O        0.51950    0.20460    0.86790    1.000
    O68      O        0.54240    0.29800    0.72970    1.000
    C155     C        0.48520    0.22050    0.77450    1.000
    C156     C        0.39920    0.16310    0.73610    1.000
    C157     C        0.33780    0.09280    0.80440    1.000
    H89      H        0.35370    0.08290    0.87880    1.000
    C158     C        0.25260    0.03720    0.76160    1.000
    C159     C        0.22880    0.05190    0.65050    1.000
    C160     C        0.29030    0.12230    0.58220    1.000
    H90      H        0.27440    0.13220    0.50780    1.000
    C161     C        0.37550    0.17790    0.62500    1.000
    H91      H        0.41660    0.22500    0.57920    1.000
    O69      O        0.14040    0.99420    0.61580    1.000
    H92      H        0.21150    0.99010    0.80730    1.000
    C162     C        0.50200    0.27190    0.76550    1.000
    C163     C        0.40330    0.23810    0.71730    1.000
    C164     C        0.34210    0.24560    0.78810    1.000
    C165     C        0.25660    0.21650    0.74690    1.000
    C166     C        0.23230    0.17990    0.63480    1.000
    C167     C        0.29340    0.17240    0.56400    1.000
    C168     C        0.37890    0.20150    0.60520    1.000
    H93      H        0.35840    0.27010    0.86310    1.000
    H94      H        0.21570    0.22150    0.79430    1.000
    H95      H        0.27710    0.14780    0.48900    1.000
    H96      H        0.41980    0.19640    0.55780    1.000
    O70      O        0.52210    0.31300    0.85310    1.000
    O71      O        0.54540    0.25770    0.69980    1.000
    O72      O        0.14430    0.15220    0.60070    1.000
    Cd1      Cd       0.66667    0.33333    0.33660    1.000
    Cd2      Cd       0.33333    0.66667    0.16340    1.000
    Cd3      Cd       0.33333    0.66667    0.66340    1.000
    Cd4      Cd       0.66667    0.33333    0.83660    1.000
