data_functionalizedCrystal
_audit_creation_method	'EQeq! by Chris Wilmer'
_symmetry_space_group_name_H-M	'P1'
_symmetry_Int_Tables_number	1
_symmetry_cell_setting	triclinic
loop_
_symmetry_equiv_pos_as_xyz
  x,y,z
_cell_length_a	8.8647
_cell_length_b	11.707
_cell_length_c	17.8824
_cell_angle_alpha	90
_cell_angle_beta	90
_cell_angle_gamma	99.713
loop_
_atom_site_label
_atom_site_type_symbol
_atom_site_fract_x
_atom_site_fract_y
_atom_site_fract_z
_atom_site_charge
Mof_Mn	Mn	0.79401	0.3812	0.17008	0.847
Mof_Mn	Mn	0.70599	0.6188	0.67008	0.846
Mof_Mn	Mn	0.20599	0.6188	0.82992	0.846
Mof_Mn	Mn	0.29401	0.3812	0.32992	0.845
Mof_H 	H 	0.9817	0.1861	0.2354	-0.007
Mof_H 	H 	0.9834	0.9924	0.2368	0.082
Mof_H 	H 	0.6163	0.9481	0.1071	0.082
Mof_H 	H 	0.6244	0.1435	0.1077	-0.008
Mof_H 	H 	0.9576	0.8115	0.2504	0.076
Mof_H 	H 	0.9513	0.6155	0.2466	0.007
Mof_H 	H 	0.6378	0.5795	0.0925	0.008
Mof_H 	H 	0.6358	0.7743	0.0918	0.086
Mof_H 	H 	0.7169	0.3859	0.8821	0.099
Mof_H 	H 	0.884	0.4003	0.9138	0.101
Mof_H 	H 	0.8844	0.591	0.9433	0.128
Mof_H 	H 	0.7079	0.5787	0.9281	0.133
Mof_H 	H 	0.5183	0.8139	0.7354	-0.007
Mof_H 	H 	0.5166	0.0076	0.7368	0.083
Mof_H 	H 	0.8837	0.0519	0.6071	0.082
Mof_H 	H 	0.8756	0.8565	0.6077	-0.008
Mof_H 	H 	0.5424	0.1885	0.7504	0.076
Mof_H 	H 	0.5487	0.3845	0.7466	0.007
Mof_H 	H 	0.8622	0.4205	0.5925	0.008
Mof_H 	H 	0.8642	0.2257	0.5918	0.086
Mof_H 	H 	0.7831	0.6141	0.3821	0.1
Mof_H 	H 	0.616	0.5997	0.4138	0.101
Mof_H 	H 	0.6156	0.409	0.4433	0.127
Mof_H 	H 	0.7921	0.4213	0.4281	0.133
Mof_H 	H 	0.0183	0.8139	0.7646	-0.007
Mof_H 	H 	0.0166	0.0076	0.7632	0.082
Mof_H 	H 	0.3837	0.0519	0.8929	0.082
Mof_H 	H 	0.3756	0.8565	0.8923	-0.008
Mof_H 	H 	0.0424	0.1885	0.7496	0.076
Mof_H 	H 	0.0487	0.3845	0.7534	0.007
Mof_H 	H 	0.3622	0.4205	0.9075	0.008
Mof_H 	H 	0.3642	0.2257	0.9082	0.086
Mof_H 	H 	0.2831	0.6141	0.1179	0.099
Mof_H 	H 	0.116	0.5997	0.0862	0.101
Mof_H 	H 	0.1156	0.409	0.0567	0.128
Mof_H 	H 	0.2921	0.4213	0.0719	0.133
Mof_H 	H 	0.4817	0.1861	0.2646	-0.007
Mof_H 	H 	0.4834	0.9924	0.2632	0.083
Mof_H 	H 	0.1163	0.9481	0.3929	0.082
Mof_H 	H 	0.1244	0.1435	0.3923	-0.008
Mof_H 	H 	0.4576	0.8115	0.2496	0.076
Mof_H 	H 	0.4513	0.6155	0.2534	0.007
Mof_H 	H 	0.1378	0.5795	0.4075	0.008
Mof_H 	H 	0.1358	0.7743	0.4082	0.086
Mof_H 	H 	0.2169	0.3859	0.6179	0.1
Mof_H 	H 	0.384	0.4003	0.5862	0.101
Mof_H 	H 	0.3844	0.591	0.5567	0.127
Mof_H 	H 	0.2079	0.5787	0.5719	0.133
Mof_C 	C 	0.9061	0.1376	0.2091	0.101
Mof_C 	C 	0.9078	0.0209	0.21	-0.152
Mof_C 	C 	0.7993	0.9452	0.1719	0.068
Mof_C 	C 	0.6929	0.9949	0.1339	-0.158
Mof_C 	C 	0.6977	0.113	0.1349	0.096
Mof_C 	C 	0.7974	0.818	0.1711	0.051
Mof_C 	C 	0.8914	0.7664	0.2175	-0.138
Mof_C 	C 	0.8868	0.6479	0.2149	0.082
Mof_C 	C 	0.7033	0.6267	0.1247	0.083
Mof_C 	C 	0.7015	0.7442	0.124	-0.139
Mof_C 	C 	0.7217	0.383	0.9969	0.369
Mof_C 	C 	0.7848	0.4234	0.9206	-0.204
Mof_C 	C 	0.8014	0.5534	0.9119	-0.287
Mof_C 	C 	0.8335	0.5882	0.8318	0.411
Mof_C 	C 	0.5939	0.8624	0.7091	0.102
Mof_C 	C 	0.5922	0.9791	0.71	-0.156
Mof_C 	C 	0.7007	0.0548	0.6719	0.069
Mof_C 	C 	0.8071	0.0051	0.6339	-0.156
Mof_C 	C 	0.8023	0.887	0.6349	0.094
Mof_C 	C 	0.7026	0.182	0.6711	0.05
Mof_C 	C 	0.6086	0.2336	0.7175	-0.138
Mof_C 	C 	0.6132	0.3521	0.7149	0.082
Mof_C 	C 	0.7967	0.3733	0.6247	0.083
Mof_C 	C 	0.7985	0.2558	0.624	-0.139
Mof_C 	C 	0.7783	0.617	0.4969	0.371
Mof_C 	C 	0.7152	0.5766	0.4206	-0.205
Mof_C 	C 	0.6986	0.4466	0.4119	-0.286
Mof_C 	C 	0.6665	0.4118	0.3318	0.411
Mof_C 	C 	0.0939	0.8624	0.7909	0.101
Mof_C 	C 	0.0922	0.9791	0.79	-0.152
Mof_C 	C 	0.2007	0.0548	0.8281	0.068
Mof_C 	C 	0.3071	0.0051	0.8661	-0.158
Mof_C 	C 	0.3023	0.887	0.8651	0.096
Mof_C 	C 	0.2026	0.182	0.8289	0.051
Mof_C 	C 	0.1086	0.2336	0.7825	-0.138
Mof_C 	C 	0.1132	0.3521	0.7851	0.082
Mof_C 	C 	0.2967	0.3733	0.8753	0.083
Mof_C 	C 	0.2985	0.2558	0.876	-0.139
Mof_C 	C 	0.2783	0.617	0.0031	0.369
Mof_C 	C 	0.2152	0.5766	0.0794	-0.204
Mof_C 	C 	0.1986	0.4466	0.0881	-0.287
Mof_C 	C 	0.1665	0.4118	0.1682	0.411
Mof_C 	C 	0.4061	0.1376	0.2909	0.102
Mof_C 	C 	0.4078	0.0209	0.29	-0.156
Mof_C 	C 	0.2993	0.9452	0.3281	0.069
Mof_C 	C 	0.1929	0.9949	0.3661	-0.156
Mof_C 	C 	0.1977	0.113	0.3651	0.094
Mof_C 	C 	0.2974	0.818	0.3289	0.05
Mof_C 	C 	0.3914	0.7664	0.2825	-0.138
Mof_C 	C 	0.3868	0.6479	0.2851	0.082
Mof_C 	C 	0.2033	0.6267	0.3753	0.083
Mof_C 	C 	0.2015	0.7442	0.376	-0.139
Mof_C 	C 	0.2217	0.383	0.5031	0.371
Mof_C 	C 	0.2848	0.4234	0.5794	-0.205
Mof_C 	C 	0.3014	0.5534	0.5881	-0.286
Mof_C 	C 	0.3335	0.5882	0.6682	0.411
Mof_N 	N 	0.8012	0.1853	0.1724	-0.195
Mof_N 	N 	0.7947	0.5773	0.1694	-0.187
Mof_N 	N 	0.6988	0.8147	0.6724	-0.195
Mof_N 	N 	0.7053	0.4227	0.6694	-0.187
Mof_N 	N 	0.1988	0.8147	0.8276	-0.195
Mof_N 	N 	0.2053	0.4227	0.8306	-0.187
Mof_N 	N 	0.3012	0.1853	0.3276	-0.195
Mof_N 	N 	0.2947	0.5773	0.3306	-0.187
Mof_O 	O 	0.8154	0.3854	0.04949	-0.376
Mof_O 	O 	0.5819	0.3511	0.0026	-0.294
Mof_O 	O 	0.9654	0.588	0.80597	-0.388
Mof_O 	O 	0.7254	0.6124	0.79233	-0.375
Mof_O 	O 	0.6846	0.6146	0.54949	-0.377
Mof_O 	O 	0.9181	0.6489	0.5026	-0.295
Mof_O 	O 	0.5346	0.412	0.30597	-0.388
Mof_O 	O 	0.7746	0.3876	0.29233	-0.375
Mof_O 	O 	0.1846	0.6146	0.95051	-0.376
Mof_O 	O 	0.4181	0.6489	0.9974	-0.294
Mof_O 	O 	0.0346	0.412	0.19403	-0.388
Mof_O 	O 	0.2746	0.3876	0.20767	-0.375
Mof_O 	O 	0.3154	0.3854	0.45051	-0.377
Mof_O 	O 	0.0819	0.3511	0.4974	-0.295
Mof_O 	O 	0.4654	0.588	0.69403	-0.388
Mof_O 	O 	0.2254	0.6124	0.70767	-0.375
_end
