data_functionalizedCrystal
_audit_creation_method	'EQeq! by Chris Wilmer'
_symmetry_space_group_name_H-M	'P1'
_symmetry_Int_Tables_number	1
_symmetry_cell_setting	triclinic
loop_
_symmetry_equiv_pos_as_xyz
  x,y,z
_cell_length_a	16.0096
_cell_length_b	16.0093
_cell_length_c	16.0093
_cell_angle_alpha	108.731
_cell_angle_beta	108.732
_cell_angle_gamma	110.962
loop_
_atom_site_label
_atom_site_type_symbol
_atom_site_fract_x
_atom_site_fract_y
_atom_site_fract_z
_atom_site_charge
Mof_Ti	Ti	0.28907	0.57933	0.87045	1.648
Mof_Ti	Ti	0.57626	0.70969	0.28285	1.696
Mof_Ti	Ti	0.4221	0.29618	0.71754	1.694
Mof_Ti	Ti	0.57361	0.29122	0.87121	1.702
Mof_Ti	Ti	0.70455	0.57864	0.28246	1.695
Mof_Ti	Ti	0.41863	0.70889	0.12955	1.642
Mof_Ti	Ti	0.29341	0.42684	0.71715	1.698
Mof_Ti	Ti	0.7024	0.42001	0.12879	1.695
Mof_C 	C 	0.95932	0.4357	0.39715	-0.006
Mof_C 	C 	0.49496	0.99345	0.90862	0.04
Mof_C 	C 	0.90375	0.42512	0.90839	0.02
Mof_C 	C 	0.80523	0.80847	0.39478	0.489
Mof_C 	C 	0.19356	0.19749	0.60238	0.499
Mof_C 	C 	0.56217	0.03855	0.60285	0.005
Mof_C 	C 	0.08986	0.5429	-0	-0.115
Mof_C 	C 	0.45853	0.89907	0.90863	-0.034
Mof_C 	C 	0.49705	0.84437	0.34376	0.472
Mof_C 	C 	0.5582	0.08827	-0	-0.135
Mof_C 	C 	0.0936	0.09746	0.5448	-0.116
Mof_C 	C 	0.49696	0.92418	0.42415	-0.114
Mof_C 	C 	0.99993	0.09519	0.52203	0.004
Mof_C 	C 	0.90514	0.90839	0.4512	-0.112
Mof_C 	C 	0.59117	0.59511	0.39761	0.499
Mof_C 	C 	0.57162	0.48377	0.48015	0.011
Mof_C 	C 	0.09147	0.00362	0.51985	0.02
Mof_C 	C 	0.58638	0.08482	0.09137	0.03
Mof_C 	C 	0.15329	0.50061	0.65625	0.475
Mof_C 	C 	0.54995	0.99044	0.09136	-0.039
Mof_C 	C 	0.43174	0.96256	0.39821	0.007
Mof_C 	C 	0.43186	0.03793	0.47344	0.006
Mof_C 	C 	0.48314	0.89564	-0	-0.004
Mof_C 	C 	0.59101	0.18948	-0	0.476
Mof_C 	C 	0.56218	0.9633	0.5276	0.007
Mof_C 	C 	0.4313	0.52626	0.52405	0.009
Mof_C 	C 	0.99536	0.51673	0.09161	0.005
Mof_C 	C 	0.07281	0.50003	0.57586	-0.119
Mof_C 	C 	0.52503	0.43688	0.52625	0.009
Mof_C 	C 	0.90177	0.4467	-0	-0.129
Mof_C 	C 	0.03352	0.56435	0.60179	0.018
Mof_C 	C 	0.84013	0.50011	0.34281	0.472
Mof_C 	C 	0.95842	0.56449	0.52656	-0.005
Mof_C 	C 	0.43493	0.79281	-0	0.221
Mof_C 	C 	0.90725	0.00221	0.47595	0.006
Mof_C 	C 	0.99878	0.91063	0.47375	-0.006
Mof_C 	C 	0.54879	0.55266	0.4552	-0.12
Mof_C 	C 	0.45395	0.4572	0.54881	-0.117
Mof_C 	C 	0.99635	0.47244	0.90839	0.008
Mof_C 	C 	0.18937	0.58774	-0	0.48
Mof_C 	C 	0.03458	0.4357	0.4724	0.017
Mof_C 	C 	0.4779	0.57315	0.47797	0.011
Mof_C 	C 	0.49709	0.07708	0.57689	-0.114
Mof_C 	C 	0.92019	0.50018	0.42311	-0.109
Mof_C 	C 	0.80205	0.40442	-0	0.493
Mof_C 	C 	0.41045	0.4137	0.60523	0.492
Mof_C 	C 	0.49732	0.1573	0.65719	0.475
Mof_C 	C 	0.08796	0.56406	0.09161	0.014
Mof_O 	O 	0.3515	0.43928	0.62889	-0.535
Mof_O 	O 	0.64574	0.27284	0.08437	-0.523
Mof_O 	O 	0.18436	0.55789	0.74855	-0.517
Mof_O 	O 	0.37971	0.57811	0.81016	-0.561
Mof_O 	O 	0.56137	0.18847	0.91563	-0.517
Mof_O 	O 	0.75948	0.57037	0.18776	-0.563
Mof_O 	O 	0.33691	0.72704	0.9163	-0.4
Mof_O 	O 	0.43581	0.80935	0.25145	-0.516
Mof_O 	O 	0.80342	0.43108	0.0841	-0.538
Mof_O 	O 	0.80538	0.43929	0.25046	-0.521
Mof_O 	O 	0.59704	0.39569	-0	-0.563
Mof_O 	O 	0.72261	0.81039	0.37112	-0.535
Mof_O 	O 	0.18979	0.44425	0.63152	-0.517
Mof_O 	O 	0.27618	0.19596	0.62692	-0.537
Mof_O 	O 	0.39609	0.6054	-0	-0.553
Mof_O 	O 	0.44008	0.19289	0.63227	-0.517
Mof_O 	O 	0.55492	0.18883	0.74955	-0.522
Mof_O 	O 	0.42372	0.23676	0.80917	-0.558
Mof_O 	O 	0.27214	0.64674	0.0845	-0.519
Mof_O 	O 	0.71933	0.34698	0.91591	-0.532
Mof_O 	O 	0.56418	0.65215	0.37169	-0.535
Mof_O 	O 	0.61455	0.42759	0.19083	-0.559
Mof_O 	O 	0.55827	0.81273	0.36848	-0.517
Mof_O 	O 	0.56955	0.76795	0.18984	-0.563
Mof_O 	O 	0.8078	0.56062	0.36773	-0.517
Mof_O 	O 	0.64926	0.56904	0.37308	-0.538
Mof_O 	O 	0.42063	0.81075	0.08371	-0.406
Mof_O 	O 	0.2369	0.43014	0.81009	-0.556
Mof_O 	O 	0.80637	0.72533	0.36926	-0.532
Mof_O 	O 	0.19249	0.28046	0.62831	-0.534
Mof_O 	O 	0.18763	0.56223	0.9155	-0.512
Mof_O 	O 	0.43711	0.35607	0.63074	-0.531
Mof_O 	O 	0.57172	0.38261	0.81224	-0.561
Mof_O 	O 	0.39886	0.40274	0.79915	-0.545
Mof_O 	O 	0.4268	0.62005	0.18991	-0.558
Mof_O 	O 	0.5997	0.60358	0.20085	-0.548
Mof_H 	H 	0.93188	0.38509	0.31839	0.05
Mof_H 	H 	0.47186	0.99195	0.83649	0.042
Mof_H 	H 	0.83336	0.37246	0.83629	0.047
Mof_H 	H 	0.61349	0.06669	0.68161	0.05
Mof_H 	H 	0.40894	0.82844	0.83651	0.06
Mof_H 	H 	0.99819	0.16562	0.54082	0.047
Mof_H 	H 	0.62494	0.46506	0.46311	0.048
Mof_H 	H 	0.16183	0.00196	0.53689	0.047
Mof_H 	H 	0.63544	0.15546	0.16351	0.042
Mof_H 	H 	0.5725	0.99192	0.16348	0.06
Mof_H 	H 	0.38045	0.93448	0.31946	0.052
Mof_H 	H 	0.38064	0.0655	0.4504	0.05
Mof_H 	H 	0.61343	0.93575	0.55063	0.049
Mof_H 	H 	0.37788	0.54487	0.54095	0.049
Mof_H 	H 	0.99708	0.53618	0.16372	0.048
Mof_H 	H 	0.54544	0.38512	0.54491	0.049
Mof_H 	H 	0.06098	0.61501	0.68054	0.051
Mof_H 	H 	0.93024	0.6151	0.5496	0.051
Mof_H 	H 	0.83693	0.00392	0.45906	0.048
Mof_H 	H 	0.00054	0.84021	0.45509	0.057
Mof_H 	H 	0.99456	0.45326	0.83628	0.049
Mof_H 	H 	0.06281	0.38513	0.44937	0.047
Mof_H 	H 	0.45737	0.6248	0.45918	0.048
Mof_H 	H 	0.15829	0.61699	0.16372	0.049
_end
