data_functionalizedCrystal
_audit_creation_method	'EQeq! by Chris Wilmer'
_symmetry_space_group_name_H-M	'P1'
_symmetry_Int_Tables_number	1
_symmetry_cell_setting	triclinic
loop_
_symmetry_equiv_pos_as_xyz
  x,y,z
_cell_length_a	10.2064
_cell_length_b	11.2487
_cell_length_c	22.1913
_cell_angle_alpha	90
_cell_angle_beta	97.201
_cell_angle_gamma	90
loop_
_atom_site_label
_atom_site_type_symbol
_atom_site_fract_x
_atom_site_fract_y
_atom_site_fract_z
_atom_site_charge
Mof_Eu	Eu	0.61084	0.81362	0.72508	2.339
Mof_Eu	Eu	0.74111	0.9103	0.43562	2.036
Mof_Eu	Eu	0.88916	0.31362	0.77492	2.341
Mof_Eu	Eu	0.75889	0.4103	0.06438	2.039
Mof_Eu	Eu	0.38916	0.18638	0.27492	2.34
Mof_Eu	Eu	0.25889	0.0897	0.56438	2.037
Mof_Eu	Eu	0.11084	0.68638	0.22508	2.342
Mof_Eu	Eu	0.24111	0.5897	0.93562	2.04
Mof_H 	H 	0.131	0.905	0.664	0.089
Mof_H 	H 	0.2486	0.6079	0.5747	0.235
Mof_H 	H 	0.4023	0.6229	0.5875	0.226
Mof_H 	H 	0.3103	0.7347	0.5863	0.229
Mof_H 	H 	0.1199	0.8568	0.7719	0.24
Mof_H 	H 	0.0088	0.7694	0.787	0.232
Mof_H 	H 	0.99	0.907	0.7932	0.241
Mof_H 	H 	0.369	0.405	0.836	0.089
Mof_H 	H 	0.2514	0.1079	0.9253	0.234
Mof_H 	H 	0.0977	0.1229	0.9125	0.225
Mof_H 	H 	0.1897	0.2347	0.9137	0.228
Mof_H 	H 	0.3801	0.3568	0.7281	0.246
Mof_H 	H 	0.4912	0.2694	0.713	0.239
Mof_H 	H 	0.51	0.407	0.7068	0.25
Mof_H 	H 	0.869	0.095	0.336	0.089
Mof_H 	H 	0.7514	0.3921	0.4253	0.235
Mof_H 	H 	0.5977	0.3771	0.4125	0.226
Mof_H 	H 	0.6897	0.2653	0.4137	0.229
Mof_H 	H 	0.8801	0.1432	0.2281	0.24
Mof_H 	H 	0.9912	0.2306	0.213	0.232
Mof_H 	H 	0.01	0.093	0.2068	0.241
Mof_H 	H 	0.631	0.595	0.164	0.089
Mof_H 	H 	0.7486	0.8921	0.0747	0.234
Mof_H 	H 	0.9023	0.8771	0.0875	0.225
Mof_H 	H 	0.8103	0.7653	0.0863	0.228
Mof_H 	H 	0.6199	0.6432	0.2719	0.246
Mof_H 	H 	0.5088	0.7306	0.287	0.239
Mof_H 	H 	0.49	0.593	0.2932	0.25
Mof_C 	C 	0.3126	0.6381	0.6638	0.286
Mof_C 	C 	0.2413	0.5736	0.7486	-0.068
Mof_C 	C 	0.3481	0.6473	0.7614	-0.087
Mof_C 	C 	0.3191	0.6522	0.5971	-0.736
Mof_C 	C 	0.159	0.497	0.7837	0.443
Mof_C 	C 	0.4207	0.6876	0.8201	0.452
Mof_C 	C 	0.9642	0.8512	0.7059	0.312
Mof_C 	C 	0.951	0.8701	0.6057	-0.056
Mof_C 	C 	0.8272	0.8506	0.623	-0.088
Mof_C 	C 	0.0262	0.8456	0.7702	-0.761
Mof_C 	C 	0.0077	0.8851	0.5478	0.461
Mof_C 	C 	0.6943	0.8458	0.5868	0.466
Mof_C 	C 	0.763	0.0456	0.7851	0.255
Mof_C 	C 	0.7039	0.0917	0.7219	0.268
Mof_C 	C 	0.1874	0.1381	0.8362	0.285
Mof_C 	C 	0.2587	0.0736	0.7514	-0.069
Mof_C 	C 	0.1519	0.1473	0.7386	-0.087
Mof_C 	C 	0.1809	0.1522	0.9029	-0.735
Mof_C 	C 	0.341	0.997	0.7163	0.444
Mof_C 	C 	0.0793	0.1876	0.6799	0.45
Mof_C 	C 	0.5358	0.3512	0.7941	0.322
Mof_C 	C 	0.549	0.3701	0.8943	-0.05
Mof_C 	C 	0.6728	0.3506	0.877	-0.089
Mof_C 	C 	0.4738	0.3456	0.7298	-0.785
Mof_C 	C 	0.4923	0.3851	0.9522	0.455
Mof_C 	C 	0.8057	0.3458	0.9132	0.467
Mof_C 	C 	0.737	0.5456	0.7149	0.253
Mof_C 	C 	0.7961	0.5917	0.7781	0.269
Mof_C 	C 	0.6874	0.3619	0.3362	0.286
Mof_C 	C 	0.7587	0.4264	0.2514	-0.068
Mof_C 	C 	0.6519	0.3527	0.2386	-0.087
Mof_C 	C 	0.6809	0.3478	0.4029	-0.736
Mof_C 	C 	0.841	0.503	0.2163	0.443
Mof_C 	C 	0.5793	0.3124	0.1799	0.452
Mof_C 	C 	0.0358	0.1488	0.2941	0.312
Mof_C 	C 	0.049	0.1299	0.3943	-0.056
Mof_C 	C 	0.1728	0.1494	0.377	-0.088
Mof_C 	C 	0.9738	0.1544	0.2298	-0.761
Mof_C 	C 	0.9923	0.1149	0.4522	0.461
Mof_C 	C 	0.3057	0.1542	0.4132	0.466
Mof_C 	C 	0.237	0.9544	0.2149	0.255
Mof_C 	C 	0.2961	0.9083	0.2781	0.268
Mof_C 	C 	0.8126	0.8619	0.1638	0.285
Mof_C 	C 	0.7413	0.9264	0.2486	-0.069
Mof_C 	C 	0.8481	0.8527	0.2614	-0.087
Mof_C 	C 	0.8191	0.8478	0.0971	-0.735
Mof_C 	C 	0.659	0.003	0.2837	0.444
Mof_C 	C 	0.9207	0.8124	0.3201	0.45
Mof_C 	C 	0.4642	0.6488	0.2059	0.322
Mof_C 	C 	0.451	0.6299	0.1057	-0.05
Mof_C 	C 	0.3272	0.6494	0.123	-0.089
Mof_C 	C 	0.5262	0.6544	0.2702	-0.785
Mof_C 	C 	0.5077	0.6149	0.0478	0.455
Mof_C 	C 	0.1943	0.6542	0.0868	0.467
Mof_C 	C 	0.263	0.4544	0.2851	0.253
Mof_C 	C 	0.2039	0.4083	0.2219	0.269
Mof_N 	N 	0.21874	0.57	0.68554	-0.151
Mof_N 	N 	0.39278	0.6864	0.70868	-0.266
Mof_N 	N 	0.03565	0.8703	0.65915	-0.195
Mof_N 	N 	0.83766	0.8397	0.68546	-0.271
Mof_N 	N 	0.28126	0.07	0.81446	-0.151
Mof_N 	N 	0.10722	0.1864	0.79132	-0.267
Mof_N 	N 	0.46435	0.3703	0.84085	-0.199
Mof_N 	N 	0.66234	0.3397	0.81454	-0.272
Mof_N 	N 	0.78126	0.43	0.31446	-0.151
Mof_N 	N 	0.60722	0.3136	0.29132	-0.266
Mof_N 	N 	0.96435	0.1297	0.34085	-0.195
Mof_N 	N 	0.16234	0.1603	0.31454	-0.271
Mof_N 	N 	0.71874	0.93	0.18554	-0.151
Mof_N 	N 	0.89278	0.8136	0.20868	-0.267
Mof_N 	N 	0.53565	0.6297	0.15915	-0.199
Mof_N 	N 	0.33766	0.6603	0.18546	-0.272
Mof_O 	O 	0.0702	0.4401	0.7514	-0.506
Mof_O 	O 	0.18539	0.489	0.83989	-0.564
Mof_O 	O 	0.37807	0.6644	0.86897	-0.548
Mof_O 	O 	0.52466	0.7463	0.81716	-0.484
Mof_O 	O 	0.12887	0.9145	0.55427	-0.524
Mof_O 	O 	0.94183	0.8638	0.49823	-0.521
Mof_O 	O 	0.68023	0.868	0.53143	-0.609
Mof_O 	O 	0.59749	0.8229	0.61569	-0.552
Mof_O 	O 	0.84127	0.1139	0.81647	-0.451
Mof_O 	O 	0.72932	0.9438	0.80032	-0.449
Mof_O 	O 	0.73028	0.1963	0.70878	-0.463
Mof_O 	O 	0.63331	0.0212	0.68861	-0.464
Mof_O 	O 	0.4298	0.9401	0.7486	-0.506
Mof_O 	O 	0.31461	0.989	0.66011	-0.563
Mof_O 	O 	0.12193	0.1644	0.63103	-0.548
Mof_O 	O 	0.97534	0.2463	0.68284	-0.483
Mof_O 	O 	0.37113	0.4145	0.94573	-0.524
Mof_O 	O 	0.55817	0.3638	0.00177	-0.517
Mof_O 	O 	0.81977	0.368	0.96857	-0.609
Mof_O 	O 	0.90251	0.3229	0.88431	-0.552
Mof_O 	O 	0.65873	0.6139	0.68353	-0.452
Mof_O 	O 	0.77068	0.4438	0.69968	-0.448
Mof_O 	O 	0.76972	0.6963	0.79122	-0.463
Mof_O 	O 	0.86669	0.5212	0.81139	-0.465
Mof_O 	O 	0.9298	0.5599	0.2486	-0.506
Mof_O 	O 	0.81461	0.511	0.16011	-0.564
Mof_O 	O 	0.62193	0.3356	0.13103	-0.548
Mof_O 	O 	0.47534	0.2537	0.18284	-0.484
Mof_O 	O 	0.87113	0.0855	0.44573	-0.524
Mof_O 	O 	0.05817	0.1362	0.50177	-0.521
Mof_O 	O 	0.31977	0.132	0.46857	-0.609
Mof_O 	O 	0.40251	0.1771	0.38431	-0.552
Mof_O 	O 	0.15873	0.8861	0.18353	-0.451
Mof_O 	O 	0.27068	0.0562	0.19968	-0.449
Mof_O 	O 	0.26972	0.8037	0.29122	-0.463
Mof_O 	O 	0.36669	0.9788	0.31139	-0.464
Mof_O 	O 	0.5702	0.0599	0.2514	-0.506
Mof_O 	O 	0.68539	0.011	0.33989	-0.563
Mof_O 	O 	0.87807	0.8356	0.36897	-0.548
Mof_O 	O 	0.02466	0.7537	0.31716	-0.483
Mof_O 	O 	0.62887	0.5855	0.05427	-0.524
Mof_O 	O 	0.44183	0.6362	0.99823	-0.517
Mof_O 	O 	0.18023	0.632	0.03143	-0.609
Mof_O 	O 	0.09749	0.6771	0.11569	-0.552
Mof_O 	O 	0.34127	0.3861	0.31647	-0.452
Mof_O 	O 	0.22932	0.5562	0.30032	-0.448
Mof_O 	O 	0.23028	0.3037	0.20878	-0.463
Mof_O 	O 	0.13331	0.4788	0.18861	-0.465
_end
