data_functionalizedCrystal
_audit_creation_method	'EQeq! by Chris Wilmer'
_symmetry_space_group_name_H-M	'P1'
_symmetry_Int_Tables_number	1
_symmetry_cell_setting	triclinic
loop_
_symmetry_equiv_pos_as_xyz
  x,y,z
_cell_length_a	9.942
_cell_length_b	10.426
_cell_length_c	12.77
_cell_angle_alpha	109.996
_cell_angle_beta	107.303
_cell_angle_gamma	92.141
loop_
_atom_site_label
_atom_site_type_symbol
_atom_site_fract_x
_atom_site_fract_y
_atom_site_fract_z
_atom_site_charge
Mof_Cd	Cd	0.57202	0.81567	0.23648	0.505
Mof_C 	C 	0.7877	0.758	0.1318	0.287
Mof_C 	C 	0.8833	0.71	0.0602	-0.053
Mof_C 	C 	0.0292	0.7372	0.114	-0.015
Mof_H 	H 	0.0687	0.7878	0.1947	0.068
Mof_C 	C 	0.1179	0.6883	0.0465	-0.06
Mof_C 	C 	0.0578	0.6144	0.9266	-0.044
Mof_H 	H 	0.1164	0.5808	0.8818	0.08
Mof_C 	C 	0.9117	0.5901	0.8727	0.084
Mof_C 	C 	0.823	0.6367	0.9389	-0.044
Mof_H 	H 	0.7245	0.6193	0.9029	0.078
Mof_C 	C 	0.2774	0.712	0.1022	0.288
Mof_C 	C 	0.7103	0.5212	0.6937	0.545
Mof_H 	H 	0.6706	0.6065	0.712	-0.096
Mof_H 	H 	0.665	0.4574	0.718	-0.149
Mof_C 	C 	0.6936	0.4561	0.5591	0.071
Mof_C 	C 	0.674	0.3135	0.5096	-0.078
Mof_H 	H 	0.6908	0.2621	0.5578	0.089
Mof_C 	C 	0.629	0.2467	0.3868	-0.012
Mof_C 	C 	0.6065	0.3238	0.3143	-0.027
Mof_H 	H 	0.5771	0.2796	0.2326	0.077
Mof_C 	C 	0.6287	0.4697	0.366	-0.034
Mof_C 	C 	0.6716	0.5342	0.4874	-0.052
Mof_H 	H 	0.686	0.6301	0.5215	0.093
Mof_C 	C 	0.6092	0.0917	0.3326	0.278
Mof_C 	C 	0.6015	0.5517	0.2867	0.305
Mof_O 	O 	0.8356	0.8422	0.2361	-0.229
Mof_O 	O 	0.6545	0.7058	0.0856	-0.288
Mof_O 	O 	0.3338	0.7914	0.2121	-0.254
Mof_O 	O 	0.351	0.6586	0.04	-0.283
Mof_O 	O 	0.8646	0.5461	0.7491	-0.041
Mof_O 	O 	0.635	0.0237	0.3987	-0.234
Mof_O 	O 	0.5636	0.0335	0.2217	-0.241
Mof_O 	O 	0.5445	0.4869	0.1782	-0.284
Mof_O 	O 	0.6333	0.6813	0.3373	-0.266
Mof_C 	C 	0.8433	0.474	0.7491	-0.064
Mof_H 	H 	0.9141	0.42	0.7258	0.088
Mof_H 	H 	0.7673	0.4129	0.7492	0.057
Mof_O 	O 	0.7907	0.5421	0.6746	-0.418
Mof_Cd	Cd	0.42798	0.18433	0.76352	0.508
Mof_C 	C 	0.2123	0.242	0.8682	0.258
Mof_C 	C 	0.1167	0.29	0.9398	0.041
Mof_C 	C 	0.9708	0.2628	0.886	-0.08
Mof_H 	H 	0.9313	0.2122	0.8053	0.093
Mof_C 	C 	0.8821	0.3117	0.9535	0.044
Mof_C 	C 	0.9422	0.3856	0.0734	-0.155
Mof_H 	H 	0.8836	0.4192	0.1182	0.11
Mof_C 	C 	0.0883	0.4099	0.1273	0.145
Mof_C 	C 	0.177	0.3633	0.0611	-0.164
Mof_H 	H 	0.2755	0.3807	0.0971	0.109
Mof_C 	C 	0.7226	0.288	0.8978	0.258
Mof_C 	C 	0.2897	0.4788	0.3063	0.549
Mof_H 	H 	0.3294	0.3935	0.288	-0.1
Mof_H 	H 	0.335	0.5426	0.282	-0.151
Mof_C 	C 	0.3064	0.5439	0.4409	0.068
Mof_C 	C 	0.326	0.6865	0.4904	-0.078
Mof_H 	H 	0.3092	0.7379	0.4422	0.088
Mof_C 	C 	0.371	0.7533	0.6132	-0.009
Mof_C 	C 	0.3935	0.6762	0.6857	-0.03
Mof_H 	H 	0.4229	0.7204	0.7674	0.084
Mof_C 	C 	0.3713	0.5303	0.634	-0.03
Mof_C 	C 	0.3284	0.4658	0.5126	-0.053
Mof_H 	H 	0.314	0.3699	0.4785	0.092
Mof_C 	C 	0.3908	0.9083	0.6674	0.277
Mof_C 	C 	0.3985	0.4483	0.7133	0.301
Mof_O 	O 	0.1644	0.1578	0.7639	-0.222
Mof_O 	O 	0.3455	0.2942	0.9144	-0.264
Mof_O 	O 	0.6662	0.2086	0.7879	-0.244
Mof_O 	O 	0.649	0.3414	0.96	-0.254
Mof_O 	O 	0.1354	0.4539	0.2509	-0.056
Mof_O 	O 	0.365	0.9763	0.6013	-0.236
Mof_O 	O 	0.4364	0.9665	0.7783	-0.234
Mof_O 	O 	0.4555	0.5131	0.8218	-0.27
Mof_O 	O 	0.3667	0.3187	0.6627	-0.266
Mof_C 	C 	0.1567	0.526	0.2509	-0.073
Mof_H 	H 	0.0859	0.58	0.2742	0.088
Mof_H 	H 	0.2327	0.5871	0.2508	0.059
Mof_O 	O 	0.2093	0.4579	0.3254	-0.413
Mof_Cd	Cd	0.5	0.5	-0	0.483
_end
