data_functionalizedCrystal
_audit_creation_method	'EQeq! by Chris Wilmer'
_symmetry_space_group_name_H-M	'P1'
_symmetry_Int_Tables_number	1
_symmetry_cell_setting	triclinic
loop_
_symmetry_equiv_pos_as_xyz
  x,y,z
_cell_length_a	10.27
_cell_length_b	10.27
_cell_length_c	14.46
_cell_angle_alpha	90
_cell_angle_beta	90
_cell_angle_gamma	90
loop_
_atom_site_label
_atom_site_type_symbol
_atom_site_fract_x
_atom_site_fract_y
_atom_site_fract_z
_atom_site_charge
Mof_Er	Er	0.35133	0.64867	0.875	2.115
Mof_Er	Er	0.64867	0.35133	0.375	2.09
Mof_Er	Er	0.35133	0.35133	0.625	2.092
Mof_Er	Er	0.64867	0.64867	0.125	2.061
Mof_H 	H 	0.4249	0.0592	0.8716	-0.039
Mof_H 	H 	0.5751	0.9408	0.3716	-0.036
Mof_H 	H 	0.9408	0.4249	0.6216	-0.035
Mof_H 	H 	0.0592	0.5751	0.1216	-0.039
Mof_H 	H 	0.5751	0.0592	0.1284	-0.035
Mof_H 	H 	0.4249	0.9408	0.6284	-0.035
Mof_H 	H 	0.0592	0.4249	0.3784	-0.035
Mof_H 	H 	0.9408	0.5751	0.8784	-0.03
Mof_H 	H 	0.5	0.3992	-0	-0.058
Mof_H 	H 	0.5	0.6008	0.5	-0.062
Mof_H 	H 	0.6008	0.5	0.75	-0.062
Mof_H 	H 	0.3992	0.5	0.25	-0.062
Mof_C 	C 	0.4122	0.3166	0.8393	0.566
Mof_C 	C 	0.4554	0.1046	0.9228	0.235
Mof_C 	C 	0.4568	0.24	0.9227	-0.276
Mof_C 	C 	0.5878	0.6834	0.3393	0.569
Mof_C 	C 	0.5446	0.8954	0.4228	0.217
Mof_C 	C 	0.5432	0.76	0.4227	-0.301
Mof_C 	C 	0.6834	0.4122	0.5893	0.57
Mof_C 	C 	0.8954	0.4554	0.6728	0.216
Mof_C 	C 	0.76	0.4568	0.6727	-0.3
Mof_C 	C 	0.3166	0.5878	0.0893	0.572
Mof_C 	C 	0.1046	0.5446	0.1728	0.218
Mof_C 	C 	0.24	0.5432	0.1727	-0.304
Mof_C 	C 	0.5878	0.3166	0.1607	0.565
Mof_C 	C 	0.5446	0.1046	0.0772	0.213
Mof_C 	C 	0.5432	0.24	0.0773	-0.294
Mof_C 	C 	0.4122	0.6834	0.6607	0.571
Mof_C 	C 	0.4554	0.8954	0.5772	0.218
Mof_C 	C 	0.4568	0.76	0.5773	-0.301
Mof_C 	C 	0.3166	0.4122	0.4107	0.57
Mof_C 	C 	0.1046	0.4554	0.3272	0.217
Mof_C 	C 	0.24	0.4568	0.3273	-0.302
Mof_C 	C 	0.6834	0.5878	0.9107	0.569
Mof_C 	C 	0.8954	0.5446	0.8272	0.215
Mof_C 	C 	0.76	0.5432	0.8273	-0.296
Mof_C 	C 	0.5	0.8897	-0	0.547
Mof_C 	C 	0.5	0.0374	-0	-0.31
Mof_C 	C 	0.5	0.3087	-0	0.198
Mof_C 	C 	0.5	0.1103	0.5	0.577
Mof_C 	C 	0.5	0.9626	0.5	-0.294
Mof_C 	C 	0.5	0.6913	0.5	0.234
Mof_C 	C 	0.1103	0.5	0.75	0.577
Mof_C 	C 	0.9626	0.5	0.75	-0.291
Mof_C 	C 	0.6913	0.5	0.75	0.233
Mof_C 	C 	0.8897	0.5	0.25	0.575
Mof_C 	C 	0.0374	0.5	0.25	-0.294
Mof_C 	C 	0.3087	0.5	0.25	0.234
Mof_O 	O 	0.4277	0.8361	0.942	-0.549
Mof_O 	O 	0.3886	0.4331	0.8499	-0.579
Mof_O 	O 	0.4041	0.2583	0.7633	-0.565
Mof_O 	O 	0.5723	0.1639	0.442	-0.574
Mof_O 	O 	0.6114	0.5669	0.3499	-0.582
Mof_O 	O 	0.5959	0.7417	0.2633	-0.564
Mof_O 	O 	0.1639	0.4277	0.692	-0.574
Mof_O 	O 	0.5669	0.3886	0.5999	-0.583
Mof_O 	O 	0.7417	0.4041	0.5133	-0.566
Mof_O 	O 	0.8361	0.5723	0.192	-0.575
Mof_O 	O 	0.4331	0.6114	0.0999	-0.586
Mof_O 	O 	0.2583	0.5959	0.0133	-0.582
Mof_O 	O 	0.5723	0.8361	0.058	-0.57
Mof_O 	O 	0.6114	0.4331	0.1501	-0.581
Mof_O 	O 	0.5959	0.2583	0.2367	-0.566
Mof_O 	O 	0.4277	0.1639	0.558	-0.574
Mof_O 	O 	0.3886	0.5669	0.6501	-0.584
Mof_O 	O 	0.4041	0.7417	0.7367	-0.568
Mof_O 	O 	0.8361	0.4277	0.308	-0.574
Mof_O 	O 	0.4331	0.3886	0.4001	-0.583
Mof_O 	O 	0.2583	0.4041	0.4867	-0.567
Mof_O 	O 	0.1639	0.5723	0.808	-0.573
Mof_O 	O 	0.5669	0.6114	0.9001	-0.577
Mof_O 	O 	0.7417	0.5959	0.9867	-0.547
_end
