data_functionalizedCrystal
_audit_creation_method	'EQeq! by Chris Wilmer'
_symmetry_space_group_name_H-M	'P1'
_symmetry_Int_Tables_number	1
_symmetry_cell_setting	triclinic
loop_
_symmetry_equiv_pos_as_xyz
  x,y,z
_cell_length_a	13.3751
_cell_length_b	14.3847
_cell_length_c	11.3178
_cell_angle_alpha	90
_cell_angle_beta	111.405
_cell_angle_gamma	90
loop_
_atom_site_label
_atom_site_type_symbol
_atom_site_fract_x
_atom_site_fract_y
_atom_site_fract_z
_atom_site_charge
Mof_O 	O 	0.8656	0.9739	0.2914	-0.458
Mof_O 	O 	0.8898	0.0335	0.1238	-0.644
Mof_C 	C 	0.843	0.9783	0.1756	0.68
Mof_C 	C 	0.7566	0.9175	0.088	-0.499
Mof_C 	C 	0.707	0.8499	0.1356	0.411
Mof_H 	H 	0.7261	0.8441	0.2229	-0.065
Mof_C 	C 	0.5799	0.7176	0.113	0.629
Mof_C 	C 	0.7259	0.926	0.9569	0.505
Mof_H 	H 	0.7577	0.9708	0.9228	-0.078
Mof_C 	C 	0.6306	0.7916	0.0563	-0.534
Mof_C 	C 	0.6014	0.8	0.9264	0.538
Mof_H 	H 	0.5503	0.7601	0.8724	-0.158
Mof_O 	O 	0.6023	0.7157	0.2285	-0.488
Mof_O 	O 	0.5164	0.6628	0.0415	-0.815
Mof_C 	C 	0.6479	0.8673	0.8771	-0.526
Mof_H 	H 	0.627	0.8736	0.7896	0.235
Mof_O 	O 	0.3656	0.4739	0.2914	-0.836
Mof_O 	O 	0.3898	0.5335	0.1238	-0.903
Mof_C 	C 	0.343	0.4783	0.1756	0.725
Mof_C 	C 	0.2566	0.4175	0.088	-0.667
Mof_C 	C 	0.207	0.3499	0.1356	0.483
Mof_H 	H 	0.2261	0.3441	0.2229	-0.144
Mof_C 	C 	0.0799	0.2176	0.113	0.582
Mof_C 	C 	0.2259	0.426	0.9569	0.585
Mof_H 	H 	0.2577	0.4708	0.9228	-0.225
Mof_C 	C 	0.1306	0.2916	0.0563	-0.614
Mof_C 	C 	0.1014	0.3	0.9264	0.578
Mof_H 	H 	0.0503	0.2601	0.8724	-0.226
Mof_O 	O 	0.1023	0.2157	0.2285	-0.55
Mof_O 	O 	0.0164	0.1628	0.0415	-0.713
Mof_C 	C 	0.1479	0.3673	0.8771	-0.64
Mof_H 	H 	0.127	0.3736	0.7896	0.194
Mof_O 	O 	0.1344	0.9739	0.2086	-0.568
Mof_O 	O 	0.1102	0.0335	0.3762	-0.85
Mof_C 	C 	0.157	0.9783	0.3244	0.664
Mof_C 	C 	0.2434	0.9175	0.412	-0.338
Mof_C 	C 	0.293	0.8499	0.3644	0.257
Mof_H 	H 	0.2739	0.8441	0.2771	-0.053
Mof_C 	C 	0.4201	0.7176	0.387	0.579
Mof_C 	C 	0.2741	0.926	0.5431	0.246
Mof_H 	H 	0.2423	0.9708	0.5772	-0.034
Mof_C 	C 	0.3694	0.7916	0.4437	-0.321
Mof_C 	C 	0.3986	0.8	0.5736	0.252
Mof_H 	H 	0.4497	0.7601	0.6276	-0.075
Mof_O 	O 	0.3977	0.7157	0.2715	-0.505
Mof_O 	O 	0.4836	0.6628	0.4585	-0.806
Mof_C 	C 	0.3521	0.8673	0.6229	-0.302
Mof_H 	H 	0.373	0.8736	0.7104	0.16
Mof_O 	O 	0.6344	0.4739	0.2086	-0.774
Mof_O 	O 	0.6102	0.5335	0.3762	-0.879
Mof_C 	C 	0.657	0.4783	0.3244	0.639
Mof_C 	C 	0.7434	0.4175	0.412	-0.35
Mof_C 	C 	0.793	0.3499	0.3644	0.228
Mof_H 	H 	0.7739	0.3441	0.2771	-0.035
Mof_C 	C 	0.9201	0.2176	0.387	0.452
Mof_C 	C 	0.7741	0.426	0.5431	0.239
Mof_H 	H 	0.7423	0.4708	0.5772	-0.109
Mof_C 	C 	0.8694	0.2916	0.4437	-0.218
Mof_C 	C 	0.8986	0.3	0.5736	0.192
Mof_H 	H 	0.9497	0.2601	0.6276	0.038
Mof_O 	O 	0.8977	0.2157	0.2715	-0.364
Mof_O 	O 	0.9836	0.1628	0.4585	-0.434
Mof_C 	C 	0.8521	0.3673	0.6229	-0.252
Mof_H 	H 	0.873	0.3736	0.7104	0.179
Mof_O 	O 	0.1344	0.0261	0.7086	-0.599
Mof_O 	O 	0.1102	0.9665	0.8762	-0.487
Mof_C 	C 	0.157	0.0217	0.8244	0.262
Mof_C 	C 	0.2434	0.0825	0.912	0.019
Mof_C 	C 	0.293	0.1501	0.8644	-0.059
Mof_H 	H 	0.2739	0.1559	0.7771	0.042
Mof_C 	C 	0.4201	0.2824	0.887	0.445
Mof_C 	C 	0.2741	0.074	0.0431	-0.201
Mof_H 	H 	0.2423	0.0292	0.0772	0.019
Mof_C 	C 	0.3694	0.2084	0.9437	0.006
Mof_C 	C 	0.3986	0.2	0.0736	-0.178
Mof_H 	H 	0.4497	0.2399	0.1276	0.045
Mof_O 	O 	0.3977	0.2843	0.7715	-0.471
Mof_O 	O 	0.4836	0.3372	0.9585	-0.693
Mof_C 	C 	0.3521	0.1327	0.1229	0.051
Mof_H 	H 	0.373	0.1264	0.2104	-0.011
Mof_O 	O 	0.6344	0.5261	0.7086	-0.766
Mof_O 	O 	0.6102	0.4665	0.8762	-0.794
Mof_C 	C 	0.657	0.5217	0.8244	0.55
Mof_C 	C 	0.7434	0.5825	0.912	-0.057
Mof_C 	C 	0.793	0.6501	0.8644	-0.021
Mof_H 	H 	0.7739	0.6559	0.7771	0.063
Mof_C 	C 	0.9201	0.7824	0.887	0.333
Mof_C 	C 	0.7741	0.574	0.0431	-0.129
Mof_H 	H 	0.7423	0.5292	0.0772	0.008
Mof_C 	C 	0.8694	0.7084	0.9437	0.09
Mof_C 	C 	0.8986	0.7	0.0736	-0.189
Mof_H 	H 	0.9497	0.7399	0.1276	0.152
Mof_O 	O 	0.8977	0.7843	0.7715	-0.304
Mof_O 	O 	0.9836	0.8372	0.9585	-0.3
Mof_C 	C 	0.8521	0.6327	0.1229	0.073
Mof_H 	H 	0.873	0.6264	0.2104	0.057
Mof_O 	O 	0.8656	0.0261	0.7914	-0.403
Mof_O 	O 	0.8898	0.9665	0.6238	-0.383
Mof_C 	C 	0.843	0.0217	0.6756	0.305
Mof_C 	C 	0.7566	0.0825	0.588	-0.181
Mof_C 	C 	0.707	0.1501	0.6356	0.127
Mof_H 	H 	0.7261	0.1559	0.7229	0.024
Mof_C 	C 	0.5799	0.2824	0.613	0.539
Mof_C 	C 	0.7259	0.074	0.4569	0.098
Mof_H 	H 	0.7577	0.0292	0.4228	-0.052
Mof_C 	C 	0.6306	0.2084	0.5563	-0.248
Mof_C 	C 	0.6014	0.2	0.4264	0.15
Mof_H 	H 	0.5503	0.2399	0.3724	-0.056
Mof_O 	O 	0.6023	0.2843	0.7285	-0.472
Mof_O 	O 	0.5164	0.3372	0.5415	-0.807
Mof_C 	C 	0.6479	0.1327	0.3771	-0.214
Mof_H 	H 	0.627	0.1264	0.2896	0.079
Mof_O 	O 	0.3656	0.5261	0.7914	-0.74
Mof_O 	O 	0.3898	0.4665	0.6238	-0.891
Mof_C 	C 	0.343	0.5217	0.6756	0.624
Mof_C 	C 	0.2566	0.5825	0.588	-0.384
Mof_C 	C 	0.207	0.6501	0.6356	0.24
Mof_H 	H 	0.2261	0.6559	0.7229	-0.046
Mof_C 	C 	0.0799	0.7824	0.613	0.494
Mof_C 	C 	0.2259	0.574	0.4569	0.224
Mof_H 	H 	0.2577	0.5292	0.4228	-0.134
Mof_C 	C 	0.1306	0.7084	0.5563	-0.319
Mof_C 	C 	0.1014	0.7	0.4264	0.205
Mof_H 	H 	0.0503	0.7399	0.3724	-0.117
Mof_O 	O 	0.1023	0.7843	0.7285	-0.496
Mof_O 	O 	0.0164	0.8372	0.5415	-0.658
Mof_C 	C 	0.1479	0.6327	0.3771	-0.327
Mof_H 	H 	0.127	0.6264	0.2896	0.076
Mof_Co	Co	-1.40194e-17	0.11366	0.25	1.025
Mof_Co	Co	0.5	0.61366	0.25	1.113
Mof_Co	Co	2.80388e-17	0.88634	0.75	1.054
Mof_Co	Co	0.5	0.38634	0.75	1.112
Mof_Na	Na	2.16529e-33	-6.22586e-33	0.5	1.661
Mof_Na	Na	0.5	0.5	0.5	3.303
Mof_Na	Na	-0	0	-0	1.338
Mof_Na	Na	0.5	0.5	-0	2.961
_end
