data_functionalizedCrystal
_audit_creation_method	'EQeq! by Chris Wilmer'
_symmetry_space_group_name_H-M	'P1'
_symmetry_Int_Tables_number	1
_symmetry_cell_setting	triclinic
loop_
_symmetry_equiv_pos_as_xyz
  x,y,z
_cell_length_a	8.509
_cell_length_b	17.1579
_cell_length_c	17.1579
_cell_angle_alpha	118.708
_cell_angle_beta	97.4945
_cell_angle_gamma	82.5055
loop_
_atom_site_label
_atom_site_type_symbol
_atom_site_fract_x
_atom_site_fract_y
_atom_site_fract_z
_atom_site_charge
Mof_Ce	Ce	0.25	0.99093	0.99093	1.873
Mof_Ce	Ce	0.75	0.00907	0.00907	1.873
Mof_H 	H 	0.8697	0.1035	0.6495	0.135
Mof_H 	H 	0.9552	0.8039	0.2501	0.067
Mof_H 	H 	0.843	0.8749	0.2515	0.053
Mof_H 	H 	0.8136	0.7953	0.3215	0.045
Mof_H 	H 	0.7882	0.897	0.3926	0.042
Mof_H 	H 	0.0251	0.8083	0.5115	-0.097
Mof_H 	H 	0.8349	0.7874	0.4622	-0.066
Mof_H 	H 	0.7932	0.9462	0.5398	0.424
Mof_H 	H 	0.826	0.9152	0.5978	0.354
Mof_H 	H 	0.0739	0.9582	0.6368	-0.1
Mof_H 	H 	0.0649	0.9931	0.5659	-0.066
Mof_H 	H 	0.1712	0.8663	0.2077	0.011
Mof_H 	H 	0.2378	0.9706	0.2834	0.001
Mof_H 	H 	0.9254	0.9486	0.1834	0.133
Mof_H 	H 	0.9883	0.0399	0.2523	0.067
Mof_H 	H 	0.1155	0.7196	0.2994	0.023
Mof_H 	H 	0.0463	0.6957	0.3623	0.009
Mof_H 	H 	0.2114	0.7771	0.4789	0.091
Mof_H 	H 	0.3311	0.6924	0.384	0.081
Mof_H 	H 	0.6303	0.6495	0.1035	0.136
Mof_H 	H 	0.5448	0.2501	0.8039	0.068
Mof_H 	H 	0.657	0.2515	0.8749	0.054
Mof_H 	H 	0.6864	0.3215	0.7953	0.046
Mof_H 	H 	0.7118	0.3926	0.897	0.043
Mof_H 	H 	0.4749	0.5115	0.8083	-0.098
Mof_H 	H 	0.6651	0.4622	0.7874	-0.069
Mof_H 	H 	0.7068	0.5398	0.9462	0.435
Mof_H 	H 	0.674	0.5978	0.9152	0.364
Mof_H 	H 	0.4261	0.6368	0.9582	-0.105
Mof_H 	H 	0.4351	0.5659	0.9931	-0.071
Mof_H 	H 	0.3288	0.2077	0.8663	0.01
Mof_H 	H 	0.2622	0.2834	0.9706	-0
Mof_H 	H 	0.5746	0.1834	0.9486	0.136
Mof_H 	H 	0.5117	0.2523	0.0399	0.071
Mof_H 	H 	0.3845	0.2994	0.7196	0.023
Mof_H 	H 	0.4537	0.3623	0.6957	0.008
Mof_H 	H 	0.2886	0.4789	0.7771	0.091
Mof_H 	H 	0.1689	0.384	0.6924	0.081
Mof_H 	H 	0.1303	0.8965	0.3505	0.136
Mof_H 	H 	0.0448	0.1961	0.7499	0.068
Mof_H 	H 	0.157	0.1251	0.7485	0.054
Mof_H 	H 	0.1864	0.2047	0.6785	0.046
Mof_H 	H 	0.2118	0.103	0.6074	0.043
Mof_H 	H 	0.9749	0.1917	0.4885	-0.096
Mof_H 	H 	0.1651	0.2126	0.5378	-0.066
Mof_H 	H 	0.2068	0.0538	0.4602	0.424
Mof_H 	H 	0.174	0.0848	0.4022	0.354
Mof_H 	H 	0.9261	0.0418	0.3632	-0.1
Mof_H 	H 	0.9351	0.0069	0.4341	-0.066
Mof_H 	H 	0.8288	0.1337	0.7923	0.011
Mof_H 	H 	0.7622	0.0294	0.7166	0.001
Mof_H 	H 	0.0746	0.0514	0.8166	0.133
Mof_H 	H 	0.0117	0.9601	0.7477	0.067
Mof_H 	H 	0.8845	0.2804	0.7006	0.023
Mof_H 	H 	0.9537	0.3043	0.6377	0.009
Mof_H 	H 	0.7886	0.2229	0.5211	0.091
Mof_H 	H 	0.6689	0.3076	0.616	0.081
Mof_H 	H 	0.3697	0.3505	0.8965	0.136
Mof_H 	H 	0.4552	0.7499	0.1961	0.068
Mof_H 	H 	0.343	0.7485	0.1251	0.054
Mof_H 	H 	0.3136	0.6785	0.2047	0.046
Mof_H 	H 	0.2882	0.6074	0.103	0.043
Mof_H 	H 	0.5251	0.4885	0.1917	-0.098
Mof_H 	H 	0.3349	0.5378	0.2126	-0.069
Mof_H 	H 	0.2932	0.4602	0.0538	0.435
Mof_H 	H 	0.326	0.4022	0.0848	0.364
Mof_H 	H 	0.5739	0.3632	0.0418	-0.105
Mof_H 	H 	0.5649	0.4341	0.0069	-0.071
Mof_H 	H 	0.6712	0.7923	0.1337	0.01
Mof_H 	H 	0.7378	0.7166	0.0294	-0
Mof_H 	H 	0.4254	0.8166	0.0514	0.136
Mof_H 	H 	0.4883	0.7477	0.9601	0.071
Mof_H 	H 	0.6155	0.7006	0.2804	0.023
Mof_H 	H 	0.5463	0.6377	0.3043	0.008
Mof_H 	H 	0.7114	0.5211	0.2229	0.091
Mof_H 	H 	0.8311	0.616	0.3076	0.081
Mof_C 	C 	0.072	0.137	0.715	-0.086
Mof_C 	C 	0.128	0.1565	0.6461	-0.038
Mof_C 	C 	0.068	0.1694	0.5114	0.361
Mof_C 	C 	0.13	0.0789	0.4431	-0.983
Mof_C 	C 	0.996	0.0179	0.3949	0.377
Mof_C 	C 	0.866	0.0679	0.7465	0.091
Mof_C 	C 	0.976	0.0266	0.7954	-0.362
Mof_C 	C 	0.8961	0.028	0.8686	0.457
Mof_C 	C 	0.105	0.7518	0.3674	0.039
Mof_C 	C 	0.268	0.7574	0.4184	-0.24
Mof_C 	C 	0.366	0.827	0.4236	0.349
Mof_C 	C 	0.428	0.715	0.137	-0.085
Mof_C 	C 	0.372	0.6461	0.1565	-0.039
Mof_C 	C 	0.432	0.5114	0.1694	0.372
Mof_C 	C 	0.37	0.4431	0.0789	-1.012
Mof_C 	C 	0.504	0.3949	0.0179	0.395
Mof_C 	C 	0.634	0.7465	0.0679	0.094
Mof_C 	C 	0.524	0.7954	0.0266	-0.369
Mof_C 	C 	0.6039	0.8686	0.028	0.459
Mof_C 	C 	0.395	0.3674	0.7518	0.04
Mof_C 	C 	0.232	0.4184	0.7574	-0.241
Mof_C 	C 	0.134	0.4236	0.827	0.35
Mof_C 	C 	0.928	0.863	0.285	-0.086
Mof_C 	C 	0.872	0.8435	0.3539	-0.038
Mof_C 	C 	0.932	0.8306	0.4886	0.361
Mof_C 	C 	0.87	0.9211	0.5569	-0.983
Mof_C 	C 	0.004	0.9821	0.6051	0.377
Mof_C 	C 	0.134	0.9321	0.2535	0.091
Mof_C 	C 	0.024	0.9734	0.2046	-0.362
Mof_C 	C 	0.1039	0.972	0.1314	0.457
Mof_C 	C 	0.895	0.2482	0.6326	0.039
Mof_C 	C 	0.732	0.2426	0.5816	-0.24
Mof_C 	C 	0.634	0.173	0.5764	0.349
Mof_C 	C 	0.572	0.285	0.863	-0.085
Mof_C 	C 	0.628	0.3539	0.8435	-0.039
Mof_C 	C 	0.568	0.4886	0.8306	0.372
Mof_C 	C 	0.63	0.5569	0.9211	-1.012
Mof_C 	C 	0.496	0.6051	0.9821	0.395
Mof_C 	C 	0.366	0.2535	0.9321	0.094
Mof_C 	C 	0.476	0.2046	0.9734	-0.369
Mof_C 	C 	0.3961	0.1314	0.972	0.459
Mof_C 	C 	0.605	0.6326	0.2482	0.04
Mof_C 	C 	0.768	0.5816	0.2426	-0.241
Mof_C 	C 	0.866	0.5764	0.173	0.35
Mof_N 	N 	0.9459	0.0715	0.6747	-0.208
Mof_N 	N 	0.001	0.1676	0.5866	-0.149
Mof_N 	N 	0.5541	0.6747	0.0715	-0.211
Mof_N 	N 	0.499	0.5866	0.1676	-0.15
Mof_N 	N 	0.0541	0.9285	0.3253	-0.208
Mof_N 	N 	0.999	0.8324	0.4134	-0.149
Mof_N 	N 	0.4459	0.3253	0.9285	-0.211
Mof_N 	N 	0.501	0.4134	0.8324	-0.15
Mof_O 	O 	0.9851	0.0094	0.9254	-0.693
Mof_O 	O 	0.2498	0.9579	0.1251	-0.496
Mof_O 	O 	0.3299	0.8602	0.372	-0.286
Mof_O 	O 	0.486	0.8463	0.4787	-0.281
Mof_O 	O 	0.5149	0.9254	0.0094	-0.694
Mof_O 	O 	0.2502	0.1251	0.9579	-0.497
Mof_O 	O 	0.1701	0.372	0.8602	-0.287
Mof_O 	O 	0.014	0.4787	0.8463	-0.283
Mof_O 	O 	0.0149	0.9906	0.0746	-0.693
Mof_O 	O 	0.7502	0.0421	0.8749	-0.496
Mof_O 	O 	0.6701	0.1398	0.628	-0.286
Mof_O 	O 	0.514	0.1537	0.5213	-0.281
Mof_O 	O 	0.4851	0.0746	0.9906	-0.694
Mof_O 	O 	0.7498	0.8749	0.0421	-0.497
Mof_O 	O 	0.8299	0.628	0.1398	-0.287
Mof_O 	O 	0.986	0.5213	0.1537	-0.283
_end
