data_functionalizedCrystal
_audit_creation_method	'EQeq! by Chris Wilmer'
_symmetry_space_group_name_H-M	'P1'
_symmetry_Int_Tables_number	1
_symmetry_cell_setting	triclinic
loop_
_symmetry_equiv_pos_as_xyz
  x,y,z
_cell_length_a	16.139
_cell_length_b	16.483
_cell_length_c	16.483
_cell_angle_alpha	76.1328
_cell_angle_beta	60.688
_cell_angle_gamma	60.6881
loop_
_atom_site_label
_atom_site_type_symbol
_atom_site_fract_x
_atom_site_fract_y
_atom_site_fract_z
_atom_site_charge
Mof_Eu	Eu	0.585	0.62099	0.03199	1.971
Mof_Eu	Eu	0.14972	0.97624	0.3866	2.105
Mof_Eu	Eu	0.73797	0.87901	0.46801	1.977
Mof_Eu	Eu	0.01256	0.52376	0.1134	2.099
Mof_Eu	Eu	0.61698	0.96801	0.121	1.957
Mof_Eu	Eu	0.53632	0.6134	0.47624	2.149
Mof_Eu	Eu	0.20599	0.53199	0.379	1.973
Mof_Eu	Eu	0.12596	0.8866	0.02376	2.064
Mof_Eu	Eu	0.415	0.37901	0.96801	1.971
Mof_Eu	Eu	0.85028	0.02376	0.6134	2.105
Mof_Eu	Eu	0.26203	0.12099	0.53199	1.977
Mof_Eu	Eu	0.98744	0.47624	0.8866	2.099
Mof_Eu	Eu	0.38302	0.03199	0.879	1.957
Mof_Eu	Eu	0.46368	0.3866	0.52376	2.149
Mof_Eu	Eu	0.79401	0.46801	0.621	1.973
Mof_Eu	Eu	0.87404	0.1134	0.97624	2.064
Mof_H 	H 	0.3112	0.7469	0.2495	-0.066
Mof_H 	H 	0.482	0.602	0.282	-0.078
Mof_H 	H 	0.8076	0.7531	0.2505	-0.066
Mof_H 	H 	0.866	0.898	0.218	-0.075
Mof_H 	H 	0.5607	0.7505	0.2469	-0.066
Mof_H 	H 	0.764	0.718	0.102	-0.076
Mof_H 	H 	0.0581	0.7495	0.2531	-0.071
Mof_H 	H 	0.084	0.782	0.398	-0.081
Mof_H 	H 	0.6888	0.2531	0.7505	-0.066
Mof_H 	H 	0.518	0.398	0.718	-0.078
Mof_H 	H 	0.1924	0.2469	0.7495	-0.066
Mof_H 	H 	0.134	0.102	0.782	-0.075
Mof_H 	H 	0.4393	0.2495	0.7531	-0.066
Mof_H 	H 	0.236	0.282	0.898	-0.076
Mof_H 	H 	0.9419	0.2505	0.7469	-0.071
Mof_H 	H 	0.916	0.218	0.602	-0.081
Mof_C 	C 	0.3476	0.7833	0.2231	0.164
Mof_C 	C 	0.3888	0.8942	0.2024	-0.079
Mof_C 	C 	0.4647	0.8292	0.132	-0.104
Mof_C 	C 	0.3704	0.9845	0.2241	0.386
Mof_C 	C 	0.5654	0.8216	0.0526	0.421
Mof_C 	C 	0.5532	0.5869	0.2589	0.161
Mof_C 	C 	0.7151	0.5575	0.1631	-0.063
Mof_C 	C 	0.703	0.5494	0.2532	-0.093
Mof_C 	C 	0.8018	0.5467	0.0701	0.379
Mof_C 	C 	0.7745	0.5316	0.2942	0.443
Mof_C 	C 	0.854	0.7167	0.2769	0.166
Mof_C 	C 	0.9854	0.6058	0.2976	-0.074
Mof_C 	C 	0.9259	0.6708	0.368	-0.104
Mof_C 	C 	0.079	0.5155	0.2759	0.407
Mof_C 	C 	0.9396	0.6784	0.4474	0.436
Mof_C 	C 	0.899	0.9131	0.2411	0.163
Mof_C 	C 	0.9357	0.9425	0.3369	-0.029
Mof_C 	C 	0.0056	0.9506	0.2468	-0.141
Mof_C 	C 	0.9186	0.9533	0.4299	0.37
Mof_C 	C 	0.1003	0.9684	0.2058	0.456
Mof_C 	C 	0.5707	0.7769	0.2833	0.165
Mof_C 	C 	0.5912	0.7976	0.3942	-0.088
Mof_C 	C 	0.5967	0.868	0.3292	-0.1
Mof_C 	C 	0.5945	0.7759	0.4845	0.42
Mof_C 	C 	0.618	0.9474	0.3216	0.421
Mof_C 	C 	0.8121	0.7411	0.0869	0.161
Mof_C 	C 	0.8782	0.8369	0.0575	-0.068
Mof_C 	C 	0.9562	0.7468	0.0494	-0.068
Mof_C 	C 	0.8719	0.9299	0.0467	0.382
Mof_C 	C 	0.0687	0.7058	0.0316	0.416
Mof_C 	C 	0.1309	0.7231	0.2167	0.164
Mof_C 	C 	0.283	0.7024	0.1058	-0.078
Mof_C 	C 	0.2939	0.632	0.1708	-0.104
Mof_C 	C 	0.3549	0.7241	0.0155	0.39
Mof_C 	C 	0.387	0.5526	0.1784	0.427
Mof_C 	C 	0.1401	0.7589	0.4131	0.16
Mof_C 	C 	0.2726	0.6631	0.4425	-0.066
Mof_C 	C 	0.2524	0.7532	0.4506	-0.094
Mof_C 	C 	0.3485	0.5701	0.4533	0.381
Mof_C 	C 	0.3061	0.7942	0.4684	0.446
Mof_C 	C 	0.6524	0.2167	0.7769	0.164
Mof_C 	C 	0.6112	0.1058	0.7976	-0.079
Mof_C 	C 	0.5353	0.1708	0.868	-0.104
Mof_C 	C 	0.6296	0.0155	0.7759	0.386
Mof_C 	C 	0.4346	0.1784	0.9474	0.421
Mof_C 	C 	0.4468	0.4131	0.7411	0.161
Mof_C 	C 	0.2849	0.4425	0.8369	-0.063
Mof_C 	C 	0.297	0.4506	0.7468	-0.093
Mof_C 	C 	0.1982	0.4533	0.9299	0.379
Mof_C 	C 	0.2255	0.4684	0.7058	0.443
Mof_C 	C 	0.146	0.2833	0.7231	0.166
Mof_C 	C 	0.0146	0.3942	0.7024	-0.074
Mof_C 	C 	0.0741	0.3292	0.632	-0.104
Mof_C 	C 	0.921	0.4845	0.7241	0.407
Mof_C 	C 	0.0604	0.3216	0.5526	0.436
Mof_C 	C 	0.101	0.0869	0.7589	0.163
Mof_C 	C 	0.0643	0.0575	0.6631	-0.029
Mof_C 	C 	0.9944	0.0494	0.7532	-0.141
Mof_C 	C 	0.0814	0.0467	0.5701	0.37
Mof_C 	C 	0.8997	0.0316	0.7942	0.456
Mof_C 	C 	0.4293	0.2231	0.7167	0.165
Mof_C 	C 	0.4088	0.2024	0.6058	-0.088
Mof_C 	C 	0.4033	0.132	0.6708	-0.1
Mof_C 	C 	0.4055	0.2241	0.5155	0.42
Mof_C 	C 	0.382	0.0526	0.6784	0.421
Mof_C 	C 	0.1879	0.2589	0.9131	0.161
Mof_C 	C 	0.1218	0.1631	0.9425	-0.068
Mof_C 	C 	0.0438	0.2532	0.9506	-0.068
Mof_C 	C 	0.1281	0.0701	0.9533	0.382
Mof_C 	C 	0.9313	0.2942	0.9684	0.416
Mof_C 	C 	0.8691	0.2769	0.7833	0.164
Mof_C 	C 	0.717	0.2976	0.8942	-0.078
Mof_C 	C 	0.7061	0.368	0.8292	-0.104
Mof_C 	C 	0.6451	0.2759	0.9845	0.39
Mof_C 	C 	0.613	0.4474	0.8216	0.427
Mof_C 	C 	0.8599	0.2411	0.5869	0.16
Mof_C 	C 	0.7274	0.3369	0.5575	-0.066
Mof_C 	C 	0.7476	0.2468	0.5494	-0.094
Mof_C 	C 	0.6515	0.4299	0.5467	0.381
Mof_C 	C 	0.6939	0.2058	0.5316	0.446
Mof_N 	N 	0.4381	0.7587	0.1451	-0.248
Mof_N 	N 	0.3129	0.8636	0.2606	-0.255
Mof_N 	N 	0.6176	0.5819	0.1681	-0.285
Mof_N 	N 	0.5995	0.5682	0.3138	-0.277
Mof_N 	N 	0.8419	0.7413	0.3549	-0.247
Mof_N 	N 	0.9371	0.6364	0.2394	-0.251
Mof_N 	N 	0.8676	0.9181	0.3319	-0.289
Mof_N 	N 	0.9815	0.9318	0.1862	-0.251
Mof_N 	N 	0.5832	0.8549	0.2587	-0.249
Mof_N 	N 	0.5735	0.7394	0.3636	-0.255
Mof_N 	N 	0.7857	0.8319	0.0819	-0.282
Mof_N 	N 	0.9133	0.6862	0.0682	-0.273
Mof_N 	N 	0.1968	0.6451	0.2413	-0.249
Mof_N 	N 	0.1765	0.7606	0.1364	-0.254
Mof_N 	N 	0.1995	0.6681	0.4181	-0.285
Mof_N 	N 	0.1677	0.8138	0.4318	-0.276
Mof_N 	N 	0.5619	0.2413	0.8549	-0.248
Mof_N 	N 	0.6871	0.1364	0.7394	-0.255
Mof_N 	N 	0.3824	0.4181	0.8319	-0.285
Mof_N 	N 	0.4005	0.4318	0.6862	-0.277
Mof_N 	N 	0.1581	0.2587	0.6451	-0.247
Mof_N 	N 	0.0629	0.3636	0.7606	-0.251
Mof_N 	N 	0.1324	0.0819	0.6681	-0.289
Mof_N 	N 	0.0185	0.0682	0.8138	-0.251
Mof_N 	N 	0.4168	0.1451	0.7413	-0.249
Mof_N 	N 	0.4265	0.2606	0.6364	-0.255
Mof_N 	N 	0.2143	0.1681	0.9181	-0.282
Mof_N 	N 	0.0867	0.3138	0.9318	-0.273
Mof_N 	N 	0.8032	0.3549	0.7587	-0.249
Mof_N 	N 	0.8235	0.2394	0.8636	-0.254
Mof_N 	N 	0.8005	0.3319	0.5819	-0.285
Mof_N 	N 	0.8323	0.1862	0.5682	-0.276
Mof_O 	O 	0.6093	0.7595	0.9933	-0.536
Mof_O 	O 	0.605	0.873	0.0458	-0.559
Mof_O 	O 	0.28261	0.02889	0.29289	-0.526
Mof_O 	O 	0.436	0.0176	0.1794	-0.546
Mof_O 	O 	0.7296	0.5428	0.3812	-0.522
Mof_O 	O 	0.8704	0.5054	0.2444	-0.568
Mof_O 	O 	0.78001	0.56773	0.00165	-0.568
Mof_O 	O 	0.89845	0.51447	0.05523	-0.643
Mof_O 	O 	0.8621	0.7405	0.5067	-0.544
Mof_O 	O 	0.0238	0.627	0.4542	-0.568
Mof_O 	O 	0.10439	0.47111	0.20711	-0.544
Mof_O 	O 	0.133	0.4824	0.3206	-0.564
Mof_O 	O 	0.1536	0.9572	0.1188	-0.529
Mof_O 	O 	0.1202	0.9946	0.2556	-0.584
Mof_O 	O 	0.84939	0.93227	0.49835	-0.569
Mof_O 	O 	0.96815	0.98553	0.44477	-0.638
Mof_O 	O 	0.6026	0.0067	0.2595	-0.537
Mof_O 	O 	0.6508	0.9542	0.373	-0.56
Mof_O 	O 	0.5755	0.70711	0.52889	-0.55
Mof_O 	O 	0.6154	0.8206	0.5176	-0.567
Mof_O 	O 	0.1108	0.6188	0.0428	-0.518
Mof_O 	O 	0.1148	0.7556	0.0054	-0.57
Mof_O 	O 	0.78166	0.99835	0.06773	-0.568
Mof_O 	O 	0.95368	0.94477	0.01447	-0.632
Mof_O 	O 	0.3688	0.4933	0.2405	-0.543
Mof_O 	O 	0.478	0.5458	0.127	-0.56
Mof_O 	O 	0.3115	0.79289	0.97111	-0.519
Mof_O 	O 	0.4536	0.6794	0.9824	-0.551
Mof_O 	O 	0.2724	0.8812	0.4572	-0.523
Mof_O 	O 	0.3758	0.7444	0.4946	-0.578
Mof_O 	O 	0.34774	0.50165	0.43227	-0.578
Mof_O 	O 	0.41292	0.55523	0.48553	-0.66
Mof_O 	O 	0.3907	0.2405	0.0067	-0.536
Mof_O 	O 	0.395	0.127	0.9542	-0.559
Mof_O 	O 	0.71739	0.97111	0.70711	-0.526
Mof_O 	O 	0.564	0.9824	0.8206	-0.546
Mof_O 	O 	0.2704	0.4572	0.6188	-0.522
Mof_O 	O 	0.1296	0.4946	0.7556	-0.568
Mof_O 	O 	0.21999	0.43227	0.99835	-0.568
Mof_O 	O 	0.10155	0.48553	0.94477	-0.643
Mof_O 	O 	0.1379	0.2595	0.4933	-0.544
Mof_O 	O 	0.9762	0.373	0.5458	-0.568
Mof_O 	O 	0.89561	0.52889	0.79289	-0.544
Mof_O 	O 	0.867	0.5176	0.6794	-0.564
Mof_O 	O 	0.8464	0.0428	0.8812	-0.529
Mof_O 	O 	0.8798	0.0054	0.7444	-0.584
Mof_O 	O 	0.15061	0.06773	0.50165	-0.569
Mof_O 	O 	0.03185	0.01447	0.55523	-0.638
Mof_O 	O 	0.3974	0.9933	0.7405	-0.537
Mof_O 	O 	0.3492	0.0458	0.627	-0.56
Mof_O 	O 	0.4245	0.29289	0.47111	-0.55
Mof_O 	O 	0.3846	0.1794	0.4824	-0.567
Mof_O 	O 	0.8892	0.3812	0.9572	-0.518
Mof_O 	O 	0.8852	0.2444	0.9946	-0.57
Mof_O 	O 	0.21834	0.00165	0.93227	-0.568
Mof_O 	O 	0.04632	0.05523	0.98553	-0.632
Mof_O 	O 	0.6312	0.5067	0.7595	-0.543
Mof_O 	O 	0.522	0.4542	0.873	-0.56
Mof_O 	O 	0.6885	0.20711	0.02889	-0.519
Mof_O 	O 	0.5464	0.3206	0.0176	-0.551
Mof_O 	O 	0.7276	0.1188	0.5428	-0.523
Mof_O 	O 	0.6242	0.2556	0.5054	-0.578
Mof_O 	O 	0.65226	0.49835	0.56773	-0.578
Mof_O 	O 	0.58708	0.44477	0.51447	-0.66
_end
