# CIF file generated by openbabel 3.1.0, see https://openbabel.org
data_I
_chemical_name_common 'image0'
_cell_length_a 13.495
_cell_length_b 13.495
_cell_length_c 9.396
_cell_angle_alpha 90
_cell_angle_beta 90
_cell_angle_gamma 120
_space_group_name_H-M_alt 'P 1'
_space_group_name_Hall 'P 1'
loop_
    _symmetry_equiv_pos_as_xyz
    x,y,z
loop_
    _atom_site_label
    _atom_site_type_symbol
    _atom_site_fract_x
    _atom_site_fract_y
    _atom_site_fract_z
    _atom_site_occupancy
    Fe1      Fe       0.14600    0.44080    0.90180    1.000
    P1       P        0.36770    0.49550    0.09600    1.000
    P2       P        0.03620    0.18980    0.74100    1.000
    O1       O        0.28500    0.43670    0.97160    1.000
    O2       O        0.16420    0.54400    0.06250    1.000
    O3       O        0.99490    0.42300    0.85650    1.000
    O4       O        0.11750    0.31780    0.75800    1.000
    O5       O        0.02270    0.13100    0.88490    1.000
    O6       O        0.07450    0.14210    0.62210    1.000
    O7       O        0.22720    0.55700    0.76640    1.000
    O8       O        0.29900    0.50190    0.22830    1.000
    O9       O        0.91500    0.17180    0.69920    1.000
    Fe2      Fe       0.55920    0.70520    0.90180    1.000
    P3       P        0.50450    0.87220    0.09600    1.000
    P4       P        0.81020    0.84640    0.74100    1.000
    O10      O        0.56330    0.84830    0.97160    1.000
    O11      O        0.45600    0.62020    0.06250    1.000
    O12      O        0.57700    0.57190    0.85650    1.000
    O13      O        0.68220    0.79970    0.75800    1.000
    O14      O        0.86900    0.89170    0.88490    1.000
    O15      O        0.85790    0.93240    0.62210    1.000
    O16      O        0.44300    0.67020    0.76640    1.000
    O17      O        0.49810    0.79710    0.22830    1.000
    O18      O        0.82820    0.74320    0.69920    1.000
    Fe3      Fe       0.29480    0.85400    0.90180    1.000
    P5       P        0.12780    0.63230    0.09600    1.000
    P6       P        0.15360    0.96380    0.74100    1.000
    O19      O        0.15170    0.71500    0.97160    1.000
    O20      O        0.37980    0.83580    0.06250    1.000
    O21      O        0.42810    0.00510    0.85650    1.000
    O22      O        0.20030    0.88250    0.75800    1.000
    O23      O        0.10830    0.97730    0.88490    1.000
    O24      O        0.06760    0.92550    0.62210    1.000
    O25      O        0.32980    0.77280    0.76640    1.000
    O26      O        0.20290    0.70100    0.22830    1.000
    O27      O        0.25680    0.08500    0.69920    1.000
    Fe4      Fe       0.85400    0.55920    0.09820    1.000
    P7       P        0.63230    0.50450    0.90400    1.000
    P8       P        0.96380    0.81020    0.25900    1.000
    O28      O        0.71500    0.56330    0.02840    1.000
    O29      O        0.83580    0.45600    0.93750    1.000
    O30      O        0.00510    0.57700    0.14350    1.000
    O31      O        0.88250    0.68220    0.24200    1.000
    O32      O        0.97730    0.86900    0.11510    1.000
    O33      O        0.92550    0.85790    0.37790    1.000
    O34      O        0.77280    0.44300    0.23360    1.000
    O35      O        0.70100    0.49810    0.77170    1.000
    O36      O        0.08500    0.82820    0.30080    1.000
    Fe5      Fe       0.44080    0.29480    0.09820    1.000
    P9       P        0.49550    0.12780    0.90400    1.000
    P10      P        0.18980    0.15360    0.25900    1.000
    O37      O        0.43670    0.15170    0.02840    1.000
    O38      O        0.54400    0.37980    0.93750    1.000
    O39      O        0.42300    0.42810    0.14350    1.000
    O40      O        0.31780    0.20030    0.24200    1.000
    O41      O        0.13100    0.10830    0.11510    1.000
    O42      O        0.14210    0.06760    0.37790    1.000
    O43      O        0.55700    0.32980    0.23360    1.000
    O44      O        0.50190    0.20290    0.77170    1.000
    O45      O        0.17180    0.25680    0.30080    1.000
    Fe6      Fe       0.70520    0.14600    0.09820    1.000
    P11      P        0.87220    0.36770    0.90400    1.000
    P12      P        0.84640    0.03620    0.25900    1.000
    O46      O        0.84830    0.28500    0.02840    1.000
    O47      O        0.62020    0.16420    0.93750    1.000
    O48      O        0.57190    0.99490    0.14350    1.000
    O49      O        0.79970    0.11750    0.24200    1.000
    O50      O        0.89170    0.02270    0.11510    1.000
    O51      O        0.93240    0.07450    0.37790    1.000
    O52      O        0.67020    0.22720    0.23360    1.000
    O53      O        0.79710    0.29900    0.77170    1.000
    O54      O        0.74320    0.91500    0.30080    1.000
    Fe7      Fe       0.00000    0.00000    0.50000    1.000
    Fe8      Fe       0.00000    0.00000    0.00000    1.000
    P13      P        0.33333    0.66667    0.71400    1.000
    O55      O        0.33333    0.66667    0.55100    1.000
    P14      P        0.66667    0.33333    0.28600    1.000
    O56      O        0.66667    0.33333    0.44900    1.000
