# CIF file generated by openbabel 3.1.0, see https://openbabel.org
data_I
_chemical_name_common 'image0'
_cell_length_a 9.3429
_cell_length_b 9.3429
_cell_length_c 6.9927
_cell_angle_alpha 90
_cell_angle_beta 90
_cell_angle_gamma 120
_space_group_name_H-M_alt 'P 1'
_space_group_name_Hall 'P 1'
loop_
    _symmetry_equiv_pos_as_xyz
    x,y,z
loop_
    _atom_site_label
    _atom_site_type_symbol
    _atom_site_fract_x
    _atom_site_fract_y
    _atom_site_fract_z
    _atom_site_occupancy
    Al1      Al       0.47892    0.64105    0.88953    1.000
    O1       O        0.42870    0.69850    0.12630    1.000
    H1       H        0.45060    0.64600    0.22950    1.000
    O2       O        0.57290    0.85150    0.79250    1.000
    O3       O        0.43420    0.96710    0.00280    1.000
    Al2      Al       0.35895    0.83787    0.22286    1.000
    O4       O        0.30150    0.73020    0.45963    1.000
    H2       H        0.35400    0.80460    0.56283    1.000
    O5       O        0.14850    0.72140    0.12583    1.000
    O6       O        0.03290    0.46710    0.33613    1.000
    Al3      Al       0.16213    0.52108    0.55620    1.000
    O7       O        0.26980    0.57130    0.79297    1.000
    H3       H        0.19540    0.54940    0.89617    1.000
    O8       O        0.27860    0.42710    0.45917    1.000
    O9       O        0.53290    0.56580    0.66947    1.000
    Al4      Al       0.64105    0.47892    0.11047    1.000
    O10      O        0.69850    0.42870    0.87370    1.000
    H4       H        0.64600    0.45060    0.77050    1.000
    O11      O        0.85150    0.57290    0.20750    1.000
    O12      O        0.96710    0.43420    0.99720    1.000
    Al5      Al       0.83787    0.35895    0.77714    1.000
    O13      O        0.73020    0.30150    0.54037    1.000
    H5       H        0.80460    0.35400    0.43717    1.000
    O14      O        0.72140    0.14850    0.87417    1.000
    O15      O        0.46710    0.03290    0.66387    1.000
    Al6      Al       0.52108    0.16213    0.44380    1.000
    O16      O        0.57130    0.26980    0.20703    1.000
    H6       H        0.54940    0.19540    0.10383    1.000
    O17      O        0.42710    0.27860    0.54083    1.000
    O18      O        0.56580    0.53290    0.33053    1.000
    P1       P        0.55067    0.00000    0.83333    1.000
    P2       P        0.00000    0.55067    0.16667    1.000
    P3       P        0.44933    0.44933    0.50000    1.000
    F1       F        0.68220    0.68220    0.00000    1.000
    F2       F        0.43180    0.43180    0.00000    1.000
    F3       F        0.31780    0.00000    0.33333    1.000
    F4       F        0.56820    0.00000    0.33333    1.000
    F5       F        0.00000    0.31780    0.66667    1.000
    F6       F        0.00000    0.56820    0.66667    1.000
