data_functionalizedCrystal
_audit_creation_method	'EQeq! by Chris Wilmer'
_symmetry_space_group_name_H-M	'P1'
_symmetry_Int_Tables_number	1
_symmetry_cell_setting	triclinic
loop_
_symmetry_equiv_pos_as_xyz
  x,y,z
_cell_length_a	10.8662
_cell_length_b	10.8662
_cell_length_c	19.632
_cell_angle_alpha	75.6105
_cell_angle_beta	75.6105
_cell_angle_gamma	64.4765
loop_
_atom_site_label
_atom_site_type_symbol
_atom_site_fract_x
_atom_site_fract_y
_atom_site_fract_z
_atom_site_charge
Mof_Tm	Tm	0.75436	0.0958	0.08307	1.619
Mof_Tm	Tm	0.9042	0.24564	0.41693	1.624
Mof_Tm	Tm	0.24564	0.9042	0.91693	1.62
Mof_Tm	Tm	0.0958	0.75436	0.58307	1.625
Mof_H 	H 	0.3324	0.0984	0.032	0.031
Mof_H 	H 	0.9814	0.1548	0.1725	0.027
Mof_H 	H 	0.2983	0.1923	0.2231	0.039
Mof_H 	H 	0.9016	0.6676	0.468	0.029
Mof_H 	H 	0.8452	0.0186	0.3275	0.021
Mof_H 	H 	0.8077	0.7017	0.2769	0.038
Mof_H 	H 	0.6676	0.9016	0.968	0.031
Mof_H 	H 	0.0186	0.8452	0.8275	0.027
Mof_H 	H 	0.7017	0.8077	0.7769	0.039
Mof_H 	H 	0.0984	0.3324	0.532	0.029
Mof_H 	H 	0.1548	0.9814	0.6725	0.021
Mof_H 	H 	0.1923	0.2983	0.7231	0.038
Mof_C 	C 	0.4846	0.1318	0.1079	0.347
Mof_C 	C 	0.3366	0.143	0.1254	-0.127
Mof_C 	C 	0.2813	0.1177	0.0765	0.072
Mof_C 	C 	0.1476	0.1218	0.0952	-0.176
Mof_C 	C 	0.071	0.1518	0.1608	0.069
Mof_C 	C 	0.1282	0.178	0.2104	-0.118
Mof_C 	C 	0.2598	0.174	0.1913	0.054
Mof_C 	C 	0.0448	0.2044	0.283	0.334
Mof_C 	C 	0.0849	0.0913	0.0438	0.455
Mof_C 	C 	0.8682	0.5154	0.3921	0.349
Mof_C 	C 	0.857	0.6634	0.3746	-0.13
Mof_C 	C 	0.8823	0.7187	0.4235	0.078
Mof_C 	C 	0.8782	0.8524	0.4048	-0.183
Mof_C 	C 	0.8482	0.929	0.3392	0.081
Mof_C 	C 	0.822	0.8718	0.2896	-0.123
Mof_C 	C 	0.826	0.7402	0.3087	0.058
Mof_C 	C 	0.7956	0.9552	0.217	0.34
Mof_C 	C 	0.9087	0.9151	0.4562	0.468
Mof_C 	C 	0.5154	0.8682	0.8921	0.347
Mof_C 	C 	0.6634	0.857	0.8746	-0.127
Mof_C 	C 	0.7187	0.8823	0.9235	0.072
Mof_C 	C 	0.8524	0.8782	0.9048	-0.176
Mof_C 	C 	0.929	0.8482	0.8392	0.069
Mof_C 	C 	0.8718	0.822	0.7896	-0.118
Mof_C 	C 	0.7402	0.826	0.8087	0.054
Mof_C 	C 	0.9552	0.7956	0.717	0.334
Mof_C 	C 	0.9151	0.9087	0.9562	0.455
Mof_C 	C 	0.1318	0.4846	0.6079	0.349
Mof_C 	C 	0.143	0.3366	0.6254	-0.13
Mof_C 	C 	0.1177	0.2813	0.5765	0.078
Mof_C 	C 	0.1218	0.1476	0.5952	-0.183
Mof_C 	C 	0.1518	0.071	0.6608	0.081
Mof_C 	C 	0.178	0.1282	0.7104	-0.123
Mof_C 	C 	0.174	0.2598	0.6913	0.058
Mof_C 	C 	0.2044	0.0448	0.783	0.34
Mof_C 	C 	0.0913	0.0849	0.5438	0.468
Mof_O 	O 	0.5573	0.0909	0.0528	-0.426
Mof_O 	O 	0.5294	0.1688	0.1488	-0.428
Mof_O 	O 	0.1038	0.2082	0.3302	-0.39
Mof_O 	O 	0.9232	0.2164	0.2966	-0.395
Mof_O 	O 	0.9725	0.0797	0.0663	-0.523
Mof_O 	O 	0.1497	0.0813	0.981	-0.468
Mof_O 	O 	0.9091	0.4427	0.4472	-0.426
Mof_O 	O 	0.8312	0.4706	0.3512	-0.429
Mof_O 	O 	0.7918	0.8962	0.1698	-0.389
Mof_O 	O 	0.7836	0.0768	0.2034	-0.398
Mof_O 	O 	0.9203	0.0275	0.4337	-0.528
Mof_O 	O 	0.9187	0.8503	0.519	-0.477
Mof_O 	O 	0.4427	0.9091	0.9472	-0.426
Mof_O 	O 	0.4706	0.8312	0.8512	-0.428
Mof_O 	O 	0.8962	0.7918	0.6698	-0.39
Mof_O 	O 	0.0768	0.7836	0.7034	-0.395
Mof_O 	O 	0.0275	0.9203	0.9337	-0.523
Mof_O 	O 	0.8503	0.9187	0.019	-0.468
Mof_O 	O 	0.0909	0.5573	0.5528	-0.426
Mof_O 	O 	0.1688	0.5294	0.6488	-0.429
Mof_O 	O 	0.2082	0.1038	0.8302	-0.389
Mof_O 	O 	0.2164	0.9232	0.7966	-0.398
Mof_O 	O 	0.0797	0.9725	0.5663	-0.528
Mof_O 	O 	0.0813	0.1497	0.481	-0.477
_end
