# CIF file generated by openbabel 3.1.0, see https://openbabel.org
data_I
_chemical_name_common 'image0'
_cell_length_a 13.4721
_cell_length_b 14.8138
_cell_length_c 13.4131
_cell_angle_alpha 90
_cell_angle_beta 99.142
_cell_angle_gamma 90
_space_group_name_H-M_alt 'P 1'
_space_group_name_Hall 'P 1'
loop_
    _symmetry_equiv_pos_as_xyz
    x,y,z
loop_
    _atom_site_label
    _atom_site_type_symbol
    _atom_site_fract_x
    _atom_site_fract_y
    _atom_site_fract_z
    _atom_site_occupancy
    Sm1      Sm       0.13798    0.43833    0.50818    1.000
    O1       O        0.95270    0.43860    0.57590    1.000
    O2       O        0.06710    0.33540    0.61840    1.000
    O3       O        0.00910    0.13110    0.89270    1.000
    O4       O        0.86000    0.06060    0.87540    1.000
    N1       N        0.41980    0.26790    0.55360    1.000
    C1       C        0.97920    0.36400    0.61540    1.000
    C2       C        0.90640    0.30580    0.65790    1.000
    C3       C        0.94250    0.24370    0.73260    1.000
    H1       H        0.01270    0.23960    0.75590    1.000
    C4       C        0.87680    0.18770    0.77330    1.000
    C5       C        0.77380    0.19160    0.73680    1.000
    H2       H        0.72930    0.15130    0.76270    1.000
    C6       C        0.73590    0.25390    0.66280    1.000
    C7       C        0.80330    0.31120    0.62320    1.000
    H3       H        0.77850    0.35380    0.57240    1.000
    C8       C        0.62590    0.25870    0.62350    1.000
    C9       C        0.55710    0.24440    0.68680    1.000
    H4       H        0.57920    0.23070    0.75590    1.000
    C10      C        0.45510    0.25000    0.64990    1.000
    H5       H        0.40850    0.24060    0.69520    1.000
    C11      C        0.48590    0.28040    0.49440    1.000
    H6       H        0.46190    0.29280    0.42520    1.000
    C12      C        0.58850    0.27710    0.52470    1.000
    H7       H        0.63290    0.28740    0.47750    1.000
    C13      C        0.91820    0.12050    0.85310    1.000
    O5       O        0.27980    0.42280    0.65750    1.000
    O6       O        0.31340    0.49420    0.52290    1.000
    O7       O        0.69480    0.50400    0.51610    1.000
    O8       O        0.79130    0.54500    0.65810    1.000
    C14      C        0.33770    0.46800    0.61260    1.000
    C15      C        0.44220    0.48490    0.66680    1.000
    C16      C        0.52220    0.49630    0.61410    1.000
    C17      C        0.61830    0.51180    0.66620    1.000
    C18      C        0.63450    0.51590    0.77110    1.000
    H8       H        0.70190    0.52670    0.80770    1.000
    C19      C        0.55450    0.50450    0.82380    1.000
    C20      C        0.45830    0.48900    0.77160    1.000
    H9       H        0.40250    0.48110    0.80790    1.000
    C21      C        0.57310    0.51200    0.93660    1.000
    C22      C        0.65900    0.55340    0.98710    1.000
    H10      H        0.71090    0.57500    0.95150    1.000
    N2       N        0.60790    0.52210    0.15010    1.000
    C23      C        0.67460    0.55750    0.09470    1.000
    H11      H        0.73790    0.58140    0.12830    1.000
    C24      C        0.52570    0.48250    0.09980    1.000
    H12      H        0.47570    0.46160    0.13840    1.000
    C25      C        0.50630    0.47640    0.99550    1.000
    H13      H        0.44300    0.45150    0.96330    1.000
    C26      C        0.70690    0.52410    0.60920    1.000
    O9       O        0.25610    0.39850    0.66390    1.000
    O10      O        0.43010    0.55550    0.65690    1.000
    O11      O        0.18420    0.06820    0.84680    1.000
    O12      O        0.37790    0.00000    0.82700    1.000
    Sm2      Sm       0.86202    0.93833    0.99182    1.000
    O13      O        0.04730    0.93860    0.92410    1.000
    O14      O        0.93290    0.83540    0.88160    1.000
    O15      O        0.99090    0.63110    0.60730    1.000
    O16      O        0.14000    0.56060    0.62460    1.000
    N3       N        0.58020    0.76790    0.94640    1.000
    C27      C        0.02080    0.86400    0.88460    1.000
    C28      C        0.09360    0.80580    0.84210    1.000
    C29      C        0.05750    0.74370    0.76740    1.000
    H14      H        0.98730    0.73960    0.74410    1.000
    C30      C        0.12320    0.68770    0.72670    1.000
    C31      C        0.22620    0.69160    0.76320    1.000
    H15      H        0.27070    0.65130    0.73730    1.000
    C32      C        0.26410    0.75390    0.83720    1.000
    C33      C        0.19670    0.81120    0.87680    1.000
    H16      H        0.22150    0.85380    0.92760    1.000
    C34      C        0.37410    0.75870    0.87650    1.000
    C35      C        0.44290    0.74440    0.81320    1.000
    H17      H        0.42080    0.73070    0.74410    1.000
    C36      C        0.54490    0.75000    0.85010    1.000
    H18      H        0.59150    0.74060    0.80480    1.000
    C37      C        0.51410    0.78040    0.00560    1.000
    H19      H        0.53810    0.79280    0.07480    1.000
    C38      C        0.41150    0.77710    0.97530    1.000
    H20      H        0.36710    0.78740    0.02250    1.000
    C39      C        0.08180    0.62050    0.64690    1.000
    O17      O        0.72020    0.92280    0.84250    1.000
    O18      O        0.68660    0.99420    0.97710    1.000
    O19      O        0.30520    0.00400    0.98390    1.000
    O20      O        0.20870    0.04500    0.84190    1.000
    C40      C        0.66230    0.96800    0.88740    1.000
    C41      C        0.55780    0.98490    0.83320    1.000
    C42      C        0.47780    0.99630    0.88590    1.000
    C43      C        0.38170    0.01180    0.83380    1.000
    C44      C        0.36550    0.01590    0.72890    1.000
    H21      H        0.29810    0.02670    0.69230    1.000
    C45      C        0.44550    0.00450    0.67620    1.000
    C46      C        0.54170    0.98900    0.72840    1.000
    H22      H        0.59750    0.98110    0.69210    1.000
    C47      C        0.42690    0.01200    0.56340    1.000
    C48      C        0.34100    0.05340    0.51290    1.000
    H23      H        0.28910    0.07500    0.54850    1.000
    N4       N        0.39210    0.02210    0.34990    1.000
    C49      C        0.32540    0.05750    0.40530    1.000
    H24      H        0.26210    0.08140    0.37170    1.000
    C50      C        0.47430    0.98250    0.40020    1.000
    H25      H        0.52430    0.96160    0.36160    1.000
    C51      C        0.49370    0.97640    0.50450    1.000
    H26      H        0.55700    0.95150    0.53670    1.000
    C52      C        0.29310    0.02410    0.89080    1.000
    O21      O        0.74390    0.89850    0.83610    1.000
    O22      O        0.56990    0.05550    0.84310    1.000
    O23      O        0.81580    0.56820    0.65320    1.000
    O24      O        0.62210    0.50000    0.67300    1.000
    Sm3      Sm       0.86202    0.56167    0.49182    1.000
    O25      O        0.04730    0.56140    0.42410    1.000
    O26      O        0.93290    0.66460    0.38160    1.000
    O27      O        0.99090    0.86890    0.10730    1.000
    O28      O        0.14000    0.93940    0.12460    1.000
    N5       N        0.58020    0.73210    0.44640    1.000
    C53      C        0.02080    0.63600    0.38460    1.000
    C54      C        0.09360    0.69420    0.34210    1.000
    C55      C        0.05750    0.75630    0.26740    1.000
    H27      H        0.98730    0.76040    0.24410    1.000
    C56      C        0.12320    0.81230    0.22670    1.000
    C57      C        0.22620    0.80840    0.26320    1.000
    H28      H        0.27070    0.84870    0.23730    1.000
    C58      C        0.26410    0.74610    0.33720    1.000
    C59      C        0.19670    0.68880    0.37680    1.000
    H29      H        0.22150    0.64620    0.42760    1.000
    C60      C        0.37410    0.74130    0.37650    1.000
    C61      C        0.44290    0.75560    0.31320    1.000
    H30      H        0.42080    0.76930    0.24410    1.000
    C62      C        0.54490    0.75000    0.35010    1.000
    H31      H        0.59150    0.75940    0.30480    1.000
    C63      C        0.51410    0.71960    0.50560    1.000
    H32      H        0.53810    0.70720    0.57480    1.000
    C64      C        0.41150    0.72290    0.47530    1.000
    H33      H        0.36710    0.71260    0.52250    1.000
    C65      C        0.08180    0.87950    0.14690    1.000
    O29      O        0.72020    0.57720    0.34250    1.000
    O30      O        0.68660    0.50580    0.47710    1.000
    O31      O        0.30520    0.49600    0.48390    1.000
    O32      O        0.20870    0.45500    0.34190    1.000
    C66      C        0.66230    0.53200    0.38740    1.000
    C67      C        0.55780    0.51510    0.33320    1.000
    C68      C        0.47780    0.50370    0.38590    1.000
    C69      C        0.38170    0.48820    0.33380    1.000
    C70      C        0.36550    0.48410    0.22890    1.000
    H34      H        0.29810    0.47330    0.19230    1.000
    C71      C        0.44550    0.49550    0.17620    1.000
    C72      C        0.54170    0.51100    0.22840    1.000
    H35      H        0.59750    0.51890    0.19210    1.000
    C73      C        0.42690    0.48800    0.06340    1.000
    C74      C        0.34100    0.44660    0.01290    1.000
    H36      H        0.28910    0.42500    0.04850    1.000
    N6       N        0.39210    0.47790    0.84990    1.000
    C75      C        0.32540    0.44250    0.90530    1.000
    H37      H        0.26210    0.41860    0.87170    1.000
    C76      C        0.47430    0.51750    0.90020    1.000
    H38      H        0.52430    0.53840    0.86160    1.000
    C77      C        0.49370    0.52360    0.00450    1.000
    H39      H        0.55700    0.54850    0.03670    1.000
    C78      C        0.29310    0.47590    0.39080    1.000
    O33      O        0.74390    0.60150    0.33610    1.000
    O34      O        0.56990    0.44450    0.34310    1.000
    O35      O        0.81580    0.93180    0.15320    1.000
    O36      O        0.62210    0.00000    0.17300    1.000
    Sm4      Sm       0.13798    0.06167    0.00818    1.000
    O37      O        0.95270    0.06140    0.07590    1.000
    O38      O        0.06710    0.16460    0.11840    1.000
    O39      O        0.00910    0.36890    0.39270    1.000
    O40      O        0.86000    0.43940    0.37540    1.000
    N7       N        0.41980    0.23210    0.05360    1.000
    C79      C        0.97920    0.13600    0.11540    1.000
    C80      C        0.90640    0.19420    0.15790    1.000
    C81      C        0.94250    0.25630    0.23260    1.000
    H40      H        0.01270    0.26040    0.25590    1.000
    C82      C        0.87680    0.31230    0.27330    1.000
    C83      C        0.77380    0.30840    0.23680    1.000
    H41      H        0.72930    0.34870    0.26270    1.000
    C84      C        0.73590    0.24610    0.16280    1.000
    C85      C        0.80330    0.18880    0.12320    1.000
    H42      H        0.77850    0.14620    0.07240    1.000
    C86      C        0.62590    0.24130    0.12350    1.000
    C87      C        0.55710    0.25560    0.18680    1.000
    H43      H        0.57920    0.26930    0.25590    1.000
    C88      C        0.45510    0.25000    0.14990    1.000
    H44      H        0.40850    0.25940    0.19520    1.000
    C89      C        0.48590    0.21960    0.99440    1.000
    H45      H        0.46190    0.20720    0.92520    1.000
    C90      C        0.58850    0.22290    0.02470    1.000
    H46      H        0.63290    0.21260    0.97750    1.000
    C91      C        0.91820    0.37950    0.35310    1.000
    O41      O        0.27980    0.07720    0.15750    1.000
    O42      O        0.31340    0.00580    0.02290    1.000
    O43      O        0.69480    0.99600    0.01610    1.000
    O44      O        0.79130    0.95500    0.15810    1.000
    C92      C        0.33770    0.03200    0.11260    1.000
    C93      C        0.44220    0.01510    0.16680    1.000
    C94      C        0.52220    0.00370    0.11410    1.000
    C95      C        0.61830    0.98820    0.16620    1.000
    C96      C        0.63450    0.98410    0.27110    1.000
    H47      H        0.70190    0.97330    0.30770    1.000
    C97      C        0.55450    0.99550    0.32380    1.000
    C98      C        0.45830    0.01100    0.27160    1.000
    H48      H        0.40250    0.01890    0.30790    1.000
    C99      C        0.57310    0.98800    0.43660    1.000
    C100     C        0.65900    0.94660    0.48710    1.000
    H49      H        0.71090    0.92500    0.45150    1.000
    N8       N        0.60790    0.97790    0.65010    1.000
    C101     C        0.67460    0.94250    0.59470    1.000
    H50      H        0.73790    0.91860    0.62830    1.000
    C102     C        0.52570    0.01750    0.59980    1.000
    H51      H        0.47570    0.03840    0.63840    1.000
    C103     C        0.50630    0.02360    0.49550    1.000
    H52      H        0.44300    0.04850    0.46330    1.000
    C104     C        0.70690    0.97590    0.10920    1.000
    O45      O        0.25610    0.10150    0.16390    1.000
    O46      O        0.43010    0.94450    0.15690    1.000
    O47      O        0.18420    0.43180    0.34680    1.000
    O48      O        0.37790    0.50000    0.32700    1.000
