# CIF file generated by openbabel 3.1.0, see https://openbabel.org
data_I
_chemical_name_common 'image0'
_cell_length_a 16.9847
_cell_length_b 24.2343
_cell_length_c 36.286
_cell_angle_alpha 90
_cell_angle_beta 90
_cell_angle_gamma 90
_space_group_name_H-M_alt 'P 1'
_space_group_name_Hall 'P 1'
loop_
    _symmetry_equiv_pos_as_xyz
    x,y,z
loop_
    _atom_site_label
    _atom_site_type_symbol
    _atom_site_fract_x
    _atom_site_fract_y
    _atom_site_fract_z
    _atom_site_occupancy
    Ce1      Ce       0.43198    0.06074    0.02082    1.000
    Ce2      Ce       0.60937    0.20105    0.14065    1.000
    Ce3      Ce       0.89170    0.09575    0.23973    1.000
    O1       O        0.34010    0.09600    0.97330    1.000
    O2       O        0.27950    0.16260    0.94220    1.000
    O3       O        0.52200    0.11860    0.05770    1.000
    O4       O        0.56700    0.19930    0.07770    1.000
    O5       O        0.41890    0.33400    0.99540    1.000
    H1       H        0.39430    0.34190    0.97600    1.000
    O6       O        0.44460    0.98880    0.97490    1.000
    O7       O        0.73440    0.21400    0.17340    1.000
    O8       O        0.78190    0.14310    0.20490    1.000
    O9       O        0.98850    0.14660    0.27800    1.000
    O10      O        0.03540    0.22310    0.30400    1.000
    O11      O        0.89170    0.37250    0.23110    1.000
    H2       H        0.93500    0.38420    0.23910    1.000
    O12      O        0.91290    0.04620    0.30320    1.000
    H3       H        0.96220    0.03720    0.30550    1.000
    H4       H        0.88400    0.01650    0.30400    1.000
    O13      O        0.74920    0.06890    0.23270    1.000
    H5       H        0.74000    0.03970    0.24610    1.000
    H6       H        0.73950    0.06150    0.20970    1.000
    O14      O        0.88440    0.05150    0.17740    1.000
    H7       H        0.83720    0.05560    0.16850    1.000
    H8       H        0.89480    0.01650    0.17960    1.000
    N1       N        0.42950    0.16520    0.00950    1.000
    N2       N        0.88950    0.20280    0.23720    1.000
    C1       C        0.32870    0.14650    0.96450    1.000
    C2       C        0.37940    0.18780    0.98530    1.000
    C3       C        0.37320    0.24400    0.97910    1.000
    H9       H        0.33730    0.25820    0.96140    1.000
    C4       C        0.42120    0.27890    0.99950    1.000
    C5       C        0.47290    0.25580    0.02560    1.000
    H10      H        0.50590    0.27840    0.04040    1.000
    C6       C        0.47330    0.19900    0.02880    1.000
    C7       C        0.52570    0.17130    0.05680    1.000
    C8       C        0.78620    0.19410    0.19410    1.000
    C9       C        0.83950    0.22960    0.21530    1.000
    C10      C        0.83790    0.28640    0.21200    1.000
    H11      H        0.80320    0.30430    0.19520    1.000
    C11      C        0.88920    0.31610    0.23430    1.000
    C12      C        0.93860    0.28890    0.25840    1.000
    H12      H        0.97280    0.30860    0.27440    1.000
    C13      C        0.93630    0.23220    0.25840    1.000
    C14      C        0.99130    0.20000    0.28200    1.000
    W1       W        0.56758    0.13550    0.93302    1.000
    W2       W        0.67805    0.24659    0.97267    1.000
    W3       W        0.77972    0.13533    0.92791    1.000
    W4       W        0.56222    0.12074    0.84033    1.000
    W5       W        0.46315    0.22469    0.88089    1.000
    W6       W        0.56870    0.33651    0.92323    1.000
    W7       W        0.76830    0.34072    0.91867    1.000
    W8       W        0.87443    0.23004    0.87578    1.000
    W9       W        0.77397    0.12584    0.83508    1.000
    W10      W        0.65699    0.21997    0.78160    1.000
    W11      W        0.56259    0.32429    0.82485    1.000
    W12      W        0.76119    0.32324    0.82038    1.000
    O15      O        0.52880    0.09070    0.96440    1.000
    O16      O        0.82820    0.39210    0.93430    1.000
    O17      O        0.97310    0.24010    0.87270    1.000
    O18      O        0.50060    0.37070    0.80350    1.000
    O19      O        0.81550    0.37020    0.79590    1.000
    O20      O        0.59830    0.19500    0.96200    1.000
    O21      O        0.67310    0.11300    0.93110    1.000
    O22      O        0.54950    0.09150    0.88910    1.000
    O23      O        0.47080    0.17370    0.92070    1.000
    O24      O        0.59680    0.30360    0.96840    1.000
    O25      O        0.75220    0.30550    0.96570    1.000
    O26      O        0.75270    0.19460    0.95950    1.000
    O27      O        0.87140    0.17680    0.91430    1.000
    O28      O        0.79120    0.09410    0.88410    1.000
    O29      O        0.46640    0.16280    0.84830    1.000
    O30      O        0.58510    0.16930    0.80140    1.000
    O31      O        0.66790    0.10090    0.84110    1.000
    O32      O        0.49200    0.27090    0.84190    1.000
    O33      O        0.49560    0.28170    0.91350    1.000
    O34      O        0.66920    0.37580    0.92500    1.000
    O35      O        0.57050    0.35290    0.87170    1.000
    O36      O        0.84250    0.28460    0.90830    1.000
    O37      O        0.76250    0.35480    0.86780    1.000
    O38      O        0.86610    0.16830    0.84150    1.000
    O39      O        0.83770    0.27290    0.83600    1.000
    O40      O        0.73880    0.17150    0.79740    1.000
    O41      O        0.58100    0.27780    0.78220    1.000
    O42      O        0.73620    0.27760    0.77920    1.000
    O43      O        0.66110    0.35870    0.81280    1.000
    B1       B        0.66940    0.22990    0.87780    1.000
    O44      O        0.59710    0.19260    0.88150    1.000
    O45      O        0.67010    0.27200    0.90940    1.000
    O46      O        0.74410    0.19430    0.87850    1.000
    O47      O        0.66520    0.26230    0.84130    1.000
    O48      O        0.81310    0.14310    0.18930    1.000
    O49      O        0.85710    0.01440    0.28390    1.000
    H13      H        0.85860    0.98340    0.27180    1.000
    H14      H        0.81020    0.01930    0.29290    1.000
    O50      O        0.78210    0.02690    0.24610    1.000
    H15      H        0.79110    0.99900    0.23160    1.000
    H16      H        0.73800    0.04260    0.23980    1.000
    O51      O        0.88300    0.03010    0.18650    1.000
    H17      H        0.83510    0.01750    0.18470    1.000
    H18      H        0.91520    0.00290    0.19020    1.000
    O52      O        0.59500    0.26480    0.87650    1.000
    O53      O        0.67400    0.19910    0.91480    1.000
    O54      O        0.74300    0.26840    0.87380    1.000
    O55      O        0.67000    0.18850    0.84570    1.000
    Ce4      Ce       0.06802    0.93926    0.52082    1.000
    Ce5      Ce       0.89063    0.79895    0.64065    1.000
    Ce6      Ce       0.60830    0.90425    0.73973    1.000
    O56      O        0.15990    0.90400    0.47330    1.000
    O57      O        0.22050    0.83740    0.44220    1.000
    O58      O        0.97800    0.88140    0.55770    1.000
    O59      O        0.93300    0.80070    0.57770    1.000
    O60      O        0.08110    0.66600    0.49540    1.000
    H19      H        0.10570    0.65810    0.47600    1.000
    O61      O        0.05540    0.01120    0.47490    1.000
    O62      O        0.76560    0.78600    0.67340    1.000
    O63      O        0.71810    0.85690    0.70490    1.000
    O64      O        0.51150    0.85340    0.77800    1.000
    O65      O        0.46460    0.77690    0.80400    1.000
    O66      O        0.60830    0.62750    0.73110    1.000
    H20      H        0.56500    0.61580    0.73910    1.000
    O67      O        0.58710    0.95380    0.80320    1.000
    H21      H        0.53780    0.96280    0.80550    1.000
    H22      H        0.61600    0.98350    0.80400    1.000
    O68      O        0.75080    0.93110    0.73270    1.000
    H23      H        0.76000    0.96030    0.74610    1.000
    H24      H        0.76050    0.93850    0.70970    1.000
    O69      O        0.61560    0.94850    0.67740    1.000
    H25      H        0.66280    0.94440    0.66850    1.000
    H26      H        0.60520    0.98350    0.67960    1.000
    N3       N        0.07050    0.83480    0.50950    1.000
    N4       N        0.61050    0.79720    0.73720    1.000
    C15      C        0.17130    0.85350    0.46450    1.000
    C16      C        0.12060    0.81220    0.48530    1.000
    C17      C        0.12680    0.75600    0.47910    1.000
    H27      H        0.16270    0.74180    0.46140    1.000
    C18      C        0.07880    0.72110    0.49950    1.000
    C19      C        0.02710    0.74420    0.52560    1.000
    H28      H        0.99410    0.72160    0.54040    1.000
    C20      C        0.02670    0.80100    0.52880    1.000
    C21      C        0.97430    0.82870    0.55680    1.000
    C22      C        0.71380    0.80590    0.69410    1.000
    C23      C        0.66050    0.77040    0.71530    1.000
    C24      C        0.66210    0.71360    0.71200    1.000
    H29      H        0.69680    0.69570    0.69520    1.000
    C25      C        0.61080    0.68390    0.73430    1.000
    C26      C        0.56140    0.71110    0.75840    1.000
    H30      H        0.52720    0.69140    0.77440    1.000
    C27      C        0.56370    0.76780    0.75840    1.000
    C28      C        0.50870    0.80000    0.78200    1.000
    W13      W        0.93242    0.86450    0.43302    1.000
    W14      W        0.82195    0.75341    0.47267    1.000
    W15      W        0.72028    0.86467    0.42791    1.000
    W16      W        0.93778    0.87926    0.34033    1.000
    W17      W        0.03685    0.77531    0.38089    1.000
    W18      W        0.93130    0.66349    0.42323    1.000
    W19      W        0.73170    0.65928    0.41867    1.000
    W20      W        0.62557    0.76996    0.37578    1.000
    W21      W        0.72603    0.87416    0.33508    1.000
    W22      W        0.84301    0.78003    0.28160    1.000
    W23      W        0.93741    0.67571    0.32485    1.000
    W24      W        0.73881    0.67676    0.32038    1.000
    O70      O        0.97120    0.90930    0.46440    1.000
    O71      O        0.67180    0.60790    0.43430    1.000
    O72      O        0.52690    0.75990    0.37270    1.000
    O73      O        0.99940    0.62930    0.30350    1.000
    O74      O        0.68450    0.62980    0.29590    1.000
    O75      O        0.90170    0.80500    0.46200    1.000
    O76      O        0.82690    0.88700    0.43110    1.000
    O77      O        0.95050    0.90850    0.38910    1.000
    O78      O        0.02920    0.82630    0.42070    1.000
    O79      O        0.90320    0.69640    0.46840    1.000
    O80      O        0.74780    0.69450    0.46570    1.000
    O81      O        0.74730    0.80540    0.45950    1.000
    O82      O        0.62860    0.82320    0.41430    1.000
    O83      O        0.70880    0.90590    0.38410    1.000
    O84      O        0.03360    0.83720    0.34830    1.000
    O85      O        0.91490    0.83070    0.30140    1.000
    O86      O        0.83210    0.89910    0.34110    1.000
    O87      O        0.00800    0.72910    0.34190    1.000
    O88      O        0.00440    0.71830    0.41350    1.000
    O89      O        0.83080    0.62420    0.42500    1.000
    O90      O        0.92950    0.64710    0.37170    1.000
    O91      O        0.65750    0.71540    0.40830    1.000
    O92      O        0.73750    0.64520    0.36780    1.000
    O93      O        0.63390    0.83170    0.34150    1.000
    O94      O        0.66230    0.72710    0.33600    1.000
    O95      O        0.76120    0.82850    0.29740    1.000
    O96      O        0.91900    0.72220    0.28220    1.000
    O97      O        0.76380    0.72240    0.27920    1.000
    O98      O        0.83890    0.64130    0.31280    1.000
    B2       B        0.83060    0.77010    0.37780    1.000
    O99      O        0.90290    0.80740    0.38150    1.000
    O100     O        0.82990    0.72800    0.40940    1.000
    O101     O        0.75590    0.80570    0.37850    1.000
    O102     O        0.83480    0.73770    0.34130    1.000
    O103     O        0.68690    0.85690    0.68930    1.000
    O104     O        0.64290    0.98560    0.78390    1.000
    H31      H        0.64140    0.01660    0.77180    1.000
    H32      H        0.68980    0.98070    0.79290    1.000
    O105     O        0.71790    0.97310    0.74610    1.000
    H33      H        0.70890    0.00100    0.73160    1.000
    H34      H        0.76200    0.95740    0.73980    1.000
    O106     O        0.61700    0.96990    0.68650    1.000
    H35      H        0.66490    0.98250    0.68470    1.000
    H36      H        0.58480    0.99710    0.69020    1.000
    O107     O        0.90500    0.73520    0.37650    1.000
    O108     O        0.82600    0.80090    0.41480    1.000
    O109     O        0.75700    0.73160    0.37380    1.000
    O110     O        0.83000    0.81150    0.34570    1.000
    Ce7      Ce       0.56802    0.56074    0.47918    1.000
    Ce8      Ce       0.39063    0.70105    0.35935    1.000
    Ce9      Ce       0.10830    0.59575    0.26027    1.000
    O111     O        0.65990    0.59600    0.52670    1.000
    O112     O        0.72050    0.66260    0.55780    1.000
    O113     O        0.47800    0.61860    0.44230    1.000
    O114     O        0.43300    0.69930    0.42230    1.000
    O115     O        0.58110    0.83400    0.50460    1.000
    H37      H        0.60570    0.84190    0.52400    1.000
    O116     O        0.55540    0.48880    0.52510    1.000
    O117     O        0.26560    0.71400    0.32660    1.000
    O118     O        0.21810    0.64310    0.29510    1.000
    O119     O        0.01150    0.64660    0.22200    1.000
    O120     O        0.96460    0.72310    0.19600    1.000
    O121     O        0.10830    0.87250    0.26890    1.000
    H38      H        0.06500    0.88420    0.26090    1.000
    O122     O        0.08710    0.54620    0.19680    1.000
    H39      H        0.03780    0.53720    0.19450    1.000
    H40      H        0.11600    0.51650    0.19600    1.000
    O123     O        0.25080    0.56890    0.26730    1.000
    H41      H        0.26000    0.53970    0.25390    1.000
    H42      H        0.26050    0.56150    0.29030    1.000
    O124     O        0.11560    0.55150    0.32260    1.000
    H43      H        0.16280    0.55560    0.33150    1.000
    H44      H        0.10520    0.51650    0.32040    1.000
    N5       N        0.57050    0.66520    0.49050    1.000
    N6       N        0.11050    0.70280    0.26280    1.000
    C29      C        0.67130    0.64650    0.53550    1.000
    C30      C        0.62060    0.68780    0.51470    1.000
    C31      C        0.62680    0.74400    0.52090    1.000
    H45      H        0.66270    0.75820    0.53860    1.000
    C32      C        0.57880    0.77890    0.50050    1.000
    C33      C        0.52710    0.75580    0.47440    1.000
    H46      H        0.49410    0.77840    0.45960    1.000
    C34      C        0.52670    0.69900    0.47120    1.000
    C35      C        0.47430    0.67130    0.44320    1.000
    C36      C        0.21380    0.69410    0.30590    1.000
    C37      C        0.16050    0.72960    0.28470    1.000
    C38      C        0.16210    0.78640    0.28800    1.000
    H47      H        0.19680    0.80430    0.30480    1.000
    C39      C        0.11080    0.81610    0.26570    1.000
    C40      C        0.06140    0.78890    0.24160    1.000
    H48      H        0.02720    0.80860    0.22560    1.000
    C41      C        0.06370    0.73220    0.24160    1.000
    C42      C        0.00870    0.70000    0.21800    1.000
    W25      W        0.43242    0.63550    0.56698    1.000
    W26      W        0.32195    0.74659    0.52733    1.000
    W27      W        0.22028    0.63533    0.57209    1.000
    W28      W        0.43778    0.62074    0.65967    1.000
    W29      W        0.53685    0.72469    0.61911    1.000
    W30      W        0.43130    0.83651    0.57677    1.000
    W31      W        0.23170    0.84072    0.58133    1.000
    W32      W        0.12557    0.73004    0.62422    1.000
    W33      W        0.22603    0.62584    0.66492    1.000
    W34      W        0.34301    0.71997    0.71840    1.000
    W35      W        0.43741    0.82429    0.67515    1.000
    W36      W        0.23881    0.82324    0.67962    1.000
    O125     O        0.47120    0.59070    0.53560    1.000
    O126     O        0.17180    0.89210    0.56570    1.000
    O127     O        0.02690    0.74010    0.62730    1.000
    O128     O        0.49940    0.87070    0.69650    1.000
    O129     O        0.18450    0.87020    0.70410    1.000
    O130     O        0.40170    0.69500    0.53800    1.000
    O131     O        0.32690    0.61300    0.56890    1.000
    O132     O        0.45050    0.59150    0.61090    1.000
    O133     O        0.52920    0.67370    0.57930    1.000
    O134     O        0.40320    0.80360    0.53160    1.000
    O135     O        0.24780    0.80550    0.53430    1.000
    O136     O        0.24730    0.69460    0.54050    1.000
    O137     O        0.12860    0.67680    0.58570    1.000
    O138     O        0.20880    0.59410    0.61590    1.000
    O139     O        0.53360    0.66280    0.65170    1.000
    O140     O        0.41490    0.66930    0.69860    1.000
    O141     O        0.33210    0.60090    0.65890    1.000
    O142     O        0.50800    0.77090    0.65810    1.000
    O143     O        0.50440    0.78170    0.58650    1.000
    O144     O        0.33080    0.87580    0.57500    1.000
    O145     O        0.42950    0.85290    0.62830    1.000
    O146     O        0.15750    0.78460    0.59170    1.000
    O147     O        0.23750    0.85480    0.63220    1.000
    O148     O        0.13390    0.66830    0.65850    1.000
    O149     O        0.16230    0.77290    0.66400    1.000
    O150     O        0.26120    0.67150    0.70260    1.000
    O151     O        0.41900    0.77780    0.71780    1.000
    O152     O        0.26380    0.77760    0.72080    1.000
    O153     O        0.33890    0.85870    0.68720    1.000
    B3       B        0.33060    0.72990    0.62220    1.000
    O154     O        0.40290    0.69260    0.61850    1.000
    O155     O        0.32990    0.77200    0.59060    1.000
    O156     O        0.25590    0.69430    0.62150    1.000
    O157     O        0.33480    0.76230    0.65870    1.000
    O158     O        0.18690    0.64310    0.31070    1.000
    O159     O        0.14290    0.51440    0.21610    1.000
    H49      H        0.14140    0.48340    0.22820    1.000
    H50      H        0.18980    0.51930    0.20710    1.000
    O160     O        0.21790    0.52690    0.25390    1.000
    H51      H        0.20890    0.49900    0.26840    1.000
    H52      H        0.26200    0.54260    0.26020    1.000
    O161     O        0.11700    0.53010    0.31350    1.000
    H53      H        0.16490    0.51750    0.31530    1.000
    H54      H        0.08480    0.50290    0.30980    1.000
    O162     O        0.40500    0.76480    0.62350    1.000
    O163     O        0.32600    0.69910    0.58520    1.000
    O164     O        0.25700    0.76840    0.62620    1.000
    O165     O        0.33000    0.68850    0.65430    1.000
    Ce10     Ce       0.93198    0.43926    0.97918    1.000
    Ce11     Ce       0.10937    0.29895    0.85935    1.000
    Ce12     Ce       0.39170    0.40425    0.76027    1.000
    O166     O        0.84010    0.40400    0.02670    1.000
    O167     O        0.77950    0.33740    0.05780    1.000
    O168     O        0.02200    0.38140    0.94230    1.000
    O169     O        0.06700    0.30070    0.92230    1.000
    O170     O        0.91890    0.16600    0.00460    1.000
    H55      H        0.89430    0.15810    0.02400    1.000
    O171     O        0.94460    0.51120    0.02510    1.000
    O172     O        0.23440    0.28600    0.82660    1.000
    O173     O        0.28190    0.35690    0.79510    1.000
    O174     O        0.48850    0.35340    0.72200    1.000
    O175     O        0.53540    0.27690    0.69600    1.000
    O176     O        0.39170    0.12750    0.76890    1.000
    H56      H        0.43500    0.11580    0.76090    1.000
    O177     O        0.41290    0.45380    0.69680    1.000
    H57      H        0.46220    0.46280    0.69450    1.000
    H58      H        0.38400    0.48350    0.69600    1.000
    O178     O        0.24920    0.43110    0.76730    1.000
    H59      H        0.24000    0.46030    0.75390    1.000
    H60      H        0.23950    0.43850    0.79030    1.000
    O179     O        0.38440    0.44850    0.82260    1.000
    H61      H        0.33720    0.44440    0.83150    1.000
    H62      H        0.39480    0.48350    0.82040    1.000
    N7       N        0.92950    0.33480    0.99050    1.000
    N8       N        0.38950    0.29720    0.76280    1.000
    C43      C        0.82870    0.35350    0.03550    1.000
    C44      C        0.87940    0.31220    0.01470    1.000
    C45      C        0.87320    0.25600    0.02090    1.000
    H63      H        0.83730    0.24180    0.03860    1.000
    C46      C        0.92120    0.22110    0.00050    1.000
    C47      C        0.97290    0.24420    0.97440    1.000
    H64      H        0.00590    0.22160    0.95960    1.000
    C48      C        0.97330    0.30100    0.97120    1.000
    C49      C        0.02570    0.32870    0.94320    1.000
    C50      C        0.28620    0.30590    0.80590    1.000
    C51      C        0.33950    0.27040    0.78470    1.000
    C52      C        0.33790    0.21360    0.78800    1.000
    H65      H        0.30320    0.19570    0.80480    1.000
    C53      C        0.38920    0.18390    0.76570    1.000
    C54      C        0.43860    0.21110    0.74160    1.000
    H66      H        0.47280    0.19140    0.72560    1.000
    C55      C        0.43630    0.26780    0.74160    1.000
    C56      C        0.49130    0.30000    0.71800    1.000
    W37      W        0.06758    0.36450    0.06698    1.000
    W38      W        0.17805    0.25341    0.02733    1.000
    W39      W        0.27972    0.36467    0.07209    1.000
    W40      W        0.06222    0.37926    0.15967    1.000
    W41      W        0.96315    0.27531    0.11911    1.000
    W42      W        0.06870    0.16349    0.07677    1.000
    W43      W        0.26830    0.15928    0.08133    1.000
    W44      W        0.37443    0.26996    0.12422    1.000
    W45      W        0.27397    0.37416    0.16492    1.000
    W46      W        0.15699    0.28003    0.21840    1.000
    W47      W        0.06259    0.17571    0.17515    1.000
    W48      W        0.26119    0.17676    0.17962    1.000
    O180     O        0.02880    0.40930    0.03560    1.000
    O181     O        0.32820    0.10790    0.06570    1.000
    O182     O        0.47310    0.25990    0.12730    1.000
    O183     O        0.00060    0.12930    0.19650    1.000
    O184     O        0.31550    0.12980    0.20410    1.000
    O185     O        0.09830    0.30500    0.03800    1.000
    O186     O        0.17310    0.38700    0.06890    1.000
    O187     O        0.04950    0.40850    0.11090    1.000
    O188     O        0.97080    0.32630    0.07930    1.000
    O189     O        0.09680    0.19640    0.03160    1.000
    O190     O        0.25220    0.19450    0.03430    1.000
    O191     O        0.25270    0.30540    0.04050    1.000
    O192     O        0.37140    0.32320    0.08570    1.000
    O193     O        0.29120    0.40590    0.11590    1.000
    O194     O        0.96640    0.33720    0.15170    1.000
    O195     O        0.08510    0.33070    0.19860    1.000
    O196     O        0.16790    0.39910    0.15890    1.000
    O197     O        0.99200    0.22910    0.15810    1.000
    O198     O        0.99560    0.21830    0.08650    1.000
    O199     O        0.16920    0.12420    0.07500    1.000
    O200     O        0.07050    0.14710    0.12830    1.000
    O201     O        0.34250    0.21540    0.09170    1.000
    O202     O        0.26250    0.14520    0.13220    1.000
    O203     O        0.36610    0.33170    0.15850    1.000
    O204     O        0.33770    0.22710    0.16400    1.000
    O205     O        0.23880    0.32850    0.20260    1.000
    O206     O        0.08100    0.22220    0.21780    1.000
    O207     O        0.23620    0.22240    0.22080    1.000
    O208     O        0.16110    0.14130    0.18720    1.000
    B4       B        0.16940    0.27010    0.12220    1.000
    O209     O        0.09710    0.30740    0.11850    1.000
    O210     O        0.17010    0.22800    0.09060    1.000
    O211     O        0.24410    0.30570    0.12150    1.000
    O212     O        0.16520    0.23770    0.15870    1.000
    O213     O        0.31310    0.35690    0.81070    1.000
    O214     O        0.35710    0.48560    0.71610    1.000
    H67      H        0.35860    0.51660    0.72820    1.000
    H68      H        0.31020    0.48070    0.70710    1.000
    O215     O        0.28210    0.47310    0.75390    1.000
    H69      H        0.29110    0.50100    0.76840    1.000
    H70      H        0.23800    0.45740    0.76020    1.000
    O216     O        0.38300    0.46990    0.81350    1.000
    H71      H        0.33510    0.48250    0.81530    1.000
    H72      H        0.41520    0.49710    0.80980    1.000
    O217     O        0.09500    0.23520    0.12350    1.000
    O218     O        0.17400    0.30090    0.08520    1.000
    O219     O        0.24300    0.23160    0.12620    1.000
    O220     O        0.17000    0.31150    0.15430    1.000
    Ce13     Ce       0.56802    0.93926    0.97918    1.000
    Ce14     Ce       0.39063    0.79895    0.85935    1.000
    Ce15     Ce       0.10830    0.90425    0.76027    1.000
    O221     O        0.65990    0.90400    0.02670    1.000
    O222     O        0.72050    0.83740    0.05780    1.000
    O223     O        0.47800    0.88140    0.94230    1.000
    O224     O        0.43300    0.80070    0.92230    1.000
    O225     O        0.58110    0.66600    0.00460    1.000
    H73      H        0.60570    0.65810    0.02400    1.000
    O226     O        0.55540    0.01120    0.02510    1.000
    O227     O        0.26560    0.78600    0.82660    1.000
    O228     O        0.21810    0.85690    0.79510    1.000
    O229     O        0.01150    0.85340    0.72200    1.000
    O230     O        0.96460    0.77690    0.69600    1.000
    O231     O        0.10830    0.62750    0.76890    1.000
    H74      H        0.06500    0.61580    0.76090    1.000
    O232     O        0.08710    0.95380    0.69680    1.000
    H75      H        0.03780    0.96280    0.69450    1.000
    H76      H        0.11600    0.98350    0.69600    1.000
    O233     O        0.25080    0.93110    0.76730    1.000
    H77      H        0.26000    0.96030    0.75390    1.000
    H78      H        0.26050    0.93850    0.79030    1.000
    O234     O        0.11560    0.94850    0.82260    1.000
    H79      H        0.16280    0.94440    0.83150    1.000
    H80      H        0.10520    0.98350    0.82040    1.000
    N9       N        0.57050    0.83480    0.99050    1.000
    N10      N        0.11050    0.79720    0.76280    1.000
    C57      C        0.67130    0.85350    0.03550    1.000
    C58      C        0.62060    0.81220    0.01470    1.000
    C59      C        0.62680    0.75600    0.02090    1.000
    H81      H        0.66270    0.74180    0.03860    1.000
    C60      C        0.57880    0.72110    0.00050    1.000
    C61      C        0.52710    0.74420    0.97440    1.000
    H82      H        0.49410    0.72160    0.95960    1.000
    C62      C        0.52670    0.80100    0.97120    1.000
    C63      C        0.47430    0.82870    0.94320    1.000
    C64      C        0.21380    0.80590    0.80590    1.000
    C65      C        0.16050    0.77040    0.78470    1.000
    C66      C        0.16210    0.71360    0.78800    1.000
    H83      H        0.19680    0.69570    0.80480    1.000
    C67      C        0.11080    0.68390    0.76570    1.000
    C68      C        0.06140    0.71110    0.74160    1.000
    H84      H        0.02720    0.69140    0.72560    1.000
    C69      C        0.06370    0.76780    0.74160    1.000
    C70      C        0.00870    0.80000    0.71800    1.000
    W49      W        0.43242    0.86450    0.06698    1.000
    W50      W        0.32195    0.75341    0.02733    1.000
    W51      W        0.22028    0.86467    0.07209    1.000
    W52      W        0.43778    0.87926    0.15967    1.000
    W53      W        0.53685    0.77531    0.11911    1.000
    W54      W        0.43130    0.66349    0.07677    1.000
    W55      W        0.23170    0.65928    0.08133    1.000
    W56      W        0.12557    0.76996    0.12422    1.000
    W57      W        0.22603    0.87416    0.16492    1.000
    W58      W        0.34301    0.78003    0.21840    1.000
    W59      W        0.43741    0.67571    0.17515    1.000
    W60      W        0.23881    0.67676    0.17962    1.000
    O235     O        0.47120    0.90930    0.03560    1.000
    O236     O        0.17180    0.60790    0.06570    1.000
    O237     O        0.02690    0.75990    0.12730    1.000
    O238     O        0.49940    0.62930    0.19650    1.000
    O239     O        0.18450    0.62980    0.20410    1.000
    O240     O        0.40170    0.80500    0.03800    1.000
    O241     O        0.32690    0.88700    0.06890    1.000
    O242     O        0.45050    0.90850    0.11090    1.000
    O243     O        0.52920    0.82630    0.07930    1.000
    O244     O        0.40320    0.69640    0.03160    1.000
    O245     O        0.24780    0.69450    0.03430    1.000
    O246     O        0.24730    0.80540    0.04050    1.000
    O247     O        0.12860    0.82320    0.08570    1.000
    O248     O        0.20880    0.90590    0.11590    1.000
    O249     O        0.53360    0.83720    0.15170    1.000
    O250     O        0.41490    0.83070    0.19860    1.000
    O251     O        0.33210    0.89910    0.15890    1.000
    O252     O        0.50800    0.72910    0.15810    1.000
    O253     O        0.50440    0.71830    0.08650    1.000
    O254     O        0.33080    0.62420    0.07500    1.000
    O255     O        0.42950    0.64710    0.12830    1.000
    O256     O        0.15750    0.71540    0.09170    1.000
    O257     O        0.23750    0.64520    0.13220    1.000
    O258     O        0.13390    0.83170    0.15850    1.000
    O259     O        0.16230    0.72710    0.16400    1.000
    O260     O        0.26120    0.82850    0.20260    1.000
    O261     O        0.41900    0.72220    0.21780    1.000
    O262     O        0.26380    0.72240    0.22080    1.000
    O263     O        0.33890    0.64130    0.18720    1.000
    B5       B        0.33060    0.77010    0.12220    1.000
    O264     O        0.40290    0.80740    0.11850    1.000
    O265     O        0.32990    0.72800    0.09060    1.000
    O266     O        0.25590    0.80570    0.12150    1.000
    O267     O        0.33480    0.73770    0.15870    1.000
    O268     O        0.18690    0.85690    0.81070    1.000
    O269     O        0.14290    0.98560    0.71610    1.000
    H85      H        0.14140    0.01660    0.72820    1.000
    H86      H        0.18980    0.98070    0.70710    1.000
    O270     O        0.21790    0.97310    0.75390    1.000
    H87      H        0.20890    0.00100    0.76840    1.000
    H88      H        0.26200    0.95740    0.76020    1.000
    O271     O        0.11700    0.96990    0.81350    1.000
    H89      H        0.16490    0.98250    0.81530    1.000
    H90      H        0.08480    0.99710    0.80980    1.000
    O272     O        0.40500    0.73520    0.12350    1.000
    O273     O        0.32600    0.80090    0.08520    1.000
    O274     O        0.25700    0.73160    0.12620    1.000
    O275     O        0.33000    0.81150    0.15430    1.000
    Ce16     Ce       0.93198    0.06074    0.47918    1.000
    Ce17     Ce       0.10937    0.20105    0.35935    1.000
    Ce18     Ce       0.39170    0.09575    0.26027    1.000
    O276     O        0.84010    0.09600    0.52670    1.000
    O277     O        0.77950    0.16260    0.55780    1.000
    O278     O        0.02200    0.11860    0.44230    1.000
    O279     O        0.06700    0.19930    0.42230    1.000
    O280     O        0.91890    0.33400    0.50460    1.000
    H91      H        0.89430    0.34190    0.52400    1.000
    O281     O        0.94460    0.98880    0.52510    1.000
    O282     O        0.23440    0.21400    0.32660    1.000
    O283     O        0.28190    0.14310    0.29510    1.000
    O284     O        0.48850    0.14660    0.22200    1.000
    O285     O        0.53540    0.22310    0.19600    1.000
    O286     O        0.39170    0.37250    0.26890    1.000
    H92      H        0.43500    0.38420    0.26090    1.000
    O287     O        0.41290    0.04620    0.19680    1.000
    H93      H        0.46220    0.03720    0.19450    1.000
    H94      H        0.38400    0.01650    0.19600    1.000
    O288     O        0.24920    0.06890    0.26730    1.000
    H95      H        0.24000    0.03970    0.25390    1.000
    H96      H        0.23950    0.06150    0.29030    1.000
    O289     O        0.38440    0.05150    0.32260    1.000
    H97      H        0.33720    0.05560    0.33150    1.000
    H98      H        0.39480    0.01650    0.32040    1.000
    N11      N        0.92950    0.16520    0.49050    1.000
    N12      N        0.38950    0.20280    0.26280    1.000
    C71      C        0.82870    0.14650    0.53550    1.000
    C72      C        0.87940    0.18780    0.51470    1.000
    C73      C        0.87320    0.24400    0.52090    1.000
    H99      H        0.83730    0.25820    0.53860    1.000
    C74      C        0.92120    0.27890    0.50050    1.000
    C75      C        0.97290    0.25580    0.47440    1.000
    H100     H        0.00590    0.27840    0.45960    1.000
    C76      C        0.97330    0.19900    0.47120    1.000
    C77      C        0.02570    0.17130    0.44320    1.000
    C78      C        0.28620    0.19410    0.30590    1.000
    C79      C        0.33950    0.22960    0.28470    1.000
    C80      C        0.33790    0.28640    0.28800    1.000
    H101     H        0.30320    0.30430    0.30480    1.000
    C81      C        0.38920    0.31610    0.26570    1.000
    C82      C        0.43860    0.28890    0.24160    1.000
    H102     H        0.47280    0.30860    0.22560    1.000
    C83      C        0.43630    0.23220    0.24160    1.000
    C84      C        0.49130    0.20000    0.21800    1.000
    W61      W        0.06758    0.13550    0.56698    1.000
    W62      W        0.17805    0.24659    0.52733    1.000
    W63      W        0.27972    0.13533    0.57209    1.000
    W64      W        0.06222    0.12074    0.65967    1.000
    W65      W        0.96315    0.22469    0.61911    1.000
    W66      W        0.06870    0.33651    0.57677    1.000
    W67      W        0.26830    0.34072    0.58133    1.000
    W68      W        0.37443    0.23004    0.62422    1.000
    W69      W        0.27397    0.12584    0.66492    1.000
    W70      W        0.15699    0.21997    0.71840    1.000
    W71      W        0.06259    0.32429    0.67515    1.000
    W72      W        0.26119    0.32324    0.67962    1.000
    O290     O        0.02880    0.09070    0.53560    1.000
    O291     O        0.32820    0.39210    0.56570    1.000
    O292     O        0.47310    0.24010    0.62730    1.000
    O293     O        0.00060    0.37070    0.69650    1.000
    O294     O        0.31550    0.37020    0.70410    1.000
    O295     O        0.09830    0.19500    0.53800    1.000
    O296     O        0.17310    0.11300    0.56890    1.000
    O297     O        0.04950    0.09150    0.61090    1.000
    O298     O        0.97080    0.17370    0.57930    1.000
    O299     O        0.09680    0.30360    0.53160    1.000
    O300     O        0.25220    0.30550    0.53430    1.000
    O301     O        0.25270    0.19460    0.54050    1.000
    O302     O        0.37140    0.17680    0.58570    1.000
    O303     O        0.29120    0.09410    0.61590    1.000
    O304     O        0.96640    0.16280    0.65170    1.000
    O305     O        0.08510    0.16930    0.69860    1.000
    O306     O        0.16790    0.10090    0.65890    1.000
    O307     O        0.99200    0.27090    0.65810    1.000
    O308     O        0.99560    0.28170    0.58650    1.000
    O309     O        0.16920    0.37580    0.57500    1.000
    O310     O        0.07050    0.35290    0.62830    1.000
    O311     O        0.34250    0.28460    0.59170    1.000
    O312     O        0.26250    0.35480    0.63220    1.000
    O313     O        0.36610    0.16830    0.65850    1.000
    O314     O        0.33770    0.27290    0.66400    1.000
    O315     O        0.23880    0.17150    0.70260    1.000
    O316     O        0.08100    0.27780    0.71780    1.000
    O317     O        0.23620    0.27760    0.72080    1.000
    O318     O        0.16110    0.35870    0.68720    1.000
    B6       B        0.16940    0.22990    0.62220    1.000
    O319     O        0.09710    0.19260    0.61850    1.000
    O320     O        0.17010    0.27200    0.59060    1.000
    O321     O        0.24410    0.19430    0.62150    1.000
    O322     O        0.16520    0.26230    0.65870    1.000
    O323     O        0.31310    0.14310    0.31070    1.000
    O324     O        0.35710    0.01440    0.21610    1.000
    H103     H        0.35860    0.98340    0.22820    1.000
    H104     H        0.31020    0.01930    0.20710    1.000
    O325     O        0.28210    0.02690    0.25390    1.000
    H105     H        0.29110    0.99900    0.26840    1.000
    H106     H        0.23800    0.04260    0.26020    1.000
    O326     O        0.38300    0.03010    0.31350    1.000
    H107     H        0.33510    0.01750    0.31530    1.000
    H108     H        0.41520    0.00290    0.30980    1.000
    O327     O        0.09500    0.26480    0.62350    1.000
    O328     O        0.17400    0.19910    0.58520    1.000
    O329     O        0.24300    0.26840    0.62620    1.000
    O330     O        0.17000    0.18850    0.65430    1.000
    Ce19     Ce       0.43198    0.43926    0.52082    1.000
    Ce20     Ce       0.60937    0.29895    0.64065    1.000
    Ce21     Ce       0.89170    0.40425    0.73973    1.000
    O331     O        0.34010    0.40400    0.47330    1.000
    O332     O        0.27950    0.33740    0.44220    1.000
    O333     O        0.52200    0.38140    0.55770    1.000
    O334     O        0.56700    0.30070    0.57770    1.000
    O335     O        0.41890    0.16600    0.49540    1.000
    H109     H        0.39430    0.15810    0.47600    1.000
    O336     O        0.44460    0.51120    0.47490    1.000
    O337     O        0.73440    0.28600    0.67340    1.000
    O338     O        0.78190    0.35690    0.70490    1.000
    O339     O        0.98850    0.35340    0.77800    1.000
    O340     O        0.03540    0.27690    0.80400    1.000
    O341     O        0.89170    0.12750    0.73110    1.000
    H110     H        0.93500    0.11580    0.73910    1.000
    O342     O        0.91290    0.45380    0.80320    1.000
    H111     H        0.96220    0.46280    0.80550    1.000
    H112     H        0.88400    0.48350    0.80400    1.000
    O343     O        0.74920    0.43110    0.73270    1.000
    H113     H        0.74000    0.46030    0.74610    1.000
    H114     H        0.73950    0.43850    0.70970    1.000
    O344     O        0.88440    0.44850    0.67740    1.000
    H115     H        0.83720    0.44440    0.66850    1.000
    H116     H        0.89480    0.48350    0.67960    1.000
    N13      N        0.42950    0.33480    0.50950    1.000
    N14      N        0.88950    0.29720    0.73720    1.000
    C85      C        0.32870    0.35350    0.46450    1.000
    C86      C        0.37940    0.31220    0.48530    1.000
    C87      C        0.37320    0.25600    0.47910    1.000
    H117     H        0.33730    0.24180    0.46140    1.000
    C88      C        0.42120    0.22110    0.49950    1.000
    C89      C        0.47290    0.24420    0.52560    1.000
    H118     H        0.50590    0.22160    0.54040    1.000
    C90      C        0.47330    0.30100    0.52880    1.000
    C91      C        0.52570    0.32870    0.55680    1.000
    C92      C        0.78620    0.30590    0.69410    1.000
    C93      C        0.83950    0.27040    0.71530    1.000
    C94      C        0.83790    0.21360    0.71200    1.000
    H119     H        0.80320    0.19570    0.69520    1.000
    C95      C        0.88920    0.18390    0.73430    1.000
    C96      C        0.93860    0.21110    0.75840    1.000
    H120     H        0.97280    0.19140    0.77440    1.000
    C97      C        0.93630    0.26780    0.75840    1.000
    C98      C        0.99130    0.30000    0.78200    1.000
    W73      W        0.56758    0.36450    0.43302    1.000
    W74      W        0.67805    0.25341    0.47267    1.000
    W75      W        0.77972    0.36467    0.42791    1.000
    W76      W        0.56222    0.37926    0.34033    1.000
    W77      W        0.46315    0.27531    0.38089    1.000
    W78      W        0.56870    0.16349    0.42323    1.000
    W79      W        0.76830    0.15928    0.41867    1.000
    W80      W        0.87443    0.26996    0.37578    1.000
    W81      W        0.77397    0.37416    0.33508    1.000
    W82      W        0.65699    0.28003    0.28160    1.000
    W83      W        0.56259    0.17571    0.32485    1.000
    W84      W        0.76119    0.17676    0.32038    1.000
    O345     O        0.52880    0.40930    0.46440    1.000
    O346     O        0.82820    0.10790    0.43430    1.000
    O347     O        0.97310    0.25990    0.37270    1.000
    O348     O        0.50060    0.12930    0.30350    1.000
    O349     O        0.81550    0.12980    0.29590    1.000
    O350     O        0.59830    0.30500    0.46200    1.000
    O351     O        0.67310    0.38700    0.43110    1.000
    O352     O        0.54950    0.40850    0.38910    1.000
    O353     O        0.47080    0.32630    0.42070    1.000
    O354     O        0.59680    0.19640    0.46840    1.000
    O355     O        0.75220    0.19450    0.46570    1.000
    O356     O        0.75270    0.30540    0.45950    1.000
    O357     O        0.87140    0.32320    0.41430    1.000
    O358     O        0.79120    0.40590    0.38410    1.000
    O359     O        0.46640    0.33720    0.34830    1.000
    O360     O        0.58510    0.33070    0.30140    1.000
    O361     O        0.66790    0.39910    0.34110    1.000
    O362     O        0.49200    0.22910    0.34190    1.000
    O363     O        0.49560    0.21830    0.41350    1.000
    O364     O        0.66920    0.12420    0.42500    1.000
    O365     O        0.57050    0.14710    0.37170    1.000
    O366     O        0.84250    0.21540    0.40830    1.000
    O367     O        0.76250    0.14520    0.36780    1.000
    O368     O        0.86610    0.33170    0.34150    1.000
    O369     O        0.83770    0.22710    0.33600    1.000
    O370     O        0.73880    0.32850    0.29740    1.000
    O371     O        0.58100    0.22220    0.28220    1.000
    O372     O        0.73620    0.22240    0.27920    1.000
    O373     O        0.66110    0.14130    0.31280    1.000
    B7       B        0.66940    0.27010    0.37780    1.000
    O374     O        0.59710    0.30740    0.38150    1.000
    O375     O        0.67010    0.22800    0.40940    1.000
    O376     O        0.74410    0.30570    0.37850    1.000
    O377     O        0.66520    0.23770    0.34130    1.000
    O378     O        0.81310    0.35690    0.68930    1.000
    O379     O        0.85710    0.48560    0.78390    1.000
    H121     H        0.85860    0.51660    0.77180    1.000
    H122     H        0.81020    0.48070    0.79290    1.000
    O380     O        0.78210    0.47310    0.74610    1.000
    H123     H        0.79110    0.50100    0.73160    1.000
    H124     H        0.73800    0.45740    0.73980    1.000
    O381     O        0.88300    0.46990    0.68650    1.000
    H125     H        0.83510    0.48250    0.68470    1.000
    H126     H        0.91520    0.49710    0.69020    1.000
    O382     O        0.59500    0.23520    0.37650    1.000
    O383     O        0.67400    0.30090    0.41480    1.000
    O384     O        0.74300    0.23160    0.37380    1.000
    O385     O        0.67000    0.31150    0.34570    1.000
    Ce22     Ce       0.06802    0.56074    0.02082    1.000
    Ce23     Ce       0.89063    0.70105    0.14065    1.000
    Ce24     Ce       0.60830    0.59575    0.23973    1.000
    O386     O        0.15990    0.59600    0.97330    1.000
    O387     O        0.22050    0.66260    0.94220    1.000
    O388     O        0.97800    0.61860    0.05770    1.000
    O389     O        0.93300    0.69930    0.07770    1.000
    O390     O        0.08110    0.83400    0.99540    1.000
    H127     H        0.10570    0.84190    0.97600    1.000
    O391     O        0.05540    0.48880    0.97490    1.000
    O392     O        0.76560    0.71400    0.17340    1.000
    O393     O        0.71810    0.64310    0.20490    1.000
    O394     O        0.51150    0.64660    0.27800    1.000
    O395     O        0.46460    0.72310    0.30400    1.000
    O396     O        0.60830    0.87250    0.23110    1.000
    H128     H        0.56500    0.88420    0.23910    1.000
    O397     O        0.58710    0.54620    0.30320    1.000
    H129     H        0.53780    0.53720    0.30550    1.000
    H130     H        0.61600    0.51650    0.30400    1.000
    O398     O        0.75080    0.56890    0.23270    1.000
    H131     H        0.76000    0.53970    0.24610    1.000
    H132     H        0.76050    0.56150    0.20970    1.000
    O399     O        0.61560    0.55150    0.17740    1.000
    H133     H        0.66280    0.55560    0.16850    1.000
    H134     H        0.60520    0.51650    0.17960    1.000
    N15      N        0.07050    0.66520    0.00950    1.000
    N16      N        0.61050    0.70280    0.23720    1.000
    C99      C        0.17130    0.64650    0.96450    1.000
    C100     C        0.12060    0.68780    0.98530    1.000
    C101     C        0.12680    0.74400    0.97910    1.000
    H135     H        0.16270    0.75820    0.96140    1.000
    C102     C        0.07880    0.77890    0.99950    1.000
    C103     C        0.02710    0.75580    0.02560    1.000
    H136     H        0.99410    0.77840    0.04040    1.000
    C104     C        0.02670    0.69900    0.02880    1.000
    C105     C        0.97430    0.67130    0.05680    1.000
    C106     C        0.71380    0.69410    0.19410    1.000
    C107     C        0.66050    0.72960    0.21530    1.000
    C108     C        0.66210    0.78640    0.21200    1.000
    H137     H        0.69680    0.80430    0.19520    1.000
    C109     C        0.61080    0.81610    0.23430    1.000
    C110     C        0.56140    0.78890    0.25840    1.000
    H138     H        0.52720    0.80860    0.27440    1.000
    C111     C        0.56370    0.73220    0.25840    1.000
    C112     C        0.50870    0.70000    0.28200    1.000
    W85      W        0.93242    0.63550    0.93302    1.000
    W86      W        0.82195    0.74659    0.97267    1.000
    W87      W        0.72028    0.63533    0.92791    1.000
    W88      W        0.93778    0.62074    0.84033    1.000
    W89      W        0.03685    0.72469    0.88089    1.000
    W90      W        0.93130    0.83651    0.92323    1.000
    W91      W        0.73170    0.84072    0.91867    1.000
    W92      W        0.62557    0.73004    0.87578    1.000
    W93      W        0.72603    0.62584    0.83508    1.000
    W94      W        0.84301    0.71997    0.78160    1.000
    W95      W        0.93741    0.82429    0.82485    1.000
    W96      W        0.73881    0.82324    0.82038    1.000
    O400     O        0.97120    0.59070    0.96440    1.000
    O401     O        0.67180    0.89210    0.93430    1.000
    O402     O        0.52690    0.74010    0.87270    1.000
    O403     O        0.99940    0.87070    0.80350    1.000
    O404     O        0.68450    0.87020    0.79590    1.000
    O405     O        0.90170    0.69500    0.96200    1.000
    O406     O        0.82690    0.61300    0.93110    1.000
    O407     O        0.95050    0.59150    0.88910    1.000
    O408     O        0.02920    0.67370    0.92070    1.000
    O409     O        0.90320    0.80360    0.96840    1.000
    O410     O        0.74780    0.80550    0.96570    1.000
    O411     O        0.74730    0.69460    0.95950    1.000
    O412     O        0.62860    0.67680    0.91430    1.000
    O413     O        0.70880    0.59410    0.88410    1.000
    O414     O        0.03360    0.66280    0.84830    1.000
    O415     O        0.91490    0.66930    0.80140    1.000
    O416     O        0.83210    0.60090    0.84110    1.000
    O417     O        0.00800    0.77090    0.84190    1.000
    O418     O        0.00440    0.78170    0.91350    1.000
    O419     O        0.83080    0.87580    0.92500    1.000
    O420     O        0.92950    0.85290    0.87170    1.000
    O421     O        0.65750    0.78460    0.90830    1.000
    O422     O        0.73750    0.85480    0.86780    1.000
    O423     O        0.63390    0.66830    0.84150    1.000
    O424     O        0.66230    0.77290    0.83600    1.000
    O425     O        0.76120    0.67150    0.79740    1.000
    O426     O        0.91900    0.77780    0.78220    1.000
    O427     O        0.76380    0.77760    0.77920    1.000
    O428     O        0.83890    0.85870    0.81280    1.000
    B8       B        0.83060    0.72990    0.87780    1.000
    O429     O        0.90290    0.69260    0.88150    1.000
    O430     O        0.82990    0.77200    0.90940    1.000
    O431     O        0.75590    0.69430    0.87850    1.000
    O432     O        0.83480    0.76230    0.84130    1.000
    O433     O        0.68690    0.64310    0.18930    1.000
    O434     O        0.64290    0.51440    0.28390    1.000
    H139     H        0.64140    0.48340    0.27180    1.000
    H140     H        0.68980    0.51930    0.29290    1.000
    O435     O        0.71790    0.52690    0.24610    1.000
    H141     H        0.70890    0.49900    0.23160    1.000
    H142     H        0.76200    0.54260    0.23980    1.000
    O436     O        0.61700    0.53010    0.18650    1.000
    H143     H        0.66490    0.51750    0.18470    1.000
    H144     H        0.58480    0.50290    0.19020    1.000
    O437     O        0.90500    0.76480    0.87650    1.000
    O438     O        0.82600    0.69910    0.91480    1.000
    O439     O        0.75700    0.76840    0.87380    1.000
    O440     O        0.83000    0.68850    0.84570    1.000
