data_functionalizedCrystal
_audit_creation_method	'EQeq! by Chris Wilmer'
_symmetry_space_group_name_H-M	'P1'
_symmetry_Int_Tables_number	1
_symmetry_cell_setting	triclinic
loop_
_symmetry_equiv_pos_as_xyz
  x,y,z
_cell_length_a	12.9299
_cell_length_b	13.18
_cell_length_c	16.5203
_cell_angle_alpha	111.361
_cell_angle_beta	108.278
_cell_angle_gamma	93.778
loop_
_atom_site_label
_atom_site_type_symbol
_atom_site_fract_x
_atom_site_fract_y
_atom_site_fract_z
_atom_site_charge
Mof_Cd	Cd	0.38266	0.62479	0.25413	0.349
Mof_Cd	Cd	0.61734	0.37521	0.74587	0.349
Mof_H 	H 	0.4568	0.7991	0.4738	-0.021
Mof_H 	H 	0.1615	0.6744	0.2911	-0.028
Mof_H 	H 	0.3916	0.8951	0.584	0.169
Mof_H 	H 	0.0823	0.7626	0.3951	0.182
Mof_H 	H 	0.1519	0.8492	0.5962	0.279
Mof_H 	H 	0.2371	0.9591	0.6278	0.252
Mof_H 	H 	0.3076	0.844	0.2296	-0.034
Mof_H 	H 	0.2118	0.5387	0.0404	-0.013
Mof_H 	H 	0.2154	0.9098	0.1259	0.208
Mof_H 	H 	0.1153	0.6021	0.9327	0.171
Mof_H 	H 	0.1427	0.8153	0.9115	0.283
Mof_H 	H 	0.0374	0.7416	0.8923	0.228
Mof_H 	H 	0.2973	0.3641	0.1201	0.002
Mof_H 	H 	0.5441	0.5617	0.1373	-0.022
Mof_H 	H 	0.3528	0.2125	0.0275	0.247
Mof_H 	H 	0.5978	0.4202	0.0422	0.152
Mof_H 	H 	0.5867	0.223	0.9663	0.187
Mof_H 	H 	0.4693	0.1816	0.8979	0.198
Mof_H 	H 	0.463	0.445	0.331	-0.008
Mof_H 	H 	0.6276	0.7451	0.4133	0.023
Mof_H 	H 	0.598	0.412	0.441	0.138
Mof_H 	H 	0.776	0.7084	0.5173	0.219
Mof_H 	H 	0.8256	0.5875	0.615	0.162
Mof_H 	H 	0.7778	0.463	0.559	0.15
Mof_H 	H 	0.5432	0.2009	0.5262	-0.022
Mof_H 	H 	0.8385	0.3256	0.7089	-0.029
Mof_H 	H 	0.6084	0.1049	0.416	0.168
Mof_H 	H 	0.9177	0.2374	0.6049	0.181
Mof_H 	H 	0.8481	0.1508	0.4038	0.279
Mof_H 	H 	0.7629	0.0409	0.3722	0.252
Mof_H 	H 	0.6924	0.156	0.7704	-0.034
Mof_H 	H 	0.7882	0.4613	0.9596	-0.013
Mof_H 	H 	0.7846	0.0902	0.8741	0.208
Mof_H 	H 	0.8847	0.3979	0.0673	0.171
Mof_H 	H 	0.8573	0.1847	0.0885	0.283
Mof_H 	H 	0.9626	0.2584	0.1077	0.228
Mof_H 	H 	0.7027	0.6359	0.8799	0.002
Mof_H 	H 	0.4559	0.4383	0.8627	-0.022
Mof_H 	H 	0.6472	0.7875	0.9725	0.247
Mof_H 	H 	0.4022	0.5798	0.9578	0.152
Mof_H 	H 	0.4133	0.777	0.0337	0.187
Mof_H 	H 	0.5307	0.8184	0.1021	0.198
Mof_H 	H 	0.537	0.555	0.669	-0.008
Mof_H 	H 	0.3724	0.2549	0.5867	0.023
Mof_H 	H 	0.402	0.588	0.559	0.138
Mof_H 	H 	0.224	0.2916	0.4827	0.219
Mof_H 	H 	0.1744	0.4125	0.385	0.162
Mof_H 	H 	0.2222	0.537	0.441	0.15
Mof_C 	C 	0.38078	0.78911	0.45778	0.182
Mof_C 	C 	0.20489	0.7148	0.3501	0.192
Mof_C 	C 	0.34177	0.84693	0.52623	-0.307
Mof_C 	C 	0.15934	0.7695	0.41451	-0.308
Mof_C 	C 	0.22802	0.83796	0.50519	0.352
Mof_C 	C 	0.18239	0.90227	0.57872	-0.458
Mof_C 	C 	0.08839	0.95271	0.53954	0.032
Mof_C 	C 	0.10799	0.0539	0.53292	0.204
Mof_C 	C 	0.02242	0.09972	0.49549	0.195
Mof_C 	C 	0.26966	0.79641	0.16945	0.213
Mof_C 	C 	0.21419	0.61813	0.05813	0.173
Mof_C 	C 	0.21249	0.83737	0.10648	-0.367
Mof_C 	C 	0.15518	0.65305	0.99119	-0.328
Mof_C 	C 	0.15451	0.76542	0.01444	0.364
Mof_C 	C 	0.09517	0.80239	0.93842	-0.476
Mof_C 	C 	0.04745	0.90472	0.9713	0.042
Mof_C 	C 	0.94484	0.89765	0.98065	0.196
Mof_C 	C 	0.89932	0.99009	0.00846	0.2
Mof_C 	C 	0.3605	0.37109	0.10279	0.215
Mof_C 	C 	0.50453	0.4899	0.11316	0.185
Mof_C 	C 	0.38946	0.28047	0.04657	-0.358
Mof_C 	C 	0.53684	0.40353	0.05636	-0.306
Mof_C 	C 	0.48006	0.29526	0.02218	0.337
Mof_C 	C 	0.51395	0.19872	0.95897	-0.388
Mof_C 	C 	0.50585	0.0961	0.97967	0.004
Mof_C 	C 	0.58467	0.08887	0.05507	0.218
Mof_C 	C 	0.5798	0.99557	0.07498	0.222
Mof_C 	C 	0.52985	0.4992	0.3697	0.153
Mof_C 	C 	0.62716	0.67265	0.41875	0.177
Mof_C 	C 	0.61499	0.47392	0.4292	-0.243
Mof_C 	C 	0.71564	0.65387	0.48093	-0.295
Mof_C 	C 	0.71008	0.55233	0.48726	0.276
Mof_C 	C 	0.80503	0.52859	0.55521	-0.293
Mof_C 	C 	0.90519	0.51512	0.52648	-0.013
Mof_C 	C 	0.90658	0.41963	0.45556	0.219
Mof_C 	C 	0.99777	0.40418	0.42945	0.227
Mof_C 	C 	0.61922	0.21089	0.54222	0.182
Mof_C 	C 	0.79511	0.2852	0.6499	0.192
Mof_C 	C 	0.65823	0.15307	0.47377	-0.307
Mof_C 	C 	0.84066	0.2305	0.58549	-0.308
Mof_C 	C 	0.77198	0.16204	0.49481	0.352
Mof_C 	C 	0.81761	0.09773	0.42128	-0.458
Mof_C 	C 	0.91161	0.04729	0.46046	0.032
Mof_C 	C 	0.89201	0.9461	0.46708	0.204
Mof_C 	C 	0.97758	0.90028	0.50451	0.195
Mof_C 	C 	0.73034	0.20359	0.83055	0.213
Mof_C 	C 	0.78581	0.38187	0.94187	0.173
Mof_C 	C 	0.78751	0.16263	0.89352	-0.367
Mof_C 	C 	0.84482	0.34695	0.00881	-0.328
Mof_C 	C 	0.84549	0.23458	0.98556	0.364
Mof_C 	C 	0.90483	0.19761	0.06158	-0.476
Mof_C 	C 	0.95255	0.09528	0.0287	0.042
Mof_C 	C 	0.05516	0.10235	0.01935	0.196
Mof_C 	C 	0.10068	0.00991	0.99154	0.2
Mof_C 	C 	0.6395	0.62891	0.89721	0.215
Mof_C 	C 	0.49547	0.5101	0.88684	0.185
Mof_C 	C 	0.61054	0.71953	0.95343	-0.358
Mof_C 	C 	0.46316	0.59647	0.94364	-0.306
Mof_C 	C 	0.51994	0.70474	0.97782	0.337
Mof_C 	C 	0.48605	0.80128	0.04103	-0.388
Mof_C 	C 	0.49415	0.9039	0.02033	0.004
Mof_C 	C 	0.41533	0.91113	0.94493	0.218
Mof_C 	C 	0.4202	0.00443	0.92502	0.222
Mof_C 	C 	0.47015	0.5008	0.6303	0.153
Mof_C 	C 	0.37284	0.32735	0.58125	0.177
Mof_C 	C 	0.38501	0.52608	0.5708	-0.243
Mof_C 	C 	0.28436	0.34613	0.51907	-0.295
Mof_C 	C 	0.28992	0.44767	0.51274	0.276
Mof_C 	C 	0.19497	0.47141	0.44479	-0.293
Mof_C 	C 	0.09481	0.48488	0.47352	-0.013
Mof_C 	C 	0.09342	0.58037	0.54444	0.219
Mof_C 	C 	0.00223	0.59582	0.57055	0.227
Mof_N 	N 	0.31449	0.72324	0.36994	-0.196
Mof_N 	N 	0.27206	0.68812	0.14678	-0.199
Mof_N 	N 	0.41655	0.47557	0.13769	-0.196
Mof_N 	N 	0.5338	0.59734	0.36413	-0.185
Mof_N 	N 	0.68551	0.27676	0.63006	-0.196
Mof_N 	N 	0.72794	0.31188	0.85322	-0.199
Mof_N 	N 	0.58345	0.52443	0.86231	-0.196
Mof_N 	N 	0.4662	0.40266	0.63587	-0.185
Mof_F 	F 	0.21378	0.10847	0.56376	-0.411
Mof_F 	F 	0.04776	0.19914	0.49277	-0.391
Mof_F 	F 	0.88681	0.79743	0.96125	-0.406
Mof_F 	F 	0.7985	0.97595	0.01586	-0.383
Mof_F 	F 	0.67008	0.17665	0.11236	-0.386
Mof_F 	F 	0.66183	0.99576	0.14935	-0.38
Mof_F 	F 	0.81441	0.33764	0.40898	-0.396
Mof_F 	F 	0.99069	0.30839	0.35844	-0.38
Mof_F 	F 	0.78622	0.89153	0.43624	-0.411
Mof_F 	F 	0.95224	0.80086	0.50723	-0.391
Mof_F 	F 	0.11319	0.20257	0.03875	-0.406
Mof_F 	F 	0.2015	0.02405	0.98414	-0.383
Mof_F 	F 	0.32992	0.82335	0.88764	-0.386
Mof_F 	F 	0.33817	0.00424	0.85065	-0.38
Mof_F 	F 	0.18559	0.66236	0.59102	-0.396
Mof_F 	F 	0.00931	0.69161	0.64156	-0.38
_end
