data_functionalizedCrystal
_audit_creation_method	'EQeq! by Chris Wilmer'
_symmetry_space_group_name_H-M	'P1'
_symmetry_Int_Tables_number	1
_symmetry_cell_setting	triclinic
loop_
_symmetry_equiv_pos_as_xyz
  x,y,z
_cell_length_a	14.1744
_cell_length_b	25.9151
_cell_length_c	20.6042
_cell_angle_alpha	90
_cell_angle_beta	90
_cell_angle_gamma	90
loop_
_atom_site_label
_atom_site_type_symbol
_atom_site_fract_x
_atom_site_fract_y
_atom_site_fract_z
_atom_site_charge
Mof_Zn	Zn	0.75846	0.9004	0.62308	1.215
Mof_Zn	Zn	0.74154	0.5996	0.12308	1.215
Mof_Zn	Zn	0.24154	0.9004	0.12308	1.215
Mof_Zn	Zn	0.25846	0.5996	0.62308	1.215
Mof_H 	H 	0.5665	0.9188	0.5657	0.007
Mof_H 	H 	0.453	0.9831	0.5626	0.103
Mof_H 	H 	0.6112	0.0658	0.6882	0.112
Mof_H 	H 	0.7204	0.9996	0.6885	0.005
Mof_H 	H 	0.404	0.0685	0.5867	0.097
Mof_H 	H 	0.404	0.0681	0.6642	0.089
Mof_H 	H 	0.5256	0.2508	0.5064	0.059
Mof_H 	H 	0.5089	0.2568	0.7386	0.06
Mof_H 	H 	0.6254	0.4391	0.5781	0.096
Mof_H 	H 	0.6253	0.4403	0.6556	0.085
Mof_H 	H 	0.5626	0.5192	0.69	0.099
Mof_H 	H 	0.4447	0.5815	0.6879	0.005
Mof_H 	H 	0.321	0.513	0.5405	-0.012
Mof_H 	H 	0.4329	0.4479	0.5402	0.11
Mof_H 	H 	0.7599	0.7731	0.75	0.07
Mof_H 	H 	0.7568	0.6817	0.7855	0.073
Mof_H 	H 	0.7599	0.621	0.8685	0.041
Mof_H 	H 	0.7758	0.7351	0.0034	0.069
Mof_H 	H 	0.7835	0.8269	0.9674	0.066
Mof_H 	H 	0.7834	0.8874	0.8837	0.047
Mof_H 	H 	0.9335	0.5812	0.0657	0.006
Mof_H 	H 	0.047	0.5169	0.0626	0.101
Mof_H 	H 	0.8888	0.4342	0.1882	0.111
Mof_H 	H 	0.7796	0.5004	0.1885	0.004
Mof_H 	H 	0.096	0.4315	0.0867	0.096
Mof_H 	H 	0.096	0.4319	0.1642	0.088
Mof_H 	H 	0.9744	0.2492	0.0064	0.058
Mof_H 	H 	0.9911	0.2432	0.2386	0.059
Mof_H 	H 	0.8746	0.0609	0.0781	0.095
Mof_H 	H 	0.8747	0.0597	0.1556	0.084
Mof_H 	H 	0.9374	0.9808	0.19	0.098
Mof_H 	H 	0.0553	0.9185	0.1879	0.005
Mof_H 	H 	0.179	0.987	0.0405	-0.013
Mof_H 	H 	0.0671	0.0521	0.0402	0.11
Mof_H 	H 	0.7401	0.7269	0.25	0.07
Mof_H 	H 	0.7432	0.8183	0.2855	0.073
Mof_H 	H 	0.7401	0.879	0.3685	0.041
Mof_H 	H 	0.7242	0.7649	0.5034	0.068
Mof_H 	H 	0.7165	0.6731	0.4674	0.066
Mof_H 	H 	0.7166	0.6126	0.3837	0.047
Mof_H 	H 	0.4335	0.9188	0.0657	0.006
Mof_H 	H 	0.547	0.9831	0.0626	0.102
Mof_H 	H 	0.3888	0.0658	0.1882	0.111
Mof_H 	H 	0.2796	0.9996	0.1885	0.004
Mof_H 	H 	0.596	0.0685	0.0867	0.096
Mof_H 	H 	0.596	0.0681	0.1642	0.088
Mof_H 	H 	0.4744	0.2508	0.0064	0.058
Mof_H 	H 	0.4911	0.2568	0.2386	0.059
Mof_H 	H 	0.3746	0.4391	0.0781	0.095
Mof_H 	H 	0.3747	0.4403	0.1556	0.084
Mof_H 	H 	0.4374	0.5192	0.19	0.099
Mof_H 	H 	0.5553	0.5815	0.1879	0.005
Mof_H 	H 	0.679	0.513	0.0405	-0.012
Mof_H 	H 	0.5671	0.4479	0.0402	0.11
Mof_H 	H 	0.2401	0.7731	0.25	0.07
Mof_H 	H 	0.2432	0.6817	0.2855	0.073
Mof_H 	H 	0.2401	0.621	0.3685	0.041
Mof_H 	H 	0.2242	0.7351	0.5034	0.068
Mof_H 	H 	0.2165	0.8269	0.4674	0.066
Mof_H 	H 	0.2166	0.8874	0.3837	0.047
Mof_H 	H 	0.0665	0.5812	0.5657	0.006
Mof_H 	H 	0.953	0.5169	0.5626	0.102
Mof_H 	H 	0.1112	0.4342	0.6882	0.111
Mof_H 	H 	0.2204	0.5004	0.6885	0.004
Mof_H 	H 	0.904	0.4315	0.5867	0.096
Mof_H 	H 	0.904	0.4319	0.6642	0.088
Mof_H 	H 	0.0256	0.2492	0.5064	0.058
Mof_H 	H 	0.0089	0.2432	0.7386	0.059
Mof_H 	H 	0.1254	0.0609	0.5781	0.095
Mof_H 	H 	0.1253	0.0597	0.6556	0.084
Mof_H 	H 	0.0626	0.9808	0.69	0.098
Mof_H 	H 	0.9447	0.9185	0.6879	0.005
Mof_H 	H 	0.821	0.987	0.5405	-0.012
Mof_H 	H 	0.9329	0.0521	0.5402	0.11
Mof_H 	H 	0.2599	0.7269	0.75	0.07
Mof_H 	H 	0.2568	0.8183	0.7855	0.073
Mof_H 	H 	0.2599	0.879	0.8685	0.041
Mof_H 	H 	0.2758	0.7649	0.0034	0.067
Mof_H 	H 	0.2835	0.6731	0.9674	0.066
Mof_H 	H 	0.2834	0.6126	0.8837	0.047
Mof_C 	C 	0.57533	0.94901	0.59106	0.103
Mof_C 	C 	0.50754	0.98728	0.58888	-0.177
Mof_C 	C 	0.51926	0.03172	0.62513	0.15
Mof_C 	C 	0.60046	0.03587	0.66273	-0.168
Mof_C 	C 	0.66515	0.99626	0.66273	0.095
Mof_C 	C 	0.44433	0.07289	0.62548	-0.141
Mof_C 	C 	0.49778	0.15353	0.56933	0.201
Mof_C 	C 	0.51014	0.20828	0.58999	-0.032
Mof_C 	C 	0.52177	0.252	0.55236	-0.02
Mof_C 	C 	0.52739	0.29762	0.58699	-0.033
Mof_C 	C 	0.54171	0.35127	0.56293	0.2
Mof_C 	C 	0.53863	0.35402	0.67521	0.199
Mof_C 	C 	0.52351	0.29925	0.65484	-0.029
Mof_C 	C 	0.51159	0.25563	0.69256	-0.022
Mof_C 	C 	0.50394	0.21011	0.65768	-0.029
Mof_C 	C 	0.48446	0.15659	0.68116	0.196
Mof_C 	C 	0.58509	0.4349	0.61695	-0.138
Mof_C 	C 	0.50909	0.47587	0.6159	0.153
Mof_C 	C 	0.51262	0.51672	0.65947	-0.173
Mof_C 	C 	0.44226	0.55381	0.65779	0.109
Mof_C 	C 	0.36988	0.51366	0.572	0.107
Mof_C 	C 	0.43672	0.47497	0.57124	-0.179
Mof_C 	C 	0.77511	0.87397	0.7535	0.33
Mof_C 	C 	0.77314	0.83502	0.80802	-0.058
Mof_C 	C 	0.76544	0.78367	0.794	-0.042
Mof_C 	C 	0.76547	0.74553	0.84404	0.033
Mof_C 	C 	0.76085	0.69263	0.82938	-0.08
Mof_C 	C 	0.76222	0.65671	0.87852	0.009
Mof_C 	C 	0.76716	0.67315	0.94479	-0.056
Mof_C 	C 	0.77215	0.7245	0.95932	-0.04
Mof_C 	C 	0.77198	0.76264	0.90896	0.028
Mof_C 	C 	0.77895	0.81584	0.92354	-0.074
Mof_C 	C 	0.7792	0.85163	0.87396	0.002
Mof_C 	C 	0.76523	0.63275	0.99762	0.327
Mof_C 	C 	0.92467	0.55099	0.09106	0.102
Mof_C 	C 	0.99246	0.51272	0.08888	-0.175
Mof_C 	C 	0.98074	0.46828	0.12513	0.15
Mof_C 	C 	0.89954	0.46413	0.16273	-0.168
Mof_C 	C 	0.83485	0.50374	0.16273	0.094
Mof_C 	C 	0.05567	0.42711	0.12548	-0.141
Mof_C 	C 	0.00222	0.34647	0.06933	0.198
Mof_C 	C 	0.98986	0.29172	0.08999	-0.03
Mof_C 	C 	0.97823	0.248	0.05236	-0.02
Mof_C 	C 	0.97261	0.20238	0.08699	-0.032
Mof_C 	C 	0.95829	0.14873	0.06293	0.2
Mof_C 	C 	0.96137	0.14598	0.17521	0.199
Mof_C 	C 	0.97649	0.20075	0.15484	-0.029
Mof_C 	C 	0.98841	0.24437	0.19256	-0.022
Mof_C 	C 	0.99606	0.28989	0.15768	-0.029
Mof_C 	C 	0.01554	0.34341	0.18116	0.196
Mof_C 	C 	0.91491	0.0651	0.11695	-0.138
Mof_C 	C 	0.99091	0.02413	0.1159	0.155
Mof_C 	C 	0.98738	0.98328	0.15947	-0.173
Mof_C 	C 	0.05774	0.94619	0.15779	0.108
Mof_C 	C 	0.13012	0.98634	0.072	0.107
Mof_C 	C 	0.06328	0.02503	0.07124	-0.181
Mof_C 	C 	0.72489	0.62603	0.2535	0.33
Mof_C 	C 	0.72686	0.66498	0.30802	-0.057
Mof_C 	C 	0.73456	0.71633	0.294	-0.043
Mof_C 	C 	0.73453	0.75447	0.34404	0.033
Mof_C 	C 	0.73915	0.80737	0.32938	-0.08
Mof_C 	C 	0.73778	0.84329	0.37852	0.009
Mof_C 	C 	0.73284	0.82685	0.44479	-0.057
Mof_C 	C 	0.72785	0.7755	0.45932	-0.039
Mof_C 	C 	0.72802	0.73736	0.40896	0.027
Mof_C 	C 	0.72105	0.68416	0.42354	-0.074
Mof_C 	C 	0.7208	0.64837	0.37396	0.002
Mof_C 	C 	0.73477	0.86725	0.49762	0.328
Mof_C 	C 	0.42467	0.94901	0.09106	0.103
Mof_C 	C 	0.49246	0.98728	0.08888	-0.178
Mof_C 	C 	0.48074	0.03172	0.12513	0.15
Mof_C 	C 	0.39954	0.03587	0.16273	-0.168
Mof_C 	C 	0.33485	0.99626	0.16273	0.094
Mof_C 	C 	0.55567	0.07289	0.12548	-0.141
Mof_C 	C 	0.50222	0.15353	0.06933	0.201
Mof_C 	C 	0.48986	0.20828	0.08999	-0.032
Mof_C 	C 	0.47823	0.252	0.05236	-0.02
Mof_C 	C 	0.47261	0.29762	0.08699	-0.033
Mof_C 	C 	0.45829	0.35127	0.06293	0.2
Mof_C 	C 	0.46137	0.35402	0.17521	0.199
Mof_C 	C 	0.47649	0.29925	0.15484	-0.029
Mof_C 	C 	0.48841	0.25563	0.19256	-0.022
Mof_C 	C 	0.49606	0.21011	0.15768	-0.029
Mof_C 	C 	0.51554	0.15659	0.18116	0.196
Mof_C 	C 	0.41491	0.4349	0.11695	-0.138
Mof_C 	C 	0.49091	0.47587	0.1159	0.153
Mof_C 	C 	0.48738	0.51672	0.15947	-0.173
Mof_C 	C 	0.55774	0.55381	0.15779	0.109
Mof_C 	C 	0.63012	0.51366	0.072	0.107
Mof_C 	C 	0.56328	0.47497	0.07124	-0.179
Mof_C 	C 	0.22489	0.87397	0.2535	0.33
Mof_C 	C 	0.22686	0.83502	0.30802	-0.057
Mof_C 	C 	0.23456	0.78367	0.294	-0.043
Mof_C 	C 	0.23453	0.74553	0.34404	0.033
Mof_C 	C 	0.23915	0.69263	0.32938	-0.08
Mof_C 	C 	0.23778	0.65671	0.37852	0.009
Mof_C 	C 	0.23284	0.67315	0.44479	-0.057
Mof_C 	C 	0.22785	0.7245	0.45932	-0.039
Mof_C 	C 	0.22802	0.76264	0.40896	0.027
Mof_C 	C 	0.22105	0.81584	0.42354	-0.074
Mof_C 	C 	0.2208	0.85163	0.37396	0.002
Mof_C 	C 	0.23477	0.63275	0.49762	0.328
Mof_C 	C 	0.07533	0.55099	0.59106	0.103
Mof_C 	C 	0.00754	0.51272	0.58888	-0.177
Mof_C 	C 	0.01926	0.46828	0.62513	0.15
Mof_C 	C 	0.10046	0.46413	0.66273	-0.168
Mof_C 	C 	0.16515	0.50374	0.66273	0.094
Mof_C 	C 	0.94433	0.42711	0.62548	-0.141
Mof_C 	C 	0.99778	0.34647	0.56933	0.201
Mof_C 	C 	0.01014	0.29172	0.58999	-0.032
Mof_C 	C 	0.02177	0.248	0.55236	-0.02
Mof_C 	C 	0.02739	0.20238	0.58699	-0.033
Mof_C 	C 	0.04171	0.14873	0.56293	0.2
Mof_C 	C 	0.03863	0.14598	0.67521	0.199
Mof_C 	C 	0.02351	0.20075	0.65484	-0.029
Mof_C 	C 	0.01159	0.24437	0.69256	-0.022
Mof_C 	C 	0.00394	0.28989	0.65768	-0.029
Mof_C 	C 	0.98446	0.34341	0.68116	0.196
Mof_C 	C 	0.08509	0.0651	0.61695	-0.138
Mof_C 	C 	0.00909	0.02413	0.6159	0.153
Mof_C 	C 	0.01262	0.98328	0.65947	-0.172
Mof_C 	C 	0.94226	0.94619	0.65779	0.108
Mof_C 	C 	0.86988	0.98634	0.572	0.108
Mof_C 	C 	0.93672	0.02503	0.57124	-0.18
Mof_C 	C 	0.27511	0.62603	0.7535	0.33
Mof_C 	C 	0.27314	0.66498	0.80802	-0.057
Mof_C 	C 	0.26544	0.71633	0.794	-0.043
Mof_C 	C 	0.26547	0.75447	0.84404	0.034
Mof_C 	C 	0.26085	0.80737	0.82938	-0.081
Mof_C 	C 	0.26222	0.84329	0.87852	0.01
Mof_C 	C 	0.26716	0.82685	0.94479	-0.058
Mof_C 	C 	0.27215	0.7755	0.95932	-0.037
Mof_C 	C 	0.27198	0.73736	0.90896	0.026
Mof_C 	C 	0.27895	0.68416	0.92354	-0.073
Mof_C 	C 	0.2792	0.64837	0.87396	0.002
Mof_C 	C 	0.26523	0.86725	0.99762	0.329
Mof_N 	N 	0.65301	0.95306	0.62757	-0.273
Mof_N 	N 	0.48184	0.12543	0.62592	-0.143
Mof_N 	N 	0.54847	0.38233	0.61819	-0.143
Mof_N 	N 	0.3713	0.552	0.61537	-0.273
Mof_N 	N 	0.84699	0.54694	0.12757	-0.273
Mof_N 	N 	0.01816	0.37457	0.12592	-0.142
Mof_N 	N 	0.95153	0.11767	0.11819	-0.143
Mof_N 	N 	0.1287	0.948	0.11537	-0.273
Mof_N 	N 	0.34699	0.95306	0.12757	-0.273
Mof_N 	N 	0.51816	0.12543	0.12592	-0.143
Mof_N 	N 	0.45153	0.38233	0.11819	-0.143
Mof_N 	N 	0.6287	0.552	0.11537	-0.273
Mof_N 	N 	0.15301	0.54694	0.62757	-0.273
Mof_N 	N 	0.98184	0.37457	0.62592	-0.143
Mof_N 	N 	0.04847	0.11767	0.61819	-0.143
Mof_N 	N 	0.8713	0.948	0.61537	-0.273
Mof_O 	O 	0.5004	0.13568	0.51519	-0.222
Mof_O 	O 	0.54698	0.36654	0.50764	-0.232
Mof_O 	O 	0.54381	0.37136	0.72952	-0.223
Mof_O 	O 	0.47159	0.14181	0.73581	-0.224
Mof_O 	O 	0.77211	0.85458	0.69615	-0.447
Mof_O 	O 	0.77985	0.91981	0.76597	-0.305
Mof_O 	O 	0.76602	0.58691	0.98294	-0.313
Mof_O 	O 	0.76207	0.65044	0.05611	-0.438
Mof_O 	O 	0.9996	0.36432	0.01519	-0.22
Mof_O 	O 	0.95302	0.13346	0.00764	-0.232
Mof_O 	O 	0.95619	0.12864	0.22952	-0.223
Mof_O 	O 	0.02841	0.35819	0.23581	-0.224
Mof_O 	O 	0.72789	0.64542	0.19615	-0.447
Mof_O 	O 	0.72015	0.58019	0.26597	-0.305
Mof_O 	O 	0.73398	0.91309	0.48294	-0.313
Mof_O 	O 	0.73793	0.84956	0.55611	-0.438
Mof_O 	O 	0.4996	0.13568	0.01519	-0.222
Mof_O 	O 	0.45302	0.36654	0.00764	-0.232
Mof_O 	O 	0.45619	0.37136	0.22952	-0.223
Mof_O 	O 	0.52841	0.14181	0.23581	-0.224
Mof_O 	O 	0.22789	0.85458	0.19615	-0.447
Mof_O 	O 	0.22015	0.91981	0.26597	-0.305
Mof_O 	O 	0.23398	0.58691	0.48294	-0.313
Mof_O 	O 	0.23793	0.65044	0.55611	-0.438
Mof_O 	O 	0.0004	0.36432	0.51519	-0.222
Mof_O 	O 	0.04698	0.13346	0.50764	-0.232
Mof_O 	O 	0.04381	0.12864	0.72952	-0.223
Mof_O 	O 	0.97159	0.35819	0.73581	-0.224
Mof_O 	O 	0.27211	0.64542	0.69615	-0.447
Mof_O 	O 	0.27985	0.58019	0.76597	-0.305
Mof_O 	O 	0.26602	0.91309	0.98294	-0.313
Mof_O 	O 	0.26207	0.84956	0.05611	-0.439
Mof_Zn	Zn	0.75846	0.0996	0.87692	1.214
Mof_Zn	Zn	0.74154	0.4004	0.37692	1.214
Mof_Zn	Zn	0.24154	0.0996	0.37692	1.214
Mof_Zn	Zn	0.25846	0.4004	0.87692	1.214
Mof_H 	H 	0.5665	0.0812	0.9343	0.006
Mof_H 	H 	0.453	0.0169	0.9374	0.102
Mof_H 	H 	0.6112	0.9342	0.8118	0.111
Mof_H 	H 	0.7204	0.0004	0.8115	0.004
Mof_H 	H 	0.404	0.9315	0.9133	0.096
Mof_H 	H 	0.404	0.9319	0.8358	0.088
Mof_H 	H 	0.5256	0.7492	0.9936	0.058
Mof_H 	H 	0.5089	0.7432	0.7614	0.059
Mof_H 	H 	0.6254	0.5609	0.9219	0.095
Mof_H 	H 	0.6253	0.5597	0.8444	0.084
Mof_H 	H 	0.5626	0.4808	0.81	0.099
Mof_H 	H 	0.4447	0.4185	0.8121	0.005
Mof_H 	H 	0.321	0.487	0.9595	-0.012
Mof_H 	H 	0.4329	0.5521	0.9598	0.11
Mof_H 	H 	0.7599	0.2269	0.75	0.07
Mof_H 	H 	0.7568	0.3183	0.7145	0.073
Mof_H 	H 	0.7599	0.379	0.6315	0.041
Mof_H 	H 	0.7758	0.2649	0.4966	0.068
Mof_H 	H 	0.7835	0.1731	0.5326	0.066
Mof_H 	H 	0.7834	0.1126	0.6163	0.047
Mof_H 	H 	0.9335	0.4188	0.4343	0.006
Mof_H 	H 	0.047	0.4831	0.4374	0.102
Mof_H 	H 	0.8888	0.5658	0.3118	0.111
Mof_H 	H 	0.7796	0.4996	0.3115	0.004
Mof_H 	H 	0.096	0.5685	0.4133	0.096
Mof_H 	H 	0.096	0.5681	0.3358	0.088
Mof_H 	H 	0.9744	0.7508	0.4936	0.058
Mof_H 	H 	0.9911	0.7568	0.2614	0.059
Mof_H 	H 	0.8746	0.9391	0.4219	0.095
Mof_H 	H 	0.8747	0.9403	0.3444	0.084
Mof_H 	H 	0.9374	0.0192	0.31	0.098
Mof_H 	H 	0.0553	0.0815	0.3121	0.005
Mof_H 	H 	0.179	0.013	0.4595	-0.012
Mof_H 	H 	0.0671	0.9479	0.4598	0.11
Mof_H 	H 	0.7401	0.2731	0.25	0.07
Mof_H 	H 	0.7432	0.1817	0.2145	0.073
Mof_H 	H 	0.7401	0.121	0.1315	0.041
Mof_H 	H 	0.7242	0.2351	0.9966	0.067
Mof_H 	H 	0.7165	0.3269	0.0326	0.066
Mof_H 	H 	0.7166	0.3874	0.1163	0.047
Mof_H 	H 	0.4335	0.0812	0.4343	0.006
Mof_H 	H 	0.547	0.0169	0.4374	0.102
Mof_H 	H 	0.3888	0.9342	0.3118	0.111
Mof_H 	H 	0.2796	0.0004	0.3115	0.004
Mof_H 	H 	0.596	0.9315	0.4133	0.096
Mof_H 	H 	0.596	0.9319	0.3358	0.088
Mof_H 	H 	0.4744	0.7492	0.4936	0.058
Mof_H 	H 	0.4911	0.7432	0.2614	0.059
Mof_H 	H 	0.3746	0.5609	0.4219	0.095
Mof_H 	H 	0.3747	0.5597	0.3444	0.084
Mof_H 	H 	0.4374	0.4808	0.31	0.099
Mof_H 	H 	0.5553	0.4185	0.3121	0.005
Mof_H 	H 	0.679	0.487	0.4595	-0.012
Mof_H 	H 	0.5671	0.5521	0.4598	0.11
Mof_H 	H 	0.2401	0.2269	0.25	0.07
Mof_H 	H 	0.2432	0.3183	0.2145	0.073
Mof_H 	H 	0.2401	0.379	0.1315	0.041
Mof_H 	H 	0.2242	0.2649	0.9966	0.069
Mof_H 	H 	0.2165	0.1731	0.0326	0.066
Mof_H 	H 	0.2166	0.1126	0.1163	0.047
Mof_H 	H 	0.0665	0.4188	0.9343	0.006
Mof_H 	H 	0.953	0.4831	0.9374	0.101
Mof_H 	H 	0.1112	0.5658	0.8118	0.111
Mof_H 	H 	0.2204	0.4996	0.8115	0.004
Mof_H 	H 	0.904	0.5685	0.9133	0.096
Mof_H 	H 	0.904	0.5681	0.8358	0.088
Mof_H 	H 	0.0256	0.7508	0.9936	0.058
Mof_H 	H 	0.0089	0.7568	0.7614	0.059
Mof_H 	H 	0.1254	0.9391	0.9219	0.095
Mof_H 	H 	0.1253	0.9403	0.8444	0.084
Mof_H 	H 	0.0626	0.0192	0.81	0.098
Mof_H 	H 	0.9447	0.0815	0.8121	0.005
Mof_H 	H 	0.821	0.013	0.9595	-0.013
Mof_H 	H 	0.9329	0.9479	0.9598	0.11
Mof_H 	H 	0.2599	0.2731	0.75	0.07
Mof_H 	H 	0.2568	0.1817	0.7145	0.073
Mof_H 	H 	0.2599	0.121	0.6315	0.041
Mof_H 	H 	0.2758	0.2351	0.4966	0.068
Mof_H 	H 	0.2835	0.3269	0.5326	0.066
Mof_H 	H 	0.2834	0.3874	0.6163	0.047
Mof_C 	C 	0.57533	0.05099	0.90894	0.103
Mof_C 	C 	0.50754	0.01272	0.91112	-0.178
Mof_C 	C 	0.51926	0.96828	0.87487	0.15
Mof_C 	C 	0.60046	0.96413	0.83727	-0.168
Mof_C 	C 	0.66515	0.00374	0.83727	0.094
Mof_C 	C 	0.44433	0.92711	0.87452	-0.141
Mof_C 	C 	0.49778	0.84647	0.93067	0.201
Mof_C 	C 	0.51014	0.79172	0.91001	-0.032
Mof_C 	C 	0.52177	0.748	0.94764	-0.02
Mof_C 	C 	0.52739	0.70238	0.91301	-0.033
Mof_C 	C 	0.54171	0.64873	0.93707	0.2
Mof_C 	C 	0.53863	0.64598	0.82479	0.199
Mof_C 	C 	0.52351	0.70075	0.84516	-0.029
Mof_C 	C 	0.51159	0.74437	0.80744	-0.022
Mof_C 	C 	0.50394	0.78989	0.84232	-0.029
Mof_C 	C 	0.48446	0.84341	0.81884	0.196
Mof_C 	C 	0.58509	0.5651	0.88305	-0.138
Mof_C 	C 	0.50909	0.52413	0.8841	0.153
Mof_C 	C 	0.51262	0.48328	0.84053	-0.173
Mof_C 	C 	0.44226	0.44619	0.84221	0.109
Mof_C 	C 	0.36988	0.48634	0.928	0.107
Mof_C 	C 	0.43672	0.52503	0.92876	-0.179
Mof_C 	C 	0.77511	0.12603	0.7465	0.33
Mof_C 	C 	0.77314	0.16498	0.69198	-0.057
Mof_C 	C 	0.76544	0.21633	0.706	-0.043
Mof_C 	C 	0.76547	0.25447	0.65596	0.033
Mof_C 	C 	0.76085	0.30737	0.67062	-0.08
Mof_C 	C 	0.76222	0.34329	0.62148	0.009
Mof_C 	C 	0.76716	0.32685	0.55521	-0.057
Mof_C 	C 	0.77215	0.2755	0.54068	-0.039
Mof_C 	C 	0.77198	0.23736	0.59104	0.027
Mof_C 	C 	0.77895	0.18416	0.57646	-0.074
Mof_C 	C 	0.7792	0.14837	0.62604	0.002
Mof_C 	C 	0.76523	0.36725	0.50238	0.328
Mof_C 	C 	0.92467	0.44901	0.40894	0.103
Mof_C 	C 	0.99246	0.48728	0.41112	-0.177
Mof_C 	C 	0.98074	0.53172	0.37487	0.15
Mof_C 	C 	0.89954	0.53587	0.33727	-0.168
Mof_C 	C 	0.83485	0.49626	0.33727	0.094
Mof_C 	C 	0.05567	0.57289	0.37452	-0.141
Mof_C 	C 	0.00222	0.65353	0.43067	0.201
Mof_C 	C 	0.98986	0.70828	0.41001	-0.032
Mof_C 	C 	0.97823	0.752	0.44764	-0.02
Mof_C 	C 	0.97261	0.79762	0.41301	-0.033
Mof_C 	C 	0.95829	0.85127	0.43707	0.2
Mof_C 	C 	0.96137	0.85402	0.32479	0.199
Mof_C 	C 	0.97649	0.79925	0.34516	-0.029
Mof_C 	C 	0.98841	0.75563	0.30744	-0.022
Mof_C 	C 	0.99606	0.71011	0.34232	-0.029
Mof_C 	C 	0.01554	0.65659	0.31884	0.196
Mof_C 	C 	0.91491	0.9349	0.38305	-0.138
Mof_C 	C 	0.99091	0.97587	0.3841	0.153
Mof_C 	C 	0.98738	0.01672	0.34053	-0.172
Mof_C 	C 	0.05774	0.05381	0.34221	0.108
Mof_C 	C 	0.13012	0.01366	0.428	0.108
Mof_C 	C 	0.06328	0.97497	0.42876	-0.18
Mof_C 	C 	0.72489	0.37397	0.2465	0.33
Mof_C 	C 	0.72686	0.33502	0.19198	-0.057
Mof_C 	C 	0.73456	0.28367	0.206	-0.043
Mof_C 	C 	0.73453	0.24553	0.15596	0.034
Mof_C 	C 	0.73915	0.19263	0.17062	-0.081
Mof_C 	C 	0.73778	0.15671	0.12148	0.01
Mof_C 	C 	0.73284	0.17315	0.05521	-0.058
Mof_C 	C 	0.72785	0.2245	0.04068	-0.037
Mof_C 	C 	0.72802	0.26264	0.09104	0.026
Mof_C 	C 	0.72105	0.31584	0.07646	-0.073
Mof_C 	C 	0.7208	0.35163	0.12604	0.002
Mof_C 	C 	0.73477	0.13275	0.00238	0.329
Mof_C 	C 	0.42467	0.05099	0.40894	0.103
Mof_C 	C 	0.49246	0.01272	0.41112	-0.177
Mof_C 	C 	0.48074	0.96828	0.37487	0.15
Mof_C 	C 	0.39954	0.96413	0.33727	-0.168
Mof_C 	C 	0.33485	0.00374	0.33727	0.095
Mof_C 	C 	0.55567	0.92711	0.37452	-0.141
Mof_C 	C 	0.50222	0.84647	0.43067	0.201
Mof_C 	C 	0.48986	0.79172	0.41001	-0.032
Mof_C 	C 	0.47823	0.748	0.44764	-0.02
Mof_C 	C 	0.47261	0.70238	0.41301	-0.033
Mof_C 	C 	0.45829	0.64873	0.43707	0.2
Mof_C 	C 	0.46137	0.64598	0.32479	0.199
Mof_C 	C 	0.47649	0.70075	0.34516	-0.029
Mof_C 	C 	0.48841	0.74437	0.30744	-0.022
Mof_C 	C 	0.49606	0.78989	0.34232	-0.029
Mof_C 	C 	0.51554	0.84341	0.31884	0.196
Mof_C 	C 	0.41491	0.5651	0.38305	-0.138
Mof_C 	C 	0.49091	0.52413	0.3841	0.153
Mof_C 	C 	0.48738	0.48328	0.34053	-0.173
Mof_C 	C 	0.55774	0.44619	0.34221	0.109
Mof_C 	C 	0.63012	0.48634	0.428	0.107
Mof_C 	C 	0.56328	0.52503	0.42876	-0.179
Mof_C 	C 	0.22489	0.12603	0.2465	0.33
Mof_C 	C 	0.22686	0.16498	0.19198	-0.058
Mof_C 	C 	0.23456	0.21633	0.206	-0.042
Mof_C 	C 	0.23453	0.25447	0.15596	0.033
Mof_C 	C 	0.23915	0.30737	0.17062	-0.08
Mof_C 	C 	0.23778	0.34329	0.12148	0.009
Mof_C 	C 	0.23284	0.32685	0.05521	-0.056
Mof_C 	C 	0.22785	0.2755	0.04068	-0.04
Mof_C 	C 	0.22802	0.23736	0.09104	0.028
Mof_C 	C 	0.22105	0.18416	0.07646	-0.074
Mof_C 	C 	0.2208	0.14837	0.12604	0.002
Mof_C 	C 	0.23477	0.36725	0.00238	0.327
Mof_C 	C 	0.07533	0.44901	0.90894	0.102
Mof_C 	C 	0.00754	0.48728	0.91112	-0.175
Mof_C 	C 	0.01926	0.53172	0.87487	0.15
Mof_C 	C 	0.10046	0.53587	0.83727	-0.168
Mof_C 	C 	0.16515	0.49626	0.83727	0.094
Mof_C 	C 	0.94433	0.57289	0.87452	-0.141
Mof_C 	C 	0.99778	0.65353	0.93067	0.198
Mof_C 	C 	0.01014	0.70828	0.91001	-0.03
Mof_C 	C 	0.02177	0.752	0.94764	-0.02
Mof_C 	C 	0.02739	0.79762	0.91301	-0.032
Mof_C 	C 	0.04171	0.85127	0.93707	0.2
Mof_C 	C 	0.03863	0.85402	0.82479	0.199
Mof_C 	C 	0.02351	0.79925	0.84516	-0.029
Mof_C 	C 	0.01159	0.75563	0.80744	-0.022
Mof_C 	C 	0.00394	0.71011	0.84232	-0.029
Mof_C 	C 	0.98446	0.65659	0.81884	0.196
Mof_C 	C 	0.08509	0.9349	0.88305	-0.138
Mof_C 	C 	0.00909	0.97587	0.8841	0.155
Mof_C 	C 	0.01262	0.01672	0.84053	-0.173
Mof_C 	C 	0.94226	0.05381	0.84221	0.108
Mof_C 	C 	0.86988	0.01366	0.928	0.107
Mof_C 	C 	0.93672	0.97497	0.92876	-0.181
Mof_C 	C 	0.27511	0.37397	0.7465	0.33
Mof_C 	C 	0.27314	0.33502	0.69198	-0.057
Mof_C 	C 	0.26544	0.28367	0.706	-0.043
Mof_C 	C 	0.26547	0.24553	0.65596	0.033
Mof_C 	C 	0.26085	0.19263	0.67062	-0.08
Mof_C 	C 	0.26222	0.15671	0.62148	0.009
Mof_C 	C 	0.26716	0.17315	0.55521	-0.057
Mof_C 	C 	0.27215	0.2245	0.54068	-0.039
Mof_C 	C 	0.27198	0.26264	0.59104	0.027
Mof_C 	C 	0.27895	0.31584	0.57646	-0.074
Mof_C 	C 	0.2792	0.35163	0.62604	0.002
Mof_C 	C 	0.26523	0.13275	0.50238	0.328
Mof_N 	N 	0.65301	0.04694	0.87243	-0.273
Mof_N 	N 	0.48184	0.87457	0.87408	-0.143
Mof_N 	N 	0.54847	0.61767	0.88181	-0.143
Mof_N 	N 	0.3713	0.448	0.88463	-0.273
Mof_N 	N 	0.84699	0.45306	0.37243	-0.273
Mof_N 	N 	0.01816	0.62543	0.37408	-0.143
Mof_N 	N 	0.95153	0.88233	0.38181	-0.143
Mof_N 	N 	0.1287	0.052	0.38463	-0.273
Mof_N 	N 	0.34699	0.04694	0.37243	-0.273
Mof_N 	N 	0.51816	0.87457	0.37408	-0.143
Mof_N 	N 	0.45153	0.61767	0.38181	-0.143
Mof_N 	N 	0.6287	0.448	0.38463	-0.273
Mof_N 	N 	0.15301	0.45306	0.87243	-0.273
Mof_N 	N 	0.98184	0.62543	0.87408	-0.142
Mof_N 	N 	0.04847	0.88233	0.88181	-0.143
Mof_N 	N 	0.8713	0.052	0.88463	-0.273
Mof_O 	O 	0.5004	0.86432	0.98481	-0.222
Mof_O 	O 	0.54698	0.63346	0.99236	-0.232
Mof_O 	O 	0.54381	0.62864	0.77048	-0.223
Mof_O 	O 	0.47159	0.85819	0.76419	-0.224
Mof_O 	O 	0.77211	0.14542	0.80385	-0.447
Mof_O 	O 	0.77985	0.08019	0.73403	-0.305
Mof_O 	O 	0.76602	0.41309	0.51706	-0.313
Mof_O 	O 	0.76207	0.34956	0.44389	-0.438
Mof_O 	O 	0.9996	0.63568	0.48481	-0.222
Mof_O 	O 	0.95302	0.86654	0.49236	-0.232
Mof_O 	O 	0.95619	0.87136	0.27048	-0.223
Mof_O 	O 	0.02841	0.64181	0.26419	-0.224
Mof_O 	O 	0.72789	0.35458	0.30385	-0.447
Mof_O 	O 	0.72015	0.41981	0.23403	-0.305
Mof_O 	O 	0.73398	0.08691	0.01706	-0.313
Mof_O 	O 	0.73793	0.15044	0.94389	-0.439
Mof_O 	O 	0.4996	0.86432	0.48481	-0.222
Mof_O 	O 	0.45302	0.63346	0.49236	-0.232
Mof_O 	O 	0.45619	0.62864	0.27048	-0.223
Mof_O 	O 	0.52841	0.85819	0.26419	-0.224
Mof_O 	O 	0.22789	0.14542	0.30385	-0.447
Mof_O 	O 	0.22015	0.08019	0.23403	-0.305
Mof_O 	O 	0.23398	0.41309	0.01706	-0.313
Mof_O 	O 	0.23793	0.34956	0.94389	-0.438
Mof_O 	O 	0.0004	0.63568	0.98481	-0.22
Mof_O 	O 	0.04698	0.86654	0.99236	-0.232
Mof_O 	O 	0.04381	0.87136	0.77048	-0.223
Mof_O 	O 	0.97159	0.64181	0.76419	-0.224
Mof_O 	O 	0.27211	0.35458	0.80385	-0.447
Mof_O 	O 	0.27985	0.41981	0.73403	-0.305
Mof_O 	O 	0.26602	0.08691	0.51706	-0.313
Mof_O 	O 	0.26207	0.15044	0.44389	-0.438
_end
