data_functionalizedCrystal
_audit_creation_method	'EQeq! by Chris Wilmer'
_symmetry_space_group_name_H-M	'P1'
_symmetry_Int_Tables_number	1
_symmetry_cell_setting	triclinic
loop_
_symmetry_equiv_pos_as_xyz
  x,y,z
_cell_length_a	9.924
_cell_length_b	11.738
_cell_length_c	15.203
_cell_angle_alpha	94.77
_cell_angle_beta	98.94
_cell_angle_gamma	112.62
loop_
_atom_site_label
_atom_site_type_symbol
_atom_site_fract_x
_atom_site_fract_y
_atom_site_fract_z
_atom_site_charge
Mof_Zn	Zn	0.98544	0.06757	0.79206	1.178
Mof_Zn	Zn	0.44328	0.1086	0.56835	1.183
Mof_Zn	Zn	0.11375	0.81516	0.83346	1.206
Mof_Zn	Zn	0.01456	0.93243	0.20794	1.201
Mof_Zn	Zn	0.55672	0.8914	0.43165	1.19
Mof_Zn	Zn	0.88625	0.18484	0.16654	1.191
Mof_Zn	Zn	0.5	0	-0	1.128
Mof_H 	H 	0.7698	0.5368	0.9401	0.25
Mof_H 	H 	0.2628	0.6687	0.5905	0.253
Mof_H 	H 	0.6818	0.9651	0.8555	0.04
Mof_H 	H 	0.0634	0.1772	0.0092	-0.057
Mof_H 	H 	0.7107	0.1528	0.7312	-0.046
Mof_H 	H 	0.8276	0.9325	0.5887	-0.043
Mof_H 	H 	0.1731	0.1378	0.6394	-0.02
Mof_H 	H 	0.3556	0.9119	0.7082	-0.025
Mof_H 	H 	0.2016	0.4905	0.8327	0.087
Mof_H 	H 	0.534	0.3792	0.8986	0.103
Mof_H 	H 	0.6258	0.7458	0.913	0.126
Mof_H 	H 	0.6996	0.5026	0.675	0.084
Mof_H 	H 	0.2956	0.4821	0.5655	0.12
Mof_H 	H 	0.6062	0.8039	0.7081	0.121
Mof_H 	H 	0.2302	0.4632	0.0599	0.236
Mof_H 	H 	0.7372	0.3313	0.4095	0.246
Mof_H 	H 	0.3182	0.0349	0.1445	-0.076
Mof_H 	H 	0.9366	0.8228	0.9908	0.063
Mof_H 	H 	0.2893	0.8472	0.2688	-0.044
Mof_H 	H 	0.1724	0.0675	0.4113	-0.022
Mof_H 	H 	0.8269	0.8622	0.3606	-0.022
Mof_H 	H 	0.6444	0.0881	0.2918	-0.009
Mof_H 	H 	0.7984	0.5095	0.1673	0.071
Mof_H 	H 	0.466	0.6208	0.1014	0.09
Mof_H 	H 	0.3742	0.2542	0.087	0.104
Mof_H 	H 	0.3004	0.4974	0.325	0.086
Mof_H 	H 	0.7044	0.5179	0.4345	0.116
Mof_H 	H 	0.3938	0.1961	0.2919	0.111
Mof_C 	C 	0.7544	0.0147	0.9053	0.003
Mof_C 	C 	0.9619	0.1296	0.9885	0.182
Mof_C 	C 	0.7129	0.0976	0.6844	0.099
Mof_C 	C 	0.7758	0.9782	0.6075	0.168
Mof_C 	C 	0.1942	0.077	0.6668	0.099
Mof_C 	C 	0.2933	0.9543	0.7038	0.138
Mof_C 	C 	0.3489	0.7347	0.8663	0.337
Mof_C 	C 	0.2389	0.283	0.8525	0.284
Mof_C 	C 	0.4049	0.6343	0.8734	-0.004
Mof_C 	C 	0.3023	0.5097	0.8534	-0.063
Mof_C 	C 	0.3506	0.4146	0.8644	0.028
Mof_C 	C 	0.5013	0.4429	0.8918	-0.199
Mof_C 	C 	0.6031	0.5665	0.9091	0.286
Mof_C 	C 	0.5568	0.6631	0.9007	-0.177
Mof_C 	C 	0.8285	0.7405	0.7552	0.317
Mof_C 	C 	0.4416	0.336	0.5818	0.274
Mof_C 	C 	0.6769	0.6655	0.6993	0.016
Mof_C 	C 	0.6329	0.5405	0.6646	-0.079
Mof_C 	C 	0.4914	0.4726	0.6151	0.035
Mof_C 	C 	0.3914	0.5282	0.5991	-0.219
Mof_C 	C 	0.4351	0.6523	0.6332	0.287
Mof_C 	C 	0.5778	0.7206	0.6842	-0.196
Mof_C 	C 	0.2456	0.9853	0.0947	0.167
Mof_C 	C 	0.0381	0.8704	0.0115	-0.022
Mof_C 	C 	0.2871	0.9024	0.3156	0.124
Mof_C 	C 	0.2242	0.0218	0.3925	0.073
Mof_C 	C 	0.8058	0.923	0.3332	0.113
Mof_C 	C 	0.7067	0.0457	0.2962	0.033
Mof_C 	C 	0.6511	0.2653	0.1337	0.342
Mof_C 	C 	0.7611	0.717	0.1475	0.282
Mof_C 	C 	0.5951	0.3657	0.1266	-0.033
Mof_C 	C 	0.6977	0.4903	0.1466	-0.057
Mof_C 	C 	0.6494	0.5854	0.1356	0.004
Mof_C 	C 	0.4987	0.5571	0.1082	-0.195
Mof_C 	C 	0.3969	0.4335	0.0909	0.26
Mof_C 	C 	0.4432	0.3369	0.0993	-0.17
Mof_C 	C 	0.1715	0.2595	0.2448	0.324
Mof_C 	C 	0.5584	0.664	0.4182	0.273
Mof_C 	C 	0.3231	0.3345	0.3007	0.01
Mof_C 	C 	0.3671	0.4595	0.3354	-0.075
Mof_C 	C 	0.5086	0.5274	0.3849	0.034
Mof_C 	C 	0.6086	0.4718	0.4009	-0.216
Mof_C 	C 	0.5649	0.3477	0.3668	0.282
Mof_C 	C 	0.4222	0.2794	0.3158	-0.19
Mof_N 	N 	0.7238	0.0399	0.9841	-0.208
Mof_N 	N 	0.9002	0.0675	0.9037	-0.284
Mof_N 	N 	0.8602	0.1145	0.0384	-0.32
Mof_N 	N 	0.8164	0.0501	0.688	-0.31
Mof_N 	N 	0.6142	0.0575	0.6075	-0.278
Mof_N 	N 	0.6564	0.9784	0.5579	-0.251
Mof_N 	N 	0.1213	0.0175	0.7257	-0.254
Mof_N 	N 	0.1856	0.9356	0.7499	-0.247
Mof_N 	N 	0.3025	0.0409	0.6501	-0.312
Mof_N 	N 	0.2762	0.9601	0.0159	-0.267
Mof_N 	N 	0.0998	0.9325	0.0963	-0.264
Mof_N 	N 	0.1398	0.8855	0.9616	-0.201
Mof_N 	N 	0.1836	0.9499	0.312	-0.252
Mof_N 	N 	0.3858	0.9425	0.3925	-0.24
Mof_N 	N 	0.3436	0.0216	0.4421	-0.272
Mof_N 	N 	0.8787	0.9825	0.2743	-0.225
Mof_N 	N 	0.8144	0.0644	0.2501	-0.275
Mof_N 	N 	0.6975	0.9591	0.3499	-0.262
Mof_O 	O 	0.4342	0.8484	0.8886	-0.461
Mof_O 	O 	0.2086	0.6975	0.8368	-0.45
Mof_O 	O 	0.108	0.2552	0.8054	-0.408
Mof_O 	O 	0.2712	0.2017	0.8886	-0.324
Mof_O 	O 	0.7536	0.5998	0.9362	-0.431
Mof_O 	O 	0.8643	0.8487	0.7908	-0.439
Mof_O 	O 	0.921	0.6869	0.7647	-0.433
Mof_O 	O 	0.5399	0.2893	0.5985	-0.455
Mof_O 	O 	0.3117	0.2708	0.542	-0.315
Mof_O 	O 	0.3444	0.7158	0.621	-0.457
Mof_O 	O 	0.5658	0.1516	0.1114	-0.505
Mof_O 	O 	0.7914	0.3025	0.1632	-0.475
Mof_O 	O 	0.892	0.7448	0.1946	-0.429
Mof_O 	O 	0.7288	0.7983	0.1114	-0.344
Mof_O 	O 	0.2464	0.4002	0.0638	-0.438
Mof_O 	O 	0.1357	0.1513	0.2092	-0.463
Mof_O 	O 	0.079	0.3131	0.2353	-0.422
Mof_O 	O 	0.4601	0.7107	0.4015	-0.45
Mof_O 	O 	0.6883	0.7292	0.458	-0.314
Mof_O 	O 	0.6556	0.2842	0.379	-0.464
_end
