data_functionalizedCrystal
_audit_creation_method	'EQeq! by Chris Wilmer'
_symmetry_space_group_name_H-M	'P1'
_symmetry_Int_Tables_number	1
_symmetry_cell_setting	triclinic
loop_
_symmetry_equiv_pos_as_xyz
  x,y,z
_cell_length_a	9.8824
_cell_length_b	11.548
_cell_length_c	15.648
_cell_angle_alpha	89.784
_cell_angle_beta	76.441
_cell_angle_gamma	75.603
loop_
_atom_site_label
_atom_site_type_symbol
_atom_site_fract_x
_atom_site_fract_y
_atom_site_fract_z
_atom_site_charge
Mof_Zn	Zn	0.15965	0.97354	0.97675	1.215
Mof_O 	O 	0.16025	0.85651	0.07343	-0.458
Mof_O 	O 	0.92141	0.89373	0.09997	-0.466
Mof_O 	O 	0.88267	0.14338	0.10536	-0.467
Mof_O 	O 	0.12352	0.10575	0.07072	-0.457
Mof_N 	N 	0.36558	0.96364	0.9113	-0.265
Mof_C 	C 	0.00022	0.15542	0.11732	0.399
Mof_C 	C 	0.99358	0.23526	0.19481	-0.138
Mof_C 	C 	0.10768	0.28499	0.196	0.067
Mof_H 	H 	0.1868	0.271	0.1479	0.024
Mof_C 	C 	0.1042	0.35543	0.26851	-0.134
Mof_H 	H 	0.1799	0.39	0.2682	0.079
Mof_C 	C 	0.9878	0.37474	0.34192	0.076
Mof_C 	C 	0.875	0.32375	0.34075	-0.137
Mof_H 	H 	0.7976	0.3351	0.3897	0.078
Mof_C 	C 	0.8764	0.25591	0.26709	0.064
Mof_H 	H 	0.7987	0.2244	0.2663	0.018
Mof_C 	C 	0.9904	0.44284	0.42264	-0.014
Mof_C 	C 	0.0266	0.61163	0.49691	-0.064
Mof_H 	H 	0.0453	0.6868	0.4946	0.055
Mof_C 	C 	0.01652	0.5571	0.41991	-0.017
Mof_C 	C 	0.4286	0.051	0.92182	0.115
Mof_H 	H 	0.3856	0.1068	0.9692	-0.008
Mof_C 	C 	0.5549	0.062	0.86535	-0.194
Mof_H 	H 	0.5964	0.1228	0.876	0.105
Mof_C 	C 	0.6198	0.98163	0.79236	0.15
Mof_C 	C 	0.7449	0.99977	0.72706	-0.13
Mof_H 	H 	0.8004	0.0454	0.7442	0.083
Mof_C 	C 	0.557	0.88829	0.78402	-0.189
Mof_H 	H 	0.5993	0.8298	0.7383	0.097
Mof_C 	C 	0.4318	0.8827	0.8438	0.105
Mof_H 	H 	0.3914	0.8197	0.8369	-0.009
Mof_C 	C 	0.02528	0.62624	0.33843	0.083
Mof_C 	C 	0.1541	0.64707	0.29302	-0.148
Mof_H 	H 	0.2375	0.6156	0.312	0.081
Mof_C 	C 	0.0396	0.84429	0.1157	0.397
Mof_C 	C 	0.0367	0.76465	0.19193	-0.146
Mof_C 	C 	0.9075	0.7434	0.23728	0.071
Mof_H 	H 	0.8236	0.7766	0.2192	0.022
Mof_C 	C 	0.9026	0.6728	0.30963	-0.143
Mof_H 	H 	0.8161	0.657	0.3386	0.083
Mof_C 	C 	0.1601	0.71446	0.21936	0.071
Mof_H 	H 	0.2478	0.7259	0.1883	0.016
Mof_C 	C 	0.7829	0.95394	0.64417	-0.026
Mof_H 	H 	0.7322	0.9015	0.6306	0.04
Mof_C 	C 	0.89597	0.97731	0.57228	0.031
Mof_C 	C 	0.9021	0.93953	0.48602	-0.054
Mof_H 	H 	0.8364	0.8986	0.4765	0.05
Mof_C 	C 	0.9965	0.0382	0.58508	-0.069
Mof_H 	H 	0.995	0.0637	0.6417	0.058
Mof_Zn	Zn	0.84035	0.02646	0.02325	1.215
Mof_O 	O 	0.83975	0.14349	0.92657	-0.458
Mof_O 	O 	0.07859	0.10627	0.90003	-0.466
Mof_O 	O 	0.11733	0.85662	0.89464	-0.467
Mof_O 	O 	0.87648	0.89425	0.92928	-0.457
Mof_N 	N 	0.63442	0.03636	0.0887	-0.265
Mof_C 	C 	0.99978	0.84458	0.88268	0.399
Mof_C 	C 	0.00642	0.76474	0.80519	-0.138
Mof_C 	C 	0.89232	0.71501	0.804	0.067
Mof_H 	H 	0.8132	0.729	0.8521	0.024
Mof_C 	C 	0.8958	0.64457	0.73149	-0.134
Mof_H 	H 	0.8201	0.61	0.7318	0.079
Mof_C 	C 	0.0122	0.62526	0.65808	0.076
Mof_C 	C 	0.125	0.67625	0.65925	-0.137
Mof_H 	H 	0.2024	0.6649	0.6103	0.078
Mof_C 	C 	0.1236	0.74409	0.73291	0.064
Mof_H 	H 	0.2013	0.7756	0.7337	0.018
Mof_C 	C 	0.0096	0.55716	0.57736	-0.014
Mof_C 	C 	0.9734	0.38837	0.50309	-0.064
Mof_H 	H 	0.9547	0.3132	0.5054	0.055
Mof_C 	C 	0.98348	0.4429	0.58009	-0.017
Mof_C 	C 	0.5714	0.949	0.07818	0.115
Mof_H 	H 	0.6144	0.8932	0.0308	-0.008
Mof_C 	C 	0.4451	0.938	0.13465	-0.194
Mof_H 	H 	0.4036	0.8772	0.124	0.105
Mof_C 	C 	0.3802	0.01837	0.20764	0.15
Mof_C 	C 	0.2551	0.00023	0.27294	-0.13
Mof_H 	H 	0.1996	0.9546	0.2558	0.083
Mof_C 	C 	0.443	0.11171	0.21598	-0.189
Mof_H 	H 	0.4007	0.1702	0.2617	0.097
Mof_C 	C 	0.5682	0.1173	0.1562	0.105
Mof_H 	H 	0.6086	0.1803	0.1631	-0.009
Mof_C 	C 	0.97472	0.37376	0.66157	0.083
Mof_C 	C 	0.8459	0.35293	0.70698	-0.148
Mof_H 	H 	0.7625	0.3844	0.688	0.081
Mof_C 	C 	0.9604	0.15571	0.8843	0.397
Mof_C 	C 	0.9633	0.23535	0.80807	-0.146
Mof_C 	C 	0.0925	0.2566	0.76272	0.071
Mof_H 	H 	0.1764	0.2234	0.7808	0.022
Mof_C 	C 	0.0974	0.3272	0.69037	-0.143
Mof_H 	H 	0.1839	0.343	0.6614	0.083
Mof_C 	C 	0.8399	0.28554	0.78064	0.071
Mof_H 	H 	0.7522	0.2741	0.8117	0.016
Mof_C 	C 	0.2171	0.04606	0.35583	-0.026
Mof_H 	H 	0.2678	0.0985	0.3694	0.04
Mof_C 	C 	0.10403	0.02269	0.42772	0.031
Mof_C 	C 	0.0979	0.06047	0.51398	-0.054
Mof_H 	H 	0.1636	0.1014	0.5235	0.05
Mof_C 	C 	0.0035	0.9618	0.41492	-0.069
Mof_H 	H 	0.005	0.9363	0.3583	0.058
_end
