data_functionalizedCrystal
_audit_creation_method	'EQeq! by Chris Wilmer'
_symmetry_space_group_name_H-M	'P1'
_symmetry_Int_Tables_number	1
_symmetry_cell_setting	triclinic
loop_
_symmetry_equiv_pos_as_xyz
  x,y,z
_cell_length_a	28.9736
_cell_length_b	28.9736
_cell_length_c	28.9736
_cell_angle_alpha	90
_cell_angle_beta	90
_cell_angle_gamma	90
loop_
_atom_site_label
_atom_site_type_symbol
_atom_site_fract_x
_atom_site_fract_y
_atom_site_fract_z
_atom_site_charge
Mof_O 	O 	0.99479	0.30507	0.12512	-0.534
Mof_O 	O 	0.95206	0.24119	0.1249	-0.495
Mof_O 	O 	0.91759	0.30885	0.12763	-0.953
Mof_C 	C 	0.9549	0.2857	0.12587	0.681
Mof_O 	O 	0.99479	0.80507	0.62512	-0.533
Mof_O 	O 	0.95206	0.74119	0.6249	-0.492
Mof_O 	O 	0.91759	0.80885	0.62763	-0.959
Mof_C 	C 	0.9549	0.7857	0.62587	0.685
Mof_O 	O 	0.49479	0.30507	0.62512	-0.562
Mof_O 	O 	0.45206	0.24119	0.6249	-0.504
Mof_O 	O 	0.41759	0.30885	0.62763	-0.958
Mof_C 	C 	0.4549	0.2857	0.62587	0.685
Mof_O 	O 	0.49479	0.80507	0.12512	-0.565
Mof_O 	O 	0.45206	0.74119	0.1249	-0.508
Mof_O 	O 	0.41759	0.80885	0.12763	-0.96
Mof_C 	C 	0.4549	0.7857	0.12587	0.684
Mof_O 	O 	0.25521	0.44493	0.62512	-0.562
Mof_O 	O 	0.29794	0.50881	0.6249	-0.504
Mof_O 	O 	0.33241	0.44115	0.62763	-0.958
Mof_C 	C 	0.2951	0.4643	0.62587	0.685
Mof_O 	O 	0.25521	0.94493	0.12512	-0.568
Mof_O 	O 	0.29794	0.00881	0.1249	-0.559
Mof_O 	O 	0.33241	0.94115	0.12763	-0.961
Mof_C 	C 	0.2951	0.9643	0.12587	0.745
Mof_O 	O 	0.75521	0.44493	0.12512	-0.565
Mof_O 	O 	0.79794	0.50881	0.1249	-0.508
Mof_O 	O 	0.83241	0.44115	0.12763	-0.96
Mof_C 	C 	0.7951	0.4643	0.12587	0.684
Mof_O 	O 	0.75521	0.94493	0.62512	-0.566
Mof_O 	O 	0.79794	0.00881	0.6249	-0.556
Mof_O 	O 	0.83241	0.94115	0.62763	-0.966
Mof_C 	C 	0.7951	0.9643	0.62587	0.749
Mof_O 	O 	0.75521	0.80507	0.12488	-0.565
Mof_O 	O 	0.79794	0.74119	0.1251	-0.509
Mof_O 	O 	0.83241	0.80885	0.12237	-0.964
Mof_C 	C 	0.7951	0.7857	0.12413	0.686
Mof_O 	O 	0.75521	0.30507	0.62488	-0.563
Mof_O 	O 	0.79794	0.24119	0.6251	-0.505
Mof_O 	O 	0.83241	0.30885	0.62237	-0.961
Mof_C 	C 	0.7951	0.2857	0.62413	0.687
Mof_O 	O 	0.25521	0.80507	0.62488	-0.563
Mof_O 	O 	0.29794	0.74119	0.6251	-0.504
Mof_O 	O 	0.33241	0.80885	0.62237	-0.961
Mof_C 	C 	0.2951	0.7857	0.62413	0.687
Mof_O 	O 	0.25521	0.30507	0.12488	-0.565
Mof_O 	O 	0.29794	0.24119	0.1251	-0.508
Mof_O 	O 	0.33241	0.30885	0.12237	-0.957
Mof_C 	C 	0.2951	0.2857	0.12413	0.683
Mof_O 	O 	0.49479	0.94493	0.62488	-0.565
Mof_O 	O 	0.45206	0.00881	0.6251	-0.555
Mof_O 	O 	0.41759	0.94115	0.62237	-0.962
Mof_C 	C 	0.4549	0.9643	0.62413	0.747
Mof_O 	O 	0.49479	0.44493	0.12488	-0.564
Mof_O 	O 	0.45206	0.50881	0.1251	-0.507
Mof_O 	O 	0.41759	0.44115	0.12237	-0.957
Mof_C 	C 	0.4549	0.4643	0.12413	0.683
Mof_O 	O 	0.99479	0.94493	0.12488	-0.537
Mof_O 	O 	0.95206	0.00881	0.1251	-0.546
Mof_O 	O 	0.91759	0.94115	0.12237	-0.959
Mof_C 	C 	0.9549	0.9643	0.12413	0.743
Mof_O 	O 	0.99479	0.44493	0.62488	-0.532
Mof_O 	O 	0.95206	0.50881	0.6251	-0.492
Mof_O 	O 	0.91759	0.44115	0.62237	-0.955
Mof_C 	C 	0.9549	0.4643	0.62413	0.683
Mof_O 	O 	0.12512	0.99479	0.30507	-0.535
Mof_O 	O 	0.1249	0.95206	0.24119	-0.496
Mof_O 	O 	0.12763	0.91759	0.30885	-0.954
Mof_C 	C 	0.12587	0.9549	0.2857	0.681
Mof_O 	O 	0.12512	0.49479	0.80507	-0.565
Mof_O 	O 	0.1249	0.45206	0.74119	-0.508
Mof_O 	O 	0.12763	0.41759	0.80885	-0.96
Mof_C 	C 	0.12587	0.4549	0.7857	0.684
Mof_O 	O 	0.62512	0.99479	0.80507	-0.533
Mof_O 	O 	0.6249	0.95206	0.74119	-0.492
Mof_O 	O 	0.62763	0.91759	0.80885	-0.959
Mof_C 	C 	0.62587	0.9549	0.7857	0.685
Mof_O 	O 	0.62512	0.49479	0.30507	-0.562
Mof_O 	O 	0.6249	0.45206	0.24119	-0.504
Mof_O 	O 	0.62763	0.41759	0.30885	-0.958
Mof_C 	C 	0.62587	0.4549	0.2857	0.685
Mof_O 	O 	0.62512	0.25521	0.44493	-0.562
Mof_O 	O 	0.6249	0.29794	0.50881	-0.504
Mof_O 	O 	0.62763	0.33241	0.44115	-0.958
Mof_C 	C 	0.62587	0.2951	0.4643	0.685
Mof_O 	O 	0.62512	0.75521	0.94493	-0.566
Mof_O 	O 	0.6249	0.79794	0.00881	-0.556
Mof_O 	O 	0.62763	0.83241	0.94115	-0.966
Mof_C 	C 	0.62587	0.7951	0.9643	0.749
Mof_O 	O 	0.12512	0.25521	0.94493	-0.568
Mof_O 	O 	0.1249	0.29794	0.00881	-0.559
Mof_O 	O 	0.12763	0.33241	0.94115	-0.961
Mof_C 	C 	0.12587	0.2951	0.9643	0.745
Mof_O 	O 	0.12512	0.75521	0.44493	-0.565
Mof_O 	O 	0.1249	0.79794	0.50881	-0.508
Mof_O 	O 	0.12763	0.83241	0.44115	-0.96
Mof_C 	C 	0.12587	0.7951	0.4643	0.684
Mof_O 	O 	0.12488	0.75521	0.80507	-0.565
Mof_O 	O 	0.1251	0.79794	0.74119	-0.509
Mof_O 	O 	0.12237	0.83241	0.80885	-0.964
Mof_C 	C 	0.12413	0.7951	0.7857	0.686
Mof_O 	O 	0.12488	0.25521	0.30507	-0.565
Mof_O 	O 	0.1251	0.29794	0.24119	-0.508
Mof_O 	O 	0.12237	0.33241	0.30885	-0.957
Mof_C 	C 	0.12413	0.2951	0.2857	0.683
Mof_O 	O 	0.62488	0.75521	0.30507	-0.563
Mof_O 	O 	0.6251	0.79794	0.24119	-0.505
Mof_O 	O 	0.62237	0.83241	0.30885	-0.961
Mof_C 	C 	0.62413	0.7951	0.2857	0.687
Mof_O 	O 	0.62488	0.25521	0.80507	-0.563
Mof_O 	O 	0.6251	0.29794	0.74119	-0.504
Mof_O 	O 	0.62237	0.33241	0.80885	-0.961
Mof_C 	C 	0.62413	0.2951	0.7857	0.687
Mof_O 	O 	0.62488	0.49479	0.94493	-0.565
Mof_O 	O 	0.6251	0.45206	0.00881	-0.555
Mof_O 	O 	0.62237	0.41759	0.94115	-0.962
Mof_C 	C 	0.62413	0.4549	0.9643	0.747
Mof_O 	O 	0.62488	0.99479	0.44493	-0.532
Mof_O 	O 	0.6251	0.95206	0.50881	-0.492
Mof_O 	O 	0.62237	0.91759	0.44115	-0.955
Mof_C 	C 	0.62413	0.9549	0.4643	0.683
Mof_O 	O 	0.12488	0.49479	0.44493	-0.564
Mof_O 	O 	0.1251	0.45206	0.50881	-0.507
Mof_O 	O 	0.12237	0.41759	0.44115	-0.957
Mof_C 	C 	0.12413	0.4549	0.4643	0.683
Mof_O 	O 	0.12488	0.99479	0.94493	-0.537
Mof_O 	O 	0.1251	0.95206	0.00881	-0.546
Mof_O 	O 	0.12237	0.91759	0.94115	-0.959
Mof_C 	C 	0.12413	0.9549	0.9643	0.743
Mof_O 	O 	0.30507	0.12512	0.99479	-0.535
Mof_O 	O 	0.24119	0.1249	0.95206	-0.496
Mof_O 	O 	0.30885	0.12763	0.91759	-0.954
Mof_C 	C 	0.2857	0.12587	0.9549	0.681
Mof_O 	O 	0.30507	0.62512	0.49479	-0.562
Mof_O 	O 	0.24119	0.6249	0.45206	-0.504
Mof_O 	O 	0.30885	0.62763	0.41759	-0.958
Mof_C 	C 	0.2857	0.62587	0.4549	0.685
Mof_O 	O 	0.80507	0.12512	0.49479	-0.565
Mof_O 	O 	0.74119	0.1249	0.45206	-0.508
Mof_O 	O 	0.80885	0.12763	0.41759	-0.96
Mof_C 	C 	0.7857	0.12587	0.4549	0.684
Mof_O 	O 	0.80507	0.62512	0.99479	-0.533
Mof_O 	O 	0.74119	0.6249	0.95206	-0.492
Mof_O 	O 	0.80885	0.62763	0.91759	-0.959
Mof_C 	C 	0.7857	0.62587	0.9549	0.685
Mof_O 	O 	0.44493	0.62512	0.25521	-0.562
Mof_O 	O 	0.50881	0.6249	0.29794	-0.504
Mof_O 	O 	0.44115	0.62763	0.33241	-0.958
Mof_C 	C 	0.4643	0.62587	0.2951	0.685
Mof_O 	O 	0.44493	0.12512	0.75521	-0.565
Mof_O 	O 	0.50881	0.1249	0.79794	-0.508
Mof_O 	O 	0.44115	0.12763	0.83241	-0.96
Mof_C 	C 	0.4643	0.12587	0.7951	0.684
Mof_O 	O 	0.94493	0.62512	0.75521	-0.566
Mof_O 	O 	0.00881	0.6249	0.79794	-0.556
Mof_O 	O 	0.94115	0.62763	0.83241	-0.966
Mof_C 	C 	0.9643	0.62587	0.7951	0.749
Mof_O 	O 	0.94493	0.12512	0.25521	-0.568
Mof_O 	O 	0.00881	0.1249	0.29794	-0.559
Mof_O 	O 	0.94115	0.12763	0.33241	-0.961
Mof_C 	C 	0.9643	0.12587	0.2951	0.745
Mof_O 	O 	0.80507	0.12488	0.75521	-0.565
Mof_O 	O 	0.74119	0.1251	0.79794	-0.509
Mof_O 	O 	0.80885	0.12237	0.83241	-0.964
Mof_C 	C 	0.7857	0.12413	0.7951	0.686
Mof_O 	O 	0.80507	0.62488	0.25521	-0.563
Mof_O 	O 	0.74119	0.6251	0.29794	-0.504
Mof_O 	O 	0.80885	0.62237	0.33241	-0.961
Mof_C 	C 	0.7857	0.62413	0.2951	0.687
Mof_O 	O 	0.30507	0.12488	0.25521	-0.565
Mof_O 	O 	0.24119	0.1251	0.29794	-0.508
Mof_O 	O 	0.30885	0.12237	0.33241	-0.957
Mof_C 	C 	0.2857	0.12413	0.2951	0.683
Mof_O 	O 	0.30507	0.62488	0.75521	-0.563
Mof_O 	O 	0.24119	0.6251	0.79794	-0.505
Mof_O 	O 	0.30885	0.62237	0.83241	-0.961
Mof_C 	C 	0.2857	0.62413	0.7951	0.687
Mof_O 	O 	0.94493	0.62488	0.49479	-0.565
Mof_O 	O 	0.00881	0.6251	0.45206	-0.555
Mof_O 	O 	0.94115	0.62237	0.41759	-0.962
Mof_C 	C 	0.9643	0.62413	0.4549	0.747
Mof_O 	O 	0.94493	0.12488	0.99479	-0.537
Mof_O 	O 	0.00881	0.1251	0.95206	-0.546
Mof_O 	O 	0.94115	0.12237	0.91759	-0.959
Mof_C 	C 	0.9643	0.12413	0.9549	0.743
Mof_O 	O 	0.44493	0.62488	0.99479	-0.532
Mof_O 	O 	0.50881	0.6251	0.95206	-0.492
Mof_O 	O 	0.44115	0.62237	0.91759	-0.955
Mof_C 	C 	0.4643	0.62413	0.9549	0.683
Mof_O 	O 	0.44493	0.12488	0.49479	-0.564
Mof_O 	O 	0.50881	0.1251	0.45206	-0.507
Mof_O 	O 	0.44115	0.12237	0.41759	-0.957
Mof_C 	C 	0.4643	0.12413	0.4549	0.683
Mof_O 	O 	0.05507	0.24479	0.87488	-0.555
Mof_O 	O 	0.99119	0.20206	0.8751	-0.444
Mof_O 	O 	0.05885	0.16759	0.87237	-0.947
Mof_C 	C 	0.0357	0.2049	0.87413	0.623
Mof_O 	O 	0.05507	0.74479	0.37488	-0.558
Mof_O 	O 	0.99119	0.70206	0.3751	-0.448
Mof_O 	O 	0.05885	0.66759	0.37237	-0.949
Mof_C 	C 	0.0357	0.7049	0.37413	0.622
Mof_O 	O 	0.55507	0.24479	0.37488	-0.561
Mof_O 	O 	0.49119	0.20206	0.3751	-0.502
Mof_O 	O 	0.55885	0.16759	0.37237	-0.954
Mof_C 	C 	0.5357	0.2049	0.37413	0.683
Mof_O 	O 	0.55507	0.74479	0.87488	-0.558
Mof_O 	O 	0.49119	0.70206	0.8751	-0.498
Mof_O 	O 	0.55885	0.66759	0.87237	-0.959
Mof_C 	C 	0.5357	0.7049	0.87413	0.686
Mof_O 	O 	0.19493	0.50521	0.37488	-0.561
Mof_O 	O 	0.25881	0.54794	0.3751	-0.502
Mof_O 	O 	0.19115	0.58241	0.37237	-0.954
Mof_C 	C 	0.2143	0.5451	0.37413	0.683
Mof_O 	O 	0.19493	0.00521	0.87488	-0.583
Mof_O 	O 	0.25881	0.04794	0.8751	-0.51
Mof_O 	O 	0.19115	0.08241	0.87237	-0.957
Mof_C 	C 	0.2143	0.0451	0.87413	0.686
Mof_O 	O 	0.69493	0.50521	0.87488	-0.559
Mof_O 	O 	0.75881	0.54794	0.8751	-0.499
Mof_O 	O 	0.69115	0.58241	0.87237	-0.959
Mof_C 	C 	0.7143	0.5451	0.87413	0.687
Mof_O 	O 	0.69493	0.00521	0.37488	-0.586
Mof_O 	O 	0.75881	0.04794	0.3751	-0.514
Mof_O 	O 	0.69115	0.08241	0.37237	-0.959
Mof_C 	C 	0.7143	0.0451	0.37413	0.685
Mof_O 	O 	0.55507	0.00521	0.87512	-0.584
Mof_O 	O 	0.49119	0.04794	0.8749	-0.511
Mof_O 	O 	0.55885	0.08241	0.87763	-0.959
Mof_C 	C 	0.5357	0.0451	0.87587	0.687
Mof_O 	O 	0.55507	0.50521	0.37512	-0.562
Mof_O 	O 	0.49119	0.54794	0.3749	-0.503
Mof_O 	O 	0.55885	0.58241	0.37763	-0.958
Mof_C 	C 	0.5357	0.5451	0.37587	0.685
Mof_O 	O 	0.05507	0.00521	0.37512	-0.583
Mof_O 	O 	0.99119	0.04794	0.3749	-0.46
Mof_O 	O 	0.05885	0.08241	0.37763	-0.95
Mof_C 	C 	0.0357	0.0451	0.37587	0.623
Mof_O 	O 	0.05507	0.50521	0.87512	-0.556
Mof_O 	O 	0.99119	0.54794	0.8749	-0.445
Mof_O 	O 	0.05885	0.58241	0.87763	-0.949
Mof_C 	C 	0.0357	0.5451	0.87587	0.624
Mof_O 	O 	0.69493	0.74479	0.37512	-0.561
Mof_O 	O 	0.75881	0.70206	0.3749	-0.502
Mof_O 	O 	0.69115	0.66759	0.37763	-0.958
Mof_C 	C 	0.7143	0.7049	0.37587	0.684
Mof_O 	O 	0.69493	0.24479	0.87512	-0.558
Mof_O 	O 	0.75881	0.20206	0.8749	-0.498
Mof_O 	O 	0.69115	0.16759	0.87763	-0.955
Mof_C 	C 	0.7143	0.2049	0.87587	0.685
Mof_O 	O 	0.19493	0.74479	0.87512	-0.558
Mof_O 	O 	0.25881	0.70206	0.8749	-0.498
Mof_O 	O 	0.19115	0.66759	0.87763	-0.955
Mof_C 	C 	0.2143	0.7049	0.87587	0.685
Mof_O 	O 	0.19493	0.24479	0.37512	-0.56
Mof_O 	O 	0.25881	0.20206	0.3749	-0.501
Mof_O 	O 	0.19115	0.16759	0.37763	-0.951
Mof_C 	C 	0.2143	0.2049	0.37587	0.681
Mof_O 	O 	0.74479	0.37512	0.69493	-0.561
Mof_O 	O 	0.70206	0.3749	0.75881	-0.502
Mof_O 	O 	0.66759	0.37763	0.69115	-0.958
Mof_C 	C 	0.7049	0.37587	0.7143	0.684
Mof_O 	O 	0.74479	0.87512	0.19493	-0.558
Mof_O 	O 	0.70206	0.8749	0.25881	-0.498
Mof_O 	O 	0.66759	0.87763	0.19115	-0.955
Mof_C 	C 	0.7049	0.87587	0.2143	0.685
Mof_O 	O 	0.24479	0.37512	0.19493	-0.56
Mof_O 	O 	0.20206	0.3749	0.25881	-0.501
Mof_O 	O 	0.16759	0.37763	0.19115	-0.951
Mof_C 	C 	0.2049	0.37587	0.2143	0.681
Mof_O 	O 	0.24479	0.87512	0.69493	-0.558
Mof_O 	O 	0.20206	0.8749	0.75881	-0.498
Mof_O 	O 	0.16759	0.87763	0.69115	-0.955
Mof_C 	C 	0.2049	0.87587	0.7143	0.685
Mof_O 	O 	0.00521	0.87512	0.55507	-0.584
Mof_O 	O 	0.04794	0.8749	0.49119	-0.511
Mof_O 	O 	0.08241	0.87763	0.55885	-0.959
Mof_C 	C 	0.0451	0.87587	0.5357	0.687
Mof_O 	O 	0.00521	0.37512	0.05507	-0.583
Mof_O 	O 	0.04794	0.3749	0.99119	-0.46
Mof_O 	O 	0.08241	0.37763	0.05885	-0.95
Mof_C 	C 	0.0451	0.37587	0.0357	0.623
Mof_O 	O 	0.50521	0.87512	0.05507	-0.556
Mof_O 	O 	0.54794	0.8749	0.99119	-0.445
Mof_O 	O 	0.58241	0.87763	0.05885	-0.949
Mof_C 	C 	0.5451	0.87587	0.0357	0.624
Mof_O 	O 	0.50521	0.37512	0.55507	-0.562
Mof_O 	O 	0.54794	0.3749	0.49119	-0.503
Mof_O 	O 	0.58241	0.37763	0.55885	-0.958
Mof_C 	C 	0.5451	0.37587	0.5357	0.685
Mof_O 	O 	0.50521	0.37488	0.19493	-0.561
Mof_O 	O 	0.54794	0.3751	0.25881	-0.502
Mof_O 	O 	0.58241	0.37237	0.19115	-0.954
Mof_C 	C 	0.5451	0.37413	0.2143	0.683
Mof_O 	O 	0.50521	0.87488	0.69493	-0.559
Mof_O 	O 	0.54794	0.8751	0.75881	-0.499
Mof_O 	O 	0.58241	0.87237	0.69115	-0.959
Mof_C 	C 	0.5451	0.87413	0.7143	0.687
Mof_O 	O 	0.00521	0.37488	0.69493	-0.586
Mof_O 	O 	0.04794	0.3751	0.75881	-0.514
Mof_O 	O 	0.08241	0.37237	0.69115	-0.959
Mof_C 	C 	0.0451	0.37413	0.7143	0.685
Mof_O 	O 	0.00521	0.87488	0.19493	-0.583
Mof_O 	O 	0.04794	0.8751	0.25881	-0.51
Mof_O 	O 	0.08241	0.87237	0.19115	-0.957
Mof_C 	C 	0.0451	0.87413	0.2143	0.686
Mof_O 	O 	0.24479	0.87488	0.05507	-0.555
Mof_O 	O 	0.20206	0.8751	0.99119	-0.444
Mof_O 	O 	0.16759	0.87237	0.05885	-0.947
Mof_C 	C 	0.2049	0.87413	0.0357	0.623
Mof_O 	O 	0.24479	0.37488	0.55507	-0.561
Mof_O 	O 	0.20206	0.3751	0.49119	-0.502
Mof_O 	O 	0.16759	0.37237	0.55885	-0.954
Mof_C 	C 	0.2049	0.37413	0.5357	0.683
Mof_O 	O 	0.74479	0.87488	0.55507	-0.558
Mof_O 	O 	0.70206	0.8751	0.49119	-0.498
Mof_O 	O 	0.66759	0.87237	0.55885	-0.959
Mof_C 	C 	0.7049	0.87413	0.5357	0.686
Mof_O 	O 	0.74479	0.37488	0.05507	-0.558
Mof_O 	O 	0.70206	0.3751	0.99119	-0.448
Mof_O 	O 	0.66759	0.37237	0.05885	-0.949
Mof_C 	C 	0.7049	0.37413	0.0357	0.622
Mof_O 	O 	0.87512	0.55507	0.00521	-0.584
Mof_O 	O 	0.8749	0.49119	0.04794	-0.511
Mof_O 	O 	0.87763	0.55885	0.08241	-0.959
Mof_C 	C 	0.87587	0.5357	0.0451	0.687
Mof_O 	O 	0.87512	0.05507	0.50521	-0.556
Mof_O 	O 	0.8749	0.99119	0.54794	-0.445
Mof_O 	O 	0.87763	0.05885	0.58241	-0.949
Mof_C 	C 	0.87587	0.0357	0.5451	0.624
Mof_O 	O 	0.37512	0.55507	0.50521	-0.562
Mof_O 	O 	0.3749	0.49119	0.54794	-0.503
Mof_O 	O 	0.37763	0.55885	0.58241	-0.958
Mof_C 	C 	0.37587	0.5357	0.5451	0.685
Mof_O 	O 	0.37512	0.05507	0.00521	-0.583
Mof_O 	O 	0.3749	0.99119	0.04794	-0.46
Mof_O 	O 	0.37763	0.05885	0.08241	-0.95
Mof_C 	C 	0.37587	0.0357	0.0451	0.623
Mof_O 	O 	0.37512	0.69493	0.74479	-0.561
Mof_O 	O 	0.3749	0.75881	0.70206	-0.502
Mof_O 	O 	0.37763	0.69115	0.66759	-0.958
Mof_C 	C 	0.37587	0.7143	0.7049	0.684
Mof_O 	O 	0.37512	0.19493	0.24479	-0.56
Mof_O 	O 	0.3749	0.25881	0.20206	-0.501
Mof_O 	O 	0.37763	0.19115	0.16759	-0.951
Mof_C 	C 	0.37587	0.2143	0.2049	0.681
Mof_O 	O 	0.87512	0.69493	0.24479	-0.558
Mof_O 	O 	0.8749	0.75881	0.20206	-0.498
Mof_O 	O 	0.87763	0.69115	0.16759	-0.955
Mof_C 	C 	0.87587	0.7143	0.2049	0.685
Mof_O 	O 	0.87512	0.19493	0.74479	-0.558
Mof_O 	O 	0.8749	0.25881	0.70206	-0.498
Mof_O 	O 	0.87763	0.19115	0.66759	-0.955
Mof_C 	C 	0.87587	0.2143	0.7049	0.685
Mof_O 	O 	0.87488	0.05507	0.24479	-0.555
Mof_O 	O 	0.8751	0.99119	0.20206	-0.444
Mof_O 	O 	0.87237	0.05885	0.16759	-0.947
Mof_C 	C 	0.87413	0.0357	0.2049	0.623
Mof_O 	O 	0.87488	0.55507	0.74479	-0.558
Mof_O 	O 	0.8751	0.49119	0.70206	-0.498
Mof_O 	O 	0.87237	0.55885	0.66759	-0.959
Mof_C 	C 	0.87413	0.5357	0.7049	0.686
Mof_O 	O 	0.37488	0.05507	0.74479	-0.558
Mof_O 	O 	0.3751	0.99119	0.70206	-0.448
Mof_O 	O 	0.37237	0.05885	0.66759	-0.949
Mof_C 	C 	0.37413	0.0357	0.7049	0.622
Mof_O 	O 	0.37488	0.55507	0.24479	-0.561
Mof_O 	O 	0.3751	0.49119	0.20206	-0.502
Mof_O 	O 	0.37237	0.55885	0.16759	-0.954
Mof_C 	C 	0.37413	0.5357	0.2049	0.683
Mof_O 	O 	0.37488	0.19493	0.50521	-0.561
Mof_O 	O 	0.3751	0.25881	0.54794	-0.502
Mof_O 	O 	0.37237	0.19115	0.58241	-0.954
Mof_C 	C 	0.37413	0.2143	0.5451	0.683
Mof_O 	O 	0.37488	0.69493	0.00521	-0.586
Mof_O 	O 	0.3751	0.75881	0.04794	-0.514
Mof_O 	O 	0.37237	0.69115	0.08241	-0.959
Mof_C 	C 	0.37413	0.7143	0.0451	0.685
Mof_O 	O 	0.87488	0.19493	0.00521	-0.583
Mof_O 	O 	0.8751	0.25881	0.04794	-0.51
Mof_O 	O 	0.87237	0.19115	0.08241	-0.957
Mof_C 	C 	0.87413	0.2143	0.0451	0.686
Mof_O 	O 	0.87488	0.69493	0.50521	-0.559
Mof_O 	O 	0.8751	0.75881	0.54794	-0.499
Mof_O 	O 	0.87237	0.69115	0.58241	-0.959
Mof_C 	C 	0.87413	0.7143	0.5451	0.687
Mof_O 	O 	0.00521	0.69493	0.87488	-0.584
Mof_O 	O 	0.04794	0.75881	0.8751	-0.511
Mof_O 	O 	0.08241	0.69115	0.87237	-0.96
Mof_C 	C 	0.0451	0.7143	0.87413	0.687
Mof_O 	O 	0.00521	0.19493	0.37488	-0.585
Mof_O 	O 	0.04794	0.25881	0.3751	-0.514
Mof_O 	O 	0.08241	0.19115	0.37237	-0.956
Mof_C 	C 	0.0451	0.2143	0.37413	0.683
Mof_O 	O 	0.50521	0.69493	0.37488	-0.561
Mof_O 	O 	0.54794	0.75881	0.3751	-0.503
Mof_O 	O 	0.58241	0.69115	0.37237	-0.958
Mof_C 	C 	0.5451	0.7143	0.37413	0.684
Mof_O 	O 	0.50521	0.19493	0.87488	-0.558
Mof_O 	O 	0.54794	0.25881	0.8751	-0.499
Mof_O 	O 	0.58241	0.19115	0.87237	-0.956
Mof_C 	C 	0.5451	0.2143	0.87413	0.685
Mof_O 	O 	0.74479	0.55507	0.37488	-0.561
Mof_O 	O 	0.70206	0.49119	0.3751	-0.502
Mof_O 	O 	0.66759	0.55885	0.37237	-0.958
Mof_C 	C 	0.7049	0.5357	0.37413	0.684
Mof_O 	O 	0.74479	0.05507	0.87488	-0.556
Mof_O 	O 	0.70206	0.99119	0.8751	-0.444
Mof_O 	O 	0.66759	0.05885	0.87237	-0.95
Mof_C 	C 	0.7049	0.0357	0.87413	0.624
Mof_O 	O 	0.24479	0.55507	0.87488	-0.558
Mof_O 	O 	0.20206	0.49119	0.8751	-0.498
Mof_O 	O 	0.16759	0.55885	0.87237	-0.956
Mof_C 	C 	0.2049	0.5357	0.87413	0.685
Mof_O 	O 	0.24479	0.05507	0.37488	-0.558
Mof_O 	O 	0.20206	0.99119	0.3751	-0.447
Mof_O 	O 	0.16759	0.05885	0.37237	-0.945
Mof_C 	C 	0.2049	0.0357	0.37413	0.621
Mof_O 	O 	0.24479	0.19493	0.87512	-0.558
Mof_O 	O 	0.20206	0.25881	0.8749	-0.498
Mof_O 	O 	0.16759	0.19115	0.87763	-0.952
Mof_C 	C 	0.2049	0.2143	0.87587	0.683
Mof_O 	O 	0.24479	0.69493	0.37512	-0.56
Mof_O 	O 	0.20206	0.75881	0.3749	-0.502
Mof_O 	O 	0.16759	0.69115	0.37763	-0.954
Mof_C 	C 	0.2049	0.7143	0.37587	0.683
Mof_O 	O 	0.74479	0.19493	0.37512	-0.56
Mof_O 	O 	0.70206	0.25881	0.3749	-0.502
Mof_O 	O 	0.66759	0.19115	0.37763	-0.954
Mof_C 	C 	0.7049	0.2143	0.37587	0.683
Mof_O 	O 	0.74479	0.69493	0.87512	-0.558
Mof_O 	O 	0.70206	0.75881	0.8749	-0.498
Mof_O 	O 	0.66759	0.69115	0.87763	-0.958
Mof_C 	C 	0.7049	0.7143	0.87587	0.686
Mof_O 	O 	0.50521	0.05507	0.37512	-0.559
Mof_O 	O 	0.54794	0.99119	0.3749	-0.448
Mof_O 	O 	0.58241	0.05885	0.37763	-0.948
Mof_C 	C 	0.5451	0.0357	0.37587	0.622
Mof_O 	O 	0.50521	0.55507	0.87512	-0.559
Mof_O 	O 	0.54794	0.49119	0.8749	-0.499
Mof_O 	O 	0.58241	0.55885	0.87763	-0.958
Mof_C 	C 	0.5451	0.5357	0.87587	0.687
Mof_O 	O 	0.00521	0.05507	0.87512	-0.581
Mof_O 	O 	0.04794	0.99119	0.8749	-0.457
Mof_O 	O 	0.08241	0.05885	0.87763	-0.95
Mof_C 	C 	0.0451	0.0357	0.87587	0.626
Mof_O 	O 	0.00521	0.55507	0.37512	-0.587
Mof_O 	O 	0.04794	0.49119	0.3749	-0.515
Mof_O 	O 	0.08241	0.55885	0.37763	-0.959
Mof_C 	C 	0.0451	0.5357	0.37587	0.685
Mof_O 	O 	0.87488	0.00521	0.69493	-0.584
Mof_O 	O 	0.8751	0.04794	0.75881	-0.511
Mof_O 	O 	0.87237	0.08241	0.69115	-0.96
Mof_C 	C 	0.87413	0.0451	0.7143	0.687
Mof_O 	O 	0.87488	0.50521	0.19493	-0.558
Mof_O 	O 	0.8751	0.54794	0.25881	-0.499
Mof_O 	O 	0.87237	0.58241	0.19115	-0.956
Mof_C 	C 	0.87413	0.5451	0.2143	0.685
Mof_O 	O 	0.37488	0.00521	0.19493	-0.585
Mof_O 	O 	0.3751	0.04794	0.25881	-0.514
Mof_O 	O 	0.37237	0.08241	0.19115	-0.956
Mof_C 	C 	0.37413	0.0451	0.2143	0.683
Mof_O 	O 	0.37488	0.50521	0.69493	-0.561
Mof_O 	O 	0.3751	0.54794	0.75881	-0.503
Mof_O 	O 	0.37237	0.58241	0.69115	-0.958
Mof_C 	C 	0.37413	0.5451	0.7143	0.684
Mof_O 	O 	0.37488	0.74479	0.55507	-0.561
Mof_O 	O 	0.3751	0.70206	0.49119	-0.502
Mof_O 	O 	0.37237	0.66759	0.55885	-0.958
Mof_C 	C 	0.37413	0.7049	0.5357	0.684
Mof_O 	O 	0.37488	0.24479	0.05507	-0.558
Mof_O 	O 	0.3751	0.20206	0.99119	-0.447
Mof_O 	O 	0.37237	0.16759	0.05885	-0.945
Mof_C 	C 	0.37413	0.2049	0.0357	0.621
Mof_O 	O 	0.87488	0.74479	0.05507	-0.556
Mof_O 	O 	0.8751	0.70206	0.99119	-0.444
Mof_O 	O 	0.87237	0.66759	0.05885	-0.95
Mof_C 	C 	0.87413	0.7049	0.0357	0.624
Mof_O 	O 	0.87488	0.24479	0.55507	-0.558
Mof_O 	O 	0.8751	0.20206	0.49119	-0.498
Mof_O 	O 	0.87237	0.16759	0.55885	-0.956
Mof_C 	C 	0.87413	0.2049	0.5357	0.685
Mof_O 	O 	0.87512	0.24479	0.19493	-0.558
Mof_O 	O 	0.8749	0.20206	0.25881	-0.498
Mof_O 	O 	0.87763	0.16759	0.19115	-0.952
Mof_C 	C 	0.87587	0.2049	0.2143	0.683
Mof_O 	O 	0.87512	0.74479	0.69493	-0.558
Mof_O 	O 	0.8749	0.70206	0.75881	-0.498
Mof_O 	O 	0.87763	0.66759	0.69115	-0.958
Mof_C 	C 	0.87587	0.7049	0.7143	0.686
Mof_O 	O 	0.37512	0.24479	0.69493	-0.56
Mof_O 	O 	0.3749	0.20206	0.75881	-0.502
Mof_O 	O 	0.37763	0.16759	0.69115	-0.954
Mof_C 	C 	0.37587	0.2049	0.7143	0.683
Mof_O 	O 	0.37512	0.74479	0.19493	-0.56
Mof_O 	O 	0.3749	0.70206	0.25881	-0.502
Mof_O 	O 	0.37763	0.66759	0.19115	-0.954
Mof_C 	C 	0.37587	0.7049	0.2143	0.683
Mof_O 	O 	0.37512	0.50521	0.05507	-0.559
Mof_O 	O 	0.3749	0.54794	0.99119	-0.448
Mof_O 	O 	0.37763	0.58241	0.05885	-0.948
Mof_C 	C 	0.37587	0.5451	0.0357	0.622
Mof_O 	O 	0.37512	0.00521	0.55507	-0.587
Mof_O 	O 	0.3749	0.04794	0.49119	-0.515
Mof_O 	O 	0.37763	0.08241	0.55885	-0.959
Mof_C 	C 	0.37587	0.0451	0.5357	0.685
Mof_O 	O 	0.87512	0.50521	0.55507	-0.559
Mof_O 	O 	0.8749	0.54794	0.49119	-0.499
Mof_O 	O 	0.87763	0.58241	0.55885	-0.958
Mof_C 	C 	0.87587	0.5451	0.5357	0.687
Mof_O 	O 	0.87512	0.00521	0.05507	-0.581
Mof_O 	O 	0.8749	0.04794	0.99119	-0.457
Mof_O 	O 	0.87763	0.08241	0.05885	-0.95
Mof_C 	C 	0.87587	0.0451	0.0357	0.626
Mof_O 	O 	0.69493	0.87488	0.00521	-0.584
Mof_O 	O 	0.75881	0.8751	0.04794	-0.511
Mof_O 	O 	0.69115	0.87237	0.08241	-0.96
Mof_C 	C 	0.7143	0.87413	0.0451	0.687
Mof_O 	O 	0.69493	0.37488	0.50521	-0.561
Mof_O 	O 	0.75881	0.3751	0.54794	-0.503
Mof_O 	O 	0.69115	0.37237	0.58241	-0.958
Mof_C 	C 	0.7143	0.37413	0.5451	0.684
Mof_O 	O 	0.19493	0.87488	0.50521	-0.558
Mof_O 	O 	0.25881	0.8751	0.54794	-0.499
Mof_O 	O 	0.19115	0.87237	0.58241	-0.956
Mof_C 	C 	0.2143	0.87413	0.5451	0.685
Mof_O 	O 	0.19493	0.37488	0.00521	-0.585
Mof_O 	O 	0.25881	0.3751	0.04794	-0.514
Mof_O 	O 	0.19115	0.37237	0.08241	-0.956
Mof_C 	C 	0.2143	0.37413	0.0451	0.683
Mof_O 	O 	0.55507	0.37488	0.74479	-0.561
Mof_O 	O 	0.49119	0.3751	0.70206	-0.502
Mof_O 	O 	0.55885	0.37237	0.66759	-0.958
Mof_C 	C 	0.5357	0.37413	0.7049	0.684
Mof_O 	O 	0.55507	0.87488	0.24479	-0.558
Mof_O 	O 	0.49119	0.8751	0.20206	-0.498
Mof_O 	O 	0.55885	0.87237	0.16759	-0.956
Mof_C 	C 	0.5357	0.87413	0.2049	0.685
Mof_O 	O 	0.05507	0.37488	0.24479	-0.558
Mof_O 	O 	0.99119	0.3751	0.20206	-0.447
Mof_O 	O 	0.05885	0.37237	0.16759	-0.945
Mof_C 	C 	0.0357	0.37413	0.2049	0.621
Mof_O 	O 	0.05507	0.87488	0.74479	-0.556
Mof_O 	O 	0.99119	0.8751	0.70206	-0.444
Mof_O 	O 	0.05885	0.87237	0.66759	-0.95
Mof_C 	C 	0.0357	0.87413	0.7049	0.624
Mof_O 	O 	0.19493	0.87512	0.24479	-0.558
Mof_O 	O 	0.25881	0.8749	0.20206	-0.498
Mof_O 	O 	0.19115	0.87763	0.16759	-0.952
Mof_C 	C 	0.2143	0.87587	0.2049	0.683
Mof_O 	O 	0.19493	0.37512	0.74479	-0.56
Mof_O 	O 	0.25881	0.3749	0.70206	-0.502
Mof_O 	O 	0.19115	0.37763	0.66759	-0.954
Mof_C 	C 	0.2143	0.37587	0.7049	0.683
Mof_O 	O 	0.69493	0.87512	0.74479	-0.558
Mof_O 	O 	0.75881	0.8749	0.70206	-0.498
Mof_O 	O 	0.69115	0.87763	0.66759	-0.958
Mof_C 	C 	0.7143	0.87587	0.7049	0.686
Mof_O 	O 	0.69493	0.37512	0.24479	-0.56
Mof_O 	O 	0.75881	0.3749	0.20206	-0.502
Mof_O 	O 	0.69115	0.37763	0.16759	-0.954
Mof_C 	C 	0.7143	0.37587	0.2049	0.683
Mof_O 	O 	0.05507	0.37512	0.50521	-0.559
Mof_O 	O 	0.99119	0.3749	0.54794	-0.448
Mof_O 	O 	0.05885	0.37763	0.58241	-0.948
Mof_C 	C 	0.0357	0.37587	0.5451	0.622
Mof_O 	O 	0.05507	0.87512	0.00521	-0.581
Mof_O 	O 	0.99119	0.8749	0.04794	-0.457
Mof_O 	O 	0.05885	0.87763	0.08241	-0.95
Mof_C 	C 	0.0357	0.87587	0.0451	0.626
Mof_O 	O 	0.55507	0.37512	0.00521	-0.587
Mof_O 	O 	0.49119	0.3749	0.04794	-0.515
Mof_O 	O 	0.55885	0.37763	0.08241	-0.959
Mof_C 	C 	0.5357	0.37587	0.0451	0.685
Mof_O 	O 	0.55507	0.87512	0.50521	-0.559
Mof_O 	O 	0.49119	0.8749	0.54794	-0.499
Mof_O 	O 	0.55885	0.87763	0.58241	-0.958
Mof_C 	C 	0.5357	0.87587	0.5451	0.687
Mof_O 	O 	0.94493	0.75521	0.12512	-0.568
Mof_O 	O 	0.00881	0.79794	0.1249	-0.559
Mof_O 	O 	0.94115	0.83241	0.12763	-0.965
Mof_C 	C 	0.9643	0.7951	0.12587	0.746
Mof_O 	O 	0.94493	0.25521	0.62512	-0.565
Mof_O 	O 	0.00881	0.29794	0.6249	-0.555
Mof_O 	O 	0.94115	0.33241	0.62763	-0.962
Mof_C 	C 	0.9643	0.2951	0.62587	0.747
Mof_O 	O 	0.44493	0.75521	0.62512	-0.562
Mof_O 	O 	0.50881	0.79794	0.6249	-0.504
Mof_O 	O 	0.44115	0.83241	0.62763	-0.961
Mof_C 	C 	0.4643	0.7951	0.62587	0.687
Mof_O 	O 	0.44493	0.25521	0.12512	-0.565
Mof_O 	O 	0.50881	0.29794	0.1249	-0.508
Mof_O 	O 	0.44115	0.33241	0.12763	-0.956
Mof_C 	C 	0.4643	0.2951	0.12587	0.683
Mof_O 	O 	0.80507	0.49479	0.62512	-0.563
Mof_O 	O 	0.74119	0.45206	0.6249	-0.504
Mof_O 	O 	0.80885	0.41759	0.62763	-0.961
Mof_C 	C 	0.7857	0.4549	0.62587	0.687
Mof_O 	O 	0.80507	0.99479	0.12512	-0.536
Mof_O 	O 	0.74119	0.95206	0.1249	-0.496
Mof_O 	O 	0.80885	0.91759	0.12763	-0.958
Mof_C 	C 	0.7857	0.9549	0.12587	0.683
Mof_O 	O 	0.30507	0.49479	0.12512	-0.565
Mof_O 	O 	0.24119	0.45206	0.1249	-0.507
Mof_O 	O 	0.30885	0.41759	0.12763	-0.956
Mof_C 	C 	0.2857	0.4549	0.12587	0.683
Mof_O 	O 	0.30507	0.99479	0.62512	-0.532
Mof_O 	O 	0.24119	0.95206	0.6249	-0.492
Mof_O 	O 	0.30885	0.91759	0.62763	-0.955
Mof_C 	C 	0.2857	0.9549	0.62587	0.683
Mof_O 	O 	0.44493	0.99479	0.12488	-0.534
Mof_O 	O 	0.50881	0.95206	0.1251	-0.495
Mof_O 	O 	0.44115	0.91759	0.12237	-0.955
Mof_C 	C 	0.4643	0.9549	0.12413	0.681
Mof_O 	O 	0.44493	0.49479	0.62488	-0.562
Mof_O 	O 	0.50881	0.45206	0.6251	-0.503
Mof_O 	O 	0.44115	0.41759	0.62237	-0.958
Mof_C 	C 	0.4643	0.4549	0.62413	0.685
Mof_O 	O 	0.94493	0.99479	0.62488	-0.535
Mof_O 	O 	0.00881	0.95206	0.6251	-0.543
Mof_O 	O 	0.94115	0.91759	0.62237	-0.96
Mof_C 	C 	0.9643	0.9549	0.62413	0.745
Mof_O 	O 	0.94493	0.49479	0.12488	-0.567
Mof_O 	O 	0.00881	0.45206	0.1251	-0.558
Mof_O 	O 	0.94115	0.41759	0.12237	-0.962
Mof_C 	C 	0.9643	0.4549	0.12413	0.745
Mof_O 	O 	0.30507	0.25521	0.62488	-0.563
Mof_O 	O 	0.24119	0.29794	0.6251	-0.504
Mof_O 	O 	0.30885	0.33241	0.62237	-0.958
Mof_C 	C 	0.2857	0.2951	0.62413	0.685
Mof_O 	O 	0.30507	0.75521	0.12488	-0.565
Mof_O 	O 	0.24119	0.79794	0.1251	-0.509
Mof_O 	O 	0.30885	0.83241	0.12237	-0.961
Mof_C 	C 	0.2857	0.7951	0.12413	0.685
Mof_O 	O 	0.80507	0.25521	0.12488	-0.565
Mof_O 	O 	0.74119	0.29794	0.1251	-0.508
Mof_O 	O 	0.80885	0.33241	0.12237	-0.961
Mof_C 	C 	0.7857	0.2951	0.12413	0.685
Mof_O 	O 	0.80507	0.75521	0.62488	-0.563
Mof_O 	O 	0.74119	0.79794	0.6251	-0.505
Mof_O 	O 	0.80885	0.83241	0.62237	-0.965
Mof_C 	C 	0.7857	0.7951	0.62413	0.688
Mof_O 	O 	0.25521	0.62488	0.30507	-0.563
Mof_O 	O 	0.29794	0.6251	0.24119	-0.504
Mof_O 	O 	0.33241	0.62237	0.30885	-0.958
Mof_C 	C 	0.2951	0.62413	0.2857	0.685
Mof_O 	O 	0.25521	0.12488	0.80507	-0.565
Mof_O 	O 	0.29794	0.1251	0.74119	-0.508
Mof_O 	O 	0.33241	0.12237	0.80885	-0.961
Mof_C 	C 	0.2951	0.12413	0.7857	0.685
Mof_O 	O 	0.75521	0.62488	0.80507	-0.563
Mof_O 	O 	0.79794	0.6251	0.74119	-0.505
Mof_O 	O 	0.83241	0.62237	0.80885	-0.965
Mof_C 	C 	0.7951	0.62413	0.7857	0.688
Mof_O 	O 	0.75521	0.12488	0.30507	-0.565
Mof_O 	O 	0.79794	0.1251	0.24119	-0.509
Mof_O 	O 	0.83241	0.12237	0.30885	-0.961
Mof_C 	C 	0.7951	0.12413	0.2857	0.685
Mof_O 	O 	0.99479	0.12488	0.44493	-0.534
Mof_O 	O 	0.95206	0.1251	0.50881	-0.495
Mof_O 	O 	0.91759	0.12237	0.44115	-0.955
Mof_C 	C 	0.9549	0.12413	0.4643	0.681
Mof_O 	O 	0.99479	0.62488	0.94493	-0.535
Mof_O 	O 	0.95206	0.6251	0.00881	-0.543
Mof_O 	O 	0.91759	0.62237	0.94115	-0.96
Mof_C 	C 	0.9549	0.62413	0.9643	0.745
Mof_O 	O 	0.49479	0.12488	0.94493	-0.567
Mof_O 	O 	0.45206	0.1251	0.00881	-0.558
Mof_O 	O 	0.41759	0.12237	0.94115	-0.962
Mof_C 	C 	0.4549	0.12413	0.9643	0.745
Mof_O 	O 	0.49479	0.62488	0.44493	-0.562
Mof_O 	O 	0.45206	0.6251	0.50881	-0.503
Mof_O 	O 	0.41759	0.62237	0.44115	-0.958
Mof_C 	C 	0.4549	0.62413	0.4643	0.685
Mof_O 	O 	0.49479	0.62512	0.80507	-0.563
Mof_O 	O 	0.45206	0.6249	0.74119	-0.504
Mof_O 	O 	0.41759	0.62763	0.80885	-0.961
Mof_C 	C 	0.4549	0.62587	0.7857	0.687
Mof_O 	O 	0.49479	0.12512	0.30507	-0.565
Mof_O 	O 	0.45206	0.1249	0.24119	-0.507
Mof_O 	O 	0.41759	0.12763	0.30885	-0.956
Mof_C 	C 	0.4549	0.12587	0.2857	0.683
Mof_O 	O 	0.99479	0.62512	0.30507	-0.532
Mof_O 	O 	0.95206	0.6249	0.24119	-0.492
Mof_O 	O 	0.91759	0.62763	0.30885	-0.955
Mof_C 	C 	0.9549	0.62587	0.2857	0.683
Mof_O 	O 	0.99479	0.12512	0.80507	-0.536
Mof_O 	O 	0.95206	0.1249	0.74119	-0.496
Mof_O 	O 	0.91759	0.12763	0.80885	-0.958
Mof_C 	C 	0.9549	0.12587	0.7857	0.683
Mof_O 	O 	0.75521	0.12512	0.94493	-0.568
Mof_O 	O 	0.79794	0.1249	0.00881	-0.559
Mof_O 	O 	0.83241	0.12763	0.94115	-0.965
Mof_C 	C 	0.7951	0.12587	0.9643	0.746
Mof_O 	O 	0.75521	0.62512	0.44493	-0.562
Mof_O 	O 	0.79794	0.6249	0.50881	-0.504
Mof_O 	O 	0.83241	0.62763	0.44115	-0.961
Mof_C 	C 	0.7951	0.62587	0.4643	0.687
Mof_O 	O 	0.25521	0.12512	0.44493	-0.565
Mof_O 	O 	0.29794	0.1249	0.50881	-0.508
Mof_O 	O 	0.33241	0.12763	0.44115	-0.956
Mof_C 	C 	0.2951	0.12587	0.4643	0.683
Mof_O 	O 	0.25521	0.62512	0.94493	-0.565
Mof_O 	O 	0.29794	0.6249	0.00881	-0.555
Mof_O 	O 	0.33241	0.62763	0.94115	-0.962
Mof_C 	C 	0.2951	0.62587	0.9643	0.747
Mof_O 	O 	0.12488	0.44493	0.99479	-0.534
Mof_O 	O 	0.1251	0.50881	0.95206	-0.495
Mof_O 	O 	0.12237	0.44115	0.91759	-0.955
Mof_C 	C 	0.12413	0.4643	0.9549	0.681
Mof_O 	O 	0.12488	0.94493	0.49479	-0.567
Mof_O 	O 	0.1251	0.00881	0.45206	-0.558
Mof_O 	O 	0.12237	0.94115	0.41759	-0.962
Mof_C 	C 	0.12413	0.9643	0.4549	0.745
Mof_O 	O 	0.62488	0.44493	0.49479	-0.562
Mof_O 	O 	0.6251	0.50881	0.45206	-0.503
Mof_O 	O 	0.62237	0.44115	0.41759	-0.958
Mof_C 	C 	0.62413	0.4643	0.4549	0.685
Mof_O 	O 	0.62488	0.94493	0.99479	-0.535
Mof_O 	O 	0.6251	0.00881	0.95206	-0.543
Mof_O 	O 	0.62237	0.94115	0.91759	-0.96
Mof_C 	C 	0.62413	0.9643	0.9549	0.745
Mof_O 	O 	0.62488	0.30507	0.25521	-0.563
Mof_O 	O 	0.6251	0.24119	0.29794	-0.504
Mof_O 	O 	0.62237	0.30885	0.33241	-0.958
Mof_C 	C 	0.62413	0.2857	0.2951	0.685
Mof_O 	O 	0.62488	0.80507	0.75521	-0.563
Mof_O 	O 	0.6251	0.74119	0.79794	-0.505
Mof_O 	O 	0.62237	0.80885	0.83241	-0.965
Mof_C 	C 	0.62413	0.7857	0.7951	0.688
Mof_O 	O 	0.12488	0.30507	0.75521	-0.565
Mof_O 	O 	0.1251	0.24119	0.79794	-0.509
Mof_O 	O 	0.12237	0.30885	0.83241	-0.961
Mof_C 	C 	0.12413	0.2857	0.7951	0.685
Mof_O 	O 	0.12488	0.80507	0.25521	-0.565
Mof_O 	O 	0.1251	0.74119	0.29794	-0.508
Mof_O 	O 	0.12237	0.80885	0.33241	-0.961
Mof_C 	C 	0.12413	0.7857	0.2951	0.685
Mof_O 	O 	0.12512	0.94493	0.75521	-0.568
Mof_O 	O 	0.1249	0.00881	0.79794	-0.559
Mof_O 	O 	0.12763	0.94115	0.83241	-0.965
Mof_C 	C 	0.12587	0.9643	0.7951	0.746
Mof_O 	O 	0.12512	0.44493	0.25521	-0.565
Mof_O 	O 	0.1249	0.50881	0.29794	-0.508
Mof_O 	O 	0.12763	0.44115	0.33241	-0.956
Mof_C 	C 	0.12587	0.4643	0.2951	0.683
Mof_O 	O 	0.62512	0.94493	0.25521	-0.565
Mof_O 	O 	0.6249	0.00881	0.29794	-0.555
Mof_O 	O 	0.62763	0.94115	0.33241	-0.962
Mof_C 	C 	0.62587	0.9643	0.2951	0.747
Mof_O 	O 	0.62512	0.44493	0.75521	-0.562
Mof_O 	O 	0.6249	0.50881	0.79794	-0.504
Mof_O 	O 	0.62763	0.44115	0.83241	-0.961
Mof_C 	C 	0.62587	0.4643	0.7951	0.687
Mof_O 	O 	0.62512	0.80507	0.49479	-0.563
Mof_O 	O 	0.6249	0.74119	0.45206	-0.504
Mof_O 	O 	0.62763	0.80885	0.41759	-0.961
Mof_C 	C 	0.62587	0.7857	0.4549	0.687
Mof_O 	O 	0.62512	0.30507	0.99479	-0.532
Mof_O 	O 	0.6249	0.24119	0.95206	-0.492
Mof_O 	O 	0.62763	0.30885	0.91759	-0.955
Mof_C 	C 	0.62587	0.2857	0.9549	0.683
Mof_O 	O 	0.12512	0.80507	0.99479	-0.536
Mof_O 	O 	0.1249	0.74119	0.95206	-0.496
Mof_O 	O 	0.12763	0.80885	0.91759	-0.958
Mof_C 	C 	0.12587	0.7857	0.9549	0.683
Mof_O 	O 	0.12512	0.30507	0.49479	-0.565
Mof_O 	O 	0.1249	0.24119	0.45206	-0.507
Mof_O 	O 	0.12763	0.30885	0.41759	-0.956
Mof_C 	C 	0.12587	0.2857	0.4549	0.683
Mof_Zn	Zn	-2.64599e-33	0.37472	0.12472	1.189
Mof_Zn	Zn	2.34232e-33	0.87472	0.62472	1.19
Mof_Zn	Zn	0.5	0.37472	0.62472	1.206
Mof_Zn	Zn	0.25	0.37528	0.62472	1.206
Mof_Zn	Zn	0.75	0.37528	0.12472	1.206
Mof_Zn	Zn	0.75	0.87472	0.12528	1.206
Mof_Zn	Zn	0.25	0.87472	0.62528	1.206
Mof_Zn	Zn	0.5	0.87528	0.62528	1.206
Mof_Zn	Zn	-2.64389e-33	0.87528	0.12528	1.19
Mof_Zn	Zn	-2.25645e-32	0.37528	0.62528	1.19
Mof_Zn	Zn	0.12472	0	0.37472	1.189
Mof_Zn	Zn	0.12472	0.5	0.87472	1.206
Mof_Zn	Zn	0.62472	0	0.87472	1.19
Mof_Zn	Zn	0.62472	0.25	0.37528	1.206
Mof_Zn	Zn	0.62472	0.75	0.87528	1.206
Mof_Zn	Zn	0.12472	0.75	0.37528	1.206
Mof_Zn	Zn	0.12528	0.75	0.87472	1.206
Mof_Zn	Zn	0.12528	0.25	0.37472	1.206
Mof_Zn	Zn	0.62528	0.5	0.87528	1.206
Mof_Zn	Zn	0.62528	-4.15148e-33	0.37528	1.19
Mof_Zn	Zn	0.37472	0.12472	-0	1.189
Mof_Zn	Zn	0.37472	0.62472	0.5	1.206
Mof_Zn	Zn	0.87472	0.62472	-0	1.19
Mof_Zn	Zn	0.37528	0.62472	0.25	1.206
Mof_Zn	Zn	0.37528	0.12472	0.75	1.206
Mof_Zn	Zn	0.87472	0.12528	0.75	1.206
Mof_Zn	Zn	0.87472	0.62528	0.25	1.206
Mof_Zn	Zn	0.87528	0.62528	0.5	1.206
Mof_Zn	Zn	0.87528	0.12528	-0	1.19
Mof_Zn	Zn	0.37528	0.62528	-0	1.19
Mof_Zn	Zn	0.12472	0.25	0.87528	1.206
Mof_Zn	Zn	0.12528	0.5	0.37528	1.206
Mof_Zn	Zn	0.12528	0	0.87528	1.19
Mof_Zn	Zn	0.62472	0.5	0.37472	1.206
Mof_Zn	Zn	0.62528	0.75	0.37472	1.206
Mof_Zn	Zn	0.62528	0.25	0.87472	1.206
Mof_Zn	Zn	0.75	0.37472	0.62528	1.206
Mof_Zn	Zn	0.25	0.37472	0.12528	1.206
Mof_Zn	Zn	0.5	0.87472	0.12472	1.206
Mof_Zn	Zn	0.5	0.37528	0.12528	1.206
Mof_Zn	Zn	0.25	0.87528	0.12472	1.206
Mof_Zn	Zn	0.75	0.87528	0.62472	1.206
Mof_Zn	Zn	0.87472	0.12472	0.5	1.206
Mof_Zn	Zn	0.37472	0.62528	0.75	1.206
Mof_Zn	Zn	0.37472	0.12528	0.25	1.206
Mof_Zn	Zn	0.87528	0.12472	0.25	1.206
Mof_Zn	Zn	0.87528	0.62472	0.75	1.206
Mof_Zn	Zn	0.37528	0.12528	0.5	1.206
Mof_Zn	Zn	-1.33241e-32	0.62528	0.87528	1.19
Mof_Zn	Zn	-2.74441e-33	0.12528	0.37528	1.19
Mof_Zn	Zn	0.5	0.62528	0.37528	1.206
Mof_Zn	Zn	0.75	0.62472	0.37528	1.206
Mof_Zn	Zn	0.25	0.62472	0.87528	1.206
Mof_Zn	Zn	0.25	0.12528	0.87472	1.206
Mof_Zn	Zn	0.75	0.12528	0.37472	1.206
Mof_Zn	Zn	0.75	0.62528	0.87472	1.206
Mof_Zn	Zn	0.5	0.12472	0.37472	1.206
Mof_Zn	Zn	1.15826e-32	0.12472	0.87472	1.189
Mof_Zn	Zn	0.87528	0	0.62528	1.19
Mof_Zn	Zn	0.87528	0.5	0.12528	1.206
Mof_Zn	Zn	0.37528	-1.03787e-33	0.12528	1.19
Mof_Zn	Zn	0.37528	0.75	0.62472	1.206
Mof_Zn	Zn	0.37528	0.25	0.12472	1.206
Mof_Zn	Zn	0.87472	0.25	0.12528	1.206
Mof_Zn	Zn	0.87472	0.75	0.62528	1.206
Mof_Zn	Zn	0.37472	0.5	0.12472	1.206
Mof_Zn	Zn	0.37472	0	0.62472	1.19
Mof_Zn	Zn	0.87472	1.03787e-33	0.12472	1.189
Mof_Zn	Zn	0.62528	0.87528	-0	1.19
Mof_Zn	Zn	0.62528	0.37528	0.5	1.206
Mof_Zn	Zn	0.12528	0.37528	-0	1.19
Mof_Zn	Zn	0.62472	0.37528	0.75	1.206
Mof_Zn	Zn	0.62472	0.87528	0.25	1.206
Mof_Zn	Zn	0.12528	0.87472	0.25	1.206
Mof_Zn	Zn	0.12528	0.37472	0.75	1.206
Mof_Zn	Zn	0.62528	0.87472	0.75	1.206
Mof_Zn	Zn	0.12472	0.37472	0.5	1.206
Mof_Zn	Zn	0.12472	0.87472	-0	1.189
Mof_Zn	Zn	0.87528	0.75	0.12472	1.206
Mof_Zn	Zn	0.87528	0.25	0.62472	1.206
Mof_Zn	Zn	0.87472	0.5	0.62472	1.206
Mof_Zn	Zn	0.37528	0.5	0.62528	1.206
Mof_Zn	Zn	0.37472	0.25	0.62528	1.206
Mof_Zn	Zn	0.37472	0.75	0.12528	1.206
Mof_Zn	Zn	0.25	0.62528	0.37472	1.206
Mof_Zn	Zn	0.5	0.12528	0.87528	1.206
Mof_Zn	Zn	0.5	0.62472	0.87472	1.206
Mof_Zn	Zn	-2.74651e-33	0.62472	0.37472	1.19
Mof_Zn	Zn	0.75	0.12472	0.87528	1.206
Mof_Zn	Zn	0.25	0.12472	0.37528	1.206
Mof_Zn	Zn	0.12528	0.87528	0.5	1.206
Mof_Zn	Zn	0.62528	0.37472	0.25	1.206
Mof_Zn	Zn	0.12472	0.87528	0.75	1.206
Mof_Zn	Zn	0.12472	0.37528	0.25	1.206
Mof_Zn	Zn	0.62472	0.87472	0.5	1.206
Mof_Zn	Zn	0.62472	0.37472	-0	1.19
Mof_Na	Na	0.125	0.375	0.125	2.888
Mof_Na	Na	0.625	0.875	0.125	2.934
Mof_Na	Na	0.125	0.375	0.625	2.913
Mof_Na	Na	0.125	0.875	0.125	2.909
Mof_Na	Na	0.625	0.375	0.625	2.939
Mof_Na	Na	0.625	0.875	0.625	2.959
Mof_Na	Na	0.125	0.125	0.375	2.888
Mof_Na	Na	0.125	0.625	0.875	2.934
Mof_Na	Na	0.625	0.625	0.375	2.939
Mof_Na	Na	0.625	0.125	0.375	2.913
Mof_Na	Na	0.625	0.625	0.875	2.959
Mof_Na	Na	0.375	0.125	0.125	2.888
Mof_Na	Na	0.375	0.625	0.625	2.939
Mof_Na	Na	0.875	0.125	0.625	2.934
Mof_Na	Na	0.375	0.625	0.125	2.913
Mof_Na	Na	0.875	0.625	0.625	2.959
Mof_Na	Na	0.875	0.125	0.125	2.909
Mof_Na	Na	0.125	0.375	0.875	2.948
Mof_Na	Na	0.125	0.375	0.375	2.921
Mof_Na	Na	0.125	0.875	0.875	2.976
Mof_Na	Na	0.625	0.375	0.875	2.969
Mof_Na	Na	0.625	0.875	0.875	2.996
Mof_Na	Na	0.625	0.375	0.375	2.942
Mof_Na	Na	0.625	0.875	0.375	2.969
Mof_Na	Na	0.875	0.375	0.625	2.969
Mof_Na	Na	0.875	0.875	0.125	2.976
Mof_Na	Na	0.875	0.875	0.625	2.996
Mof_Na	Na	0.375	0.375	0.125	2.921
Mof_Na	Na	0.375	0.875	0.625	2.969
Mof_Na	Na	0.375	0.875	0.125	2.948
Mof_Na	Na	0.375	0.375	0.625	2.942
Mof_Na	Na	0.875	0.625	0.875	2.996
Mof_Na	Na	0.375	0.625	0.875	2.969
Mof_Na	Na	0.875	0.125	0.375	2.948
Mof_Na	Na	0.375	0.125	0.375	2.921
Mof_Na	Na	0.875	0.625	0.375	2.969
Mof_Na	Na	0.875	0.125	0.875	2.976
Mof_Na	Na	0.375	0.125	0.875	2.948
Mof_Na	Na	0.375	0.625	0.375	2.942
Mof_Na	Na	0.875	0.375	0.125	2.948
Mof_Na	Na	0.125	0.875	0.375	2.948
Mof_Na	Na	0.875	0.625	0.125	2.933
Mof_Na	Na	0.375	0.125	0.625	2.913
Mof_Na	Na	0.125	0.625	0.375	2.913
Mof_Na	Na	0.125	0.125	0.875	2.909
Mof_Na	Na	0.625	0.125	0.875	2.933
Mof_Na	Na	0.625	0.375	0.125	2.913
Mof_Na	Na	0.125	0.875	0.625	2.933
_end
