# CIF file generated by openbabel 3.1.0, see https://openbabel.org
data_I
_chemical_name_common 'image0'
_cell_length_a 22.149
_cell_length_b 9.779
_cell_length_c 19.376
_cell_angle_alpha 90
_cell_angle_beta 119.161
_cell_angle_gamma 90
_space_group_name_H-M_alt 'P 1'
_space_group_name_Hall 'P 1'
loop_
    _symmetry_equiv_pos_as_xyz
    x,y,z
loop_
    _atom_site_label
    _atom_site_type_symbol
    _atom_site_fract_x
    _atom_site_fract_y
    _atom_site_fract_z
    _atom_site_occupancy
    Gd1      Gd       0.01106    0.30853    0.45570    1.000
    Co1      Co       0.81975    0.37106    0.20502    1.000
    O1       O        0.90190    0.39150    0.33060    1.000
    O2       O        0.94360    0.53520    0.43320    1.000
    O3       O        0.77210    0.85610    0.41000    1.000
    O4       O        0.86540    0.72520    0.48150    1.000
    H1       H        0.89400    0.66600    0.48300    1.000
    O5       O        0.87260    0.49840    0.15830    1.000
    O6       O        0.88170    0.22510    0.18410    1.000
    O7       O        0.96080    0.20940    0.14270    1.000
    O8       O        0.94240    0.47820    0.10110    1.000
    O9       O        0.04690    0.91200    0.59090    1.000
    O10      O        0.04920    0.13490    0.56260    1.000
    N1       N        0.78580    0.54270    0.24190    1.000
    N2       N        0.73440    0.71630    0.27390    1.000
    C1       C        0.89510    0.50000    0.36410    1.000
    C2       C        0.82930    0.57880    0.32060    1.000
    C3       C        0.79740    0.68490    0.34110    1.000
    C4       C        0.73030    0.62810    0.21690    1.000
    H2       H        0.69310    0.62650    0.16590    1.000
    C5       C        0.81460    0.75890    0.41670    1.000
    C6       C        0.91890    0.27290    0.15650    1.000
    C7       C        0.91020    0.43260    0.13750    1.000
    C8       C        0.02810    0.01440    0.54540    1.000
    Gd2      Gd       0.51106    0.80853    0.45570    1.000
    Co2      Co       0.31975    0.87106    0.20502    1.000
    O11      O        0.40190    0.89150    0.33060    1.000
    O12      O        0.44360    0.03520    0.43320    1.000
    O13      O        0.27210    0.35610    0.41000    1.000
    O14      O        0.36540    0.22520    0.48150    1.000
    H3       H        0.39400    0.16600    0.48300    1.000
    O15      O        0.37260    0.99840    0.15830    1.000
    O16      O        0.38170    0.72510    0.18410    1.000
    O17      O        0.46080    0.70940    0.14270    1.000
    O18      O        0.44240    0.97820    0.10110    1.000
    O19      O        0.54690    0.41200    0.59090    1.000
    O20      O        0.54920    0.63490    0.56260    1.000
    N3       N        0.28580    0.04270    0.24190    1.000
    N4       N        0.23440    0.21630    0.27390    1.000
    C9       C        0.39510    0.00000    0.36410    1.000
    C10      C        0.32930    0.07880    0.32060    1.000
    C11      C        0.29740    0.18490    0.34110    1.000
    C12      C        0.23030    0.12810    0.21690    1.000
    H4       H        0.19310    0.12650    0.16590    1.000
    C13      C        0.31460    0.25890    0.41670    1.000
    C14      C        0.41890    0.77290    0.15650    1.000
    C15      C        0.41020    0.93260    0.13750    1.000
    C16      C        0.52810    0.51440    0.54540    1.000
    Gd3      Gd       0.98894    0.30853    0.04430    1.000
    Co3      Co       0.18025    0.37106    0.29498    1.000
    O21      O        0.09810    0.39150    0.16940    1.000
    O22      O        0.05640    0.53520    0.06680    1.000
    O23      O        0.22790    0.85610    0.09000    1.000
    O24      O        0.13460    0.72520    0.01850    1.000
    H5       H        0.10600    0.66600    0.01700    1.000
    O25      O        0.12740    0.49840    0.34170    1.000
    O26      O        0.11830    0.22510    0.31590    1.000
    O27      O        0.03920    0.20940    0.35730    1.000
    O28      O        0.05760    0.47820    0.39890    1.000
    O29      O        0.95310    0.91200    0.90910    1.000
    O30      O        0.95080    0.13490    0.93740    1.000
    N5       N        0.21420    0.54270    0.25810    1.000
    N6       N        0.26560    0.71630    0.22610    1.000
    C17      C        0.10490    0.50000    0.13590    1.000
    C18      C        0.17070    0.57880    0.17940    1.000
    C19      C        0.20260    0.68490    0.15890    1.000
    C20      C        0.26970    0.62810    0.28310    1.000
    H6       H        0.30690    0.62650    0.33410    1.000
    C21      C        0.18540    0.75890    0.08330    1.000
    C22      C        0.08110    0.27290    0.34350    1.000
    C23      C        0.08980    0.43260    0.36250    1.000
    C24      C        0.97190    0.01440    0.95460    1.000
    Gd4      Gd       0.48894    0.80853    0.04430    1.000
    Co4      Co       0.68025    0.87106    0.29498    1.000
    O31      O        0.59810    0.89150    0.16940    1.000
    O32      O        0.55640    0.03520    0.06680    1.000
    O33      O        0.72790    0.35610    0.09000    1.000
    O34      O        0.63460    0.22520    0.01850    1.000
    H7       H        0.60600    0.16600    0.01700    1.000
    O35      O        0.62740    0.99840    0.34170    1.000
    O36      O        0.61830    0.72510    0.31590    1.000
    O37      O        0.53920    0.70940    0.35730    1.000
    O38      O        0.55760    0.97820    0.39890    1.000
    O39      O        0.45310    0.41200    0.90910    1.000
    O40      O        0.45080    0.63490    0.93740    1.000
    N7       N        0.71420    0.04270    0.25810    1.000
    N8       N        0.76560    0.21630    0.22610    1.000
    C25      C        0.60490    0.00000    0.13590    1.000
    C26      C        0.67070    0.07880    0.17940    1.000
    C27      C        0.70260    0.18490    0.15890    1.000
    C28      C        0.76970    0.12810    0.28310    1.000
    H8       H        0.80690    0.12650    0.33410    1.000
    C29      C        0.68540    0.25890    0.08330    1.000
    C30      C        0.58110    0.77290    0.34350    1.000
    C31      C        0.58980    0.93260    0.36250    1.000
    C32      C        0.47190    0.51440    0.95460    1.000
    Gd5      Gd       0.98894    0.69147    0.54430    1.000
    Co5      Co       0.18025    0.62894    0.79498    1.000
    O41      O        0.09810    0.60850    0.66940    1.000
    O42      O        0.05640    0.46480    0.56680    1.000
    O43      O        0.22790    0.14390    0.59000    1.000
    O44      O        0.13460    0.27480    0.51850    1.000
    H9       H        0.10600    0.33400    0.51700    1.000
    O45      O        0.12740    0.50160    0.84170    1.000
    O46      O        0.11830    0.77490    0.81590    1.000
    O47      O        0.03920    0.79060    0.85730    1.000
    O48      O        0.05760    0.52180    0.89890    1.000
    O49      O        0.95310    0.08800    0.40910    1.000
    O50      O        0.95080    0.86510    0.43740    1.000
    N9       N        0.21420    0.45730    0.75810    1.000
    N10      N        0.26560    0.28370    0.72610    1.000
    C33      C        0.10490    0.50000    0.63590    1.000
    C34      C        0.17070    0.42120    0.67940    1.000
    C35      C        0.20260    0.31510    0.65890    1.000
    C36      C        0.26970    0.37190    0.78310    1.000
    H10      H        0.30690    0.37350    0.83410    1.000
    C37      C        0.18540    0.24110    0.58330    1.000
    C38      C        0.08110    0.72710    0.84350    1.000
    C39      C        0.08980    0.56740    0.86250    1.000
    C40      C        0.97190    0.98560    0.45460    1.000
    Gd6      Gd       0.48894    0.19147    0.54430    1.000
    Co6      Co       0.68025    0.12894    0.79498    1.000
    O51      O        0.59810    0.10850    0.66940    1.000
    O52      O        0.55640    0.96480    0.56680    1.000
    O53      O        0.72790    0.64390    0.59000    1.000
    O54      O        0.63460    0.77480    0.51850    1.000
    H11      H        0.60600    0.83400    0.51700    1.000
    O55      O        0.62740    0.00160    0.84170    1.000
    O56      O        0.61830    0.27490    0.81590    1.000
    O57      O        0.53920    0.29060    0.85730    1.000
    O58      O        0.55760    0.02180    0.89890    1.000
    O59      O        0.45310    0.58800    0.40910    1.000
    O60      O        0.45080    0.36510    0.43740    1.000
    N11      N        0.71420    0.95730    0.75810    1.000
    N12      N        0.76560    0.78370    0.72610    1.000
    C41      C        0.60490    0.00000    0.63590    1.000
    C42      C        0.67070    0.92120    0.67940    1.000
    C43      C        0.70260    0.81510    0.65890    1.000
    C44      C        0.76970    0.87190    0.78310    1.000
    H12      H        0.80690    0.87350    0.83410    1.000
    C45      C        0.68540    0.74110    0.58330    1.000
    C46      C        0.58110    0.22710    0.84350    1.000
    C47      C        0.58980    0.06740    0.86250    1.000
    C48      C        0.47190    0.48560    0.45460    1.000
    Gd7      Gd       0.01106    0.69147    0.95570    1.000
    Co7      Co       0.81975    0.62894    0.70502    1.000
    O61      O        0.90190    0.60850    0.83060    1.000
    O62      O        0.94360    0.46480    0.93320    1.000
    O63      O        0.77210    0.14390    0.91000    1.000
    O64      O        0.86540    0.27480    0.98150    1.000
    H13      H        0.89400    0.33400    0.98300    1.000
    O65      O        0.87260    0.50160    0.65830    1.000
    O66      O        0.88170    0.77490    0.68410    1.000
    O67      O        0.96080    0.79060    0.64270    1.000
    O68      O        0.94240    0.52180    0.60110    1.000
    O69      O        0.04690    0.08800    0.09090    1.000
    O70      O        0.04920    0.86510    0.06260    1.000
    N13      N        0.78580    0.45730    0.74190    1.000
    N14      N        0.73440    0.28370    0.77390    1.000
    C49      C        0.89510    0.50000    0.86410    1.000
    C50      C        0.82930    0.42120    0.82060    1.000
    C51      C        0.79740    0.31510    0.84110    1.000
    C52      C        0.73030    0.37190    0.71690    1.000
    H14      H        0.69310    0.37350    0.66590    1.000
    C53      C        0.81460    0.24110    0.91670    1.000
    C54      C        0.91890    0.72710    0.65650    1.000
    C55      C        0.91020    0.56740    0.63750    1.000
    C56      C        0.02810    0.98560    0.04540    1.000
    Gd8      Gd       0.51106    0.19147    0.95570    1.000
    Co8      Co       0.31975    0.12894    0.70502    1.000
    O71      O        0.40190    0.10850    0.83060    1.000
    O72      O        0.44360    0.96480    0.93320    1.000
    O73      O        0.27210    0.64390    0.91000    1.000
    O74      O        0.36540    0.77480    0.98150    1.000
    H15      H        0.39400    0.83400    0.98300    1.000
    O75      O        0.37260    0.00160    0.65830    1.000
    O76      O        0.38170    0.27490    0.68410    1.000
    O77      O        0.46080    0.29060    0.64270    1.000
    O78      O        0.44240    0.02180    0.60110    1.000
    O79      O        0.54690    0.58800    0.09090    1.000
    O80      O        0.54920    0.36510    0.06260    1.000
    N15      N        0.28580    0.95730    0.74190    1.000
    N16      N        0.23440    0.78370    0.77390    1.000
    C57      C        0.39510    0.00000    0.86410    1.000
    C58      C        0.32930    0.92120    0.82060    1.000
    C59      C        0.29740    0.81510    0.84110    1.000
    C60      C        0.23030    0.87190    0.71690    1.000
    H16      H        0.19310    0.87350    0.66590    1.000
    C61      C        0.31460    0.74110    0.91670    1.000
    C62      C        0.41890    0.22710    0.65650    1.000
    C63      C        0.41020    0.06740    0.63750    1.000
    C64      C        0.52810    0.48560    0.04540    1.000
