# CIF file generated by openbabel 3.1.0, see https://openbabel.org
data_I
_chemical_name_common 'image0'
_cell_length_a 6.6103
_cell_length_b 17.8984
_cell_length_c 11.0989
_cell_angle_alpha 90
_cell_angle_beta 91.2461
_cell_angle_gamma 90
_space_group_name_H-M_alt 'P 1'
_space_group_name_Hall 'P 1'
loop_
    _symmetry_equiv_pos_as_xyz
    x,y,z
loop_
    _atom_site_label
    _atom_site_type_symbol
    _atom_site_fract_x
    _atom_site_fract_y
    _atom_site_fract_z
    _atom_site_occupancy
    Al1      Al       0.22970    0.22389    0.25430    1.000
    O1       O        0.98740    0.22100    0.15510    1.000
    O2       O        0.82400    0.64920    0.62070    1.000
    O3       O        0.36450    0.14520    0.16830    1.000
    O4       O        0.16600    0.30830    0.35570    1.000
    O5       O        0.67140    0.79650    0.85850    1.000
    Al2      Al       0.24570    0.72322    0.75430    1.000
    O6       O        0.49710    0.73240    0.67930    1.000
    O7       O        0.36370    0.79573    0.86050    1.000
    O8       O        0.88480    0.29850    0.34400    1.000
    O9       O        0.68150    0.13970    0.15750    1.000
    O10      O        0.18180    0.65050    0.63680    1.000
    C1       C        0.32103    0.94358    0.95644    1.000
    C2       C        0.33283    0.00499    0.05082    1.000
    C3       C        0.70338    0.01674    0.01976    1.000
    C4       C        0.68886    0.95637    0.92428    1.000
    C5       C        0.52012    0.90130    0.95041    1.000
    C6       C        0.50545    0.05897    0.02702    1.000
    C7       C        0.51601    0.84025    0.85751    1.000
    C8       C        0.51191    0.12283    0.11526    1.000
    C9       C        0.84598    0.51030    0.56757    1.000
    C10      C        0.82168    0.44130    0.48900    1.000
    C11      C        0.16799    0.45824    0.41621    1.000
    C12      C        0.19568    0.52875    0.49219    1.000
    C13      C        0.99478    0.56649    0.51694    1.000
    C14      C        0.02489    0.40370    0.47570    1.000
    C15      C        0.00909    0.63377    0.59867    1.000
    C16      C        0.01624    0.32925    0.41261    1.000
    Al3      Al       0.77030    0.72389    0.74570    1.000
    O11      O        0.01260    0.72100    0.84490    1.000
    O12      O        0.17600    0.14920    0.37930    1.000
    O13      O        0.63550    0.64520    0.83170    1.000
    O14      O        0.83400    0.80830    0.64430    1.000
    O15      O        0.32860    0.29650    0.14150    1.000
    Al4      Al       0.75430    0.22322    0.24570    1.000
    O16      O        0.50290    0.23240    0.32070    1.000
    O17      O        0.63630    0.29573    0.13950    1.000
    O18      O        0.11520    0.79850    0.65600    1.000
    O19      O        0.31850    0.63970    0.84250    1.000
    O20      O        0.81820    0.15050    0.36320    1.000
    C17      C        0.67897    0.44358    0.04356    1.000
    C18      C        0.66717    0.50499    0.94918    1.000
    C19      C        0.29662    0.51674    0.98024    1.000
    C20      C        0.31114    0.45637    0.07572    1.000
    C21      C        0.47988    0.40130    0.04959    1.000
    C22      C        0.49455    0.55897    0.97298    1.000
    C23      C        0.48399    0.34025    0.14249    1.000
    C24      C        0.48809    0.62283    0.88474    1.000
    C25      C        0.15402    0.01030    0.43243    1.000
    C26      C        0.17832    0.94130    0.51100    1.000
    C27      C        0.83201    0.95824    0.58379    1.000
    C28      C        0.80432    0.02875    0.50781    1.000
    C29      C        0.00522    0.06649    0.48306    1.000
    C30      C        0.97511    0.90370    0.52430    1.000
    C31      C        0.99091    0.13377    0.40133    1.000
    C32      C        0.98376    0.82925    0.58739    1.000
