# CIF file generated by openbabel 3.1.0, see https://openbabel.org
data_I
_chemical_name_common 'XIDBUJ_clean'
_cell_length_a 11.721
_cell_length_b 14.9546
_cell_length_c 14.9546
_cell_angle_alpha 96.4485
_cell_angle_beta 107.06
_cell_angle_gamma 107.06
_space_group_name_H-M_alt 'P 1'
_space_group_name_Hall 'P 1'
loop_
    _symmetry_equiv_pos_as_xyz
    x,y,z
loop_
    _atom_site_label
    _atom_site_type_symbol
    _atom_site_fract_x
    _atom_site_fract_y
    _atom_site_fract_z
    _atom_site_occupancy
    Zn1      Zn       0.88190    0.80543    0.56081    1.000
    Zn2      Zn       0.88190    0.56081    0.80543    1.000
    H1       H        0.08050    0.74040    0.50980    1.000
    H2       H        0.29300    0.79570    0.53070    1.000
    H3       H        0.31480    0.05030    0.66150    1.000
    H4       H        0.10490    0.98870    0.63950    1.000
    H5       H        0.49550    0.84690    0.56850    1.000
    H6       H        0.80740    0.08260    0.65760    1.000
    H7       H        0.95160    0.37980    0.84800    1.000
    H8       H        0.87160    0.21650    0.79510    1.000
    H9       H        0.55490    0.24390    0.62450    1.000
    H10      H        0.64460    0.40490    0.67810    1.000
    H11      H        0.08050    0.50980    0.74040    1.000
    H12      H        0.29300    0.53070    0.79570    1.000
    H13      H        0.31480    0.66150    0.05030    1.000
    H14      H        0.10490    0.63950    0.98870    1.000
    H15      H        0.49550    0.56850    0.84690    1.000
    H16      H        0.80740    0.65760    0.08260    1.000
    H17      H        0.95160    0.84800    0.37980    1.000
    H18      H        0.87160    0.79510    0.21650    1.000
    H19      H        0.55490    0.62450    0.24390    1.000
    H20      H        0.64460    0.67810    0.40490    1.000
    C1       C        0.12860    0.80370    0.54130    1.000
    C2       C        0.25660    0.83660    0.55340    1.000
    C3       C        0.33030    0.93040    0.59960    1.000
    C4       C        0.26950    0.98650    0.63070    1.000
    C5       C        0.14310    0.94910    0.61690    1.000
    C6       C        0.46840    0.97110    0.61350    1.000
    C7       C        0.53590    0.91260    0.59220    1.000
    C8       C        0.66380    0.95550    0.60710    1.000
    C9       C        0.72100    0.05270    0.64530    1.000
    C10      C        0.64790    0.10550    0.66490    1.000
    C11      C        0.87120    0.35180    0.80140    1.000
    C12      C        0.82360    0.25350    0.77050    1.000
    C13      C        0.70290    0.21030    0.70190    1.000
    C14      C        0.63670    0.27000    0.66920    1.000
    C15      C        0.69060    0.36650    0.70230    1.000
    C16      C        0.74040    0.89620    0.58340    1.000
    C17      C        0.12860    0.54130    0.80370    1.000
    C18      C        0.25660    0.55340    0.83660    1.000
    C19      C        0.33030    0.59960    0.93040    1.000
    C20      C        0.26950    0.63070    0.98650    1.000
    C21      C        0.14310    0.61690    0.94910    1.000
    C22      C        0.46840    0.61350    0.97110    1.000
    C23      C        0.53590    0.59220    0.91260    1.000
    C24      C        0.66380    0.60710    0.95550    1.000
    C25      C        0.72100    0.64530    0.05270    1.000
    C26      C        0.64790    0.66490    0.10550    1.000
    C27      C        0.87120    0.80140    0.35180    1.000
    C28      C        0.82360    0.77050    0.25350    1.000
    C29      C        0.70290    0.70190    0.21030    1.000
    C30      C        0.63670    0.66920    0.27000    1.000
    C31      C        0.69060    0.70230    0.36650    1.000
    C32      C        0.74040    0.58340    0.89620    1.000
    C33      C        0.91240    0.72740    0.72740    1.000
    C34      C        0.86670    0.64180    0.64180    1.000
    N1       N        0.07160    0.85878    0.57278    1.000
    N2       N        0.52300    0.06523    0.64837    1.000
    N3       N        0.80740    0.40898    0.76808    1.000
    N4       N        0.07160    0.57278    0.85878    1.000
    N5       N        0.52300    0.64837    0.06523    1.000
    N6       N        0.80740    0.76808    0.40898    1.000
    O1       O        0.68980    0.80780    0.55960    1.000
    O2       O        0.85200    0.93956    0.58828    1.000
    O3       O        0.92930    0.80817    0.70865    1.000
    O4       O        0.85000    0.65988    0.55982    1.000
    O5       O        0.68980    0.55960    0.80780    1.000
    O6       O        0.85200    0.58828    0.93956    1.000
    O7       O        0.92930    0.70865    0.80817    1.000
    O8       O        0.85000    0.55982    0.65988    1.000
    Zn3      Zn       0.11810    0.43919    0.19457    1.000
    Zn4      Zn       0.11810    0.19457    0.43919    1.000
    H21      H        0.91950    0.49020    0.25960    1.000
    H22      H        0.70700    0.46930    0.20430    1.000
    H23      H        0.68520    0.33850    0.94970    1.000
    H24      H        0.89510    0.36050    0.01130    1.000
    H25      H        0.50450    0.43150    0.15310    1.000
    H26      H        0.19260    0.34240    0.91740    1.000
    H27      H        0.04840    0.15200    0.62020    1.000
    H28      H        0.12840    0.20490    0.78350    1.000
    H29      H        0.44510    0.37550    0.75610    1.000
    H30      H        0.35540    0.32190    0.59510    1.000
    H31      H        0.91950    0.25960    0.49020    1.000
    H32      H        0.70700    0.20430    0.46930    1.000
    H33      H        0.68520    0.94970    0.33850    1.000
    H34      H        0.89510    0.01130    0.36050    1.000
    H35      H        0.50450    0.15310    0.43150    1.000
    H36      H        0.19260    0.91740    0.34240    1.000
    H37      H        0.04840    0.62020    0.15200    1.000
    H38      H        0.12840    0.78350    0.20490    1.000
    H39      H        0.44510    0.75610    0.37550    1.000
    H40      H        0.35540    0.59510    0.32190    1.000
    C35      C        0.87140    0.45870    0.19630    1.000
    C36      C        0.74340    0.44660    0.16340    1.000
    C37      C        0.66970    0.40040    0.06960    1.000
    C38      C        0.73050    0.36930    0.01350    1.000
    C39      C        0.85690    0.38310    0.05090    1.000
    C40      C        0.53160    0.38650    0.02890    1.000
    C41      C        0.46410    0.40780    0.08740    1.000
    C42      C        0.33620    0.39290    0.04450    1.000
    C43      C        0.27900    0.35470    0.94730    1.000
    C44      C        0.35210    0.33510    0.89450    1.000
    C45      C        0.12880    0.19860    0.64820    1.000
    C46      C        0.17640    0.22950    0.74650    1.000
    C47      C        0.29710    0.29810    0.78970    1.000
    C48      C        0.36330    0.33080    0.73000    1.000
    C49      C        0.30940    0.29770    0.63350    1.000
    C50      C        0.25960    0.41660    0.10380    1.000
    C51      C        0.87140    0.19630    0.45870    1.000
    C52      C        0.74340    0.16340    0.44660    1.000
    C53      C        0.66970    0.06960    0.40040    1.000
    C54      C        0.73050    0.01350    0.36930    1.000
    C55      C        0.85690    0.05090    0.38310    1.000
    C56      C        0.53160    0.02890    0.38650    1.000
    C57      C        0.46410    0.08740    0.40780    1.000
    C58      C        0.33620    0.04450    0.39290    1.000
    C59      C        0.27900    0.94730    0.35470    1.000
    C60      C        0.35210    0.89450    0.33510    1.000
    C61      C        0.12880    0.64820    0.19860    1.000
    C62      C        0.17640    0.74650    0.22950    1.000
    C63      C        0.29710    0.78970    0.29810    1.000
    C64      C        0.36330    0.73000    0.33080    1.000
    C65      C        0.30940    0.63350    0.29770    1.000
    C66      C        0.25960    0.10380    0.41660    1.000
    C67      C        0.08760    0.27260    0.27260    1.000
    C68      C        0.13330    0.35820    0.35820    1.000
    N7       N        0.92840    0.42722    0.14122    1.000
    N8       N        0.47700    0.35163    0.93477    1.000
    N9       N        0.19260    0.23192    0.59102    1.000
    N10      N        0.92840    0.14122    0.42722    1.000
    N11      N        0.47700    0.93477    0.35163    1.000
    N12      N        0.19260    0.59102    0.23192    1.000
    O9       O        0.31020    0.44040    0.19220    1.000
    O10      O        0.14800    0.41172    0.06044    1.000
    O11      O        0.07070    0.29135    0.19183    1.000
    O12      O        0.15000    0.44018    0.34012    1.000
    O13      O        0.31020    0.19220    0.44040    1.000
    O14      O        0.14800    0.06044    0.41172    1.000
    O15      O        0.07070    0.19183    0.29135    1.000
    O16      O        0.15000    0.34012    0.44018    1.000
