# CIF file generated by openbabel 3.1.0, see https://openbabel.org
data_I
_chemical_name_common 'FEVDER_clean'
_cell_length_a 8.4073
_cell_length_b 11.491
_cell_length_c 35.108
_cell_angle_alpha 90
_cell_angle_beta 90
_cell_angle_gamma 105.842
_space_group_name_H-M_alt 'P 1'
_space_group_name_Hall 'P 1'
loop_
    _symmetry_equiv_pos_as_xyz
    x,y,z
loop_
    _atom_site_label
    _atom_site_type_symbol
    _atom_site_fract_x
    _atom_site_fract_y
    _atom_site_fract_z
    _atom_site_occupancy
    Co1      Co       0.47425    0.50377    0.85219    1.000
    Co2      Co       0.52575    0.99623    0.35219    1.000
    Co3      Co       0.52575    0.49623    0.14781    1.000
    Co4      Co       0.47425    0.00377    0.64781    1.000
    H1       H        0.25850    0.42910    0.96220    1.000
    H2       H        0.32610    0.54170    0.01400    1.000
    H3       H        0.47100    0.59200    0.06870    1.000
    H4       H        0.18660    0.31730    0.12120    1.000
    H5       H        0.03230    0.25990    0.06800    1.000
    H6       H        0.84940    0.26370    0.02060    1.000
    H7       H        0.85170    0.24560    0.90700    1.000
    H8       H        0.58480    0.23310    0.01510    1.000
    H9       H        0.30930    0.13660    0.01280    1.000
    H10      H        0.35470    0.00490    0.91390    1.000
    H11      H        0.63490    0.09530    0.91360    1.000
    H12      H        0.53530    0.91620    0.83440    1.000
    H13      H        0.86900    0.27070    0.81810    1.000
    H14      H        0.77350    0.42970    0.83600    1.000
    H15      H        0.32010    0.22930    0.83580    1.000
    H16      H        0.40140    0.06350    0.81860    1.000
    H17      H        0.89200    0.13250    0.77150    1.000
    H18      H        0.86620    0.78180    0.78090    1.000
    H19      H        0.97910    0.08750    0.70820    1.000
    H20      H        0.18580    0.09590    0.66560    1.000
    H21      H        0.37310    0.89200    0.72950    1.000
    H22      H        0.16840    0.87270    0.77370    1.000
    H23      H        0.74150    0.07090    0.46220    1.000
    H24      H        0.67390    0.95830    0.51400    1.000
    H25      H        0.52900    0.90800    0.56870    1.000
    H26      H        0.81340    0.18270    0.62120    1.000
    H27      H        0.96770    0.24010    0.56800    1.000
    H28      H        0.15060    0.23630    0.52060    1.000
    H29      H        0.14830    0.25440    0.40700    1.000
    H30      H        0.41520    0.26690    0.51510    1.000
    H31      H        0.69070    0.36340    0.51280    1.000
    H32      H        0.64530    0.49510    0.41390    1.000
    H33      H        0.36510    0.40470    0.41360    1.000
    H34      H        0.46470    0.58380    0.33440    1.000
    H35      H        0.13100    0.22930    0.31810    1.000
    H36      H        0.22650    0.07030    0.33600    1.000
    H37      H        0.67990    0.27070    0.33580    1.000
    H38      H        0.59860    0.43650    0.31860    1.000
    H39      H        0.10800    0.36750    0.27150    1.000
    H40      H        0.13380    0.71820    0.28090    1.000
    H41      H        0.02090    0.41250    0.20820    1.000
    H42      H        0.81420    0.40410    0.16560    1.000
    H43      H        0.62690    0.60800    0.22950    1.000
    H44      H        0.83160    0.62730    0.27370    1.000
    H45      H        0.74150    0.57090    0.03780    1.000
    H46      H        0.67390    0.45830    0.98600    1.000
    H47      H        0.52900    0.40800    0.93130    1.000
    H48      H        0.81340    0.68270    0.87880    1.000
    H49      H        0.96770    0.74010    0.93200    1.000
    H50      H        0.15060    0.73630    0.97940    1.000
    H51      H        0.14830    0.75440    0.09300    1.000
    H52      H        0.41520    0.76690    0.98490    1.000
    H53      H        0.69070    0.86340    0.98720    1.000
    H54      H        0.64530    0.99510    0.08610    1.000
    H55      H        0.36510    0.90470    0.08640    1.000
    H56      H        0.46470    0.08380    0.16560    1.000
    H57      H        0.13100    0.72930    0.18190    1.000
    H58      H        0.22650    0.57030    0.16400    1.000
    H59      H        0.67990    0.77070    0.16420    1.000
    H60      H        0.59860    0.93650    0.18140    1.000
    H61      H        0.10800    0.86750    0.22850    1.000
    H62      H        0.13380    0.21820    0.21910    1.000
    H63      H        0.02090    0.91250    0.29180    1.000
    H64      H        0.81420    0.90410    0.33440    1.000
    H65      H        0.62690    0.10800    0.27050    1.000
    H66      H        0.83160    0.12730    0.22630    1.000
    H67      H        0.25850    0.92910    0.53780    1.000
    H68      H        0.32610    0.04170    0.48600    1.000
    H69      H        0.47100    0.09200    0.43130    1.000
    H70      H        0.18660    0.81730    0.37880    1.000
    H71      H        0.03230    0.75990    0.43200    1.000
    H72      H        0.84940    0.76370    0.47940    1.000
    H73      H        0.85170    0.74560    0.59300    1.000
    H74      H        0.58480    0.73310    0.48490    1.000
    H75      H        0.30930    0.63660    0.48720    1.000
    H76      H        0.35470    0.50490    0.58610    1.000
    H77      H        0.63490    0.59530    0.58640    1.000
    H78      H        0.53530    0.41620    0.66560    1.000
    H79      H        0.86900    0.77070    0.68190    1.000
    H80      H        0.77350    0.92970    0.66400    1.000
    H81      H        0.32010    0.72930    0.66420    1.000
    H82      H        0.40140    0.56350    0.68140    1.000
    H83      H        0.89200    0.63250    0.72850    1.000
    H84      H        0.86620    0.28180    0.71910    1.000
    H85      H        0.97910    0.58750    0.79180    1.000
    H86      H        0.18580    0.59590    0.83440    1.000
    H87      H        0.37310    0.39200    0.77050    1.000
    H88      H        0.16840    0.37270    0.72630    1.000
    C1       C        0.16280    0.36200    0.89189    1.000
    C2       C        0.07060    0.33940    0.92885    1.000
    C3       C        0.14980    0.38100    0.96279    1.000
    C4       C        0.07080    0.35240    0.99747    1.000
    C5       C        0.16230    0.39140    0.03352    1.000
    C6       C        0.29530    0.49310    0.03546    1.000
    C7       C        0.38200    0.52290    0.06863    1.000
    C8       C        0.21630    0.36320    0.09917    1.000
    C9       C        0.12300    0.32760    0.06714    1.000
    C10      C        0.90440    0.28390    0.99754    1.000
    C11      C        0.82160    0.24620    0.96402    1.000
    C12      C        0.90620    0.27280    0.92966    1.000
    C13      C        0.64260    0.17950    0.96423    1.000
    C14      C        0.54140    0.18760    0.99370    1.000
    C15      C        0.37460    0.12890    0.99212    1.000
    C16      C        0.40160    0.05210    0.93469    1.000
    C17      C        0.57090    0.10710    0.93404    1.000
    C18      C        0.61070    0.70850    0.82623    1.000
    C19      C        0.68920    0.83020    0.81013    1.000
    C20      C        0.62810    0.92740    0.81899    1.000
    C21      C        0.70550    0.04140    0.80481    1.000
    C22      C        0.64610    0.14720    0.81596    1.000
    C23      C        0.75620    0.25970    0.82157    1.000
    C24      C        0.69740    0.35490    0.83229    1.000
    C25      C        0.43230    0.23770    0.83226    1.000
    C26      C        0.47990    0.13750    0.82178    1.000
    C27      C        0.84120    0.05620    0.78128    1.000
    C28      C        0.90300    0.96030    0.77193    1.000
    C29      C        0.82550    0.84720    0.78679    1.000
    C30      C        0.04340    0.97430    0.74560    1.000
    C31      C        0.05600    0.04440    0.71290    1.000
    C32      C        0.18180    0.05010    0.68754    1.000
    C33      C        0.29070    0.93020    0.72488    1.000
    C34      C        0.16800    0.91800    0.75174    1.000
    C35      C        0.83720    0.13800    0.39189    1.000
    C36      C        0.92940    0.16060    0.42885    1.000
    C37      C        0.85020    0.11900    0.46279    1.000
    C38      C        0.92920    0.14760    0.49747    1.000
    C39      C        0.83770    0.10860    0.53352    1.000
    C40      C        0.70470    0.00690    0.53546    1.000
    C41      C        0.61800    0.97710    0.56863    1.000
    C42      C        0.78370    0.13680    0.59917    1.000
    C43      C        0.87700    0.17240    0.56714    1.000
    C44      C        0.09560    0.21610    0.49754    1.000
    C45      C        0.17840    0.25380    0.46402    1.000
    C46      C        0.09380    0.22720    0.42966    1.000
    C47      C        0.35740    0.32050    0.46423    1.000
    C48      C        0.45860    0.31240    0.49370    1.000
    C49      C        0.62540    0.37110    0.49212    1.000
    C50      C        0.59840    0.44790    0.43469    1.000
    C51      C        0.42910    0.39290    0.43404    1.000
    C52      C        0.38930    0.79150    0.32623    1.000
    C53      C        0.31080    0.66980    0.31013    1.000
    C54      C        0.37190    0.57260    0.31899    1.000
    C55      C        0.29450    0.45860    0.30481    1.000
    C56      C        0.35390    0.35280    0.31596    1.000
    C57      C        0.24380    0.24030    0.32157    1.000
    C58      C        0.30260    0.14510    0.33229    1.000
    C59      C        0.56770    0.26230    0.33226    1.000
    C60      C        0.52010    0.36250    0.32178    1.000
    C61      C        0.15880    0.44380    0.28128    1.000
    C62      C        0.09700    0.53970    0.27193    1.000
    C63      C        0.17450    0.65280    0.28679    1.000
    C64      C        0.95660    0.52570    0.24560    1.000
    C65      C        0.94400    0.45560    0.21290    1.000
    C66      C        0.81820    0.44990    0.18754    1.000
    C67      C        0.70930    0.56980    0.22488    1.000
    C68      C        0.83200    0.58200    0.25174    1.000
    C69      C        0.83720    0.63800    0.10811    1.000
    C70      C        0.92940    0.66060    0.07115    1.000
    C71      C        0.85020    0.61900    0.03721    1.000
    C72      C        0.92920    0.64760    0.00253    1.000
    C73      C        0.83770    0.60860    0.96648    1.000
    C74      C        0.70470    0.50690    0.96454    1.000
    C75      C        0.61800    0.47710    0.93137    1.000
    C76      C        0.78370    0.63680    0.90083    1.000
    C77      C        0.87700    0.67240    0.93286    1.000
    C78      C        0.09560    0.71610    0.00246    1.000
    C79      C        0.17840    0.75380    0.03598    1.000
    C80      C        0.09380    0.72720    0.07034    1.000
    C81      C        0.35740    0.82050    0.03577    1.000
    C82      C        0.45860    0.81240    0.00630    1.000
    C83      C        0.62540    0.87110    0.00788    1.000
    C84      C        0.59840    0.94790    0.06531    1.000
    C85      C        0.42910    0.89290    0.06596    1.000
    C86      C        0.38930    0.29150    0.17377    1.000
    C87      C        0.31080    0.16980    0.18987    1.000
    C88      C        0.37190    0.07260    0.18101    1.000
    C89      C        0.29450    0.95860    0.19519    1.000
    C90      C        0.35390    0.85280    0.18404    1.000
    C91      C        0.24380    0.74030    0.17843    1.000
    C92      C        0.30260    0.64510    0.16771    1.000
    C93      C        0.56770    0.76230    0.16774    1.000
    C94      C        0.52010    0.86250    0.17822    1.000
    C95      C        0.15880    0.94380    0.21872    1.000
    C96      C        0.09700    0.03970    0.22807    1.000
    C97      C        0.17450    0.15280    0.21321    1.000
    C98      C        0.95660    0.02570    0.25440    1.000
    C99      C        0.94400    0.95560    0.28710    1.000
    C100     C        0.81820    0.94990    0.31246    1.000
    C101     C        0.70930    0.06980    0.27512    1.000
    C102     C        0.83200    0.08200    0.24826    1.000
    C103     C        0.16280    0.86200    0.60811    1.000
    C104     C        0.07060    0.83940    0.57115    1.000
    C105     C        0.14980    0.88100    0.53721    1.000
    C106     C        0.07080    0.85240    0.50253    1.000
    C107     C        0.16230    0.89140    0.46648    1.000
    C108     C        0.29530    0.99310    0.46454    1.000
    C109     C        0.38200    0.02290    0.43137    1.000
    C110     C        0.21630    0.86320    0.40083    1.000
    C111     C        0.12300    0.82760    0.43286    1.000
    C112     C        0.90440    0.78390    0.50246    1.000
    C113     C        0.82160    0.74620    0.53598    1.000
    C114     C        0.90620    0.77280    0.57034    1.000
    C115     C        0.64260    0.67950    0.53577    1.000
    C116     C        0.54140    0.68760    0.50630    1.000
    C117     C        0.37460    0.62890    0.50788    1.000
    C118     C        0.40160    0.55210    0.56531    1.000
    C119     C        0.57090    0.60710    0.56596    1.000
    C120     C        0.61070    0.20850    0.67377    1.000
    C121     C        0.68920    0.33020    0.68987    1.000
    C122     C        0.62810    0.42740    0.68101    1.000
    C123     C        0.70550    0.54140    0.69519    1.000
    C124     C        0.64610    0.64720    0.68404    1.000
    C125     C        0.75620    0.75970    0.67843    1.000
    C126     C        0.69740    0.85490    0.66771    1.000
    C127     C        0.43230    0.73770    0.66774    1.000
    C128     C        0.47990    0.63750    0.67822    1.000
    C129     C        0.84120    0.55620    0.71872    1.000
    C130     C        0.90300    0.46030    0.72807    1.000
    C131     C        0.82550    0.34720    0.71321    1.000
    C132     C        0.04340    0.47430    0.75440    1.000
    C133     C        0.05600    0.54440    0.78710    1.000
    C134     C        0.18180    0.55010    0.81246    1.000
    C135     C        0.29070    0.43020    0.77512    1.000
    C136     C        0.16800    0.41800    0.74826    1.000
    N1       N        0.34780    0.46010    0.10074    1.000
    N2       N        0.30280    0.06310    0.96328    1.000
    N3       N        0.53750    0.34680    0.83776    1.000
    N4       N        0.29950    0.99280    0.69277    1.000
    N5       N        0.65220    0.03990    0.60074    1.000
    N6       N        0.69720    0.43690    0.46328    1.000
    N7       N        0.46250    0.15320    0.33776    1.000
    N8       N        0.70050    0.50720    0.19277    1.000
    N9       N        0.65220    0.53990    0.89926    1.000
    N10      N        0.69720    0.93690    0.03672    1.000
    N11      N        0.46250    0.65320    0.16224    1.000
    N12      N        0.70050    0.00720    0.30723    1.000
    N13      N        0.34780    0.96010    0.39926    1.000
    N14      N        0.30280    0.56310    0.53672    1.000
    N15      N        0.53750    0.84680    0.66224    1.000
    N16      N        0.29950    0.49280    0.80723    1.000
    O1       O        0.29360    0.45090    0.89171    1.000
    O2       O        0.10940    0.29450    0.86457    1.000
    O3       O        0.49700    0.69621    0.85062    1.000
    O4       O        0.65930    0.61924    0.81575    1.000
    O5       O        0.70640    0.04910    0.39171    1.000
    O6       O        0.89060    0.20550    0.36457    1.000
    O7       O        0.50300    0.80379    0.35062    1.000
    O8       O        0.34070    0.88076    0.31575    1.000
    O9       O        0.70640    0.54910    0.10829    1.000
    O10      O        0.89060    0.70550    0.13543    1.000
    O11      O        0.50300    0.30379    0.14938    1.000
    O12      O        0.34070    0.38076    0.18425    1.000
    O13      O        0.29360    0.95090    0.60829    1.000
    O14      O        0.10940    0.79450    0.63543    1.000
    O15      O        0.49700    0.19621    0.64938    1.000
    O16      O        0.65930    0.11924    0.68425    1.000
