data_functionalizedCrystal
_audit_creation_method	'EQeq! by Chris Wilmer'
_symmetry_space_group_name_H-M	'P1'
_symmetry_Int_Tables_number	1
_symmetry_cell_setting	triclinic
loop_
_symmetry_equiv_pos_as_xyz
  x,y,z
_cell_length_a	6.8838
_cell_length_b	34.346
_cell_length_c	13.0916
_cell_angle_alpha	90
_cell_angle_beta	90
_cell_angle_gamma	90
loop_
_atom_site_label
_atom_site_type_symbol
_atom_site_fract_x
_atom_site_fract_y
_atom_site_fract_z
_atom_site_charge
Mof_Gd	Gd	0.0966	0.51973	0.8686	0.848
Mof_Gd	Gd	0.1501	0.5179	0.873	0.768
Mof_N 	N 	0.515	0.6957	0.9376	-0.244
Mof_N 	N 	0.8283	0.6953	0.1435	-0.247
Mof_O 	O 	0.3978	0.5536	0.884	-0.455
Mof_O 	O 	0.5585	0.5715	0.7429	-0.415
Mof_O 	O 	0.976	0.5702	0.9703	-0.403
Mof_O 	O 	0.8695	0.55011	0.1234	-0.42
Mof_O 	O 	0.7714	0.50128	0.7909	-0.472
Mof_O 	O 	0.8085	0.4945	0.9555	-0.496
Mof_C 	C 	0.4367	0.6679	0.994	0.021
Mof_H 	H 	0.3885	0.6742	0.0583	0.016
Mof_C 	C 	0.4237	0.6294	0.9605	-0.042
Mof_H 	H 	0.3599	0.6109	0.0001	0.058
Mof_C 	C 	0.504	0.619	0.8704	-0.071
Mof_C 	C 	0.4838	0.5781	0.8298	0.419
Mof_C 	C 	0.595	0.6472	0.8134	-0.051
Mof_H 	H 	0.6519	0.6409	0.7511	0.055
Mof_C 	C 	0.6	0.6855	0.85	0.025
Mof_H 	H 	0.6648	0.7044	0.8121	-0.028
Mof_C 	C 	0.7668	0.6663	0.203	0.045
Mof_H 	H 	0.7055	0.6728	0.2639	0.004
Mof_C 	C 	0.788	0.6275	0.1801	-0.066
Mof_H 	H 	0.7441	0.6084	0.2249	0.065
Mof_C 	C 	0.8762	0.6175	0.089	-0.05
Mof_C 	C 	0.9082	0.5756	0.058	0.393
Mof_C 	C 	0.9415	0.6469	0.0259	-0.08
Mof_H 	H 	0.0021	0.641	0.9643	0.07
Mof_C 	C 	0.9154	0.6851	0.0558	0.042
Mof_H 	H 	0.9604	0.7047	0.0129	-0.042
Mof_C 	C 	0.707	0.4856	0.8754	0.455
Mof_C 	C 	0.515	0.4843	0.879	-0.156
Mof_C 	C 	0.572	0.4576	0.875	-0.047
Mof_Gd	Gd	0.4034	0.48027	0.3686	0.851
Mof_Gd	Gd	0.3499	0.4821	0.373	0.773
Mof_N 	N 	0.985	0.3043	0.4376	-0.238
Mof_N 	N 	0.6717	0.3047	0.6435	-0.242
Mof_O 	O 	0.1022	0.4464	0.384	-0.453
Mof_O 	O 	0.9415	0.4285	0.2429	-0.41
Mof_O 	O 	0.524	0.4298	0.4703	-0.407
Mof_O 	O 	0.6305	0.44989	0.6234	-0.421
Mof_O 	O 	0.7286	0.49872	0.2909	-0.473
Mof_O 	O 	0.6915	0.5055	0.4555	-0.499
Mof_C 	C 	0.0633	0.3321	0.494	0.018
Mof_H 	H 	0.1115	0.3258	0.5583	0.013
Mof_C 	C 	0.0763	0.3706	0.4605	-0.05
Mof_H 	H 	0.1401	0.3891	0.5001	0.058
Mof_C 	C 	0.996	0.381	0.3704	-0.057
Mof_C 	C 	0.0162	0.4219	0.3298	0.409
Mof_C 	C 	0.905	0.3528	0.3134	-0.056
Mof_H 	H 	0.8481	0.3591	0.2511	0.058
Mof_C 	C 	0.9	0.3145	0.35	0.03
Mof_H 	H 	0.8352	0.2956	0.3121	-0.027
Mof_C 	C 	0.7332	0.3337	0.703	0.043
Mof_H 	H 	0.7945	0.3272	0.7639	0.008
Mof_C 	C 	0.712	0.3725	0.6801	-0.058
Mof_H 	H 	0.7559	0.3916	0.7249	0.065
Mof_C 	C 	0.6238	0.3825	0.589	-0.058
Mof_C 	C 	0.5918	0.4244	0.558	0.403
Mof_C 	C 	0.5585	0.3531	0.5259	-0.059
Mof_H 	H 	0.4979	0.359	0.4643	0.059
Mof_C 	C 	0.5846	0.3149	0.5558	0.034
Mof_H 	H 	0.5396	0.2953	0.5129	-0.035
Mof_C 	C 	0.793	0.5144	0.3754	0.456
Mof_C 	C 	0.985	0.5157	0.379	-0.155
Mof_C 	C 	0.928	0.5424	0.375	-0.051
Mof_Gd	Gd	0.9034	0.01973	0.1314	0.849
Mof_Gd	Gd	0.8499	0.0179	0.127	0.769
Mof_N 	N 	0.485	0.1957	0.0624	-0.243
Mof_N 	N 	0.1717	0.1953	0.8565	-0.246
Mof_O 	O 	0.6022	0.0536	0.116	-0.455
Mof_O 	O 	0.4415	0.0715	0.2571	-0.415
Mof_O 	O 	0.024	0.0702	0.0297	-0.404
Mof_O 	O 	0.1305	0.05011	0.8766	-0.42
Mof_O 	O 	0.2286	0.00128	0.2091	-0.472
Mof_O 	O 	0.1915	0.9945	0.0445	-0.496
Mof_C 	C 	0.5633	0.1679	0.006	0.021
Mof_H 	H 	0.6115	0.1742	0.9417	0.016
Mof_C 	C 	0.5763	0.1294	0.0395	-0.043
Mof_H 	H 	0.6401	0.1109	0.9999	0.058
Mof_C 	C 	0.496	0.119	0.1296	-0.071
Mof_C 	C 	0.5162	0.0781	0.1702	0.419
Mof_C 	C 	0.405	0.1472	0.1866	-0.051
Mof_H 	H 	0.3481	0.1409	0.2489	0.055
Mof_C 	C 	0.4	0.1855	0.15	0.026
Mof_H 	H 	0.3352	0.2044	0.1879	-0.028
Mof_C 	C 	0.2332	0.1663	0.797	0.045
Mof_H 	H 	0.2945	0.1728	0.7361	0.004
Mof_C 	C 	0.212	0.1275	0.8199	-0.066
Mof_H 	H 	0.2559	0.1084	0.7751	0.065
Mof_C 	C 	0.1238	0.1175	0.911	-0.05
Mof_C 	C 	0.0918	0.0756	0.942	0.394
Mof_C 	C 	0.0585	0.1469	0.9741	-0.08
Mof_H 	H 	0.9979	0.141	0.0357	0.07
Mof_C 	C 	0.0846	0.1851	0.9442	0.041
Mof_H 	H 	0.0396	0.2047	0.9871	-0.042
Mof_C 	C 	0.293	0.9856	0.1246	0.455
Mof_C 	C 	0.485	0.9843	0.121	-0.155
Mof_C 	C 	0.428	0.9576	0.125	-0.047
Mof_Gd	Gd	0.5966	0.98027	0.6314	0.851
Mof_Gd	Gd	0.6501	0.9821	0.627	0.773
Mof_N 	N 	0.015	0.8043	0.5624	-0.238
Mof_N 	N 	0.3283	0.8047	0.3565	-0.242
Mof_O 	O 	0.8978	0.9464	0.616	-0.453
Mof_O 	O 	0.0585	0.9285	0.7571	-0.41
Mof_O 	O 	0.476	0.9298	0.5297	-0.407
Mof_O 	O 	0.3695	0.94989	0.3766	-0.421
Mof_O 	O 	0.2714	0.99872	0.7091	-0.473
Mof_O 	O 	0.3085	0.0055	0.5445	-0.499
Mof_C 	C 	0.9367	0.8321	0.506	0.018
Mof_H 	H 	0.8885	0.8258	0.4417	0.013
Mof_C 	C 	0.9237	0.8706	0.5395	-0.05
Mof_H 	H 	0.8599	0.8891	0.4999	0.058
Mof_C 	C 	0.004	0.881	0.6296	-0.058
Mof_C 	C 	0.9838	0.9219	0.6702	0.409
Mof_C 	C 	0.095	0.8528	0.6866	-0.056
Mof_H 	H 	0.1519	0.8591	0.7489	0.058
Mof_C 	C 	0.1	0.8145	0.65	0.03
Mof_H 	H 	0.1648	0.7956	0.6879	-0.027
Mof_C 	C 	0.2668	0.8337	0.297	0.043
Mof_H 	H 	0.2055	0.8272	0.2361	0.008
Mof_C 	C 	0.288	0.8725	0.3199	-0.058
Mof_H 	H 	0.2441	0.8916	0.2751	0.065
Mof_C 	C 	0.3762	0.8825	0.411	-0.058
Mof_C 	C 	0.4082	0.9244	0.442	0.403
Mof_C 	C 	0.4415	0.8531	0.4741	-0.059
Mof_H 	H 	0.5021	0.859	0.5357	0.059
Mof_C 	C 	0.4154	0.8149	0.4442	0.034
Mof_H 	H 	0.4604	0.7953	0.4871	-0.035
Mof_C 	C 	0.207	0.0144	0.6246	0.456
Mof_C 	C 	0.015	0.0157	0.621	-0.154
Mof_C 	C 	0.072	0.0424	0.625	-0.051
Mof_Gd	Gd	0.9034	0.48027	0.1314	0.849
Mof_Gd	Gd	0.8499	0.4821	0.127	0.769
Mof_N 	N 	0.485	0.3043	0.0624	-0.243
Mof_N 	N 	0.1717	0.3047	0.8565	-0.246
Mof_O 	O 	0.6022	0.4464	0.116	-0.455
Mof_O 	O 	0.4415	0.4285	0.2571	-0.415
Mof_O 	O 	0.024	0.4298	0.0297	-0.403
Mof_O 	O 	0.1305	0.44989	0.8766	-0.42
Mof_O 	O 	0.2286	0.49872	0.2091	-0.472
Mof_O 	O 	0.1915	0.5055	0.0445	-0.496
Mof_C 	C 	0.5633	0.3321	0.006	0.021
Mof_H 	H 	0.6115	0.3258	0.9417	0.016
Mof_C 	C 	0.5763	0.3706	0.0395	-0.042
Mof_H 	H 	0.6401	0.3891	0.9999	0.058
Mof_C 	C 	0.496	0.381	0.1296	-0.071
Mof_C 	C 	0.5162	0.4219	0.1702	0.419
Mof_C 	C 	0.405	0.3528	0.1866	-0.051
Mof_H 	H 	0.3481	0.3591	0.2489	0.055
Mof_C 	C 	0.4	0.3145	0.15	0.025
Mof_H 	H 	0.3352	0.2956	0.1879	-0.028
Mof_C 	C 	0.2332	0.3337	0.797	0.045
Mof_H 	H 	0.2945	0.3272	0.7361	0.004
Mof_C 	C 	0.212	0.3725	0.8199	-0.066
Mof_H 	H 	0.2559	0.3916	0.7751	0.065
Mof_C 	C 	0.1238	0.3825	0.911	-0.05
Mof_C 	C 	0.0918	0.4244	0.942	0.393
Mof_C 	C 	0.0585	0.3531	0.9741	-0.08
Mof_H 	H 	0.9979	0.359	0.0357	0.07
Mof_C 	C 	0.0846	0.3149	0.9442	0.042
Mof_H 	H 	0.0396	0.2953	0.9871	-0.042
Mof_C 	C 	0.293	0.5144	0.1246	0.455
Mof_C 	C 	0.485	0.5157	0.121	-0.156
Mof_C 	C 	0.428	0.5424	0.125	-0.047
Mof_Gd	Gd	0.5966	0.51973	0.6314	0.851
Mof_Gd	Gd	0.6501	0.5179	0.627	0.773
Mof_N 	N 	0.015	0.6957	0.5624	-0.238
Mof_N 	N 	0.3283	0.6953	0.3565	-0.242
Mof_O 	O 	0.8978	0.5536	0.616	-0.453
Mof_O 	O 	0.0585	0.5715	0.7571	-0.41
Mof_O 	O 	0.476	0.5702	0.5297	-0.407
Mof_O 	O 	0.3695	0.55011	0.3766	-0.421
Mof_O 	O 	0.2714	0.50128	0.7091	-0.473
Mof_O 	O 	0.3085	0.4945	0.5445	-0.499
Mof_C 	C 	0.9367	0.6679	0.506	0.018
Mof_H 	H 	0.8885	0.6742	0.4417	0.013
Mof_C 	C 	0.9237	0.6294	0.5395	-0.05
Mof_H 	H 	0.8599	0.6109	0.4999	0.058
Mof_C 	C 	0.004	0.619	0.6296	-0.057
Mof_C 	C 	0.9838	0.5781	0.6702	0.409
Mof_C 	C 	0.095	0.6472	0.6866	-0.056
Mof_H 	H 	0.1519	0.6409	0.7489	0.058
Mof_C 	C 	0.1	0.6855	0.65	0.03
Mof_H 	H 	0.1648	0.7044	0.6879	-0.027
Mof_C 	C 	0.2668	0.6663	0.297	0.043
Mof_H 	H 	0.2055	0.6728	0.2361	0.008
Mof_C 	C 	0.288	0.6275	0.3199	-0.058
Mof_H 	H 	0.2441	0.6084	0.2751	0.065
Mof_C 	C 	0.3762	0.6175	0.411	-0.058
Mof_C 	C 	0.4082	0.5756	0.442	0.403
Mof_C 	C 	0.4415	0.6469	0.4741	-0.059
Mof_H 	H 	0.5021	0.641	0.5357	0.059
Mof_C 	C 	0.4154	0.6851	0.4442	0.034
Mof_H 	H 	0.4604	0.7047	0.4871	-0.035
Mof_C 	C 	0.207	0.4856	0.6246	0.456
Mof_C 	C 	0.015	0.4843	0.621	-0.155
Mof_C 	C 	0.072	0.4576	0.625	-0.051
Mof_Gd	Gd	0.0966	0.98027	0.8686	0.849
Mof_Gd	Gd	0.1501	0.9821	0.873	0.769
Mof_N 	N 	0.515	0.8043	0.9376	-0.243
Mof_N 	N 	0.8283	0.8047	0.1435	-0.246
Mof_O 	O 	0.3978	0.9464	0.884	-0.455
Mof_O 	O 	0.5585	0.9285	0.7429	-0.415
Mof_O 	O 	0.976	0.9298	0.9703	-0.404
Mof_O 	O 	0.8695	0.94989	0.1234	-0.42
Mof_O 	O 	0.7714	0.99872	0.7909	-0.472
Mof_O 	O 	0.8085	0.0055	0.9555	-0.496
Mof_C 	C 	0.4367	0.8321	0.994	0.021
Mof_H 	H 	0.3885	0.8258	0.0583	0.016
Mof_C 	C 	0.4237	0.8706	0.9605	-0.043
Mof_H 	H 	0.3599	0.8891	0.0001	0.058
Mof_C 	C 	0.504	0.881	0.8704	-0.071
Mof_C 	C 	0.4838	0.9219	0.8298	0.419
Mof_C 	C 	0.595	0.8528	0.8134	-0.051
Mof_H 	H 	0.6519	0.8591	0.7511	0.055
Mof_C 	C 	0.6	0.8145	0.85	0.026
Mof_H 	H 	0.6648	0.7956	0.8121	-0.028
Mof_C 	C 	0.7668	0.8337	0.203	0.045
Mof_H 	H 	0.7055	0.8272	0.2639	0.004
Mof_C 	C 	0.788	0.8725	0.1801	-0.066
Mof_H 	H 	0.7441	0.8916	0.2249	0.065
Mof_C 	C 	0.8762	0.8825	0.089	-0.05
Mof_C 	C 	0.9082	0.9244	0.058	0.394
Mof_C 	C 	0.9415	0.8531	0.0259	-0.08
Mof_H 	H 	0.0021	0.859	0.9643	0.07
Mof_C 	C 	0.9154	0.8149	0.0558	0.041
Mof_H 	H 	0.9604	0.7953	0.0129	-0.042
Mof_C 	C 	0.707	0.0144	0.8754	0.455
Mof_C 	C 	0.515	0.0157	0.879	-0.155
Mof_C 	C 	0.572	0.0424	0.875	-0.047
Mof_Gd	Gd	0.4034	0.01973	0.3686	0.851
Mof_Gd	Gd	0.3499	0.0179	0.373	0.773
Mof_N 	N 	0.985	0.1957	0.4376	-0.238
Mof_N 	N 	0.6717	0.1953	0.6435	-0.242
Mof_O 	O 	0.1022	0.0536	0.384	-0.453
Mof_O 	O 	0.9415	0.0715	0.2429	-0.41
Mof_O 	O 	0.524	0.0702	0.4703	-0.407
Mof_O 	O 	0.6305	0.05011	0.6234	-0.421
Mof_O 	O 	0.7286	0.00128	0.2909	-0.473
Mof_O 	O 	0.6915	0.9945	0.4555	-0.499
Mof_C 	C 	0.0633	0.1679	0.494	0.018
Mof_H 	H 	0.1115	0.1742	0.5583	0.013
Mof_C 	C 	0.0763	0.1294	0.4605	-0.05
Mof_H 	H 	0.1401	0.1109	0.5001	0.058
Mof_C 	C 	0.996	0.119	0.3704	-0.058
Mof_C 	C 	0.0162	0.0781	0.3298	0.409
Mof_C 	C 	0.905	0.1472	0.3134	-0.056
Mof_H 	H 	0.8481	0.1409	0.2511	0.058
Mof_C 	C 	0.9	0.1855	0.35	0.03
Mof_H 	H 	0.8352	0.2044	0.3121	-0.027
Mof_C 	C 	0.7332	0.1663	0.703	0.043
Mof_H 	H 	0.7945	0.1728	0.7639	0.008
Mof_C 	C 	0.712	0.1275	0.6801	-0.058
Mof_H 	H 	0.7559	0.1084	0.7249	0.065
Mof_C 	C 	0.6238	0.1175	0.589	-0.058
Mof_C 	C 	0.5918	0.0756	0.558	0.403
Mof_C 	C 	0.5585	0.1469	0.5259	-0.059
Mof_H 	H 	0.4979	0.141	0.4643	0.059
Mof_C 	C 	0.5846	0.1851	0.5558	0.034
Mof_H 	H 	0.5396	0.2047	0.5129	-0.035
Mof_C 	C 	0.793	0.9856	0.3754	0.456
Mof_C 	C 	0.985	0.9843	0.379	-0.154
Mof_C 	C 	0.928	0.9576	0.375	-0.051
Mof_Cu	Cu	0.4835	0.75	0.9754	0.84
Mof_Cu	Cu	0.3146	0.75	0.31907	0.857
Mof_Cl	Cl	0.2662	0.75	0.13	0.08
Mof_Cl	Cl	0.3788	0.75	0.1453	-0.8
Mof_Cu	Cu	0.0165	0.25	0.4754	0.836
Mof_Cu	Cu	0.1854	0.25	0.81907	0.854
Mof_Cl	Cl	0.2338	0.25	0.63	0.07
Mof_Cl	Cl	0.1212	0.25	0.6453	-0.799
Mof_Cu	Cu	0.5165	0.25	0.0246	0.84
Mof_Cu	Cu	0.6854	0.25	0.68093	0.857
Mof_Cl	Cl	0.7338	0.25	0.87	0.08
Mof_Cl	Cl	0.6212	0.25	0.8547	-0.8
Mof_Cu	Cu	0.9835	0.75	0.5246	0.836
Mof_Cu	Cu	0.8146	0.75	0.18093	0.854
Mof_Cl	Cl	0.7662	0.75	0.37	0.07
Mof_Cl	Cl	0.8788	0.75	0.3547	-0.799
_end
