data_functionalizedCrystal
_audit_creation_method	'EQeq! by Chris Wilmer'
_symmetry_space_group_name_H-M	'P1'
_symmetry_Int_Tables_number	1
_symmetry_cell_setting	triclinic
loop_
_symmetry_equiv_pos_as_xyz
  x,y,z
_cell_length_a	18.452
_cell_length_b	18.452
_cell_length_c	40.925
_cell_angle_alpha	90
_cell_angle_beta	90
_cell_angle_gamma	120
loop_
_atom_site_label
_atom_site_type_symbol
_atom_site_fract_x
_atom_site_fract_y
_atom_site_fract_z
_atom_site_charge
Mof_O 	O 	0.87091	0.00919	0.71615	-0.425
Mof_O 	O 	0.62822	0.10954	0.49825	-0.405
Mof_O 	O 	0.58807	0.02714	0.54276	-0.396
Mof_C 	C 	0.6407	0.0902	0.52631	0.355
Mof_C 	C 	0.72236	0.14669	0.54192	-0.095
Mof_C 	C 	0.7461	0.12632	0.57141	0.006
Mof_H 	H 	0.7093	0.0761	0.5816	0.041
Mof_C 	C 	0.8132	0.0741	0.6261	-0.034
Mof_H 	H 	0.7735	0.0334	0.6124	0.045
Mof_C 	C 	0.8337	0.0461	0.6545	0.032
Mof_H 	H 	0.807	0.9894	0.6597	0.012
Mof_C 	C 	0.7838	0.0943	0.6377	-0.102
Mof_C 	C 	0.8116	0.074	0.6669	0.017
Mof_H 	H 	0.7271	0.0689	0.6326	0.064
Mof_H 	H 	0.7714	0.0377	0.6816	0.034
Mof_O 	O 	0.99081	0.86172	0.71615	-0.441
Mof_O 	O 	0.89046	0.51868	0.49825	-0.412
Mof_O 	O 	0.97286	0.56093	0.54276	-0.409
Mof_C 	C 	0.9098	0.5505	0.52631	0.356
Mof_C 	C 	0.85331	0.57567	0.54192	-0.099
Mof_C 	C 	0.87368	0.61978	0.57141	0.007
Mof_H 	H 	0.9239	0.6332	0.5816	0.038
Mof_C 	C 	0.9259	0.7391	0.6261	-0.104
Mof_H 	H 	0.9666	0.7401	0.6124	0.061
Mof_C 	C 	0.9539	0.7876	0.6545	0.028
Mof_H 	H 	0.0106	0.8176	0.6597	0.032
Mof_C 	C 	0.9057	0.6895	0.6377	-0.026
Mof_C 	C 	0.926	0.7376	0.6669	-0.006
Mof_H 	H 	0.9311	0.6582	0.6326	0.035
Mof_H 	H 	0.9623	0.7337	0.6816	0.034
Mof_O 	O 	0.13828	0.12909	0.71615	-0.435
Mof_O 	O 	0.48132	0.37178	0.49825	-0.408
Mof_O 	O 	0.43907	0.41193	0.54276	-0.403
Mof_C 	C 	0.4495	0.3593	0.52631	0.355
Mof_C 	C 	0.42433	0.27764	0.54192	-0.095
Mof_C 	C 	0.38022	0.2539	0.57141	0.006
Mof_H 	H 	0.3668	0.2907	0.5816	0.04
Mof_C 	C 	0.2609	0.1868	0.6261	-0.069
Mof_H 	H 	0.2599	0.2265	0.6124	0.055
Mof_C 	C 	0.2124	0.1663	0.6545	0.019
Mof_H 	H 	0.1824	0.193	0.6597	0.031
Mof_C 	C 	0.3105	0.2162	0.6377	-0.065
Mof_C 	C 	0.2624	0.1884	0.6669	0.017
Mof_H 	H 	0.3418	0.2729	0.6326	0.05
Mof_H 	H 	0.2663	0.2286	0.6816	0.03
Mof_O 	O 	0.12909	0.99081	0.21615	-0.442
Mof_O 	O 	0.37178	0.89046	0.99825	-0.412
Mof_O 	O 	0.41193	0.97286	0.04276	-0.408
Mof_C 	C 	0.3593	0.9098	0.02631	0.356
Mof_C 	C 	0.27764	0.85331	0.04192	-0.098
Mof_C 	C 	0.2539	0.87368	0.07141	0.006
Mof_H 	H 	0.2907	0.9239	0.0816	0.038
Mof_C 	C 	0.1868	0.9259	0.1261	-0.102
Mof_H 	H 	0.2265	0.9666	0.1124	0.061
Mof_C 	C 	0.1663	0.9539	0.1545	0.02
Mof_H 	H 	0.193	0.0106	0.1597	0.038
Mof_C 	C 	0.2162	0.9057	0.1377	-0.028
Mof_C 	C 	0.1884	0.926	0.1669	0.003
Mof_H 	H 	0.2729	0.9311	0.1326	0.036
Mof_H 	H 	0.2286	0.9623	0.1816	0.032
Mof_O 	O 	0.00919	0.13828	0.21615	-0.425
Mof_O 	O 	0.10954	0.48132	0.99825	-0.406
Mof_O 	O 	0.02714	0.43907	0.04276	-0.397
Mof_C 	C 	0.0902	0.4495	0.02631	0.355
Mof_C 	C 	0.14669	0.42433	0.04192	-0.094
Mof_C 	C 	0.12632	0.38022	0.07141	0.005
Mof_H 	H 	0.0761	0.3668	0.0816	0.042
Mof_C 	C 	0.0741	0.2609	0.1261	-0.027
Mof_H 	H 	0.0334	0.2599	0.1124	0.044
Mof_C 	C 	0.0461	0.2124	0.1545	0.027
Mof_H 	H 	0.9894	0.1824	0.1597	0.015
Mof_C 	C 	0.0943	0.3105	0.1377	-0.111
Mof_C 	C 	0.074	0.2624	0.1669	0.026
Mof_H 	H 	0.0689	0.3418	0.1326	0.068
Mof_H 	H 	0.0377	0.2663	0.1816	0.032
Mof_O 	O 	0.86172	0.87091	0.21615	-0.435
Mof_O 	O 	0.51868	0.62822	0.99825	-0.409
Mof_O 	O 	0.56093	0.58807	0.04276	-0.404
Mof_C 	C 	0.5505	0.6407	0.02631	0.356
Mof_C 	C 	0.57567	0.72236	0.04192	-0.098
Mof_C 	C 	0.61978	0.7461	0.07141	0.006
Mof_H 	H 	0.6332	0.7093	0.0816	0.039
Mof_C 	C 	0.7391	0.8132	0.1261	-0.078
Mof_H 	H 	0.7401	0.7735	0.1124	0.055
Mof_C 	C 	0.7876	0.8337	0.1545	0.033
Mof_H 	H 	0.8176	0.807	0.1597	0.022
Mof_C 	C 	0.6895	0.7838	0.1377	-0.054
Mof_C 	C 	0.7376	0.8116	0.1669	-0
Mof_H 	H 	0.6582	0.7271	0.1326	0.046
Mof_H 	H 	0.7337	0.7714	0.1816	0.035
Mof_O 	O 	0.00919	0.87091	0.28385	-0.426
Mof_O 	O 	0.10954	0.62822	0.50175	-0.406
Mof_O 	O 	0.02714	0.58807	0.45724	-0.397
Mof_C 	C 	0.0902	0.6407	0.47369	0.355
Mof_C 	C 	0.14669	0.72236	0.45808	-0.095
Mof_C 	C 	0.12632	0.7461	0.42859	0.006
Mof_H 	H 	0.0761	0.7093	0.4184	0.041
Mof_C 	C 	0.0741	0.8132	0.3739	-0.034
Mof_H 	H 	0.0334	0.7735	0.3876	0.045
Mof_C 	C 	0.0461	0.8337	0.3455	0.032
Mof_H 	H 	0.9894	0.807	0.3403	0.012
Mof_C 	C 	0.0943	0.7838	0.3623	-0.102
Mof_C 	C 	0.074	0.8116	0.3331	0.017
Mof_H 	H 	0.0689	0.7271	0.3674	0.064
Mof_H 	H 	0.0377	0.7714	0.3184	0.034
Mof_O 	O 	0.86172	0.99081	0.28385	-0.441
Mof_O 	O 	0.51868	0.89046	0.50175	-0.412
Mof_O 	O 	0.56093	0.97286	0.45724	-0.409
Mof_C 	C 	0.5505	0.9098	0.47369	0.356
Mof_C 	C 	0.57567	0.85331	0.45808	-0.099
Mof_C 	C 	0.61978	0.87368	0.42859	0.007
Mof_H 	H 	0.6332	0.9239	0.4184	0.038
Mof_C 	C 	0.7391	0.9259	0.3739	-0.104
Mof_H 	H 	0.7401	0.9666	0.3876	0.061
Mof_C 	C 	0.7876	0.9539	0.3455	0.028
Mof_H 	H 	0.8176	0.0106	0.3403	0.032
Mof_C 	C 	0.6895	0.9057	0.3623	-0.026
Mof_C 	C 	0.7376	0.926	0.3331	-0.006
Mof_H 	H 	0.6582	0.9311	0.3674	0.035
Mof_H 	H 	0.7337	0.9623	0.3184	0.034
Mof_O 	O 	0.12909	0.13828	0.28385	-0.435
Mof_O 	O 	0.37178	0.48132	0.50175	-0.408
Mof_O 	O 	0.41193	0.43907	0.45724	-0.403
Mof_C 	C 	0.3593	0.4495	0.47369	0.355
Mof_C 	C 	0.27764	0.42433	0.45808	-0.095
Mof_C 	C 	0.2539	0.38022	0.42859	0.006
Mof_H 	H 	0.2907	0.3668	0.4184	0.04
Mof_C 	C 	0.1868	0.2609	0.3739	-0.069
Mof_H 	H 	0.2265	0.2599	0.3876	0.055
Mof_C 	C 	0.1663	0.2124	0.3455	0.019
Mof_H 	H 	0.193	0.1824	0.3403	0.031
Mof_C 	C 	0.2162	0.3105	0.3623	-0.065
Mof_C 	C 	0.1884	0.2624	0.3331	0.017
Mof_H 	H 	0.2729	0.3418	0.3674	0.05
Mof_H 	H 	0.2286	0.2663	0.3184	0.03
Mof_O 	O 	0.99081	0.12909	0.78385	-0.442
Mof_O 	O 	0.89046	0.37178	0.00175	-0.412
Mof_O 	O 	0.97286	0.41193	0.95724	-0.408
Mof_C 	C 	0.9098	0.3593	0.97369	0.356
Mof_C 	C 	0.85331	0.27764	0.95808	-0.098
Mof_C 	C 	0.87368	0.2539	0.92859	0.006
Mof_H 	H 	0.9239	0.2907	0.9184	0.038
Mof_C 	C 	0.9259	0.1868	0.8739	-0.102
Mof_H 	H 	0.9666	0.2265	0.8876	0.061
Mof_C 	C 	0.9539	0.1663	0.8455	0.02
Mof_H 	H 	0.0106	0.193	0.8403	0.038
Mof_C 	C 	0.9057	0.2162	0.8623	-0.028
Mof_C 	C 	0.926	0.1884	0.8331	0.003
Mof_H 	H 	0.9311	0.2729	0.8674	0.036
Mof_H 	H 	0.9623	0.2286	0.8184	0.032
Mof_O 	O 	0.13828	0.00919	0.78385	-0.425
Mof_O 	O 	0.48132	0.10954	0.00175	-0.406
Mof_O 	O 	0.43907	0.02714	0.95724	-0.397
Mof_C 	C 	0.4495	0.0902	0.97369	0.355
Mof_C 	C 	0.42433	0.14669	0.95808	-0.094
Mof_C 	C 	0.38022	0.12632	0.92859	0.005
Mof_H 	H 	0.3668	0.0761	0.9184	0.042
Mof_C 	C 	0.2609	0.0741	0.8739	-0.027
Mof_H 	H 	0.2599	0.0334	0.8876	0.044
Mof_C 	C 	0.2124	0.0461	0.8455	0.027
Mof_H 	H 	0.1824	0.9894	0.8403	0.015
Mof_C 	C 	0.3105	0.0943	0.8623	-0.111
Mof_C 	C 	0.2624	0.074	0.8331	0.026
Mof_H 	H 	0.3418	0.0689	0.8674	0.068
Mof_H 	H 	0.2663	0.0377	0.8184	0.032
Mof_O 	O 	0.87091	0.86172	0.78385	-0.435
Mof_O 	O 	0.62822	0.51868	0.00175	-0.409
Mof_O 	O 	0.58807	0.56093	0.95724	-0.404
Mof_C 	C 	0.6407	0.5505	0.97369	0.356
Mof_C 	C 	0.72236	0.57567	0.95808	-0.098
Mof_C 	C 	0.7461	0.61978	0.92859	0.006
Mof_H 	H 	0.7093	0.6332	0.9184	0.039
Mof_C 	C 	0.8132	0.7391	0.8739	-0.078
Mof_H 	H 	0.7735	0.7401	0.8876	0.055
Mof_C 	C 	0.8337	0.7876	0.8455	0.033
Mof_H 	H 	0.807	0.8176	0.8403	0.022
Mof_C 	C 	0.7838	0.6895	0.8623	-0.054
Mof_C 	C 	0.8116	0.7376	0.8331	-0
Mof_H 	H 	0.7271	0.6582	0.8674	0.046
Mof_H 	H 	0.7714	0.7337	0.8184	0.035
Mof_O 	O 	0.12909	0.99081	0.28385	-0.442
Mof_O 	O 	0.37178	0.89046	0.50175	-0.411
Mof_O 	O 	0.41193	0.97286	0.45724	-0.409
Mof_C 	C 	0.3593	0.9098	0.47369	0.356
Mof_C 	C 	0.27764	0.85331	0.45808	-0.097
Mof_C 	C 	0.2539	0.87368	0.42859	0.006
Mof_H 	H 	0.2907	0.9239	0.4184	0.038
Mof_C 	C 	0.1868	0.9259	0.3739	-0.102
Mof_H 	H 	0.2265	0.9666	0.3876	0.061
Mof_C 	C 	0.1663	0.9539	0.3455	0.021
Mof_H 	H 	0.193	0.0106	0.3403	0.038
Mof_C 	C 	0.2162	0.9057	0.3623	-0.028
Mof_C 	C 	0.1884	0.926	0.3331	0.003
Mof_H 	H 	0.2729	0.9311	0.3674	0.036
Mof_H 	H 	0.2286	0.9623	0.3184	0.032
Mof_O 	O 	0.00919	0.13828	0.28385	-0.425
Mof_O 	O 	0.10954	0.48132	0.50175	-0.405
Mof_O 	O 	0.02714	0.43907	0.45724	-0.397
Mof_C 	C 	0.0902	0.4495	0.47369	0.355
Mof_C 	C 	0.14669	0.42433	0.45808	-0.094
Mof_C 	C 	0.12632	0.38022	0.42859	0.005
Mof_H 	H 	0.0761	0.3668	0.4184	0.042
Mof_C 	C 	0.0741	0.2609	0.3739	-0.027
Mof_H 	H 	0.0334	0.2599	0.3876	0.044
Mof_C 	C 	0.0461	0.2124	0.3455	0.027
Mof_H 	H 	0.9894	0.1824	0.3403	0.015
Mof_C 	C 	0.0943	0.3105	0.3623	-0.11
Mof_C 	C 	0.074	0.2624	0.3331	0.026
Mof_H 	H 	0.0689	0.3418	0.3674	0.068
Mof_H 	H 	0.0377	0.2663	0.3184	0.032
Mof_O 	O 	0.86172	0.87091	0.28385	-0.435
Mof_O 	O 	0.51868	0.62822	0.50175	-0.409
Mof_O 	O 	0.56093	0.58807	0.45724	-0.404
Mof_C 	C 	0.5505	0.6407	0.47369	0.356
Mof_C 	C 	0.57567	0.72236	0.45808	-0.098
Mof_C 	C 	0.61978	0.7461	0.42859	0.006
Mof_H 	H 	0.6332	0.7093	0.4184	0.039
Mof_C 	C 	0.7391	0.8132	0.3739	-0.078
Mof_H 	H 	0.7401	0.7735	0.3876	0.055
Mof_C 	C 	0.7876	0.8337	0.3455	0.033
Mof_H 	H 	0.8176	0.807	0.3403	0.022
Mof_C 	C 	0.6895	0.7838	0.3623	-0.054
Mof_C 	C 	0.7376	0.8116	0.3331	-0
Mof_H 	H 	0.6582	0.7271	0.3674	0.046
Mof_H 	H 	0.7337	0.7714	0.3184	0.035
Mof_O 	O 	0.87091	0.00919	0.78385	-0.426
Mof_O 	O 	0.62822	0.10954	0.00175	-0.406
Mof_O 	O 	0.58807	0.02714	0.95724	-0.397
Mof_C 	C 	0.6407	0.0902	0.97369	0.355
Mof_C 	C 	0.72236	0.14669	0.95808	-0.095
Mof_C 	C 	0.7461	0.12632	0.92859	0.006
Mof_H 	H 	0.7093	0.0761	0.9184	0.041
Mof_C 	C 	0.8132	0.0741	0.8739	-0.034
Mof_H 	H 	0.7735	0.0334	0.8876	0.045
Mof_C 	C 	0.8337	0.0461	0.8455	0.032
Mof_H 	H 	0.807	0.9894	0.8403	0.012
Mof_C 	C 	0.7838	0.0943	0.8623	-0.102
Mof_C 	C 	0.8116	0.074	0.8331	0.017
Mof_H 	H 	0.7271	0.0689	0.8674	0.064
Mof_H 	H 	0.7714	0.0377	0.8184	0.034
Mof_O 	O 	0.99081	0.86172	0.78385	-0.441
Mof_O 	O 	0.89046	0.51868	0.00175	-0.412
Mof_O 	O 	0.97286	0.56093	0.95724	-0.409
Mof_C 	C 	0.9098	0.5505	0.97369	0.356
Mof_C 	C 	0.85331	0.57567	0.95808	-0.099
Mof_C 	C 	0.87368	0.61978	0.92859	0.007
Mof_H 	H 	0.9239	0.6332	0.9184	0.038
Mof_C 	C 	0.9259	0.7391	0.8739	-0.104
Mof_H 	H 	0.9666	0.7401	0.8876	0.061
Mof_C 	C 	0.9539	0.7876	0.8455	0.028
Mof_H 	H 	0.0106	0.8176	0.8403	0.032
Mof_C 	C 	0.9057	0.6895	0.8623	-0.026
Mof_C 	C 	0.926	0.7376	0.8331	-0.006
Mof_H 	H 	0.9311	0.6582	0.8674	0.035
Mof_H 	H 	0.9623	0.7337	0.8184	0.034
Mof_O 	O 	0.13828	0.12909	0.78385	-0.435
Mof_O 	O 	0.48132	0.37178	0.00175	-0.408
Mof_O 	O 	0.43907	0.41193	0.95724	-0.403
Mof_C 	C 	0.4495	0.3593	0.97369	0.355
Mof_C 	C 	0.42433	0.27764	0.95808	-0.095
Mof_C 	C 	0.38022	0.2539	0.92859	0.006
Mof_H 	H 	0.3668	0.2907	0.9184	0.04
Mof_C 	C 	0.2609	0.1868	0.8739	-0.069
Mof_H 	H 	0.2599	0.2265	0.8876	0.055
Mof_C 	C 	0.2124	0.1663	0.8455	0.019
Mof_H 	H 	0.1824	0.193	0.8403	0.031
Mof_C 	C 	0.3105	0.2162	0.8623	-0.065
Mof_C 	C 	0.2624	0.1884	0.8331	0.018
Mof_H 	H 	0.3418	0.2729	0.8674	0.05
Mof_H 	H 	0.2663	0.2286	0.8184	0.03
Mof_O 	O 	0.99081	0.12909	0.71615	-0.442
Mof_O 	O 	0.89046	0.37178	0.49825	-0.411
Mof_O 	O 	0.97286	0.41193	0.54276	-0.408
Mof_C 	C 	0.9098	0.3593	0.52631	0.356
Mof_C 	C 	0.85331	0.27764	0.54192	-0.097
Mof_C 	C 	0.87368	0.2539	0.57141	0.006
Mof_H 	H 	0.9239	0.2907	0.5816	0.038
Mof_C 	C 	0.9259	0.1868	0.6261	-0.102
Mof_H 	H 	0.9666	0.2265	0.6124	0.061
Mof_C 	C 	0.9539	0.1663	0.6545	0.021
Mof_H 	H 	0.0106	0.193	0.6597	0.038
Mof_C 	C 	0.9057	0.2162	0.6377	-0.028
Mof_C 	C 	0.926	0.1884	0.6669	0.003
Mof_H 	H 	0.9311	0.2729	0.6326	0.036
Mof_H 	H 	0.9623	0.2286	0.6816	0.032
Mof_O 	O 	0.13828	0.00919	0.71615	-0.425
Mof_O 	O 	0.48132	0.10954	0.49825	-0.405
Mof_O 	O 	0.43907	0.02714	0.54276	-0.397
Mof_C 	C 	0.4495	0.0902	0.52631	0.355
Mof_C 	C 	0.42433	0.14669	0.54192	-0.094
Mof_C 	C 	0.38022	0.12632	0.57141	0.005
Mof_H 	H 	0.3668	0.0761	0.5816	0.042
Mof_C 	C 	0.2609	0.0741	0.6261	-0.027
Mof_H 	H 	0.2599	0.0334	0.6124	0.044
Mof_C 	C 	0.2124	0.0461	0.6545	0.027
Mof_H 	H 	0.1824	0.9894	0.6597	0.015
Mof_C 	C 	0.3105	0.0943	0.6377	-0.11
Mof_C 	C 	0.2624	0.074	0.6669	0.026
Mof_H 	H 	0.3418	0.0689	0.6326	0.068
Mof_H 	H 	0.2663	0.0377	0.6816	0.032
Mof_O 	O 	0.87091	0.86172	0.71615	-0.435
Mof_O 	O 	0.62822	0.51868	0.49825	-0.409
Mof_O 	O 	0.58807	0.56093	0.54276	-0.404
Mof_C 	C 	0.6407	0.5505	0.52631	0.356
Mof_C 	C 	0.72236	0.57567	0.54192	-0.098
Mof_C 	C 	0.7461	0.61978	0.57141	0.006
Mof_H 	H 	0.7093	0.6332	0.5816	0.039
Mof_C 	C 	0.8132	0.7391	0.6261	-0.078
Mof_H 	H 	0.7735	0.7401	0.6124	0.055
Mof_C 	C 	0.8337	0.7876	0.6545	0.033
Mof_H 	H 	0.807	0.8176	0.6597	0.022
Mof_C 	C 	0.7838	0.6895	0.6377	-0.054
Mof_C 	C 	0.8116	0.7376	0.6669	-0
Mof_H 	H 	0.7271	0.6582	0.6326	0.046
Mof_H 	H 	0.7714	0.7337	0.6816	0.035
Mof_O 	O 	0.00919	0.87091	0.21615	-0.426
Mof_O 	O 	0.10954	0.62822	0.99825	-0.406
Mof_O 	O 	0.02714	0.58807	0.04276	-0.397
Mof_C 	C 	0.0902	0.6407	0.02631	0.355
Mof_C 	C 	0.14669	0.72236	0.04192	-0.095
Mof_C 	C 	0.12632	0.7461	0.07141	0.006
Mof_H 	H 	0.0761	0.7093	0.0816	0.041
Mof_C 	C 	0.0741	0.8132	0.1261	-0.034
Mof_H 	H 	0.0334	0.7735	0.1124	0.045
Mof_C 	C 	0.0461	0.8337	0.1545	0.032
Mof_H 	H 	0.9894	0.807	0.1597	0.012
Mof_C 	C 	0.0943	0.7838	0.1377	-0.102
Mof_C 	C 	0.074	0.8116	0.1669	0.017
Mof_H 	H 	0.0689	0.7271	0.1326	0.064
Mof_H 	H 	0.0377	0.7714	0.1816	0.034
Mof_O 	O 	0.86172	0.99081	0.21615	-0.441
Mof_O 	O 	0.51868	0.89046	0.99825	-0.412
Mof_O 	O 	0.56093	0.97286	0.04276	-0.409
Mof_C 	C 	0.5505	0.9098	0.02631	0.356
Mof_C 	C 	0.57567	0.85331	0.04192	-0.099
Mof_C 	C 	0.61978	0.87368	0.07141	0.007
Mof_H 	H 	0.6332	0.9239	0.0816	0.038
Mof_C 	C 	0.7391	0.9259	0.1261	-0.104
Mof_H 	H 	0.7401	0.9666	0.1124	0.061
Mof_C 	C 	0.7876	0.9539	0.1545	0.028
Mof_H 	H 	0.8176	0.0106	0.1597	0.032
Mof_C 	C 	0.6895	0.9057	0.1377	-0.026
Mof_C 	C 	0.7376	0.926	0.1669	-0.006
Mof_H 	H 	0.6582	0.9311	0.1326	0.035
Mof_H 	H 	0.7337	0.9623	0.1816	0.034
Mof_O 	O 	0.12909	0.13828	0.21615	-0.435
Mof_O 	O 	0.37178	0.48132	0.99825	-0.408
Mof_O 	O 	0.41193	0.43907	0.04276	-0.403
Mof_C 	C 	0.3593	0.4495	0.02631	0.355
Mof_C 	C 	0.27764	0.42433	0.04192	-0.095
Mof_C 	C 	0.2539	0.38022	0.07141	0.006
Mof_H 	H 	0.2907	0.3668	0.0816	0.04
Mof_C 	C 	0.1868	0.2609	0.1261	-0.069
Mof_H 	H 	0.2265	0.2599	0.1124	0.055
Mof_C 	C 	0.1663	0.2124	0.1545	0.019
Mof_H 	H 	0.193	0.1824	0.1597	0.031
Mof_C 	C 	0.2162	0.3105	0.1377	-0.065
Mof_C 	C 	0.1884	0.2624	0.1669	0.018
Mof_H 	H 	0.2729	0.3418	0.1326	0.05
Mof_H 	H 	0.2286	0.2663	0.1816	0.03
Mof_Cu	Cu	0.52395	0.04791	0.47406	0.911
Mof_Cu	Cu	0.95209	0.47604	0.47406	0.9
Mof_Cu	Cu	0.52396	0.47604	0.47406	0.905
Mof_Cu	Cu	0.47604	0.95209	0.97406	0.9
Mof_Cu	Cu	0.04791	0.52396	0.97406	0.911
Mof_Cu	Cu	0.47604	0.52396	0.97406	0.905
Mof_Cu	Cu	0.04791	0.52396	0.52594	0.911
Mof_Cu	Cu	0.47604	0.95209	0.52594	0.9
Mof_Cu	Cu	0.47604	0.52396	0.52594	0.905
Mof_Cu	Cu	0.95209	0.47605	0.02594	0.9
Mof_Cu	Cu	0.52396	0.04791	0.02594	0.911
Mof_Cu	Cu	0.52395	0.47604	0.02594	0.905
Mof_Fe	Fe	0.88308	0.94154	0.75	1.027
Mof_Fe	Fe	0.05846	0.94154	0.75	1.041
Mof_Fe	Fe	0.05846	0.11692	0.75	1.071
Mof_Fe	Fe	0.11692	0.05846	0.25	1.071
Mof_Fe	Fe	0.94154	0.05846	0.25	1.041
Mof_Fe	Fe	0.94154	0.88308	0.25	1.027
Mof_O 	O 	-5.0206e-32	0	0.75	-0.574
Mof_O 	O 	-0	0	0.25	-0.574
Mof_C 	C 	0.77679	0.22321	0.52746	0.037
Mof_H 	H 	0.7619	0.2381	0.5079	0.049
Mof_C 	C 	0.82204	0.17796	0.58578	-0.041
Mof_C 	C 	0.84541	0.15459	0.61661	0.075
Mof_C 	C 	0.89492	0.10508	0.67466	-0.147
Mof_C 	C 	0.92131	0.07869	0.70452	0.448
Mof_C 	C 	0.77679	0.55358	0.52746	0.038
Mof_H 	H 	0.7619	0.5238	0.5079	0.048
Mof_C 	C 	0.82204	0.64408	0.58578	-0.043
Mof_C 	C 	0.84541	0.69082	0.61661	0.075
Mof_C 	C 	0.89492	0.78984	0.67466	-0.144
Mof_C 	C 	0.92131	0.84262	0.70452	0.444
Mof_C 	C 	0.44642	0.22321	0.52746	0.037
Mof_H 	H 	0.4762	0.2381	0.5079	0.05
Mof_C 	C 	0.35592	0.17796	0.58578	-0.04
Mof_C 	C 	0.30918	0.15459	0.61661	0.075
Mof_C 	C 	0.21016	0.10508	0.67466	-0.15
Mof_C 	C 	0.15738	0.07869	0.70452	0.451
Mof_C 	C 	0.22321	0.77679	0.02746	0.037
Mof_H 	H 	0.2381	0.7619	0.0079	0.049
Mof_C 	C 	0.17796	0.82204	0.08578	-0.041
Mof_C 	C 	0.15459	0.84541	0.11661	0.075
Mof_C 	C 	0.10508	0.89492	0.17466	-0.147
Mof_C 	C 	0.07869	0.92131	0.20452	0.448
Mof_C 	C 	0.22321	0.44642	0.02746	0.037
Mof_H 	H 	0.2381	0.4762	0.0079	0.05
Mof_C 	C 	0.17796	0.35592	0.08578	-0.04
Mof_C 	C 	0.15459	0.30918	0.11661	0.075
Mof_C 	C 	0.10508	0.21016	0.17466	-0.15
Mof_C 	C 	0.07869	0.15738	0.20452	0.451
Mof_C 	C 	0.55358	0.77679	0.02746	0.038
Mof_H 	H 	0.5238	0.7619	0.0079	0.048
Mof_C 	C 	0.64408	0.82204	0.08578	-0.043
Mof_C 	C 	0.69082	0.84541	0.11661	0.075
Mof_C 	C 	0.78984	0.89492	0.17466	-0.144
Mof_C 	C 	0.84262	0.92131	0.20452	0.444
Mof_C 	C 	0.22321	0.77679	0.47254	0.037
Mof_H 	H 	0.2381	0.7619	0.4921	0.049
Mof_C 	C 	0.17796	0.82204	0.41422	-0.041
Mof_C 	C 	0.15459	0.84541	0.38339	0.075
Mof_C 	C 	0.10508	0.89492	0.32534	-0.147
Mof_C 	C 	0.07869	0.92131	0.29548	0.448
Mof_C 	C 	0.55358	0.77679	0.47254	0.038
Mof_H 	H 	0.5238	0.7619	0.4921	0.048
Mof_C 	C 	0.64408	0.82204	0.41422	-0.043
Mof_C 	C 	0.69082	0.84541	0.38339	0.075
Mof_C 	C 	0.78984	0.89492	0.32534	-0.144
Mof_C 	C 	0.84262	0.92131	0.29548	0.444
Mof_C 	C 	0.22321	0.44642	0.47254	0.037
Mof_H 	H 	0.2381	0.4762	0.4921	0.05
Mof_C 	C 	0.17796	0.35592	0.41422	-0.04
Mof_C 	C 	0.15459	0.30918	0.38339	0.075
Mof_C 	C 	0.10508	0.21016	0.32534	-0.15
Mof_C 	C 	0.07869	0.15738	0.29548	0.451
Mof_C 	C 	0.77679	0.22321	0.97254	0.037
Mof_H 	H 	0.7619	0.2381	0.9921	0.049
Mof_C 	C 	0.82204	0.17796	0.91422	-0.041
Mof_C 	C 	0.84541	0.15459	0.88339	0.075
Mof_C 	C 	0.89492	0.10508	0.82534	-0.147
Mof_C 	C 	0.92131	0.07869	0.79548	0.448
Mof_C 	C 	0.44642	0.22321	0.97254	0.037
Mof_H 	H 	0.4762	0.2381	0.9921	0.05
Mof_C 	C 	0.35592	0.17796	0.91422	-0.04
Mof_C 	C 	0.30918	0.15459	0.88339	0.075
Mof_C 	C 	0.21016	0.10508	0.82534	-0.15
Mof_C 	C 	0.15738	0.07869	0.79548	0.451
Mof_C 	C 	0.77679	0.55358	0.97254	0.038
Mof_H 	H 	0.7619	0.5238	0.9921	0.048
Mof_C 	C 	0.82204	0.64408	0.91422	-0.043
Mof_C 	C 	0.84541	0.69082	0.88339	0.075
Mof_C 	C 	0.89492	0.78984	0.82534	-0.144
Mof_C 	C 	0.92131	0.84262	0.79548	0.444
_end
