data_functionalizedCrystal
_audit_creation_method	'EQeq! by Chris Wilmer'
_symmetry_space_group_name_H-M	'P1'
_symmetry_Int_Tables_number	1
_symmetry_cell_setting	triclinic
loop_
_symmetry_equiv_pos_as_xyz
  x,y,z
_cell_length_a	8.1523
_cell_length_b	18.051
_cell_length_c	21.2912
_cell_angle_alpha	90
_cell_angle_beta	90
_cell_angle_gamma	90
loop_
_atom_site_label
_atom_site_type_symbol
_atom_site_fract_x
_atom_site_fract_y
_atom_site_fract_z
_atom_site_charge
Mof_Cd	Cd	0.48438	0.78193	0.96306	0.455
Mof_Cd	Cd	0.01562	0.21807	0.46306	0.454
Mof_Cd	Cd	0.51562	0.28193	0.53694	0.454
Mof_Cd	Cd	0.98438	0.71807	0.03694	0.454
Mof_H 	H 	0.3343	0.5951	0.5796	0.081
Mof_H 	H 	0.7549	0.7725	0.5522	0.075
Mof_H 	H 	0.5231	0.4969	0.4271	0.079
Mof_H 	H 	0.5002	0.5009	0.8313	0.059
Mof_H 	H 	0.6069	0.2929	0.7818	0.052
Mof_H 	H 	0.074	0.5778	0.5407	0.02
Mof_H 	H 	0.5193	0.3787	0.8554	0.042
Mof_H 	H 	0.2608	0.4789	0.3898	0.028
Mof_H 	H 	0.7036	0.6129	0.8222	0.103
Mof_H 	H 	0.704	0.6825	0.7779	0.106
Mof_H 	H 	0.6643	0.3291	0.681	0.076
Mof_H 	H 	0.1781	0.6751	0.6702	0.027
Mof_H 	H 	0.0237	0.8035	0.5301	0.021
Mof_H 	H 	0.9107	0.6432	0.6933	0.076
Mof_H 	H 	0.8873	0.4471	0.5487	0.105
Mof_H 	H 	0.916	0.4061	0.6128	0.106
Mof_H 	H 	0.2352	0.7571	0.5904	0.067
Mof_H 	H 	0.036	0.5165	0.4463	0.07
Mof_H 	H 	0.1657	0.4049	0.0796	0.081
Mof_H 	H 	0.7451	0.2275	0.0522	0.075
Mof_H 	H 	0.9769	0.5031	0.9271	0.079
Mof_H 	H 	0.9998	0.4991	0.3313	0.059
Mof_H 	H 	0.8931	0.7071	0.2818	0.052
Mof_H 	H 	0.426	0.4222	0.0407	0.02
Mof_H 	H 	0.9807	0.6213	0.3554	0.042
Mof_H 	H 	0.2392	0.5211	0.8898	0.028
Mof_H 	H 	0.7964	0.3871	0.3222	0.103
Mof_H 	H 	0.796	0.3175	0.2779	0.106
Mof_H 	H 	0.8357	0.6709	0.181	0.076
Mof_H 	H 	0.3219	0.3249	0.1702	0.027
Mof_H 	H 	0.4763	0.1965	0.0301	0.021
Mof_H 	H 	0.5893	0.3568	0.1933	0.077
Mof_H 	H 	0.6127	0.5529	0.0487	0.105
Mof_H 	H 	0.584	0.5939	0.1128	0.106
Mof_H 	H 	0.2648	0.2429	0.0904	0.067
Mof_H 	H 	0.464	0.4835	0.9463	0.07
Mof_H 	H 	0.6657	0.0951	0.9204	0.08
Mof_H 	H 	0.2451	0.2725	0.9478	0.075
Mof_H 	H 	0.4769	0.9969	0.0729	0.078
Mof_H 	H 	0.4998	0.0009	0.6687	0.059
Mof_H 	H 	0.3931	0.7929	0.7182	0.052
Mof_H 	H 	0.926	0.0778	0.9593	0.021
Mof_H 	H 	0.4807	0.8787	0.6446	0.042
Mof_H 	H 	0.7392	0.9789	0.1102	0.029
Mof_H 	H 	0.2964	0.1129	0.6778	0.103
Mof_H 	H 	0.296	0.1825	0.7221	0.106
Mof_H 	H 	0.3357	0.8291	0.819	0.076
Mof_H 	H 	0.8219	0.1751	0.8298	0.027
Mof_H 	H 	0.9763	0.3035	0.9699	0.021
Mof_H 	H 	0.0893	0.1432	0.8067	0.076
Mof_H 	H 	0.1127	0.9471	0.9513	0.105
Mof_H 	H 	0.084	0.9061	0.8872	0.106
Mof_H 	H 	0.7648	0.2571	0.9096	0.066
Mof_H 	H 	0.964	0.0165	0.0537	0.069
Mof_H 	H 	0.8343	0.9049	0.4204	0.081
Mof_H 	H 	0.2549	0.7275	0.4478	0.075
Mof_H 	H 	0.0231	0.0031	0.5729	0.079
Mof_H 	H 	0.0002	0.9991	0.1687	0.058
Mof_H 	H 	0.1069	0.2071	0.2182	0.052
Mof_H 	H 	0.574	0.9222	0.4593	0.02
Mof_H 	H 	0.0193	0.1213	0.1446	0.042
Mof_H 	H 	0.7608	0.0211	0.6102	0.027
Mof_H 	H 	0.2036	0.8871	0.1778	0.103
Mof_H 	H 	0.204	0.8175	0.2221	0.106
Mof_H 	H 	0.1643	0.1709	0.319	0.076
Mof_H 	H 	0.6781	0.8249	0.3298	0.027
Mof_H 	H 	0.5237	0.6965	0.4699	0.02
Mof_H 	H 	0.4107	0.8568	0.3067	0.077
Mof_H 	H 	0.3873	0.0529	0.4513	0.105
Mof_H 	H 	0.416	0.0939	0.3872	0.106
Mof_H 	H 	0.7352	0.7429	0.4096	0.067
Mof_H 	H 	0.536	0.9835	0.5537	0.07
Mof_C 	C 	0.3201	0.57165	0.5411	-0.125
Mof_C 	C 	0.6498	0.46388	0.63126	0.084
Mof_C 	C 	0.6386	0.53716	0.61517	-0.024
Mof_C 	C 	0.6204	0.43942	0.69355	-0.008
Mof_C 	C 	0.6018	0.59125	0.66249	-0.024
Mof_C 	C 	0.8396	0.7529	0.5763	-0.12
Mof_C 	C 	0.4333	0.5129	0.45032	-0.123
Mof_C 	C 	0.5337	0.4673	0.80081	-0.05
Mof_C 	C 	0.4557	0.54806	0.50781	0.076
Mof_C 	C 	0.805	0.705	0.62535	0.07
Mof_C 	C 	0.5969	0.3425	0.7705	-0.03
Mof_C 	C 	0.5647	0.56863	0.72202	0.079
Mof_C 	C 	0.5722	0.49251	0.73927	-0.007
Mof_C 	C 	0.1641	0.5609	0.51807	0.037
Mof_C 	C 	0.5457	0.3945	0.81509	-0.033
Mof_C 	C 	0.2759	0.5023	0.4283	0.041
Mof_C 	C 	0.5604	0.69734	0.8559	0.35
Mof_C 	C 	0.6353	0.6514	0.80408	-0.196
Mof_C 	C 	0.6323	0.36409	0.71063	-0.051
Mof_C 	C 	0.0928	0.6951	0.6467	0.03
Mof_C 	C 	0.0007	0.7716	0.5633	0.032
Mof_C 	C 	0.9327	0.67578	0.6605	-0.117
Mof_C 	C 	0.8545	0.40477	0.5738	-0.196
Mof_C 	C 	0.1274	0.7435	0.5988	-0.106
Mof_C 	C 	0.1411	0.5251	0.4616	-0.107
Mof_C 	C 	0.8947	0.33464	0.53886	0.348
Mof_C 	C 	0.1799	0.42835	0.0411	-0.126
Mof_C 	C 	0.8502	0.53612	0.13126	0.083
Mof_C 	C 	0.8614	0.46284	0.11517	-0.024
Mof_C 	C 	0.8796	0.56058	0.19355	-0.008
Mof_C 	C 	0.8982	0.40875	0.16249	-0.024
Mof_C 	C 	0.6604	0.2471	0.0763	-0.121
Mof_C 	C 	0.0667	0.4871	0.95032	-0.124
Mof_C 	C 	0.9663	0.5327	0.30081	-0.05
Mof_C 	C 	0.0443	0.45194	0.00781	0.077
Mof_C 	C 	0.695	0.295	0.12535	0.07
Mof_C 	C 	0.9031	0.6575	0.2705	-0.03
Mof_C 	C 	0.9353	0.43137	0.22202	0.079
Mof_C 	C 	0.9278	0.50749	0.23927	-0.007
Mof_C 	C 	0.3359	0.4391	0.01807	0.038
Mof_C 	C 	0.9543	0.6055	0.31509	-0.033
Mof_C 	C 	0.2241	0.4977	0.9283	0.042
Mof_C 	C 	0.9396	0.30266	0.3559	0.35
Mof_C 	C 	0.8647	0.3486	0.30408	-0.196
Mof_C 	C 	0.8677	0.63591	0.21063	-0.051
Mof_C 	C 	0.4072	0.3049	0.1467	0.031
Mof_C 	C 	0.4993	0.2284	0.0633	0.033
Mof_C 	C 	0.5673	0.32422	0.1605	-0.118
Mof_C 	C 	0.6455	0.59523	0.0738	-0.196
Mof_C 	C 	0.3726	0.2565	0.0988	-0.107
Mof_C 	C 	0.3589	0.4749	0.9616	-0.108
Mof_C 	C 	0.6053	0.66536	0.03886	0.348
Mof_C 	C 	0.6799	0.07165	0.9589	-0.124
Mof_C 	C 	0.3502	0.96388	0.86874	0.084
Mof_C 	C 	0.3614	0.03716	0.88483	-0.024
Mof_C 	C 	0.3796	0.93942	0.80645	-0.008
Mof_C 	C 	0.3982	0.09125	0.83751	-0.024
Mof_C 	C 	0.1604	0.2529	0.9237	-0.12
Mof_C 	C 	0.5667	0.0129	0.04968	-0.12
Mof_C 	C 	0.4663	0.9673	0.69919	-0.049
Mof_C 	C 	0.5443	0.04806	0.99219	0.074
Mof_C 	C 	0.195	0.205	0.87465	0.069
Mof_C 	C 	0.4031	0.8425	0.7295	-0.03
Mof_C 	C 	0.4353	0.06863	0.77798	0.078
Mof_C 	C 	0.4278	0.99251	0.76073	-0.007
Mof_C 	C 	0.8359	0.0609	0.98193	0.034
Mof_C 	C 	0.4543	0.8945	0.68491	-0.033
Mof_C 	C 	0.7241	0.0023	0.0717	0.039
Mof_C 	C 	0.4396	0.19734	0.6441	0.35
Mof_C 	C 	0.3647	0.1514	0.69592	-0.196
Mof_C 	C 	0.3677	0.86409	0.78937	-0.051
Mof_C 	C 	0.9072	0.1951	0.8533	0.029
Mof_C 	C 	0.9993	0.2716	0.9367	0.031
Mof_C 	C 	0.0673	0.17578	0.8395	-0.117
Mof_C 	C 	0.1455	0.90477	0.9262	-0.196
Mof_C 	C 	0.8726	0.2435	0.9012	-0.106
Mof_C 	C 	0.8589	0.0251	0.0384	-0.105
Mof_C 	C 	0.1053	0.83464	0.96114	0.348
Mof_C 	C 	0.8201	0.92835	0.4589	-0.126
Mof_C 	C 	0.1498	0.03612	0.36874	0.084
Mof_C 	C 	0.1386	0.96284	0.38483	-0.024
Mof_C 	C 	0.1204	0.06058	0.30645	-0.008
Mof_C 	C 	0.1018	0.90875	0.33751	-0.024
Mof_C 	C 	0.3396	0.7471	0.4237	-0.121
Mof_C 	C 	0.9333	0.9871	0.54968	-0.124
Mof_C 	C 	0.0337	0.0327	0.19919	-0.048
Mof_C 	C 	0.9557	0.95194	0.49219	0.077
Mof_C 	C 	0.305	0.795	0.37465	0.07
Mof_C 	C 	0.0969	0.1575	0.2295	-0.029
Mof_C 	C 	0.0647	0.93137	0.27798	0.078
Mof_C 	C 	0.0722	0.00749	0.26073	-0.007
Mof_C 	C 	0.6641	0.9391	0.48193	0.038
Mof_C 	C 	0.0457	0.1055	0.18491	-0.034
Mof_C 	C 	0.7759	0.9977	0.5717	0.043
Mof_C 	C 	0.0604	0.80266	0.1441	0.35
Mof_C 	C 	0.1353	0.8486	0.19592	-0.196
Mof_C 	C 	0.1323	0.13591	0.28937	-0.051
Mof_C 	C 	0.5928	0.8049	0.3533	0.031
Mof_C 	C 	0.5007	0.7284	0.4367	0.033
Mof_C 	C 	0.4327	0.82422	0.3395	-0.118
Mof_C 	C 	0.3545	0.09523	0.4262	-0.196
Mof_C 	C 	0.6274	0.7565	0.4012	-0.107
Mof_C 	C 	0.6411	0.9749	0.5384	-0.108
Mof_C 	C 	0.3947	0.16536	0.46114	0.348
Mof_S 	S 	0.66006	0.56352	0.53483	-0.028
Mof_S 	S 	0.59568	0.68713	0.64372	-0.027
Mof_S 	S 	0.83994	0.43648	0.03483	-0.029
Mof_S 	S 	0.90432	0.31287	0.14372	-0.028
Mof_S 	S 	0.33994	0.06352	0.96517	-0.028
Mof_S 	S 	0.40432	0.18713	0.85628	-0.027
Mof_S 	S 	0.16006	0.93648	0.46517	-0.029
Mof_S 	S 	0.09568	0.81287	0.35628	-0.027
Mof_O 	O 	0.5094	0.61842	0.7667	-0.147
Mof_O 	O 	0.6841	0.40969	0.58725	-0.167
Mof_O 	O 	0.4122	0.70375	0.86223	-0.26
Mof_O 	O 	0.6611	0.72882	0.89173	-0.283
Mof_O 	O 	0.0377	0.32991	0.51758	-0.274
Mof_O 	O 	0.7912	0.28418	0.53309	-0.288
Mof_O 	O 	0.9906	0.38158	0.2667	-0.147
Mof_O 	O 	0.8159	0.59031	0.08725	-0.167
Mof_O 	O 	0.0878	0.29625	0.36223	-0.26
Mof_O 	O 	0.8389	0.27118	0.39173	-0.283
Mof_O 	O 	0.4623	0.67009	0.01758	-0.275
Mof_O 	O 	0.7088	0.71582	0.03309	-0.288
Mof_O 	O 	0.4906	0.11842	0.7333	-0.147
Mof_O 	O 	0.3159	0.90969	0.91275	-0.167
Mof_O 	O 	0.5878	0.20375	0.63777	-0.26
Mof_O 	O 	0.3389	0.22882	0.60827	-0.283
Mof_O 	O 	0.9623	0.82991	0.98242	-0.274
Mof_O 	O 	0.2088	0.78418	0.96691	-0.288
Mof_O 	O 	0.0094	0.88158	0.2333	-0.147
Mof_O 	O 	0.1841	0.09031	0.41275	-0.167
Mof_O 	O 	0.9122	0.79625	0.13777	-0.26
Mof_O 	O 	0.1611	0.77118	0.10827	-0.283
Mof_O 	O 	0.5377	0.17009	0.48242	-0.275
Mof_O 	O 	0.2912	0.21582	0.46691	-0.288
_end
