# CIF file generated by openbabel 3.1.0, see https://openbabel.org
data_I
_chemical_name_common 'ELIKOA_clean'
_cell_length_a 9.341
_cell_length_b 9.849
_cell_length_c 11.422
_cell_angle_alpha 94.076
_cell_angle_beta 98.577
_cell_angle_gamma 110.927
_space_group_name_H-M_alt 'P 1'
_space_group_name_Hall 'P 1'
loop_
    _symmetry_equiv_pos_as_xyz
    x,y,z
loop_
    _atom_site_label
    _atom_site_type_symbol
    _atom_site_fract_x
    _atom_site_fract_y
    _atom_site_fract_z
    _atom_site_occupancy
    Eu1      Eu       0.71801    0.45464    0.01471    1.000
    Eu2      Eu       0.28199    0.54536    0.98529    1.000
    H1       H        0.06550    0.60420    0.42290    1.000
    H2       H        0.15440    0.72850    0.61590    1.000
    H3       H        0.82290    0.89780    0.56860    1.000
    H4       H        0.73130    0.77310    0.38030    1.000
    H5       H        0.07960    0.13900    0.83540    1.000
    H6       H        0.67950    0.00300    0.96190    1.000
    H7       H        0.80410    0.71190    0.77930    1.000
    H8       H        0.93450    0.39580    0.57710    1.000
    H9       H        0.84560    0.27150    0.38410    1.000
    H10      H        0.17710    0.10220    0.43140    1.000
    H11      H        0.26870    0.22690    0.61970    1.000
    H12      H        0.92040    0.86100    0.16460    1.000
    H13      H        0.32050    0.99700    0.03810    1.000
    H14      H        0.19590    0.28810    0.22070    1.000
    C1       C        0.82430    0.58830    0.26000    1.000
    C2       C        0.88590    0.67260    0.38040    1.000
    C3       C        0.01510    0.66160    0.45240    1.000
    C4       C        0.06880    0.73660    0.56810    1.000
    C5       C        0.99650    0.82120    0.61120    1.000
    C6       C        0.87000    0.83710    0.53960    1.000
    C7       C        0.81640    0.76320    0.42730    1.000
    C8       C        0.95290    0.92130    0.79210    1.000
    C9       C        0.98880    0.06410    0.84440    1.000
    C10      C        0.88800    0.09330    0.90990    1.000
    C11      C        0.75040    0.98170    0.92210    1.000
    C12      C        0.72020    0.83800    0.87420    1.000
    C13      C        0.82290    0.80790    0.81000    1.000
    C14      C        0.92240    0.24700    0.96730    1.000
    C15      C        0.57990    0.71800    0.89760    1.000
    C16      C        0.17570    0.41170    0.74000    1.000
    C17      C        0.11410    0.32740    0.61960    1.000
    C18      C        0.98490    0.33840    0.54760    1.000
    C19      C        0.93120    0.26340    0.43190    1.000
    C20      C        0.00350    0.17880    0.38880    1.000
    C21      C        0.13000    0.16290    0.46040    1.000
    C22      C        0.18360    0.23680    0.57270    1.000
    C23      C        0.04710    0.07870    0.20790    1.000
    C24      C        0.01120    0.93590    0.15560    1.000
    C25      C        0.11200    0.90670    0.09010    1.000
    C26      C        0.24960    0.01830    0.07790    1.000
    C27      C        0.27980    0.16200    0.12580    1.000
    C28      C        0.17710    0.19210    0.19000    1.000
    C29      C        0.07760    0.75300    0.03270    1.000
    C30      C        0.42010    0.28200    0.10240    1.000
    O1       O        0.71520    0.61020    0.19200    1.000
    O2       O        0.87940    0.49700    0.22260    1.000
    O3       O        0.81740    0.27070    0.01070    1.000
    O4       O        0.05500    0.34100    0.96820    1.000
    O5       O        0.45290    0.73810    0.88880    1.000
    O6       O        0.58990    0.60050    0.92550    1.000
    O7       O        0.05630    0.89490    0.72620    1.000
    O8       O        0.28480    0.38980    0.80800    1.000
    O9       O        0.12060    0.50300    0.77740    1.000
    O10      O        0.18260    0.72930    0.98930    1.000
    O11      O        0.94500    0.65900    0.03180    1.000
    O12      O        0.54710    0.26190    0.11120    1.000
    O13      O        0.41010    0.39950    0.07450    1.000
    O14      O        0.94370    0.10510    0.27380    1.000
