# CIF file generated by openbabel 3.1.0, see https://openbabel.org
data_I
_chemical_name_common 'image0'
_cell_length_a 15.4228
_cell_length_b 10.2047
_cell_length_c 18.7078
_cell_angle_alpha 90
_cell_angle_beta 103.835
_cell_angle_gamma 90
_space_group_name_H-M_alt 'P 1'
_space_group_name_Hall 'P 1'
loop_
    _symmetry_equiv_pos_as_xyz
    x,y,z
loop_
    _atom_site_label
    _atom_site_type_symbol
    _atom_site_fract_x
    _atom_site_fract_y
    _atom_site_fract_z
    _atom_site_occupancy
    V1       V        0.16434    0.12191    0.08617    1.000
    V2       V        0.24587    0.05145    0.28487    1.000
    V3       V        0.18727    0.91703    0.78053    1.000
    P1       P        0.29103    0.38197    0.07722    1.000
    P2       P        0.66486    0.33569    0.16595    1.000
    O1       O        0.20873    0.29907    0.07397    1.000
    O2       O        0.21375    0.14690    0.19040    1.000
    O3       O        0.67016    0.43049    0.10343    1.000
    O4       O        0.29677    0.43072    0.00092    1.000
    O5       O        0.29101    0.50534    0.12369    1.000
    O6       O        0.73269    0.22657    0.16785    1.000
    O7       O        0.67724    0.40470    0.23993    1.000
    C1       C        0.38812    0.28410    0.11431    1.000
    H1       H        0.39010    0.21140    0.07970    1.000
    H2       H        0.38180    0.24490    0.16120    1.000
    C2       C        0.47733    0.35840    0.12867    1.000
    H3       H        0.48180    0.41880    0.17080    1.000
    H4       H        0.47980    0.41130    0.08490    1.000
    C3       C        0.55552    0.26250    0.14545    1.000
    H5       H        0.55030    0.20770    0.18790    1.000
    H6       H        0.55030    0.20360    0.10260    1.000
    H7       H        0.22000    0.21300    0.19500    1.000
    V4       V        0.66434    0.62191    0.08617    1.000
    V5       V        0.74587    0.55145    0.28487    1.000
    V6       V        0.68727    0.41703    0.78053    1.000
    P3       P        0.79103    0.88197    0.07722    1.000
    P4       P        0.16486    0.83569    0.16595    1.000
    O8       O        0.70873    0.79907    0.07397    1.000
    O9       O        0.71375    0.64690    0.19040    1.000
    O10      O        0.17016    0.93049    0.10343    1.000
    O11      O        0.79677    0.93072    0.00092    1.000
    O12      O        0.79101    0.00534    0.12369    1.000
    O13      O        0.23269    0.72657    0.16785    1.000
    O14      O        0.17724    0.90470    0.23993    1.000
    C4       C        0.88812    0.78410    0.11431    1.000
    H8       H        0.89010    0.71140    0.07970    1.000
    H9       H        0.88180    0.74490    0.16120    1.000
    C5       C        0.97733    0.85840    0.12867    1.000
    H10      H        0.98180    0.91880    0.17080    1.000
    H11      H        0.97980    0.91130    0.08490    1.000
    C6       C        0.05552    0.76250    0.14545    1.000
    H12      H        0.05030    0.70770    0.18790    1.000
    H13      H        0.05030    0.70360    0.10260    1.000
    H14      H        0.72000    0.71300    0.19500    1.000
    V7       V        0.83566    0.12191    0.41383    1.000
    V8       V        0.75413    0.05145    0.21513    1.000
    V9       V        0.81273    0.91703    0.71947    1.000
    P5       P        0.70897    0.38197    0.42278    1.000
    P6       P        0.33514    0.33569    0.33405    1.000
    O15      O        0.79127    0.29907    0.42603    1.000
    O16      O        0.78625    0.14690    0.30960    1.000
    O17      O        0.32984    0.43049    0.39657    1.000
    O18      O        0.70323    0.43072    0.49908    1.000
    O19      O        0.70899    0.50534    0.37631    1.000
    O20      O        0.26731    0.22657    0.33215    1.000
    O21      O        0.32276    0.40470    0.26007    1.000
    C7       C        0.61188    0.28410    0.38569    1.000
    H15      H        0.60990    0.21140    0.42030    1.000
    H16      H        0.61820    0.24490    0.33880    1.000
    C8       C        0.52267    0.35840    0.37133    1.000
    H17      H        0.51820    0.41880    0.32920    1.000
    H18      H        0.52020    0.41130    0.41510    1.000
    C9       C        0.44448    0.26250    0.35455    1.000
    H19      H        0.44970    0.20770    0.31210    1.000
    H20      H        0.44970    0.20360    0.39740    1.000
    H21      H        0.78000    0.21300    0.30500    1.000
    V10      V        0.33566    0.62191    0.41383    1.000
    V11      V        0.25413    0.55145    0.21513    1.000
    V12      V        0.31273    0.41703    0.71947    1.000
    P7       P        0.20897    0.88197    0.42278    1.000
    P8       P        0.83514    0.83569    0.33405    1.000
    O22      O        0.29127    0.79907    0.42603    1.000
    O23      O        0.28625    0.64690    0.30960    1.000
    O24      O        0.82984    0.93049    0.39657    1.000
    O25      O        0.20323    0.93072    0.49908    1.000
    O26      O        0.20899    0.00534    0.37631    1.000
    O27      O        0.76731    0.72657    0.33215    1.000
    O28      O        0.82276    0.90470    0.26007    1.000
    C10      C        0.11188    0.78410    0.38569    1.000
    H22      H        0.10990    0.71140    0.42030    1.000
    H23      H        0.11820    0.74490    0.33880    1.000
    C11      C        0.02267    0.85840    0.37133    1.000
    H24      H        0.01820    0.91880    0.32920    1.000
    H25      H        0.02020    0.91130    0.41510    1.000
    C12      C        0.94448    0.76250    0.35455    1.000
    H26      H        0.94970    0.70770    0.31210    1.000
    H27      H        0.94970    0.70360    0.39740    1.000
    H28      H        0.28000    0.71300    0.30500    1.000
    V13      V        0.83566    0.87809    0.91383    1.000
    V14      V        0.75413    0.94855    0.71513    1.000
    V15      V        0.81273    0.08297    0.21947    1.000
    P9       P        0.70897    0.61803    0.92278    1.000
    P10      P        0.33514    0.66431    0.83405    1.000
    O29      O        0.79127    0.70093    0.92603    1.000
    O30      O        0.78625    0.85310    0.80960    1.000
    O31      O        0.32984    0.56951    0.89657    1.000
    O32      O        0.70323    0.56928    0.99908    1.000
    O33      O        0.70899    0.49466    0.87631    1.000
    O34      O        0.26731    0.77343    0.83215    1.000
    O35      O        0.32276    0.59530    0.76007    1.000
    C13      C        0.61188    0.71590    0.88569    1.000
    H29      H        0.60990    0.78860    0.92030    1.000
    H30      H        0.61820    0.75510    0.83880    1.000
    C14      C        0.52267    0.64160    0.87133    1.000
    H31      H        0.51820    0.58120    0.82920    1.000
    H32      H        0.52020    0.58870    0.91510    1.000
    C15      C        0.44448    0.73750    0.85455    1.000
    H33      H        0.44970    0.79230    0.81210    1.000
    H34      H        0.44970    0.79640    0.89740    1.000
    H35      H        0.78000    0.78700    0.80500    1.000
    V16      V        0.33566    0.37809    0.91383    1.000
    V17      V        0.25413    0.44855    0.71513    1.000
    V18      V        0.31273    0.58297    0.21947    1.000
    P11      P        0.20897    0.11803    0.92278    1.000
    P12      P        0.83514    0.16431    0.83405    1.000
    O36      O        0.29127    0.20093    0.92603    1.000
    O37      O        0.28625    0.35310    0.80960    1.000
    O38      O        0.82984    0.06951    0.89657    1.000
    O39      O        0.20323    0.06928    0.99908    1.000
    O40      O        0.20899    0.99466    0.87631    1.000
    O41      O        0.76731    0.27343    0.83215    1.000
    O42      O        0.82276    0.09530    0.76007    1.000
    C16      C        0.11188    0.21590    0.88569    1.000
    H36      H        0.10990    0.28860    0.92030    1.000
    H37      H        0.11820    0.25510    0.83880    1.000
    C17      C        0.02267    0.14160    0.87133    1.000
    H38      H        0.01820    0.08120    0.82920    1.000
    H39      H        0.02020    0.08870    0.91510    1.000
    C18      C        0.94448    0.23750    0.85455    1.000
    H40      H        0.94970    0.29230    0.81210    1.000
    H41      H        0.94970    0.29640    0.89740    1.000
    H42      H        0.28000    0.28700    0.80500    1.000
    V19      V        0.16434    0.87809    0.58617    1.000
    V20      V        0.24587    0.94855    0.78487    1.000
    V21      V        0.18727    0.08297    0.28053    1.000
    P13      P        0.29103    0.61803    0.57722    1.000
    P14      P        0.66486    0.66431    0.66595    1.000
    O43      O        0.20873    0.70093    0.57397    1.000
    O44      O        0.21375    0.85310    0.69040    1.000
    O45      O        0.67016    0.56951    0.60343    1.000
    O46      O        0.29677    0.56928    0.50092    1.000
    O47      O        0.29101    0.49466    0.62369    1.000
    O48      O        0.73269    0.77343    0.66785    1.000
    O49      O        0.67724    0.59530    0.73993    1.000
    C19      C        0.38812    0.71590    0.61431    1.000
    H43      H        0.39010    0.78860    0.57970    1.000
    H44      H        0.38180    0.75510    0.66120    1.000
    C20      C        0.47733    0.64160    0.62867    1.000
    H45      H        0.48180    0.58120    0.67080    1.000
    H46      H        0.47980    0.58870    0.58490    1.000
    C21      C        0.55552    0.73750    0.64545    1.000
    H47      H        0.55030    0.79230    0.68790    1.000
    H48      H        0.55030    0.79640    0.60260    1.000
    H49      H        0.22000    0.78700    0.69500    1.000
    V22      V        0.66434    0.37809    0.58617    1.000
    V23      V        0.74587    0.44855    0.78487    1.000
    V24      V        0.68727    0.58297    0.28053    1.000
    P15      P        0.79103    0.11803    0.57722    1.000
    P16      P        0.16486    0.16431    0.66595    1.000
    O50      O        0.70873    0.20093    0.57397    1.000
    O51      O        0.71375    0.35310    0.69040    1.000
    O52      O        0.17016    0.06951    0.60343    1.000
    O53      O        0.79677    0.06928    0.50092    1.000
    O54      O        0.79101    0.99466    0.62369    1.000
    O55      O        0.23269    0.27343    0.66785    1.000
    O56      O        0.17724    0.09530    0.73993    1.000
    C22      C        0.88812    0.21590    0.61431    1.000
    H50      H        0.89010    0.28860    0.57970    1.000
    H51      H        0.88180    0.25510    0.66120    1.000
    C23      C        0.97733    0.14160    0.62867    1.000
    H52      H        0.98180    0.08120    0.67080    1.000
    H53      H        0.97980    0.08870    0.58490    1.000
    C24      C        0.05552    0.23750    0.64545    1.000
    H54      H        0.05030    0.29230    0.68790    1.000
    H55      H        0.05030    0.29640    0.60260    1.000
    H56      H        0.72000    0.28700    0.69500    1.000
